data_functionalizedCrystal
_audit_creation_method	'MofGen! by Chris Wilmer'
_symmetry_space_group_name_H-M	'P1'
_symmetry_Int_Tables_number	1
_symmetry_cell_setting	triclinic
loop_
_symmetry_equiv_pos_as_xyz
  x,y,z
_cell_length_a	33.428889
_cell_length_b	33.428139
_cell_length_c	33.424847
_cell_angle_alpha	60.004234
_cell_angle_beta	60.008465
_cell_angle_gamma	59.994972
loop_
_atom_site_label
_atom_site_type_symbol
_atom_site_fract_x
_atom_site_fract_y
_atom_site_fract_z
O1	O	0.055565	-0.584504	0.488714
O2	O	0.555565	-0.084504	0.988714
O3	O	0.020982	-0.455083	0.393778
O4	O	0.520982	0.044917	0.893778
O5	O	0.102943	-0.536959	0.393689
O6	O	0.602943	-0.036959	0.893689
O7	O	-0.026396	-0.502628	0.488803
O8	O	0.473604	-0.002628	0.988803
O9	O	0.130140	-0.509767	0.420792
O10	O	0.630140	-0.009767	0.920792
O11	O	0.048179	-0.427891	0.420881
O12	O	0.548179	0.072109	0.920881
O13	O	0.082762	-0.557312	0.515817
O14	O	0.582762	-0.057312	1.015817
Cu15	Cu	0.067954	-0.490119	0.470823
Cu16	Cu	0.567954	0.009881	0.970823
Cu17	Cu	0.035790	-0.522276	0.438771
Cu18	Cu	0.535790	-0.022276	0.938771
O19	O	0.000801	-0.475436	0.515906
O20	O	0.500801	0.024564	1.015906
N21	N	0.090577	-0.467504	0.493370
N22	N	0.590577	0.032496	0.993370
N23	N	0.013171	-0.544895	0.416225
N24	N	0.513171	-0.044895	0.916225
C25	C	0.143377	-0.280390	0.546067
C26	C	0.643377	0.219610	1.046067
C27	C	0.143515	-0.414755	0.680369
C28	C	0.643515	0.085245	1.180369
C29	C	0.143392	-0.414735	0.546069
C30	C	0.643392	0.085265	1.046069
C31	C	0.277766	-0.414702	0.545966
C32	C	0.777766	0.085298	1.045966
C33	C	0.158177	-0.324719	0.560828
C34	C	0.658177	0.175281	1.060828
C35	C	0.158255	-0.399967	0.636038
C36	C	0.658255	0.100033	1.136038
C37	C	0.233434	-0.399936	0.560773
C38	C	0.733434	0.100064	1.060773
C39	C	0.158186	-0.399955	0.560829
C40	C	0.658186	0.100045	1.060829
C41	C	0.124540	-0.223964	0.527278
C42	C	0.624540	0.276036	1.027278
C43	C	0.124565	-0.433545	0.527281
C44	C	0.624565	0.066455	1.027281
C45	C	0.177014	-0.381145	0.579617
C46	C	0.677014	0.118855	1.079617
C47	C	0.359814	-0.400540	0.502735
C48	C	0.859814	0.099460	1.002735
C49	C	0.411105	-0.417624	0.485606
C50	C	0.911105	0.082376	0.985606
C51	C	0.411136	-0.500620	0.517255
C52	C	0.911136	-0.000620	1.017255
C53	C	0.359845	-0.483534	0.534385
C54	C	0.859845	0.016466	1.034385
C55	C	0.136887	-0.198305	0.476855
C56	C	0.636887	0.301695	0.976855
C57	C	0.119761	-0.147011	0.459777
C58	C	0.619761	0.352989	0.959777
C59	C	0.077945	-0.147038	0.543547
C60	C	0.577945	0.352962	1.043547
C61	C	0.095072	-0.198332	0.560625
C62	C	0.595072	0.301668	1.060625
C63	C	0.074134	-0.421169	0.539710
C64	C	0.574134	0.078831	1.039710
C65	C	0.057023	-0.438269	0.522625
C66	C	0.557023	0.061731	1.022625
C67	C	0.140770	-0.480120	0.480694
C68	C	0.640770	0.019880	0.980694
C69	C	0.157883	-0.463020	0.497773
C70	C	0.657883	0.036980	0.997773
C71	C	0.074339	-0.421208	0.762475
C72	C	0.574339	0.078792	1.262475
C73	C	0.057288	-0.438323	0.813768
C74	C	0.557288	0.061677	1.313768
C75	C	0.141075	-0.480183	0.813699
C76	C	0.641075	0.019817	1.313699
C77	C	0.158125	-0.463069	0.762404
C78	C	0.658125	0.036931	1.262404
C79	C	0.124756	-0.433580	0.736794
C80	C	0.624756	0.066420	1.236794
C81	C	0.334186	-0.433494	0.527123
C82	C	0.834186	0.066506	1.027123
C83	C	-0.173769	-0.597444	0.363037
C84	C	0.326231	-0.097444	0.863037
C85	C	-0.039302	-0.597595	0.228856
C86	C	0.460698	-0.097595	0.728856
C87	C	-0.039496	-0.597587	0.363300
C88	C	0.460504	-0.097587	0.863300
C89	C	-0.039512	-0.731889	0.363237
C90	C	0.460488	-0.231889	0.863237
C91	C	-0.129442	-0.612265	0.348329
C92	C	0.370558	-0.112265	0.848329
C93	C	-0.054138	-0.612351	0.273187
C94	C	0.445862	-0.112351	0.773187
C95	C	-0.054257	-0.687554	0.348440
C96	C	0.445743	-0.187554	0.848440
C97	C	-0.054247	-0.612346	0.348477
C98	C	0.445753	-0.112346	0.848477
C99	C	-0.230191	-0.578579	0.381758
C100	C	0.269809	-0.078579	0.881758
C101	C	-0.020722	-0.578803	0.382168
C102	C	0.479278	-0.078803	0.882168
C103	C	-0.073020	-0.631130	0.329609
C104	C	0.426980	-0.131130	0.829609
C105	C	-0.053713	-0.813916	0.406386
C106	C	0.446287	-0.313916	0.906386
C107	C	-0.036654	-0.865210	0.423504
C108	C	0.463346	-0.365210	0.923504
C109	C	0.046338	-0.865293	0.391984
C110	C	0.546338	-0.365293	0.891984
C111	C	0.029278	-0.813999	0.374865
C112	C	0.529278	-0.313999	0.874865
C113	C	-0.255900	-0.590938	0.432169
C114	C	0.244100	-0.090938	0.932169
C115	C	-0.307191	-0.573786	0.449185
C116	C	0.192809	-0.073786	0.949185
C117	C	-0.307060	-0.531922	0.365377
C118	C	0.192940	-0.031922	0.865377
C119	C	-0.255769	-0.549074	0.348360
C120	C	0.244231	-0.049074	0.848360
C121	C	-0.033081	-0.528377	0.369764
C122	C	0.466919	-0.028377	0.869764
C123	C	-0.016014	-0.511306	0.386922
C124	C	0.483986	-0.011306	0.886922
C125	C	0.025770	-0.595083	0.428877
C126	C	0.525770	-0.095083	0.928877
C127	C	0.008703	-0.612156	0.411725
C128	C	0.508703	-0.112156	0.911725
C129	C	-0.032755	-0.528393	0.146761
C130	C	0.467245	-0.028393	0.646761
C131	C	-0.015585	-0.511324	0.095468
C132	C	0.484415	-0.011324	0.595468
C133	C	0.026262	-0.595106	0.095516
C134	C	0.526262	-0.095106	0.595516
C135	C	0.009094	-0.612174	0.146811
C136	C	0.509094	-0.112174	0.646811
C137	C	-0.020417	-0.578816	0.172432
C138	C	0.479583	-0.078816	0.672432
C139	C	-0.020748	-0.788312	0.382068
C140	C	0.479252	-0.288312	0.882068
N141	N	0.436037	-0.467415	0.493101
N142	N	0.936037	0.032585	0.993101
O143	O	0.592642	-0.471896	0.376066
O144	O	1.092642	0.028104	0.876066
O145	O	0.592838	-0.567146	0.505347
O146	O	1.092838	-0.067146	1.005347
O147	O	0.592754	-0.566928	0.423360
O148	O	1.092754	-0.066928	0.923360
O149	O	0.592727	-0.472113	0.458053
O150	O	1.092727	0.027887	0.958053
O151	O	0.511269	-0.539835	0.450606
O152	O	1.011269	-0.039835	0.950606
O153	O	0.511353	-0.540052	0.532594
O154	O	1.011353	-0.040052	1.032594
O155	O	0.511157	-0.444802	0.403312
O156	O	1.011157	0.055198	0.903312
Cu157	Cu	0.503815	-0.489954	0.470441
Cu158	Cu	1.003815	0.010046	0.970441
Cu159	Cu	0.600180	-0.521995	0.438219
Cu160	Cu	1.100180	-0.021995	0.938219
O161	O	0.511242	-0.445020	0.485300
O162	O	1.011242	0.054980	0.985300
N163	N	0.667959	-0.544533	0.415554
N164	N	1.167959	-0.044533	0.915554
N165	N	0.090544	-0.122107	0.493359
N166	N	0.590544	0.377893	0.993359
O167	O	-0.026406	0.034587	0.488773
O168	O	0.473594	0.534587	0.988773
O169	O	0.102877	0.034627	0.393499
O170	O	0.602877	0.534627	0.893499
O171	O	0.020848	0.034591	0.393771
O172	O	0.520848	0.534591	0.893771
O173	O	0.055623	0.034623	0.488500
O174	O	0.555623	0.534623	0.988500
O175	O	0.048051	-0.046899	0.420925
O176	O	0.548051	0.453101	0.920925
O177	O	0.130080	-0.046864	0.420653
O178	O	0.630080	0.453136	0.920653
O179	O	0.000796	-0.046903	0.515927
O180	O	0.500796	0.453097	1.015927
Cu181	Cu	0.067922	-0.054324	0.470769
Cu182	Cu	0.567922	0.445676	0.970769
Cu183	Cu	0.035752	0.042048	0.438656
Cu184	Cu	0.535752	0.542048	0.938656
O185	O	0.082825	-0.046867	0.515655
O186	O	0.582825	0.453133	1.015655
N187	N	0.013123	0.109830	0.416068
N188	N	0.513123	0.609830	0.916068
N189	N	0.090892	-0.467554	0.838649
N190	N	0.590892	0.032446	1.338649
O191	O	0.086330	-0.584488	0.995334
O192	O	0.586330	-0.084488	1.495334
O193	O	-0.008902	-0.455160	0.995379
O194	O	0.491098	0.044840	1.495379
O195	O	-0.008679	-0.537172	0.995355
O196	O	0.491321	-0.037172	1.495355
O197	O	0.086107	-0.502475	0.995358
O198	O	0.586107	-0.002475	1.495358
O199	O	0.018452	-0.509990	0.913868
O200	O	0.518452	-0.009990	1.413868
O201	O	0.018230	-0.427978	0.913891
O202	O	0.518230	0.072022	1.413891
O203	O	0.113461	-0.557306	0.913847
O204	O	0.613461	-0.057306	1.413847
Cu205	Cu	0.068323	-0.490160	0.906429
Cu206	Cu	0.568323	0.009840	1.406429
Cu207	Cu	0.036237	-0.522306	1.002797
Cu208	Cu	0.536237	-0.022306	1.502797
O209	O	0.113239	-0.475293	0.913870
O210	O	0.613239	0.024707	1.413870
N211	N	0.013667	-0.544916	1.070577
N212	N	0.513667	-0.044916	1.570577
C213	C	0.031339	-0.425179	0.394250
C214	C	0.531339	0.074821	0.894250
C215	C	0.132837	-0.526572	0.394139
C216	C	0.632837	-0.026572	0.894139
C217	C	0.072405	-0.587216	0.515344
C218	C	0.572405	-0.087216	1.015344
C219	C	-0.029093	-0.485823	0.515455
C220	C	0.470907	0.014177	1.015455
C221	C	0.552119	-0.566716	0.535258
C222	C	1.052119	-0.066716	1.035258
C223	C	0.552016	-0.566447	0.433726
C224	C	1.052016	-0.066447	0.933726
C225	C	0.551873	-0.445232	0.373402
C226	C	1.051873	0.054768	0.873402
C227	C	0.551980	-0.445502	0.474933
C228	C	1.051980	0.054498	0.974933
C229	C	0.132731	-0.006013	0.393923
C230	C	0.632731	0.493987	0.893923
C231	C	0.031182	-0.006158	0.394293
C232	C	0.531182	0.493842	0.894293
C233	C	-0.029092	-0.006163	0.515469
C234	C	0.470908	0.493837	1.015469
C235	C	0.072491	-0.006119	0.515133
C236	C	0.572491	0.493881	1.015133
C237	C	-0.008451	-0.425276	0.954641
C238	C	0.491549	0.074724	1.454641
C239	C	-0.008170	-0.526833	0.954596
C240	C	0.491830	-0.026833	1.454596
C241	C	0.113010	-0.587190	0.954585
C242	C	0.613010	-0.087190	1.454585
C243	C	0.112735	-0.485627	0.954611
C244	C	0.612735	0.014373	1.454611
H245	H	0.047163	-0.397193	0.741627
H246	H	0.547163	0.102807	1.241627
C247	C	0.551963	-0.405260	0.484956
C248	C	1.051963	0.094740	0.984956
H249	H	0.551917	-0.376735	0.456643
H250	H	1.051917	0.123265	0.956643
H251	H	0.523566	-0.397661	0.511704
H252	H	1.023566	0.102339	1.011704
H253	H	0.580401	-0.416557	0.492698
H254	H	1.080401	0.083443	0.992698
C255	C	-0.065219	-0.491699	0.174942
C256	C	0.434781	0.008301	0.674942
H257	H	-0.073681	-0.509084	0.209167
H258	H	0.426319	-0.009084	0.709167
H259	H	-0.047814	-0.471711	0.166572
H260	H	0.452186	0.028289	0.666572
H261	H	-0.094195	-0.471669	0.166479
H262	H	0.405805	0.028331	0.666479
C263	C	0.552195	-0.607114	0.585415
C264	C	1.052195	-0.107114	1.085415
H265	H	0.552212	-0.595278	0.605997
H266	H	1.052212	-0.095278	1.105997
H267	H	0.523798	-0.616046	0.600098
H268	H	1.023798	-0.116046	1.100098
H269	H	0.580633	-0.634941	0.581094
H270	H	1.080633	-0.134941	1.081094
C271	C	0.551791	-0.404831	0.323247
C272	C	1.051791	0.095169	0.823247
H273	H	0.551780	-0.416669	0.302664
H274	H	1.051780	0.083331	0.802664
H275	H	0.523358	-0.377005	0.327569
H276	H	1.023358	0.122995	0.827569
H277	H	0.580192	-0.395901	0.308561
H278	H	1.080192	0.104099	0.808561
C279	C	0.082547	-0.006109	0.555341
C280	C	0.582547	0.493891	1.055341
H281	H	0.054238	-0.006113	0.583866
H282	H	0.554238	0.493887	1.083866
H283	H	0.109287	-0.034519	0.562951
H284	H	0.609287	0.465481	1.062951
H285	H	0.090311	0.022320	0.544012
H286	H	0.590311	0.522320	1.044012
H287	H	-0.328125	-0.583847	0.490235
H288	H	0.171875	-0.083847	0.990235
C289	C	0.182782	-0.005688	0.353414
C290	C	0.682782	0.494312	0.853414
H291	H	0.203360	-0.005609	0.365208
H292	H	0.703360	0.494391	0.865208
H293	H	0.197557	-0.034041	0.344378
H294	H	0.697557	0.465959	0.844378
H295	H	0.178305	0.022797	0.325666
H296	H	0.678305	0.522797	0.825666
H297	H	0.079796	-0.624394	0.545162
H298	H	0.579796	-0.124394	1.045162
H299	H	0.056124	-0.793157	0.355062
H300	H	0.556124	-0.293157	0.855062
C301	C	0.021126	-0.006173	0.354088
C302	C	0.521126	0.493827	0.854088
H303	H	-0.011316	-0.006189	0.366081
H304	H	0.488684	0.493811	0.866081
H305	H	0.024757	0.022245	0.326220
H306	H	0.524757	0.522245	0.826220
H307	H	0.043730	-0.034593	0.345166
H308	H	0.543730	0.465407	0.845166
C309	C	-0.079247	-0.006178	0.555875
C310	C	0.420753	0.493822	1.055875
H311	H	-0.099849	-0.006186	0.544058
H312	H	0.400151	0.493814	1.044058
H313	H	-0.074933	-0.034593	0.583716
H314	H	0.425067	0.465407	1.083716
H315	H	-0.093906	0.022245	0.564774
H316	H	0.406094	0.522245	1.064774
H317	H	0.169984	-0.533889	0.364272
H318	H	0.669984	-0.033889	0.864272
C319	C	-0.048841	-0.375100	0.954651
C320	C	0.451159	0.124900	1.454651
H321	H	-0.077282	-0.375053	0.954648
H322	H	0.422718	0.124947	1.454648
H323	H	-0.056545	-0.369118	0.983069
H324	H	0.443455	0.130882	1.483069
H325	H	-0.037614	-0.350171	0.926232
H326	H	0.462386	0.149829	1.426232
C327	C	-0.048381	-0.536843	0.954549
C328	C	0.451619	-0.036843	1.454549
H329	H	-0.036400	-0.569284	0.954525
H330	H	0.463600	-0.069284	1.454525
H331	H	-0.076253	-0.533194	0.982960
H332	H	0.423747	-0.033194	1.482960
H333	H	-0.057293	-0.514228	0.926123
H334	H	0.442707	-0.014228	1.426123
H335	H	0.142514	-0.478200	0.954606
H336	H	0.642514	0.021800	1.454606
H337	H	0.016234	-0.428240	0.834672
H338	H	0.516234	0.071760	1.334672
H339	H	-0.066242	-0.478508	0.545321
H340	H	0.433758	0.021492	1.045321
H341	H	0.142910	-0.624330	0.954565
H342	H	0.642910	-0.124330	1.454565
H343	H	0.199181	-0.473148	0.741498
H344	H	0.699181	0.026852	1.241498
C345	C	0.177782	-0.512586	0.841869
C346	C	0.677782	-0.012586	1.341869
H347	H	0.210251	-0.517497	0.819228
H348	H	0.710251	-0.017497	1.319228
H349	H	0.172852	-0.496908	0.861866
H350	H	0.672852	0.003092	1.361866
H351	H	0.172891	-0.543345	0.861887
H352	H	0.672891	-0.043345	1.361887
C353	C	0.037484	-0.388746	0.572164
C354	C	0.537484	0.111254	1.072164
H355	H	0.004999	-0.383821	0.577113
H356	H	0.504999	0.116179	1.077113
H357	H	0.042442	-0.404413	0.602896
H358	H	0.542442	0.095587	1.102896
H359	H	0.042397	-0.357996	0.556501
H360	H	0.542397	0.142004	1.056501
H361	H	0.552029	-0.596233	0.426301
H362	H	1.052029	-0.096233	0.926301
C363	C	0.001551	-0.424655	0.536287
C364	C	0.501551	0.075345	1.036287
H365	H	-0.003868	-0.439054	0.521880
H366	H	0.496132	0.060946	1.021880
H367	H	-0.012831	-0.436463	0.570896
H368	H	0.487169	0.063537	1.070896
H369	H	-0.012870	-0.390044	0.524502
H370	H	0.487130	0.109956	1.024502
C371	C	0.177423	-0.512545	0.448238
C372	C	0.677423	-0.012545	0.948238
H373	H	0.209908	-0.517464	0.443283
H374	H	0.709908	-0.017464	0.943283
H375	H	0.172511	-0.543294	0.463897
H376	H	0.672511	-0.043294	0.963897
H377	H	0.172465	-0.496874	0.417504
H378	H	0.672465	0.003126	0.917504
H379	H	0.198948	-0.473094	0.487648
H380	H	0.698948	0.026906	0.987648
H381	H	0.338981	-0.510371	0.554246
H382	H	0.838981	-0.010371	1.054246
H383	H	0.432025	-0.541365	0.523165
H384	H	0.932025	-0.041365	1.023165
H385	H	0.431972	-0.390789	0.465748
H386	H	0.931972	0.109211	0.965748
H387	H	0.338923	-0.359792	0.496821
H388	H	0.838923	0.140208	0.996821
H389	H	0.160882	-0.219171	0.449698
H390	H	0.660882	0.280829	0.949698
H391	H	0.053957	-0.126168	0.570702
H392	H	0.553957	0.373832	1.070702
C393	C	0.133338	-0.118783	0.404310
C394	C	0.633338	0.381217	0.904310
H395	H	0.153345	-0.141395	0.386897
H396	H	0.653345	0.358605	0.886897
H397	H	0.104319	-0.098781	0.395926
H398	H	0.604319	0.401219	0.895926
H399	H	0.150736	-0.098764	0.395888
H400	H	0.650736	0.401236	0.895888
C401	C	0.081491	-0.226557	0.616090
C402	C	0.581491	0.273443	1.116090
H403	H	0.095907	-0.260777	0.621487
H404	H	0.595907	0.239223	1.121487
H405	H	0.093299	-0.218149	0.630485
H406	H	0.593299	0.281851	1.130485
H407	H	0.046885	-0.218162	0.630515
H408	H	0.546885	0.281838	1.130515
C409	C	-0.029168	-0.455858	0.067234
C410	C	0.470832	0.044142	0.567234
H411	H	-0.014714	-0.450466	0.033016
H412	H	0.485286	0.049534	0.533016
H413	H	-0.063770	-0.441423	0.075586
H414	H	0.436230	0.058577	0.575586
H415	H	-0.017388	-0.441465	0.075677
H416	H	0.482612	0.058535	0.575677
C417	C	0.058714	-0.631798	0.067333
C418	C	0.558714	-0.131798	0.567333
H419	H	0.067170	-0.614411	0.033108
H420	H	0.567170	-0.114411	0.533108
H421	H	0.087688	-0.651835	0.075795
H422	H	0.587688	-0.151835	0.575795
H423	H	0.041300	-0.651779	0.075702
H424	H	0.541300	-0.151779	0.575702
C425	C	0.022664	-0.667642	0.175046
C426	C	0.522664	-0.167642	0.675046
H427	H	0.042691	-0.685062	0.152439
H428	H	0.542691	-0.185062	0.652439
H429	H	0.040028	-0.676072	0.195103
H430	H	0.540028	-0.176072	0.695103
H431	H	-0.006360	-0.676013	0.195007
H432	H	0.493640	-0.176013	0.695007
H433	H	-0.057039	-0.501216	0.345698
H434	H	0.442961	-0.001216	0.845698
H435	H	-0.327887	-0.507903	0.338181
H436	H	0.172113	-0.007903	0.838181
C437	C	-0.029973	-0.455841	0.373647
C438	C	0.470027	0.044159	0.873647
H439	H	-0.050047	-0.438421	0.353693
H440	H	0.449953	0.061579	0.853693
H441	H	-0.047440	-0.447742	0.402833
H442	H	0.452560	0.052258	0.902833
H443	H	-0.001147	-0.447140	0.356325
H444	H	0.498853	0.052860	0.856325
H445	H	0.049734	-0.622248	0.452940
H446	H	0.549734	-0.122248	0.952940
H447	H	0.018765	-0.653217	0.421828
H448	H	0.518765	-0.153217	0.921828
H449	H	0.087072	-0.886205	0.386121
H450	H	0.587072	-0.386205	0.886121
H451	H	-0.094449	-0.793002	0.412253
H452	H	0.405551	-0.293002	0.912253
C453	C	-0.072913	-0.893379	0.450260
C454	C	0.427087	-0.393379	0.950260
H455	H	-0.055586	-0.927607	0.459422
H456	H	0.444414	-0.427607	0.959422
H457	H	-0.096424	-0.884949	0.478747
H458	H	0.403576	-0.384949	0.978747
H459	H	-0.089094	-0.884965	0.429114
H460	H	0.410906	-0.384965	0.929114
C461	C	-0.227766	-0.623390	0.468906
C462	C	0.272234	-0.123390	0.968906
H463	H	-0.250425	-0.628287	0.501367
H464	H	0.249575	-0.128287	1.001367
H465	H	-0.207765	-0.654146	0.464002
H466	H	0.292235	-0.154146	0.964002
H467	H	-0.207757	-0.607750	0.464017
H468	H	0.292243	-0.107750	0.964017
H469	H	-0.234840	-0.539009	0.307312
H470	H	0.265160	-0.039009	0.807312
H471	H	0.023949	-0.388000	0.364433
H472	H	0.523949	0.112000	0.864433
