data_functionalizedCrystal
_audit_creation_method	'MofGen! by Chris Wilmer'
_symmetry_space_group_name_H-M	'P1'
_symmetry_Int_Tables_number	1
_symmetry_cell_setting	triclinic
loop_
_symmetry_equiv_pos_as_xyz
  x,y,z
_cell_length_a	25.639242
_cell_length_b	12.759400
_cell_length_c	12.759401
_cell_angle_alpha	89.990059
_cell_angle_beta	90.007259
_cell_angle_gamma	89.986036
loop_
_atom_site_label
_atom_site_type_symbol
_atom_site_fract_x
_atom_site_fract_y
_atom_site_fract_z
Zn1	Zn	0.799250	0.418648	0.594094
Zn2	Zn	1.299250	0.918648	1.094094
Zn3	Zn	0.799211	0.594300	0.418413
Zn4	Zn	1.299211	1.094300	0.918413
Zn5	Zn	0.711837	0.418612	0.418421
Zn6	Zn	1.211837	0.918612	0.918421
Zn7	Zn	0.711798	0.594262	0.594042
Zn8	Zn	1.211798	1.094262	1.094042
O9	O	0.755524	0.506456	0.506242
O10	O	1.255524	1.006456	1.006242
O11	O	0.872410	0.441980	0.570808
O12	O	1.372410	0.941980	1.070808
O13	O	0.787620	0.570995	0.271393
O14	O	1.287620	1.070995	0.771393
O15	O	0.723466	0.271596	0.441749
O16	O	1.223466	0.771596	0.941749
O17	O	0.872381	0.571030	0.441736
O18	O	1.372381	1.071030	0.941736
O19	O	0.787688	0.271623	0.570816
O20	O	1.287688	0.771623	1.070816
O21	O	0.723428	0.441918	0.271399
O22	O	1.223428	0.941918	0.771399
O23	O	0.638667	0.441881	0.441699
O24	O	1.138667	0.941881	0.941699
O25	O	0.723398	0.570966	0.741070
O26	O	1.223398	1.070966	1.241070
O27	O	0.638638	0.570931	0.570727
O28	O	1.138638	1.070931	1.070727
O29	O	0.787650	0.441944	0.741108
O30	O	1.287650	0.941944	1.241108
O31	O	0.787582	0.741316	0.441685
O32	O	1.287582	1.241316	0.941685
O33	O	0.723360	0.741288	0.570719
O34	O	1.223360	1.241288	1.070719
C35	C	0.619681	0.506399	0.506208
C36	C	1.119681	1.006399	1.006208
C37	C	0.561567	0.506400	0.506219
C38	C	1.061567	1.006400	1.006219
C39	C	0.755476	0.779423	0.506219
C40	C	1.255476	1.279423	1.006219
C41	C	0.755504	0.896200	0.506243
C42	C	1.255504	1.396200	1.006243
C43	C	0.310397	0.439378	0.573573
C44	C	0.810397	0.939378	1.073573
C45	C	0.365002	0.439368	0.573567
C46	C	0.865002	0.939368	1.073567
O47	O	0.393258	0.382338	0.630826
O48	O	0.893258	0.882338	1.130826
N49	N	0.392294	0.506443	0.506254
N50	N	0.892294	1.006443	1.006254
C51	C	0.364978	0.573541	0.438951
C52	C	0.864978	1.073541	0.938951
O53	O	0.393206	0.630593	0.381697
O54	O	0.893206	1.130593	0.881697
C55	C	0.310375	0.573556	0.438963
C56	C	0.810375	1.073556	0.938963
C57	C	0.283086	0.506469	0.506272
C58	C	0.783086	1.006469	1.006272
C59	C	0.283108	0.372298	0.640877
C60	C	0.783108	0.872298	1.140877
C61	C	0.228507	0.372307	0.640882
C62	C	0.728507	0.872307	1.140882
C63	C	0.201196	0.439397	0.573581
C64	C	0.701196	0.939397	1.073581
C65	C	0.228485	0.506478	0.506277
C66	C	0.728485	1.006478	1.006277
C67	C	0.283061	0.640658	0.371666
C68	C	0.783061	1.140658	0.871666
C69	C	0.228454	0.640668	0.371684
C70	C	0.728454	1.140668	0.871684
C71	C	0.201165	0.573580	0.438994
C72	C	0.701165	1.073580	0.938994
C73	C	0.146573	0.573577	0.438981
C74	C	0.646573	1.073577	0.938981
N75	N	0.119281	0.506502	0.506293
N76	N	0.619281	1.006502	1.006293
C77	C	0.146593	0.439412	0.573594
C78	C	0.646593	0.939412	1.073594
C79	C	0.479649	0.573506	0.438932
C80	C	0.979649	1.073506	0.938932
C81	C	0.534251	0.573487	0.438914
C82	C	1.034251	1.073487	0.938914
C83	C	0.534271	0.439315	0.573531
C84	C	1.034271	0.939315	1.073531
C85	C	0.479667	0.439330	0.573544
C86	C	0.979667	0.939330	1.073544
C87	C	0.452357	0.506431	0.506245
C88	C	0.952357	1.006431	1.006245
C89	C	0.031928	0.439436	0.573597
C90	C	0.531928	0.939436	1.073597
C91	C	-0.022678	0.439448	0.573592
C92	C	0.477322	0.939448	1.073592
C93	C	-0.022692	0.573623	0.438979
C94	C	0.477308	1.073623	0.938979
C95	C	0.031908	0.573607	0.438979
C96	C	0.531908	1.073607	0.938979
C97	C	0.059217	0.506510	0.506297
C98	C	0.559217	1.006510	1.006297
O99	O	0.118282	0.630581	0.381754
O100	O	0.618282	1.130581	0.881754
O101	O	0.118358	0.382379	0.630848
O102	O	0.618358	0.882379	1.130848
C103	C	0.788923	0.950996	0.573502
C104	C	1.288923	1.450996	1.073502
C105	C	0.788940	1.060720	0.573525
C106	C	1.288940	1.560720	1.073525
C107	C	0.722115	1.060842	0.439021
C108	C	1.222115	1.560842	0.939021
C109	C	0.722097	0.951120	0.439005
C110	C	1.222097	1.451120	0.939005
C111	C	0.822330	0.896076	0.640741
C112	C	1.322330	1.396076	1.140741
C113	C	0.855753	0.950872	0.708004
C114	C	1.355753	1.450872	1.208004
C115	C	0.855769	1.060596	0.708026
C116	C	1.355769	1.560596	1.208026
C117	C	0.822363	1.115524	0.640786
C118	C	1.322363	1.615524	1.140786
C119	C	0.891897	0.506513	0.506277
C120	C	1.391897	1.006513	1.006277
C121	C	0.950011	0.506538	0.506292
C122	C	1.450011	1.006538	1.006292
C123	C	0.755524	0.506455	0.780276
C124	C	1.255524	1.006455	1.280276
C125	C	0.755524	0.506455	0.897052
C126	C	1.255524	1.006455	1.397052
C127	C	0.755567	1.232422	0.506283
C128	C	1.255567	1.732422	1.006283
C129	C	0.755539	1.115646	0.506283
C130	C	1.255539	1.615646	1.006283
C131	C	0.788977	0.439287	0.951936
C132	C	1.288977	0.939287	1.451936
C133	C	0.788975	0.439291	1.061660
C134	C	1.288975	0.939291	1.561660
C135	C	0.722065	0.573640	1.061607
C136	C	1.222065	1.073640	1.561607
C137	C	0.722065	0.573629	0.951885
C138	C	1.222065	1.073629	1.451885
C139	C	0.822436	0.372113	0.897103
C140	C	1.322436	0.872113	1.397103
C141	C	0.855891	0.304940	0.951987
C142	C	1.355891	0.804940	1.451987
C143	C	0.855889	0.304945	1.061711
C144	C	1.355889	0.804945	1.561711
C145	C	0.822431	0.372121	1.116551
C146	C	1.322431	0.872121	1.616551
C147	C	0.755521	0.506477	1.233275
C148	C	1.255521	1.006477	1.733275
C149	C	0.755522	0.506469	1.116498
C150	C	1.255522	1.006469	1.616498
H151	H	0.054156	0.384798	0.628413
H152	H	0.554156	0.884798	1.128413
O153	O	0.563732	0.366958	0.646133
O154	O	1.063732	0.866958	1.146133
H155	H	0.606285	0.378233	0.634820
H156	H	1.106285	0.878233	1.134820
H157	H	0.206221	0.695314	0.316883
H158	H	0.706221	1.195314	0.816883
O159	O	0.822444	0.372102	0.778759
O160	O	1.322444	0.872102	1.278759
H161	H	0.832995	0.451349	0.749820
H162	H	1.332995	0.951349	1.249820
H163	H	0.882949	0.906145	0.762755
H164	H	1.382949	1.406145	1.262755
H165	H	0.694825	0.628331	1.106267
H166	H	1.194825	1.128331	1.606267
O167	O	0.822312	0.777731	0.640713
O168	O	1.322312	1.277731	1.140713
H169	H	0.851153	0.748745	0.698770
H170	H	1.351153	1.248745	1.198770
O171	O	0.822426	0.372129	1.234898
O172	O	1.322426	0.872129	1.734898
H173	H	0.851310	0.314139	1.263852
H174	H	1.351310	0.814139	1.763852
H175	H	0.882980	1.105209	0.762803
H176	H	1.382980	1.605209	1.262803
H177	H	0.694918	1.105572	0.384277
H178	H	1.194918	1.605572	0.884277
H179	H	0.694817	0.628307	0.907197
H180	H	1.194817	1.128307	1.407197
O181	O	0.199076	0.299956	0.713487
O182	O	0.699076	0.799956	1.213487
H183	H	0.227249	0.253316	0.760284
H184	H	0.727249	0.753316	1.260284
H185	H	0.883129	0.250242	0.907329
H186	H	1.383129	0.750242	1.407329
O187	O	0.686057	0.892005	0.366457
O188	O	1.186057	1.392005	0.866457
H189	H	0.662836	0.948626	0.319691
H190	H	1.162836	1.448626	0.819691
O191	O	0.822389	1.233870	0.640784
O192	O	1.322389	1.733870	1.140784
H193	H	0.851245	1.262749	0.698840
H194	H	1.351245	1.762749	1.198840
O195	O	0.891971	0.232500	1.120913
O196	O	1.391971	0.732500	1.620913
H197	H	0.915238	0.185797	1.064347
H198	H	1.415238	0.685797	1.564347
H199	H	-0.044894	0.384812	0.628403
H200	H	0.455106	0.884812	1.128403
H201	H	0.305339	0.317664	0.695687
H202	H	0.805339	0.817664	1.195687
H203	H	-0.044939	0.628242	0.384181
H204	H	0.455061	1.128242	0.884181
O205	O	0.450234	0.366980	0.646147
O206	O	0.950234	0.866980	1.146147
H207	H	0.478405	0.320333	0.692942
H208	H	0.978405	0.820333	1.192942
H209	H	0.457416	0.628145	0.384120
H210	H	0.957416	1.128145	0.884120
O211	O	0.563683	0.645831	0.366304
O212	O	1.063683	1.145831	0.866304
H213	H	0.535513	0.692484	0.319515
H214	H	1.035513	1.192484	0.819515
H215	H	0.054128	0.628226	0.384161
H216	H	0.554128	1.128226	0.884161
O217	O	0.312487	0.713015	0.299065
O218	O	0.812487	1.213015	0.799065
H219	H	0.284314	0.759669	0.252285
H220	H	0.784314	1.259669	0.752285
