data_functionalizedCrystal
_audit_creation_method	'MofGen! by Chris Wilmer'
_symmetry_space_group_name_H-M	'P1'
_symmetry_Int_Tables_number	1
_symmetry_cell_setting	triclinic
loop_
_symmetry_equiv_pos_as_xyz
  x,y,z
_cell_length_a	30.700809
_cell_length_b	30.711276
_cell_length_c	30.700862
_cell_angle_alpha	59.998386
_cell_angle_beta	89.999414
_cell_angle_gamma	60.000191
loop_
_atom_site_label
_atom_site_type_symbol
_atom_site_fract_x
_atom_site_fract_y
_atom_site_fract_z
O1	O	-0.371254	-0.311651	0.012944
O2	O	-0.307913	-0.222487	-0.012907
O3	O	-0.307911	-0.311650	0.076286
O4	O	-0.371257	-0.222488	-0.076249
O5	O	-0.235466	-0.384070	0.076286
O6	O	-0.235468	-0.294907	-0.012907
O7	O	-0.298809	-0.384071	0.012944
Cu8	Cu	-0.260524	-0.346102	0.000018
Cu9	Cu	-0.346199	-0.260456	0.000019
O10	O	-0.298812	-0.294908	-0.076249
C11	C	-0.234796	-0.137097	-0.018777
C12	C	-0.261674	-0.083360	-0.015076
C13	C	-0.182374	-0.163176	-0.019143
C14	C	-0.234798	-0.215942	-0.018783
C15	C	-0.261678	-0.246507	-0.015089
C16	C	-0.182376	-0.241901	-0.019150
C17	C	-0.155920	-0.215947	-0.018777
C18	C	-0.098463	-0.246515	-0.015075
C19	C	-0.261132	-0.163172	-0.019150
C20	C	-0.574961	-0.535511	0.039265
C21	C	-0.548506	-0.588283	0.039634
C22	C	-0.496086	-0.535509	0.039262
C23	C	-0.469751	-0.588281	0.039632
C24	C	-0.496085	-0.614360	0.039265
C25	C	-0.548507	-0.509552	0.039632
C26	C	-0.765169	-0.393516	0.024987
C27	C	-0.819034	-0.364488	0.020950
C28	C	-0.846055	-0.389406	0.018925
C29	C	-0.904462	-0.357927	0.014538
C30	C	-0.819206	-0.443357	0.020941
C31	C	-0.765344	-0.472385	0.024984
C32	C	-0.738325	-0.447463	0.027007
C33	C	-0.447920	-0.790230	0.024988
C34	C	-0.423094	-0.840041	0.020951
C35	C	-0.371150	-0.865027	0.018921
C36	C	-0.344230	-0.919028	0.014536
C37	C	-0.344030	-0.840201	0.020935
C38	C	-0.368852	-0.790399	0.024981
C39	C	-0.420803	-0.765414	0.027004
C40	C	-0.447922	-0.393510	0.024977
C41	C	-0.423099	-0.364475	0.020931
C42	C	-0.371152	-0.389391	0.018903
C43	C	-0.344235	-0.357911	0.014513
C44	C	-0.344034	-0.443338	0.020916
C45	C	-0.368860	-0.472368	0.024960
C46	C	-0.420804	-0.447452	0.026995
C47	C	-0.679920	-0.478941	0.031387
C48	C	-0.633366	-0.504032	0.034880
C49	C	-0.469171	-0.504029	0.034875
C50	C	-0.447717	-0.478936	0.031380
C51	C	-0.469170	-0.668361	0.034880
C52	C	-0.447716	-0.711408	0.031386
C53	C	-0.496432	-0.071057	-0.503890
C54	C	-0.548853	-0.018285	-0.530226
C55	C	-0.496432	-0.071056	-0.425015
C56	C	-0.548854	-0.018284	-0.451470
C57	C	-0.575308	0.007793	-0.503892
C58	C	-0.470097	-0.097014	-0.451469
C59	C	-0.368666	-0.213054	-0.552051
C60	C	-0.343664	-0.242084	-0.576877
C61	C	-0.370616	-0.217167	-0.628824
C62	C	-0.343513	-0.248647	-0.655741
C63	C	-0.422570	-0.163216	-0.655945
C64	C	-0.447565	-0.134187	-0.631122
C65	C	-0.420611	-0.159108	-0.579173
C66	C	-0.765518	0.183662	-0.631659
C67	C	-0.819384	0.233473	-0.656662
C68	C	-0.846408	0.258459	-0.629712
C69	C	-0.904813	0.312461	-0.656813
C70	C	-0.819559	0.233635	-0.577758
C71	C	-0.765694	0.183833	-0.552761
C72	C	-0.738677	0.158847	-0.579717
C73	C	-0.368668	-0.213052	-0.234803
C74	C	-0.343669	-0.242086	-0.180935
C75	C	-0.370621	-0.217169	-0.153914
C76	C	-0.343519	-0.248648	-0.095506
C77	C	-0.422573	-0.163222	-0.180762
C78	C	-0.447570	-0.134193	-0.234627
C79	C	-0.420610	-0.159111	-0.261646
C80	C	-0.447720	-0.127629	-0.552258
C81	C	-0.469327	-0.102536	-0.530805
C82	C	-0.469328	-0.102535	-0.366609
C83	C	-0.447721	-0.127627	-0.320054
C84	C	-0.633714	0.061794	-0.530997
C85	C	-0.680269	0.104841	-0.552605
O86	O	0.076277	-0.384081	0.012960
O87	O	-0.076257	-0.294916	-0.012894
O88	O	0.012931	-0.384083	0.076300
O89	O	-0.012910	-0.294914	-0.076234
O90	O	0.012933	-0.311666	0.076306
O91	O	-0.076254	-0.222499	-0.012888
O92	O	0.076280	-0.311664	0.012966
Cu93	Cu	0.000013	-0.260469	0.000040
Cu94	Cu	0.000010	-0.346111	0.000033
O95	O	-0.012908	-0.222497	-0.076228
O96	O	-0.298805	0.063292	0.012964
O97	O	-0.235462	-0.063346	-0.012888
O98	O	-0.235465	-0.063353	0.076305
O99	O	-0.298803	0.063300	-0.076229
O100	O	-0.307912	-0.063350	0.076299
O101	O	-0.307909	-0.063342	-0.012895
O102	O	-0.371252	0.063295	0.012958
Cu103	Cu	-0.346196	-0.000023	0.000031
Cu104	Cu	-0.260519	-0.000027	0.000039
O105	O	-0.371250	0.063303	-0.076236
O106	O	-1.076607	0.456783	-0.692421
O107	O	-0.924074	0.330140	-0.629074
O108	O	-1.013262	0.330138	-0.629073
O109	O	-0.987418	0.456785	-0.692422
O110	O	-1.013261	0.330136	-0.701518
O111	O	-0.924072	0.330138	-0.701518
O112	O	-1.076605	0.456781	-0.764865
Cu113	Cu	-1.000338	0.393460	-0.739807
Cu114	Cu	-1.000340	0.393461	-0.654133
O115	O	-0.987417	0.456783	-0.764866
O116	O	-0.307911	-0.311650	-0.764507
O117	O	-0.371254	-0.222491	-0.701165
O118	O	-0.371252	-0.311652	-0.701162
O119	O	-0.307912	-0.222489	-0.764510
O120	O	-0.298806	-0.384074	-0.628716
O121	O	-0.298807	-0.294912	-0.628719
O122	O	-0.235464	-0.384072	-0.692061
Cu123	Cu	-0.260521	-0.346105	-0.653775
Cu124	Cu	-0.346197	-0.260458	-0.739451
O125	O	-0.235466	-0.294910	-0.692064
C126	C	-0.155920	-0.469469	0.234827
C127	C	-0.098464	-0.523208	0.261706
C128	C	-0.182375	-0.443392	0.261162
C129	C	-0.234797	-0.390619	0.155950
C130	C	-0.261676	-0.360052	0.098494
C131	C	-0.261132	-0.364662	0.182405
C132	C	-0.234797	-0.390620	0.234826
C133	C	-0.261675	-0.360052	0.261704
C134	C	-0.182375	-0.443391	0.182406
C135	C	0.018810	-0.390643	0.234846
C136	C	0.015111	-0.360079	0.261727
C137	C	0.019176	-0.443414	0.261179
C138	C	0.018812	-0.390637	0.155967
C139	C	0.015115	-0.360067	0.098511
C140	C	0.019178	-0.443408	0.182420
C141	C	0.018807	-0.469488	0.234841
C142	C	0.015106	-0.523226	0.261717
C143	C	0.019180	-0.364683	0.182425
C144	C	-0.234799	-0.215977	0.234834
C145	C	-0.261678	-0.246545	0.261708
C146	C	-0.182376	-0.241940	0.261172
C147	C	-0.234798	-0.137119	0.155964
C148	C	-0.261676	-0.083372	0.098509
C149	C	-0.182375	-0.163202	0.182421
C150	C	-0.155921	-0.215981	0.234841
C151	C	-0.098464	-0.246554	0.261721
C152	C	-0.261134	-0.163198	0.182415
C153	C	-0.039199	0.007461	-0.503869
C154	C	-0.039568	-0.018614	-0.530207
C155	C	-0.039203	-0.071390	-0.424995
C156	C	-0.039572	-0.097344	-0.451452
C157	C	-0.039201	-0.071385	-0.503874
C158	C	-0.039570	-0.018618	-0.451448
C159	C	-0.024912	0.183325	-0.552025
C160	C	-0.020873	0.233135	-0.576849
C161	C	-0.018844	0.258123	-0.628796
C162	C	-0.014454	0.312124	-0.655711
C163	C	-0.020859	0.233301	-0.655918
C164	C	-0.024906	0.183500	-0.631097
C165	C	-0.026932	0.158512	-0.579148
C166	C	-0.024920	-0.133799	-0.631644
C167	C	-0.020882	-0.162650	-0.656647
C168	C	-0.018855	-0.216605	-0.629699
C169	C	-0.014470	-0.247897	-0.656801
C170	C	-0.020872	-0.241704	-0.577746
C171	C	-0.024919	-0.212847	-0.552747
C172	C	-0.026939	-0.158893	-0.579702
C173	C	-0.024929	-0.133823	-0.234783
C174	C	-0.020887	-0.162684	-0.180915
C175	C	-0.018862	-0.216639	-0.153896
C176	C	-0.014477	-0.247936	-0.095488
C177	C	-0.020875	-0.241733	-0.180745
C178	C	-0.024915	-0.212872	-0.234610
C179	C	-0.026947	-0.158912	-0.261627
C180	C	-0.031316	0.104507	-0.552235
C181	C	-0.034811	0.061462	-0.530782
C182	C	-0.034820	-0.102682	-0.366590
C183	C	-0.031328	-0.127624	-0.320035
C184	C	-0.034816	-0.102672	-0.530980
C185	C	-0.031322	-0.127610	-0.552588
O186	O	-0.012940	-0.294936	0.371303
O187	O	0.012923	-0.384099	0.307961
O188	O	-0.076273	-0.294935	0.307950
O189	O	0.076257	-0.384100	0.371315
O190	O	-0.076265	-0.222515	0.235508
O191	O	0.012932	-0.311679	0.235520
O192	O	-0.012931	-0.222517	0.298862
Cu193	Cu	0.000001	-0.260485	0.260576
Cu194	Cu	-0.000009	-0.346130	0.346247
O195	O	0.076266	-0.311681	0.298873
C196	C	-0.574962	0.464558	-0.503864
C197	C	-0.548506	0.490518	-0.530195
C198	C	-0.496085	0.385697	-0.424987
C199	C	-0.469749	0.411776	-0.451438
C200	C	-0.496084	0.464555	-0.503857
C201	C	-0.548507	0.411779	-0.451444
C202	C	-0.765173	0.526994	-0.552039
C203	C	-0.819039	0.555852	-0.576867
C204	C	-0.846061	0.609814	-0.628812
C205	C	-0.904469	0.641114	-0.655732
C206	C	-0.819211	0.634913	-0.655928
C207	C	-0.765348	0.606050	-0.631102
C208	C	-0.738329	0.552088	-0.579155
C209	C	-0.447916	0.606561	-0.631604
C210	C	-0.423088	0.635592	-0.656601
C211	C	-0.371143	0.610674	-0.629648
C212	C	-0.344222	0.642150	-0.656742
C213	C	-0.344023	0.556716	-0.577696
C214	C	-0.368845	0.527681	-0.552704
C215	C	-0.420798	0.552613	-0.579664
C216	C	-0.447920	0.209802	-0.234786
C217	C	-0.423096	0.159988	-0.180919
C218	C	-0.371148	0.134996	-0.153895
C219	C	-0.344230	0.080987	-0.095489
C220	C	-0.344029	0.159823	-0.180737
C221	C	-0.368856	0.209637	-0.234602
C222	C	-0.420801	0.234620	-0.261624
C223	C	-0.679923	0.520797	-0.552238
C224	C	-0.633367	0.495853	-0.530781
C225	C	-0.469169	0.331687	-0.366583
C226	C	-0.447714	0.288634	-0.320030
C227	C	-0.469167	0.496035	-0.530956
C228	C	-0.447712	0.521128	-0.552558
H229	H	-0.426680	-0.610102	0.040221
H230	H	-0.026568	-0.089866	-0.653596
H231	H	-0.489870	-0.090268	-0.256484
H232	H	-0.161136	-0.141377	0.161182
O233	O	-0.845505	0.687391	-0.706347
C234	C	-0.888813	0.735417	-0.706220
H235	H	-0.881014	0.724529	-0.664526
H236	H	-0.926871	0.740127	-0.718230
C237	C	-0.904823	0.809593	-0.797389
C238	C	-0.895242	0.796224	-0.746181
H239	H	-0.908791	0.847103	-0.822040
H240	H	-0.875647	0.777238	-0.797476
H241	H	-0.936537	0.813515	-0.807390
H242	H	-0.863526	0.792295	-0.736178
H243	H	-0.924413	0.828580	-0.746093
H244	H	-0.161128	-0.465208	0.161163
H245	H	-0.161141	-0.284407	0.304244
H246	H	-0.444519	-0.142934	-0.158758
O247	O	-0.157007	-0.292509	-0.019931
C248	C	-0.142247	-0.278733	-0.066134
H249	H	-0.139421	-0.238283	-0.081033
H250	H	-0.173508	-0.266146	-0.098437
C251	C	-0.091184	-0.385014	-0.034540
C252	C	-0.087708	-0.335334	-0.052837
H253	H	-0.057543	-0.419928	-0.026339
H254	H	-0.101130	-0.394295	-0.003413
H255	H	-0.117237	-0.374516	-0.061462
H256	H	-0.061660	-0.345830	-0.025912
H257	H	-0.077756	-0.326056	-0.083959
O258	O	0.019817	-0.313975	0.157116
C259	C	-0.025900	-0.265357	0.154443
H260	H	-0.041642	-0.285007	0.187332
H261	H	-0.057941	-0.234272	0.113926
C262	C	0.008044	-0.203561	0.121434
C263	C	-0.011288	-0.227696	0.161831
H264	H	0.017056	-0.180327	0.125989
H265	H	0.038844	-0.236314	0.123232
H266	H	-0.018660	-0.177660	0.087674
H267	H	0.015418	-0.253601	0.195590
H268	H	-0.042083	-0.194945	0.160038
O269	O	-0.018988	-0.294095	-0.154580
C270	C	-0.065812	-0.282095	-0.179834
H271	H	-0.084023	-0.240237	-0.223014
H272	H	-0.095633	-0.272567	-0.158034
C273	C	-0.029707	-0.389809	-0.125503
C274	C	-0.052072	-0.338402	-0.178539
H275	H	-0.021233	-0.424542	-0.124703
H276	H	0.001839	-0.397894	-0.108488
H277	H	-0.054562	-0.381861	-0.107343
H278	H	-0.027215	-0.346347	-0.196697
H279	H	-0.083614	-0.330319	-0.195558
H280	H	-0.304205	-0.141373	0.161175
H281	H	-0.743490	0.626486	-0.653184
O282	O	-0.342517	0.475334	-0.502208
C283	C	-0.329232	0.487404	-0.467467
H284	H	-0.357309	0.538708	-0.485644
H285	H	-0.286363	0.473112	-0.461182
C286	C	-0.300220	0.387577	-0.391125
C287	C	-0.334707	0.450590	-0.413449
H288	H	-0.303594	0.364867	-0.357804
H289	H	-0.309168	0.379444	-0.414531
H290	H	-0.264499	0.375676	-0.385893
H291	H	-0.370427	0.462492	-0.418688
H292	H	-0.325765	0.458724	-0.390043
H293	H	-0.040166	-0.139808	-0.430213
H294	H	-0.301729	0.139473	-0.158731
H295	H	-0.040160	0.003216	-0.573279
H296	H	-0.445183	0.139782	-0.159066
O297	O	-0.449380	-0.864243	0.019083
C298	C	-0.420534	-0.926733	0.062569
H299	H	-0.393812	-0.935311	0.095821
H300	H	-0.394904	-0.956885	0.049141
C301	C	-0.492566	-0.932138	0.042451
C302	C	-0.459748	-0.942673	0.083293
H303	H	-0.516754	-0.941972	0.055233
H304	H	-0.512000	-0.890038	0.013152
H305	H	-0.471202	-0.957266	0.031265
H306	H	-0.481112	-0.917540	0.094474
H307	H	-0.440319	-0.984769	0.112595
H308	H	-0.569746	0.532985	-0.573266
O309	O	-0.040306	0.007510	-0.426193
C310	C	-0.040529	0.059763	-0.460792
H311	H	-0.056896	0.077765	-0.503891
H312	H	0.001906	0.046678	-0.451974
C313	C	-0.055884	0.088091	-0.399345
C314	C	-0.075991	0.110204	-0.452279
H315	H	-0.077756	0.119205	-0.394092
H316	H	-0.055732	0.052886	-0.376033
H317	H	-0.020522	0.077187	-0.392003
H318	H	-0.111349	0.121101	-0.459618
H319	H	-0.076150	0.145412	-0.475592
O320	O	-0.312487	-0.313943	0.156992
C321	C	-0.315389	-0.265331	0.111035
H322	H	-0.279997	-0.284990	0.097800
H323	H	-0.314418	-0.234266	0.120467
C324	C	-0.411150	-0.203492	0.082227
C325	C	-0.367683	-0.227638	0.065969
H326	H	-0.443408	-0.180239	0.054429
H327	H	-0.409195	-0.236241	0.113190
H328	H	-0.410333	-0.177608	0.090087
H329	H	-0.368497	-0.253527	0.058116
H330	H	-0.369639	-0.194892	0.035004
H331	H	-0.161137	-0.141349	-0.019737
H332	H	-0.304205	-0.141343	-0.019747
H333	H	-0.019235	-0.142256	-0.159055
O334	O	0.019810	-0.469466	0.312539
C335	C	-0.025902	-0.469725	0.315449
H336	H	-0.041637	-0.467208	0.280043
H337	H	-0.057950	-0.428284	0.314508
C338	C	0.008039	-0.532476	0.411212
C339	C	-0.011284	-0.529390	0.367728
H340	H	0.017054	-0.569279	0.443460
H341	H	0.038835	-0.532300	0.409252
H342	H	-0.018671	-0.497938	0.410420
H343	H	0.015428	-0.563923	0.368515
H344	H	-0.042075	-0.529573	0.369689
H345	H	-0.026581	-0.089888	-0.256777
O346	O	-0.573922	-0.614240	0.040336
C347	C	-0.625955	-0.579900	0.040597
H348	H	-0.639001	-0.531000	0.023362
H349	H	-0.626396	-0.602484	0.083294
C350	C	-0.648550	-0.637997	0.027656
C351	C	-0.664576	-0.577935	0.006483
H352	H	-0.672374	-0.636787	0.006615
H353	H	-0.613494	-0.661134	0.027482
H354	H	-0.648918	-0.656810	0.063236
H355	H	-0.664201	-0.559126	-0.029094
H356	H	-0.699633	-0.554795	0.006650
O357	O	-0.018893	0.257150	-0.550418
C358	C	-0.021561	0.224425	-0.499251
H359	H	-0.007691	0.176636	-0.486988
H360	H	-0.064447	0.250303	-0.500058
C361	C	-0.002314	0.276970	-0.473895
C362	C	0.014725	0.218273	-0.458832
H363	H	0.020066	0.273178	-0.448962
H364	H	-0.000519	0.299020	-0.508367
H365	H	-0.038053	0.298529	-0.474567
H366	H	0.050460	0.196719	-0.458166
H367	H	0.012936	0.196220	-0.424358
H368	H	-0.569749	-0.467085	0.040220
H369	H	-0.490218	-0.769893	0.026639
H370	H	-0.490217	0.230142	-0.256784
H371	H	-0.570087	0.003544	-0.573301
O372	O	-0.739002	0.474562	-0.501588
C373	C	-0.774250	0.458606	-0.482976
H374	H	-0.808235	0.480179	-0.518423
H375	H	-0.791197	0.476355	-0.457851
C376	C	-0.702211	0.361562	-0.405166
C377	C	-0.743949	0.388054	-0.448703
H378	H	-0.683520	0.318043	-0.384023
H379	H	-0.678463	0.372313	-0.417704
H380	H	-0.716340	0.376359	-0.384235
H381	H	-0.729819	0.373264	-0.469637
H382	H	-0.767693	0.377300	-0.436168
O383	O	-0.449509	-0.312091	0.019001
C384	C	-0.500683	-0.296317	0.021648
H385	H	-0.500632	-0.339164	0.041284
H386	H	-0.531085	-0.260438	-0.020375
C387	C	-0.515648	-0.217052	0.030664
C388	C	-0.515584	-0.269678	0.054785
H389	H	-0.524841	-0.200617	0.051103
H390	H	-0.481171	-0.227677	0.028879
H391	H	-0.540982	-0.187159	-0.004354
H392	H	-0.490245	-0.299572	0.089800
H393	H	-0.550056	-0.259057	0.056577
O394	O	-0.498407	-0.369318	0.026880
C395	C	-0.531976	-0.354765	-0.016620
H396	H	-0.506985	-0.383690	-0.031297
H397	H	-0.553715	-0.303827	-0.050271
C398	C	-0.603735	-0.333076	0.019173
C399	C	-0.573041	-0.368607	0.001150
H400	H	-0.629068	-0.341611	0.030132
H401	H	-0.581120	-0.342878	0.048479
H402	H	-0.621846	-0.290631	-0.008873
H403	H	-0.554926	-0.411050	0.029197
H404	H	-0.595654	-0.358812	-0.028151
O405	O	-0.738993	-0.369253	0.026992
C406	C	-0.774238	-0.315414	0.024346
H407	H	-0.808229	-0.316868	0.038201
H408	H	-0.791177	-0.273351	-0.018532
C409	C	-0.702190	-0.309672	0.043642
C410	C	-0.743937	-0.311461	0.060664
H411	H	-0.683499	-0.307232	0.066042
H412	H	-0.678445	-0.345943	0.045423
H413	H	-0.716312	-0.274620	0.007910
H414	H	-0.729814	-0.346517	0.096392
H415	H	-0.767679	-0.275196	0.058890
O416	O	0.019784	-0.469396	0.157066
C417	C	-0.025916	-0.469678	0.154432
H418	H	-0.058445	-0.432337	0.157873
H419	H	-0.015396	-0.516520	0.188562
C420	C	-0.006152	-0.503014	0.096572
C421	C	-0.046107	-0.457148	0.100795
H422	H	-0.018606	-0.495288	0.063488
H423	H	0.024638	-0.502827	0.098348
H424	H	0.002611	-0.542045	0.125017
H425	H	-0.054864	-0.418119	0.072354
H426	H	-0.076899	-0.457328	0.099013
O427	O	-0.845189	-0.312033	0.018910
C428	C	-0.888474	-0.263906	-0.029269
H429	H	-0.900664	-0.284139	-0.045153
H430	H	-0.876173	-0.235347	-0.059805
C431	C	-0.920932	-0.197734	0.000319
C432	C	-0.935907	-0.222584	-0.019188
H433	H	-0.950191	-0.172242	0.006536
H434	H	-0.891769	-0.230156	0.032777
H435	H	-0.910681	-0.173938	-0.025130
H436	H	-0.946151	-0.246385	0.006265
H437	H	-0.965073	-0.190164	-0.051641
H438	H	-0.490215	0.626864	-0.653559
O439	O	-0.573850	0.385776	-0.426052
C440	C	-0.576476	0.385474	-0.380060
H441	H	-0.573044	0.422818	-0.384878
H442	H	-0.542337	0.338631	-0.343731
C443	C	-0.634314	0.352107	-0.366469
C444	C	-0.630103	0.397978	-0.372389
H445	H	-0.667392	0.359817	-0.361735
H446	H	-0.632544	0.352308	-0.397453
H447	H	-0.605862	0.313075	-0.336195
H448	H	-0.658551	0.437007	-0.402666
H449	H	-0.631879	0.397783	-0.341409
O450	O	-0.418705	-0.147657	-0.426214
C451	C	-0.401036	-0.165098	-0.460813
H452	H	-0.426125	-0.123650	-0.503912
H453	H	-0.405313	-0.203243	-0.451998
C454	C	-0.311250	-0.239516	-0.399361
C455	C	-0.342062	-0.188608	-0.452296
H456	H	-0.274872	-0.254020	-0.394106
H457	H	-0.323155	-0.227768	-0.376050
H458	H	-0.314821	-0.271297	-0.392022
H459	H	-0.338497	-0.156824	-0.459632
H460	H	-0.330156	-0.200351	-0.475608
H461	H	-0.841210	-0.463642	0.019294
H462	H	-0.161134	-0.465220	0.304234
H463	H	-0.026563	0.162985	-0.509727
O464	O	-0.845195	0.531581	-0.550554
C465	C	-0.888477	0.574881	-0.545690
H466	H	-0.900666	0.623181	-0.578115
H467	H	-0.876175	0.564540	-0.504817
C468	C	-0.920939	0.511579	-0.511966
C469	C	-0.935913	0.570903	-0.551793
H470	H	-0.950199	0.509124	-0.515728
H471	H	-0.891778	0.482405	-0.515240
H472	H	-0.910687	0.502969	-0.477908
H473	H	-0.946159	0.579509	-0.585849
H474	H	-0.965077	0.600078	-0.548525
H475	H	-0.019210	0.253653	-0.698214
H476	H	-0.426677	0.389946	-0.430194
O477	O	-0.026834	0.159446	-0.657508
C478	C	-0.024189	0.192188	-0.708684
H479	H	-0.004557	0.215357	-0.708634
H480	H	-0.066212	0.228708	-0.739085
C481	C	-0.015167	0.118867	-0.723648
C482	C	0.008950	0.147320	-0.723585
H483	H	0.005272	0.091191	-0.732842
H484	H	-0.016951	0.096809	-0.689170
H485	H	-0.050186	0.149305	-0.748982
H486	H	0.043965	0.116882	-0.698247
H487	H	0.010740	0.169371	-0.758059
H488	H	-0.019237	-0.142213	-0.698946
O489	O	-0.448816	-0.138918	-0.706414
C490	C	-0.500033	-0.085087	-0.725023
H491	H	-0.500128	-0.065360	-0.701896
H492	H	-0.530426	-0.096718	-0.718932
C493	C	-0.514677	-0.061450	-0.813222
C494	C	-0.514793	-0.037218	-0.784820
H495	H	-0.523783	-0.031923	-0.850108
H496	H	-0.480172	-0.097718	-0.800685
H497	H	-0.540004	-0.071142	-0.808141
H498	H	-0.489462	-0.027534	-0.789896
H499	H	-0.549294	-0.000947	-0.797360
O500	O	-0.293194	-0.294469	-0.154943
C501	C	-0.274768	-0.310242	-0.190338
H502	H	-0.297996	-0.267397	-0.233149
H503	H	-0.280896	-0.346125	-0.184845
C504	C	-0.186457	-0.389501	-0.126012
C505	C	-0.214983	-0.336877	-0.178592
H506	H	-0.149579	-0.405934	-0.118766
H507	H	-0.198871	-0.378876	-0.102164
H508	H	-0.191569	-0.419397	-0.121441
H509	H	-0.209876	-0.306980	-0.183161
H510	H	-0.202567	-0.347498	-0.202441
O511	O	-0.018976	-0.294068	-0.551649
C512	C	-0.062478	-0.284136	-0.580594
H513	H	-0.077154	-0.244478	-0.624206
H514	H	-0.096128	-0.272228	-0.563290
C515	C	-0.026689	-0.391652	-0.523107
C516	C	-0.044712	-0.342947	-0.576674
H517	H	-0.015732	-0.427930	-0.520687
H518	H	0.002617	-0.398344	-0.503605
H519	H	-0.054734	-0.381721	-0.508693
H520	H	-0.016666	-0.352876	-0.591084
H521	H	-0.074014	-0.336259	-0.596178
H522	H	-0.026564	-0.233284	-0.510448
H523	H	-0.743487	-0.516312	0.026628
O524	O	-0.026782	-0.237278	-0.260691
C525	C	0.016706	-0.251912	-0.279712
H526	H	0.049956	-0.258440	-0.255036
H527	H	0.003282	-0.212865	-0.323302
C528	C	-0.003407	-0.303805	-0.305245
C529	C	0.037432	-0.311828	-0.274935
H530	H	0.009377	-0.340762	-0.302302
H531	H	-0.032707	-0.293944	-0.292433
H532	H	-0.014591	-0.271264	-0.341568
H533	H	0.048610	-0.344363	-0.238613
H534	H	0.066735	-0.321696	-0.287741
H535	H	-0.445174	0.679524	-0.698898
O536	O	-0.293597	0.532588	-0.551500
C537	C	-0.293712	0.575996	-0.546755
H538	H	-0.335400	0.609874	-0.549831
H539	H	-0.281710	0.602044	-0.580105
C540	C	-0.202537	0.500851	-0.488586
C541	C	-0.253737	0.542458	-0.492360
H542	H	-0.177876	0.480164	-0.455034
H543	H	-0.202458	0.471607	-0.491784
H544	H	-0.192542	0.522564	-0.516381
H545	H	-0.263733	0.520743	-0.464570
H546	H	-0.253816	0.571698	-0.489156
O547	O	-0.342427	0.233659	-0.260602
C548	C	-0.291259	0.200930	-0.225199
H549	H	-0.278995	0.153137	-0.191270
H550	H	-0.292064	0.226799	-0.208190
C551	C	-0.265910	0.253497	-0.297007
C552	C	-0.250844	0.194794	-0.255337
H553	H	-0.240980	0.249713	-0.315598
H554	H	-0.300383	0.275549	-0.320859
H555	H	-0.266581	0.275047	-0.282827
H556	H	-0.250180	0.173247	-0.269519
H557	H	-0.216370	0.172738	-0.231488
H558	H	-0.346709	-0.233340	-0.256801
H559	H	-0.346767	-0.770191	0.026621
O560	O	-0.293546	-0.864577	0.019035
C561	C	-0.259974	-0.927068	0.062537
H562	H	-0.284963	-0.945685	0.077217
H563	H	-0.238236	-0.931498	0.096186
C564	C	-0.188217	-0.941329	0.026742
C565	C	-0.218909	-0.964197	0.044769
H566	H	-0.162884	-0.964232	0.015783
H567	H	-0.210834	-0.899227	-0.002565
H568	H	-0.170107	-0.945022	0.054786
H569	H	-0.237023	-0.960496	0.016724
H570	H	-0.196293	-1.006299	0.074071
H571	H	-0.301736	-0.463624	0.019263
O572	O	-0.342432	-0.524784	0.026940
C573	C	-0.291265	-0.540544	0.024272
H574	H	-0.279000	-0.518882	0.038143
H575	H	-0.292071	-0.522743	-0.018615
C576	C	-0.265914	-0.637676	0.043517
C577	C	-0.250848	-0.611074	0.060558
H578	H	-0.240983	-0.681182	0.065898
H579	H	-0.300386	-0.627058	0.045313
H580	H	-0.266586	-0.622836	0.007778
H581	H	-0.250183	-0.625909	0.096294
H582	H	-0.216374	-0.621697	0.058769
H583	H	-0.570092	0.003538	-0.430229
H584	H	-0.346713	-0.233351	-0.509753
H585	H	-0.301364	-0.286010	-0.554791
O586	O	-0.497993	-0.081723	-0.657476
C587	C	-0.497969	-0.033600	-0.662313
H588	H	-0.456276	-0.044469	-0.659138
H589	H	-0.510119	-0.028750	-0.629065
C590	C	-0.589059	0.040448	-0.720697
C591	C	-0.537852	0.027101	-0.716802
H592	H	-0.613662	0.077892	-0.754307
H593	H	-0.589076	0.008027	-0.717437
H594	H	-0.599177	0.044486	-0.692987
H595	H	-0.527732	0.023056	-0.744507
H596	H	-0.537834	0.059523	-0.720068
O597	O	-0.739346	0.159488	-0.657929
C598	C	-0.774593	0.192068	-0.709138
H599	H	-0.808578	0.239907	-0.721550
H600	H	-0.791542	0.166143	-0.708323
C601	C	-0.702554	0.139299	-0.734164
C602	C	-0.744291	0.198058	-0.749411
H603	H	-0.683862	0.142992	-0.759007
H604	H	-0.678807	0.117347	-0.699664
H605	H	-0.716684	0.117701	-0.733485
H606	H	-0.730160	0.219652	-0.750083
H607	H	-0.768035	0.220014	-0.783913
H608	H	-0.841561	0.253985	-0.555818
O609	O	-0.845540	0.257581	-0.707095
C610	C	-0.888823	0.252688	-0.707056
H611	H	-0.901011	0.248992	-0.670930
H612	H	-0.876522	0.209866	-0.705090
C613	C	-0.921287	0.314719	-0.802842
C614	C	-0.936259	0.310184	-0.758473
H615	H	-0.950547	0.350183	-0.834559
H616	H	-0.892125	0.318014	-0.802868
H617	H	-0.911036	0.279031	-0.801196
H618	H	-0.946504	0.345868	-0.760116
H619	H	-0.965424	0.306896	-0.758449
H620	H	-0.743837	0.163627	-0.510462
