data_functionalizedCrystal
_audit_creation_method	'MofGen! by Chris Wilmer'
_symmetry_space_group_name_H-M	'P1'
_symmetry_Int_Tables_number	1
_symmetry_cell_setting	triclinic
loop_
_symmetry_equiv_pos_as_xyz
  x,y,z
_cell_length_a	21.395364
_cell_length_b	12.759399
_cell_length_c	21.395356
_cell_angle_alpha	89.976567
_cell_angle_beta	89.976411
_cell_angle_gamma	90.030067
loop_
_atom_site_label
_atom_site_type_symbol
_atom_site_fract_x
_atom_site_fract_y
_atom_site_fract_z
Zn1	Zn	0.957921	-0.417874	-0.354280
Zn2	Zn	1.457921	0.082126	0.145720
Zn3	Zn	0.957854	-0.593566	-0.249510
Zn4	Zn	1.457854	-0.093566	0.250490
Zn5	Zn	0.853138	-0.417948	-0.249517
Zn6	Zn	1.353138	0.082052	0.250483
Zn7	Zn	0.853134	-0.593557	-0.354250
Zn8	Zn	1.353134	-0.093557	0.145750
O9	O	0.905512	-0.505736	-0.301889
O10	O	1.405512	-0.005736	0.198111
O11	O	1.045590	-0.441153	-0.340392
O12	O	1.545590	0.058847	0.159608
O13	O	0.943937	-0.570305	-0.161833
O14	O	1.443937	-0.070305	0.338167
O15	O	0.867067	-0.270917	-0.263429
O16	O	1.367067	0.229083	0.236571
O17	O	1.045541	-0.570233	-0.263418
O18	O	1.545541	-0.070233	0.236582
O19	O	0.944051	-0.270863	-0.340398
O20	O	1.444051	0.229137	0.159602
O21	O	0.867002	-0.441279	-0.161838
O22	O	1.367002	0.058721	0.338162
O23	O	0.765459	-0.441270	-0.263400
O24	O	1.265459	0.058730	0.236600
O25	O	0.867060	-0.570217	-0.441932
O26	O	1.367060	-0.070217	0.058068
O27	O	0.765456	-0.570289	-0.340348
O28	O	1.265456	-0.070289	0.159652
O29	O	0.944047	-0.441144	-0.441954
O30	O	1.444047	0.058856	0.058046
O31	O	0.943933	-0.740586	-0.263389
O32	O	1.443933	-0.240586	0.236611
O33	O	0.866995	-0.740579	-0.340341
O34	O	1.366995	-0.240579	0.159659
C35	C	0.742724	-0.505787	-0.301872
C36	C	1.242724	-0.005787	0.198128
C37	C	0.673083	-0.505835	-0.301879
C38	C	1.173083	-0.005835	0.198121
C39	C	0.640418	-0.438732	-0.342021
C40	C	1.140418	0.061268	0.157979
C41	C	0.574982	-0.438704	-0.342024
C42	C	1.074982	0.061296	0.157976
C43	C	0.542214	-0.505797	-0.301891
C44	C	1.042214	-0.005797	0.198109
C45	C	0.574887	-0.572904	-0.261741
C46	C	1.074887	-0.072904	0.238259
C47	C	0.640322	-0.572923	-0.261735
C48	C	1.140322	-0.072923	0.238265
C49	C	0.438506	-0.600413	-0.296857
C50	C	0.938506	-0.100413	0.203143
C51	C	0.373073	-0.600397	-0.296867
C52	C	0.873073	-0.100397	0.203133
C53	C	0.340394	-0.505740	-0.301904
C54	C	0.840394	-0.005740	0.198096
C55	C	0.373156	-0.411097	-0.306945
C56	C	0.873156	0.088903	0.193055
C57	C	0.438590	-0.411115	-0.306939
C58	C	0.938590	0.088885	0.193061
C59	C	0.471262	-0.505784	-0.301892
C60	C	0.971262	-0.005784	0.198108
C61	C	0.236776	-0.438601	-0.342051
C62	C	0.736776	0.061399	0.157949
C63	C	0.171340	-0.438572	-0.342049
C64	C	0.671340	0.061428	0.157951
C65	C	0.171246	-0.572781	-0.261770
C66	C	0.671246	-0.072781	0.238230
C67	C	0.236681	-0.572801	-0.261768
C68	C	0.736681	-0.072801	0.238232
C69	C	0.269442	-0.505713	-0.301913
C70	C	0.769442	-0.005713	0.198087
C71	C	0.905473	-0.778704	-0.301875
C72	C	1.405473	-0.278704	0.198125
C73	C	0.905514	-0.895480	-0.301890
C74	C	1.405514	-0.395480	0.198110
C75	C	0.945621	-0.950311	-0.261867
C76	C	1.445621	-0.450311	0.238133
C77	C	0.945661	-1.060035	-0.261888
C78	C	1.445661	-0.560035	0.238112
C79	C	0.865482	-1.060088	-0.341957
C80	C	1.365482	-0.560088	0.158043
C81	C	0.865446	-0.950366	-0.341939
C82	C	1.365446	-0.450366	0.158061
C83	C	1.019615	-1.209876	-0.239593
C84	C	1.519615	-0.709876	0.260407
C85	C	1.059717	-1.264711	-0.199560
C86	C	1.559717	-0.764711	0.300440
C87	C	1.069355	-1.229153	-0.138427
C88	C	1.569355	-0.729153	0.361573
C89	C	1.038882	-1.138763	-0.117315
C90	C	1.538882	-0.638763	0.382685
C91	C	0.998776	-1.083934	-0.157345
C92	C	1.498776	-0.583934	0.342655
C93	C	0.989150	-1.119490	-0.218487
C94	C	1.489150	-0.619490	0.281513
C95	C	0.791491	-0.800523	-0.364227
C96	C	1.291491	-0.300523	0.135773
C97	C	0.751381	-0.745692	-0.404254
C98	C	1.251381	-0.245692	0.095746
C99	C	0.741737	-0.781247	-0.465388
C100	C	1.241737	-0.281247	0.034612
C101	C	0.772199	-0.871641	-0.486498
C102	C	1.272199	-0.371641	0.013502
C103	C	0.812308	-0.926472	-0.446471
C104	C	1.312308	-0.426472	0.053529
C105	C	0.821954	-0.890909	-0.385337
C106	C	1.321954	-0.390909	0.114663
C107	C	1.068935	-0.505686	-0.301907
C108	C	1.568935	-0.005686	0.198093
C109	C	1.138576	-0.505664	-0.301915
C110	C	1.638576	-0.005664	0.198085
C111	C	0.905561	-0.505671	-0.465313
C112	C	1.405561	-0.005671	0.034687
C113	C	0.905582	-0.505643	-0.534954
C114	C	1.405582	-0.005643	-0.034954
C115	C	0.905567	-0.231703	-0.301917
C116	C	1.405567	0.268297	0.198083
C117	C	0.905591	-0.114926	-0.301929
C118	C	1.405591	0.385074	0.198071
C119	C	0.865533	-0.438452	-0.567660
C120	C	1.365533	0.061548	-0.067660
C121	C	0.865531	-0.438432	-0.633095
C122	C	1.365531	0.061568	-0.133095
C123	C	0.905589	-0.505593	-0.665822
C124	C	1.405589	-0.005593	-0.165822
C125	C	0.945641	-0.572798	-0.633109
C126	C	1.445641	-0.072798	-0.133109
C127	C	0.945637	-0.572823	-0.567675
C128	C	1.445637	-0.072823	-0.067675
C129	C	0.962042	-0.513829	-0.769509
C130	C	1.462042	-0.013829	-0.269509
C131	C	0.962047	-0.513796	-0.834942
C132	C	1.462047	-0.013796	-0.334942
C133	C	0.905599	-0.505522	-0.867643
C134	C	1.405599	-0.005522	-0.367643
C135	C	0.849145	-0.497259	-0.834903
C136	C	1.349145	0.002741	-0.334903
C137	C	0.849142	-0.497284	-0.769469
C138	C	1.349142	0.002716	-0.269469
C139	C	0.905597	-0.505574	-0.736775
C140	C	1.405597	-0.005574	-0.236775
C141	C	0.865544	-0.438306	-0.971302
C142	C	1.365544	0.061694	-0.471302
C143	C	0.865541	-0.438294	-1.036738
C144	C	1.365541	0.061706	-0.536738
C145	C	0.945657	-0.572654	-1.036751
C146	C	1.445657	-0.072654	-0.536751
C147	C	0.945654	-0.572672	-0.971315
C148	C	1.445654	-0.072672	-0.471315
C149	C	0.905599	-0.505492	-0.938595
C150	C	1.405599	-0.005492	-0.438595
C151	C	0.905499	-0.505725	-0.139102
C152	C	1.405499	-0.005725	0.360898
C153	C	0.905599	-0.505457	-0.069461
C154	C	1.405599	-0.005457	0.430539
H155	H	0.465262	-0.334053	-0.311041
H156	H	0.965262	0.165947	0.188959
H157	H	0.832929	-0.383606	-0.944659
H158	H	1.332929	0.116394	-0.444659
H159	H	0.263452	-0.383967	-0.374735
H160	H	0.763452	0.116033	0.125265
H161	H	1.008015	-0.520520	-0.861594
H162	H	1.508015	-0.020520	-0.361594
C163	C	0.337218	-0.306968	-0.312488
C164	C	0.837218	0.193032	0.187512
H165	H	0.293556	-0.320507	-0.311764
H166	H	0.793556	0.179493	0.188236
H167	H	0.347974	-0.273464	-0.350666
H168	H	0.847974	0.226536	0.149334
H169	H	0.347945	-0.262701	-0.278447
H170	H	0.847945	0.237299	0.221553
C171	C	0.787048	-0.488188	-0.870865
C172	C	1.287048	0.011812	-0.370865
H173	H	0.795132	-0.489377	-0.914524
H174	H	1.295132	0.010623	-0.414524
H175	H	0.767014	-0.424245	-0.860150
H176	H	1.267014	0.075755	-0.360150
H177	H	0.760692	-0.545369	-0.860117
H178	H	1.260692	-0.045369	-0.360117
C179	C	0.676257	-0.646742	-0.217581
C180	C	1.176257	-0.146742	0.282419
H181	H	0.719920	-0.637141	-0.223324
H182	H	1.219920	-0.137141	0.276676
H183	H	0.665508	-0.717349	-0.226676
H184	H	1.165508	-0.217349	0.273324
H185	H	0.665522	-0.631261	-0.175497
H186	H	1.165522	-0.131261	0.324503
C187	C	0.821486	-0.364379	-1.072715
C188	C	1.321486	0.135621	-0.572715
H189	H	0.797636	-0.324369	-1.043853
H190	H	1.297636	0.175631	-0.543853
H191	H	0.794176	-0.404561	-1.098226
H192	H	1.294176	0.095439	-0.598226
H193	H	0.845471	-0.318587	-1.098254
H194	H	1.345471	0.181413	-0.598254
H195	H	1.008012	-0.520557	-0.742889
H196	H	1.508012	-0.020557	-0.242889
C197	C	0.135209	-0.646587	-0.217626
C198	C	0.635209	-0.146587	0.282374
H199	H	0.091560	-0.636972	-0.223382
H200	H	0.591560	-0.136972	0.276618
H201	H	0.145918	-0.631129	-0.175543
H202	H	0.645918	-0.131129	0.324457
H203	H	0.145909	-0.717203	-0.226731
H204	H	0.645909	-0.217203	0.273269
H205	H	0.978274	-0.627336	-1.063396
H206	H	1.478274	-0.127336	-0.563396
H207	H	0.799345	-0.771558	-0.314448
H208	H	1.299345	-0.271558	0.185552
C209	C	0.821471	-0.364563	-0.531671
C210	C	1.321471	0.135437	-0.031671
H211	H	0.797616	-0.324548	-0.560525
H212	H	1.297616	0.175452	-0.060525
H213	H	0.845447	-0.318791	-0.506157
H214	H	1.345447	0.181209	-0.006157
H215	H	0.794157	-0.404773	-0.506132
H216	H	1.294157	0.095227	-0.006132
H217	H	0.978268	-0.627384	-0.944686
H218	H	1.478268	-0.127384	-0.444686
H219	H	0.837114	-1.000073	-0.463665
H220	H	1.337114	-0.500073	0.036335
C221	C	0.821407	-1.120461	-0.386006
C222	C	1.321407	-0.620461	0.113994
H223	H	0.797519	-1.072088	-0.409844
H224	H	1.297519	-0.572088	0.090156
H225	H	0.794132	-1.163342	-0.362022
H226	H	1.294132	-0.663342	0.137978
H227	H	0.845380	-1.163186	-0.413336
H228	H	1.345380	-0.663186	0.086664
C229	C	0.989705	-0.646669	-0.669106
C230	C	1.489705	-0.146669	-0.169106
H231	H	0.983977	-0.637024	-0.712761
H232	H	1.483977	-0.137024	-0.212761
H233	H	0.980522	-0.717268	-0.658373
H234	H	1.480522	-0.217268	-0.158373
H235	H	1.031807	-0.631277	-0.658397
H236	H	1.531807	-0.131277	-0.158397
C237	C	0.989697	-0.646730	-0.531697
C238	C	1.489697	-0.146730	-0.031697
H239	H	1.013557	-0.686725	-0.560557
H240	H	1.513557	-0.186725	-0.060557
H241	H	0.965720	-0.692521	-0.506154
H242	H	1.465720	-0.192521	-0.006154
H243	H	1.017007	-0.606532	-0.506189
H244	H	1.517007	-0.106532	-0.006189
C245	C	0.821479	-0.364512	-0.669079
C246	C	1.321479	0.135488	-0.169079
H247	H	0.797627	-0.324502	-0.640220
H248	H	1.297627	0.175498	-0.140220
H249	H	0.794172	-0.404692	-0.694594
H250	H	1.294172	0.095308	-0.194594
H251	H	0.845468	-0.318721	-0.694615
H252	H	1.345468	0.181279	-0.194615
H253	H	1.084528	-1.338307	-0.216756
H254	H	1.584528	-0.838307	0.283244
C255	C	0.135408	-0.364755	-0.386208
C256	C	0.635408	0.135245	0.113792
H257	H	0.164293	-0.324813	-0.410118
H258	H	0.664293	0.175187	0.089882
H259	H	0.109890	-0.318913	-0.362293
H260	H	0.609890	0.181087	0.137707
H261	H	0.109878	-0.405008	-0.413468
H262	H	0.609878	0.094992	0.086532
H263	H	1.102007	-1.273806	-0.105832
H264	H	1.602007	-0.773806	0.394168
C265	C	0.787050	-0.488207	-0.733455
C266	C	1.287050	0.011793	-0.233455
H267	H	0.795136	-0.489401	-0.689802
H268	H	1.295136	0.010599	-0.189802
H269	H	0.760683	-0.545363	-0.744161
H270	H	1.260683	-0.045363	-0.244161
H271	H	0.767028	-0.424242	-0.744175
H272	H	1.267028	0.075758	-0.244175
C273	C	0.989700	-0.889940	-0.217821
C274	C	1.489700	-0.389940	0.282179
H275	H	1.013596	-0.938314	-0.193992
H276	H	1.513596	-0.438314	0.306008
H277	H	0.965735	-0.847211	-0.190491
H278	H	1.465735	-0.347211	0.309509
H279	H	1.016976	-0.847063	-0.241812
H280	H	1.516976	-0.347063	0.258188
C281	C	0.676452	-0.364925	-0.386170
C282	C	1.176452	0.135075	0.113830
H283	H	0.647622	-0.324949	-0.410074
H284	H	1.147622	0.175051	0.089926
H285	H	0.701978	-0.405175	-0.413427
H286	H	1.201978	0.094825	0.086573
H287	H	0.701981	-0.319097	-0.362241
H288	H	1.201981	0.180903	0.137759
H289	H	0.548381	-0.384056	-0.374711
H290	H	1.048381	0.115944	0.125289
H291	H	0.263277	-0.627448	-0.229083
H292	H	0.763277	-0.127448	0.270917
H293	H	0.346403	-0.677461	-0.292766
H294	H	0.846403	-0.177461	0.207234
H295	H	1.011778	-1.238829	-0.289375
H296	H	1.511778	-0.738829	0.210625
H297	H	0.764346	-0.900591	-0.536278
H298	H	1.264346	-0.400591	-0.036278
C299	C	0.474446	-0.704544	-0.291321
C300	C	0.974446	-0.204544	0.208679
H301	H	0.445564	-0.760905	-0.288331
H302	H	0.945564	-0.260905	0.211669
H303	H	0.499957	-0.703115	-0.255003
H304	H	0.999957	-0.203115	0.244997
H305	H	0.499983	-0.713857	-0.327224
H306	H	0.999983	-0.213857	0.172776
H307	H	0.548204	-0.627531	-0.229063
H308	H	1.048204	-0.127531	0.270937
H309	H	0.709074	-0.736595	-0.497977
H310	H	1.209074	-0.236595	0.002023
C311	C	0.965262	-0.984510	-0.134130
C312	C	1.465262	-0.484510	0.365870
H313	H	0.976746	-0.971181	-0.091987
H314	H	1.476746	-0.471181	0.408013
H315	H	0.921325	-0.994398	-0.136626
H316	H	1.421325	-0.494398	0.363374
H317	H	0.977052	-0.926600	-0.159453
H318	H	1.477052	-0.426600	0.340547
H319	H	1.046728	-1.109825	-0.067532
H320	H	1.546728	-0.609825	0.432468
H321	H	0.726581	-0.672084	-0.387062
H322	H	1.226581	-0.172084	0.112938
