data_functionalizedCrystal
_audit_creation_method	'MofGen! by Chris Wilmer'
_symmetry_space_group_name_H-M	'P1'
_symmetry_Int_Tables_number	1
_symmetry_cell_setting	triclinic
loop_
_symmetry_equiv_pos_as_xyz
  x,y,z
_cell_length_a	17.699077
_cell_length_b	12.811415
_cell_length_c	16.176319
_cell_angle_alpha	84.562354
_cell_angle_beta	89.993140
_cell_angle_gamma	83.663755
loop_
_atom_site_label
_atom_site_type_symbol
_atom_site_fract_x
_atom_site_fract_y
_atom_site_fract_z
O1	O	1.004676	0.132702	-0.078683
O2	O	1.504676	0.632702	0.421317
O3	O	0.784375	0.149978	-0.079982
O4	O	1.284375	0.649978	0.420018
O5	O	0.900067	-0.011467	-0.067872
O6	O	1.400067	0.488533	0.432128
O7	O	0.888984	0.294147	-0.090792
O8	O	1.388984	0.794147	0.409208
O9	O	0.900051	-0.011478	0.069621
O10	O	1.400051	0.488522	0.569621
O11	O	0.784359	0.149967	0.057512
O12	O	1.284359	0.649967	0.557512
O13	O	1.004660	0.132692	0.058811
O14	O	1.504660	0.632692	0.558811
Cu15	Cu	0.894508	0.141329	0.070716
Cu16	Cu	1.394508	0.641329	0.570716
Cu17	Cu	0.894527	0.141341	-0.091886
Cu18	Cu	1.394527	0.641341	0.408114
O19	O	0.888968	0.294137	0.046702
O20	O	1.388968	0.794137	0.546702
C21	C	0.756167	0.149355	-0.011189
C22	C	1.256167	0.649355	0.488811
C23	C	0.672140	0.147501	-0.011051
C24	C	1.172140	0.647501	0.488949
C25	C	0.632660	0.146622	0.063963
C26	C	1.132660	0.646622	0.563963
C27	C	0.553710	0.144863	0.064096
C28	C	1.053710	0.644863	0.564096
C29	C	0.514240	0.143991	-0.010787
C30	C	1.014240	0.643991	0.489213
C31	C	0.553726	0.144867	-0.085807
C32	C	1.053726	0.644867	0.414193
C33	C	0.632676	0.146618	-0.085938
C34	C	1.132676	0.646618	0.414062
C35	C	0.235331	0.137804	-0.085279
C36	C	0.735331	0.637804	0.414721
C37	C	0.156376	0.136056	-0.085142
C38	C	0.656376	0.636056	0.414858
C39	C	0.156365	0.136049	0.064755
C40	C	0.656365	0.636049	0.564755
C41	C	0.235315	0.137800	0.064624
C42	C	0.735315	0.637800	0.564624
C43	C	0.274794	0.138670	-0.010395
C44	C	0.774794	0.638670	0.489605
C45	C	0.360401	0.140575	-0.010538
C46	C	0.860401	0.640575	0.489462
C47	C	0.428634	0.142094	-0.010646
C48	C	0.928634	0.642094	0.489354
C49	C	0.899438	-0.050575	0.003805
C50	C	1.399438	0.449425	0.503805
C51	C	0.897577	-0.167089	0.012538
C52	C	1.397577	0.332911	0.512538
C53	C	0.894084	-0.386008	-0.120966
C54	C	1.394084	0.113992	0.379034
C55	C	0.892336	-0.495483	-0.112765
C56	C	1.392336	0.004517	0.387235
C57	C	0.892326	-0.495516	0.037140
C58	C	1.392326	0.004484	0.537140
C59	C	0.894075	-0.386040	0.028939
C60	C	1.394075	0.113960	0.528939
C61	C	0.894955	-0.331291	-0.050117
C62	C	1.394955	0.168709	0.449883
C63	C	0.896709	-0.221815	-0.058317
C64	C	1.396709	0.278185	0.441683
C65	C	0.896694	-0.221848	0.091587
C66	C	1.396694	0.278152	0.591587
C67	C	0.894945	-0.331323	0.099788
C68	C	1.394945	0.168677	0.599788
C69	C	1.032868	0.133315	-0.009983
C70	C	1.532868	0.633315	0.490017
C71	C	1.116895	0.135169	-0.010126
C72	C	1.616895	0.635169	0.489874
C73	C	0.889597	0.333245	-0.024977
C74	C	1.389597	0.833245	0.475023
C75	C	0.891458	0.449759	-0.033715
C76	C	1.391458	0.949759	0.466285
N77	N	0.894500	0.141320	0.185082
N78	N	1.394500	0.641320	0.685082
N79	N	0.894541	0.141342	-0.206252
N80	N	1.394541	0.641342	0.293748
C81	C	0.945744	0.069861	0.233706
C82	C	1.445744	0.569861	0.733706
C83	C	0.945748	0.069860	0.320253
C84	C	1.445748	0.569860	0.820253
C85	C	0.894511	0.141323	0.358174
C86	C	1.394511	0.641323	0.858174
C87	C	0.843261	0.212785	0.309544
C88	C	1.343261	0.712785	0.809544
C89	C	0.843254	0.212781	0.222999
C90	C	1.343254	0.712781	0.722999
C91	C	0.843287	0.212805	0.658571
C92	C	1.343287	0.712805	1.158571
C93	C	0.843300	0.212806	0.745122
C94	C	1.343300	0.712806	1.245122
C95	C	0.945781	0.069884	0.755825
C96	C	1.445781	0.569884	1.255825
C97	C	0.945774	0.069879	0.669280
C98	C	1.445774	0.569879	1.169280
C99	C	0.894522	0.141337	0.620658
C100	C	1.394522	0.641337	1.120658
C101	C	0.894518	0.141336	0.526814
C102	C	1.394518	0.641336	1.026814
C103	C	0.894518	0.141330	0.452016
C104	C	1.394518	0.641330	0.952016
H105	H	0.521570	0.144130	0.125181
H106	H	1.021570	0.644130	0.625181
H107	H	0.664790	0.147340	0.124941
H108	H	1.164790	0.647340	0.624941
O109	O	0.897636	-0.162822	0.168006
O110	O	1.397636	0.337178	0.668006
H111	H	0.948827	-0.193328	0.206221
H112	H	1.448827	0.306672	0.706221
H113	H	0.124242	0.135345	-0.146124
H114	H	0.624242	0.635345	0.353876
H115	H	0.124212	0.135335	0.125840
H116	H	0.624212	0.635335	0.625840
H117	H	0.801558	0.270990	0.618989
H118	H	1.301558	0.770990	1.118989
O119	O	0.675268	0.147564	-0.166843
O120	O	1.175268	0.647564	0.333157
H121	H	0.653605	0.218744	-0.208123
H122	H	1.153605	0.718744	0.291877
O123	O	0.277907	0.138749	-0.166189
O124	O	0.777907	0.638749	0.333811
H125	H	0.256237	0.209932	-0.207462
H126	H	0.756237	0.709932	0.292538
H127	H	0.521584	0.144150	-0.146778
H128	H	1.021584	0.644150	0.353222
H129	H	0.267447	0.138515	0.125601
H130	H	0.767447	0.638515	0.625601
H131	H	0.894807	-0.341432	-0.185336
H132	H	1.394807	0.158568	0.314664
O133	O	0.897649	-0.162754	-0.143579
O134	O	1.397649	0.337246	0.356421
H135	H	0.896739	-0.219198	-0.191467
H136	H	1.396739	0.280802	0.308533
O137	O	0.891384	-0.554503	-0.189180
O138	O	1.391384	-0.054503	0.310820
H139	H	0.892288	-0.498036	-0.245527
H140	H	1.392288	0.001964	0.254473
O141	O	1.001034	-0.007201	0.372690
O142	O	1.501034	0.492799	0.872690
H143	H	0.991152	-0.089013	0.362217
H144	H	1.491152	0.410987	0.862217
H145	H	0.891604	-0.540110	0.101503
H146	H	1.391604	-0.040110	0.601503
H147	H	0.894226	-0.375914	0.164153
H148	H	1.394226	0.124086	0.664153
H149	H	0.987471	0.011672	0.202836
H150	H	1.487471	0.511672	0.702836
H151	H	0.987499	0.011691	0.638407
H152	H	1.487499	0.511691	1.138407
H153	H	0.987511	0.011696	0.795423
H154	H	1.487511	0.511696	1.295423
O155	O	0.788046	0.289904	0.786027
O156	O	1.288046	0.789904	1.286027
H157	H	0.752406	0.339594	0.737678
H158	H	1.252406	0.839594	1.237678
H159	H	0.801539	0.270969	0.340425
H160	H	1.301539	0.770969	0.840425
H161	H	0.801525	0.270968	0.183410
H162	H	1.301525	0.770968	0.683410
