data_functionalizedCrystal
_audit_creation_method	'MofGen! by Chris Wilmer'
_symmetry_space_group_name_H-M	'P1'
_symmetry_Int_Tables_number	1
_symmetry_cell_setting	triclinic
loop_
_symmetry_equiv_pos_as_xyz
  x,y,z
_cell_length_a	14.519731
_cell_length_b	14.519709
_cell_length_c	16.776229
_cell_angle_alpha	89.992406
_cell_angle_beta	89.992771
_cell_angle_gamma	83.684499
loop_
_atom_site_label
_atom_site_type_symbol
_atom_site_fract_x
_atom_site_fract_y
_atom_site_fract_z
O1	O	1.223859	0.120987	-0.066292
O2	O	1.473859	0.370987	0.183708
O3	O	1.723859	0.620987	0.433708
O4	O	1.973859	0.870987	0.683708
O5	O	0.955384	0.135203	-0.066293
O6	O	1.205384	0.385203	0.183707
O7	O	1.455384	0.635203	0.433707
O8	O	1.705384	0.885203	0.683707
O9	O	1.096740	-0.006143	-0.066285
O10	O	1.346740	0.243857	0.183715
O11	O	1.596740	0.493857	0.433715
O12	O	1.846740	0.743857	0.683715
O13	O	1.082503	0.262333	-0.066300
O14	O	1.332503	0.512333	0.183700
O15	O	1.582503	0.762333	0.433700
O16	O	1.832503	1.012333	0.683700
O17	O	1.096721	-0.006152	0.066291
O18	O	1.346721	0.243848	0.316291
O19	O	1.596721	0.493848	0.566291
O20	O	1.846721	0.743848	0.816291
O21	O	0.955366	0.135194	0.066283
O22	O	1.205366	0.385194	0.316283
O23	O	1.455366	0.635194	0.566283
O24	O	1.705366	0.885194	0.816283
O25	O	1.223840	0.120978	0.066285
O26	O	1.473840	0.370978	0.316285
O27	O	1.723840	0.620978	0.566285
O28	O	1.973840	0.870978	0.816285
Zn29	Zn	1.089600	0.128085	0.087333
Zn30	Zn	1.339600	0.378085	0.337333
Zn31	Zn	1.589600	0.628085	0.587333
Zn32	Zn	1.839600	0.878085	0.837333
Zn33	Zn	1.089625	0.128096	-0.087342
Zn34	Zn	1.339625	0.378096	0.162658
Zn35	Zn	1.589625	0.628096	0.412658
Zn36	Zn	1.839625	0.878096	0.662658
O37	O	1.082485	0.262324	0.066277
O38	O	1.332485	0.512324	0.316277
O39	O	1.582485	0.762324	0.566277
O40	O	1.832485	1.012324	0.816277
C41	C	0.921016	0.134532	-0.000005
C42	C	1.171016	0.384532	0.249995
C43	C	1.421016	0.634532	0.499995
C44	C	1.671016	0.884532	0.749995
C45	C	0.818635	0.132536	-0.000005
C46	C	1.068635	0.382536	0.249995
C47	C	1.318635	0.632536	0.499995
C48	C	1.568635	0.882536	0.749995
C49	C	0.735491	0.130915	-0.000008
C50	C	0.985491	0.380915	0.249992
C51	C	1.235491	0.630915	0.499992
C52	C	1.485491	0.880915	0.749992
C53	C	0.631182	0.128888	-0.000009
C54	C	0.881182	0.378888	0.249991
C55	C	1.131182	0.628888	0.499991
C56	C	1.381182	0.878888	0.749991
C57	C	0.548043	0.127280	-0.000008
C58	C	0.798043	0.377280	0.249992
C59	C	1.048043	0.627280	0.499992
C60	C	1.298043	0.877280	0.749992
C61	C	0.443728	0.125253	-0.000010
C62	C	0.693728	0.375253	0.249990
C63	C	0.943728	0.625253	0.499990
C64	C	1.193728	0.875253	0.749990
C65	C	1.096067	-0.040507	0.000003
C66	C	1.346067	0.209493	0.250003
C67	C	1.596067	0.459493	0.500003
C68	C	1.846067	0.709493	0.750003
C69	C	1.094079	-0.142889	0.000004
C70	C	1.344079	0.107111	0.250004
C71	C	1.594079	0.357111	0.500004
C72	C	1.844079	0.607111	0.750004
C73	C	1.086759	-0.517785	-0.000017
C74	C	1.336759	-0.267785	0.249983
C75	C	1.586759	-0.017785	0.499983
C76	C	1.836759	0.232215	0.749983
C77	C	1.088792	-0.413477	-0.000011
C78	C	1.338792	-0.163477	0.249989
C79	C	1.588792	0.086523	0.499989
C80	C	1.838792	0.336523	0.749989
C81	C	1.090419	-0.330340	-0.000006
C82	C	1.340419	-0.080340	0.249994
C83	C	1.590419	0.169660	0.499994
C84	C	1.840419	0.419660	0.749994
C85	C	1.092452	-0.226025	-0.000001
C86	C	1.342452	0.023975	0.249999
C87	C	1.592452	0.273975	0.499999
C88	C	1.842452	0.523975	0.749999
C89	C	1.258209	0.121649	-0.000005
C90	C	1.508209	0.371649	0.249995
C91	C	1.758209	0.621649	0.499995
C92	C	2.008209	0.871649	0.749995
C93	C	1.360589	0.123645	-0.000010
C94	C	1.610589	0.373645	0.249990
C95	C	1.860589	0.623645	0.499990
C96	C	2.110589	0.873645	0.749990
C97	C	1.083157	0.296688	-0.000013
C98	C	1.333157	0.546688	0.249987
C99	C	1.583157	0.796688	0.499987
C100	C	1.833157	1.046688	0.749987
C101	C	1.085146	0.399070	-0.000019
C102	C	1.335146	0.649070	0.249981
C103	C	1.585146	0.899070	0.499981
C104	C	1.835146	1.149070	0.749981
N105	N	1.089590	0.128076	0.206545
N106	N	1.339590	0.378076	0.456545
N107	N	1.589590	0.628076	0.706545
N108	N	1.839590	0.878076	0.956545
N109	N	1.089642	0.128097	-0.206553
N110	N	1.339642	0.378097	0.043447
N111	N	1.589642	0.628097	0.293447
N112	N	1.839642	0.878097	0.543447
C113	C	1.152201	0.065514	0.248265
C114	C	1.402201	0.315514	0.498265
C115	C	1.652201	0.565514	0.748265
C116	C	1.902201	0.815514	0.998265
C117	C	1.152206	0.065513	0.331718
C118	C	1.402206	0.315513	0.581718
C119	C	1.652206	0.565513	0.831718
C120	C	1.902206	0.815513	1.081718
C121	C	1.089604	0.128080	0.373448
C122	C	1.339604	0.378080	0.623448
C123	C	1.589604	0.628080	0.873448
C124	C	1.839604	0.878080	1.123448
C125	C	1.026986	0.190645	0.331721
C126	C	1.276986	0.440645	0.581721
C127	C	1.526986	0.690645	0.831721
C128	C	1.776986	0.940645	1.081721
C129	C	1.026977	0.190641	0.248271
C130	C	1.276977	0.440641	0.498271
C131	C	1.526977	0.690641	0.748271
C132	C	1.776977	0.940641	0.998271
C133	C	1.027019	0.190663	0.668268
C134	C	1.277019	0.440663	0.918268
C135	C	1.527019	0.690663	1.168268
C136	C	1.777019	0.940663	1.418268
C137	C	1.027034	0.190665	0.751725
C138	C	1.277034	0.440665	1.001725
C139	C	1.527034	0.690665	1.251725
C140	C	1.777034	0.940665	1.501725
C141	C	1.152248	0.065536	0.751715
C142	C	1.402248	0.315536	1.001715
C143	C	1.652248	0.565536	1.251715
C144	C	1.902248	0.815536	1.501715
C145	C	1.152239	0.065532	0.668265
C146	C	1.402239	0.315532	0.918265
C147	C	1.652239	0.565532	1.168265
C148	C	1.902239	0.815532	1.418265
C149	C	1.089619	0.128093	0.626546
C150	C	1.339619	0.378093	0.876546
C151	C	1.589619	0.628093	1.126546
C152	C	1.839619	0.878093	1.376546
C153	C	1.089613	0.128092	0.536057
C154	C	1.339613	0.378092	0.786057
C155	C	1.589613	0.628092	1.036057
C156	C	1.839613	0.878092	1.286057
C157	C	1.089613	0.128086	0.463934
C158	C	1.339613	0.378086	0.713934
C159	C	1.589613	0.628086	0.963934
C160	C	1.839613	0.878086	1.213934
H161	H	1.203183	0.014569	0.214294
H162	H	1.453183	0.264569	0.464294
H163	H	1.703183	0.514569	0.714294
H164	H	1.953183	0.764569	0.964294
C165	C	1.221105	-0.003298	0.622366
C166	C	1.471105	0.246702	0.872366
C167	C	1.721105	0.496702	1.122366
C168	C	1.971105	0.746702	1.372366
N169	N	1.272972	-0.055146	0.587797
N170	N	1.522972	0.194854	0.837797
N171	N	1.772972	0.444854	1.087797
N172	N	2.022972	0.694854	1.337797
C173	C	1.221061	-0.003332	0.377606
C174	C	1.471061	0.246668	0.627606
C175	C	1.721061	0.496668	0.877606
C176	C	1.971061	0.746668	1.127606
N177	N	1.272918	-0.055198	0.412169
N178	N	1.522918	0.194802	0.662169
N179	N	1.772918	0.444802	0.912169
N180	N	2.022918	0.694802	1.162169
H181	H	1.203235	0.014592	0.785692
H182	H	1.453235	0.264592	1.035692
H183	H	1.703235	0.514592	1.285692
H184	H	1.953235	0.764592	1.535692
H185	H	0.976052	0.241616	0.785700
H186	H	1.226052	0.491616	1.035700
H187	H	1.476052	0.741616	1.285700
H188	H	1.726052	0.991616	1.535700
H189	H	0.976033	0.241605	0.634307
H190	H	1.226033	0.491605	0.884307
H191	H	1.476033	0.741605	1.134307
H192	H	1.726033	0.991605	1.384307
C193	C	0.958113	0.259461	0.377627
C194	C	1.208113	0.509461	0.627627
C195	C	1.458113	0.759461	0.877627
C196	C	1.708113	1.009461	1.127627
N197	N	0.906237	0.311294	0.412203
N198	N	1.156237	0.561294	0.662203
N199	N	1.406237	0.811294	0.912203
N200	N	1.656237	1.061294	1.162203
H201	H	0.975991	0.241584	0.214302
H202	H	1.225991	0.491584	0.464302
H203	H	1.475991	0.741584	0.714302
H204	H	1.725991	0.991584	0.964302
