data_functionalizedCrystal
_audit_creation_method	'MofGen! by Chris Wilmer'
_symmetry_space_group_name_H-M	'P1'
_symmetry_Int_Tables_number	1
_symmetry_cell_setting	triclinic
loop_
_symmetry_equiv_pos_as_xyz
  x,y,z
_cell_length_a	16.959455
_cell_length_b	13.897448
_cell_length_c	16.959447
_cell_angle_alpha	89.971905
_cell_angle_beta	89.982031
_cell_angle_gamma	90.014639
loop_
_atom_site_label
_atom_site_type_symbol
_atom_site_fract_x
_atom_site_fract_y
_atom_site_fract_z
Zn1	Zn	1.208425	-0.384087	-0.446914
Zn2	Zn	1.208345	-0.545401	-0.314738
Zn3	Zn	1.076245	-0.384113	-0.314751
Zn4	Zn	1.076224	-0.545333	-0.446876
O5	O	1.142310	-0.464733	-0.380820
O6	O	1.319025	-0.405503	-0.429390
O7	O	1.190797	-0.524046	-0.204128
O8	O	1.093822	-0.249128	-0.332305
O9	O	1.318966	-0.524020	-0.332281
O10	O	1.190934	-0.249108	-0.429404
O11	O	1.093744	-0.405548	-0.204139
O12	O	0.965632	-0.405482	-0.332268
O13	O	1.093785	-0.523903	-0.557492
O14	O	0.965616	-0.523929	-0.429340
O15	O	1.190913	-0.405436	-0.557520
O16	O	1.190776	-0.680374	-0.332244
O17	O	1.093707	-0.680323	-0.429326
C18	C	0.936944	-0.464702	-0.380802
C19	C	0.849087	-0.464711	-0.380813
C20	C	0.477595	-0.403007	-0.330380
C21	C	0.477628	-0.526539	-0.431305
C22	C	0.560173	-0.526525	-0.431300
C23	C	0.601434	-0.464752	-0.380834
C24	C	0.560149	-0.402994	-0.330372
C25	C	0.601465	-0.588289	-0.481754
C26	C	0.684016	-0.588279	-0.481751
C27	C	0.725278	-0.526501	-0.431288
C28	C	0.683988	-0.464739	-0.380825
C29	C	0.725248	-0.402966	-0.330359
C30	C	0.683959	-0.341199	-0.279900
C31	C	0.601411	-0.341216	-0.279909
C32	C	0.807826	-0.526484	-0.431279
C33	C	0.807802	-0.402952	-0.330351
C34	C	1.142252	-0.715348	-0.380797
C35	C	1.142300	-0.822562	-0.380814
C36	C	1.142383	-1.018857	-0.380863
C37	C	1.142334	-0.909624	-0.380838
C38	C	1.348478	-0.464766	-0.380838
C39	C	1.436335	-0.464780	-0.380846
C40	C	1.142356	-0.464659	-0.586988
C41	C	1.142375	-0.464628	-0.674845
C42	C	1.142389	-0.213140	-0.380860
C43	C	1.142423	-0.105926	-0.380877
C44	C	1.192917	-0.526308	-0.716115
C45	C	1.091848	-0.402923	-0.716128
C46	C	1.091861	-0.402895	-0.798674
C47	C	1.142403	-0.464575	-0.839944
C48	C	1.192930	-0.526283	-0.798669
C49	C	1.041329	-0.341194	-0.839956
C50	C	1.041340	-0.341164	-0.922507
C51	C	1.091886	-0.402840	-0.963779
C52	C	1.142416	-0.464550	-0.922498
C53	C	1.192957	-0.526230	-0.963768
C54	C	1.243492	-0.587936	-0.922489
C55	C	1.243476	-0.587959	-0.839940
C56	C	1.091902	-0.402818	-1.046327
C57	C	1.192971	-0.526206	-1.046322
C58	C	1.142310	-0.464738	-0.175454
C59	C	1.142443	-0.464498	-0.087597
H60	H	0.444028	-0.576837	-0.472387
H61	H	0.717564	-0.290908	-0.238807
H62	H	0.567865	-0.638588	-0.522836
H63	H	0.567786	-0.290929	-0.238827
Cl64	Cl	0.735914	-0.665925	-0.545187
H65	H	1.050756	-0.352579	-1.079933
Cl66	Cl	1.028331	-0.325367	-0.664245
H67	H	0.443974	-0.352715	-0.289300
Cl68	Cl	0.859729	-0.604133	-0.494703
H69	H	1.234131	-0.576430	-1.079918
Cl70	Cl	1.307020	-0.665481	-0.974381
Cl71	Cl	1.307000	-0.665524	-0.788042
H72	H	1.234063	-0.576544	-0.682502
H73	H	1.000176	-0.290984	-0.806347
Cl74	Cl	0.859665	-0.325285	-0.266908
Cl75	Cl	0.977799	-0.263609	-0.974393
