data_functionalizedCrystal
_audit_creation_method	'MofGen! by Chris Wilmer'
_symmetry_space_group_name_H-M	'P1'
_symmetry_Int_Tables_number	1
_symmetry_cell_setting	triclinic
loop_
_symmetry_equiv_pos_as_xyz
  x,y,z
_cell_length_a	19.077105
_cell_length_b	13.031981
_cell_length_c	19.077222
_cell_angle_alpha	99.764295
_cell_angle_beta	90.096061
_cell_angle_gamma	94.612336
loop_
_atom_site_label
_atom_site_type_symbol
_atom_site_fract_x
_atom_site_fract_y
_atom_site_fract_z
Zn1	Zn	1.021100	-0.453423	0.400124
Zn2	Zn	1.010863	-0.635529	0.266430
Zn3	Zn	0.908295	-0.453962	0.277868
Zn4	Zn	0.889815	-0.621478	0.380433
O5	O	0.957518	-0.541098	0.331214
O6	O	1.117611	-0.483235	0.385843
O7	O	1.000707	-0.617549	0.169072
O8	O	0.935278	-0.307573	0.307112
O9	O	1.110089	-0.617027	0.287619
O10	O	1.018155	-0.307177	0.396933
O11	O	0.925351	-0.484153	0.177475
O12	O	0.807975	-0.470528	0.288019
O13	O	0.903780	-0.593079	0.481920
O14	O	0.794398	-0.593601	0.363373
O15	O	1.000235	-0.469610	0.496387
O16	O	0.982787	-0.779982	0.268526
O17	O	0.893853	-0.769659	0.352283
C18	C	0.775810	-0.530599	0.324801
C19	C	0.698072	-0.526132	0.322072
C20	C	0.935222	-0.812759	0.307043
C21	C	0.925747	-0.928979	0.296728
C22	C	0.654494	-0.588216	0.359943
C23	C	0.581452	-0.584005	0.357384
C24	C	0.551989	-0.517714	0.316949
C25	C	0.595572	-0.455623	0.279077
C26	C	0.668614	-0.459830	0.281641
C27	C	0.334296	-0.498246	0.305087
C28	C	0.261249	-0.494046	0.302524
C29	C	0.247134	-0.622426	0.380832
C30	C	0.320177	-0.626632	0.383389
C31	C	0.363754	-0.564537	0.345520
N32	N	0.477328	-0.513410	0.314330
N33	N	0.438414	-0.568836	0.348143
C34	C	0.962500	-0.980510	0.336612
C35	C	0.952708	-1.100630	0.325953
C36	C	1.139936	-0.551638	0.337651
C37	C	1.217671	-0.556130	0.340395
C38	C	0.951088	-0.529717	0.515507
C39	C	0.948348	-0.524867	0.594043
C40	C	0.979920	-0.268376	0.355495
C41	C	0.989466	-0.152158	0.365842
C42	C	0.928713	-0.490122	1.036581
C43	C	0.931291	-0.494675	0.962790
C44	C	0.971810	-0.566409	0.921518
C45	C	1.009759	-0.633587	0.954041
C46	C	1.007184	-0.629028	1.027832
C47	C	0.983721	-0.587486	0.700357
C48	C	0.986292	-0.592042	0.626561
C49	C	0.907825	-0.453129	0.635315
C50	C	0.905251	-0.448580	0.709106
C51	C	0.943202	-0.515754	0.741624
N52	N	0.974445	-0.571067	0.846090
N53	N	0.940571	-0.511091	0.817051
C54	C	0.963917	-0.552455	1.147634
C55	C	0.966657	-0.557297	1.069100
H56	H	0.545973	-0.634561	0.388222
O57	O	0.879511	-0.982533	0.246663
C58	C	0.827778	-1.040627	0.279692
H59	H	0.849223	-1.054930	0.332701
H60	H	0.779071	-0.995196	0.289280
C61	C	0.781757	-1.128569	0.166106
C62	C	0.808098	-1.146143	0.231210
H63	H	0.769615	-1.193654	0.136199
H64	H	0.816609	-1.089427	0.143853
H65	H	0.741171	-1.090706	0.174106
H66	H	0.848688	-1.183993	0.223210
H67	H	0.773253	-1.185294	0.253460
O68	O	1.008775	-0.927188	0.386727
C69	C	1.076886	-0.958665	0.371460
H70	H	1.072887	-1.039758	0.337358
H71	H	1.106714	-0.900811	0.341406
C72	C	1.121308	-0.862057	0.483335
C73	C	1.116396	-0.961660	0.441454
H74	H	1.145681	-0.863900	0.526510
H75	H	1.075420	-0.840846	0.493619
H76	H	1.146162	-0.813856	0.458281
H77	H	1.091534	-1.009856	0.466505
H78	H	1.162280	-0.982879	0.431175
O79	O	0.906469	-1.154179	0.275885
C80	C	0.854736	-1.212274	0.308914
H81	H	0.876180	-1.226577	0.361922
H82	H	0.806029	-1.166842	0.318502
C83	C	0.808715	-1.300215	0.195328
C84	C	0.835056	-1.317790	0.260431
H85	H	0.796572	-1.365301	0.165421
H86	H	0.843567	-1.261074	0.173075
H87	H	0.768129	-1.262353	0.203328
H88	H	0.875646	-1.355640	0.252431
H89	H	0.800211	-1.356941	0.282682
H90	H	0.876928	-0.398438	0.608831
O91	O	0.232745	-0.429553	0.263235
C92	C	0.286869	-0.375667	0.230347
H93	H	0.338223	-0.373318	0.261435
H94	H	0.293370	-0.417590	0.173517
C95	C	0.204761	-0.266227	0.191009
C96	C	0.267834	-0.263336	0.229196
H97	H	0.193019	-0.196938	0.190296
H98	H	0.168296	-0.302534	0.213165
H99	H	0.210187	-0.301169	0.143655
H100	H	0.262405	-0.228407	0.276551
H101	H	0.304298	-0.227020	0.207049
H102	H	0.872252	-0.390171	0.742705
O103	O	1.020485	-0.652765	0.732017
C104	C	0.973639	-0.715375	0.767281
H105	H	0.923277	-0.674764	0.779744
H106	H	0.960590	-0.794185	0.731684
C107	C	1.069982	-0.782047	0.821744
C108	C	1.008129	-0.732164	0.837057
H109	H	1.091257	-0.792408	0.864784
H110	H	1.101544	-0.739869	0.797985
H111	H	1.059099	-0.847716	0.792079
H112	H	1.019014	-0.666491	0.866715
H113	H	0.976570	-0.774332	0.860823
H114	H	0.678476	-0.642201	0.392867
H115	H	1.038083	-0.683727	1.054308
O116	O	1.035746	-1.098837	0.415957
C117	C	1.103856	-1.130317	0.400685
H118	H	1.099854	-1.211412	0.366586
H119	H	1.133681	-1.072467	0.370625
C120	C	1.148287	-1.033700	0.512553
C121	C	1.143372	-1.133307	0.470676
H122	H	1.172665	-1.035541	0.555726
H123	H	1.102401	-1.012488	0.522841
H124	H	1.173140	-0.985503	0.487495
H125	H	1.118513	-1.181499	0.495731
H126	H	1.189256	-1.154527	0.460394
O127	O	0.894366	-0.429376	0.931311
C128	C	0.858063	-0.365071	0.983564
H129	H	0.850284	-0.404514	1.032264
H130	H	0.889925	-0.286658	0.999390
C131	C	0.795428	-0.299025	0.893664
C132	C	0.785869	-0.347474	0.953476
H133	H	0.750896	-0.288165	0.875105
H134	H	0.819888	-0.342346	0.858460
H135	H	0.821982	-0.233686	0.906861
H136	H	0.759322	-0.412816	0.940277
H137	H	0.761402	-0.304163	0.988678
O138	O	0.348682	-0.691049	0.422728
C139	C	0.294554	-0.744966	0.455591
H140	H	0.245914	-0.698991	0.460072
H141	H	0.281174	-0.825470	0.422293
C142	C	0.378944	-0.813682	0.524914
C143	C	0.319206	-0.757211	0.530422
H144	H	0.394151	-0.821240	0.571072
H145	H	0.415411	-0.777361	0.502772
H146	H	0.367786	-0.880763	0.497163
H147	H	0.330367	-0.690127	0.558165
H148	H	0.282741	-0.793521	0.552571
H149	H	0.571578	-0.401643	0.246157
O150	O	0.376684	-0.438086	0.268250
C151	C	0.415632	-0.502759	0.218730
H152	H	0.419216	-0.581150	0.236892
H153	H	0.388361	-0.515747	0.164358
C154	C	0.485770	-0.353689	0.191242
C155	C	0.490178	-0.449966	0.213552
H156	H	0.531753	-0.321123	0.188045
H157	H	0.459529	-0.310116	0.224603
H158	H	0.463042	-0.364526	0.145934
H159	H	0.512898	-0.439128	0.258863
H160	H	0.516425	-0.493537	0.180199
H161	H	1.019305	-0.650439	0.592961
H162	H	0.211645	-0.672979	0.411664
H163	H	0.895716	-0.431710	1.070180
H164	H	0.704095	-0.409269	0.250806
H165	H	1.042754	-0.691990	0.920432
