data_functionalizedCrystal
_audit_creation_method	'MofGen! by Chris Wilmer'
_symmetry_space_group_name_H-M	'P1'
_symmetry_Int_Tables_number	1
_symmetry_cell_setting	triclinic
loop_
_symmetry_equiv_pos_as_xyz
  x,y,z
_cell_length_a	10.723023
_cell_length_b	10.723024
_cell_length_c	15.186229
_cell_angle_alpha	89.997422
_cell_angle_beta	89.997104
_cell_angle_gamma	84.467709
loop_
_atom_site_label
_atom_site_type_symbol
_atom_site_fract_x
_atom_site_fract_y
_atom_site_fract_z
O1	O	1.657187	0.175021	-0.073217
O2	O	1.294035	0.191775	-0.073221
O3	O	1.483988	0.001822	-0.073216
O4	O	1.467234	0.364974	-0.073222
O5	O	1.483975	0.001819	0.073242
O6	O	1.294022	0.191772	0.073237
O7	O	1.657174	0.175018	0.073240
Zn8	Zn	1.475596	0.183395	0.096492
Zn9	Zn	1.475613	0.183399	-0.096472
O10	O	1.467221	0.364972	0.073235
C11	C	1.247529	0.190555	0.000008
C12	C	1.108974	0.186908	0.000006
C13	C	1.047196	0.185280	0.075875
C14	C	0.903993	0.181510	0.075875
C15	C	1.482762	-0.044679	0.000012
C16	C	1.479114	-0.183233	0.000009
C17	C	1.585402	-0.258216	0.000009
C18	C	1.581634	-0.401420	0.000005
C19	C	1.703680	0.176239	0.000010
C20	C	1.842235	0.179886	0.000006
C21	C	1.468447	0.411473	0.000005
C22	C	1.472095	0.550027	0.000003
N23	N	1.475594	0.183392	0.228184
N24	N	1.475625	0.183392	-0.228165
C25	C	1.559734	0.099309	0.453909
C26	C	1.559738	0.099306	0.546099
C27	C	1.391476	0.267478	0.546104
C28	C	1.391467	0.267474	0.453916
C29	C	1.475603	0.183391	0.407821
C30	C	1.475616	0.183392	0.592199
C31	C	1.475619	0.183390	0.692155
C32	C	1.475598	0.183392	0.307858
H33	H	1.055848	0.185507	-0.064947
C34	C	1.691242	-0.070835	0.000019
C35	C	1.712018	-0.201772	0.000015
H36	H	1.769413	-0.035994	0.000028
H37	H	1.645132	-0.043849	-0.051052
H38	H	1.645107	-0.043862	0.051094
H39	H	1.758145	-0.228746	-0.051064
H40	H	1.758147	-0.228769	0.051091
C41	C	1.225150	0.433723	0.463173
C42	C	1.298986	0.359908	0.403248
H43	H	1.168064	0.490786	0.431890
H44	H	1.179823	0.381372	0.499135
H45	H	1.277492	0.479086	0.499124
H46	H	1.246645	0.314538	0.367301
H47	H	1.344316	0.412265	0.367271
H48	H	1.628241	0.030842	0.416381
H49	H	1.628243	0.030838	0.583622
C50	C	1.221900	0.293016	0.649800
C51	C	1.299008	0.359906	0.596779
H52	H	1.164822	0.350082	0.681087
H53	H	1.176565	0.240675	0.613844
H54	H	1.272024	0.242944	0.690438
H55	H	1.248885	0.409972	0.556136
H56	H	1.344347	0.412269	0.632738
H57	H	1.381099	-0.385548	0.000009
H58	H	1.100323	0.186670	0.140828
H59	H	0.850864	0.180118	0.140829
C60	C	0.975693	0.290833	-0.092495
C61	C	0.913940	0.181776	-0.087688
H62	H	1.019974	0.291994	-0.146631
H63	H	0.916007	0.362125	-0.089229
H64	H	1.032997	0.292329	-0.044891
H65	H	0.856629	0.180285	-0.135289
H66	H	0.973633	0.110465	-0.090963
C67	C	1.676967	-0.613419	-0.000005
C68	C	1.704477	-0.488392	0.000001
H69	H	1.752810	-0.667112	-0.000014
H70	H	1.629730	-0.628980	0.051066
H71	H	1.629721	-0.628961	-0.051081
H72	H	1.751715	-0.472848	0.051080
H73	H	1.751734	-0.472825	-0.051075
C74	C	1.343702	-0.313698	-0.075284
C75	C	1.352500	-0.239680	0.000005
H76	H	1.265536	-0.348548	-0.075282
H77	H	1.349691	-0.263467	-0.126345
H78	H	1.409905	-0.379292	-0.075276
H79	H	1.286302	-0.174080	-0.000006
H80	H	1.346499	-0.289914	0.051079
