data_functionalizedCrystal
_audit_creation_method	'MofGen! by Chris Wilmer'
_symmetry_space_group_name_H-M	'P1'
_symmetry_Int_Tables_number	1
_symmetry_cell_setting	triclinic
loop_
_symmetry_equiv_pos_as_xyz
  x,y,z
_cell_length_a	9.065218
_cell_length_b	9.065218
_cell_length_c	7.540329
_cell_angle_alpha	90.011032
_cell_angle_beta	90.003038
_cell_angle_gamma	85.015918
loop_
_atom_site_label
_atom_site_type_symbol
_atom_site_fract_x
_atom_site_fract_y
_atom_site_fract_z
O1	O	-1.960399	-0.216355	-0.147521
O2	O	-1.460399	0.283645	0.352479
O3	O	-1.531114	-0.234101	-0.147526
O4	O	-1.031114	0.265899	0.352474
O5	O	-1.754629	-0.010585	-0.147478
O6	O	-1.254629	0.489415	0.352522
O7	O	-1.736883	-0.439870	-0.147569
O8	O	-1.236883	0.060130	0.352431
O9	O	-1.754616	-0.010583	0.147487
O10	O	-1.254616	0.489417	0.647487
O11	O	-1.531100	-0.234098	0.147439
O12	O	-1.031100	0.265902	0.647439
O13	O	-1.960385	-0.216352	0.147444
O14	O	-1.460385	0.283648	0.647444
Cu15	Cu	-1.745741	-0.225225	0.174374
Cu16	Cu	-1.245741	0.274775	0.674374
Cu17	Cu	-1.745757	-0.225228	-0.174456
Cu18	Cu	-1.245757	0.274772	0.325544
O19	O	-1.736870	-0.439867	0.147396
O20	O	-1.236870	0.060133	0.647396
C21	C	-1.476120	-0.232394	-0.000044
C22	C	-0.976120	0.267606	0.499956
C23	C	-1.312277	-0.227294	-0.000044
C24	C	-0.812277	0.272706	0.499956
C25	C	-1.752917	0.044403	0.000012
C26	C	-1.252917	0.544403	0.500012
C27	C	-1.747817	0.208245	0.000035
C28	C	-1.247817	0.708245	0.500035
C29	C	-2.015378	-0.218059	-0.000043
C30	C	-1.515378	0.281941	0.499957
C31	C	-2.179221	-0.223158	-0.000054
C32	C	-1.679221	0.276842	0.499946
N33	N	-1.745741	-0.225222	0.419722
N34	N	-1.245741	0.274778	0.919722
C35	C	-1.738582	0.505145	-0.000050
C36	C	-1.238582	1.005145	0.499950
C37	C	-1.743681	0.341302	0.000061
C38	C	-1.243681	0.841302	0.500061
N39	N	-1.745769	-0.225220	-0.419805
N40	N	-1.245769	0.274780	0.080195
