data_functionalizedCrystal
_audit_creation_method	'MofGen! by Chris Wilmer'
_symmetry_space_group_name_H-M	'P1'
_symmetry_Int_Tables_number	1
_symmetry_cell_setting	triclinic
loop_
_symmetry_equiv_pos_as_xyz
  x,y,z
_cell_length_a	13.339070
_cell_length_b	27.732048
_cell_length_c	12.376457
_cell_angle_alpha	101.176348
_cell_angle_beta	75.589755
_cell_angle_gamma	99.135974
loop_
_atom_site_label
_atom_site_type_symbol
_atom_site_fract_x
_atom_site_fract_y
_atom_site_fract_z
O1	O	1.358025	0.235161	-0.094094
O2	O	1.063992	0.203422	-0.094081
O3	O	1.220136	0.150154	-0.094066
O4	O	1.201881	0.288430	-0.094108
O5	O	1.181114	0.163448	0.093942
O6	O	1.024970	0.216716	0.093928
O7	O	1.319003	0.248455	0.093915
Zn8	Zn	1.165791	0.234696	0.123772
Zn9	Zn	1.217204	0.217181	-0.123938
O10	O	1.162859	0.301723	0.093900
C11	C	1.006875	0.204708	-0.000074
C12	C	0.894822	0.188727	-0.000068
C13	C	1.200241	0.138741	-0.000059
C14	C	1.199085	0.084928	-0.000049
C15	C	0.528098	0.312985	-0.000124
C16	C	0.633378	0.328001	-0.000133
C17	C	0.698744	0.293184	-0.000117
C18	C	0.658820	0.243348	-0.000092
C19	C	0.553531	0.228330	-0.000092
C20	C	0.724177	0.208529	-0.000084
C21	C	0.684253	0.158693	-0.000059
C22	C	0.578975	0.143677	-0.000058
C23	C	0.513609	0.178494	-0.000075
C24	C	0.829466	0.223547	-0.000084
C25	C	0.854899	0.138891	-0.000052
C26	C	0.749619	0.123875	-0.000042
C27	C	1.284103	-0.242187	-0.000111
C28	C	1.279823	-0.444437	-0.000127
O29	O	1.357565	-0.464994	-0.000180
N30	N	1.187233	-0.476309	-0.000122
C31	C	1.095708	-0.457617	-0.000120
O32	O	1.016858	-0.489367	-0.000127
C33	C	1.099990	-0.255368	-0.000112
C34	C	1.192584	-0.223497	-0.000106
C35	C	1.376689	-0.210317	-0.000106
C36	C	1.377757	-0.159757	-0.000096
C37	C	1.286238	-0.141067	-0.000091
C38	C	1.193652	-0.172937	-0.000096
C39	C	1.008468	-0.236676	-0.000119
C40	C	1.009548	-0.186111	-0.000120
C41	C	1.102141	-0.154240	-0.000114
C42	C	1.103201	-0.103687	-0.000081
N43	N	1.195791	-0.071815	-0.000086
C44	C	1.287310	-0.090505	-0.000091
C45	C	1.093465	-0.563800	-0.000122
C46	C	1.092394	-0.614362	-0.000121
C47	C	1.276510	-0.601179	-0.000130
C48	C	1.277578	-0.550616	-0.000122
C49	C	1.186055	-0.531928	-0.000127
C50	C	1.289545	0.015674	-0.000069
C51	C	1.290603	0.066238	-0.000054
C52	C	1.106489	0.053051	-0.000051
C53	C	1.105429	0.002491	-0.000060
C54	C	1.196966	-0.016195	-0.000073
O55	O	1.025503	-0.083098	-0.000041
O56	O	1.366153	-0.058748	-0.000109
C57	C	1.283035	-0.292747	-0.000121
C58	C	1.190449	-0.324617	-0.000126
C59	C	1.098930	-0.305927	-0.000121
C60	C	1.189377	-0.375179	-0.000126
C61	C	1.280896	-0.393869	-0.000131
C62	C	1.373486	-0.361997	-0.000136
C63	C	1.374554	-0.311437	-0.000126
C64	C	1.006340	-0.337799	-0.000116
C65	C	1.005279	-0.388358	-0.000125
C66	C	1.096798	-0.407048	-0.000130
C67	C	1.376121	0.247169	-0.000094
C68	C	1.488175	0.263150	-0.000107
C69	C	1.182754	0.313136	-0.000110
C70	C	1.183912	0.366948	-0.000126
N71	N	1.130710	0.246650	0.292827
N72	N	1.252293	0.205224	-0.292993
C73	C	1.333726	0.177465	0.647831
C74	C	1.358274	0.169097	0.529493
C75	C	1.301385	0.188485	0.470321
C76	C	1.219945	0.216241	0.529497
C77	C	1.195400	0.224613	0.647847
C78	C	1.163058	0.235633	0.470337
C79	C	1.081618	0.263390	0.529513
C80	C	1.057077	0.271760	0.647851
C81	C	1.113967	0.252372	0.707023
C82	C	1.187603	0.227261	0.351987
C83	C	1.049277	0.274410	0.352003
C84	C	1.024729	0.282777	0.470341
H85	H	0.784467	0.305413	-0.000127
H86	H	1.093978	0.259183	0.803384
H87	H	0.717100	0.083297	-0.000031
C88	C	0.860242	0.293488	-0.096760
C89	C	0.873337	0.278325	-0.000105
H90	H	0.887319	0.327309	-0.096766
H91	H	0.896340	0.273925	-0.162304
H92	H	0.788182	0.289520	-0.096750
H93	H	0.945398	0.282289	-0.000119
H94	H	0.837241	0.297894	0.065456
H95	H	1.031976	0.068278	-0.000043
C96	C	1.456812	0.135026	0.348082
C97	C	1.447435	0.138373	0.464449
H98	H	1.511760	0.115995	0.307929
H99	H	1.393357	0.119530	0.328931
H100	H	1.471697	0.167283	0.328467
H101	H	1.432543	0.106116	0.484066
H102	H	1.510905	0.153868	0.483608
H103	H	1.253912	0.204662	0.303816
C104	C	0.389774	0.127105	-0.096708
C105	C	0.397880	0.161988	-0.000070
H106	H	0.318327	0.116914	-0.096700
H107	H	0.422498	0.141501	-0.162263
H108	H	0.422988	0.099237	-0.096689
H109	H	0.364674	0.189857	-0.000093
H110	H	0.365142	0.147592	0.065502
H111	H	1.453157	-0.133812	-0.000096
C112	C	1.462246	-0.252697	0.096538
C113	C	1.477295	-0.230857	-0.000109
H114	H	1.524359	-0.265377	0.096536
H115	H	1.445226	-0.228615	0.162087
H116	H	1.406957	-0.278918	0.096525
H117	H	1.532580	-0.204633	-0.000092
H118	H	1.494329	-0.254941	-0.065675
H119	H	0.929871	-0.414304	-0.000120
C120	C	0.925697	0.316544	0.651762
C121	C	0.935219	0.313291	0.535397
H122	H	0.870441	0.335385	0.691923
H123	H	0.911216	0.284254	0.671161
H124	H	0.988973	0.332207	0.671122
H125	H	0.871944	0.297625	0.516035
H126	H	0.949692	0.345588	0.515990
H127	H	0.933070	-0.262618	-0.000131
C128	C	0.923548	-0.005459	-0.000062
C129	C	1.003650	-0.032544	-0.000069
H130	H	0.860719	-0.027088	-0.000085
H131	H	0.914180	0.019161	0.065507
H132	H	0.941418	0.009913	-0.065619
H133	H	0.985784	-0.047913	0.065492
H134	H	1.013018	-0.057172	-0.065645
H135	H	0.546476	0.103096	-0.000050
C136	C	0.910516	-0.622301	-0.000122
C137	C	0.990610	-0.649390	-0.000119
H138	H	0.847681	-0.643927	-0.000133
H139	H	0.901157	-0.597677	0.065439
H140	H	0.928388	-0.606935	-0.065687
H141	H	0.972742	-0.664753	0.065451
H142	H	0.999969	-0.674023	-0.065687
C143	C	0.664140	0.397937	-0.096820
C144	C	0.677244	0.382779	-0.000162
H145	H	0.691213	0.431758	-0.096834
H146	H	0.700238	0.378372	-0.162362
H147	H	0.592079	0.393966	-0.096806
H148	H	0.749306	0.386747	-0.000181
H149	H	0.641149	0.402349	0.065396
H150	H	1.002954	0.290198	0.303826
H151	H	1.380043	0.161685	0.696016
H152	H	0.474871	0.341327	-0.000148
H153	H	0.990772	0.294366	0.696033
H154	H	1.352976	-0.524669	-0.000118
H155	H	1.321375	0.181670	0.373965
C156	C	1.008119	0.099835	-0.096676
C157	C	0.926741	0.100616	-0.000032
H158	H	1.052477	0.076209	-0.096661
H159	H	0.980127	0.091098	-0.162227
H160	H	1.046953	0.131667	-0.096671
H161	H	0.887902	0.068785	-0.000041
H162	H	0.954734	0.109350	0.065536
C163	C	1.453582	-0.433659	-0.000163
C164	C	1.474087	-0.382548	-0.000150
H165	H	1.515689	-0.446348	-0.000184
H166	H	1.401986	-0.440017	0.065399
H167	H	1.429181	-0.449274	-0.065727
H168	H	1.498481	-0.366932	0.065418
H169	H	1.525701	-0.376186	-0.065719
H170	H	1.366007	0.092186	-0.000046
H171	H	0.935017	-0.170899	-0.000125
H172	H	1.449953	-0.285492	-0.000122
H173	H	1.364084	0.000466	-0.000084
H174	H	1.351028	-0.616405	-0.000134
H175	H	1.018931	-0.548590	-0.000125
H176	H	0.931813	-0.322588	-0.000114
