data_functionalizedCrystal
_audit_creation_method	'MofGen! by Chris Wilmer'
_symmetry_space_group_name_H-M	'P1'
_symmetry_Int_Tables_number	1
_symmetry_cell_setting	triclinic
loop_
_symmetry_equiv_pos_as_xyz
  x,y,z
_cell_length_a	19.805407
_cell_length_b	16.959453
_cell_length_c	19.805399
_cell_angle_alpha	89.973285
_cell_angle_beta	89.982197
_cell_angle_gamma	90.017304
loop_
_atom_site_label
_atom_site_type_symbol
_atom_site_fract_x
_atom_site_fract_y
_atom_site_fract_z
Zn1	Zn	1.034766	-0.314756	-0.382692
Zn2	Zn	1.034693	-0.446939	-0.269505
Zn3	Zn	0.921581	-0.314772	-0.269520
Zn4	Zn	0.921557	-0.446891	-0.382655
O5	O	0.978149	-0.380840	-0.326093
O6	O	1.129473	-0.332304	-0.367686
O7	O	1.019668	-0.429433	-0.174791
O8	O	0.936635	-0.204159	-0.284554
O9	O	1.129420	-0.429418	-0.284529
O10	O	1.019792	-0.204148	-0.367701
O11	O	0.936565	-0.332331	-0.174801
O12	O	0.826861	-0.332284	-0.284518
O13	O	0.936595	-0.429336	-0.477377
O14	O	0.826843	-0.429351	-0.367639
O15	O	1.019769	-0.332258	-0.477404
O16	O	1.019645	-0.557543	-0.284494
O17	O	0.936524	-0.557508	-0.367625
C18	C	0.802293	-0.380815	-0.326077
C19	C	0.727061	-0.380823	-0.326086
C20	C	0.691745	-0.330345	-0.369452
C21	C	0.621057	-0.330350	-0.369454
C22	C	0.585686	-0.380836	-0.326094
C23	C	0.621006	-0.431316	-0.282723
C24	C	0.691693	-0.431307	-0.282717
C25	C	0.335933	-0.431352	-0.282744
C26	C	0.265241	-0.431358	-0.282754
C27	C	0.265296	-0.330394	-0.369481
C28	C	0.335984	-0.330385	-0.369475
C29	C	0.371298	-0.380862	-0.326102
C30	C	0.447947	-0.380856	-0.326099
C31	C	0.509038	-0.380847	-0.326100
C32	C	0.978093	-0.586206	-0.326068
C33	C	0.978130	-0.674062	-0.326080
C34	C	1.021504	-1.045473	-0.369469
C35	C	0.934983	-1.045602	-0.282817
C36	C	0.934958	-0.963057	-0.282802
C37	C	0.978206	-0.921715	-0.326121
C38	C	1.021479	-0.962920	-0.369457
C39	C	0.891681	-0.921846	-0.239472
C40	C	0.891653	-0.839295	-0.239455
C41	C	0.934905	-0.797952	-0.282772
C42	C	0.978181	-0.839162	-0.326109
C43	C	1.021429	-0.797821	-0.369428
C44	C	1.064708	-0.839029	-0.412762
C45	C	1.064731	-0.921577	-0.412773
C46	C	0.934882	-0.715404	-0.282761
C47	C	1.021404	-0.715267	-0.369415
C48	C	1.154692	-0.380865	-0.326110
C49	C	1.229924	-0.380876	-0.326117
C50	C	0.978187	-0.380790	-0.502636
C51	C	0.978203	-0.380769	-0.577868
C52	C	0.978224	-0.174671	-0.326133
C53	C	0.978256	-0.086815	-0.326150
C54	C	1.021513	-0.330217	-0.613227
C55	C	1.021520	-0.330194	-0.683915
C56	C	0.978220	-0.380727	-0.719244
C57	C	0.934905	-0.431281	-0.683879
C58	C	0.934896	-0.431299	-0.613192
C59	C	0.934944	-0.431207	-0.968953
C60	C	0.934958	-0.431186	-1.039645
C61	C	1.021568	-0.330102	-1.039676
C62	C	1.021558	-0.330121	-0.968989
C63	C	0.978241	-0.380671	-0.933631
C64	C	0.978233	-0.380694	-0.856983
C65	C	0.978231	-0.380709	-0.795891
C66	C	0.978150	-0.380832	-0.150237
C67	C	0.978265	-0.380631	-0.075005
H68	H	0.236535	-0.289291	-0.404795
H69	H	0.364678	-0.472454	-0.247427
H70	H	0.592201	-0.472419	-0.247415
O71	O	0.892989	-0.480360	-1.073993
C72	C	0.931511	-0.531398	-1.114886
H73	H	0.984813	-0.536297	-1.093587
H74	H	0.933864	-0.506946	-1.168464
C75	C	0.832944	-0.607544	-1.142110
C76	C	0.898408	-0.613566	-1.115947
H77	H	0.812523	-0.658229	-1.142768
H78	H	0.806989	-0.573158	-1.114562
H79	H	0.834914	-0.587164	-1.186756
H80	H	0.896437	-0.633936	-1.071299
H81	H	0.924362	-0.647958	-1.143488
H82	H	0.899647	-0.472423	-0.712649
H83	H	1.056743	-1.079029	-0.404749
O84	O	0.230984	-0.480425	-0.240564
C85	C	0.277311	-0.524989	-0.202291
H86	H	0.327704	-0.492605	-0.199991
H87	H	0.284829	-0.585061	-0.226980
C88	C	0.187792	-0.576040	-0.133066
C89	C	0.249685	-0.536262	-0.130236
H90	H	0.170750	-0.582998	-0.088620
H91	H	0.156580	-0.546019	-0.158852
H92	H	0.194065	-0.626096	-0.153643
H93	H	0.243409	-0.486204	-0.109667
H94	H	0.280895	-0.566275	-0.104444
O95	O	0.849576	-0.961971	-0.197468
C96	C	0.782100	-0.941836	-0.212185
H97	H	0.778642	-0.919102	-0.266250
H98	H	0.764408	-0.893966	-0.175871
C99	C	0.741212	-1.043138	-0.137881
C100	C	0.736964	-1.015222	-0.204286
H101	H	0.713369	-1.088405	-0.133005
H102	H	0.786672	-1.056702	-0.127963
H103	H	0.726470	-1.003240	-0.107627
H104	H	0.751714	-1.055116	-0.234538
H105	H	0.691505	-1.001667	-0.214208
O106	O	0.892838	-0.480374	-0.934717
C107	C	0.854609	-0.524951	-0.981059
H108	H	0.882348	-0.527695	-1.031445
H109	H	0.803224	-0.495977	-0.988587
C110	C	0.810719	-0.605704	-0.891561
C111	C	0.844792	-0.609081	-0.953445
H112	H	0.804660	-0.657599	-0.874527
H113	H	0.836472	-0.575671	-0.860339
H114	H	0.767902	-0.581556	-0.897844
H115	H	0.887611	-0.633219	-0.947160
H116	H	0.819045	-0.639120	-0.984666
H117	H	1.056836	-0.288939	-1.068473
H118	H	0.899621	-0.472455	-0.584404
O119	O	1.063597	-0.281054	-0.579017
C120	C	1.101836	-0.236445	-0.625388
H121	H	1.074119	-0.233693	-0.675771
H122	H	1.153232	-0.265395	-0.632909
C123	C	1.145659	-0.155708	-0.535939
C124	C	1.111615	-0.152322	-0.597819
H125	H	1.151695	-0.103818	-0.518933
H126	H	1.119900	-0.185764	-0.504697
H127	H	1.188486	-0.179837	-0.542215
H128	H	1.068786	-0.128203	-0.591541
H129	H	1.137367	-0.122260	-0.629059
H130	H	0.720540	-0.289236	-0.404763
H131	H	0.720447	-0.472411	-0.247404
O132	O	1.106622	-0.798778	-0.454875
C133	C	1.068039	-0.751046	-0.498559
H134	H	1.016753	-0.738749	-0.474639
H135	H	1.060587	-0.782826	-0.548718
C136	C	1.168226	-0.687689	-0.540212
C137	C	1.105238	-0.672580	-0.510830
H138	H	1.191172	-0.639289	-0.547784
H139	H	1.194221	-0.719849	-0.510783
H140	H	1.162007	-0.714175	-0.582007
H141	H	1.111457	-0.646104	-0.469031
H142	H	1.079244	-0.640414	-0.540251
H143	H	1.056789	-0.289032	-0.712702
H144	H	1.056624	-0.681612	-0.404689
O145	O	1.106721	-0.961526	-0.454968
C146	C	1.091857	-0.941326	-0.522408
H147	H	1.065834	-0.881399	-0.523771
H148	H	1.057041	-0.987783	-0.545170
C149	C	1.189769	-1.011055	-0.561810
C150	C	1.157811	-0.937450	-0.563485
H151	H	1.230451	-1.008667	-0.587150
H152	H	1.199781	-1.024668	-0.516375
H153	H	1.160748	-1.049762	-0.580778
H154	H	1.186828	-0.898746	-0.544510
H155	H	1.147805	-0.923831	-0.608918
O156	O	0.892942	-1.085846	-0.240833
C157	C	0.849205	-1.133584	-0.279337
H158	H	0.873046	-1.145889	-0.330657
H159	H	0.799030	-1.101804	-0.286717
C160	C	0.807718	-1.196926	-0.179069
C161	C	0.837003	-1.212044	-0.242099
H162	H	0.800188	-1.245322	-0.156098
H163	H	0.837182	-1.164762	-0.153128
H164	H	0.765908	-1.170441	-0.185228
H165	H	0.878814	-1.238519	-0.235939
H166	H	0.807545	-1.244214	-0.268039
O167	O	1.063641	-0.280958	-0.934777
C168	C	1.101881	-0.236347	-0.981144
H169	H	1.074167	-0.233593	-1.031530
H170	H	1.153278	-0.265296	-0.988663
C171	C	1.145699	-0.155612	-0.891691
C172	C	1.111658	-0.152224	-0.953574
H173	H	1.151733	-0.103722	-0.874684
H174	H	1.119938	-0.185669	-0.860452
H175	H	1.188526	-0.179739	-0.897965
H176	H	1.068828	-0.128106	-0.947297
H177	H	1.137412	-0.122161	-0.984811
H178	H	0.364779	-0.289277	-0.404786
O179	O	0.586856	-0.281291	-0.411644
C180	C	0.633233	-0.236718	-0.449904
H181	H	0.683615	-0.269095	-0.452195
H182	H	0.640756	-0.176647	-0.425211
C183	C	0.543794	-0.185673	-0.519147
C184	C	0.605673	-0.225442	-0.521965
H185	H	0.526793	-0.178714	-0.563596
H186	H	0.512548	-0.215700	-0.493369
H187	H	0.550071	-0.135618	-0.498565
H188	H	0.599394	-0.275500	-0.542538
H189	H	0.636917	-0.195423	-0.547748
O190	O	0.849546	-0.799235	-0.197456
C191	C	0.805802	-0.751470	-0.235938
H192	H	0.801594	-0.776304	-0.289249
H193	H	0.826711	-0.688890	-0.238275
C194	C	0.740628	-0.719780	-0.137327
C195	C	0.735456	-0.750286	-0.202802
H196	H	0.697236	-0.719046	-0.116886
H197	H	0.770100	-0.751957	-0.111400
H198	H	0.758055	-0.667633	-0.139283
H199	H	0.718038	-0.802435	-0.200844
H200	H	0.705979	-0.718116	-0.228728
H201	H	0.899642	-0.681856	-0.247482
