data_functionalizedCrystal
_audit_creation_method	'MofGen! by Chris Wilmer'
_symmetry_space_group_name_H-M	'P1'
_symmetry_Int_Tables_number	1
_symmetry_cell_setting	triclinic
loop_
_symmetry_equiv_pos_as_xyz
  x,y,z
_cell_length_a	14.519709
_cell_length_b	10.489741
_cell_length_c	12.996460
_cell_angle_alpha	89.994152
_cell_angle_beta	90.000034
_cell_angle_gamma	84.109659
loop_
_atom_site_label
_atom_site_type_symbol
_atom_site_fract_x
_atom_site_fract_y
_atom_site_fract_z
O1	O	1.224780	0.167204	-0.085432
O2	O	1.474780	0.417204	0.164568
O3	O	1.724780	0.667204	0.414568
O4	O	1.974780	0.917204	0.664568
O5	O	0.956410	0.186894	-0.085464
O6	O	1.206410	0.436894	0.164536
O7	O	1.456410	0.686894	0.414536
O8	O	1.706410	0.936894	0.664536
O9	O	1.096702	-0.008613	-0.085441
O10	O	1.346702	0.241387	0.164559
O11	O	1.596702	0.491387	0.414559
O12	O	1.846702	0.741387	0.664559
O13	O	1.084488	0.362710	-0.085455
O14	O	1.334488	0.612710	0.164545
O15	O	1.584488	0.862710	0.414545
O16	O	1.834488	1.112710	0.664545
O17	O	1.096687	-0.008624	0.085693
O18	O	1.346687	0.241376	0.335693
O19	O	1.596687	0.491376	0.585693
O20	O	1.846687	0.741376	0.835693
O21	O	0.956395	0.186883	0.085670
O22	O	1.206395	0.436883	0.335670
O23	O	1.456395	0.686883	0.585670
O24	O	1.706395	0.936883	0.835670
O25	O	1.224765	0.167193	0.085702
O26	O	1.474765	0.417193	0.335702
O27	O	1.724765	0.667193	0.585702
O28	O	1.974765	0.917193	0.835702
Cu29	Cu	1.090579	0.177037	0.101312
Cu30	Cu	1.340579	0.427037	0.351312
Cu31	Cu	1.590579	0.677037	0.601312
Cu32	Cu	1.840579	0.927037	0.851312
Cu33	Cu	1.090596	0.177050	-0.101074
Cu34	Cu	1.340596	0.427050	0.148926
Cu35	Cu	1.590596	0.677050	0.398926
Cu36	Cu	1.840596	0.927050	0.648926
O37	O	1.084474	0.362699	0.085679
O38	O	1.334474	0.612699	0.335679
O39	O	1.584474	0.862699	0.585679
O40	O	1.834474	1.112699	0.835679
C41	C	0.922038	0.185971	0.000099
C42	C	1.172038	0.435971	0.250099
C43	C	1.422038	0.685971	0.500099
C44	C	1.672038	0.935971	0.750099
C45	C	0.819642	0.183221	0.000088
C46	C	1.069642	0.433221	0.250088
C47	C	1.319642	0.683221	0.500088
C48	C	1.569642	0.933221	0.750088
C49	C	0.444691	0.173098	0.000135
C50	C	0.694691	0.423098	0.250135
C51	C	0.944691	0.673098	0.500135
C52	C	1.194691	0.923098	0.750135
C53	C	0.549014	0.175909	0.000121
C54	C	0.799014	0.425909	0.250121
C55	C	1.049014	0.675909	0.500121
C56	C	1.299014	0.925909	0.750121
C57	C	0.632163	0.178159	0.000110
C58	C	0.882163	0.428159	0.250110
C59	C	1.132163	0.678159	0.500110
C60	C	1.382163	0.928159	0.750110
C61	C	0.736493	0.180971	0.000099
C62	C	0.986493	0.430971	0.250099
C63	C	1.236493	0.680971	0.500099
C64	C	1.486493	0.930971	0.750099
C65	C	1.095772	-0.056140	0.000125
C66	C	1.345772	0.193860	0.250125
C67	C	1.595772	0.443860	0.500125
C68	C	1.845772	0.693860	0.750125
C69	C	1.093012	-0.197741	0.000123
C70	C	1.343012	0.052259	0.250123
C71	C	1.593012	0.302259	0.500123
C72	C	1.843012	0.552259	0.750123
C73	C	1.003749	-0.264951	0.000105
C74	C	1.253749	-0.014951	0.250105
C75	C	1.503749	0.235049	0.500105
C76	C	1.753749	0.485049	0.750105
C77	C	1.045909	-0.357518	0.084488
C78	C	1.295909	-0.107518	0.334488
C79	C	1.545909	0.142482	0.584488
C80	C	1.795909	0.392482	0.834488
C81	C	1.045944	-0.357482	-0.084237
C82	C	1.295944	-0.107482	0.165763
C83	C	1.545944	0.142518	0.415763
C84	C	1.795944	0.392518	0.665763
C85	C	1.135209	-0.288443	0.084575
C86	C	1.385209	-0.038443	0.334575
C87	C	1.635209	0.211557	0.584575
C88	C	1.885209	0.461557	0.834575
C89	C	1.135232	-0.288398	-0.084225
C90	C	1.385232	-0.038398	0.165775
C91	C	1.635232	0.211602	0.415775
C92	C	1.885232	0.461602	0.665775
C93	C	1.177457	-0.380938	0.000178
C94	C	1.427457	-0.130938	0.250178
C95	C	1.677457	0.119062	0.500178
C96	C	1.927457	0.369062	0.750178
C97	C	1.259137	0.168116	0.000136
C98	C	1.509137	0.418116	0.250136
C99	C	1.759137	0.668116	0.500136
C100	C	2.009137	0.918116	0.750136
C101	C	1.361533	0.170866	0.000142
C102	C	1.611533	0.420866	0.250142
C103	C	1.861533	0.670866	0.500142
C104	C	2.111533	0.920866	0.750142
C105	C	1.085403	0.410227	0.000111
C106	C	1.335403	0.660227	0.250111
C107	C	1.585403	0.910227	0.500111
C108	C	1.835403	1.160227	0.750111
C109	C	1.088163	0.551828	0.000106
C110	C	1.338163	0.801828	0.250106
C111	C	1.588163	1.051828	0.500106
C112	C	1.838163	1.301828	0.750106
N113	N	1.090573	0.177027	0.243659
N114	N	1.340573	0.427027	0.493659
N115	N	1.590573	0.677027	0.743659
N116	N	1.840573	0.927027	0.993659
N117	N	1.090609	0.177049	-0.243421
N118	N	1.340609	0.427049	0.006579
N119	N	1.590609	0.677049	0.256579
N120	N	1.840609	0.927049	0.506579
C121	C	1.090595	0.177051	0.663473
C122	C	1.340595	0.427051	0.913473
C123	C	1.590595	0.677051	1.163473
C124	C	1.840595	0.927051	1.413473
C125	C	1.090586	0.177049	0.546668
C126	C	1.340586	0.427049	0.796668
C127	C	1.590586	0.677049	1.046668
C128	C	1.840586	0.927049	1.296668
C129	C	1.090585	0.177040	0.453570
C130	C	1.340585	0.427040	0.703570
C131	C	1.590585	0.677040	0.953570
C132	C	1.840585	0.927040	1.203570
C133	C	1.090575	0.177036	0.336757
C134	C	1.340575	0.427036	0.586757
C135	C	1.590575	0.677036	0.836757
C136	C	1.840575	0.927036	1.086757
H137	H	1.008133	-0.388140	0.155819
H138	H	1.258133	-0.138140	0.405819
H139	H	1.508133	0.111860	0.655819
H140	H	1.758133	0.361860	0.905819
O141	O	1.274785	-0.447333	0.000255
O142	O	1.524785	-0.197333	0.250255
O143	O	1.774785	0.052667	0.500255
O144	O	2.024785	0.302667	0.750255
H145	H	1.312038	-0.418332	-0.069129
H146	H	1.562038	-0.168332	0.180871
H147	H	1.812038	0.081668	0.430871
H148	H	2.062038	0.331668	0.680871
H149	H	1.172939	-0.258009	0.155995
H150	H	1.422939	-0.008009	0.405995
H151	H	1.672939	0.241991	0.655995
H152	H	1.922939	0.491991	0.905995
H153	H	1.172975	-0.257742	-0.155560
H154	H	1.422975	-0.007742	0.094440
H155	H	1.672975	0.242258	0.344440
H156	H	1.922975	0.492258	0.594440
O157	O	0.995914	-0.397993	-0.178738
O158	O	1.245914	-0.147993	0.071262
O159	O	1.495914	0.102007	0.321262
O160	O	1.745914	0.352007	0.571262
H161	H	0.923829	-0.351074	-0.178561
H162	H	1.173829	-0.101074	0.071439
H163	H	1.423829	0.148926	0.321439
H164	H	1.673829	0.398926	0.571439
H165	H	0.930357	-0.214534	0.000181
H166	H	1.180357	0.035466	0.250181
H167	H	1.430357	0.285466	0.500181
H168	H	1.680357	0.535466	0.750181
