data_functionalizedCrystal
_audit_creation_method	'MofGen! by Chris Wilmer'
_symmetry_space_group_name_H-M	'P1'
_symmetry_Int_Tables_number	1
_symmetry_cell_setting	triclinic
loop_
_symmetry_equiv_pos_as_xyz
  x,y,z
_cell_length_a	10.723024
_cell_length_b	10.723024
_cell_length_c	9.798715
_cell_angle_alpha	90.001978
_cell_angle_beta	90.003391
_cell_angle_gamma	84.467869
loop_
_atom_site_label
_atom_site_type_symbol
_atom_site_fract_x
_atom_site_fract_y
_atom_site_fract_z
O1	O	1.657187	0.175024	0.113478
O2	O	1.294035	0.191778	0.113483
O3	O	1.483988	0.001825	0.113475
O4	O	1.467234	0.364977	0.113486
O5	O	1.483974	0.001824	-0.113507
O6	O	1.294021	0.191777	-0.113499
O7	O	1.657173	0.175024	-0.113504
Zn8	Zn	1.475595	0.183401	-0.149540
Zn9	Zn	1.475613	0.183401	0.149519
O10	O	1.467220	0.364977	-0.113496
C11	C	1.247528	0.190558	-0.000008
C12	C	1.108974	0.186911	-0.000006
C13	C	1.482762	-0.044675	-0.000014
C14	C	1.479114	-0.183229	-0.000009
C15	C	1.033991	0.293198	-0.000002
C16	C	0.890788	0.289431	-0.000001
C17	C	1.585401	-0.258212	-0.000009
C18	C	1.581634	-0.401415	-0.000004
C19	C	1.703680	0.176243	-0.000010
C20	C	1.842234	0.179891	-0.000003
C21	C	1.468447	0.411477	-0.000004
C22	C	1.472094	0.550031	0.000000
N23	N	1.475591	0.183399	-0.353640
C24	C	1.555347	0.103292	-0.421420
C25	C	1.555367	0.103288	-0.578582
N26	N	1.475627	0.183393	0.353619
H27	H	0.826355	0.380421	0.000008
C28	C	1.647618	0.010630	-0.657314
C29	C	1.739944	-0.082198	-0.578893
C30	C	1.832198	-0.174859	-0.657628
C31	C	1.832127	-0.174692	-0.814785
C32	C	1.739798	-0.081860	-0.893215
C33	C	1.647543	0.010801	-0.814480
H34	H	1.740000	-0.082325	-0.462549
H35	H	1.900547	-0.243579	-0.599568
H36	H	1.900419	-0.243285	-0.873069
H37	H	1.739741	-0.081733	-1.009559
H38	H	1.579195	0.079521	-0.872540
H39	H	1.385328	-0.225051	0.000001
H40	H	1.672624	-0.465848	-0.000009
C41	C	1.349158	-0.362943	-0.000001
C42	C	1.320404	-0.269589	0.117862
C43	C	1.197468	-0.182553	0.117862
C44	C	1.103286	-0.188869	-0.000002
C45	C	1.132037	-0.282227	-0.117874
C46	C	1.254973	-0.369263	-0.117873
H47	H	1.390125	-0.264910	0.205120
H48	H	1.176185	-0.113443	0.205119
H49	H	1.012281	-0.124439	-0.000003
H50	H	1.062316	-0.286906	-0.205132
H51	H	1.276256	-0.438372	-0.205130
C52	C	1.383372	0.276054	-0.567658
C53	C	1.288099	0.226635	-0.468590
C54	C	1.195845	0.319296	-0.389854
C55	C	1.198863	0.461375	-0.410188
C56	C	1.294140	0.510801	-0.509261
C57	C	1.386395	0.418140	-0.587996
H58	H	1.285861	0.121453	-0.453534
H59	H	1.125314	0.282707	-0.316514
H60	H	1.130571	0.529969	-0.351903
H61	H	1.296378	0.615983	-0.524316
H62	H	1.456925	0.454729	-0.661336
H63	H	1.623611	0.034707	-0.363100
C64	C	1.052490	0.060204	-0.000009
C65	C	0.966753	0.026731	-0.117874
C66	C	0.910273	-0.099980	-0.117877
C67	C	0.939530	-0.193219	-0.000014
C68	C	1.025272	-0.159749	0.117860
C69	C	1.081752	-0.033037	0.117863
H70	H	0.945091	0.095754	-0.205131
H71	H	0.846801	-0.124757	-0.205136
H72	H	0.897720	-0.287019	-0.000017
H73	H	1.046934	-0.228772	0.205117
H74	H	1.145223	-0.008261	0.205122
H75	H	0.906659	0.088896	0.000002
H76	H	1.075814	0.386984	-0.000007
H77	H	1.679187	-0.216390	-0.000018
H78	H	1.407319	0.251975	-0.411961
