data_functionalizedCrystal
_audit_creation_method	'MofGen! by Chris Wilmer'
_symmetry_space_group_name_H-M	'P1'
_symmetry_Int_Tables_number	1
_symmetry_cell_setting	triclinic
loop_
_symmetry_equiv_pos_as_xyz
  x,y,z
_cell_length_a	14.908780
_cell_length_b	14.908520
_cell_length_c	14.908694
_cell_angle_alpha	83.255478
_cell_angle_beta	96.797826
_cell_angle_gamma	96.789949
loop_
_atom_site_label
_atom_site_type_symbol
_atom_site_fract_x
_atom_site_fract_y
_atom_site_fract_z
Zn1	Zn	-1.396257	0.313858	-0.608918
Zn2	Zn	-0.896257	0.813858	-0.108918
Zn3	Zn	-1.379587	0.457411	-0.465375
Zn4	Zn	-0.879587	0.957411	0.034625
Zn5	Zn	-1.236152	0.313877	-0.448820
Zn6	Zn	-0.736152	0.813877	0.051180
Zn7	Zn	-1.236113	0.473894	-0.608841
Zn8	Zn	-0.736113	0.973894	-0.108841
O9	O	-1.312027	0.389760	-0.532988
O10	O	-0.812027	0.889760	-0.032988
O11	O	-1.521094	0.325994	-0.596837
O12	O	-1.021094	0.825994	-0.096837
O13	O	-1.353599	0.431481	-0.336136
O14	O	-0.853599	0.931481	0.163864
O15	O	-1.264383	0.186829	-0.463161
O16	O	-0.764383	0.686829	0.036839
O17	O	-1.508847	0.431462	-0.491377
O18	O	-1.008847	0.931462	0.008623
O19	O	-1.382011	0.186815	-0.580784
O20	O	-0.882011	0.686815	-0.080784
O21	O	-1.248219	0.326027	-0.323973
O22	O	-0.748219	0.826027	0.176027
O23	O	-1.109098	0.342010	-0.463086
O24	O	-0.609098	0.842010	0.036914
O25	O	-1.264317	0.459555	-0.735894
O26	O	-0.764317	0.959555	-0.235894
O27	O	-1.109070	0.459574	-0.580653
O28	O	-0.609070	0.959574	-0.080653
O29	O	-1.381974	0.341977	-0.735950
O30	O	-0.881974	0.841977	-0.235950
O31	O	-1.353562	0.586643	-0.491302
O32	O	-0.853562	1.086643	0.008698
O33	O	-1.248153	0.598753	-0.596706
O34	O	-0.748153	1.098753	-0.096706
C35	C	-1.076142	0.402583	-0.520066
C36	C	-0.576142	0.902583	-0.020066
C37	C	-0.975229	0.408092	-0.514560
C38	C	-0.475229	0.908092	-0.014560
C39	C	-0.798355	0.308789	-0.614216
C40	C	-0.298355	0.808789	-0.114216
C41	C	-0.703539	0.313962	-0.609045
C42	C	-0.203539	0.813962	-0.109045
C43	C	-0.690778	0.423606	-0.499044
C44	C	-0.190778	0.923606	0.000956
C45	C	-0.785594	0.418433	-0.504215
C46	C	-0.285594	0.918433	-0.004215
C47	C	-0.839380	0.361024	-0.561803
C48	C	-0.339380	0.861024	-0.061803
C49	C	-0.934198	0.355856	-0.566978
C50	C	-0.434198	0.855856	-0.066978
C51	C	-0.921435	0.465495	-0.456973
C52	C	-0.421435	0.965495	0.043027
C53	C	-0.826619	0.470668	-0.451802
C54	C	-0.326619	0.970668	0.048198
C55	C	-1.299070	0.625639	-0.545814
C56	C	-0.799070	1.125639	-0.045814
C57	C	-1.293611	0.726546	-0.551335
C58	C	-0.793611	1.226546	-0.051335
C59	C	-1.325001	0.402602	-0.769784
C60	C	-0.825001	0.902602	-0.269784
C61	C	-1.330529	0.408075	-0.870692
C62	C	-0.830529	0.908075	-0.370692
C63	C	-0.548834	0.376879	-0.545955
C64	C	-0.048834	0.876879	-0.045955
C65	C	-0.649747	0.371370	-0.551463
C66	C	-0.149747	0.871370	-0.051463
C67	C	-1.325061	0.152960	-0.520134
C68	C	-0.825061	0.652960	-0.020134
C69	C	-1.330615	0.052049	-0.514657
C70	C	-0.830615	0.552049	-0.014657
C71	C	-1.393241	0.903489	-0.452054
C72	C	-0.893241	1.403489	0.047946
C73	C	-1.388116	0.998300	-0.457239
C74	C	-0.888116	1.498300	0.042761
C75	C	-1.278239	1.010981	-0.566895
C76	C	-0.778239	1.510981	-0.066895
C77	C	-1.283365	0.916170	-0.561710
C78	C	-0.783365	1.416170	-0.061710
C79	C	-1.340867	0.862427	-0.504286
C80	C	-0.840867	1.362427	-0.004286
C81	C	-1.345987	0.767615	-0.499097
C82	C	-0.845987	1.267615	0.000903
C83	C	-1.236116	0.780297	-0.608757
C84	C	-0.736116	1.280297	-0.108757
C85	C	-1.230991	0.875108	-0.613942
C86	C	-0.730991	1.375108	-0.113942
C87	C	-1.231163	0.308553	-1.047644
C88	C	-0.731163	0.808553	-0.547644
C89	C	-1.236355	0.313692	-1.142456
C90	C	-0.736355	0.813692	-0.642456
C91	C	-1.346098	0.423497	-1.155129
C92	C	-0.846098	0.923497	-0.655129
C93	C	-1.340907	0.418358	-1.060317
C94	C	-0.840907	0.918358	-0.560317
C95	C	-1.283438	0.360883	-1.006578
C96	C	-0.783438	0.860883	-0.506578
C97	C	-1.278252	0.355739	-0.911764
C98	C	-0.778252	0.855739	-0.411764
C99	C	-1.387990	0.465548	-0.924439
C100	C	-0.887990	0.965548	-0.424439
C101	C	-1.393182	0.470688	-1.019251
C102	C	-0.893182	0.970688	-0.519251
C103	C	-1.299160	0.376899	-0.297113
C104	C	-0.799160	0.876899	0.202887
C105	C	-1.293821	0.371161	-0.196202
C106	C	-0.793821	0.871161	0.303798
H107	H	-0.782814	0.517406	-0.404913
H108	H	-0.282814	1.017406	0.095087
Br109	Br	-0.977116	0.536399	-0.385847
Br110	Br	-0.477116	1.036399	0.114153
Br111	Br	-0.617769	0.501498	-0.420880
Br112	Br	-0.117769	1.001498	0.079120
H113	H	-0.977989	0.309111	-0.613871
H114	H	-0.477989	0.809111	-0.113871
Br115	Br	-1.459203	1.054025	-0.386354
Br116	Br	-0.959203	1.554025	0.113646
Br117	Br	-1.165401	0.242676	-1.198187
Br118	Br	-0.665401	0.742676	-0.698187
H119	H	-1.184177	0.918878	-0.660697
H120	H	-0.684177	1.418878	-0.160697
Br121	Br	-0.871354	0.230891	-0.692381
Br122	Br	-0.371354	0.730891	-0.192381
Br123	Br	-0.647864	0.243064	-0.680175
Br124	Br	-0.147864	0.743064	-0.180175
Br125	Br	-1.471165	0.548691	-1.092191
Br126	Br	-0.971165	1.048691	-0.592191
H127	H	-1.430560	0.508156	-0.890994
H128	H	-0.930560	1.008156	-0.390994
H129	H	-1.392806	0.723858	-0.452337
H130	H	-0.892806	1.223858	0.047663
Br131	Br	-1.200223	1.083932	-0.644837
Br132	Br	-0.700223	1.583932	-0.144837
Br133	Br	-1.471259	0.830548	-0.374107
Br134	Br	-0.971259	1.330548	0.125893
Br135	Br	-1.424067	0.501509	-1.228076
Br136	Br	-0.924067	1.001509	-0.728076
Br137	Br	-1.165016	0.724566	-0.679632
Br138	Br	-0.665016	1.224566	-0.179632
Br139	Br	-1.153187	0.230541	-0.974708
Br140	Br	-0.653187	0.730541	-0.474708
Br141	Br	-1.200265	0.277735	-0.838833
Br142	Br	-0.700265	0.777735	-0.338833
