data_functionalizedCrystal
_audit_creation_method	'MofGen! by Chris Wilmer'
_symmetry_space_group_name_H-M	'P1'
_symmetry_Int_Tables_number	1
_symmetry_cell_setting	triclinic
loop_
_symmetry_equiv_pos_as_xyz
  x,y,z
_cell_length_a	12.759401
_cell_length_b	12.645330
_cell_length_c	12.759393
_cell_angle_alpha	90.030830
_cell_angle_beta	90.018496
_cell_angle_gamma	90.012546
loop_
_atom_site_label
_atom_site_type_symbol
_atom_site_fract_x
_atom_site_fract_y
_atom_site_fract_z
Zn1	Zn	1.606272	-0.421972	0.593987
Zn2	Zn	1.606174	-0.599276	0.418309
Zn3	Zn	1.430574	-0.422028	0.418326
Zn4	Zn	1.430570	-0.599195	0.593951
O5	O	1.518398	-0.510618	0.506143
O6	O	1.753280	-0.445503	0.570691
O7	O	1.582841	-0.575821	0.271290
O8	O	1.453924	-0.273673	0.441650
O9	O	1.753208	-0.575767	0.441621
O10	O	1.583009	-0.273632	0.570707
O11	O	1.453828	-0.445598	0.271303
O12	O	1.283553	-0.445518	0.441615
O13	O	1.453917	-0.575628	0.740976
O14	O	1.283550	-0.575682	0.570646
O15	O	1.583004	-0.445424	0.741003
O16	O	1.582836	-0.747613	0.441586
O17	O	1.453821	-0.747553	0.570629
C18	C	1.245430	-0.510598	0.506129
C19	C	1.128654	-0.510615	0.506148
C20	C	1.073817	-0.578500	0.573223
C21	C	0.964093	-0.578514	0.573234
C22	C	0.964051	-0.442755	0.439086
C23	C	1.073773	-0.442737	0.439081
C24	C	1.073841	-0.656883	0.650669
C25	C	0.964117	-0.656896	0.650680
C26	C	1.518346	-0.786047	0.506125
C27	C	1.518420	-0.903877	0.506152
C28	C	1.599677	-0.948753	0.425041
C29	C	1.599490	-1.071313	0.424752
C30	C	1.407703	-1.071887	0.476406
C31	C	1.408120	-0.949289	0.475788
C32	C	1.547024	-0.948947	0.617273
C33	C	1.549520	-1.071552	0.616710
C34	C	1.792431	-0.510638	0.506158
C35	C	1.909207	-0.510647	0.506164
C36	C	1.518471	-0.510511	0.780177
C37	C	1.518502	-0.510465	0.896953
C38	C	1.518478	-0.234112	0.506185
C39	C	1.518512	-0.116282	0.506202
C40	C	1.518385	-0.510648	0.233176
C41	C	1.518557	-0.510395	0.116400
C42	C	1.585728	-0.442661	0.951831
C43	C	1.585753	-0.442623	1.061555
C44	C	1.451324	-0.578202	1.061514
C45	C	1.451295	-0.578234	0.951792
C46	C	1.663342	-0.364389	0.951855
C47	C	1.663367	-0.364351	1.061579
H48	H	0.934324	-0.738980	0.628749
H49	H	1.494704	-1.102157	0.680373
C50	C	0.904654	-0.368950	0.366229
C51	C	0.976166	-0.309478	0.307503
C52	C	0.921490	-0.241467	0.240384
H53	H	0.861825	-0.409333	0.320294
H54	H	0.861895	-0.322756	0.406479
H55	H	1.018907	-0.355665	0.267257
H56	H	1.018997	-0.269072	0.353412
H57	H	0.878731	-0.195274	0.280634
H58	H	0.878663	-0.281860	0.194456
H59	H	0.970003	-0.201101	0.200538
H60	H	1.345536	-1.101017	0.533682
H61	H	1.580560	-1.100727	0.342430
H62	H	1.396604	-0.633374	1.106178
H63	H	1.383919	-0.920782	0.394569
C64	C	1.378169	-0.651661	0.892149
C65	C	1.310824	-0.591633	0.829191
C66	C	1.243434	-0.659236	0.774241
H67	H	1.418204	-0.697891	0.849248
H68	H	1.338085	-0.691999	0.940488
H69	H	1.350904	-0.551312	0.780858
H70	H	1.270766	-0.545405	0.872065
H71	H	1.203350	-0.699574	0.822580
H72	H	1.283478	-0.705463	0.731347
H73	H	1.197727	-0.618517	0.731525
H74	H	1.103648	-0.634988	0.732075
H75	H	0.930118	-0.627590	0.728032
H76	H	1.626422	-0.917945	0.644427
C77	C	1.766474	-0.403598	0.906663
C78	C	1.834823	-0.429552	0.988570
C79	C	1.929841	-0.465663	0.946978
H80	H	1.754105	-0.464446	0.864758
H81	H	1.796946	-0.349626	0.864806
H82	H	1.804358	-0.483520	1.030409
H83	H	1.847223	-0.368720	1.030482
H84	H	1.960313	-0.411691	0.905121
H85	H	1.917461	-0.526508	0.905073
H86	H	1.976231	-0.483268	1.002545
H87	H	1.107858	-0.734832	0.621385
H88	H	1.681647	-1.101326	0.443362
H89	H	1.634250	-0.286344	1.095626
H90	H	1.487849	-0.919919	0.677705
C91	C	1.709450	-0.909191	0.449684
C92	C	1.706091	-0.843782	0.538193
C93	C	1.807194	-0.807300	0.560918
H94	H	1.754133	-0.967716	0.463096
H95	H	1.735621	-0.870267	0.391648
H96	H	1.679934	-0.882705	0.596216
H97	H	1.661429	-0.785242	0.524805
H98	H	1.833366	-0.768376	0.502882
H99	H	1.851869	-0.865831	0.574325
H100	H	1.804928	-0.762909	0.620967
H101	H	1.118417	-0.387451	0.384469
H102	H	1.641570	-0.282291	0.922098
H103	H	1.580955	-0.918023	0.343175
H104	H	1.345502	-0.919607	0.532313
H105	H	1.383108	-1.102680	0.396094
C106	C	1.658168	-1.110303	0.646890
C107	C	1.651870	-1.168761	0.739836
C108	C	1.751934	-1.204477	0.767673
H109	H	1.685249	-1.153803	0.592563
H110	H	1.703236	-1.051367	0.657069
H111	H	1.606819	-1.227688	0.729651
H112	H	1.624807	-1.125282	0.794183
H113	H	1.797002	-1.145541	0.777853
H114	H	1.779008	-1.247973	0.713341
H115	H	1.747676	-1.244136	0.830745
H116	H	1.744739	-0.386340	1.091358
