data_functionalizedCrystal
_audit_creation_method	'MofGen! by Chris Wilmer'
_symmetry_space_group_name_H-M	'P1'
_symmetry_Int_Tables_number	1
_symmetry_cell_setting	triclinic
loop_
_symmetry_equiv_pos_as_xyz
  x,y,z
_cell_length_a	16.625546
_cell_length_b	10.685972
_cell_length_c	10.685314
_cell_angle_alpha	90.358457
_cell_angle_beta	94.331126
_cell_angle_gamma	85.613069
loop_
_atom_site_label
_atom_site_type_symbol
_atom_site_fract_x
_atom_site_fract_y
_atom_site_fract_z
Zn1	Zn	-0.271680	-1.863525	-0.856526
Zn2	Zn	-0.395485	-1.879457	-0.646740
Zn3	Zn	-0.270145	-1.669813	-0.630671
Zn4	Zn	-0.415952	-1.653693	-0.840340
O5	O	-0.338315	-1.766622	-0.743569
O6	O	-0.280180	-2.041190	-0.842196
O7	O	-0.369651	-1.865061	-0.469065
O8	O	-0.157514	-1.695588	-0.660681
O9	O	-0.371139	-2.052895	-0.688067
O10	O	-0.158642	-1.837908	-0.826615
O11	O	-0.277564	-1.711037	-0.457259
O12	O	-0.297409	-1.492123	-0.644986
O13	O	-0.406021	-1.668113	-1.018030
O14	O	-0.404533	-1.480279	-0.799028
O15	O	-0.300025	-1.822276	-1.029922
O16	O	-0.511034	-1.849430	-0.672372
O17	O	-0.526071	-1.683562	-0.814609
C18	C	-0.353026	-1.440682	-0.718508
C19	C	-0.359340	-1.301242	-0.707816
C20	C	-0.547809	-1.766507	-0.743507
C21	C	-0.637428	-1.766570	-0.743532
C22	C	-0.965601	-1.766778	-0.743679
C23	C	-0.874293	-1.766716	-0.743641
C24	C	-0.801517	-1.766673	-0.743605
C25	C	-0.710204	-1.766613	-0.743568
C26	C	-0.128004	-1.766769	-0.743661
C27	C	-0.038381	-1.766832	-0.743700
C28	C	-0.355477	-1.741619	-1.070765
C29	C	-0.362791	-1.730965	-1.210197
C30	C	-0.323542	-1.093835	-0.768723
C31	C	-0.317232	-1.233274	-0.779427
C32	C	-0.321159	-1.791599	-0.417651
C33	C	-0.313607	-1.802497	-0.278239
H34	H	-0.276346	-1.281761	-0.848914
N35	N	-0.410618	-1.240424	-0.620609
N36	N	-0.381252	-1.173384	-0.535202
H37	H	-0.417465	-1.130432	-0.473610
N38	N	-0.253754	-1.889528	-1.217492
N39	N	-0.247691	-1.898340	-1.100512
H40	H	-0.205418	-1.959806	-1.057600
N41	N	-0.422634	-1.643907	-1.270947
N42	N	-0.428694	-1.635083	-1.387927
H43	H	-0.470956	-1.573598	-1.430834
