data_functionalizedCrystal
_audit_creation_method	'MofGen! by Chris Wilmer'
_symmetry_space_group_name_H-M	'P1'
_symmetry_Int_Tables_number	1
_symmetry_cell_setting	triclinic
loop_
_symmetry_equiv_pos_as_xyz
  x,y,z
_cell_length_a	21.606444
_cell_length_b	23.096457
_cell_length_c	21.606444
_cell_angle_alpha	89.997352
_cell_angle_beta	60.000398
_cell_angle_gamma	59.998565
loop_
_atom_site_label
_atom_site_type_symbol
_atom_site_fract_x
_atom_site_fract_y
_atom_site_fract_z
Zr1	Zr	0.677460	0.557758	-0.081222
O2	O	0.806579	0.465309	-0.180040
O3	O	0.548341	0.586100	-0.050932
O4	O	0.677462	0.586099	-0.180049
O5	O	0.677455	0.465309	0.050930
O6	O	0.677464	0.681380	-0.180053
O7	O	0.677457	0.465310	-0.050923
O8	O	0.446489	0.681381	0.050914
O9	O	0.908429	0.465308	-0.180037
O10	O	0.601450	0.669293	-0.038013
O11	O	0.601447	0.598186	0.038002
O12	O	0.753471	0.598185	-0.114017
O13	O	0.753468	0.527078	-0.038002
Zr14	Zr	0.677458	0.709719	0.081216
Zr15	Zr	0.677462	0.709720	-0.081228
Zr16	Zr	0.677456	0.557757	0.081222
Zr17	Zr	0.839900	0.557757	-0.081217
Zr18	Zr	0.515018	0.709720	0.081211
O19	O	0.806577	0.681377	0.050926
O20	O	0.806582	0.681379	-0.180048
O21	O	0.806573	0.465308	0.050935
O22	O	0.548339	0.802168	0.180034
O23	O	0.548345	0.802169	-0.050940
O24	O	0.548335	0.586099	0.180043
O25	O	0.677463	0.802168	-0.050936
O26	O	0.677456	0.681378	0.180043
O27	O	0.677454	0.586097	0.180047
O28	O	0.677461	0.802167	0.050917
O29	O	0.908432	0.586097	-0.180041
O30	O	0.446486	0.681380	0.180036
O31	O	0.446489	0.802169	0.180031
O32	O	0.446492	0.802170	0.050910
O33	O	0.908426	0.465307	-0.050915
O34	O	0.908428	0.586096	-0.050920
O35	O	0.601447	0.669292	0.114011
O36	O	0.601450	0.740399	0.037996
O37	O	0.753471	0.669291	-0.038008
O38	O	0.753468	0.598184	0.038007
C39	C	0.474271	0.633741	-0.000009
C40	C	0.405311	0.633741	-0.000012
C41	C	0.677456	0.443658	0.000005
C42	C	0.677454	0.379147	0.000007
C43	C	0.372915	0.670857	-0.039692
C44	C	0.308115	0.670859	-0.039686
C45	C	0.275716	0.633742	-0.000005
C46	C	0.308115	0.596625	0.039679
C47	C	0.372909	0.596627	0.039678
C48	C	0.046806	0.596617	0.039686
C49	C	-0.017991	0.596616	0.039682
C50	C	-0.017989	0.670849	-0.039679
C51	C	0.046806	0.670851	-0.039680
C52	C	0.079195	0.633738	0.000008
C53	C	0.149458	0.633736	0.000003
C54	C	0.205460	0.633738	-0.000005
C55	C	0.598104	0.385958	0.039673
C56	C	0.598102	0.325343	0.039677
C57	C	0.677456	0.257916	-0.000001
C58	C	0.756818	0.251107	-0.039669
C59	C	0.756817	0.311722	-0.039665
N60	N	0.736525	0.135120	-0.064577
N61	N	0.736520	0.077541	-0.064579
C62	C	0.677464	0.075283	-0.000015
N63	N	0.618399	0.132787	0.064552
N64	N	0.618401	0.190373	0.064553
C65	C	0.677466	0.192185	-0.000010
C66	C	0.598107	0.016372	0.039659
C67	C	0.598109	-0.044246	0.039664
C68	C	0.756826	-0.118483	-0.039689
C69	C	0.756822	-0.057865	-0.039687
C70	C	0.677460	0.009560	-0.000015
C71	C	0.880647	0.633737	0.000004
C72	C	0.949607	0.633736	0.000006
C73	C	0.677464	0.633740	-0.203195
C74	C	0.677465	0.633740	-0.272157
C75	C	0.677462	0.823819	-0.000010
C76	C	0.677464	0.888330	-0.000013
C77	C	0.677468	0.686231	-0.304558
C78	C	0.677462	0.686233	-0.369351
C79	C	0.677459	0.633741	-0.401745
C80	C	0.677454	0.581248	-0.369339
C81	C	0.677454	0.581249	-0.304544
C82	C	0.677453	0.581241	-0.630649
C83	C	0.677456	0.581243	-0.695450
C84	C	0.677461	0.686225	-0.695456
C85	C	0.677461	0.686227	-0.630661
C86	C	0.677451	0.633736	-0.598258
C87	C	0.677456	0.633735	-0.528001
C88	C	0.677461	0.633738	-0.472004
C89	C	0.677454	0.633737	0.203190
C90	C	0.677452	0.633737	0.272152
C91	C	0.474274	0.823821	-0.000017
C92	C	0.405315	0.888333	-0.000022
C93	C	0.474266	0.633739	0.203183
C94	C	0.405304	0.633740	0.272143
C95	C	0.474270	0.823820	0.203176
C96	C	0.405309	0.888332	0.272133
C97	C	0.880648	0.443657	-0.203181
C98	C	0.949609	0.379146	-0.272138
C99	C	0.880644	0.443656	0.000011
C100	C	0.949603	0.379144	0.000016
C101	C	0.880652	0.633738	-0.203189
C102	C	0.949614	0.633737	-0.272148
C103	C	0.372932	0.881512	-0.039707
C104	C	0.308146	0.942122	-0.039726
C105	C	0.275741	1.009553	-0.000056
C106	C	0.308131	1.016373	0.039630
C107	C	0.372920	0.955763	0.039645
C108	C	0.372919	0.670857	0.344210
C109	C	0.308131	0.670854	0.409011
C110	C	0.275725	0.633739	0.401743
C111	C	0.308117	0.596617	0.329669
C112	C	0.372908	0.596616	0.264869
C113	C	0.372926	0.955751	0.264837
C114	C	0.308139	1.016372	0.329623
C115	C	0.275732	1.009573	0.401704
C116	C	0.308121	0.942147	0.408999
C117	C	0.372911	0.881527	0.344213
C118	C	0.982000	0.311727	-0.264842
C119	C	1.046807	0.251105	-0.329629
C120	C	1.079217	0.257904	-0.401710
C121	C	1.046824	0.325330	-0.409005
C122	C	0.982022	0.385950	-0.344219
C123	C	0.981993	0.385965	0.039694
C124	C	1.046796	0.325355	0.039696
C125	C	1.079203	0.257924	0.000023
C126	C	1.046810	0.251104	-0.039660
C127	C	0.982013	0.311714	-0.039665
C128	C	0.981999	0.670860	-0.264857
C129	C	1.046787	0.670874	-0.329645
C130	C	1.079194	0.633760	-0.401725
C131	C	1.046802	0.596636	-0.409015
C132	C	0.982010	0.596627	-0.344227
H133	H	0.399293	0.701079	-0.072008
H134	H	0.281738	0.701082	-0.071996
Cl135	Cl	0.194290	1.085742	-0.000080
Cl136	Cl	0.941314	0.549946	-0.353408
Cl137	Cl	0.856577	0.166342	-0.089545
H138	H	0.677476	0.728973	-0.278189
H139	H	0.281738	1.071283	0.071928
Cl140	Cl	1.087574	0.333866	-0.499627
Cl141	Cl	0.677464	0.752223	-0.410083
Cl142	Cl	0.941269	0.303161	-0.174234
H143	H	0.399302	0.961300	0.206150
H144	H	0.399268	0.566393	0.206192
Cl145	Cl	1.160650	0.633776	-0.483166
Cl146	Cl	0.941270	0.470728	0.089570
H147	H	0.281726	0.936622	0.467696
Cl148	Cl	0.267420	0.717528	0.499609
H149	H	1.131982	0.208538	-0.454456
Cl150	Cl	0.267367	0.549963	0.320545
H151	H	0.533483	0.330890	0.071978
Cl152	Cl	0.677451	0.515249	-0.736173
Cl153	Cl	0.856584	-0.066429	-0.089560
H154	H	0.222968	0.633745	0.454513
Cl155	Cl	1.087559	0.549974	-0.499636
Cl156	Cl	0.413617	0.964351	0.089546
H157	H	0.073167	0.566400	0.072005
Cl158	Cl	1.087556	0.166329	-0.089526
H159	H	1.073153	0.701103	-0.323694
Cl160	Cl	0.941304	0.470703	-0.353405
H161	H	0.399269	0.826634	0.350165
H162	H	0.677467	0.728968	-0.604289
H163	H	0.821438	-0.173382	-0.071996
H164	H	-0.044370	0.701071	-0.071992
H165	H	0.281782	0.936556	-0.072043
Cl166	Cl	0.087535	0.717512	-0.089571
H167	H	0.222976	1.058939	0.454451
Cl168	Cl	-0.058721	0.549951	0.089572
H169	H	0.399296	0.701081	0.350142
H170	H	0.281727	0.566407	0.071993
Cl171	Cl	0.267430	1.101127	0.320435
H172	H	0.399288	0.566402	0.071988
H173	H	0.533489	-0.038694	0.071971
H174	H	1.073171	0.196210	-0.323675
H175	H	0.677465	0.728968	-0.721843
H176	H	1.131966	0.208578	0.000034
Cl177	Cl	0.498334	0.470718	0.089552
H178	H	1.073160	0.330922	0.072014
H179	H	0.399315	0.826612	-0.072020
H180	H	0.677448	0.538501	-0.604273
H181	H	0.955642	0.306150	-0.071974
H182	H	0.955623	0.701083	-0.206171
H183	H	0.821436	0.306170	-0.071964
H184	H	0.677450	0.538507	-0.278163
Cl185	Cl	0.498339	0.101136	0.089536
H186	H	0.677447	0.538509	-0.395716
