data_functionalizedCrystal
_audit_creation_method	'MofGen! by Chris Wilmer'
_symmetry_space_group_name_H-M	'P1'
_symmetry_Int_Tables_number	1
_symmetry_cell_setting	triclinic
loop_
_symmetry_equiv_pos_as_xyz
  x,y,z
_cell_length_a	14.853566
_cell_length_b	10.489741
_cell_length_c	13.330367
_cell_angle_alpha	89.995673
_cell_angle_beta	89.995295
_cell_angle_gamma	84.086794
loop_
_atom_site_label
_atom_site_type_symbol
_atom_site_fract_x
_atom_site_fract_y
_atom_site_fract_z
O1	O	1.197303	0.166520	-0.083357
O2	O	0.934955	0.186360	-0.083373
O3	O	1.072099	-0.009225	-0.083358
O4	O	1.060159	0.362105	-0.083371
O5	O	1.072079	-0.009229	0.083489
O6	O	0.934935	0.186355	0.083474
O7	O	1.197283	0.166516	0.083491
Cu8	Cu	1.066107	0.176435	0.098717
Cu9	Cu	1.066131	0.176440	-0.098599
O10	O	1.060139	0.362100	0.083476
C11	C	0.901351	0.185459	0.000048
C12	C	0.801252	0.182766	0.000042
C13	C	0.378014	0.171378	-0.090888
C14	C	0.378014	0.171374	0.091015
C15	C	0.472062	0.173903	0.091012
C16	C	0.519091	0.175171	0.000057
C17	C	0.472071	0.173911	-0.090894
C18	C	0.519088	0.175176	0.181962
C19	C	0.613142	0.177707	0.181962
C20	C	0.660173	0.178966	0.091006
C21	C	0.613147	0.177704	0.000051
C22	C	0.660176	0.178973	-0.090903
C23	C	0.613153	0.177701	-0.181859
C24	C	0.519102	0.175170	-0.181850
C25	C	0.754224	0.181497	0.090997
C26	C	0.754233	0.181505	-0.090909
C27	C	1.071187	-0.056749	0.000064
C28	C	1.068489	-0.198348	0.000062
C29	C	0.981228	-0.265508	0.000050
C30	C	1.022440	-0.358096	0.082316
C31	C	1.022480	-0.358066	-0.082182
C32	C	1.109736	-0.289071	0.082397
C33	C	1.109764	-0.289031	-0.082175
C34	C	1.151039	-0.381592	0.000112
C35	C	1.230887	0.167417	0.000067
C36	C	1.330986	0.170110	0.000066
C37	C	1.061051	0.409624	0.000051
C38	C	1.063749	0.551223	0.000046
N39	N	1.066097	0.176431	0.237498
N40	N	1.066148	0.176435	-0.237381
C41	C	1.005401	0.263011	0.710115
C42	C	1.126885	0.089860	0.710096
C43	C	1.126875	0.089856	0.605077
C44	C	1.066128	0.176432	0.552573
C45	C	1.005390	0.263012	0.605087
C46	C	1.187617	0.003286	0.552556
C47	C	1.187610	0.003279	0.447531
C48	C	1.126858	0.089850	0.395024
C49	C	1.066117	0.176433	0.447545
C50	C	1.005370	0.263010	0.395040
C51	C	0.944625	0.349587	0.447559
C52	C	0.944638	0.349584	0.552580
C53	C	1.126844	0.089854	0.290003
C54	C	1.005360	0.263011	0.290012
H55	H	0.651420	0.178739	0.256024
C56	C	0.938541	0.358249	0.232260
H57	H	0.947231	0.345851	0.162191
H58	H	0.948881	0.443401	0.249470
H59	H	0.878283	0.344230	0.249481
C60	C	0.972558	-0.399445	0.176265
H61	H	1.012371	-0.456586	0.215000
H62	H	0.921622	-0.441226	0.156489
H63	H	0.952916	-0.326021	0.215277
H64	H	0.339717	0.170350	0.165066
H65	H	0.792504	0.182545	0.165052
C66	C	1.159559	-0.247998	0.176462
H67	H	1.178662	-0.321448	0.215694
H68	H	1.119910	-0.190307	0.214915
H69	H	1.210853	-0.206915	0.156803
H70	H	1.222849	-0.431823	0.000162
H71	H	1.237071	-0.067218	0.404777
C72	C	1.159609	-0.247635	-0.176127
H73	H	1.128527	-0.270984	-0.234527
H74	H	1.219592	-0.288982	-0.176716
H75	H	1.161437	-0.157382	-0.175113
H76	H	0.985555	-0.388613	-0.151739
C77	C	0.805957	0.182905	-0.190961
H78	H	0.764479	0.181795	-0.245125
H79	H	0.849044	0.109577	-0.194744
H80	H	0.836246	0.258229	-0.194747
C81	C	0.664886	0.179104	-0.281906
H82	H	0.623415	0.177993	-0.336076
H83	H	0.707975	0.105778	-0.285683
H84	H	0.695174	0.254430	-0.285684
C85	C	0.467375	0.173788	-0.281889
H86	H	0.404625	0.172115	-0.268857
H87	H	0.489175	0.099885	-0.319264
H88	H	0.476398	0.248538	-0.319258
H89	H	0.909483	-0.215051	0.000128
C90	C	0.938589	0.358243	0.767878
H91	H	0.947294	0.345852	0.837946
H92	H	0.878332	0.344238	0.750676
H93	H	0.948935	0.443400	0.750659
C94	C	1.254429	-0.091949	0.610305
H95	H	1.290608	-0.143504	0.563988
H96	H	1.221654	-0.145127	0.651279
H97	H	1.292258	-0.045966	0.651269
H98	H	0.895167	0.420084	0.404797
C99	C	0.877834	0.444819	0.610351
H100	H	0.886550	0.432427	0.680418
H101	H	0.817574	0.430819	0.593161
H102	H	0.888182	0.529975	0.593129
H103	H	1.176348	0.019378	0.752848
H104	H	0.480789	0.174152	0.256012
H105	H	0.339725	0.170338	-0.164942
C106	C	1.193655	-0.005369	0.232237
H107	H	1.229833	-0.056932	0.278548
H108	H	1.231470	0.040614	0.191252
H109	H	1.160874	-0.058559	0.191283
