data_functionalizedCrystal
_audit_creation_method	'MofGen! by Chris Wilmer'
_symmetry_space_group_name_H-M	'P1'
_symmetry_Int_Tables_number	1
_symmetry_cell_setting	triclinic
loop_
_symmetry_equiv_pos_as_xyz
  x,y,z
_cell_length_a	10.489741
_cell_length_b	10.489741
_cell_length_c	16.176319
_cell_angle_alpha	89.993511
_cell_angle_beta	89.995299
_cell_angle_gamma	84.539174
loop_
_atom_site_label
_atom_site_type_symbol
_atom_site_fract_x
_atom_site_fract_y
_atom_site_fract_z
O1	O	1.694059	0.179971	-0.068695
O2	O	1.322863	0.196864	-0.068708
O3	O	1.516907	0.002820	-0.068696
O4	O	1.500015	0.374015	-0.068707
O5	O	1.516880	0.002807	0.068797
O6	O	1.322836	0.196851	0.068785
O7	O	1.694032	0.179958	0.068798
Cu8	Cu	1.508431	0.188404	0.081346
Cu9	Cu	1.508463	0.188419	-0.081256
O10	O	1.499987	0.374003	0.068787
C11	C	1.275318	0.195582	0.000037
C12	C	1.133688	0.191765	0.000032
C13	C	1.065548	0.068300	0.000044
C14	C	0.973435	0.126630	-0.067748
C15	C	0.973442	0.126647	0.067810
C16	C	1.043440	0.250145	-0.067815
C17	C	1.043457	0.250145	0.067804
C18	C	0.951371	0.308564	-0.000004
C19	C	1.515618	-0.044718	0.000050
C20	C	1.511801	-0.186348	0.000048
C21	C	1.388336	-0.254488	0.000038
C22	C	1.446646	-0.346617	0.067831
C23	C	1.446702	-0.346579	-0.067726
C24	C	1.570162	-0.276611	0.067898
C25	C	1.570201	-0.276564	-0.067721
C26	C	1.628600	-0.368665	0.000089
C27	C	1.741577	0.181241	0.000051
C28	C	1.883206	0.185058	0.000051
C29	C	1.501277	0.421541	0.000039
C30	C	1.505094	0.563170	0.000035
N31	N	1.508418	0.188392	0.195711
N32	N	1.508487	0.188420	-0.195621
C33	C	1.594367	0.102505	0.238981
C34	C	1.594374	0.102504	0.325528
C35	C	1.508436	0.188397	0.368804
C36	C	1.422478	0.274288	0.325528
C37	C	1.422466	0.274282	0.238983
C38	C	1.422522	0.274313	0.674557
C39	C	1.422543	0.274314	0.761108
C40	C	1.594429	0.102534	0.761101
C41	C	1.594418	0.102528	0.674556
C42	C	1.508455	0.188414	0.631288
C43	C	1.508448	0.188413	0.537444
C44	C	1.508449	0.188405	0.462646
H45	H	1.115238	-0.033196	-0.000038
C46	C	0.989740	-0.069688	-0.144988
C47	C	0.931566	0.056118	-0.145112
H48	H	0.963887	-0.113224	-0.192745
H49	H	1.080160	-0.068444	-0.145297
H50	H	0.964606	-0.112723	-0.096842
H51	H	0.956707	0.099156	-0.193255
H52	H	0.841127	0.054881	-0.144811
C53	C	1.349644	0.494410	0.647916
C54	C	1.328044	0.368733	0.627008
H55	H	1.291319	0.552705	0.618555
H56	H	1.337360	0.506688	0.705647
H57	H	1.434900	0.509075	0.633711
H58	H	1.242791	0.354065	0.641218
H59	H	1.340318	0.356450	0.569264
H60	H	1.074280	0.302350	-0.125192
H61	H	1.730204	-0.418089	0.000130
C62	C	1.145741	0.428161	0.121164
C63	C	1.085369	0.320605	0.145171
H64	H	1.171610	0.471655	0.168934
H65	H	1.218746	0.401759	0.088487
H66	H	1.087800	0.484025	0.089800
H67	H	1.143313	0.264737	0.176530
H68	H	1.012354	0.347006	0.177862
H69	H	0.901947	0.410168	-0.000044
C70	C	1.667326	-0.117572	0.787753
C71	C	1.688909	0.008108	0.808664
H72	H	1.725659	-0.175861	0.817112
H73	H	1.582083	-0.132248	0.801949
H74	H	1.679623	-0.129846	0.730015
H75	H	1.676603	0.020385	0.866402
H76	H	1.774173	0.022790	0.794473
C77	C	1.346180	0.350584	0.458198
C78	C	1.328015	0.368707	0.373096
H79	H	1.287867	0.408885	0.487561
H80	H	1.331547	0.265327	0.472390
H81	H	1.431442	0.365272	0.472359
H82	H	1.242755	0.354010	0.358934
H83	H	1.342638	0.453985	0.358898
C84	C	1.250378	-0.330193	-0.144965
C85	C	1.376177	-0.388388	-0.145102
H86	H	1.206839	-0.355996	-0.192734
H87	H	1.207344	-0.355350	-0.096835
H88	H	1.251641	-0.239764	-0.145248
H89	H	1.374914	-0.478818	-0.144813
H90	H	1.419222	-0.363240	-0.193245
H91	H	0.942453	0.074378	0.125122
H92	H	1.286824	-0.204837	0.000103
C93	C	1.349581	0.494381	0.212314
C94	C	1.327995	0.368696	0.191416
H95	H	1.291258	0.552664	0.182944
H96	H	1.337283	0.506671	0.270043
H97	H	1.434838	0.509049	0.198115
H98	H	1.242740	0.354025	0.205621
H99	H	1.340281	0.356401	0.133674
H100	H	1.394394	-0.377633	0.125142
H101	H	1.622346	-0.245784	0.125276
H102	H	1.622408	-0.245514	-0.125035
C103	C	1.764267	-0.067306	0.247676
C104	C	1.688832	0.008085	0.191416
H105	H	1.822579	-0.125605	0.218311
H106	H	1.810638	-0.013757	0.281418
H107	H	1.710741	-0.113701	0.281445
H108	H	1.742358	0.054487	0.157650
H109	H	1.642458	-0.045471	0.157659
C110	C	1.620511	-0.070840	0.422856
C111	C	1.688861	0.008095	0.373083
H112	H	1.678849	-0.129132	0.452208
H113	H	1.569345	-0.019695	0.461017
H114	H	1.566998	-0.117242	0.389095
H115	H	1.742367	0.054504	0.406845
H116	H	1.740049	-0.043057	0.334918
H117	H	1.664400	0.032591	0.639323
C118	C	1.202402	0.347037	0.787788
C119	C	1.328063	0.368722	0.808682
H120	H	1.144081	0.405313	0.817163
H121	H	1.190093	0.359335	0.730060
H122	H	1.187806	0.261759	0.801985
H123	H	1.342662	0.453998	0.794480
H124	H	1.340377	0.356435	0.866423
