data_functionalizedCrystal
_audit_creation_method	'MofGen! by Chris Wilmer'
_symmetry_space_group_name_H-M	'P1'
_symmetry_Int_Tables_number	1
_symmetry_cell_setting	triclinic
loop_
_symmetry_equiv_pos_as_xyz
  x,y,z
_cell_length_a	11.792241
_cell_length_b	10.268362
_cell_length_c	10.654550
_cell_angle_alpha	89.994874
_cell_angle_beta	95.660827
_cell_angle_gamma	90.000374
loop_
_atom_site_label
_atom_site_type_symbol
_atom_site_fract_x
_atom_site_fract_y
_atom_site_fract_z
O1	O	1.507306	0.108173	-0.172136
O2	O	1.177006	0.108204	-0.189877
O3	O	1.349751	0.108180	0.001754
O4	O	1.334562	0.108197	-0.363767
O5	O	1.349735	-0.108421	0.001762
O6	O	1.176991	-0.108397	-0.189869
O7	O	1.507291	-0.108427	-0.172128
Cu8	Cu	1.342140	-0.128189	-0.180998
Cu9	Cu	1.342158	0.127966	-0.181007
O10	O	1.334547	-0.108403	-0.363759
C11	C	1.134705	-0.000093	-0.188758
C12	C	1.008684	-0.000081	-0.185423
C13	C	0.777958	-0.000119	-0.179290
C14	C	0.906351	-0.000098	-0.182697
N15	N	1.342136	-0.308355	-0.180990
C16	C	1.342152	-0.574026	-0.181005
C17	C	1.342139	-0.426188	-0.181000
C18	C	1.549592	-0.000128	-0.173247
C19	C	1.675614	-0.000131	-0.176582
C20	C	1.348628	-0.000120	0.048553
C21	C	1.345291	-0.000118	0.187987
N22	N	1.342171	0.308132	-0.181005
C23	C	1.335670	-0.000101	-0.410558
C24	C	1.339006	-0.000095	-0.549992
C25	C	1.447000	-0.000126	0.267760
C26	C	1.443859	-0.000110	0.398772
C27	C	1.237290	-0.000082	0.370225
C28	C	1.240433	-0.000089	0.239215
C29	C	1.563653	0.075771	0.594953
C30	C	1.665367	0.075740	0.674732
C31	C	1.757569	-0.000174	0.644823
C32	C	1.748060	-0.076089	0.535139
C33	C	1.646344	-0.076069	0.455367
C34	C	1.554147	-0.000125	0.485274
C35	C	1.120646	-0.075981	0.043033
C36	C	1.018928	-0.075970	-0.036742
C37	C	0.926717	-0.000064	-0.006837
C38	C	0.936214	0.075830	0.102850
C39	C	1.037931	0.075820	0.182624
C40	C	1.130143	-0.000084	0.152711
H41	H	1.532383	-0.000147	0.226055
C42	C	1.675914	0.158261	0.793747
C43	C	1.764695	0.247999	0.788340
C44	C	1.774457	0.324018	0.897963
H45	H	1.606531	0.203614	0.800249
H46	H	1.691718	0.103595	0.865281
H47	H	1.748885	0.302658	0.716827
H48	H	1.834093	0.202681	0.781857
H49	H	1.790261	0.269352	0.969497
H50	H	1.705070	0.369362	0.904455
H51	H	1.834702	0.384905	0.894314
H52	H	1.488586	0.137605	0.619307
H53	H	1.638601	-0.137881	0.366067
C54	C	1.220664	-0.158611	0.010644
C55	C	1.188142	-0.289773	0.004460
C56	C	1.280255	-0.365928	-0.025352
H57	H	1.243270	-0.132109	-0.068598
H58	H	1.282603	-0.147817	0.073878
H59	H	1.126224	-0.300561	-0.058770
H60	H	1.165548	-0.316315	0.083689
H61	H	1.342194	-0.355133	0.037882
H62	H	1.302854	-0.339414	-0.104592
H63	H	1.258205	-0.454930	-0.029540
H64	H	1.045664	0.137637	0.271928
C65	C	0.836210	0.158288	0.135578
C66	C	0.866290	0.224724	0.248727
C67	C	0.774186	0.300677	0.278921
H68	H	0.816946	0.219410	0.070002
H69	H	0.772591	0.103610	0.144905
H70	H	0.929889	0.279397	0.239391
H71	H	0.885542	0.163633	0.314327
H72	H	0.710567	0.245999	0.288249
H73	H	0.754929	0.361791	0.213338
H74	H	0.794578	0.345753	0.355701
H75	H	0.843888	-0.000080	-0.071792
C76	C	1.123529	0.000138	0.426022
C77	C	1.115712	0.111559	0.500417
C78	C	1.010938	0.111793	0.551849
H79	H	1.063304	0.000212	0.359878
H80	H	1.117994	-0.075355	0.476614
H81	H	1.121237	0.187033	0.449828
H82	H	1.175913	0.111510	0.566582
H83	H	1.005402	0.036300	0.602441
H84	H	0.950721	0.111863	0.485697
H85	H	1.005624	0.187384	0.602341
C86	C	1.848311	-0.158392	0.502865
C87	C	1.939433	-0.142140	0.596186
C88	C	2.031809	-0.217925	0.566486
H89	H	1.826570	-0.247478	0.498622
H90	H	1.870918	-0.131718	0.423658
H91	H	1.916829	-0.168821	0.675371
H92	H	1.961208	-0.053070	0.600443
H93	H	2.054416	-0.191251	0.487280
H94	H	2.010057	-0.307006	0.562243
H95	H	2.093650	-0.206898	0.629793
C96	C	1.008464	-0.158548	-0.155719
C97	C	0.919743	-0.248361	-0.150295
C98	C	0.910078	-0.324457	-0.259867
H99	H	0.992645	-0.103982	-0.227303
H100	H	1.077912	-0.203832	-0.162130
H101	H	0.850310	-0.203080	-0.143898
H102	H	0.935539	-0.302956	-0.078735
H103	H	0.979526	-0.369742	-0.266278
H104	H	0.894263	-0.269881	-0.331442
H105	H	0.849888	-0.385412	-0.256196
H106	H	1.840387	-0.000198	0.709788
