data_functionalizedCrystal
_audit_creation_method	'MofGen! by Chris Wilmer'
_symmetry_space_group_name_H-M	'P1'
_symmetry_Int_Tables_number	1
_symmetry_cell_setting	triclinic
loop_
_symmetry_equiv_pos_as_xyz
  x,y,z
_cell_length_a	19.805407
_cell_length_b	16.959454
_cell_length_c	19.805399
_cell_angle_alpha	90.021432
_cell_angle_beta	89.980427
_cell_angle_gamma	89.977065
loop_
_atom_site_label
_atom_site_type_symbol
_atom_site_fract_x
_atom_site_fract_y
_atom_site_fract_z
Zn1	Zn	1.034752	0.314700	-0.382749
Zn2	Zn	1.034674	0.446882	-0.269572
Zn3	Zn	0.921567	0.314722	-0.269573
Zn4	Zn	0.921537	0.446840	-0.382719
O5	O	0.978132	0.380786	-0.326153
O6	O	1.129458	0.332243	-0.367748
O7	O	1.019649	0.429378	-0.174856
O8	O	0.936626	0.204108	-0.284599
O9	O	1.129401	0.429356	-0.284598
O10	O	1.019783	0.204092	-0.367748
O11	O	0.936550	0.332280	-0.174856
O12	O	0.826846	0.332239	-0.284570
O13	O	0.936576	0.429285	-0.477440
O14	O	0.826824	0.429306	-0.367698
O15	O	1.019754	0.332202	-0.477461
O16	O	1.019621	0.557488	-0.284569
O17	O	0.936500	0.557457	-0.367697
C18	C	0.802276	0.380771	-0.326131
C19	C	0.727044	0.380783	-0.326138
C20	C	0.691707	0.431402	-0.369353
C21	C	0.621018	0.431404	-0.369362
C22	C	0.585669	0.380790	-0.326153
C23	C	0.621012	0.330165	-0.282937
C24	C	0.691699	0.330160	-0.282931
C25	C	0.335938	0.330183	-0.282959
C26	C	0.265246	0.330193	-0.282967
C27	C	0.265258	0.431426	-0.369390
C28	C	0.335945	0.431421	-0.369385
C29	C	0.371281	0.380794	-0.326171
C30	C	0.447930	0.380792	-0.326162
C31	C	0.509022	0.380795	-0.326158
C32	C	0.978067	0.586152	-0.326145
C33	C	0.978101	0.674009	-0.326164
C34	C	0.934886	1.045498	-0.369443
C35	C	1.021511	1.045470	-0.282951
C36	C	1.021491	0.962925	-0.282944
C37	C	0.978167	0.921662	-0.326186
C38	C	0.934863	0.962945	-0.369436
C39	C	1.064789	0.921635	-0.239690
C40	C	1.064770	0.839085	-0.239681
C41	C	1.021449	0.797820	-0.282927
C42	C	0.978144	0.839108	-0.326179
C43	C	0.934820	0.797845	-0.369421
C44	C	0.891518	0.839132	-0.412676
C45	C	0.891542	0.921680	-0.412682
C46	C	1.021425	0.715272	-0.282922
C47	C	0.934797	0.715292	-0.369413
C48	C	1.154675	0.380802	-0.326176
C49	C	1.229907	0.380808	-0.326185
C50	C	0.978170	0.380736	-0.502696
C51	C	0.978187	0.380715	-0.577928
C52	C	0.978206	1.174618	-0.326180
C53	C	0.978210	1.086761	-0.326201
C54	C	1.021499	0.330161	-0.613285
C55	C	1.021506	0.330138	-0.683973
C56	C	0.978203	0.380674	-0.719304
C57	C	0.934887	0.431230	-0.683942
C58	C	0.934877	0.431248	-0.613255
C59	C	0.934925	0.431156	-0.969016
C60	C	0.934939	0.431135	-1.039708
C61	C	1.021554	0.330046	-1.039734
C62	C	1.021544	0.330065	-0.969047
C63	C	0.978225	0.380617	-0.933691
C64	C	0.978217	0.380641	-0.857043
C65	C	0.978214	0.380655	-0.795951
C66	C	0.978134	0.380779	-0.150297
C67	C	0.978248	0.380577	-0.075066
H68	H	0.592249	0.472623	-0.404551
H69	H	1.100029	0.805474	-0.204461
C70	C	0.730047	0.486258	-0.416381
C71	C	0.712898	0.469133	-0.483375
C72	C	0.748209	0.519642	-0.526719
H73	H	0.718472	0.539381	-0.406491
H74	H	0.777214	0.479001	-0.410235
H75	H	0.665742	0.476397	-0.489518
H76	H	0.724475	0.416019	-0.493286
H77	H	0.795376	0.512385	-0.520574
H78	H	0.736631	0.572762	-0.516823
H79	H	0.736583	0.508025	-0.572180
H80	H	0.899632	1.079117	-0.404663
H81	H	1.100056	0.955238	-0.204480
H82	H	0.720470	0.288937	-0.247745
C83	C	0.887944	0.486066	-0.722421
C84	C	0.897235	0.475247	-0.791894
C85	C	0.854010	0.525758	-0.827360
H86	H	0.842443	0.474546	-0.710911
H87	H	0.897832	0.539196	-0.710870
H88	H	0.887342	0.422129	-0.803441
H89	H	0.942728	0.486773	-0.803424
H90	H	0.863898	0.578888	-0.815809
H91	H	0.808511	0.514234	-0.815845
H92	H	0.860312	0.518430	-0.874501
H93	H	1.056678	0.681660	-0.247700
C94	C	0.226987	0.275146	-0.236029
C95	C	0.273062	0.230791	-0.198197
C96	C	0.237842	0.180071	-0.154960
H97	H	0.199389	0.305250	-0.206435
H98	H	0.199446	0.240711	-0.261963
H99	H	0.300591	0.265222	-0.172265
H100	H	0.300661	0.200671	-0.227773
H101	H	0.210301	0.145636	-0.180894
H102	H	0.210246	0.210181	-0.125370
H103	H	0.269099	0.149965	-0.129290
H104	H	0.364701	0.288965	-0.247767
H105	H	0.592224	0.288951	-0.247758
C106	C	1.068595	0.275422	-0.574892
C107	C	1.111967	0.320188	-0.534325
C108	C	1.155365	0.269786	-0.498956
H109	H	1.042789	0.240973	-0.547262
H110	H	1.094429	0.245323	-0.606053
H111	H	1.086135	0.350275	-0.503167
H112	H	1.137787	0.354635	-0.561938
H113	H	1.181199	0.239686	-0.530117
H114	H	1.129554	0.235340	-0.471330
H115	H	1.184802	0.300153	-0.471432
C116	C	0.844523	0.794426	-0.459735
C117	C	0.859219	0.814461	-0.526720
C118	C	0.815938	0.773297	-0.570087
H119	H	0.850671	0.739340	-0.453622
H120	H	0.799042	0.808013	-0.449834
H121	H	0.904689	0.800868	-0.536618
H122	H	0.853067	0.869540	-0.532855
H123	H	0.770457	0.786884	-0.560186
H124	H	0.822090	0.718213	-0.563968
H125	H	0.825900	0.786890	-0.615541
C126	C	0.844637	0.966609	-0.459675
C127	C	0.882945	1.013965	-0.503083
C128	C	0.839758	1.055376	-0.546373
H129	H	0.818814	0.930306	-0.485494
H130	H	0.815182	0.998893	-0.433771
H131	H	0.912387	0.981683	-0.528984
H132	H	0.908766	1.050282	-0.477283
H133	H	0.810304	1.087660	-0.520470
H134	H	0.813938	1.019067	-0.572188
H135	H	0.865744	1.087517	-0.575827
H136	H	0.899520	0.681701	-0.404629
C137	C	0.887836	0.486234	-0.574987
C138	C	0.849932	0.530507	-0.621056
C139	C	0.806598	0.581179	-0.585830
H140	H	0.858291	0.456098	-0.547404
H141	H	0.913702	0.520723	-0.547432
H142	H	0.824068	0.496023	-0.648600
H143	H	0.879460	0.560659	-0.648641
H144	H	0.832465	0.615667	-0.558274
H145	H	0.777057	0.551037	-0.558247
H146	H	0.780880	0.611229	-0.617082
C147	C	1.068608	0.275224	-0.722238
C148	C	1.106544	0.230992	-0.676168
C149	C	1.149950	0.180402	-0.711392
H150	H	1.042813	0.240701	-0.749814
H151	H	1.098125	0.305442	-0.749801
H152	H	1.077031	0.200776	-0.648616
H153	H	1.132353	0.265494	-0.648590
H154	H	1.179466	0.210619	-0.738955
H155	H	1.124149	0.145883	-0.738967
H156	H	1.175699	0.150389	-0.680139
C157	C	1.068694	0.275249	-1.078086
C158	C	1.135653	0.292488	-1.060917
C159	C	1.179098	0.242036	-1.096238
H160	H	1.058900	0.222115	-1.066532
H161	H	1.062544	0.282478	-1.125251
H162	H	1.141800	0.285253	-1.013762
H163	H	1.145469	0.345614	-1.072472
H164	H	1.172948	0.249265	-1.143403
H165	H	1.169297	0.188904	-1.084681
H166	H	1.224534	0.253731	-1.084598
C167	C	0.887845	0.486031	-1.077947
C168	C	0.849891	0.530292	-1.031856
C169	C	0.806498	0.580859	-1.067056
H170	H	0.913650	0.520539	-1.105524
H171	H	0.858338	0.455797	-1.105507
H172	H	0.879394	0.560524	-1.004307
H173	H	0.824073	0.495805	-1.004277
H174	H	0.776992	0.550625	-1.094616
H175	H	0.832308	0.615361	-1.094632
H176	H	0.780737	0.610891	-1.035789
H177	H	1.056779	1.079072	-0.247742
H178	H	1.056807	0.288916	-0.940284
H179	H	0.236478	0.472646	-0.404580
C180	C	0.374201	0.486403	-0.416373
C181	C	0.328124	0.530719	-0.454235
C182	C	0.363340	0.581368	-0.497536
H183	H	0.401759	0.520872	-0.390506
H184	H	0.401782	0.456225	-0.445941
H185	H	0.300554	0.560896	-0.424671
H186	H	0.300564	0.496272	-0.480116
H187	H	0.390921	0.551189	-0.527104
H188	H	0.390896	0.615831	-0.471664
H189	H	0.332081	0.611437	-0.523235
H190	H	0.899662	0.472330	-0.940238
