data_functionalizedCrystal
_audit_creation_method	'MofGen! by Chris Wilmer'
_symmetry_space_group_name_H-M	'P1'
_symmetry_Int_Tables_number	1
_symmetry_cell_setting	triclinic
loop_
_symmetry_equiv_pos_as_xyz
  x,y,z
_cell_length_a	12.811457
_cell_length_b	14.519709
_cell_length_c	13.596369
_cell_angle_alpha	89.993066
_cell_angle_beta	95.426631
_cell_angle_gamma	83.862789
loop_
_atom_site_label
_atom_site_type_symbol
_atom_site_fract_x
_atom_site_fract_y
_atom_site_fract_z
O1	O	1.392891	0.124207	0.042450
O2	O	1.892891	0.624207	0.542450
O3	O	1.087336	0.137716	0.015193
O4	O	1.587336	0.637716	0.515193
O5	O	1.248215	-0.003258	0.029553
O6	O	1.748215	0.496742	0.529553
O7	O	1.232012	0.265181	0.028090
O8	O	1.732012	0.765181	0.528090
O9	O	1.248199	-0.003265	0.193134
O10	O	1.748199	0.496735	0.693134
O11	O	1.087320	0.137709	0.178774
O12	O	1.587320	0.637709	0.678774
O13	O	1.392875	0.124199	0.206032
O14	O	1.892875	0.624199	0.706032
Zn15	Zn	1.240095	0.130953	0.218375
Zn16	Zn	1.740095	0.630953	0.718375
Zn17	Zn	1.240116	0.130963	0.002849
Zn18	Zn	1.740116	0.630963	0.502849
O19	O	1.231996	0.265173	0.191671
O20	O	1.731996	0.765173	0.691671
C21	C	1.048223	0.136956	0.093495
C22	C	1.548223	0.636956	0.593495
C23	C	0.931702	0.134691	0.083101
C24	C	1.431702	0.634691	0.583101
C25	C	0.712731	0.130408	0.241926
C26	C	1.212731	0.630408	0.741926
C27	C	0.603250	0.128279	0.232165
C28	C	1.103250	0.628279	0.732165
C29	C	0.603257	0.128297	0.053819
C30	C	1.103257	0.628297	0.553819
C31	C	0.712738	0.130426	0.063580
C32	C	1.212738	0.630426	0.563580
C33	C	0.767471	0.131483	0.157637
C34	C	1.267471	0.631483	0.657637
C35	C	0.876954	0.133618	0.167397
C36	C	1.376954	0.633618	0.667397
C37	C	0.876960	0.133630	-0.010949
C38	C	1.376960	0.633630	0.489051
C39	C	0.767479	0.131501	-0.020710
C40	C	1.267479	0.631501	0.479290
C41	C	1.247452	-0.037623	0.111277
C42	C	1.747452	0.462377	0.611277
C43	C	1.245189	-0.140010	0.111075
C44	C	1.745189	0.359990	0.611075
C45	C	1.236858	-0.514925	0.110307
C46	C	1.736858	-0.014925	0.610307
C47	C	1.239172	-0.410612	0.110520
C48	C	1.739172	0.089388	0.610520
C49	C	1.241023	-0.327471	0.110692
C50	C	1.741023	0.172529	0.610692
C51	C	1.243337	-0.223151	0.110904
C52	C	1.743337	0.276849	0.610904
C53	C	1.431988	0.124959	0.127727
C54	C	1.931988	0.624959	0.627727
C55	C	1.548508	0.127225	0.138114
C56	C	2.048508	0.627225	0.638114
C57	C	1.232759	0.299538	0.109946
C58	C	1.732759	0.799538	0.609946
C59	C	1.235022	0.401925	0.110140
C60	C	1.735022	0.901925	0.610140
N61	N	1.240088	0.130945	0.365466
N62	N	1.740088	0.630945	0.865466
N63	N	1.240131	0.130963	-0.144241
N64	N	1.740131	0.630963	0.355759
C65	C	1.240115	0.130964	0.766760
C66	C	1.740115	0.630964	1.266760
C67	C	1.240104	0.130962	0.655107
C68	C	1.740104	0.630962	1.155107
C69	C	1.240102	0.130955	0.566116
C70	C	1.740102	0.630955	1.066116
C71	C	1.240090	0.130952	0.454457
C72	C	1.740090	0.630952	0.954457
H73	H	0.558683	0.127409	0.300803
H74	H	1.058683	0.627409	0.800803
C75	C	0.937162	0.134761	0.270854
C76	C	1.437162	0.634761	0.770854
H77	H	0.888878	0.133801	0.319654
H78	H	1.388878	0.633801	0.819654
H79	H	0.971977	0.189300	0.277681
H80	H	1.471977	0.689300	0.777681
H81	H	0.987766	0.081863	0.279058
H82	H	1.487766	0.581863	0.779058
H83	H	0.558677	0.127421	-0.022758
H84	H	1.058677	0.627421	0.477242
C85	C	0.707266	0.130344	-0.124163
C86	C	1.207266	0.630344	0.375837
H87	H	0.634222	0.128928	-0.117906
H88	H	1.134222	0.628928	0.382094
H89	H	0.733113	0.076985	-0.158504
H90	H	1.233113	0.576985	0.341496
H91	H	0.717306	0.184422	-0.159900
H92	H	1.217306	0.684422	0.340100
C93	C	0.937171	0.134814	-0.103674
C94	C	1.437171	0.634814	0.396326
H95	H	0.888889	0.133887	-0.161085
H96	H	1.388889	0.633887	0.338915
H97	H	0.987788	0.081933	-0.102872
H98	H	1.487788	0.581933	0.397128
H99	H	0.971969	0.189370	-0.104275
H100	H	1.471969	0.689370	0.395725
C101	C	0.772943	0.131552	0.345381
C102	C	1.272943	0.631552	0.845381
H103	H	0.724662	0.130598	0.394185
H104	H	1.224662	0.630598	0.894185
H105	H	0.807761	0.186090	0.352203
H106	H	1.307761	0.686090	0.852203
H107	H	0.823544	0.078652	0.353586
H108	H	1.323544	0.578652	0.853586
