data_functionalizedCrystal
_audit_creation_method	'MofGen! by Chris Wilmer'
_symmetry_space_group_name_H-M	'P1'
_symmetry_Int_Tables_number	1
_symmetry_cell_setting	triclinic
loop_
_symmetry_equiv_pos_as_xyz
  x,y,z
_cell_length_a	27.732048
_cell_length_b	23.532407
_cell_length_c	22.610064
_cell_angle_alpha	90.000603
_cell_angle_beta	89.989356
_cell_angle_gamma	97.254334
loop_
_atom_site_label
_atom_site_type_symbol
_atom_site_fract_x
_atom_site_fract_y
_atom_site_fract_z
O1	O	0.641035	-0.067758	-0.049224
O2	O	1.141035	0.432242	0.450776
O3	O	0.500257	-0.078062	-0.049218
O4	O	1.000257	0.421938	0.450782
O5	O	0.574891	0.010031	-0.049210
O6	O	1.074891	0.510031	0.450790
O7	O	0.566401	-0.155851	-0.049232
O8	O	1.066401	0.344149	0.450768
O9	O	0.574878	0.010018	0.049159
O10	O	1.074878	0.510018	0.549159
O11	O	0.500244	-0.078075	0.049151
O12	O	1.000244	0.421925	0.549151
O13	O	0.641022	-0.067771	0.049145
O14	O	1.141022	0.432229	0.549145
Zn15	Zn	0.570631	-0.072925	0.064766
Zn16	Zn	1.070631	0.427075	0.564766
Zn17	Zn	0.570648	-0.072908	-0.064839
Zn18	Zn	1.070648	0.427092	0.435161
O19	O	0.566388	-0.155864	0.049137
O20	O	1.066388	0.344136	0.549137
C21	C	0.482243	-0.077852	-0.000033
C22	C	0.982243	0.422148	0.499967
C23	C	0.428587	-0.077201	-0.000031
C24	C	0.928587	0.422799	0.499969
C25	C	0.659035	-0.067981	-0.000041
C26	C	1.159035	0.432019	0.499959
C27	C	0.712691	-0.068632	-0.000048
C28	C	1.212691	0.431368	0.499952
C29	C	1.051433	-0.020675	-0.000021
C30	C	1.551433	0.479325	0.499979
C31	C	1.253096	-0.023092	-0.000020
C32	C	1.753096	0.476908	0.499980
O33	O	1.284284	0.020761	0.000011
O34	O	1.784284	0.520761	0.500011
N35	N	1.272300	-0.075327	-0.000028
N36	N	1.772300	0.424673	0.499972
C37	C	1.241085	-0.126962	-0.000033
C38	C	1.741085	0.373038	0.499967
O39	O	1.262046	-0.171447	-0.000034
O40	O	1.762046	0.328553	0.499966
C41	C	1.039422	-0.124545	-0.000030
C42	C	1.539422	0.375455	0.499970
C43	C	1.020221	-0.072306	-0.000028
C44	C	1.520221	0.427694	0.499972
C45	C	1.032231	0.031559	-0.000018
C46	C	1.532231	0.531559	0.499982
C47	C	0.981818	0.032163	-0.000022
C48	C	1.481818	0.532163	0.499978
C49	C	0.950607	-0.019468	-0.000028
C50	C	1.450607	0.480532	0.499972
C51	C	0.969809	-0.071703	-0.000032
C52	C	1.469809	0.428297	0.499968
C53	C	1.008208	-0.176179	-0.000031
C54	C	1.508208	0.323821	0.499969
C55	C	0.957790	-0.175570	-0.000029
C56	C	1.457790	0.324430	0.499971
C57	C	0.938589	-0.123332	-0.000027
C58	C	1.438589	0.376668	0.499973
C59	C	0.888184	-0.122730	-0.000042
C60	C	1.388184	0.377270	0.499958
N61	N	0.868980	-0.070495	-0.000034
N62	N	1.368980	0.429505	0.499966
C63	C	0.900192	-0.018864	-0.000027
C64	C	1.400192	0.481136	0.499973
C65	C	1.346961	-0.128227	-0.000036
C66	C	1.846961	0.371773	0.499964
C67	C	1.397376	-0.128832	-0.000037
C68	C	1.897376	0.371168	0.499963
C69	C	1.409384	-0.024961	-0.000023
C70	C	1.909384	0.475039	0.499977
C71	C	1.358968	-0.024358	-0.000025
C72	C	1.858968	0.475642	0.499975
C73	C	1.327757	-0.075992	-0.000027
C74	C	1.827757	0.424008	0.499973
C75	C	0.794320	-0.017600	-0.000035
C76	C	1.294320	0.482400	0.499965
C77	C	0.743903	-0.017001	-0.000041
C78	C	1.243903	0.482999	0.499959
C79	C	0.731899	-0.120871	-0.000052
C80	C	1.231899	0.379129	0.499948
C81	C	0.782313	-0.121471	-0.000049
C82	C	1.282313	0.378529	0.499951
C83	C	0.813523	-0.069831	-0.000039
C84	C	1.313523	0.430169	0.499961
O85	O	0.856968	-0.166560	-0.000066
O86	O	1.356968	0.333440	0.499934
O87	O	0.879221	0.025614	-0.000013
O88	O	1.379221	0.525614	0.499987
C89	C	1.101845	-0.021279	-0.000018
C90	C	1.601845	0.478721	0.499982
C91	C	1.121047	-0.073513	-0.000021
C92	C	1.621047	0.426487	0.499979
C93	C	1.089836	-0.125144	-0.000027
C94	C	1.589836	0.374856	0.499973
C95	C	1.171462	-0.074118	-0.000022
C96	C	1.671462	0.425882	0.499978
C97	C	1.202674	-0.022487	-0.000016
C98	C	1.702674	0.477513	0.499984
C99	C	1.183470	0.029748	-0.000007
C100	C	1.683470	0.529748	0.499993
C101	C	1.133057	0.030352	-0.000011
C102	C	1.633057	0.530352	0.499989
C103	C	1.109040	-0.177380	-0.000036
C104	C	1.609040	0.322620	0.499964
C105	C	1.159453	-0.177979	-0.000033
C106	C	1.659453	0.322021	0.499967
C107	C	1.190665	-0.126348	-0.000026
C108	C	1.690665	0.373652	0.499974
C109	C	0.574668	0.031240	-0.000024
C110	C	1.074668	0.531240	0.499976
C111	C	0.574018	0.094455	-0.000020
C112	C	1.074018	0.594455	0.499980
C113	C	0.566610	-0.177073	-0.000050
C114	C	1.066610	0.322927	0.499950
C115	C	0.567260	-0.240289	-0.000059
C116	C	1.067260	0.259711	0.499941
N117	N	0.570622	-0.072936	0.153219
N118	N	1.070622	0.427064	0.653219
C119	C	0.614108	0.493644	-0.000054
C120	C	1.114108	0.993644	0.499946
C121	C	0.613504	0.553043	-0.000058
C122	C	1.113504	1.053043	0.499942
O123	O	0.650668	0.589867	-0.000081
O124	O	1.150668	1.089867	0.499919
N125	N	0.569134	0.575574	-0.000056
N126	N	1.069134	1.075574	0.499944
C127	C	0.525365	0.538703	-0.000056
C128	C	1.025365	1.038703	0.499944
O129	O	0.487570	0.563322	-0.000055
O130	O	0.987570	1.063322	0.499945
C131	C	0.525970	0.479306	-0.000055
C132	C	1.025970	0.979306	0.499945
C133	C	0.570343	0.456778	-0.000051
C134	C	1.070343	0.956778	0.499949
C135	C	0.658477	0.471116	-0.000050
C136	C	1.158477	0.971116	0.499950
C137	C	0.659081	0.411721	-0.000045
C138	C	1.159081	0.911721	0.499955
C139	C	0.615315	0.374854	-0.000043
C140	C	1.115315	0.874854	0.499957
C141	C	0.570946	0.397383	-0.000046
C142	C	1.070946	0.897383	0.499954
C143	C	0.482201	0.442436	-0.000059
C144	C	0.982201	0.942436	0.499941
C145	C	0.482810	0.383035	-0.000059
C146	C	0.982810	0.883035	0.499941
C147	C	0.527182	0.360507	-0.000055
C148	C	1.027182	0.860507	0.499945
C149	C	0.527784	0.301122	-0.000038
C150	C	1.027784	0.801122	0.499962
N151	N	0.572154	0.278590	-0.000040
N152	N	1.072154	0.778590	0.499960
C153	C	0.615920	0.315457	-0.000042
C154	C	1.115920	0.815457	0.499958
C155	C	0.524100	0.663443	-0.000057
C156	C	1.024100	1.163443	0.499943
C157	C	0.523495	0.722840	-0.000053
C158	C	1.023495	1.222840	0.499947
C159	C	0.611634	0.737175	-0.000057
C160	C	1.111634	1.237175	0.499943
C161	C	0.612238	0.677778	-0.000057
C162	C	1.112238	1.177778	0.499943
C163	C	0.568469	0.640912	-0.000059
C164	C	1.068469	1.140912	0.499941
C165	C	0.617184	0.190723	-0.000030
C166	C	1.117184	0.690723	0.499970
C167	C	0.617784	0.131322	-0.000022
C168	C	1.117784	0.631322	0.499978
C169	C	0.529645	0.116991	-0.000021
C170	C	1.029645	0.616991	0.499979
C171	C	0.529045	0.176387	-0.000026
C172	C	1.029045	0.676387	0.499974
C173	C	0.572818	0.213252	-0.000033
C174	C	1.072818	0.713252	0.499967
O175	O	0.490640	0.264263	-0.000017
O176	O	0.990640	0.764263	0.499983
O177	O	0.653709	0.290829	-0.000051
O178	O	1.153709	0.790829	0.499949
N179	N	0.570660	-0.072892	-0.153292
N180	N	1.070660	0.427108	0.346708
C181	C	0.603697	-0.033907	0.561864
C182	C	1.103697	0.466093	1.061864
C183	C	0.603700	-0.033902	0.623784
C184	C	1.103700	0.466098	1.123784
O185	O	0.631801	-0.000727	0.655805
O186	O	1.131801	0.499273	1.155805
N187	N	0.570648	-0.072896	0.654756
N188	N	1.070648	0.427104	1.154756
C189	C	0.537588	-0.111893	0.623805
C190	C	1.037588	0.388107	1.123805
O191	O	0.509474	-0.145060	0.655835
O192	O	1.009474	0.354940	1.155835
C193	C	0.537583	-0.111894	0.561886
C194	C	1.037583	0.388106	1.061886
C195	C	0.570641	-0.072901	0.530917
C196	C	1.070641	0.427099	1.030917
C197	C	0.636752	0.005083	0.530895
C198	C	1.136752	0.505083	1.030895
C199	C	0.636750	0.005078	0.468979
C200	C	1.136750	0.505078	0.968979
C201	C	0.603693	-0.033917	0.438032
C202	C	1.103693	0.466083	0.938032
C203	C	0.570639	-0.072906	0.469002
C204	C	1.070639	0.427094	0.969002
C205	C	0.504521	-0.150887	0.530937
C206	C	1.004521	0.349113	1.030937
C207	C	0.504519	-0.150885	0.469014
C208	C	1.004519	0.349115	0.969014
C209	C	0.537577	-0.111892	0.438044
C210	C	1.037577	0.388108	0.938044
C211	C	0.537580	-0.111906	0.376139
C212	C	1.037580	0.388094	0.876139
N213	N	0.570632	-0.072912	0.345167
N214	N	1.070632	0.427088	0.845167
C215	C	0.603689	-0.033918	0.376114
C216	C	1.103689	0.466082	0.876114
C217	C	0.537599	-0.111887	0.753839
C218	C	1.037599	0.388113	1.253839
C219	C	0.537605	-0.111889	0.815756
C220	C	1.037605	0.388111	1.315756
C221	C	0.603717	-0.033898	0.815731
C222	C	1.103717	0.466102	1.315731
C223	C	0.603713	-0.033899	0.753812
C224	C	1.103713	0.466101	1.253812
C225	C	0.570651	-0.072893	0.722866
C226	C	1.070651	0.427107	1.222866
C227	C	0.603683	-0.033931	0.246086
C228	C	1.103683	0.466069	0.746086
C229	C	0.603679	-0.033941	0.184165
C230	C	1.103679	0.466059	0.684165
C231	C	0.537566	-0.111931	0.184196
C232	C	1.037566	0.388069	0.684196
C233	C	0.537571	-0.111923	0.246112
C234	C	1.037571	0.388077	0.746112
C235	C	0.570631	-0.072918	0.277055
C236	C	1.070631	0.427082	0.777055
O237	O	0.509492	-0.145064	0.344078
O238	O	1.009492	0.354936	0.844078
O239	O	0.631794	-0.000752	0.344076
O240	O	1.131794	0.499248	0.844076
H241	H	0.728272	0.025540	-0.000041
H242	H	1.228272	0.525540	0.499959
H243	H	0.630633	-0.002145	0.840938
H244	H	1.130633	0.497855	1.340938
F245	F	0.659465	0.653808	-0.000053
F246	F	1.159465	1.153808	0.499947
H247	H	0.494012	0.086964	-0.000017
H248	H	0.994012	0.586964	0.499983
F249	F	0.671932	0.046582	0.436025
F250	F	1.171932	0.546582	0.936025
H251	H	0.630600	-0.002189	0.158952
H252	H	1.130600	0.497811	0.658952
H253	H	0.510653	-0.143681	0.158990
H254	H	1.010653	0.356319	0.658990
F255	F	0.638869	0.007582	0.279010
F256	F	1.138869	0.507582	0.779010
F257	F	0.663773	0.229949	-0.000037
F258	F	1.163773	0.729949	0.499963
F259	F	0.671938	0.046591	0.563822
F260	F	1.171938	0.546591	1.063822
H261	H	0.630631	-0.002148	0.728600
H262	H	1.130631	0.497852	1.228600
F263	F	0.502427	-0.153397	0.848710
F264	F	1.002427	0.346603	1.348710
F265	F	0.502411	-0.153397	0.720909
F266	F	1.002411	0.346603	1.220909
F267	F	0.469336	-0.192388	0.563885
F268	F	0.969336	0.307612	1.063885
F269	F	0.502392	-0.153430	0.279071
F270	F	1.002392	0.346570	0.779071
F271	F	0.827529	0.037361	-0.000024
F272	F	1.327529	0.537361	0.499976
F273	F	0.961390	0.087763	-0.000024
F274	F	1.461390	0.587763	0.499976
F275	F	0.469328	-0.192388	0.436083
F276	F	0.969328	0.307612	0.936083
H277	H	1.057639	0.073606	-0.000011
H278	H	1.557639	0.573606	0.499989
H279	H	0.653919	0.112983	-0.000017
H280	H	1.153919	0.612983	0.499983
F281	F	1.442610	0.029988	-0.000017
F282	F	1.942610	0.529988	0.499983
F283	F	1.338537	0.031241	-0.000021
F284	F	1.838537	0.531241	0.499979
F285	F	0.706309	0.387753	-0.000054
F286	F	1.206309	0.887753	0.499946
H287	H	0.487362	0.741176	-0.000046
H288	H	0.987362	1.241176	0.499954
H289	H	1.413005	-0.171370	-0.000048
H290	H	1.913005	0.328630	0.499952
H291	H	0.488456	0.633430	-0.000054
H292	H	0.988456	1.133430	0.499946
F293	F	1.313749	-0.183188	-0.000041
F294	F	1.813749	0.316812	0.499959
H295	H	0.694118	0.501127	-0.000055
H296	H	1.194118	1.001127	0.499945
H297	H	0.932380	-0.217619	-0.000028
H298	H	1.432380	0.282381	0.499972
F299	F	1.028632	-0.231780	-0.000034
F300	F	1.528632	0.268220	0.499966
H301	H	0.492913	0.194730	-0.000013
H302	H	0.992913	0.694730	0.499987
H303	H	0.797947	-0.164008	-0.000052
H304	H	1.297947	0.335992	0.499948
H305	H	0.706478	-0.162908	-0.000061
H306	H	1.206478	0.337092	0.499939
H307	H	1.117428	0.072890	-0.000009
H308	H	1.617428	0.572890	0.499991
F309	F	1.216696	0.084698	-0.000003
F310	F	1.716696	0.584698	0.499997
H311	H	1.175082	-0.220521	-0.000039
H312	H	1.675082	0.279479	0.499961
H313	H	1.083632	-0.219425	-0.000041
H314	H	1.583632	0.280575	0.499959
F315	F	0.434973	0.466398	-0.000066
F316	F	0.934973	0.966398	0.499934
H317	H	0.647270	0.767203	-0.000061
H318	H	1.147270	1.267203	0.499939
F319	F	0.436224	0.343802	-0.000063
F320	F	0.936224	0.843802	0.499937
