data_functionalizedCrystal
_audit_creation_method	'MofGen! by Chris Wilmer'
_symmetry_space_group_name_H-M	'P1'
_symmetry_Int_Tables_number	1
_symmetry_cell_setting	triclinic
loop_
_symmetry_equiv_pos_as_xyz
  x,y,z
_cell_length_a	27.732048
_cell_length_b	26.809956
_cell_length_c	27.732048
_cell_angle_alpha	90.000636
_cell_angle_beta	82.642655
_cell_angle_gamma	90.003258
loop_
_atom_site_label
_atom_site_type_symbol
_atom_site_fract_x
_atom_site_fract_y
_atom_site_fract_z
O1	O	0.640931	0.041421	0.057510
O2	O	1.140931	0.541421	0.557510
O3	O	0.500138	0.041436	0.066256
O4	O	1.000138	0.541436	0.566256
O5	O	0.574907	0.041419	-0.008514
O6	O	1.074907	0.541419	0.491486
O7	O	0.566162	0.041439	0.132280
O8	O	1.066162	0.541439	0.632280
O9	O	0.574893	-0.041541	-0.008502
O10	O	1.074893	0.458459	0.491498
O11	O	0.500123	-0.041523	0.066267
O12	O	1.000123	0.458477	0.566267
O13	O	0.640917	-0.041539	0.057522
O14	O	1.140917	0.458461	0.557522
Zn15	Zn	0.570518	-0.054702	0.061896
Zn16	Zn	1.070518	0.445298	0.561896
Zn17	Zn	0.570536	0.054600	0.061881
Zn18	Zn	1.070536	0.554600	0.561881
O19	O	0.566147	-0.041521	0.132291
O20	O	1.066147	0.458479	0.632291
C21	C	0.482124	-0.000041	0.066078
C22	C	0.982124	0.499959	0.566078
C23	C	0.428469	-0.000036	0.065525
C24	C	0.928469	0.499964	0.565525
N25	N	0.570509	-0.129298	0.061906
N26	N	1.070509	0.370702	0.561906
C27	C	0.089654	-0.000051	0.106229
C28	C	0.589654	0.499949	0.606229
C29	C	-0.112006	-0.000056	0.104178
C30	C	0.387994	0.499944	0.604178
O31	O	-0.143262	-0.000073	0.141398
O32	O	0.356738	0.499927	0.641398
N33	N	-0.131130	-0.000062	0.059843
N34	N	0.368870	0.499938	0.559843
C35	C	-0.099835	-0.000069	0.016017
C36	C	0.400165	0.499931	0.516017
O37	O	-0.120728	-0.000079	-0.021740
O38	O	0.379272	0.499921	0.478260
C39	C	0.101824	-0.000068	0.018068
C40	C	0.601824	0.499932	0.518068
C41	C	0.120944	-0.000057	0.062407
C42	C	0.620944	0.499943	0.562407
C43	C	0.108775	-0.000042	0.150563
C44	C	0.608775	0.499958	0.650563
C45	C	0.159187	-0.000038	0.151076
C46	C	0.659187	0.499962	0.651076
C47	C	0.190477	-0.000044	0.107253
C48	C	0.690477	0.499956	0.607253
C49	C	0.171356	-0.000054	0.062919
C50	C	0.671356	0.499946	0.562919
C51	C	0.133117	-0.000079	-0.025757
C52	C	0.633117	0.499921	0.474243
C53	C	0.183535	-0.000080	-0.025240
C54	C	0.683535	0.499920	0.474760
C55	C	0.202655	-0.000069	0.019098
C56	C	0.702655	0.499931	0.519098
C57	C	0.253059	-0.000056	0.019609
C58	C	0.753059	0.499944	0.519609
N59	N	0.272183	-0.000050	0.063944
N60	N	0.772183	0.499950	0.563944
C61	C	0.240892	-0.000044	0.107766
C62	C	0.740892	0.499956	0.607766
C63	C	-0.205709	-0.000069	0.014943
C64	C	0.294291	0.499931	0.514943
C65	C	-0.256124	-0.000068	0.014430
C66	C	0.243876	0.499932	0.514430
C67	C	-0.268291	-0.000056	0.102591
C68	C	0.231709	0.499944	0.602591
C69	C	-0.217876	-0.000053	0.103104
C70	C	0.282124	0.499947	0.603104
C71	C	-0.186585	-0.000063	0.059278
C72	C	0.313415	0.499937	0.559278
C73	C	0.346761	-0.000036	0.108839
C74	C	0.846761	0.499964	0.608839
C75	C	0.397178	-0.000030	0.109347
C76	C	0.897178	0.499970	0.609347
C77	C	0.409341	-0.000044	0.021186
C78	C	0.909341	0.499956	0.521186
C79	C	0.358929	-0.000048	0.020678
C80	C	0.858929	0.499952	0.520678
C81	C	0.327639	-0.000045	0.064508
C82	C	0.827639	0.499955	0.564508
O83	O	0.284343	-0.000045	-0.017592
O84	O	0.784343	0.499955	0.482408
O85	O	0.261794	-0.000045	0.145518
O86	O	0.761794	0.499955	0.645518
C87	C	0.039242	-0.000055	0.105716
C88	C	0.539242	0.499945	0.605716
C89	C	0.020120	-0.000065	0.061382
C90	C	0.520120	0.499935	0.561382
C91	C	0.051411	-0.000071	0.017560
C92	C	0.551411	0.499929	0.517560
C93	C	-0.030294	-0.000065	0.060869
C94	C	0.469706	0.499935	0.560869
C95	C	-0.061585	-0.000059	0.104691
C96	C	0.438415	0.499941	0.604691
C97	C	-0.042461	-0.000053	0.149026
C98	C	0.457539	0.499947	0.649026
C99	C	0.007951	-0.000049	0.149539
C100	C	0.507951	0.499951	0.649539
C101	C	0.032287	-0.000077	-0.026775
C102	C	0.532287	0.499923	0.473225
C103	C	-0.018125	-0.000080	-0.027284
C104	C	0.481875	0.499920	0.472716
C105	C	-0.049416	-0.000074	0.016538
C106	C	0.450584	0.499926	0.516538
C107	C	0.603640	-0.473932	0.028781
C108	C	1.103640	0.026068	0.528781
C109	C	0.603652	-0.682810	0.028774
C110	C	1.103652	-0.182810	0.528774
O111	O	0.631801	-0.709820	0.000613
O112	O	1.131801	-0.209820	0.500613
N113	N	0.570539	-0.708925	0.061870
N114	N	1.070539	-0.208925	0.561870
C115	C	0.537419	-0.682818	0.094969
C116	C	1.037419	-0.182818	0.594969
O117	O	0.509252	-0.709824	0.123116
O118	O	1.009252	-0.209824	0.623116
C119	C	0.537406	-0.473941	0.094974
C120	C	1.037406	0.026059	0.594974
C121	C	0.570524	-0.447829	0.061878
C122	C	1.070524	0.052171	0.561878
C123	C	0.636755	-0.447819	-0.004312
C124	C	1.136755	0.052181	0.495688
C125	C	0.636754	-0.395603	-0.004308
C126	C	1.136754	0.104397	0.495692
C127	C	0.603637	-0.369500	0.028789
C128	C	1.103637	0.130500	0.528789
C129	C	0.570522	-0.395612	0.061882
C130	C	1.070522	0.104388	0.561882
C131	C	0.504284	-0.447835	0.128070
C132	C	1.004284	0.052165	0.628070
C133	C	0.504283	-0.395613	0.128067
C134	C	1.004283	0.104387	0.628067
C135	C	0.537401	-0.369500	0.094972
C136	C	1.037401	0.130500	0.594972
C137	C	0.537405	-0.317293	0.094983
C138	C	1.037405	0.182707	0.594983
N139	N	0.570517	-0.291177	0.061887
N140	N	1.070517	0.208823	0.561887
C141	C	0.603633	-0.317281	0.028790
C142	C	1.103633	0.182719	0.528790
C143	C	0.537429	-0.792481	0.094965
C144	C	1.037429	-0.292481	0.594965
C145	C	0.537433	-0.844700	0.094964
C146	C	1.037433	-0.344700	0.594964
C147	C	0.603665	-0.844689	0.028768
C148	C	1.103665	-0.344689	0.528768
C149	C	0.603663	-0.792469	0.028772
C150	C	1.103663	-0.292469	0.528772
C151	C	0.570542	-0.766366	0.061868
C152	C	1.070542	-0.266366	0.561868
C153	C	0.603628	-0.207623	0.028801
C154	C	1.103628	0.292377	0.528801
C155	C	0.603625	-0.155402	0.028809
C156	C	1.103625	0.344598	0.528809
C157	C	0.537392	-0.155418	0.095003
C158	C	1.037392	0.344582	0.595003
C159	C	0.537396	-0.207635	0.094997
C160	C	1.037396	0.292365	0.594997
C161	C	0.570516	-0.233735	0.061892
C162	C	1.070516	0.266265	0.561892
O163	O	0.509266	-0.290250	0.123126
O164	O	1.009266	0.209750	0.623126
O165	O	0.631789	-0.290266	0.000640
O166	O	1.131789	0.209734	0.500640
C167	C	0.603642	-0.526149	0.028777
C168	C	1.103642	-0.026149	0.528777
C169	C	0.570527	-0.552261	0.061870
C170	C	1.070527	-0.052261	0.561870
C171	C	0.537410	-0.526158	0.094968
C172	C	1.037410	-0.026158	0.594968
C173	C	0.570531	-0.604480	0.061870
C174	C	1.070531	-0.104480	0.561870
C175	C	0.603647	-0.630584	0.028773
C176	C	1.103647	-0.130584	0.528773
C177	C	0.636759	-0.604468	-0.004324
C178	C	1.136759	-0.104468	0.495676
C179	C	0.636758	-0.552252	-0.004320
C180	C	1.136758	-0.052252	0.495680
C181	C	0.504298	-0.552273	0.128064
C182	C	1.004298	-0.052273	0.628064
C183	C	0.504303	-0.604489	0.128058
C184	C	1.004303	-0.104489	0.628058
C185	C	0.537419	-0.630593	0.094961
C186	C	1.037419	-0.130593	0.594961
C187	C	0.658931	-0.000060	0.057699
C188	C	1.158931	0.499940	0.557699
C189	C	0.712586	-0.000062	0.058252
C190	C	1.212586	0.499938	0.558252
C191	C	0.574716	-0.000062	-0.026515
C192	C	1.074716	0.499938	0.473485
C193	C	0.574164	-0.000066	-0.080170
C194	C	1.074164	0.499934	0.419830
N195	N	0.570549	0.129196	0.061867
N196	N	1.070549	0.629196	0.561867
C197	C	0.614867	-0.000045	-0.418985
C198	C	1.114867	0.499955	0.081015
C199	C	0.612816	-0.000038	-0.620645
C200	C	1.112816	0.499962	-0.120645
O201	O	0.650037	-0.000021	-0.651900
O202	O	1.150037	0.499979	-0.151900
N203	N	0.568481	-0.000034	-0.639768
N204	N	1.068481	0.499966	-0.139768
C205	C	0.524656	-0.000028	-0.608474
C206	C	1.024656	0.499972	-0.108474
O207	O	0.486899	-0.000019	-0.629367
O208	O	0.986899	0.499981	-0.129367
C209	C	0.526707	-0.000031	-0.406815
C210	C	1.026707	0.499969	0.093185
C211	C	0.571045	-0.000041	-0.387694
C212	C	1.071045	0.499959	0.112306
C213	C	0.659202	-0.000054	-0.399864
C214	C	1.159202	0.499946	0.100136
C215	C	0.659714	-0.000059	-0.349452
C216	C	1.159714	0.499941	0.150548
C217	C	0.615892	-0.000054	-0.318161
C218	C	1.115892	0.499946	0.181839
C219	C	0.571557	-0.000045	-0.337282
C220	C	1.071557	0.499955	0.162718
C221	C	0.482882	-0.000022	-0.375521
C222	C	0.982882	0.499978	0.124479
C223	C	0.483399	-0.000021	-0.325104
C224	C	0.983399	0.499979	0.174896
C225	C	0.527737	-0.000031	-0.305983
C226	C	1.027737	0.499969	0.194017
C227	C	0.528247	-0.000045	-0.255580
C228	C	1.028247	0.499955	0.244420
N229	N	0.572583	-0.000050	-0.236456
N230	N	1.072583	0.499950	0.263544
C231	C	0.616405	-0.000054	-0.267747
C232	C	1.116405	0.499946	0.232253
C233	C	0.523582	-0.000027	-0.714348
C234	C	1.023582	0.499973	-0.214348
C235	C	0.523069	-0.000027	-0.764762
C236	C	1.023069	0.499973	-0.264762
C237	C	0.611230	-0.000036	-0.776930
C238	C	1.111230	0.499964	-0.276930
C239	C	0.611742	-0.000040	-0.726514
C240	C	1.111742	0.499960	-0.226514
C241	C	0.567917	-0.000031	-0.695224
C242	C	1.067917	0.499969	-0.195224
C243	C	0.617477	-0.000064	-0.161878
C244	C	1.117477	0.499936	0.338122
C245	C	0.617986	-0.000071	-0.111461
C246	C	1.117986	0.499929	0.388539
C247	C	0.529825	-0.000059	-0.099298
C248	C	1.029825	0.499941	0.400702
C249	C	0.529316	-0.000055	-0.149710
C250	C	1.029316	0.499945	0.350290
C251	C	0.573147	-0.000056	-0.180999
C252	C	1.073147	0.499944	0.319001
O253	O	0.491047	-0.000057	-0.224296
O254	O	0.991047	0.499943	0.275704
O255	O	0.654156	-0.000053	-0.246844
O256	O	1.154156	0.499947	0.253156
C257	C	0.614355	-0.000041	-0.469397
C258	C	1.114355	0.499959	0.030603
C259	C	0.570021	-0.000032	-0.488518
C260	C	1.070021	0.499968	0.011482
C261	C	0.526198	-0.000027	-0.457228
C262	C	1.026198	0.499973	0.042772
C263	C	0.569508	-0.000032	-0.538933
C264	C	1.069508	0.499968	-0.038933
C265	C	0.613330	-0.000036	-0.570223
C266	C	1.113330	0.499964	-0.070223
C267	C	0.657665	-0.000041	-0.551100
C268	C	1.157665	0.499959	-0.051100
C269	C	0.658177	-0.000045	-0.500688
C270	C	1.158177	0.499955	-0.000688
C271	C	0.481863	-0.000023	-0.476351
C272	C	0.981863	0.499977	0.023649
C273	C	0.481355	-0.000019	-0.526764
C274	C	0.981355	0.499981	-0.026764
C275	C	0.525177	-0.000023	-0.558054
C276	C	1.025177	0.499977	-0.058054
C277	C	0.566338	-0.000039	0.150292
C278	C	1.066338	0.499961	0.650292
C279	C	0.566891	-0.000031	0.203947
C280	C	1.066891	0.499969	0.703947
H281	H	0.412743	-0.000021	0.145454
H282	H	0.912743	0.499979	0.645454
H283	H	0.083302	-0.000038	0.186251
H284	H	0.583302	0.499962	0.686251
H285	H	0.057760	-0.000083	-0.062462
H286	H	0.557760	0.499917	0.437538
H287	H	0.694282	-0.000053	-0.485125
H288	H	1.194282	0.499947	0.014875
C289	C	0.501009	-0.873421	0.131373
C290	C	1.001009	-0.373421	0.631373
H291	H	0.505753	-0.908260	0.126638
H292	H	1.005753	-0.408260	0.626638
H293	H	0.468789	-0.864865	0.126345
H294	H	0.968789	-0.364865	0.626345
H295	H	0.506019	-0.864860	0.163599
H296	H	1.006019	-0.364860	0.663599
C297	C	0.673178	-0.366886	-0.040719
C298	C	1.173178	0.133114	0.459281
H299	H	0.692895	-0.389917	-0.060431
H300	H	1.192895	0.110083	0.439569
H301	H	0.693171	-0.346511	-0.023474
H302	H	1.193171	0.153489	0.476526
H303	H	0.655936	-0.346520	-0.060724
H304	H	1.155936	0.153480	0.439276
C305	C	0.673186	-0.633187	-0.040732
C306	C	1.173186	-0.133187	0.459268
H307	H	0.692912	-0.610159	-0.060443
H308	H	1.192912	-0.110159	0.439557
H309	H	0.655946	-0.653558	-0.060732
H310	H	1.155946	-0.153558	0.439268
H311	H	0.693177	-0.653556	-0.023478
H312	H	1.193177	-0.153556	0.476522
C313	C	0.500998	-0.763775	0.131378
C314	C	1.000998	-0.263775	0.631378
H315	H	0.481284	-0.786811	0.151089
H316	H	0.981284	-0.286811	0.651089
H317	H	0.481002	-0.743406	0.114133
H318	H	0.981002	-0.243406	0.614133
H319	H	0.518236	-0.743404	0.151384
H320	H	1.018236	-0.243404	0.651384
H321	H	0.663722	-0.469068	-0.031266
H322	H	1.163722	0.030932	0.468734
C323	C	0.659433	-0.000034	-0.811355
C324	C	1.159433	0.499966	-0.311355
H325	H	0.652773	-0.000027	-0.844117
H326	H	1.152773	0.499973	-0.344117
H327	H	0.677632	-0.028961	-0.805600
H328	H	1.177632	0.471039	-0.305600
H329	H	0.677626	0.028902	-0.805593
H330	H	1.177626	0.528902	-0.305593
H331	H	0.630597	-0.228868	0.001843
H332	H	1.130597	0.271132	0.501843
H333	H	0.693347	-0.000047	-0.576585
H334	H	1.193347	0.499953	-0.076585
C335	C	0.434109	-0.000007	-0.396543
C336	C	0.934109	0.499993	0.103457
H337	H	0.408089	0.000002	-0.370681
H338	H	0.908089	0.500002	0.129319
H339	H	0.432063	-0.028934	-0.415958
H340	H	0.932063	0.471066	0.084042
H341	H	0.432083	0.028929	-0.415953
H342	H	0.932083	0.528929	0.084047
H343	H	0.630630	-0.771211	0.001822
H344	H	1.130630	-0.271211	0.501822
H345	H	-0.067947	-0.000046	0.184708
H346	H	0.432053	0.499954	0.684708
H347	H	0.510430	-0.134157	0.121952
H348	H	1.010430	0.365843	0.621952
C349	C	0.180213	-0.000036	0.199848
C350	C	0.680213	0.499964	0.699848
H351	H	0.154352	-0.000039	0.225869
H352	H	0.654352	0.499961	0.725869
H353	H	0.199630	0.028892	0.201885
H354	H	0.699630	0.528892	0.701885
H355	H	0.199622	-0.028971	0.201883
H356	H	0.699622	0.471029	0.701883
H357	H	0.630595	-0.134142	0.001859
H358	H	1.130595	0.365858	0.501859
H359	H	0.321291	-0.000035	0.144530
H360	H	0.821291	0.499965	0.644530
H361	H	0.694889	-0.000056	-0.425336
H362	H	1.194889	0.499944	0.074664
C363	C	0.432579	-0.000007	-0.547791
C364	C	0.932579	0.499993	-0.047791
H365	H	0.406556	0.000001	-0.521931
H366	H	0.906556	0.500001	-0.021931
H367	H	0.430535	-0.028932	-0.567208
H368	H	0.930535	0.471068	-0.067208
H369	H	0.430554	0.028931	-0.567199
H370	H	0.930554	0.528931	-0.067199
C371	C	0.467858	-0.476548	0.164480
C372	C	0.967858	0.023452	0.664480
H373	H	0.448136	-0.453516	0.184185
H374	H	0.948136	0.046484	0.684185
H375	H	0.485095	-0.496915	0.184484
H376	H	0.985095	0.003085	0.684484
H377	H	0.447863	-0.496921	0.147231
H378	H	0.947863	0.003079	0.647231
H379	H	-0.202311	-0.000047	0.139207
H380	H	0.297689	0.499953	0.639207
C381	C	0.467851	-0.366903	0.164477
C382	C	0.967851	0.133097	0.664477
H383	H	0.448133	-0.389937	0.184187
H384	H	0.948133	0.110063	0.684187
H385	H	0.447860	-0.346532	0.147229
H386	H	0.947860	0.153468	0.647229
H387	H	0.485089	-0.346534	0.184485
H388	H	0.985089	0.153466	0.684485
C389	C	0.500950	-0.236360	0.131382
C390	C	1.000950	0.263640	0.631382
H391	H	0.481220	-0.213332	0.151086
H392	H	0.981220	0.286668	0.651086
H393	H	0.518162	-0.256745	0.151392
H394	H	1.018162	0.243255	0.651392
H395	H	0.480966	-0.256715	0.114104
H396	H	0.980966	0.243285	0.614104
C397	C	-0.277154	-0.000071	-0.034340
C398	C	0.222846	0.499929	0.465660
H399	H	-0.311660	-0.000065	-0.028374
H400	H	0.188340	0.499935	0.471626
H401	H	-0.266392	-0.029002	-0.052365
H402	H	0.233608	0.470998	0.447635
H403	H	-0.266386	0.028861	-0.052368
H404	H	0.233614	0.528861	0.447632
C405	C	0.337894	-0.000054	-0.028092
C406	C	0.837894	0.499946	0.471908
H407	H	0.363752	-0.000058	-0.054117
H408	H	0.863752	0.499942	0.445883
H409	H	0.318478	0.028872	-0.030130
H410	H	0.818478	0.528872	0.469870
H411	H	0.318484	-0.028991	-0.030121
H412	H	0.818484	0.471009	0.469879
C413	C	-0.302715	-0.000052	0.150796
C414	C	0.197285	0.499948	0.650796
H415	H	-0.284110	-0.000047	0.177277
H416	H	0.215890	0.499953	0.677277
H417	H	-0.322636	-0.028982	0.152426
H418	H	0.177364	0.471018	0.652426
H419	H	-0.322632	0.028882	0.152424
H420	H	0.177368	0.528882	0.652424
H421	H	0.486964	-0.000028	-0.780325
H422	H	0.986964	0.499972	-0.280325
C423	C	0.467872	-0.633210	0.164465
C424	C	0.967872	-0.133210	0.664465
H425	H	0.472614	-0.668049	0.159728
H426	H	0.972614	-0.168049	0.659728
H427	H	0.435654	-0.624651	0.159435
H428	H	0.935654	-0.124651	0.659435
H429	H	0.472880	-0.624653	0.196693
H430	H	0.972880	-0.124653	0.696693
H431	H	-0.180236	-0.000077	-0.020747
H432	H	0.319764	0.499923	0.479253
C433	C	0.666759	-0.000079	-0.090431
C434	C	1.166759	0.499921	0.409569
H435	H	0.692784	-0.000075	-0.116290
H436	H	1.192784	0.499925	0.383710
H437	H	0.668790	-0.029009	-0.071019
H438	H	1.168790	0.470991	0.428981
H439	H	0.668797	0.028854	-0.071016
H440	H	1.168797	0.528854	0.428984
C441	C	0.673184	-0.523535	-0.040728
C442	C	1.173184	-0.023535	0.459272
H443	H	0.692902	-0.546566	-0.060440
H444	H	1.192902	-0.046566	0.439560
H445	H	0.693177	-0.503161	-0.023482
H446	H	1.193177	-0.003161	0.476518
H447	H	0.655945	-0.503168	-0.060734
H448	H	1.155945	-0.003168	0.439266
H449	H	0.477330	-0.531024	0.155015
H450	H	0.977330	-0.031024	0.655015
H451	H	0.487892	-0.000020	-0.688875
H452	H	0.987892	0.499980	-0.188875
H453	H	0.630630	-0.865951	0.001820
H454	H	1.130630	-0.365951	0.501820
H455	H	0.653168	-0.000063	-0.187348
H456	H	1.153168	0.499937	0.312652
C457	C	0.112095	-0.000097	-0.074529
C458	C	0.612095	0.499903	0.425471
H459	H	0.137958	-0.000108	-0.100550
H460	H	0.637958	0.499892	0.399450
H461	H	0.092682	0.028829	-0.076576
H462	H	0.592682	0.528829	0.423424
H463	H	0.092684	-0.029034	-0.076555
H464	H	0.592684	0.470966	0.423445
H465	H	0.209009	-0.000089	-0.060929
H466	H	0.709009	0.499911	0.439071
C467	C	0.708486	-0.000060	-0.328425
C468	C	1.208486	0.499940	0.171575
H469	H	0.734508	-0.000056	-0.354287
H470	H	1.234508	0.499944	0.145713
H471	H	0.710522	-0.028988	-0.309011
H472	H	1.210522	0.471012	0.190989
H473	H	0.710523	0.028875	-0.309014
H474	H	1.210523	0.528875	0.190986
C475	C	0.660513	-0.000046	-0.705486
C476	C	1.160513	0.499954	-0.205486
H477	H	0.686536	-0.000046	-0.731346
H478	H	1.186536	0.499954	-0.231346
H479	H	0.662544	-0.028974	-0.686071
H480	H	1.162544	0.471026	-0.186071
H481	H	0.662552	0.028889	-0.686075
H482	H	1.162552	0.528889	-0.186075
C483	C	0.435190	-0.000014	-0.290688
C484	C	0.935190	0.499986	0.209312
H485	H	0.408713	-0.000012	-0.309299
H486	H	0.908713	0.499988	0.190701
H487	H	0.433561	0.028914	-0.270765
H488	H	0.933561	0.528914	0.229235
H489	H	0.433550	-0.028949	-0.270770
H490	H	0.933550	0.471051	0.229230
C491	C	0.443767	-0.000055	-0.027014
C492	C	0.943767	0.499945	0.472986
H493	H	0.476529	-0.000057	-0.020355
H494	H	0.976529	0.499943	0.479645
H495	H	0.438011	0.028869	-0.045220
H496	H	0.938011	0.528869	0.454780
H497	H	0.438004	-0.028994	-0.045201
H498	H	0.938004	0.471006	0.454799
H499	H	0.023514	-0.000042	0.185643
H500	H	0.523514	0.499958	0.685643
H501	H	-0.033688	-0.000085	-0.063392
H502	H	0.466312	0.499915	0.436608
C503	C	0.480546	-0.000043	-0.170744
C504	C	0.980546	0.499957	0.329256
H505	H	0.454521	-0.000038	-0.144886
H506	H	0.954521	0.499962	0.355114
H507	H	0.478504	-0.028967	-0.190164
H508	H	0.978504	0.471033	0.309836
H509	H	0.478523	0.028896	-0.190151
H510	H	0.978523	0.528896	0.309849
H511	H	0.494146	-0.000057	-0.073812
H512	H	0.994146	0.499943	0.426188
H513	H	0.446177	-0.000018	-0.450879
H514	H	0.946177	0.499982	0.049121
