data_functionalizedCrystal
_audit_creation_method	'MofGen! by Chris Wilmer'
_symmetry_space_group_name_H-M	'P1'
_symmetry_Int_Tables_number	1
_symmetry_cell_setting	triclinic
loop_
_symmetry_equiv_pos_as_xyz
  x,y,z
_cell_length_a	10.654545
_cell_length_b	14.044220
_cell_length_c	9.730223
_cell_angle_alpha	89.994583
_cell_angle_beta	89.997167
_cell_angle_gamma	88.835978
loop_
_atom_site_label
_atom_site_type_symbol
_atom_site_fract_x
_atom_site_fract_y
_atom_site_fract_z
O1	O	1.681229	0.133211	-0.114280
O2	O	1.317026	0.145909	-0.114287
O3	O	1.493660	0.001539	-0.114270
O4	O	1.504594	0.277580	-0.114297
O5	O	1.493648	0.001535	0.114310
O6	O	1.317013	0.145905	0.114293
O7	O	1.681216	0.133207	0.114300
Zn8	Zn	1.499112	0.139555	0.150588
Zn9	Zn	1.499129	0.139561	-0.150575
O10	O	1.504581	0.277576	0.114283
C11	C	1.270128	0.144975	0.000003
C12	C	1.130404	0.142189	0.000001
C13	C	1.064761	0.140875	0.124601
C14	C	0.933476	0.138240	0.124601
C15	C	0.933490	0.138238	-0.124609
C16	C	1.064772	0.140866	-0.124608
C17	C	1.488868	-0.033808	0.000020
C18	C	1.474593	-0.139128	0.000022
C19	C	1.448494	-0.331961	0.000002
C20	C	1.549742	-0.388929	-0.000001
C21	C	1.535220	-0.496228	-0.000012
C22	C	1.463014	-0.224652	0.000013
C23	C	1.728114	0.134140	0.000007
C24	C	1.867838	0.136927	0.000000
C25	C	1.509373	0.312924	-0.000011
C26	C	1.523649	0.418244	-0.000021
N27	N	1.499110	0.139551	0.356125
N28	N	1.499141	0.139557	-0.356112
C29	C	1.577356	0.075652	0.428058
C30	C	1.577368	0.075652	0.571941
C31	C	1.420886	0.203460	0.571945
C32	C	1.420868	0.203454	0.428064
H33	H	1.118194	0.141952	0.226065
Cl34	Cl	1.675736	-0.004684	0.662368
Cl35	Cl	1.297835	-0.381072	-0.000008
H36	H	0.880035	0.137171	0.226063
H37	H	1.357185	0.255489	0.630532
Cl38	Cl	1.700411	-0.339819	0.000017
H39	H	1.357145	0.255489	0.369492
H40	H	0.880037	0.137162	-0.226062
Cl41	Cl	1.675712	-0.004687	0.337626
H42	H	1.118221	0.141933	-0.226079
