data_functionalizedCrystal
_audit_creation_method	'MofGen! by Chris Wilmer'
_symmetry_space_group_name_H-M	'P1'
_symmetry_Int_Tables_number	1
_symmetry_cell_setting	triclinic
loop_
_symmetry_equiv_pos_as_xyz
  x,y,z
_cell_length_a	10.723024
_cell_length_b	8.559649
_cell_length_c	7.681481
_cell_angle_alpha	94.930900
_cell_angle_beta	84.221425
_cell_angle_gamma	77.123267
loop_
_atom_site_label
_atom_site_type_symbol
_atom_site_fract_x
_atom_site_fract_y
_atom_site_fract_z
O1	O	-1.621004	-0.238853	-0.146409
O2	O	-1.255654	-0.260282	-0.146414
O3	O	-1.470517	-0.017318	-0.146409
O4	O	-1.406141	-0.481817	-0.146413
O5	O	-1.496970	0.012655	0.146449
O6	O	-1.282107	-0.230309	0.146445
O7	O	-1.647457	-0.208880	0.146450
Zn8	Zn	-1.468982	-0.214836	0.192945
Zn9	Zn	-1.434129	-0.254327	-0.192909
O10	O	-1.432594	-0.451844	0.146445
C11	C	-1.222541	-0.243736	0.000015
C12	C	-1.084465	-0.239071	0.000012
C13	C	-1.488621	0.057144	0.000017
C14	C	-1.503142	0.234364	0.000007
C15	C	-1.680570	-0.225426	0.000017
C16	C	-1.818645	-0.230093	0.000008
C17	C	-0.995544	-0.375021	0.000010
C18	C	-0.852834	-0.370202	0.000008
C19	C	-1.414489	-0.526307	0.000015
C20	C	-1.399967	-0.703528	0.000013
N21	N	-1.492777	-0.187883	0.456280
N22	N	-1.410345	-0.281266	-0.456244
H23	H	-1.025068	-0.494979	0.000019
H24	H	-1.576935	-0.092573	0.531487
H25	H	-0.776469	-0.486586	-0.000002
N26	N	-1.268240	0.187332	0.000037
H27	H	-1.276189	0.071955	0.000035
H28	H	-1.210388	0.197474	-0.108521
N29	N	-1.634876	0.343520	0.000006
H30	H	-1.701661	0.276897	-0.000000
H31	H	-1.655303	0.424483	0.108580
N32	N	-0.919773	-0.075906	0.000010
H33	H	-0.965068	-0.082444	-0.108551
H34	H	-0.984595	-0.060309	0.108646
N35	N	-1.045361	-0.080170	0.000012
H36	H	-1.070662	-0.028502	-0.108550
H37	H	-1.090284	-0.006402	0.108648
N38	N	-1.298882	-0.407528	0.444162
H39	H	-1.301580	-0.404458	0.313426
H40	H	-1.215066	-0.384950	0.476315
