data_functionalizedCrystal
_audit_creation_method	'MofGen! by Chris Wilmer'
_symmetry_space_group_name_H-M	'P1'
_symmetry_Int_Tables_number	1
_symmetry_cell_setting	triclinic
loop_
_symmetry_equiv_pos_as_xyz
  x,y,z
_cell_length_a	29.839135
_cell_length_b	29.839131
_cell_length_c	12.594510
_cell_angle_alpha	90.040672
_cell_angle_beta	90.025709
_cell_angle_gamma	90.043950
loop_
_atom_site_label
_atom_site_type_symbol
_atom_site_fract_x
_atom_site_fract_y
_atom_site_fract_z
Zn1	Zn	0.686765	-0.178784	0.601893
Zn2	Zn	0.686684	-0.253926	0.423894
Zn3	Zn	0.611634	-0.178814	0.423913
Zn4	Zn	0.611596	-0.253891	0.601815
O5	O	0.649170	-0.216354	0.512879
O6	O	0.749621	-0.188754	0.578306
O7	O	0.676711	-0.243990	0.274950
O8	O	0.621651	-0.115943	0.447563
O9	O	0.749562	-0.243961	0.447531
O10	O	0.676849	-0.115921	0.578325
O11	O	0.621572	-0.188806	0.274965
O12	O	0.548762	-0.188771	0.447487
O13	O	0.621585	-0.243901	0.750771
O14	O	0.548734	-0.243930	0.578191
O15	O	0.676811	-0.188720	0.750829
O16	O	0.676673	-0.316789	0.447454
O17	O	0.621506	-0.316763	0.578172
C18	C	0.532447	-0.216351	0.512833
C19	C	0.482513	-0.216360	0.512839
C20	C	0.649089	-0.333077	0.512826
C21	C	0.649095	-0.383011	0.512839
C22	C	0.677947	-0.692655	0.444913
C23	C	0.678003	-0.880328	0.444955
O24	O	0.702470	-0.904594	0.387161
N25	N	0.649263	-0.903796	0.512959
C26	C	0.620509	-0.880343	0.580963
O27	O	0.596068	-0.904610	0.638813
C28	C	0.620456	-0.692671	0.580926
C29	C	0.649195	-0.669205	0.512910
C30	C	0.706684	-0.669190	0.376903
C31	C	0.706668	-0.622274	0.376890
C32	C	0.677916	-0.598824	0.444886
C33	C	0.649179	-0.622290	0.512896
C34	C	0.591705	-0.669218	0.648934
C35	C	0.591695	-0.622297	0.648921
C36	C	0.620434	-0.598832	0.580905
C37	C	0.620411	-0.551924	0.580878
N38	N	0.649150	-0.528456	0.512874
C39	C	0.677903	-0.551906	0.444878
C40	C	0.620538	-0.978873	0.580976
C41	C	0.620551	-1.025791	0.580984
C42	C	0.678045	-1.025773	0.444977
C43	C	0.678030	-0.978855	0.444964
C44	C	0.649278	-0.955406	0.512971
C45	C	0.677867	-0.453381	0.444853
C46	C	0.677847	-0.406461	0.444843
C47	C	0.620355	-0.406483	0.580853
C48	C	0.620373	-0.453398	0.580860
C49	C	0.649133	-0.476846	0.512857
O50	O	0.595960	-0.527630	0.638650
O51	O	0.702347	-0.527631	0.387053
C52	C	0.677963	-0.739571	0.444927
C53	C	0.649227	-0.763036	0.512937
C54	C	0.620474	-0.739586	0.580933
C55	C	0.649239	-0.809954	0.512945
C56	C	0.677992	-0.833404	0.444949
C57	C	0.706732	-0.809936	0.376945
C58	C	0.706716	-0.763021	0.376931
C59	C	0.591734	-0.763054	0.648937
C60	C	0.591752	-0.809969	0.648945
C61	C	0.620504	-0.833419	0.580949
C62	C	0.172897	-0.187651	0.581074
C63	C	-0.014776	-0.187655	0.581104
O64	O	-0.039017	-0.163235	0.639069
N65	N	-0.038272	-0.216354	0.512918
C66	C	-0.014848	-0.245054	0.444714
O67	O	-0.039140	-0.269461	0.386710
C68	C	0.172824	-0.245048	0.444679
C69	C	0.196319	-0.216349	0.512878
C70	C	0.196392	-0.158955	0.649266
C71	C	0.243307	-0.158956	0.649262
C72	C	0.266728	-0.187654	0.581065
C73	C	0.243234	-0.216351	0.512873
C74	C	0.196248	-0.273744	0.376471
C75	C	0.243169	-0.273740	0.376466
C76	C	0.266663	-0.245041	0.444665
C77	C	0.313571	-0.245050	0.444673
N78	N	0.337067	-0.216350	0.512859
C79	C	0.313646	-0.187652	0.581056
C80	C	-0.113379	-0.245055	0.444739
C81	C	-0.160296	-0.245057	0.444748
C82	C	-0.160221	-0.187657	0.581137
C83	C	-0.113302	-0.187658	0.581132
C84	C	-0.089882	-0.216355	0.512925
C85	C	0.412172	-0.187657	0.581042
C86	C	0.459092	-0.187662	0.581035
C87	C	0.459012	-0.245060	0.444643
C88	C	0.412096	-0.245057	0.444653
C89	C	0.388678	-0.216352	0.512857
O90	O	0.337840	-0.269452	0.386730
O91	O	0.337946	-0.163241	0.639034
C92	C	0.125982	-0.187650	0.581078
C93	C	0.102488	-0.216347	0.512886
C94	C	0.125909	-0.245045	0.444690
C95	C	0.055570	-0.216349	0.512896
C96	C	0.032149	-0.187651	0.581092
C97	C	0.055645	-0.158951	0.649278
C98	C	0.102561	-0.158952	0.649274
C99	C	0.102412	-0.273745	0.376503
C100	C	0.055496	-0.273741	0.376514
C101	C	0.032075	-0.245044	0.444710
C102	C	0.766348	-0.216358	0.512925
C103	C	0.816282	-0.216359	0.512945
C104	C	0.649203	-0.216303	0.790500
C105	C	0.649217	-0.216281	0.908805
C106	C	0.649263	-0.099176	0.512955
C107	C	0.649303	-0.049241	0.512987
C108	C	0.649163	-0.216372	0.236338
C109	C	0.649236	-0.216268	0.118033
C110	C	0.679265	-0.186259	1.048853
C111	C	0.690216	-0.227252	0.978023
C112	C	0.638286	-0.175294	0.978065
C113	C	0.660208	-0.257281	1.048760
C114	C	0.608259	-0.205296	1.048808
C115	C	0.619194	-0.246316	0.978009
H116	H	0.701250	-0.387357	0.389452
H117	H	0.701457	-1.044874	0.389612
H118	H	0.573624	-0.195994	1.079926
H119	H	0.177127	-0.297113	0.320935
H120	H	-0.179298	-0.164291	0.636666
C121	C	0.584886	-0.280649	0.936212
N122	N	0.559051	-0.306510	0.904715
H123	H	-0.179422	-0.268432	0.389226
H124	H	0.724861	-0.236540	0.946926
H125	H	0.478219	-0.164292	0.636574
C126	C	-0.087622	-0.276629	0.369706
N127	N	-0.068225	-0.300412	0.313194
C128	C	0.672766	-0.304114	1.090534
N129	N	0.682227	-0.339387	1.122001
C130	C	0.128169	-0.305318	0.301481
N131	N	0.147567	-0.329103	0.244974
C132	C	0.560091	-0.695020	0.723762
N133	N	0.536278	-0.714453	0.780129
C134	C	0.709502	-0.479166	0.370040
N135	N	0.733326	-0.498588	0.313684
C136	C	0.588932	-1.051598	0.655797
N137	N	0.565117	-1.071034	0.712153
C138	C	0.625783	-0.128474	0.936115
N139	N	0.616369	-0.093208	0.904523
H140	H	0.597124	-0.959784	0.636357
H141	H	0.730071	-0.603171	0.321508
C142	C	0.709646	-0.953047	0.370145
N143	N	0.733461	-0.933611	0.313790
C144	C	0.560065	-0.596506	0.723737
N145	N	0.536240	-0.577081	0.780086
H146	H	0.262235	-0.297108	0.320921
H147	H	0.730100	-0.688278	0.321532
C148	C	0.588757	-0.479211	0.655677
N149	N	0.564948	-0.498650	0.712039
C150	C	-0.087463	-0.156084	0.656147
N151	N	-0.068003	-0.132300	0.712648
H152	H	0.596943	-0.387383	0.636212
C153	C	0.713609	-0.152012	1.090881
N154	N	0.739478	-0.126219	1.122539
C155	C	0.738329	-0.737215	0.302103
N156	N	0.762142	-0.717781	0.245738
C157	C	0.029873	-0.127380	0.724286
N158	N	0.010459	-0.103598	0.780770
H159	H	0.568321	-0.743965	0.704310
C160	C	0.738359	-0.835740	0.302147
N161	N	0.762181	-0.855178	0.245817
H162	H	0.393110	-0.164281	0.636577
C163	C	0.560134	-0.835776	0.723772
N164	N	0.536323	-0.855212	0.780137
H165	H	0.262432	-0.135586	0.704794
H166	H	0.177327	-0.135583	0.704800
H167	H	0.392966	-0.268431	0.389133
C168	C	0.029658	-0.305313	0.301481
N169	N	0.010198	-0.329088	0.244959
C170	C	0.484784	-0.276623	0.369622
N171	N	0.504197	-0.300392	0.313108
H172	H	0.121686	-0.135583	0.704808
