data_functionalizedCrystal
_audit_creation_method	'MofGen! by Chris Wilmer'
_symmetry_space_group_name_H-M	'P1'
_symmetry_Int_Tables_number	1
_symmetry_cell_setting	triclinic
loop_
_symmetry_equiv_pos_as_xyz
  x,y,z
_cell_length_a	10.967926
_cell_length_b	15.995350
_cell_length_c	9.482900
_cell_angle_alpha	99.336743
_cell_angle_beta	92.549900
_cell_angle_gamma	84.114908
loop_
_atom_site_label
_atom_site_type_symbol
_atom_site_fract_x
_atom_site_fract_y
_atom_site_fract_z
O1	O	1.610206	0.147803	0.282524
O2	O	1.260993	0.149639	0.195032
O3	O	1.445145	0.027148	0.241171
O4	O	1.426054	0.270294	0.236385
O5	O	1.407740	0.052133	0.473591
O6	O	1.223587	0.174625	0.427452
O7	O	1.572801	0.172789	0.514944
Cu8	Cu	1.394779	0.175988	0.492420
Cu9	Cu	1.439015	0.146440	0.217556
O10	O	1.388648	0.295280	0.468805
C11	C	1.197603	0.160110	0.300046
C12	C	1.064450	0.154077	0.266685
C13	C	0.985708	0.164330	0.372213
C14	C	0.848087	0.158094	0.337736
C15	C	1.425654	0.008419	0.357181
C16	C	1.423289	-0.084610	0.356580
C17	C	1.414790	-0.422636	0.354455
C18	C	1.283724	-0.379574	0.321076
C19	C	1.286006	-0.282750	0.322193
C20	C	1.419006	-0.254937	0.355508
C21	C	1.462334	-0.279619	0.504437
C22	C	1.459021	-0.376351	0.503722
C23	C	1.504267	-0.405033	0.240095
C24	C	1.504519	-0.308277	0.238333
C25	C	1.421394	-0.160161	0.356110
C26	C	1.412404	-0.517412	0.353864
C27	C	1.636191	0.162317	0.409927
C28	C	1.769346	0.168349	0.443278
C29	C	1.408140	0.314008	0.352792
C30	C	1.410507	0.407036	0.353384
N31	N	1.363674	0.196770	0.685747
N32	N	1.470129	0.125651	0.024231
C33	C	1.429832	0.152565	0.774522
C34	C	1.403961	0.169863	0.935458
H35	H	1.029978	0.140680	0.150815
C36	C	1.261264	0.265187	0.744002
H37	H	1.223101	0.290670	0.667433
H38	H	1.295412	0.307496	0.811940
H39	H	1.202075	0.239592	0.788548
C40	C	1.032264	0.182427	0.528746
H41	H	1.118653	0.184250	0.531383
H42	H	1.012580	0.138608	0.578009
H43	H	0.994289	0.235603	0.573413
C44	C	0.801536	0.140001	0.181195
H45	H	0.715145	0.138190	0.178557
H46	H	0.839512	0.086834	0.136515
H47	H	0.821216	0.183832	0.131943
C48	C	1.635086	-0.443778	0.271596
H49	H	1.635231	-0.470561	0.354001
H50	H	1.688807	-0.400020	0.288081
H51	H	1.661912	-0.484674	0.192142
C52	C	0.815887	0.186447	0.599823
H53	H	0.748638	0.192065	0.661557
H54	H	0.854718	0.237711	0.614955
H55	H	0.873006	0.140714	0.619539
H56	H	1.401509	-0.242098	0.591950
C57	C	1.532222	0.084136	0.716256
H58	H	1.536182	0.081490	0.615733
H59	H	1.515149	0.030413	0.736857
H60	H	1.608514	0.098299	0.760220
H61	H	1.545924	0.074992	0.981097
H62	H	1.328158	0.220515	0.978590
H63	H	1.250469	-0.266229	0.214313
H64	H	1.559250	-0.261747	0.533849
H65	H	1.216305	-0.390711	0.402648
C66	C	1.462070	-0.287755	0.089705
H67	H	1.392529	-0.246849	0.099008
H68	H	1.440995	-0.338227	0.030210
H69	H	1.526498	-0.265508	0.048215
H70	H	1.246622	-0.410062	0.212766
H71	H	1.219478	-0.246324	0.404669
H72	H	1.554341	-0.404783	0.533864
C73	C	1.373716	-0.388768	0.621770
H74	H	1.341403	-0.334764	0.669706
H75	H	1.418761	-0.419271	0.688261
H76	H	1.308333	-0.419918	0.580158
C77	C	1.637288	-0.284385	0.260326
H78	H	1.642330	-0.241380	0.341627
H79	H	1.661080	-0.263813	0.178162
H80	H	1.690366	-0.333228	0.274796
C81	C	1.468211	-0.449288	0.089686
H82	H	1.398241	-0.478916	0.095230
H83	H	1.534422	-0.488429	0.052358
H84	H	1.449692	-0.407810	0.028684
