data_functionalizedCrystal
_audit_creation_method	'MofGen! by Chris Wilmer'
_symmetry_space_group_name_H-M	'P1'
_symmetry_Int_Tables_number	1
_symmetry_cell_setting	triclinic
loop_
_symmetry_equiv_pos_as_xyz
  x,y,z
_cell_length_a	15.944551
_cell_length_b	17.038272
_cell_length_c	15.021413
_cell_angle_alpha	90.004029
_cell_angle_beta	89.997174
_cell_angle_gamma	87.305147
loop_
_atom_site_label
_atom_site_type_symbol
_atom_site_fract_x
_atom_site_fract_y
_atom_site_fract_z
O1	O	1.121728	0.100827	-0.073940
O2	O	0.878066	0.113259	-0.073962
O3	O	0.998449	-0.006773	-0.073944
O4	O	1.001345	0.220859	-0.073958
O5	O	0.998429	-0.006755	0.074120
O6	O	0.878046	0.113277	0.074102
O7	O	1.121708	0.100844	0.074125
Zn8	Zn	0.999874	0.107063	0.097622
Zn9	Zn	0.999900	0.107041	-0.097459
O10	O	1.001326	0.220876	0.074107
C11	C	0.846725	0.112752	0.000067
C12	C	0.753369	0.111205	0.000059
C13	C	0.532936	0.033105	0.000081
C14	C	0.474515	0.069363	-0.072924
C15	C	0.582443	0.108405	0.000070
C16	C	0.474519	0.069398	0.073055
C17	C	0.417337	0.105696	0.000084
C18	C	0.525252	0.144684	-0.072996
C19	C	0.525262	0.144709	0.073049
C20	C	0.466862	0.181022	0.000026
C21	C	0.677557	0.109964	0.000061
C22	C	0.322225	0.104143	0.000087
C23	C	0.995805	-0.035893	0.000088
C24	C	0.987945	-0.122688	0.000087
C25	C	1.060103	-0.172781	0.000094
C26	C	1.052713	-0.254334	0.000085
C27	C	0.973165	-0.285792	0.000075
C28	C	0.901002	-0.235693	0.000065
C29	C	0.908393	-0.154142	0.000068
C30	C	0.947056	-0.531558	0.000061
C31	C	0.939671	-0.613115	0.000060
C32	C	1.091383	-0.631751	0.000079
C33	C	1.098766	-0.550197	0.000087
C34	C	1.026603	-0.500105	0.000072
C35	C	0.965610	-0.369152	0.000069
C36	C	1.034159	-0.416747	0.000073
C37	C	1.153049	0.101352	0.000093
C38	C	1.246405	0.102899	0.000096
C39	C	1.003969	0.249997	0.000073
C40	C	1.011829	0.336792	0.000068
N41	N	0.999863	0.107078	0.230759
N42	N	0.999917	0.107019	-0.230597
C43	C	0.944187	0.162555	0.470434
C44	C	1.021171	0.177734	0.529775
C45	C	0.999883	0.107059	0.412366
C46	C	0.922921	0.091897	0.529768
C47	C	0.999896	0.107041	0.587790
C48	C	1.076908	0.122273	0.470400
C49	C	0.978606	0.036405	0.470388
C50	C	1.055643	0.051554	0.529702
C51	C	0.999875	0.107070	0.311309
C52	C	0.999913	0.107029	0.688846
H53	H	0.452139	0.037507	-0.134642
H54	H	1.111472	-0.295117	0.000093
H55	H	0.547520	0.176503	-0.134784
H56	H	0.888296	-0.490782	0.000049
H57	H	0.547657	0.176539	0.134769
H58	H	0.452150	0.037542	0.134774
H59	H	0.857830	0.079081	0.555848
O60	O	0.887957	0.218541	0.439485
C61	C	0.807071	0.203165	0.471011
H62	H	0.812697	0.165867	0.533917
H63	H	0.771330	0.261025	0.486746
H64	H	0.771780	0.170174	0.417864
H65	H	0.960575	-0.023318	0.444282
O66	O	1.176020	-0.519599	0.000249
C67	C	1.184811	-0.472964	0.076922
H68	H	1.139536	-0.492253	0.130517
H69	H	1.251982	-0.480273	0.102667
H70	H	1.170028	-0.408656	0.059585
H71	H	0.438170	0.243580	-0.000019
O72	O	1.137441	-0.142356	0.000063
C73	C	1.199543	-0.204061	0.000087
H74	H	1.172038	-0.259462	-0.027946
H75	H	1.254734	-0.187021	-0.042898
H76	H	1.222075	-0.215596	0.071121
O77	O	1.042518	0.249058	0.560861
C78	C	0.983646	0.307412	0.530652
H79	H	0.922047	0.279374	0.514000
H80	H	0.972305	0.353424	0.584970
H81	H	1.008978	0.336624	0.468562
O82	O	1.111448	-0.386229	-0.000076
C83	C	1.155815	-0.411842	-0.076741
H84	H	1.109413	-0.428818	-0.130346
H85	H	1.195080	-0.362435	-0.102475
H86	H	1.198827	-0.464984	-0.059397
H87	H	1.142018	0.135160	0.444432
O88	O	1.111963	-0.004458	0.560410
C89	C	1.151741	-0.043166	0.487783
H90	H	1.147723	-0.003437	0.426725
H91	H	1.220458	-0.057440	0.504758
H92	H	1.119210	-0.099922	0.473139
O93	O	0.567322	-0.041469	-0.000158
C94	C	0.541519	-0.080894	-0.077264
H95	H	0.522731	-0.036016	-0.130794
H96	H	0.595440	-0.121106	-0.102744
H97	H	0.485525	-0.117439	-0.060605
H98	H	1.150134	-0.672544	0.000090
H99	H	0.874891	-0.638725	0.000067
H100	H	0.836233	-0.261313	0.000051
H101	H	0.849634	-0.113356	0.000061
H102	H	0.900842	-0.394774	0.000062
