data_functionalizedCrystal
_audit_creation_method	'MofGen! by Chris Wilmer'
_symmetry_space_group_name_H-M	'P1'
_symmetry_Int_Tables_number	1
_symmetry_cell_setting	triclinic
loop_
_symmetry_equiv_pos_as_xyz
  x,y,z
_cell_length_a	14.519731
_cell_length_b	13.596369
_cell_length_c	10.654550
_cell_angle_alpha	90.005825
_cell_angle_beta	84.086892
_cell_angle_gamma	90.005416
loop_
_atom_site_label
_atom_site_type_symbol
_atom_site_fract_x
_atom_site_fract_y
_atom_site_fract_z
O1	O	1.224711	0.081793	0.164753
O2	O	0.956337	0.081795	0.184111
O3	O	1.096694	0.081788	-0.008366
O4	O	1.084353	0.081800	0.357230
O5	O	1.096680	-0.081795	-0.008376
O6	O	0.956323	-0.081788	0.184101
O7	O	1.224696	-0.081790	0.164742
Zn8	Zn	1.090507	-0.107761	0.174420
Zn9	Zn	1.090526	0.107766	0.174434
O10	O	1.084339	-0.081783	0.357220
C11	C	0.921965	0.000003	0.183199
C12	C	0.819571	0.000004	0.180481
C13	C	0.736416	0.000008	0.178272
C14	C	0.632093	0.000008	0.175513
C15	C	0.548942	0.000008	0.173322
C16	C	0.444612	0.000010	0.170563
N17	N	1.090501	-0.254853	0.174410
C18	C	1.090525	-0.656144	0.174435
C19	C	1.090515	-0.544493	0.174432
C20	C	1.090513	-0.455502	0.174423
C21	C	1.090503	-0.343844	0.174419
C22	C	1.259068	0.000004	0.165655
C23	C	1.361462	0.000010	0.168373
C24	C	1.095781	-0.000003	-0.055160
C25	C	1.093070	-0.000002	-0.194578
N26	N	1.090539	0.254858	0.174434
C27	C	1.175710	-0.000002	-0.274850
C28	C	1.173157	0.000010	-0.405846
C29	C	1.005317	0.000018	-0.376286
C30	C	1.007871	0.000013	-0.245293
C31	C	1.085252	0.000010	0.404014
C32	C	1.087963	0.000015	0.543432
H33	H	1.245085	-0.000012	-0.233562
H34	H	1.240451	0.000012	-0.471199
H35	H	0.940571	0.000016	-0.179931
O36	O	0.922638	-0.000020	-0.425762
C37	C	0.938102	0.000006	-0.558595
H38	H	1.009871	-0.030965	-0.589192
H39	H	0.883532	-0.047486	-0.598946
H40	H	0.933406	0.078485	-0.595057
