data_functionalizedCrystal
_audit_creation_method	'MofGen! by Chris Wilmer'
_symmetry_space_group_name_H-M	'P1'
_symmetry_Int_Tables_number	1
_symmetry_cell_setting	triclinic
loop_
_symmetry_equiv_pos_as_xyz
  x,y,z
_cell_length_a	11.792241
_cell_length_b	9.565339
_cell_length_c	11.792241
_cell_angle_alpha	89.999012
_cell_angle_beta	95.806584
_cell_angle_gamma	89.993067
loop_
_atom_site_label
_atom_site_type_symbol
_atom_site_fract_x
_atom_site_fract_y
_atom_site_fract_z
O1	O	1.506897	0.116125	-0.155563
O2	O	1.176556	0.116157	-0.171595
O3	O	1.349743	0.116130	0.001592
O4	O	1.333710	0.116152	-0.328750
O5	O	1.349751	-0.116390	0.001586
O6	O	1.176564	-0.116363	-0.171601
O7	O	1.506905	-0.116395	-0.155568
Zn8	Zn	1.341736	-0.153297	-0.163585
Zn9	Zn	1.341726	0.153059	-0.163578
O10	O	1.333718	-0.116368	-0.328755
C11	C	1.134269	-0.000099	-0.170591
C12	C	1.008255	-0.000086	-0.167576
N13	N	1.341751	-0.362376	-0.163589
C14	C	0.777543	-0.000127	-0.162034
C15	C	0.905928	-0.000105	-0.165113
C16	C	1.421870	-0.453554	-0.083501
C17	C	1.319170	-0.546716	-0.060824
C18	C	1.444410	-0.546770	-0.186192
C19	C	1.238999	-0.453486	-0.140861
C20	C	1.364307	-0.453532	-0.266273
C21	C	1.261533	-0.546651	-0.243640
C22	C	1.549192	-0.000136	-0.156572
C23	C	1.675206	-0.000139	-0.159587
C24	C	1.348740	-0.000129	0.043880
C25	C	1.345726	-0.000127	0.169894
N26	N	1.341719	0.362138	-0.163565
C27	C	1.334721	-0.000106	-0.371043
C28	C	1.337736	-0.000098	-0.497057
C29	C	1.340183	-0.000103	0.400606
C30	C	1.343262	-0.000116	0.272221
H31	H	1.300070	-0.587648	0.026023
H32	H	1.152147	-0.412683	-0.121635
H33	H	1.193691	-0.587270	-0.311361
H34	H	1.531241	-0.587745	-0.205320
N35	N	1.389642	-0.399258	-0.381276
H36	H	1.467262	-0.433129	-0.398289
H37	H	1.388658	-0.293685	-0.380559
H38	H	1.489559	-0.412675	-0.015738
