data_functionalizedCrystal
_audit_creation_method	'MofGen! by Chris Wilmer'
_symmetry_space_group_name_H-M	'P1'
_symmetry_Int_Tables_number	1
_symmetry_cell_setting	triclinic
loop_
_symmetry_equiv_pos_as_xyz
  x,y,z
_cell_length_a	9.482900
_cell_length_b	10.723024
_cell_length_c	10.723024
_cell_angle_alpha	84.467869
_cell_angle_beta	99.424795
_cell_angle_gamma	80.621218
loop_
_atom_site_label
_atom_site_type_symbol
_atom_site_fract_x
_atom_site_fract_y
_atom_site_fract_z
O1	O	0.120882	-1.676469	-0.155657
O2	O	0.120887	-1.313317	-0.172409
O3	O	0.120879	-1.503269	0.017542
O4	O	0.120890	-1.486518	-0.345608
O5	O	-0.120912	-1.464687	-0.021197
O6	O	-0.120904	-1.274735	-0.211149
O7	O	-0.120909	-1.637887	-0.194396
Cu8	Cu	-0.142984	-1.452788	-0.206310
Cu9	Cu	0.142962	-1.498416	-0.160496
O10	O	-0.120901	-1.447935	-0.384348
C11	C	-0.000008	-1.247527	-0.190560
C12	C	-0.000007	-1.108973	-0.186912
N13	N	-0.344103	-1.420705	-0.238532
C14	C	-0.000015	-1.482759	0.044673
C15	C	-0.000010	-1.479112	0.183228
C16	C	-0.416305	-1.488944	-0.169993
C17	C	-0.583721	-1.462260	-0.196813
N18	N	0.344081	-1.530509	-0.128263
C19	C	-0.000011	-1.703678	-0.176245
C20	C	-0.000003	-1.842234	-0.179892
C21	C	-0.000002	-1.033991	-0.293199
C22	C	-0.000001	-0.890788	-0.289431
C23	C	-0.000004	-1.468446	-0.411477
C24	C	0.000000	-1.472094	-0.550031
C25	C	-0.000009	-1.585400	0.258210
C26	C	-0.000004	-1.581633	0.401415
H27	H	-0.354180	-1.567118	-0.091454
N28	N	-0.665992	-1.358689	-0.300840
H29	H	-0.773927	-1.354304	-0.305251
H30	H	-0.639461	-1.378314	-0.385207
N31	N	-0.573641	-1.634065	-0.024224
H32	H	-0.510472	-1.699888	-0.062179
H33	H	-0.644916	-1.675839	0.017796
H34	H	-0.000008	-1.075812	-0.386985
N35	N	-0.000025	-0.927562	-0.059356
H36	H	-0.000029	-0.875477	0.014261
H37	H	0.089608	-0.996484	-0.041534
N38	N	0.000017	-0.805456	-0.409964
H39	H	0.000020	-0.715253	-0.390187
H40	H	-0.089616	-0.807770	-0.474542
H41	H	0.000028	-1.067156	-0.093120
H42	H	-0.406230	-1.342523	-0.317062
N43	N	-0.000028	-1.709635	0.202827
H44	H	-0.000039	-1.694715	0.108375
H45	H	-0.089672	-1.744336	0.217239
H46	H	-0.000010	-1.672623	0.465846
N47	N	-0.000021	-1.351558	0.364625
H48	H	0.089604	-1.362285	0.324344
H49	H	-0.000077	-1.277995	0.416779
N50	N	-0.000015	-1.354881	0.238622
H51	H	-0.089649	-1.291501	0.195593
H52	H	0.089674	-1.320206	0.224303
