data_functionalizedCrystal
_audit_creation_method	'MofGen! by Chris Wilmer'
_symmetry_space_group_name_H-M	'P1'
_symmetry_Int_Tables_number	1
_symmetry_cell_setting	triclinic
loop_
_symmetry_equiv_pos_as_xyz
  x,y,z
_cell_length_a	19.121274
_cell_length_b	11.169416
_cell_length_c	11.169409
_cell_angle_alpha	89.971970
_cell_angle_beta	92.415496
_cell_angle_gamma	87.572198
loop_
_atom_site_label
_atom_site_type_symbol
_atom_site_fract_x
_atom_site_fract_y
_atom_site_fract_z
Zn1	Zn	-1.073773	0.556035	0.600432
Zn2	Zn	-0.573773	1.056035	1.100432
Zn3	Zn	-1.073703	0.756771	0.399769
Zn4	Zn	-0.573703	1.256771	0.899769
Zn5	Zn	-0.956319	0.547538	0.408314
Zn6	Zn	-0.456319	1.047538	0.908314
Zn7	Zn	-0.956318	0.748107	0.608957
Zn8	Zn	-0.456318	1.248107	1.108957
O9	O	-1.015028	0.652113	0.504368
O10	O	-0.515028	1.152113	1.004368
O11	O	-1.172045	0.589845	0.566669
O12	O	-0.672045	1.089845	1.066669
O13	O	-1.058103	0.729085	0.232955
O14	O	-0.558103	1.229085	0.732955
O15	O	-0.971929	0.380718	0.433807
O16	O	-0.471929	0.880718	0.933807
O17	O	-1.171993	0.737325	0.419243
O18	O	-0.671993	1.237325	0.919243
O19	O	-1.058222	0.386961	0.574955
O20	O	-0.558222	0.886961	1.074955
O21	O	-0.971861	0.575363	0.239233
O22	O	-0.471861	1.075363	0.739233
O23	O	-0.858038	0.566962	0.442074
O24	O	-0.358038	1.066962	0.942074
O25	O	-0.971927	0.722559	0.775774
O26	O	-0.471927	1.222559	1.275774
O27	O	-0.858037	0.714320	0.589485
O28	O	-0.358037	1.214320	1.089485
O29	O	-1.058221	0.581445	0.769510
O30	O	-0.558221	1.081445	1.269510
O31	O	-1.058101	0.923569	0.427510
O32	O	-0.558101	1.423569	0.927510
O33	O	-0.971859	0.917204	0.581199
O34	O	-0.471859	1.417204	1.081199
C35	C	-0.832554	0.638780	0.517633
C36	C	-0.332554	1.138780	1.017633
C37	C	-0.754491	0.633104	0.523336
C38	C	-0.254491	1.133104	1.023336
C39	C	-1.014991	0.963935	0.504377
C40	C	-0.514991	1.463935	1.004377
C41	C	-1.015040	1.097338	0.504416
C42	C	-0.515040	1.597338	1.004416
C43	C	-1.015082	0.651984	0.817407
C44	C	-0.515082	1.151984	1.317407
C45	C	-1.015105	0.651928	0.950805
C46	C	-0.515105	1.151928	1.450805
C47	C	-0.717787	0.707098	0.449144
C48	C	-0.217787	1.207098	0.949144
C49	C	-0.644438	0.701766	0.454518
C50	C	-0.144438	1.201766	0.954518
C51	C	-0.607795	0.622433	0.534079
C52	C	-0.107795	1.122433	1.034079
C53	C	-0.644504	0.548437	0.608279
C54	C	-0.144504	1.048437	1.108279
C55	C	-0.717851	0.553776	0.602910
C56	C	-0.217851	1.053776	1.102910
C57	C	-0.386335	0.602483	0.554143
C58	C	0.113665	1.102483	1.054143
C59	C	-0.312982	0.597147	0.559504
C60	C	0.187018	1.097147	1.059504
C61	C	-0.312921	0.750479	0.405744
C62	C	0.187079	1.250479	0.905744
C63	C	-0.386270	0.755806	0.400377
C64	C	0.113730	1.255806	0.900377
C65	C	-0.422973	0.681813	0.474581
C66	C	0.077027	1.181813	0.974581
C67	C	-0.532820	0.616978	0.539572
C68	C	-0.032820	1.116978	1.039572
C69	C	-0.497945	0.687275	0.469093
C70	C	0.002055	1.187275	0.969093
C71	C	-0.198215	0.665483	0.491036
C72	C	0.301785	1.165483	0.991036
C73	C	-0.276278	0.671141	0.485312
C74	C	0.223722	1.171141	0.985312
C75	C	-1.015077	1.339074	0.504397
C76	C	-0.515077	1.839074	1.004397
C77	C	-1.015080	1.205674	0.504442
C78	C	-0.515080	1.705674	1.004442
C79	C	-1.015015	0.652158	0.192544
C80	C	-0.515015	1.152158	0.692544
C81	C	-1.015128	0.651885	0.059136
C82	C	-0.515128	1.151885	0.559136
H83	H	-0.747616	0.771695	0.384352
H84	H	-0.247616	1.271695	0.884352
N85	N	-0.537466	0.772827	0.383274
N86	N	-0.037466	1.272827	0.883274
H87	H	-0.503087	0.818894	0.337079
H88	H	-0.003087	1.318894	0.837079
H89	H	-0.567912	0.830642	0.429806
H90	H	-0.067912	1.330642	0.929806
N91	N	-0.604849	0.781570	0.374495
N92	N	-0.104849	1.281570	0.874495
H93	H	-0.639192	0.832629	0.323272
H94	H	-0.139192	1.332629	0.823272
H95	H	-0.574401	0.730431	0.321267
H96	H	-0.074401	1.230431	0.821267
H97	H	-0.283030	0.810721	0.345333
H98	H	0.216970	1.310721	0.845333
N99	N	-0.425781	0.841388	0.314568
N100	N	0.074219	1.341388	0.814568
H101	H	-0.456224	0.899277	0.361025
H102	H	0.043776	1.399277	0.861025
H103	H	-0.456157	0.794685	0.256815
H104	H	0.043843	1.294685	0.756815
N105	N	-0.273457	0.511581	0.645324
N106	N	0.226543	1.011581	1.145324
H107	H	-0.307837	0.465520	0.691521
H108	H	0.192163	0.965520	1.191521
H109	H	-0.243039	0.558294	0.703002
H110	H	0.256961	1.058294	1.203002
H111	H	-0.416209	0.542235	0.614566
H112	H	0.083791	1.042235	1.114566
H113	H	-0.614663	0.483848	0.673065
H114	H	-0.114663	0.983848	1.173065
N115	N	-0.757443	0.473975	0.682936
N116	N	-0.257443	0.973975	1.182936
H117	H	-0.723101	0.422906	0.734152
H118	H	-0.223101	0.922906	1.234152
H119	H	-0.787865	0.420591	0.631949
H120	H	-0.287865	0.920591	1.131949
N121	N	-0.493300	0.531405	0.625379
N122	N	0.006700	1.031405	1.125379
H123	H	-0.462884	0.578030	0.683143
H124	H	0.037116	1.078030	1.183143
H125	H	-0.462895	0.473542	0.578828
H126	H	0.037105	0.973542	1.078828
