data_functionalizedCrystal
_audit_creation_method	'MofGen! by Chris Wilmer'
_symmetry_space_group_name_H-M	'P1'
_symmetry_Int_Tables_number	1
_symmetry_cell_setting	triclinic
loop_
_symmetry_equiv_pos_as_xyz
  x,y,z
_cell_length_a	15.995350
_cell_length_b	15.995300
_cell_length_c	15.072220
_cell_angle_alpha	90.006552
_cell_angle_beta	89.987662
_cell_angle_gamma	83.482091
loop_
_atom_site_label
_atom_site_type_symbol
_atom_site_fract_x
_atom_site_fract_y
_atom_site_fract_z
O1	O	1.110952	0.107938	0.073642
O2	O	0.867175	0.121266	0.073672
O3	O	0.995749	-0.007288	0.073661
O4	O	0.982378	0.236493	0.073653
O5	O	0.995766	-0.007311	-0.073905
O6	O	0.867191	0.121244	-0.073893
O7	O	1.110969	0.107916	-0.073923
Zn8	Zn	0.989082	0.114576	-0.097337
Zn9	Zn	0.989061	0.114606	0.097086
O10	O	0.982394	0.236470	-0.073912
C11	C	0.835988	0.120704	-0.000107
C12	C	0.743038	0.119052	-0.000095
C13	C	0.995212	-0.038495	-0.000119
C14	C	0.993577	-0.131448	-0.000110
C15	C	1.142155	0.108478	-0.000142
C16	C	1.235105	0.110130	-0.000148
C17	C	0.990558	-0.301631	-0.000118
C18	C	1.082106	-0.349096	-0.000127
C19	C	1.080435	-0.445784	-0.000466
C20	C	0.987586	-0.469187	-0.000125
C21	C	0.942175	-0.428066	-0.084220
C22	C	0.944492	-0.331432	-0.084288
C23	C	0.943117	-0.331131	0.083527
C24	C	0.943126	-0.428075	0.084629
C25	C	0.985901	-0.563883	-0.000132
C26	C	0.992239	-0.206935	-0.000117
C27	C	1.572852	0.116062	-0.000113
C28	C	1.525401	0.207616	-0.000449
C29	C	1.428711	0.205964	-0.000126
C30	C	1.405292	0.113120	-0.000131
C31	C	1.446351	0.067975	0.084139
C32	C	1.542986	0.070275	0.084219
C33	C	1.543397	0.068358	-0.083590
C34	C	1.446452	0.068380	-0.084713
C35	C	1.310595	0.111452	-0.000138
C36	C	1.667549	0.117727	-0.000099
C37	C	0.982931	0.267677	-0.000130
C38	C	0.984566	0.360630	-0.000134
N39	N	0.989047	0.114620	0.229775
N40	N	0.989103	0.114555	-0.230026
C41	C	0.989084	0.114577	0.588976
C42	C	0.920360	0.183438	0.551375
C43	C	0.920105	0.183274	0.448550
C44	C	0.989066	0.114599	0.410772
C45	C	0.970229	0.027161	0.448085
C46	C	0.969746	0.027552	0.550943
C47	C	1.076849	0.132372	0.551050
C48	C	1.076252	0.134371	0.448186
C49	C	0.989057	0.114606	0.310059
C50	C	0.989092	0.114564	0.689690
H51	H	1.116119	-0.474240	0.059802
F52	F	0.982499	-0.304319	0.166868
H53	H	1.575167	0.000855	-0.084154
F54	F	0.834966	0.168391	0.416399
H55	H	1.400821	0.241706	0.060381
H56	H	1.544969	0.244056	0.059645
F57	F	0.934718	0.268219	0.415575
H58	H	1.432237	-0.000235	0.087269
F59	F	0.835704	0.168763	0.585175
H60	H	1.118380	-0.329437	-0.060306
H61	H	1.018960	-0.025317	0.423612
F62	F	0.982915	-0.465140	-0.166342
F63	F	1.566877	0.113330	0.166554
F64	F	1.143693	0.066742	0.582834
F65	F	1.130186	-0.324922	0.078686
F66	F	0.986467	-0.463800	0.165951
F67	F	1.100591	0.213936	0.584973
H68	H	0.875434	-0.443419	0.089969
H69	H	0.873952	-0.442166	-0.087103
F70	F	1.094943	0.218447	0.416317
F71	F	0.887530	0.006220	0.414430
H72	H	0.905747	0.011904	0.574944
F73	F	1.146205	0.073095	0.414573
F74	F	0.854894	-0.289592	0.084597
F75	F	1.032698	-0.041451	0.583455
F76	F	1.126890	-0.482198	-0.079731
H77	H	0.977232	-0.313121	-0.147397
H78	H	1.563953	0.098281	-0.147457
H79	H	0.877268	-0.299160	-0.087869
H80	H	1.575245	0.003058	0.088057
F81	F	1.391574	0.252360	-0.079076
H82	H	1.417921	0.099328	0.146846
F83	F	1.550062	0.255621	-0.079116
F84	F	1.410788	0.111464	-0.166201
H85	H	1.431106	0.000672	-0.089803
F86	F	0.934735	0.268661	0.583726
