data_functionalizedCrystal
_audit_creation_method	'MofGen! by Chris Wilmer'
_symmetry_space_group_name_H-M	'P1'
_symmetry_Int_Tables_number	1
_symmetry_cell_setting	triclinic
loop_
_symmetry_equiv_pos_as_xyz
  x,y,z
_cell_length_a	14.446369
_cell_length_b	14.446369
_cell_length_c	14.446369
_cell_angle_alpha	119.993414
_cell_angle_beta	90.002026
_cell_angle_gamma	120.005960
loop_
_atom_site_label
_atom_site_type_symbol
_atom_site_fract_x
_atom_site_fract_y
_atom_site_fract_z
Zr1	Zr	0.891699	-1.013176	-0.121385
O2	O	0.743876	-1.206293	-0.269181
O3	O	0.937024	-0.820059	-0.076085
O4	O	0.937010	-1.013165	-0.269184
O5	O	0.743889	-1.013195	0.076247
O6	O	1.089347	-1.013157	-0.269179
O7	O	0.743889	-1.013186	-0.076081
O8	O	1.089372	-0.667724	0.076241
O9	O	0.743865	-1.358627	-0.269173
O10	O	1.070030	-0.899484	-0.056752
O11	O	0.956343	-0.899497	0.056925
O12	O	0.956327	-1.126855	-0.170425
O13	O	0.842639	-1.126867	-0.056748
Zr14	Zr	1.134658	-1.013176	0.121571
Zr15	Zr	1.134659	-1.013162	-0.121376
Zr16	Zr	0.891698	-1.013189	0.121562
Zr17	Zr	0.891681	-1.256131	-0.121372
Zr18	Zr	1.134676	-0.770220	0.121557
O19	O	1.089333	-1.206293	0.076271
O20	O	1.089334	-1.206274	-0.269168
O21	O	0.743875	-1.206312	0.076258
O22	O	1.282481	-0.820059	0.269367
O23	O	1.282482	-0.820040	-0.076072
O24	O	0.937023	-0.820078	0.269354
O25	O	1.282468	-1.013157	-0.076061
O26	O	1.089347	-1.013186	0.269370
O27	O	0.937009	-1.013195	0.269365
O28	O	1.282468	-1.013165	0.076267
O29	O	0.936986	-1.358617	-0.269166
O30	O	1.089371	-0.667735	0.269351
O31	O	1.282492	-0.667724	0.269359
O32	O	1.282492	-0.667714	0.076248
O33	O	0.743864	-1.358638	-0.076062
O34	O	0.936985	-1.358627	-0.076055
O35	O	1.070030	-0.899497	0.170611
O36	O	1.183718	-0.899484	0.056934
O37	O	1.070014	-1.126855	-0.056739
O38	O	0.956326	-1.126867	0.056938
C39	C	1.013200	-0.709276	0.000076
C40	C	1.013207	-0.606135	0.000071
C41	C	1.084549	-0.459812	-0.071982
C42	C	1.084950	-0.566736	-0.071670
C43	C	1.065516	-0.479282	0.123591
C44	C	1.066039	-0.371904	0.123196
C45	C	0.889467	-0.546878	-0.050398
C46	C	0.889661	-0.655351	-0.052898
C47	C	0.709272	-1.013192	0.000082
C48	C	0.606129	-1.013198	0.000078
C49	C	0.387750	-1.156586	-0.071254
C50	C	0.494982	-1.156682	-0.071655
C51	C	0.602811	-0.941964	-0.052224
C52	C	0.495042	-0.942874	-0.052747
C53	C	0.496406	-0.939931	0.123803
C54	C	0.602375	-0.942633	0.123608
C55	C	1.317084	-1.013159	0.000104
C56	C	1.420227	-1.013153	0.000108
C57	C	1.013164	-0.317078	0.000099
C58	C	1.013178	-0.420225	0.000072
C59	C	1.013179	-1.013159	-0.303796
C60	C	1.013179	-1.013153	-0.406934
C61	C	1.085249	-0.869766	-0.481921
C62	C	1.084937	-0.869669	-0.374593
C63	C	0.889644	-1.084387	-0.481494
C64	C	0.890039	-1.083477	-0.588353
C65	C	1.063646	-1.086421	-0.589920
C66	C	1.066146	-1.083718	-0.481249
C67	C	1.013178	-1.013192	0.303982
C68	C	1.013178	-1.013198	0.407120
C69	C	1.317106	-0.709259	0.000087
C70	C	1.420256	-0.606112	0.000086
C71	C	1.013200	-0.709292	0.303966
C72	C	1.013207	-0.606157	0.407097
C73	C	1.317106	-0.709276	0.303977
C74	C	1.420256	-0.606135	0.407112
C75	C	0.709251	-1.317076	-0.303791
C76	C	0.606101	-1.420217	-0.406926
C77	C	0.709251	-1.317093	0.000099
C78	C	0.606100	-1.420239	0.000100
C79	C	1.013157	-1.317059	-0.303780
C80	C	1.013150	-1.420195	-0.406911
C81	C	1.638636	-0.459792	0.071410
C82	C	1.531396	-0.566720	0.071822
C83	C	1.423594	-0.479258	0.052375
C84	C	1.531370	-0.371876	0.052886
C85	C	1.529985	-0.546843	-0.123655
C86	C	1.424008	-0.655320	-0.123448
C87	C	0.941168	-0.459848	0.482069
C88	C	0.941465	-0.566768	0.374746
C89	C	1.136749	-0.479299	0.481648
C90	C	1.136369	-0.371925	0.588501
C91	C	0.962749	-0.546905	0.590091
C92	C	0.960234	-0.655374	0.481425
C93	C	1.495253	-0.459802	0.625464
C94	C	1.387911	-0.566745	0.518240
C95	C	1.494809	-0.479283	0.410419
C96	C	1.601681	-0.371886	0.518180
C97	C	1.603282	-0.546828	0.516851
C98	C	1.494598	-0.655320	0.410890
H99	H	1.049640	-0.497051	-0.163175
Cl100	Cl	0.989130	-0.513630	0.210085
Cl101	Cl	0.801011	-0.704721	0.290955
Cl102	Cl	1.721939	-0.517285	0.017532
Cl103	Cl	1.032836	-0.704984	0.520830
Cl104	Cl	0.829309	-0.795086	-0.193384
Cl105	Cl	0.993517	-1.245342	-0.520653
H106	H	0.446379	-0.985828	0.167495
H107	H	0.333790	-1.212881	-0.036348
H108	H	0.849968	-0.497092	0.479733
Cl109	Cl	1.535189	-0.508889	0.212705
H110	H	0.845760	-0.586421	-0.139969
H111	H	0.332762	-1.212601	-0.161950
H112	H	1.580000	-0.586410	-0.167340
Cl113	Cl	1.224598	-0.321374	-0.018441
H114	H	0.493218	-1.212856	-0.036845
H115	H	1.581724	-0.281123	0.143906
Cl116	Cl	1.493649	-0.321380	0.710336
Cl117	Cl	1.490230	-0.325615	-0.022184
H118	H	0.833418	-1.188711	-0.666929
H119	H	1.050565	-0.813754	-0.480892
Cl120	Cl	0.536197	-0.780407	0.022293
Cl121	Cl	0.803131	-1.247271	-0.523532
H122	H	0.523852	-0.834272	0.177225
Cl123	Cl	1.206589	-0.231779	0.185579
H124	H	1.155686	-0.440722	0.164282
Cl125	Cl	1.030808	-0.782924	-0.291598
Cl126	Cl	1.424786	-0.795035	-0.183767
H127	H	1.334113	-0.529298	0.520681
Cl128	Cl	1.487611	-0.508570	-0.206144
Cl129	Cl	0.995523	-0.508924	0.291695
H130	H	0.601853	-0.994572	0.162681
H131	H	0.975861	-0.370181	0.481030
Cl132	Cl	1.198761	-0.231805	0.588074
H133	H	1.522045	-0.501527	0.332161
H134	H	1.333642	-0.656091	0.519868
Cl135	Cl	1.301792	-0.704916	-0.212454
H136	H	0.832010	-0.687482	-0.005869
H137	H	1.153240	-1.040517	-0.594035
H138	H	0.492532	-1.212907	-0.162901
H139	H	1.345324	-0.501505	0.002898
H140	H	0.444694	-0.993490	-0.143770
Cl141	Cl	1.724047	-0.508541	0.474478
Cl142	Cl	0.724580	-0.780995	0.212602
Cl143	Cl	0.806980	-0.508615	0.030241
H144	H	0.869221	-0.745870	0.430007
Cl145	Cl	0.723660	-0.779079	0.024156
H146	H	1.443190	-0.440745	0.408269
Cl147	Cl	0.982987	-1.249554	-0.710669
H148	H	1.192982	-0.341969	0.667081
Cl149	Cl	0.606098	-1.018340	-0.191425
Cl150	Cl	1.420310	-0.419724	0.191579
H151	H	1.175905	-0.813781	-0.320319
Cl152	Cl	1.226061	-0.782833	-0.478312
H153	H	1.192768	-0.501544	0.508882
Cl154	Cl	1.601254	-0.231783	0.595888
Cl155	Cl	1.199582	-0.419754	0.401976
H156	H	0.873156	-0.586482	0.594206
H157	H	1.017414	-0.341954	0.179800
H158	H	1.014989	-0.522116	0.668306
Cl159	Cl	1.723013	-0.325613	0.477039
H160	H	1.492925	-0.497029	0.679432
H161	H	1.607410	-0.586386	0.566881
H162	H	0.849635	-1.032861	-0.588088
Cl163	Cl	0.826817	-1.008012	-0.401836
Cl164	Cl	1.415220	-0.795023	0.411715
Cl165	Cl	1.534009	-0.704914	0.288690
Cl166	Cl	1.533830	-0.704709	0.017596
Cl167	Cl	1.225846	-0.508892	-0.017614
Cl168	Cl	1.206662	-1.003531	-0.401859
Cl169	Cl	1.030782	-0.704684	-0.212101
H170	H	1.693628	-0.370127	0.162102
