data_functionalizedCrystal
_audit_creation_method	'MofGen! by Chris Wilmer'
_symmetry_space_group_name_H-M	'P1'
_symmetry_Int_Tables_number	1
_symmetry_cell_setting	triclinic
loop_
_symmetry_equiv_pos_as_xyz
  x,y,z
_cell_length_a	8.497367
_cell_length_b	8.497374
_cell_length_c	16.625548
_cell_angle_alpha	90.003540
_cell_angle_beta	90.032406
_cell_angle_gamma	90.038609
loop_
_atom_site_label
_atom_site_type_symbol
_atom_site_fract_x
_atom_site_fract_y
_atom_site_fract_z
Zn1	Zn	0.628285	0.892549	1.232858
Zn2	Zn	0.892031	0.628968	1.232933
Zn3	Zn	0.628264	0.628768	1.098060
Zn4	Zn	0.892022	0.892691	1.098122
O5	O	0.760151	0.760744	1.165494
O6	O	0.663285	0.857608	1.345701
O7	O	0.857037	0.408179	1.215048
O8	O	0.407504	0.663615	1.115884
O9	O	0.857058	0.663957	1.345756
O10	O	0.407520	0.857414	1.214920
O11	O	0.663248	0.408032	1.115957
O12	O	0.663239	0.663753	0.985236
O13	O	0.857042	1.113434	1.115990
O14	O	0.857021	0.857657	0.985282
O15	O	0.663276	1.113330	1.214980
O16	O	1.112793	0.664095	1.215108
O17	O	1.112786	0.857851	1.116063
C18	C	0.760128	0.760700	0.956003
C19	C	0.760156	0.760718	0.866382
C20	C	1.348670	0.760598	1.165438
C21	C	1.170027	0.760886	1.165539
C22	C	0.760153	1.172224	1.165488
C23	C	0.760170	1.350868	1.165489
C24	C	0.760167	0.760786	0.538206
C25	C	0.760160	0.760762	0.629514
C26	C	0.760162	0.760751	0.702291
C27	C	0.760154	0.760729	0.793605
C28	C	0.760174	0.760789	1.375802
C29	C	0.760185	0.760808	1.465424
