data_functionalizedCrystal
_audit_creation_method	'MofGen! by Chris Wilmer'
_symmetry_space_group_name_H-M	'P1'
_symmetry_Int_Tables_number	1
_symmetry_cell_setting	triclinic
loop_
_symmetry_equiv_pos_as_xyz
  x,y,z
_cell_length_a	21.295418
_cell_length_b	21.295417
_cell_length_c	21.295411
_cell_angle_alpha	90.021644
_cell_angle_beta	90.043738
_cell_angle_gamma	90.046319
loop_
_atom_site_label
_atom_site_type_symbol
_atom_site_fract_x
_atom_site_fract_y
_atom_site_fract_z
Zn1	Zn	0.962356	-0.250415	0.356234
Zn2	Zn	1.295689	0.082918	0.689567
Zn3	Zn	1.629022	0.416251	1.022900
Zn4	Zn	0.962258	-0.355667	0.250959
Zn5	Zn	1.295592	-0.022334	0.584292
Zn6	Zn	1.628925	0.311000	0.917626
Zn7	Zn	0.857079	-0.250445	0.250943
Zn8	Zn	1.190412	0.082889	0.584277
Zn9	Zn	1.523746	0.416222	0.917610
Zn10	Zn	0.857048	-0.355680	0.356155
Zn11	Zn	1.190382	-0.022346	0.689489
Zn12	Zn	1.523715	0.310987	1.022822
O13	O	0.909685	-0.303052	0.303573
O14	O	1.243019	0.030282	0.636906
O15	O	1.576352	0.363615	0.970240
O16	O	1.050432	-0.264360	0.342308
O17	O	1.383766	0.068974	0.675641
O18	O	1.717099	0.402307	1.008975
O19	O	0.948278	-0.341716	0.162867
O20	O	1.281611	-0.008383	0.496201
O21	O	1.614945	0.324950	0.829534
O22	O	0.871098	-0.162351	0.264937
O23	O	1.204431	0.170982	0.598270
O24	O	1.537764	0.504315	0.931603
O25	O	1.050361	-0.341688	0.264963
O26	O	1.383694	-0.008354	0.598296
O27	O	1.717027	0.324979	0.931630
O28	O	0.948444	-0.162330	0.342293
O29	O	1.281778	0.171004	0.675626
O30	O	1.615111	0.504337	1.008960
O31	O	0.871003	-0.264410	0.162856
O32	O	1.204337	0.068923	0.496189
O33	O	1.537670	0.402257	0.829523
O34	O	0.768985	-0.264422	0.264861
O35	O	1.102319	0.068911	0.598194
O36	O	1.435652	0.402245	0.931527
O37	O	0.871046	-0.341709	0.444255
O38	O	1.204379	-0.008376	0.777589
O39	O	1.537712	0.324958	1.110922
O40	O	0.768963	-0.341738	0.342160
O41	O	1.102296	-0.008404	0.675493
O42	O	1.435630	0.324929	1.008826
O43	O	0.948415	-0.264372	0.444313
O44	O	1.281748	0.068962	0.777646
O45	O	1.615081	0.402295	1.110979
O46	O	0.948248	-0.443758	0.264887
O47	O	1.281582	-0.110425	0.598221
O48	O	1.614915	0.222909	0.931554
O49	O	0.870951	-0.443767	0.342175
O50	O	1.204284	-0.110434	0.675508
O51	O	1.537618	0.222899	1.008841
C52	C	0.746134	-0.303085	0.303500
C53	C	1.079467	0.030249	0.636834
C54	C	1.412800	0.363582	0.970167
C55	C	0.676166	-0.303114	0.303484
C56	C	1.009499	0.030219	0.636818
C57	C	1.342832	0.363553	0.970151
C58	C	0.643304	-0.343426	0.343674
C59	C	0.976637	-0.010092	0.677007
C60	C	1.309970	0.323241	1.010340
C61	C	0.577561	-0.343410	0.343702
C62	C	0.910894	-0.010077	0.677035
C63	C	1.244228	0.323257	1.010369
C64	C	0.544683	-0.303090	0.303530
C65	C	0.878016	0.030244	0.636863
C66	C	1.211350	0.363577	0.970196
C67	C	0.577553	-0.262770	0.263337
C68	C	0.910886	0.070563	0.596671
C69	C	1.244220	0.403896	0.930004
C70	C	0.643294	-0.262783	0.263315
C71	C	0.976627	0.070551	0.596648
C72	C	1.309961	0.403884	0.929982
N73	N	0.441407	-0.298163	0.248472
N74	N	0.774740	0.035171	0.581805
N75	N	1.108074	0.368504	0.915139
N76	N	0.378956	-0.298155	0.248495
N77	N	0.712289	0.035179	0.581829
N78	N	1.045622	0.368512	0.915162
C79	C	0.346608	-0.303050	0.303596
C80	C	0.679942	0.030284	0.636930
C81	C	1.013275	0.363617	0.970263
N82	N	0.379072	-0.307965	0.358675
N83	N	0.712405	0.025368	0.692008
N84	N	1.045739	0.358702	1.025341
N85	N	0.441529	-0.307976	0.358650
N86	N	0.774862	0.025357	0.691984
N87	N	1.108196	0.358691	1.025317
C88	C	0.473398	-0.303072	0.303550
C89	C	0.806731	0.030262	0.636883
C90	C	1.140064	0.363595	0.970217
C91	C	0.242461	-0.343346	0.343820
C92	C	0.575794	-0.010013	0.677153
C93	C	0.909128	0.323320	1.010486
C94	C	0.176717	-0.343326	0.343849
C95	C	0.510051	-0.009993	0.677182
C96	C	0.843384	0.323340	1.010516
C97	C	0.176710	-0.262690	0.263479
C98	C	0.510044	0.070643	0.596812
C99	C	0.843377	0.403977	0.930146
C100	C	0.242453	-0.262707	0.263455
C101	C	0.575786	0.070627	0.596789
C102	C	0.909119	0.403960	0.930122
C103	C	0.275324	-0.303038	0.303625
C104	C	0.608657	0.030295	0.636958
C105	C	0.941991	0.363628	0.970291
C106	C	0.909603	-0.466603	0.303538
C107	C	1.242936	-0.133270	0.636871
C108	C	1.576269	0.200063	0.970205
C109	C	0.909625	-0.536571	0.303544
C110	C	1.242958	-0.203238	0.636877
C111	C	1.576292	0.130095	0.970211
C112	C	0.949910	-0.569412	0.263342
C113	C	1.283243	-0.236079	0.596675
C114	C	1.616576	0.097254	0.930009
C115	C	0.949939	-0.635155	0.263356
C116	C	1.283272	-0.301822	0.596689
C117	C	1.616606	0.031512	0.930023
C118	C	0.909673	-0.668054	0.303566
C119	C	1.243006	-0.334721	0.636899
C120	C	1.576340	-0.001387	0.970233
C121	C	0.869386	-0.635205	0.343776
C122	C	1.202719	-0.301872	0.677109
C123	C	1.536052	0.031462	1.010443
C124	C	0.869362	-0.569464	0.343765
C125	C	1.202695	-0.236130	0.677098
C126	C	1.536028	0.097203	1.010432
N127	N	0.854606	-0.771336	0.308340
N128	N	1.187939	-0.438002	0.641674
N129	N	1.521272	-0.104669	0.975007
N130	N	0.854630	-0.833787	0.308347
N131	N	1.187964	-0.500454	0.641680
N132	N	1.521297	-0.167120	0.975014
C133	C	0.909743	-0.866129	0.303602
C134	C	1.243077	-0.532795	0.636935
C135	C	1.576410	-0.199462	0.970269
N136	N	0.964832	-0.833659	0.298838
N137	N	1.298166	-0.500326	0.632171
N138	N	1.631499	-0.166993	0.965504
N139	N	0.964807	-0.771202	0.298828
N140	N	1.298140	-0.437869	0.632161
N141	N	1.631474	-0.104535	0.965494
C142	C	0.909695	-0.739339	0.303582
C143	C	1.243028	-0.406006	0.636916
C144	C	1.576361	-0.072673	0.970249
C145	C	0.950063	-0.970255	0.263413
C146	C	1.283397	-0.636922	0.596746
C147	C	1.616730	-0.303588	0.930080
C148	C	0.950094	-1.035999	0.263431
C149	C	1.283427	-0.702665	0.596765
C150	C	1.616760	-0.369332	0.930098
C151	C	0.869535	-1.036048	0.343848
C152	C	1.202868	-0.702714	0.677181
C153	C	1.536201	-0.369381	1.010515
C154	C	0.869510	-0.970305	0.343833
C155	C	1.202843	-0.636972	0.677166
C156	C	1.536176	-0.303638	1.010500
C157	C	0.909773	-0.937413	0.303612
C158	C	1.243106	-0.604079	0.636945
C159	C	1.576440	-0.270746	0.970279
C160	C	1.073876	-0.303019	0.303646
C161	C	1.407209	0.030314	0.636979
C162	C	1.740542	0.363648	0.970313
C163	C	1.143844	-0.303005	0.303677
C164	C	1.477177	0.030328	0.637010
C165	C	1.810510	0.363662	0.970344
C166	C	0.909738	-0.303038	0.467763
C167	C	1.243071	0.030295	0.801097
C168	C	1.576404	0.363628	1.134430
C169	C	0.909760	-0.303033	0.537731
C170	C	1.243093	0.030301	0.871065
C171	C	1.576427	0.363634	1.204398
C172	C	0.909785	-0.138861	0.303622
C173	C	1.243119	0.194472	0.636955
C174	C	1.576452	0.527805	0.970288
C175	C	0.909828	-0.068893	0.303642
C176	C	1.243161	0.264440	0.636976
C177	C	1.576495	0.597773	0.970309
C178	C	0.909670	-0.303019	0.140021
C179	C	1.243003	0.030314	0.473355
C180	C	1.576336	0.363647	0.806688
C181	C	0.909769	-0.302848	0.070054
C182	C	1.243103	0.030486	0.403387
C183	C	1.576436	0.363819	0.736720
C184	C	0.950044	-0.262761	0.570629
C185	C	1.283377	0.070572	0.903962
C186	C	1.616711	0.403905	1.237296
C187	C	0.950043	-0.262734	0.636371
C188	C	1.283377	0.070599	0.969705
C189	C	1.616710	0.403933	1.303038
C190	C	0.909765	-0.302989	0.669214
C191	C	1.243098	0.030344	1.002547
C192	C	1.576431	0.363677	1.335881
C193	C	0.869473	-0.343263	0.636308
C194	C	1.202806	-0.009930	0.969642
C195	C	1.536139	0.323403	1.302975
C196	C	0.869470	-0.343285	0.570567
C197	C	1.202804	-0.009952	0.903900
C198	C	1.536137	0.323382	1.237234
N199	N	0.904908	-0.358058	0.772428
N200	N	1.238241	-0.024725	1.105761
N201	N	1.571575	0.308608	1.439094
N202	N	0.904914	-0.358036	0.834879
N203	N	1.238247	-0.024703	1.168213
N204	N	1.571581	0.308631	1.501546
C205	C	0.909769	-0.302926	0.867289
C206	C	1.243102	0.030408	1.200622
C207	C	1.576435	0.363741	1.533955
N208	N	0.914629	-0.247837	0.834888
N209	N	1.247963	0.085496	1.168221
N210	N	1.581296	0.418830	1.501554
N211	N	0.914627	-0.247860	0.772430
N212	N	1.247960	0.085473	1.105764
N213	N	1.581293	0.418807	1.439097
C214	C	0.909763	-0.302970	0.740499
C215	C	1.243096	0.030363	1.073833
C216	C	1.576429	0.363697	1.407166
C217	C	0.950054	-0.262621	0.971472
C218	C	1.283388	0.070712	1.304805
C219	C	1.616721	0.404045	1.638139
C220	C	0.950049	-0.262593	1.037216
C221	C	1.283382	0.070740	1.370549
C222	C	1.616716	0.404074	1.703882
C223	C	0.869482	-0.343128	1.037151
C224	C	1.202815	-0.009795	1.370485
C225	C	1.536148	0.323539	1.703818
C226	C	0.869484	-0.343151	0.971409
C227	C	1.202817	-0.009817	1.304742
C228	C	1.536150	0.323516	1.638076
C229	C	0.909773	-0.302898	0.938573
C230	C	1.243107	0.030435	1.271906
C231	C	1.576440	0.363769	1.605240
H232	H	0.269226	-0.376183	0.376531
H233	H	0.602560	-0.042850	0.709865
H234	H	0.935893	0.290483	1.043198
C235	C	0.860692	-0.896341	0.428484
C236	C	1.194025	-0.563008	0.761817
C237	C	1.527358	-0.229675	1.095151
C238	C	0.825221	-0.934204	0.388021
C239	C	1.158555	-0.600870	0.721354
C240	C	1.491888	-0.267537	1.054687
H241	H	0.833348	-0.874058	0.455768
H242	H	1.166682	-0.540725	0.789101
H243	H	1.500015	-0.207391	1.122435
H244	H	0.884662	-0.867343	0.404534
H245	H	1.217995	-0.534010	0.737867
H246	H	1.551328	-0.200676	1.071201
H247	H	0.888114	-0.921949	0.452600
H248	H	1.221447	-0.588616	0.785933
H249	H	1.554781	-0.255283	1.119266
H250	H	0.797802	-0.908595	0.363902
H251	H	1.131136	-0.575262	0.697235
H252	H	1.464469	-0.241929	1.030568
H253	H	0.801241	-0.963205	0.411973
H254	H	1.134574	-0.629872	0.745307
H255	H	1.467907	-0.296539	1.078640
H256	H	0.982857	-0.229842	0.944736
H257	H	1.316190	0.103492	1.278069
H258	H	1.649524	0.436825	1.611402
H259	H	0.982850	-0.229984	0.543898
H260	H	1.316184	0.103349	0.877231
H261	H	1.649517	0.436683	1.210565
H262	H	0.982850	-0.943473	0.230664
H263	H	1.316184	-0.610140	0.563998
H264	H	1.649517	-0.276806	0.897331
C265	C	1.029693	-0.183144	0.629838
C266	C	1.363026	0.150190	0.963172
C267	C	1.696360	0.483523	1.296505
C268	C	0.994331	-0.218469	0.672543
C269	C	1.327664	0.114865	1.005876
C270	C	1.660997	0.448198	1.339209
H271	H	1.057037	-0.155820	0.652169
H272	H	1.390370	0.177513	0.985502
H273	H	1.723703	0.510847	1.318836
H274	H	1.002284	-0.159074	0.604181
H275	H	1.335617	0.174260	0.937515
H276	H	1.668951	0.507593	1.270848
H277	H	1.053749	-0.210582	0.604210
H278	H	1.387083	0.122751	0.937543
H279	H	1.720416	0.456085	1.270876
H280	H	0.970271	-0.191030	0.698168
H281	H	1.303604	0.142303	1.031502
H282	H	1.636937	0.475636	1.364835
H283	H	1.021743	-0.242541	0.698210
H284	H	1.355076	0.090793	1.031544
H285	H	1.688410	0.424126	1.364877
C286	C	0.833647	-0.736004	0.379491
C287	C	1.166980	-0.402671	0.712824
C288	C	1.500314	-0.069338	1.046158
C289	C	0.825122	-0.671365	0.387974
C290	C	1.158456	-0.338032	0.721307
C291	C	1.491789	-0.004699	1.054640
H292	H	0.806318	-0.758326	0.406777
H293	H	1.139651	-0.424993	0.740111
H294	H	1.472984	-0.091660	1.073444
H295	H	0.875936	-0.746722	0.388759
H296	H	1.209269	-0.413388	0.722093
H297	H	1.542603	-0.080055	1.055426
H298	H	0.824457	-0.746804	0.337184
H299	H	1.157791	-0.413470	0.670517
H300	H	1.491124	-0.080137	1.003850
H301	H	0.834316	-0.660565	0.430280
H302	H	1.167650	-0.327232	0.763613
H303	H	1.500983	0.006102	1.096947
H304	H	0.782823	-0.660644	0.378710
H305	H	1.116157	-0.327310	0.712043
H306	H	1.449490	0.006023	1.045376
C307	C	0.833724	-0.378866	1.137896
C308	C	1.167057	-0.045532	1.471229
C309	C	1.500390	0.287801	1.804562
C310	C	0.825213	-0.387385	1.073244
C311	C	1.158546	-0.054052	1.406578
C312	C	1.491880	0.279281	1.739911
H313	H	0.806396	-0.406193	1.160179
H314	H	1.139730	-0.072860	1.493512
H315	H	1.473063	0.260474	1.826845
H316	H	0.824529	-0.336576	1.148664
H317	H	1.157862	-0.003243	1.481997
H318	H	1.491196	0.330091	1.815331
H319	H	0.876018	-0.388061	1.148691
H320	H	1.209351	-0.054727	1.482024
H321	H	1.542684	0.278606	1.815358
H322	H	0.782920	-0.378186	1.062448
H323	H	1.116253	-0.044852	1.395782
H324	H	1.449586	0.288481	1.729115
H325	H	0.834403	-0.429684	1.062472
H326	H	1.167737	-0.096351	1.395805
H327	H	1.501070	0.236982	1.729138
C328	C	0.833713	-0.378997	0.737058
C329	C	1.167047	-0.045664	1.070391
C330	C	1.500380	0.287669	1.403724
C331	C	0.825201	-0.387517	0.672406
C332	C	1.158534	-0.054183	1.005740
C333	C	1.491868	0.279150	1.339073
H334	H	0.806382	-0.406321	0.759341
H335	H	1.139715	-0.072987	1.092675
H336	H	1.473049	0.260346	1.426008
H337	H	0.824525	-0.336706	0.747826
H338	H	1.157858	-0.003373	1.081159
H339	H	1.491191	0.329960	1.414492
H340	H	0.876006	-0.388198	0.747853
H341	H	1.209340	-0.054865	1.081186
H342	H	1.542673	0.278468	1.414519
H343	H	0.782909	-0.378311	0.661611
H344	H	1.116242	-0.044978	0.994944
H345	H	1.449576	0.288356	1.328277
H346	H	0.834385	-0.429817	0.661634
H347	H	1.167719	-0.096484	0.994967
H348	H	1.501052	0.236849	1.328301
H349	H	0.149962	-0.376152	0.376580
H350	H	0.483296	-0.042818	0.709913
H351	H	0.816629	0.290515	1.043247
C352	C	0.958718	-0.709110	0.178692
C353	C	1.292052	-0.375777	0.512025
C354	C	1.625385	-0.042443	0.845358
C355	C	0.994210	-0.671257	0.219145
C356	C	1.327544	-0.337924	0.552478
C357	C	1.660877	-0.004591	0.885812
H358	H	0.986048	-0.731397	0.151396
H359	H	1.319381	-0.398063	0.484729
H360	H	1.652714	-0.064730	0.818063
H361	H	0.931292	-0.683501	0.154594
H362	H	1.264625	-0.350167	0.487927
H363	H	1.597959	-0.016834	0.821260
H364	H	0.934752	-0.738112	0.202653
H365	H	1.268086	-0.404779	0.535986
H366	H	1.601419	-0.071445	0.869319
H367	H	1.018173	-0.642252	0.195184
H368	H	1.351506	-0.308919	0.528517
H369	H	1.684840	0.024414	0.861851
H370	H	1.021648	-0.696869	0.243245
H371	H	1.354981	-0.363536	0.576579
H372	H	1.688314	-0.030202	0.909912
H373	H	0.550779	-0.229940	0.230630
H374	H	0.884113	0.103393	0.563963
H375	H	1.217446	0.436727	0.897297
C376	C	0.744066	-0.227000	0.227595
C377	C	1.077399	0.106334	0.560929
C378	C	1.410733	0.439667	0.894262
C379	C	0.679421	-0.218472	0.219133
C380	C	1.012754	0.114861	0.552466
C381	C	1.346087	0.448195	0.885800
H382	H	0.766369	-0.199641	0.200320
H383	H	1.099702	0.133692	0.533654
H384	H	1.433035	0.467025	0.866987
H385	H	0.754781	-0.269279	0.218299
H386	H	1.088114	0.064055	0.551632
H387	H	1.421448	0.397388	0.884965
H388	H	0.754891	-0.217851	0.269906
H389	H	1.088224	0.115482	0.603239
H390	H	1.421558	0.448815	0.936572
H391	H	0.668595	-0.227625	0.176824
H392	H	1.001929	0.105708	0.510157
H393	H	1.335262	0.439042	0.843490
H394	H	0.668702	-0.176183	0.228425
H395	H	1.002035	0.157150	0.561759
H396	H	1.335368	0.490483	0.895092
H397	H	0.982902	-1.062737	0.230695
H398	H	1.316235	-0.729403	0.564029
H399	H	1.649569	-0.396070	0.897362
H400	H	0.836663	-0.376078	0.543782
H401	H	1.169996	-0.042745	0.877116
H402	H	1.503330	0.290589	1.210449
H403	H	0.982852	-0.229795	1.064000
H404	H	1.316186	0.103538	1.397333
H405	H	1.649519	0.436871	1.730666
C406	C	0.789851	-0.422753	0.977951
C407	C	1.123185	-0.089420	1.311284
C408	C	1.456518	0.243914	1.644618
C409	C	0.825206	-0.387424	0.935244
C410	C	1.158539	-0.054090	1.268577
C411	C	1.491873	0.279243	1.601910
H412	H	0.762517	-0.450087	0.955623
H413	H	1.095850	-0.116754	1.288956
H414	H	1.429183	0.216579	1.622289
H415	H	0.765792	-0.395323	1.003575
H416	H	1.099125	-0.061989	1.336908
H417	H	1.432459	0.271344	1.670242
H418	H	0.817271	-0.446818	1.003612
H419	H	1.150604	-0.113484	1.336946
H420	H	1.483937	0.219849	1.670279
H421	H	0.797787	-0.363355	0.909585
H422	H	1.131120	-0.030022	1.242919
H423	H	1.464454	0.303311	1.576252
H424	H	0.849267	-0.414858	0.909609
H425	H	1.182600	-0.081524	1.242942
H426	H	1.515934	0.251809	1.576275
H427	H	0.550800	-0.376236	0.376431
H428	H	0.884133	-0.042903	0.709765
H429	H	1.217466	0.290430	1.043098
C430	C	0.636702	-0.423129	0.423117
C431	C	0.970035	-0.089796	0.756451
C432	C	1.303369	0.243537	1.089784
C433	C	0.679435	-0.387752	0.387834
C434	C	1.012768	-0.054418	0.721167
C435	C	1.346102	0.278915	1.054500
H436	H	0.659010	-0.450490	0.450383
H437	H	0.992344	-0.117157	0.783716
H438	H	1.325677	0.216176	1.117049
H439	H	0.611009	-0.447162	0.395654
H440	H	0.944343	-0.113829	0.728987
H441	H	1.277676	0.219505	1.062320
H442	H	0.611112	-0.395727	0.447253
H443	H	0.944445	-0.062394	0.780586
H444	H	1.277778	0.270940	1.113920
H445	H	0.705022	-0.415154	0.363694
H446	H	1.038356	-0.081821	0.697027
H447	H	1.371689	0.251513	1.030361
H448	H	0.705138	-0.363717	0.415301
H449	H	1.038472	-0.030384	0.748634
H450	H	1.371805	0.302950	1.081967
H451	H	0.149942	-0.229857	0.230773
H452	H	0.483275	0.103476	0.564106
H453	H	0.816608	0.436809	0.897440
C454	C	0.235840	-0.183007	0.184014
C455	C	0.569174	0.150326	0.517347
C456	C	0.902507	0.483660	0.850680
C457	C	0.278579	-0.218401	0.219271
C458	C	0.611912	0.114933	0.552604
C459	C	0.945246	0.448266	0.885937
H460	H	0.258144	-0.155655	0.156734
H461	H	0.591478	0.177678	0.490067
H462	H	0.924811	0.511011	0.823400
H463	H	0.210255	-0.158964	0.211493
H464	H	0.543589	0.174369	0.544826
H465	H	0.876922	0.507703	0.878160
H466	H	0.210143	-0.210400	0.159895
H467	H	0.543476	0.122933	0.493228
H468	H	0.876810	0.456266	0.826562
H469	H	0.304273	-0.191008	0.243393
H470	H	0.637607	0.142326	0.576727
H471	H	0.970940	0.475659	0.910060
H472	H	0.304175	-0.242446	0.191788
H473	H	0.637508	0.090888	0.525121
H474	H	0.970841	0.424221	0.858454
H475	H	0.982696	-0.542633	0.230593
H476	H	1.316029	-0.209300	0.563927
H477	H	1.649363	0.124033	0.897260
C478	C	0.789736	-0.576117	0.423254
C479	C	1.123070	-0.242784	0.756588
C480	C	1.456403	0.090550	1.089921
C481	C	0.825074	-0.533361	0.387955
C482	C	1.158407	-0.200028	0.721288
C483	C	1.491741	0.133306	1.054622
H484	H	0.762392	-0.553826	0.450532
H485	H	1.095725	-0.220493	0.783865
H486	H	1.429059	0.112840	1.117198
H487	H	0.817161	-0.601709	0.447372
H488	H	1.150495	-0.268376	0.780706
H489	H	1.483828	0.064957	1.114039
H490	H	0.765682	-0.601805	0.395797
H491	H	1.099016	-0.268472	0.729130
H492	H	1.432349	0.064861	1.062463
H493	H	0.849132	-0.507676	0.415413
H494	H	1.182465	-0.174342	0.748746
H495	H	1.515798	0.158991	1.082079
H496	H	0.797646	-0.507758	0.363835
H497	H	1.130979	-0.174425	0.697169
H498	H	1.464312	0.158909	1.030502
H499	H	0.836752	-1.062833	0.376591
H500	H	1.170085	-0.729500	0.709924
H501	H	1.503419	-0.396167	1.043257
