data_functionalizedCrystal
_audit_creation_method	'MofGen! by Chris Wilmer'
_symmetry_space_group_name_H-M	'P1'
_symmetry_Int_Tables_number	1
_symmetry_cell_setting	triclinic
loop_
_symmetry_equiv_pos_as_xyz
  x,y,z
_cell_length_a	12.837943
_cell_length_b	15.995350
_cell_length_c	11.892095
_cell_angle_alpha	93.891441
_cell_angle_beta	85.689438
_cell_angle_gamma	89.160657
loop_
_atom_site_label
_atom_site_type_symbol
_atom_site_fract_x
_atom_site_fract_y
_atom_site_fract_z
O1	O	1.382080	0.212847	-0.093972
O2	O	1.882080	0.712847	0.406028
O3	O	1.080275	0.202094	-0.093979
O4	O	1.580275	0.702094	0.406021
O5	O	1.239427	0.086241	-0.093975
O6	O	1.739427	0.586241	0.406025
O7	O	1.222927	0.328700	-0.093977
O8	O	1.722927	0.828700	0.406023
O9	O	1.226157	0.095884	0.094032
O10	O	1.726157	0.595884	0.594032
O11	O	1.067005	0.211737	0.094028
O12	O	1.567005	0.711737	0.594028
O13	O	1.368810	0.222490	0.094035
O14	O	1.868810	0.722490	0.594035
Zn15	Zn	1.215800	0.218644	0.123881
Zn16	Zn	1.715800	0.718644	0.623881
Zn17	Zn	1.233284	0.205939	-0.123826
Zn18	Zn	1.733284	0.705939	0.376174
O19	O	1.209657	0.338343	0.094030
O20	O	1.709657	0.838343	0.594030
C21	C	1.035019	0.203283	0.000023
C22	C	1.535019	0.703283	0.500023
C23	C	0.919942	0.192449	0.000020
C24	C	1.419942	0.692449	0.500020
C25	C	1.232110	0.059813	0.000027
C26	C	1.732110	0.559813	0.500027
C27	C	1.230066	-0.033301	0.000020
C28	C	1.730066	0.466699	0.500020
C29	C	0.678983	0.322688	0.000035
C30	C	1.178983	0.822688	0.500035
C31	C	0.570857	0.312513	0.000033
C32	C	1.070857	0.812513	0.500033
C33	C	0.595563	0.161925	0.000023
C34	C	1.095563	0.661925	0.500023
C35	C	0.703688	0.172100	0.000025
C36	C	1.203688	0.672100	0.500025
C37	C	0.745394	0.252484	0.000029
C38	C	1.245394	0.752484	0.500029
C39	C	0.853523	0.262658	0.000023
C40	C	1.353523	0.762658	0.500023
C41	C	0.878225	0.112072	0.000020
C42	C	1.378225	0.612072	0.500020
C43	C	0.770100	0.101896	0.000018
C44	C	1.270100	0.601896	0.500018
C45	C	1.222721	-0.371634	0.000024
C46	C	1.722721	0.128366	0.500024
C47	C	1.109405	-0.333265	-0.000400
C48	C	1.609405	0.166735	0.499600
C49	C	1.111421	-0.236390	0.000023
C50	C	1.611421	0.263610	0.500023
C51	C	1.226364	-0.203783	0.000021
C52	C	1.726364	0.296217	0.500021
C53	C	1.274693	-0.234893	0.107382
C54	C	1.774693	0.265107	0.607382
C55	C	1.271839	-0.331752	0.107472
C56	C	1.771839	0.168248	0.607472
C57	C	1.289271	-0.342889	-0.106327
C58	C	1.789271	0.157111	0.393673
C59	C	1.289344	-0.246018	-0.107746
C60	C	1.789344	0.253982	0.392254
C61	C	1.228429	-0.108921	0.000024
C62	C	1.728429	0.391079	0.500024
C63	C	1.220659	-0.466496	0.000029
C64	C	1.720659	0.033504	0.500029
C65	C	1.414066	0.221301	0.000030
C66	C	1.914066	0.721301	0.500030
C67	C	1.529143	0.232134	0.000025
C68	C	2.029143	0.732134	0.500025
C69	C	1.216974	0.364770	0.000026
C70	C	1.716974	0.864770	0.500026
C71	C	1.219020	0.457884	0.000025
C72	C	1.719020	0.957884	0.500025
N73	N	1.203876	0.227315	0.292935
N74	N	1.703876	0.727315	0.792935
N75	N	1.245217	0.197262	-0.292880
N76	N	1.745217	0.697262	0.207120
C77	C	1.328193	0.136877	0.529587
C78	C	1.828193	0.636877	1.029587
C79	C	1.319865	0.142945	0.647928
C80	C	1.819865	0.642945	1.147928
C81	C	1.178889	0.245514	0.647962
C82	C	1.678889	0.745514	1.147962
C83	C	1.187216	0.239446	0.529621
C84	C	1.687216	0.739446	1.029621
C85	C	1.261872	0.185127	0.470437
C86	C	1.761872	0.685127	0.970437
C87	C	1.270204	0.179064	0.352093
C88	C	1.770204	0.679064	0.852093
C89	C	1.129223	0.281628	0.352129
C90	C	1.629223	0.781628	0.852129
C91	C	1.120896	0.287696	0.470471
C92	C	1.620896	0.787696	0.970471
H93	H	0.712940	0.388139	0.000037
H94	H	1.212940	0.888139	0.500037
O95	O	1.040389	0.346287	0.534314
O96	O	1.540389	0.846287	1.034314
H97	H	0.995671	0.378819	0.473298
H98	H	1.495671	0.878819	0.973298
H99	H	1.069536	-0.359360	-0.077391
H100	H	1.569536	0.140640	0.422609
O101	O	1.408685	0.078278	0.465733
O102	O	1.908685	0.578278	0.965733
H103	H	1.462865	0.114790	0.411796
H104	H	1.962865	0.614790	0.911796
H105	H	1.118099	0.289733	0.696165
H106	H	1.618099	0.789733	1.196165
O107	O	1.391407	0.090915	0.711731
O108	O	1.891407	0.590915	1.211731
H109	H	1.444723	0.052134	0.650691
H110	H	1.944723	0.552134	1.150691
O111	O	1.350714	0.120475	0.288251
O112	O	1.850714	0.620475	0.788251
H113	H	1.395422	0.087936	0.349269
H114	H	1.895422	0.587936	0.849269
O115	O	1.400037	-0.376170	-0.107282
O116	O	1.900037	0.123830	0.392718
H117	H	1.446523	-0.355602	-0.182598
H118	H	1.946523	0.144398	0.317402
H119	H	1.075223	0.320919	0.303956
H120	H	1.575223	0.820919	0.803956
O121	O	1.215799	-0.195975	0.213218
O122	O	1.715799	0.304025	0.713218
H123	H	1.132668	-0.214228	0.214282
H124	H	1.632668	0.285772	0.714282
O125	O	0.898513	0.349353	0.000042
O126	O	1.398513	0.849353	0.500042
H127	H	0.834162	0.396461	0.000062
H128	H	1.334162	0.896461	0.500062
H129	H	0.516788	0.369680	0.000041
H130	H	1.016788	0.869680	0.500041
H131	H	0.561579	0.096485	0.000112
H132	H	1.061579	0.596485	0.500112
H133	H	0.736126	0.036451	0.000028
H134	H	1.236126	0.536451	0.500028
O135	O	0.949852	0.036343	0.000020
O136	O	1.449852	0.536343	0.500020
H137	H	1.032047	0.056920	0.000029
H138	H	1.532047	0.556920	0.500029
O139	O	1.060385	-0.208602	-0.101901
O140	O	1.560385	0.291398	0.398099
H141	H	1.034036	-0.264396	-0.151938
H142	H	1.534036	0.235604	0.348062
H143	H	1.058900	-0.352531	0.076159
H144	H	1.558900	0.147469	0.576159
O145	O	1.045634	-0.198906	0.102149
O146	O	1.545634	0.301094	0.602149
H147	H	1.012262	-0.249981	0.151432
H148	H	1.512262	0.250019	0.651432
O149	O	1.386175	-0.206983	0.112679
O150	O	1.886175	0.293017	0.612679
H151	H	1.418489	-0.229766	0.189272
H152	H	1.918489	0.270234	0.689272
O153	O	1.381604	-0.365352	0.113950
O154	O	1.881604	0.134648	0.613950
H155	H	1.436486	-0.312411	0.117014
H156	H	1.936486	0.187589	0.617014
O157	O	1.210327	-0.354861	0.213768
O158	O	1.710327	0.145139	0.713768
H159	H	1.182890	-0.296888	0.264620
H160	H	1.682890	0.203112	0.764620
O161	O	1.247831	-0.379533	-0.214140
O162	O	1.747831	0.120467	0.285860
H163	H	1.165602	-0.358168	-0.217958
H164	H	1.665602	0.141832	0.282042
O165	O	1.242712	-0.219569	-0.212963
O166	O	1.742712	0.280431	0.287037
H167	H	1.174966	-0.176517	-0.188618
H168	H	1.674966	0.323483	0.311382
H169	H	1.373623	-0.224301	-0.114230
H170	H	1.873623	0.275699	0.385770
