data_functionalizedCrystal
_audit_creation_method	'MofGen! by Chris Wilmer'
_symmetry_space_group_name_H-M	'P1'
_symmetry_Int_Tables_number	1
_symmetry_cell_setting	triclinic
loop_
_symmetry_equiv_pos_as_xyz
  x,y,z
_cell_length_a	11.169417
_cell_length_b	10.685194
_cell_length_c	11.169409
_cell_angle_alpha	94.405531
_cell_angle_beta	90.019513
_cell_angle_gamma	94.378522
loop_
_atom_site_label
_atom_site_type_symbol
_atom_site_fract_x
_atom_site_fract_y
_atom_site_fract_z
Zn1	Zn	1.798363	-0.502272	0.641880
Zn2	Zn	2.131696	-0.168938	0.975214
Zn3	Zn	2.465029	0.164395	1.308547
Zn4	Zn	1.782871	-0.713351	0.425794
Zn5	Zn	2.116205	-0.380018	0.759127
Zn6	Zn	2.449538	-0.046685	1.092461
Zn7	Zn	1.597643	-0.502350	0.441210
Zn8	Zn	1.930976	-0.169017	0.774543
Zn9	Zn	2.264310	0.164317	1.107877
Zn10	Zn	1.582283	-0.713250	0.626447
Zn11	Zn	1.915616	-0.379917	0.959781
Zn12	Zn	2.248949	-0.046583	1.293114
O13	O	1.690290	-0.607806	0.533833
O14	O	2.023623	-0.274472	0.867166
O15	O	2.356957	0.058861	1.200500
O16	O	1.964257	-0.530282	0.613223
O17	O	2.297590	-0.196948	0.946556
O18	O	2.630923	0.136385	1.279890
O19	O	1.758245	-0.685437	0.259884
O20	O	2.091579	-0.352103	0.593217
O21	O	2.424912	-0.018770	0.926550
O22	O	1.637180	-0.325740	0.480740
O23	O	1.970514	0.007593	0.814073
O24	O	2.303847	0.340927	1.147406
O25	O	1.952875	-0.685361	0.454466
O26	O	2.286209	-0.352027	0.787799
O27	O	2.619542	-0.018694	1.121132
O28	O	1.784648	-0.325682	0.628171
O29	O	2.117982	0.007651	0.961505
O30	O	2.451315	0.340984	1.294838
O31	O	1.622159	-0.530415	0.271210
O32	O	1.955492	-0.197082	0.604543
O33	O	2.288826	0.136252	0.937877
O34	O	1.427656	-0.530317	0.465775
O35	O	1.760990	-0.196983	0.799109
O36	O	2.094323	0.136350	1.132442
O37	O	1.611001	-0.685188	0.796450
O38	O	1.944334	-0.351855	1.129783
O39	O	2.277668	-0.018521	1.463117
O40	O	1.416371	-0.685264	0.601868
O41	O	1.749705	-0.351931	0.935202
O42	O	2.083038	-0.018597	1.268535
O43	O	1.769754	-0.530183	0.807788
O44	O	2.103088	-0.196850	1.141122
O45	O	2.436421	0.136483	1.474455
O46	O	1.743351	-0.889938	0.439501
O47	O	2.076684	-0.556604	0.772834
O48	O	2.410018	-0.223271	1.106168
O49	O	1.595979	-0.889863	0.586920
O50	O	1.929313	-0.556530	0.920253
O51	O	2.262646	-0.223196	1.253587
C52	C	1.378466	-0.607789	0.533821
C53	C	1.711800	-0.274455	0.867154
C54	C	2.045133	0.058878	1.200487
C55	C	1.245065	-0.607812	0.533841
C56	C	1.578398	-0.274478	0.867175
C57	C	1.911731	0.058855	1.200508
C58	C	1.666350	-0.935691	0.509889
C59	C	1.999683	-0.602357	0.843222
C60	C	2.333017	-0.269024	1.176556
C61	C	1.656218	-1.075961	0.499686
C62	C	1.989552	-0.742628	0.833019
C63	C	2.322885	-0.409294	1.166353
C64	C	2.003331	-0.607824	0.533846
C65	C	2.336664	-0.274490	0.867180
C66	C	2.669998	0.058843	1.200513
C67	C	2.136730	-0.607831	0.533852
C68	C	2.470064	-0.274498	0.867185
C69	C	2.803397	0.058835	1.200519
C70	C	1.690392	-0.607666	0.846886
C71	C	2.023726	-0.274332	1.180219
C72	C	2.357059	0.059001	1.513553
C73	C	1.690436	-0.607606	0.980290
C74	C	2.023769	-0.274273	1.313624
C75	C	2.357103	0.059061	1.646957
C76	C	1.714356	-0.278640	0.557897
C77	C	2.047689	0.054693	0.891230
C78	C	2.381023	0.388026	1.224563
C79	C	1.724611	-0.138370	0.568151
C80	C	2.057945	0.194963	0.901485
C81	C	2.391278	0.528297	1.234818
C82	C	1.690264	-0.607854	0.222005
C83	C	2.023597	-0.274521	0.555338
C84	C	2.356930	0.058812	0.888671
C85	C	1.690478	-0.607558	0.088627
C86	C	2.023812	-0.274225	0.421960
C87	C	2.357145	0.059108	0.755294
H88	H	1.790919	-1.084491	0.634579
H89	H	2.124252	-0.751157	0.967912
H90	H	2.457585	-0.417824	1.301246
H91	H	1.589897	-1.129848	0.433264
H92	H	1.923230	-0.796515	0.766598
H93	H	2.256563	-0.463181	1.099931
