data_functionalizedCrystal
_audit_creation_method	'MofGen! by Chris Wilmer'
_symmetry_space_group_name_H-M	'P1'
_symmetry_Int_Tables_number	1
_symmetry_cell_setting	triclinic
loop_
_symmetry_equiv_pos_as_xyz
  x,y,z
_cell_length_a	15.538191
_cell_length_b	15.711784
_cell_length_c	11.295483
_cell_angle_alpha	84.669465
_cell_angle_beta	92.465302
_cell_angle_gamma	83.430448
loop_
_atom_site_label
_atom_site_type_symbol
_atom_site_fract_x
_atom_site_fract_y
_atom_site_fract_z
O1	O	0.462332	1.007701	-0.099028
O2	O	0.397602	0.776346	-0.099026
O3	O	0.308357	0.937059	-0.099033
O4	O	0.551578	0.846988	-0.099021
O5	O	0.316177	0.922949	0.099018
O6	O	0.405423	0.762236	0.099025
O7	O	0.470153	0.993591	0.099023
Cu8	Cu	0.438502	0.876625	0.117108
Cu9	Cu	0.429253	0.893312	-0.117111
O10	O	0.559399	0.832878	0.099030
C11	C	0.390938	0.740405	-0.000000
C12	C	0.359420	0.654335	0.000000
C13	C	0.240766	0.566616	-0.000005
C14	C	0.270390	0.647487	-0.000004
C15	C	0.418861	0.580307	-0.000002
C16	C	0.389248	0.499429	-0.000008
C17	C	0.300200	0.492591	-0.000008
C18	C	0.448682	0.425404	-0.000011
C19	C	0.419072	0.344532	-0.000011
C20	C	0.330028	0.337686	-0.000007
C21	C	0.270590	0.411719	-0.000008
C22	C	0.537731	0.432243	-0.000003
C23	C	0.597165	0.358218	-0.000006
C24	C	0.567555	0.277345	-0.000014
C25	C	0.478510	0.270499	-0.000011
C26	C	0.626993	0.203312	-0.000014
C27	C	0.597383	0.122440	-0.000014
C28	C	0.448900	0.189627	-0.000010
C29	C	0.280419	0.939428	-0.000012
C30	C	0.185518	0.967499	-0.000024
C31	C	-0.198370	0.688628	0.000005
C32	C	-0.287540	0.715023	0.000007
C33	C	-0.258820	0.863494	0.000005
C34	C	-0.169646	0.837111	-0.000003
C35	C	-0.139429	0.749677	-0.000002
C36	C	-0.110705	0.898160	-0.000010
C37	C	-0.021539	0.871779	-0.000012
C38	C	0.008686	0.784348	-0.000007
C39	C	-0.050263	0.723295	-0.000004
C40	C	-0.140924	0.985593	-0.000003
C41	C	-0.081982	1.046642	-0.000009
C42	C	0.007185	1.020262	-0.000020
C43	C	0.037410	0.932831	-0.000015
C44	C	0.066134	1.081314	-0.000023
C45	C	0.155300	1.054933	-0.000025
C46	C	0.126576	0.906450	-0.000017
C47	C	0.587336	0.830509	0.000006
C48	C	0.682237	0.802439	0.000010
C49	C	0.476817	1.029532	-0.000005
C50	C	0.508335	1.115602	-0.000014
N51	N	0.445009	0.864894	0.281845
N52	N	0.422742	0.905051	-0.281848
C53	C	0.375854	0.989511	0.531129
C54	C	0.380780	0.980650	0.655793
C55	C	0.459779	0.838308	0.655839
C56	C	0.454854	0.847169	0.531175
C57	C	0.412891	0.922774	0.468824
C58	C	0.407972	0.931637	0.344158
C59	C	0.486965	0.789294	0.344207
C60	C	0.491890	0.780432	0.468871
H61	H	0.699497	0.208893	-0.000002
H62	H	0.517126	0.734953	0.293464
F63	F	0.504426	0.757844	0.722211
F64	F	0.691934	0.365507	-0.000006
H65	H	0.305921	0.271833	0.000004
H66	H	0.376388	0.184062	-0.000023
F67	F	0.331205	1.069979	0.464769
F68	F	0.569246	0.518309	0.000088
F69	F	-0.018099	0.630238	-0.000014
F70	F	-0.290989	0.956544	0.000013
F71	F	0.175814	0.404438	-0.000007
H72	H	0.350619	1.034993	0.706517
F73	F	0.363315	1.012103	0.277802
F74	F	0.660639	0.043653	-0.000009
F75	F	0.513630	0.587596	-0.000002
H76	H	-0.213530	1.007071	-0.000012
F77	F	-0.114152	1.139692	-0.000002
F78	F	0.207125	0.726272	-0.000000
F79	F	0.218034	1.119907	-0.000015
H80	H	0.168254	0.561050	-0.000017
H81	H	0.151180	0.835253	-0.000025
F82	F	0.103586	0.756269	0.000001
F83	F	-0.166207	0.595571	-0.000006
H84	H	0.041517	1.152502	-0.000012
F85	F	-0.350269	0.650039	0.000021
H86	H	0.526053	0.718875	0.519651
