data_functionalizedCrystal
_audit_creation_method	'MofGen! by Chris Wilmer'
_symmetry_space_group_name_H-M	'P1'
_symmetry_Int_Tables_number	1
_symmetry_cell_setting	triclinic
loop_
_symmetry_equiv_pos_as_xyz
  x,y,z
_cell_length_a	25.639240
_cell_length_b	21.395362
_cell_length_c	21.395355
_cell_angle_alpha	89.956060
_cell_angle_beta	89.985684
_cell_angle_gamma	90.047938
loop_
_atom_site_label
_atom_site_type_symbol
_atom_site_fract_x
_atom_site_fract_y
_atom_site_fract_z
Zn1	Zn	-0.207990	0.957854	-0.354604
Zn2	Zn	0.292010	1.457854	0.145396
Zn3	Zn	-0.295409	0.957754	-0.249834
Zn4	Zn	0.204591	1.457754	0.250166
Zn5	Zn	-0.208014	0.853069	-0.249805
Zn6	Zn	0.291986	1.353069	0.250195
Zn7	Zn	-0.295420	0.853035	-0.354539
Zn8	Zn	0.204580	1.353035	0.145461
O9	O	-0.251708	0.905428	-0.302195
O10	O	0.248292	1.405428	0.197805
O11	O	-0.219571	1.045518	-0.340745
O12	O	0.280429	1.545518	0.159255
O13	O	-0.283822	0.943839	-0.162152
O14	O	0.216178	1.443839	0.337848
O15	O	-0.134846	0.867024	-0.263722
O16	O	0.365154	1.367024	0.236278
O17	O	-0.283798	1.045445	-0.263771
O18	O	0.216202	1.545445	0.236229
O19	O	-0.134828	0.944009	-0.340717
O20	O	0.365172	1.444009	0.159283
O21	O	-0.219613	0.866927	-0.162131
O22	O	0.280387	1.366927	0.337869
O23	O	-0.219623	0.765386	-0.263659
O24	O	0.280377	1.265386	0.236341
O25	O	-0.283817	0.866968	-0.442225
O26	O	0.216183	1.366968	0.057775
O27	O	-0.283840	0.765362	-0.340606
O28	O	0.216160	1.265362	0.159394
O29	O	-0.219582	0.943977	-0.442273
O30	O	0.280418	1.443977	0.057727
O31	O	-0.368576	0.943807	-0.263708
O32	O	0.131424	1.443807	0.236292
O33	O	-0.368584	0.866871	-0.340634
O34	O	0.131416	1.366871	0.159366
C35	C	-0.251736	0.742640	-0.302123
C36	C	0.248264	1.242640	0.197877
C37	C	-0.251760	0.672999	-0.302107
C38	C	0.248240	1.172999	0.197893
C39	C	-0.285242	0.640289	-0.342113
C40	C	0.214758	1.140289	0.157887
C41	C	-0.285230	0.574854	-0.342141
C42	C	0.214770	1.074854	0.157859
C43	C	-0.251740	0.542131	-0.302151
C44	C	0.248260	1.042131	0.197849
C45	C	-0.218252	0.574848	-0.262142
C46	C	0.281748	1.074848	0.237858
C47	C	-0.218262	0.640282	-0.262120
C48	C	0.281738	1.140282	0.237880
C49	C	-0.247528	0.438406	-0.245746
C50	C	0.252472	0.938406	0.254254
C51	C	-0.247522	0.372973	-0.245767
C52	C	0.252478	0.872973	0.254233
C53	C	-0.251706	0.340310	-0.302220
C54	C	0.248294	0.840310	0.197780
C55	C	-0.255908	0.373088	-0.358654
C56	C	0.244092	0.873088	0.141346
C57	C	-0.255918	0.438522	-0.358632
C58	C	0.244082	0.938522	0.141368
C59	C	-0.251725	0.471178	-0.302171
C60	C	0.248275	0.971178	0.197829
C61	C	-0.285176	0.236648	-0.342260
C62	C	0.214824	0.736648	0.157740
C63	C	-0.285160	0.171211	-0.342289
C64	C	0.214840	0.671211	0.157711
C65	C	-0.218184	0.171206	-0.262285
C66	C	0.281816	0.671206	0.237715
C67	C	-0.218198	0.236642	-0.262261
C68	C	0.281802	0.736642	0.237739
C69	C	-0.251697	0.269359	-0.302248
C70	C	0.248303	0.769359	0.197752
C71	C	-0.387551	0.905341	-0.302181
C72	C	0.112449	1.405341	0.197819
C73	C	-0.445665	0.905362	-0.302196
C74	C	0.054335	1.405362	0.197804
C75	C	-0.696798	0.945510	-0.342328
C76	C	-0.196798	1.445510	0.157672
C77	C	-0.642194	0.945492	-0.342323
C78	C	-0.142194	1.445492	0.157677
O79	O	-0.613905	0.979555	-0.376424
O80	O	-0.113905	1.479555	0.123576
N81	N	-0.614939	0.905430	-0.302204
N82	N	-0.114939	1.405430	0.197796
C83	C	-0.642291	0.865389	-0.262082
C84	C	-0.142291	1.365389	0.237918
O85	O	-0.614095	0.831313	-0.227956
O86	O	-0.114095	1.331313	0.272044
C87	C	-0.696895	0.865412	-0.262084
C88	C	-0.196895	1.365412	0.237916
C89	C	-0.724146	0.905471	-0.302210
C90	C	-0.224146	1.405471	0.197790
C91	C	-0.724050	0.985567	-0.382451
C92	C	-0.224050	1.485567	0.117549
C93	C	-0.778650	0.985585	-0.382456
C94	C	-0.278650	1.485585	0.117544
C95	C	-0.805999	0.945546	-0.342339
C96	C	-0.305999	1.445546	0.157661
C97	C	-0.778747	0.905489	-0.302216
C98	C	-0.278747	1.405489	0.197784
C99	C	-0.724246	0.825375	-0.221959
C100	C	-0.224246	1.325375	0.278041
C101	C	-0.778853	0.825401	-0.221965
C102	C	-0.278853	1.325401	0.278035
C103	C	-0.806105	0.865461	-0.262091
C104	C	-0.306105	1.365461	0.237909
C105	C	-0.860696	0.865468	-0.262104
C106	C	-0.360696	1.365468	0.237896
N107	N	-0.887951	0.905530	-0.302223
N108	N	-0.387951	1.405530	0.197777
C109	C	-0.860602	0.945568	-0.342341
C110	C	-0.360602	1.445568	0.157659
C111	C	-0.527621	0.865346	-0.262080
C112	C	-0.027621	1.365346	0.237920
C113	C	-0.473018	0.865320	-0.262080
C114	C	0.026982	1.365320	0.237920
C115	C	-0.472924	0.945423	-0.342321
C116	C	0.027076	1.445423	0.157679
C117	C	-0.527528	0.945446	-0.342323
C118	C	-0.027528	1.445446	0.157677
C119	C	-0.554875	0.905407	-0.302199
C120	C	-0.054875	1.405407	0.197801
C121	C	-0.975267	0.945603	-0.342349
C122	C	-0.475267	1.445603	0.157651
C123	C	-1.029873	0.945615	-0.342353
C124	C	-0.529873	1.445615	0.157647
C125	C	-1.029962	0.865514	-0.262111
C126	C	-0.529962	1.365514	0.237889
C127	C	-0.975361	0.865499	-0.262109
C128	C	-0.475361	1.365499	0.237891
C129	C	-0.948015	0.905549	-0.302230
C130	C	-0.448015	1.405549	0.197770
O131	O	-0.889019	0.831423	-0.228019
O132	O	-0.389019	1.331423	0.271981
O133	O	-0.888805	0.979645	-0.376455
O134	O	-0.388805	1.479645	0.123545
C135	C	-0.115335	0.905532	-0.302224
C136	C	0.384665	1.405532	0.197776
C137	C	-0.057221	0.905576	-0.302236
C138	C	0.442779	1.405576	0.197764
C139	C	-0.251698	0.905480	-0.465619
C140	C	0.248302	1.405480	0.034381
C141	C	-0.251693	0.905502	-0.535260
C142	C	0.248307	1.405502	-0.035260
C143	C	-0.251681	1.068851	-0.302269
C144	C	0.248319	1.568851	0.197731
C145	C	-0.251669	1.138492	-0.302300
C146	C	0.248331	1.638492	0.197700
C147	C	-0.218245	0.945599	-0.567999
C148	C	0.281755	1.445599	-0.067999
C149	C	-0.218222	0.945598	-0.633435
C150	C	0.281778	1.445598	-0.133435
C151	C	-0.251658	0.905507	-0.666128
C152	C	0.248342	1.405507	-0.166128
C153	C	-0.285108	0.865402	-0.633382
C154	C	0.214892	1.365402	-0.133382
C155	C	-0.285126	0.865399	-0.567947
C156	C	0.214874	1.365399	-0.067947
C157	C	-0.298736	0.900530	-0.769796
C158	C	0.201264	1.400530	-0.269796
C159	C	-0.298719	0.900536	-0.835229
C160	C	0.201281	1.400536	-0.335229
C161	C	-0.251602	0.905511	-0.867949
C162	C	0.248398	1.405511	-0.367949
C163	C	-0.204501	0.910491	-0.835228
C164	C	0.295499	1.410491	-0.335228
C165	C	-0.204519	0.910489	-0.769794
C166	C	0.295481	1.410489	-0.269794
C167	C	-0.251642	0.905505	-0.737081
C168	C	0.248358	1.405505	-0.237081
C169	C	-0.218127	0.945609	-0.971641
C170	C	0.281873	1.445609	-0.471641
C171	C	-0.218103	0.945604	-1.037078
C172	C	0.281897	1.445604	-0.537078
C173	C	-0.284994	0.865411	-1.037023
C174	C	0.215006	1.365411	-0.537023
C175	C	-0.285013	0.865413	-0.971588
C176	C	0.214987	1.365413	-0.471588
C177	C	-0.251580	0.905515	-0.938901
C178	C	0.248420	1.405515	-0.438901
C179	C	-0.251681	0.905412	-0.139408
C180	C	0.248319	1.405412	0.360592
C181	C	-0.251538	0.905511	-0.069767
C182	C	0.248462	1.405511	0.430233
H183	H	-0.259314	0.346495	-0.404624
H184	H	0.240686	0.846495	0.095376
H185	H	-0.800834	1.018210	-0.415126
H186	H	-0.300834	1.518210	0.084874
H187	H	-0.190901	0.978259	-0.945026
H188	H	0.309099	1.478259	-0.445026
H189	H	-0.259338	0.465207	-0.404583
H190	H	0.240662	0.965207	0.095417
H191	H	-0.701787	1.018175	-0.415119
H192	H	-0.201787	1.518175	0.084881
H193	H	-0.702065	0.792755	-0.189285
H194	H	-0.202065	1.292755	0.310715
H195	H	-0.190995	0.666914	-0.229541
H196	H	0.309005	1.166914	0.270459
H197	H	-0.953172	0.832873	-0.229441
H198	H	-0.453172	1.332873	0.270559
H199	H	-0.166167	0.914543	-0.743155
H200	H	0.333833	1.414543	-0.243155
H201	H	-0.549713	0.978063	-0.375000
H202	H	-0.049713	1.478063	0.125000
H203	H	-0.166134	0.914543	-0.861867
H204	H	0.333866	1.414543	-0.361867
H205	H	-0.190863	0.978255	-1.063733
H206	H	0.309137	1.478255	-0.563733
H207	H	-0.337072	0.896485	-0.861866
H208	H	0.162928	1.396485	-0.361866
H209	H	-0.312213	0.832761	-1.063642
H210	H	0.187787	1.332761	-0.563642
H211	H	-0.312253	0.832765	-0.944931
H212	H	0.187747	1.332765	-0.444931
H213	H	-0.801117	0.792797	-0.189290
H214	H	-0.301117	1.292797	0.310710
H215	H	-1.052239	0.832914	-0.229450
H216	H	-0.552239	1.332914	0.270550
H217	H	-0.312424	0.144580	-0.374871
H218	H	0.187576	0.644580	0.125129
H219	H	-0.312330	0.832757	-0.660005
H220	H	0.187670	1.332757	-0.160005
H221	H	-1.052059	0.978235	-0.375033
H222	H	-0.552059	1.478235	0.124967
H223	H	-0.190982	0.978249	-0.660096
H224	H	0.309018	1.478249	-0.160096
H225	H	-0.191020	0.978253	-0.541389
H226	H	0.308980	1.478253	-0.041389
H227	H	-0.337094	0.896311	-0.743161
H228	H	0.162906	1.396311	-0.243161
H229	H	-0.312519	0.666923	-0.374674
H230	H	0.187481	1.166923	0.125326
H231	H	-0.312495	0.548217	-0.374721
H232	H	0.187505	1.048217	0.125279
H233	H	-0.312450	0.263287	-0.374823
H234	H	0.187550	0.763287	0.125177
H235	H	-0.450647	0.978026	-0.374986
H236	H	0.049353	1.478026	0.125014
H237	H	-0.190914	0.144564	-0.229727
H238	H	0.309086	0.644564	0.270273
H239	H	-0.244119	0.464995	-0.199771
H240	H	0.255881	0.964995	0.300229
H241	H	-0.190936	0.263274	-0.229681
H242	H	0.309064	0.763274	0.270319
H243	H	-0.549884	0.832736	-0.229408
H244	H	-0.049884	1.332736	0.270592
H245	H	-0.312363	0.832745	-0.541292
H246	H	0.187637	1.332745	-0.041292
H247	H	-0.953008	0.978215	-0.375019
H248	H	-0.453008	1.478215	0.124981
H249	H	-0.190984	0.548200	-0.229583
H250	H	0.309016	1.048200	0.270417
H251	H	-0.244104	0.346290	-0.199815
H252	H	0.255896	0.846290	0.300185
H253	H	-0.450834	0.832693	-0.229413
H254	H	0.049166	1.332693	0.270587
