data_functionalizedCrystal
_audit_creation_method	'MofGen! by Chris Wilmer'
_symmetry_space_group_name_H-M	'P1'
_symmetry_Int_Tables_number	1
_symmetry_cell_setting	triclinic
loop_
_symmetry_equiv_pos_as_xyz
  x,y,z
_cell_length_a	15.995350
_cell_length_b	15.995292
_cell_length_c	10.868271
_cell_angle_alpha	89.998057
_cell_angle_beta	89.999330
_cell_angle_gamma	83.480495
loop_
_atom_site_label
_atom_site_type_symbol
_atom_site_fract_x
_atom_site_fract_y
_atom_site_fract_z
O1	O	1.110963	0.107930	-0.102209
O2	O	0.867185	0.121258	-0.102233
O3	O	0.995763	-0.007297	-0.102223
O4	O	0.982385	0.236485	-0.102220
O5	O	0.995752	-0.007302	0.102422
O6	O	0.867174	0.121253	0.102411
O7	O	1.110952	0.107925	0.102435
Zn8	Zn	0.989062	0.114588	0.134915
Zn9	Zn	0.989075	0.114595	-0.134713
O10	O	0.982374	0.236480	0.102425
C11	C	0.835985	0.120704	0.000086
C12	C	0.743035	0.119053	0.000076
C13	C	0.995213	-0.038495	0.000097
C14	C	0.993581	-0.131448	0.000087
C15	C	0.405288	0.113120	0.000102
C16	C	0.452742	0.021566	0.000557
C17	C	0.549431	0.023218	0.000087
C18	C	0.572848	0.116063	0.000090
C19	C	0.531758	0.161223	-0.116767
C20	C	0.435123	0.158923	-0.116856
C21	C	0.434771	0.160809	0.115863
C22	C	0.531717	0.160788	0.117399
C23	C	0.667546	0.117731	0.000079
C24	C	0.310591	0.111455	0.000104
C25	C	0.987580	-0.469186	0.000098
C26	C	1.080384	-0.445874	0.000564
C27	C	1.082148	-0.349199	0.000099
C28	C	0.990557	-0.301631	0.000093
C29	C	0.944166	-0.330729	-0.116770
C30	C	0.943048	-0.427519	-0.116863
C31	C	0.941141	-0.427382	0.115856
C32	C	0.944580	-0.330890	0.117396
C33	C	0.992235	-0.206934	0.000087
C34	C	0.985899	-0.563882	0.000096
C35	C	1.142152	0.108479	0.000114
C36	C	1.235102	0.110130	0.000115
C37	C	0.982924	0.267678	0.000103
C38	C	0.984556	0.360631	0.000104
N39	N	0.989058	0.114583	0.318929
N40	N	0.989085	0.114593	-0.318727
C41	C	0.989071	0.114593	0.569935
C42	C	0.989061	0.114590	0.430258
H43	H	0.577863	-0.012280	0.083855
C44	C	0.986478	-0.463748	-0.234863
N45	N	1.019194	-0.491032	-0.323740
C46	C	1.131233	-0.323497	0.113269
N47	N	1.168209	-0.304144	0.198510
C48	C	0.990195	-0.305782	0.234196
N49	N	1.024548	-0.286857	0.322168
C50	C	1.128708	-0.483705	0.113781
N51	N	1.165107	-0.512206	0.199059
C52	C	1.128448	-0.485069	-0.112014
N53	N	1.164647	-0.514592	-0.196809
H54	H	1.118704	-0.330792	-0.083813
C55	C	0.851126	-0.447179	-0.124058
N56	N	0.781891	-0.461982	-0.129488
C57	C	0.410403	0.114429	-0.234862
N58	N	0.391789	0.080911	-0.323744
H59	H	0.876767	-0.298861	-0.121118
H60	H	0.577301	-0.012516	-0.083827
C61	C	0.391536	0.249729	-0.124045
N62	N	0.358710	0.318123	-0.129472
C63	C	0.427715	-0.027879	0.113768
N64	N	0.408857	-0.065122	0.199041
C65	C	0.987704	-0.303635	-0.234257
N66	N	1.020502	-0.283231	-0.322746
C67	C	0.570098	0.118850	-0.234261
N68	N	0.598974	0.086929	-0.322754
H69	H	0.545869	0.229434	-0.121111
H70	H	0.970363	-0.455473	0.204437
C71	C	0.854263	-0.286354	0.126924
N72	N	0.786231	-0.252810	0.134090
C73	C	0.426276	-0.027652	-0.112018
N74	N	0.406338	-0.064722	-0.196810
H75	H	0.414238	0.130876	0.204438
C76	C	0.848861	-0.446296	0.116927
N77	N	0.779359	-0.460550	0.117728
H78	H	0.559036	0.127821	0.203849
C79	C	0.552468	0.252251	0.126953
N80	N	0.568103	0.321142	0.134145
H81	H	0.402996	0.228312	0.116655
