data_functionalizedCrystal
_audit_creation_method	'MofGen! by Chris Wilmer'
_symmetry_space_group_name_H-M	'P1'
_symmetry_Int_Tables_number	1
_symmetry_cell_setting	triclinic
loop_
_symmetry_equiv_pos_as_xyz
  x,y,z
_cell_length_a	12.759401
_cell_length_b	12.759400
_cell_length_c	12.759393
_cell_angle_alpha	90.023884
_cell_angle_beta	89.979062
_cell_angle_gamma	89.995030
loop_
_atom_site_label
_atom_site_type_symbol
_atom_site_fract_x
_atom_site_fract_y
_atom_site_fract_z
Zn1	Zn	-1.606349	-0.418173	0.594068
Zn2	Zn	-1.273015	-0.084839	0.927402
Zn3	Zn	-0.939682	0.248494	1.260735
Zn4	Zn	-1.606274	-0.593888	0.418409
Zn5	Zn	-1.272941	-0.260555	0.751742
Zn6	Zn	-0.939607	0.072778	1.085075
Zn7	Zn	-1.430647	-0.418229	0.418404
Zn8	Zn	-1.097314	-0.084895	0.751737
Zn9	Zn	-0.763981	0.248438	1.085070
Zn10	Zn	-1.430674	-0.593815	0.594046
Zn11	Zn	-1.097340	-0.260481	0.927379
Zn12	Zn	-0.764007	0.072852	1.260713
O13	O	-1.518486	-0.506026	0.506232
O14	O	-1.185153	-0.172693	0.839565
O15	O	-0.851819	0.160641	1.172898
O16	O	-1.753360	-0.441489	0.570778
O17	O	-1.420026	-0.108156	0.904112
O18	O	-1.086693	0.225178	1.237445
O19	O	-1.582935	-0.570641	0.271387
O20	O	-1.249601	-0.237307	0.604720
O21	O	-0.916268	0.096026	0.938054
O22	O	-1.453975	-0.271200	0.441713
O23	O	-1.120641	0.062133	0.775046
O24	O	-0.787308	0.395467	1.108380
O25	O	-1.753305	-0.570586	0.441722
O26	O	-1.419972	-0.237253	0.775055
O27	O	-1.086638	0.096080	1.108389
O28	O	-1.583061	-0.271159	0.570773
O29	O	-1.249728	0.062174	0.904107
O30	O	-0.916395	0.395508	1.237440
O31	O	-1.453902	-0.441584	0.271383
O32	O	-1.120569	-0.108251	0.604716
O33	O	-0.787236	0.225082	0.938050
O34	O	-1.283630	-0.441513	0.441691
O35	O	-0.950296	-0.108180	0.775025
O36	O	-0.616963	0.225154	1.108358
O37	O	-1.454019	-0.570461	0.741070
O38	O	-1.120686	-0.237128	1.074403
O39	O	-0.787353	0.096205	1.407737
O40	O	-1.283649	-0.570516	0.570735
O41	O	-0.950316	-0.237182	0.904068
O42	O	-0.616982	0.096151	1.237402
O43	O	-1.583087	-0.441418	0.741087
O44	O	-1.249754	-0.108085	1.074420
O45	O	-0.916420	0.225249	1.407753
O46	O	-1.582960	-0.740899	0.441700
O47	O	-1.249627	-0.407566	0.775034
O48	O	-0.916294	-0.074233	1.108367
O49	O	-1.453947	-0.740846	0.570740
O50	O	-1.120614	-0.407512	0.904074
O51	O	-0.787281	-0.074179	1.237407
C52	C	-1.245519	-0.506013	0.506211
C53	C	-0.912185	-0.172680	0.839544
C54	C	-0.578852	0.160653	1.172878
C55	C	-1.128742	-0.506033	0.506227
C56	C	-0.795409	-0.172700	0.839560
C57	C	-0.462075	0.160634	1.172894
C58	C	-1.518477	-0.778993	0.506241
C59	C	-1.185144	-0.445660	0.839575
C60	C	-0.851810	-0.112327	1.172908
C61	C	-1.518569	-0.895770	0.506281
C62	C	-1.185236	-0.562437	0.839614
C63	C	-0.851903	-0.229103	1.172947
C64	C	-1.518564	-0.505925	0.780265
C65	C	-1.185231	-0.172592	1.113599
C66	C	-0.851898	0.160741	1.446932
C67	C	-1.518598	-0.505882	0.897042
C68	C	-1.185265	-0.172549	1.230375
C69	C	-0.851931	0.160784	1.563709
C70	C	-1.792519	-0.506040	0.506253
C71	C	-1.459186	-0.172706	0.839587
C72	C	-1.125852	0.160627	1.172920
C73	C	-1.909296	-0.506046	0.506262
C74	C	-1.575962	-0.172712	0.839596
C75	C	-1.242629	0.160621	1.172929
C76	C	-1.073918	-0.573307	0.573314
C77	C	-0.740584	-0.239973	0.906648
C78	C	-0.407251	0.093360	1.239981
C79	C	-0.964194	-0.573311	0.573335
C80	C	-0.630860	-0.239977	0.906668
C81	C	-0.297527	0.093356	1.240002
C82	C	-0.964128	-0.438764	0.439172
C83	C	-0.630794	-0.105431	0.772505
C84	C	-0.297461	0.227902	1.105839
C85	C	-1.073850	-0.438756	0.439157
C86	C	-0.740517	-0.105422	0.772491
C87	C	-0.407183	0.227911	1.105824
C88	C	-1.518523	-0.231993	0.506245
C89	C	-1.185190	0.101341	0.839578
C90	C	-0.851857	0.434674	1.172912
C91	C	-1.518539	-0.115216	0.506251
C92	C	-1.185206	0.218117	0.839584
C93	C	-0.851873	0.551451	1.172917
C94	C	-1.451342	-0.060374	0.439062
C95	C	-1.118008	0.272959	0.772395
C96	C	-0.784675	0.606293	1.105728
C97	C	-1.451354	0.049350	0.439079
C98	C	-1.118020	0.382684	0.772412
C99	C	-0.784687	0.716017	1.105745
C100	C	-1.585770	0.049380	0.573477
C101	C	-1.252437	0.382713	0.906810
C102	C	-0.919103	0.716047	1.240144
C103	C	-1.585752	-0.060342	0.573465
C104	C	-1.252419	0.272991	0.906798
C105	C	-0.919085	0.606325	1.240131
C106	C	-1.518468	-0.506051	0.233264
C107	C	-1.185135	-0.172717	0.566598
C108	C	-0.851801	0.160616	0.899931
C109	C	-1.518638	-0.505798	0.116488
C110	C	-1.185305	-0.172464	0.449822
C111	C	-0.851971	0.160869	0.783155
C112	C	-1.585808	-0.438678	0.951914
C113	C	-1.252475	-0.105345	1.285247
C114	C	-0.919142	0.227988	1.618581
C115	C	-1.585826	-0.438633	1.061638
C116	C	-1.252493	-0.105300	1.394972
C117	C	-0.919160	0.228033	1.728305
C118	C	-1.451420	-0.573004	1.061608
C119	C	-1.118087	-0.239671	1.394942
C120	C	-0.784753	0.093662	1.728275
C121	C	-1.451398	-0.573044	0.951886
C122	C	-1.118065	-0.239710	1.285219
C123	C	-0.784731	0.093623	1.618553
H124	H	-1.118607	-0.628086	0.627929
H125	H	-0.785274	-0.294752	0.961262
H126	H	-0.451941	0.038581	1.294596
H127	H	-0.919560	-0.628090	0.627966
H128	H	-0.586227	-0.294757	0.961299
H129	H	-0.252894	0.038576	1.294632
H130	H	-1.396634	0.094000	0.384369
H131	H	-1.063301	0.427333	0.717702
H132	H	-0.729967	0.760666	1.051035
Br133	Br	-1.676944	-0.134778	0.664668
Br134	Br	-1.343610	0.198555	0.998002
Br135	Br	-1.010277	0.531889	1.331335
H136	H	-1.640524	-0.383988	0.907263
H137	H	-1.307191	-0.050655	1.240596
H138	H	-0.973858	0.282678	1.573930
Br139	Br	-1.676979	0.123859	0.664695
Br140	Br	-1.343646	0.457192	0.998028
Br141	Br	-1.010312	0.790525	1.331362
Br142	Br	-1.677052	-0.347432	1.136104
Br143	Br	-1.343719	-0.014098	1.469437
Br144	Br	-1.010386	0.319235	1.802771
H145	H	-1.396660	-0.627768	0.907208
H146	H	-1.063326	-0.294435	1.240541
H147	H	-0.729993	0.038899	1.573875
Br148	Br	-1.360123	-0.134843	0.347846
Br149	Br	-1.026790	0.198490	0.681179
Br150	Br	-0.693457	0.531824	1.014512
Br151	Br	-1.360228	-0.664151	1.136046
Br152	Br	-1.026895	-0.330818	1.469380
Br153	Br	-0.693562	0.002515	1.802713
Br154	Br	-1.148261	-0.347439	0.348114
Br155	Br	-0.814928	-0.014105	0.681447
Br156	Br	-0.481595	0.319228	1.014780
Br157	Br	-0.889625	-0.347464	0.348154
Br158	Br	-0.556292	-0.014131	0.681487
Br159	Br	-0.222958	0.319202	1.014820
