data_functionalizedCrystal
_audit_creation_method	'MofGen! by Chris Wilmer'
_symmetry_space_group_name_H-M	'P1'
_symmetry_Int_Tables_number	1
_symmetry_cell_setting	triclinic
loop_
_symmetry_equiv_pos_as_xyz
  x,y,z
_cell_length_a	11.026660
_cell_length_b	14.853559
_cell_length_c	9.482900
_cell_angle_alpha	80.650553
_cell_angle_beta	101.363893
_cell_angle_gamma	96.108144
loop_
_atom_site_label
_atom_site_type_symbol
_atom_site_fract_x
_atom_site_fract_y
_atom_site_fract_z
O1	O	1.629669	0.366561	0.120887
O2	O	1.276294	0.323564	0.120889
O3	O	1.462426	0.215356	0.120886
O4	O	1.443537	0.474769	0.120889
O5	O	1.424619	0.237448	-0.120906
O6	O	1.238487	0.345656	-0.120903
O7	O	1.591861	0.388653	-0.120905
Cu8	Cu	1.411722	0.369172	-0.142982
Cu9	Cu	1.456434	0.343045	0.142965
O10	O	1.405730	0.496861	-0.120903
C11	C	1.212167	0.326677	-0.000006
C12	C	1.077415	0.303031	-0.000005
C13	C	0.864443	0.343892	-0.000000
C14	C	1.003716	0.368334	-0.000003
C15	C	1.442669	0.192675	-0.000007
C16	C	1.440111	0.092178	0.000001
C17	C	1.449863	-0.344792	0.131802
C18	C	1.408643	-0.320701	-0.131809
C19	C	1.411058	-0.226278	-0.131810
C20	C	1.432873	-0.191108	-0.000003
C21	C	1.452274	-0.250361	0.131805
C22	C	1.391645	-0.167019	-0.263616
C23	C	1.394057	-0.072589	-0.263622
C24	C	1.415882	-0.037417	-0.131814
C25	C	1.435285	-0.096677	-0.000000
C26	C	1.457100	-0.061507	0.131806
C27	C	1.476512	-0.120764	0.263621
C28	C	1.474099	-0.215189	0.263613
C29	C	1.418295	0.057008	-0.131806
C30	C	1.459512	0.032925	0.131809
C31	C	1.655989	0.385539	-0.000007
C32	C	1.790743	0.409185	0.000002
C33	C	1.425488	0.519541	-0.000006
C34	C	1.428047	0.620038	-0.000005
N35	N	1.380283	0.387549	-0.344101
C36	C	1.447152	0.348459	-0.416301
C37	C	1.421003	0.363758	-0.583719
N38	N	1.487882	0.324663	0.344085
H39	H	1.043719	0.442334	-0.000012
C40	C	1.023389	0.203062	0.000007
H41	H	0.936872	0.199744	0.000022
H42	H	1.036790	0.181581	-0.084306
H43	H	1.063164	0.166187	0.084341
C44	C	1.550644	0.287947	-0.332390
H45	H	1.589200	0.265401	-0.399397
H46	H	1.610587	0.323113	-0.272994
H47	H	1.515982	0.237979	-0.273027
H48	H	1.344386	0.408548	-0.645842
C49	C	1.396942	0.122188	-0.276778
H50	H	1.401496	0.183462	-0.257901
H51	H	1.458799	0.116262	-0.330947
H52	H	1.317337	0.107060	-0.330922
C53	C	1.384653	-0.359386	-0.276783
H54	H	1.386003	-0.424108	-0.257907
H55	H	1.305856	-0.343562	-0.330949
H56	H	1.447324	-0.334363	-0.330929
H57	H	0.830751	0.483181	-0.000007
C58	C	1.483508	0.071604	0.276800
H59	H	1.494714	0.022788	0.355295
H60	H	1.556029	0.112544	0.282280
H61	H	1.414564	0.103332	0.282282
C62	C	1.276794	0.448061	-0.428020
H63	H	1.272801	0.450410	-0.529534
H64	H	1.199571	0.422992	-0.403166
H65	H	1.294178	0.508124	-0.403144
C66	C	0.810407	0.243929	0.000002
H67	H	0.723890	0.240614	0.000014
H68	H	0.823809	0.222452	-0.084314
H69	H	0.850178	0.207050	0.084333
C70	C	1.500507	-0.082074	0.408604
H71	H	1.511716	-0.130885	0.487109
H72	H	1.573026	-0.041132	0.414075
H73	H	1.431561	-0.050347	0.414078
H74	H	1.489901	-0.263444	0.370930
C75	C	1.471209	-0.409968	0.276787
H76	H	1.466643	-0.471243	0.257916
H77	H	1.550798	-0.394837	0.330946
H78	H	1.409331	-0.404043	0.330938
C79	C	1.367661	-0.205705	-0.408588
H80	H	1.369024	-0.270427	-0.389708
H81	H	1.288861	-0.189891	-0.462755
H82	H	1.430329	-0.180677	-0.462736
C83	C	1.591379	0.264146	-0.572012
H84	H	1.629933	0.241601	-0.639022
H85	H	1.651323	0.299311	-0.512616
H86	H	1.556718	0.214178	-0.512650
C87	C	1.372722	-0.007415	-0.408609
H88	H	1.359394	-0.041885	-0.487107
H89	H	1.302083	0.025328	-0.414096
H90	H	1.443550	0.034516	-0.414081
