data_functionalizedCrystal
_audit_creation_method	'MofGen! by Chris Wilmer'
_symmetry_space_group_name_H-M	'P1'
_symmetry_Int_Tables_number	1
_symmetry_cell_setting	triclinic
loop_
_symmetry_equiv_pos_as_xyz
  x,y,z
_cell_length_a	8.497374
_cell_length_b	8.497365
_cell_length_c	18.101398
_cell_angle_alpha	89.960281
_cell_angle_beta	89.989608
_cell_angle_gamma	89.956913
loop_
_atom_site_label
_atom_site_type_symbol
_atom_site_fract_x
_atom_site_fract_y
_atom_site_fract_z
Zn1	Zn	-0.627859	-0.892351	1.132423
Zn2	Zn	-0.891803	-0.628591	1.132365
Zn3	Zn	-0.628009	-0.628545	1.008548
Zn4	Zn	-0.891569	-0.892290	1.008612
O5	O	-0.759810	-0.760444	1.070487
O6	O	-0.662907	-0.857407	1.236048
O7	O	-0.856970	-0.407823	1.115890
O8	O	-0.407226	-0.663545	1.024978
O9	O	-0.856825	-0.663625	1.236005
O10	O	-0.407116	-0.857362	1.115988
O11	O	-0.663162	-0.407788	1.024922
O12	O	-0.662935	-0.663486	0.904924
O13	O	-0.856427	-1.113061	1.025086
O14	O	-0.856572	-0.857259	0.904971
O15	O	-0.662680	-1.113105	1.116050
O16	O	-1.112534	-0.663566	1.115951
O17	O	-1.112362	-0.857305	1.025030
C18	C	-0.759746	-0.760362	0.878076
C19	C	-0.759756	-0.760364	0.795762
C20	C	-0.169690	-0.760438	1.070484
C21	C	-0.348334	-0.760448	1.070488
C22	C	-0.759982	-0.350564	1.070434
C23	C	-0.759658	-0.171921	1.070539
C24	C	-0.759855	-0.760497	0.496671
C25	C	-0.637414	-0.639175	0.527942
C26	C	-0.637743	-0.638657	0.613561
C27	C	-0.759805	-0.760431	0.645054
C28	C	-0.926008	-0.715038	0.613980
C29	C	-0.925328	-0.714194	0.528335
C30	C	-0.717536	-0.927498	0.528294
C31	C	-0.713836	-0.926585	0.613944
C32	C	-0.759786	-0.760396	0.728913
C33	C	-0.759884	-0.760527	0.412812
C34	C	-0.759875	-0.760528	1.263649
C35	C	-0.759903	-0.760563	1.345963
H36	H	-0.514498	-0.667107	0.634568
N37	N	-0.473661	-0.676412	0.500644
H38	H	-0.477248	-0.772286	0.467740
H39	H	-0.431598	-0.583841	0.471740
N40	N	-1.050072	-0.828438	0.641013
H41	H	-1.132420	-0.769134	0.670079
H42	H	-1.101197	-0.881638	0.597303
N43	N	-0.674830	-0.474756	0.640659
H44	H	-0.584510	-0.434639	0.671618
H45	H	-0.691067	-0.402668	0.596932
H46	H	-0.591528	-0.960814	0.634255
H47	H	-0.962509	-0.594272	0.635391
N48	N	-0.673969	-0.476414	0.499113
H49	H	-0.783218	-0.444501	0.515231
H50	H	-0.594717	-0.399114	0.519334
N51	N	-0.972851	-0.552485	0.501813
H52	H	-0.994041	-0.482418	0.545757
H53	H	-0.885081	-0.506040	0.471152
H54	H	-0.598446	-0.968775	0.506692
H55	H	-1.019649	-0.798708	0.507652
H56	H	-0.796510	-1.021821	0.635386
H57	H	-0.806716	-1.017894	0.508076
