data_functionalizedCrystal
_audit_creation_method	'MofGen! by Chris Wilmer'
_symmetry_space_group_name_H-M	'P1'
_symmetry_Int_Tables_number	1
_symmetry_cell_setting	triclinic
loop_
_symmetry_equiv_pos_as_xyz
  x,y,z
_cell_length_a	10.489741
_cell_length_b	27.732048
_cell_length_c	8.965430
_cell_angle_alpha	89.995481
_cell_angle_beta	89.998843
_cell_angle_gamma	83.590915
loop_
_atom_site_label
_atom_site_type_symbol
_atom_site_fract_x
_atom_site_fract_y
_atom_site_fract_z
O1	O	1.691056	0.068187	-0.123965
O2	O	1.319579	0.074588	-0.123990
O3	O	1.516855	0.001064	-0.123949
O4	O	1.493781	0.141711	-0.124007
O5	O	1.516839	0.001068	0.124130
O6	O	1.319563	0.074593	0.124089
O7	O	1.691040	0.068192	0.124113
Cu8	Cu	1.505300	0.071393	0.146753
Cu9	Cu	1.505319	0.071387	-0.146629
O10	O	1.493764	0.141716	0.124072
C11	C	1.272061	0.074107	0.000046
C12	C	1.130495	0.072661	0.000038
C13	C	1.516363	-0.016944	0.000095
C14	C	1.514904	-0.070608	0.000107
C15	C	1.064411	0.025879	0.000072
C16	C	0.971321	0.047976	-0.122250
C17	C	0.971338	0.047992	0.122336
C18	C	1.039269	0.094776	-0.122385
C19	C	1.039296	0.094786	0.122311
C20	C	0.946232	0.116916	-0.000040
C21	C	1.622299	-0.408745	0.000038
C22	C	1.616888	-0.610439	0.000016
O23	O	1.715093	-0.641075	-0.000042
N24	N	1.499911	-0.630301	0.000010
C25	C	1.384279	-0.599736	-0.000001
O26	O	1.284660	-0.621258	-0.000022
C27	C	1.389692	-0.398044	0.000010
C28	C	1.506676	-0.378184	0.000031
C29	C	1.739274	-0.388886	0.000058
C30	C	1.740625	-0.338465	0.000071
C31	C	1.625002	-0.307904	0.000064
C32	C	1.508028	-0.327764	0.000045
C33	C	1.274062	-0.367480	-0.000012
C34	C	1.275425	-0.317054	-0.000013
C35	C	1.392409	-0.297195	0.000008
C36	C	1.393757	-0.246783	0.000052
N37	N	1.510733	-0.226920	0.000058
C38	C	1.626356	-0.257481	0.000064
C39	C	1.381446	-0.705628	-0.000003
C40	C	1.380092	-0.756051	-0.000003
C41	C	1.612701	-0.766751	0.000011
C42	C	1.614053	-0.716327	0.000022
C43	C	1.498422	-0.685766	0.000003
C44	C	1.629186	-0.151594	0.000094
C45	C	1.630527	-0.101169	0.000113
C46	C	1.397919	-0.090474	0.000091
C47	C	1.396577	-0.140895	0.000079
C48	C	1.512221	-0.171454	0.000076
O49	O	1.295604	-0.216118	0.000093
O50	O	1.725961	-0.235950	0.000053
C51	C	1.620947	-0.459166	0.000024
C52	C	1.503973	-0.479025	0.000004
C53	C	1.388350	-0.448464	-0.000002
C54	C	1.502619	-0.529448	0.000004
C55	C	1.618242	-0.560009	0.000011
C56	C	1.735219	-0.540147	0.000017
C57	C	1.736570	-0.489727	0.000031
C58	C	1.271374	-0.468327	-0.000009
C59	C	1.270032	-0.518748	-0.000020
C60	C	1.385654	-0.549308	-0.000014
C61	C	1.738559	0.068673	0.000074
C62	C	1.880124	0.070119	0.000072
C63	C	1.494257	0.159724	0.000025
C64	C	1.495715	0.213388	0.000003
N65	N	1.505295	0.071397	0.353102
N66	N	1.505334	0.071379	-0.352979
C67	C	1.414034	0.105388	0.450388
C68	C	1.529101	0.115168	0.549805
C69	C	1.390277	0.061621	0.549812
C70	C	1.620420	0.081198	0.450330
C71	C	1.481520	0.027633	0.450328
C72	C	1.596671	0.037394	0.549700
H73	H	1.115791	-0.012578	-0.000065
H74	H	1.336927	0.134160	0.406783
H75	H	0.941224	0.028191	0.225750
C76	C	1.247998	-0.642720	0.127510
C77	C	1.254336	-0.672038	-0.000014
H78	H	1.169529	-0.621983	0.127500
H79	H	1.252303	-0.662616	0.214005
H80	H	1.317857	-0.623674	0.127496
H81	H	1.184482	-0.691086	0.000006
H82	H	1.250019	-0.652140	-0.086531
C83	C	1.460585	0.200669	0.558692
C84	C	1.556285	0.165118	0.608809
H85	H	1.477359	0.231506	0.595124
H86	H	1.459997	0.201124	0.452760
H87	H	1.379497	0.193492	0.594226
H88	H	1.637372	0.172293	0.573265
H89	H	1.556885	0.164664	0.714764
C90	C	1.860320	-0.116817	0.000115
C91	C	1.759125	-0.079341	0.000125
H92	H	1.939706	-0.103342	0.000110
H93	H	1.854950	-0.136264	0.086617
H94	H	1.854944	-0.136258	-0.086405
H95	H	1.764496	-0.059902	0.086651
H96	H	1.764498	-0.059886	-0.086386
C97	C	1.699472	-0.001386	0.764385
C98	C	1.700978	-0.001425	0.608213
H99	H	1.763863	-0.025352	0.800507
H100	H	1.715693	0.029610	0.799944
H101	H	1.617840	-0.008398	0.798616
H102	H	1.782608	0.005591	0.573981
H103	H	1.684766	-0.032428	0.572640
H104	H	1.292992	0.053360	0.593515
C105	C	1.762660	-0.214493	-0.127437
C106	C	1.756302	-0.185180	0.000096
H107	H	1.841140	-0.235224	-0.127430
H108	H	1.692820	-0.233541	-0.127440
H109	H	1.758353	-0.194591	-0.213935
H110	H	1.760600	-0.205082	0.086594
H111	H	1.826162	-0.166130	0.000113
C112	C	1.039233	0.005730	-0.347294
C113	C	0.930632	0.021251	-0.261832
H114	H	1.014118	-0.010774	-0.433456
H115	H	1.080370	0.033037	-0.376709
H116	H	1.096855	-0.015607	-0.289679
H117	H	0.873014	0.042591	-0.319443
H118	H	0.889475	-0.006060	-0.232419
H119	H	1.461348	-0.009359	0.406599
H120	H	1.069235	0.114553	-0.225916
H121	H	0.895116	0.155414	-0.000123
C122	C	1.873057	-0.439243	0.127575
C123	C	1.865164	-0.467902	0.000043
H124	H	1.952454	-0.425776	0.127580
H125	H	1.804409	-0.413823	0.127562
H126	H	1.867681	-0.458699	0.214073
H127	H	1.870531	-0.448446	-0.086456
H128	H	1.933831	-0.493326	0.000042
H129	H	1.069466	0.114566	0.225716
H130	H	1.835885	-0.322301	0.000082
C131	C	1.141999	-0.254139	-0.127558
C132	C	1.148316	-0.283462	-0.000032
H133	H	1.063524	-0.233405	-0.127568
H134	H	1.211846	-0.235094	-0.127531
H135	H	1.146322	-0.274034	-0.214061
H136	H	1.144003	-0.263568	0.086471
H137	H	1.078450	-0.302509	-0.000045
C138	C	1.933065	-0.564813	0.127554
C139	C	1.862313	-0.573747	0.000021
H140	H	2.011518	-0.585560	0.127551
H141	H	1.950625	-0.531946	0.127552
H142	H	1.885038	-0.570881	0.214052
H143	H	1.910336	-0.567675	-0.086477
H144	H	1.844756	-0.606621	0.000010
C145	C	1.735778	0.134648	0.304778
C146	C	1.751770	0.092443	0.391653
H147	H	1.816864	0.141600	0.268576
H148	H	1.680942	0.129974	0.222980
H149	H	1.698699	0.160993	0.363874
H150	H	1.788840	0.066097	0.332554
H151	H	1.806626	0.097115	0.473463
C152	C	1.260085	-0.191398	0.127585
C153	C	1.267985	-0.162725	0.000071
H154	H	1.180692	-0.204869	0.127572
H155	H	1.328738	-0.216816	0.127569
H156	H	1.265447	-0.171952	0.214096
H157	H	1.262633	-0.182172	-0.086440
H158	H	1.199313	-0.137303	0.000075
H159	H	1.833433	-0.413764	0.000057
H160	H	1.706846	-0.791642	0.000017
C161	C	1.750534	-0.665831	-0.127498
C162	C	1.742641	-0.694498	0.000030
H163	H	1.829920	-0.652355	-0.127488
H164	H	1.745178	-0.685279	-0.213990
H165	H	1.681866	-0.640412	-0.127490
H166	H	1.811305	-0.719919	0.000016
H167	H	1.748010	-0.675049	0.086544
C168	C	1.150309	-0.740398	-0.000030
C169	C	1.251500	-0.777877	-0.000015
H170	H	1.070921	-0.753872	-0.000054
H171	H	1.155671	-0.720959	0.086478
H172	H	1.155701	-0.720951	-0.086544
H173	H	1.246114	-0.797322	0.086505
H174	H	1.246136	-0.797324	-0.086532
H175	H	1.303782	-0.065582	0.000091
H176	H	1.178801	-0.383640	-0.000039
H177	H	1.174762	-0.534912	-0.000025
C178	C	1.041324	-0.462826	-0.000002
C179	C	1.144270	-0.434738	0.000001
H180	H	0.962851	-0.442090	0.000021
H181	H	1.045639	-0.482708	-0.086516
H182	H	1.045656	-0.482724	0.086506
H183	H	1.139943	-0.414843	-0.086512
H184	H	1.139953	-0.414848	0.086524
