data_functionalizedCrystal
_audit_creation_method	'MofGen! by Chris Wilmer'
_symmetry_space_group_name_H-M	'P1'
_symmetry_Int_Tables_number	1
_symmetry_cell_setting	triclinic
loop_
_symmetry_equiv_pos_as_xyz
  x,y,z
_cell_length_a	14.853567
_cell_length_b	14.853567
_cell_length_c	12.376457
_cell_angle_alpha	101.296114
_cell_angle_beta	78.693749
_cell_angle_gamma	83.634930
loop_
_atom_site_label
_atom_site_type_symbol
_atom_site_fract_x
_atom_site_fract_y
_atom_site_fract_z
O1	O	1.213616	0.100462	-0.093918
O2	O	0.951160	0.114480	-0.093936
O3	O	1.089400	-0.023759	-0.093930
O4	O	1.075377	0.238701	-0.093924
O5	O	1.054852	0.010753	0.094081
O6	O	0.916613	0.148993	0.094075
O7	O	1.179069	0.134975	0.094093
Zn8	Zn	1.042356	0.147463	0.123935
Zn9	Zn	1.087874	0.101991	-0.123777
O10	O	1.040830	0.273214	0.094087
C11	C	0.900298	0.131100	0.000067
C12	C	0.800216	0.129195	0.000060
C13	C	1.071491	-0.040092	0.000072
C14	C	1.069589	-0.140178	0.000062
C15	C	0.387678	0.039034	0.000083
C16	C	0.366396	0.203267	0.000086
C17	C	0.460431	0.205057	0.000082
C18	C	0.518093	0.123833	0.000077
C19	C	0.481722	0.040820	0.000076
C20	C	0.496812	0.288066	0.000072
C21	C	0.590852	0.289858	0.000067
C22	C	0.648515	0.208635	0.000070
C23	C	0.612138	0.125619	0.000070
C24	C	0.669800	0.044396	0.000065
C25	C	0.633423	-0.038620	0.000074
C26	C	0.539385	-0.040403	0.000079
C27	C	0.742553	0.210419	0.000064
C28	C	0.763844	0.046182	0.000059
C29	C	0.979421	-0.552709	0.000078
C30	C	1.143651	-0.573988	0.000089
C31	C	1.145443	-0.479955	0.000083
C32	C	1.064221	-0.422295	0.000075
C33	C	0.981209	-0.458667	0.000075
C34	C	1.228452	-0.443574	0.000095
C35	C	1.230246	-0.349536	0.000089
C36	C	1.149025	-0.291875	0.000074
C37	C	1.066010	-0.328253	0.000072
C38	C	0.984788	-0.270592	0.000065
C39	C	0.901773	-0.306969	0.000055
C40	C	0.899988	-0.401006	0.000059
C41	C	1.150810	-0.197838	0.000070
C42	C	0.986577	-0.176550	0.000062
C43	C	1.229931	0.118353	0.000088
C44	C	1.330015	0.120257	0.000088
C45	C	1.058738	0.289546	0.000082
C46	C	1.060642	0.389630	0.000085
N47	N	1.011297	0.178496	0.292992
N48	N	1.118939	0.070951	-0.292834
C49	C	1.191035	-0.001104	0.647985
C50	C	1.212767	-0.022824	0.529646
C51	C	1.162402	0.027504	0.470476
C52	C	1.090300	0.099556	0.529658
C53	C	1.068570	0.121283	0.648008
C54	C	1.039936	0.149891	0.470500
C55	C	0.967835	0.221943	0.529681
C56	C	0.946108	0.243666	0.648020
C57	C	0.996474	0.193338	0.707189
C58	C	1.061667	0.128164	0.352149
C59	C	0.939201	0.250551	0.352173
C60	C	0.917469	0.272271	0.470512
H61	H	0.810787	-0.019960	0.000059
F62	F	1.138400	0.051483	0.289178
H63	H	1.180100	0.009816	0.374120
H64	H	0.358055	-0.028555	0.000094
F65	F	1.314883	-0.504940	0.000123
H66	H	0.680386	-0.104753	0.000062
F67	F	0.500664	-0.128747	0.000084
F68	F	0.815333	-0.245591	0.000056
F69	F	1.289500	-0.099502	0.466665
H70	H	1.232041	-0.042070	0.696168
F71	F	1.318599	-0.310832	0.000086
H72	H	0.620461	0.357455	0.000060
H73	H	0.449859	0.354191	0.000064
F74	F	0.973341	0.216451	0.833141
F75	F	0.840734	0.348953	0.533509
H76	H	0.832401	-0.430633	0.000052
F77	F	0.305029	0.289703	0.000077
F78	F	0.869380	0.320359	0.711005
F79	F	0.781266	0.298762	0.000048
F80	F	0.885598	0.304120	0.289205
H81	H	0.920436	-0.129609	0.000051
H82	H	0.911832	-0.582333	0.000065
H83	H	1.209776	-0.620939	0.000104
H84	H	1.218399	-0.168223	0.000085
