data_functionalizedCrystal
_audit_creation_method	'MofGen! by Chris Wilmer'
_symmetry_space_group_name_H-M	'P1'
_symmetry_Int_Tables_number	1
_symmetry_cell_setting	triclinic
loop_
_symmetry_equiv_pos_as_xyz
  x,y,z
_cell_length_a	19.805407
_cell_length_b	18.050589
_cell_length_c	19.805399
_cell_angle_alpha	90.022294
_cell_angle_beta	90.019573
_cell_angle_gamma	90.028221
loop_
_atom_site_label
_atom_site_type_symbol
_atom_site_fract_x
_atom_site_fract_y
_atom_site_fract_z
Zn1	Zn	1.034727	-0.295677	0.382745
Zn2	Zn	1.034638	-0.419869	0.269567
Zn3	Zn	0.921542	-0.295697	0.269569
Zn4	Zn	0.921502	-0.419829	0.382713
O5	O	0.978102	-0.357768	0.326148
O6	O	1.129432	-0.312159	0.367743
O7	O	1.019616	-0.403422	0.174850
O8	O	0.936610	-0.191770	0.284596
O9	O	1.129367	-0.403402	0.284592
O10	O	1.019767	-0.191755	0.367746
O11	O	0.936524	-0.312194	0.174852
O12	O	0.826820	-0.312156	0.284566
O13	O	0.936542	-0.403335	0.477434
O14	O	0.826791	-0.403355	0.367693
O15	O	1.019728	-0.312121	0.477457
O16	O	1.019577	-0.523788	0.284562
O17	O	0.936456	-0.523759	0.367690
C18	C	0.802246	-0.357754	0.326127
C19	C	0.727014	-0.357766	0.326133
C20	C	0.691673	-0.405325	0.369347
C21	C	0.620984	-0.405326	0.369357
C22	C	0.585639	-0.357771	0.326148
C23	C	0.620985	-0.310207	0.282933
C24	C	0.691673	-0.310203	0.282927
C25	C	0.335912	-0.310224	0.282955
C26	C	0.265220	-0.310233	0.282962
C27	C	0.265224	-0.405347	0.369385
C28	C	0.335911	-0.405342	0.369379
C29	C	0.371251	-0.357776	0.326166
C30	C	0.447900	-0.357774	0.326157
C31	C	0.508992	-0.357776	0.326153
C32	C	0.978021	-0.550720	0.326137
C33	C	0.978048	-0.633266	0.326155
C34	C	0.932891	-0.832728	0.371344
C35	C	0.916392	-0.882167	0.309581
C36	C	0.978114	-0.784396	0.326164
C37	C	0.994646	-0.882039	0.387934
C38	C	0.978177	-0.930381	0.326178
C39	C	0.961583	-0.832748	0.264368
C40	C	1.039865	-0.832616	0.342762
C41	C	1.023390	-0.882033	0.280957
C42	C	0.978076	-0.700298	0.326157
C43	C	0.978215	-1.014478	0.326178
C44	C	1.154645	-0.357783	0.326171
C45	C	1.229877	-0.357789	0.326180
C46	C	0.978140	-0.357721	0.502691
C47	C	0.978156	-0.357701	0.577923
C48	C	0.978203	-0.164062	0.326175
C49	C	0.978246	-0.081517	0.326186
C50	C	0.978103	-0.357761	0.150292
C51	C	0.978218	-0.357572	0.075061
C52	C	1.021472	-0.310204	0.613280
C53	C	1.021479	-0.310182	0.683969
C54	C	0.978173	-0.357662	0.719299
C55	C	0.934852	-0.405162	0.683937
C56	C	0.934843	-0.405180	0.613250
C57	C	0.934891	-0.405093	0.969010
C58	C	0.934905	-0.405074	1.039702
C59	C	1.021527	-0.310096	1.039729
C60	C	1.021518	-0.310113	0.969042
C61	C	0.978195	-0.357609	0.933686
C62	C	0.978187	-0.357631	0.857038
C63	C	0.978184	-0.357645	0.795946
H64	H	0.364678	-0.271497	0.247763
H65	H	0.947565	-0.811186	0.212121
H66	H	0.592202	-0.271484	0.247754
H67	H	0.720447	-0.271471	0.247741
C68	C	0.887260	-0.457300	1.078567
C69	C	0.892726	-0.541730	1.068837
C70	C	0.845083	-0.593953	1.107701
C71	C	0.791976	-0.561747	1.156295
C72	C	0.786508	-0.477313	1.166027
C73	C	0.834150	-0.425090	1.127162
H74	H	0.932041	-0.565575	1.032863
H75	H	0.849131	-0.656457	1.100497
H76	H	0.756708	-0.600406	1.185065
H77	H	0.747192	-0.453468	1.202001
H78	H	0.830102	-0.362586	1.134367
H79	H	0.899589	-0.443819	0.712708
C80	C	1.075088	-0.911104	0.229290
C81	C	1.150195	-0.890356	0.236267
C82	C	1.201887	-0.919429	0.184596
C83	C	1.178471	-0.969250	0.125949
C84	C	1.103360	-0.990000	0.118969
C85	C	1.051668	-0.960927	0.170640
H86	H	1.167532	-0.853473	0.279683
H87	H	1.257490	-0.904068	0.189763
H88	H	1.216737	-0.990772	0.087699
H89	H	1.086023	-1.026883	0.075552
H90	H	0.996066	-0.976288	0.165472
C91	C	0.226339	-0.257915	0.235434
C92	C	0.177774	-0.199664	0.264864
C93	C	0.138892	-0.147350	0.217338
C94	C	0.148576	-0.153287	0.140382
C95	C	0.197143	-0.211541	0.110948
C96	C	0.236024	-0.263855	0.158474
H97	H	0.170603	-0.195267	0.321835
H98	H	0.102939	-0.104227	0.239128
H99	H	0.119793	-0.114562	0.105201
H100	H	0.204313	-0.215938	0.053977
H101	H	0.271977	-0.306978	0.136684
C102	C	0.730549	-0.457636	0.416879
C103	C	0.779180	-0.425529	0.470064
C104	C	0.818054	-0.477840	0.517598
C105	C	0.808297	-0.562258	0.511948
C106	C	0.759663	-0.594370	0.458761
C107	C	0.720789	-0.542059	0.411226
H108	H	0.786405	-0.363034	0.474248
H109	H	0.854056	-0.454069	0.556971
H110	H	0.837073	-0.600982	0.547136
H111	H	0.752438	-0.656865	0.454577
H112	H	0.684787	-0.565830	0.371854
C113	C	1.069130	-0.257938	0.722865
C114	C	1.039840	-0.199615	0.771462
C115	C	1.087491	-0.147369	0.810359
C116	C	1.164432	-0.153446	0.800660
C117	C	1.193726	-0.211772	0.752061
C118	C	1.146074	-0.264018	0.713164
H119	H	0.982880	-0.195113	0.778643
H120	H	1.065806	-0.104192	0.846335
H121	H	1.199707	-0.114771	0.829454
H122	H	1.250686	-0.216274	0.744879
H123	H	1.167760	-0.307195	0.677188
H124	H	0.894591	-0.811078	0.409498
H125	H	1.056801	-0.271419	1.068525
H126	H	1.092045	-0.810837	0.356819
C127	C	1.069111	-0.257973	0.574420
C128	C	1.063630	-0.173545	0.584150
C129	C	1.111268	-0.121311	0.545292
C130	C	1.164386	-0.153506	0.496704
C131	C	1.169869	-0.237938	0.486971
C132	C	1.122231	-0.290172	0.525830
H133	H	1.024306	-0.149709	0.620120
H134	H	1.107208	-0.058808	0.552497
H135	H	1.199650	-0.114839	0.467939
H136	H	1.209192	-0.261775	0.451002
H137	H	1.126290	-0.352675	0.518625
C138	C	0.226347	-0.457666	0.416927
C139	C	0.236029	-0.542083	0.411267
C140	C	0.197155	-0.594402	0.458805
C141	C	0.148599	-0.562305	0.512004
C142	C	0.138914	-0.477884	0.517666
C143	C	0.177788	-0.425565	0.470128
H144	H	0.271976	-0.565847	0.371884
H145	H	0.204324	-0.656897	0.454613
H146	H	0.119821	-0.601035	0.547195
H147	H	0.102968	-0.454120	0.557049
H148	H	0.170619	-0.363070	0.474319
C149	C	1.013507	-0.911291	0.458495
C150	C	0.963880	-0.961221	0.497373
C151	C	0.982736	-0.990470	0.567934
C152	C	1.051217	-0.969790	0.599617
C153	C	1.100848	-0.919858	0.560738
C154	C	1.081993	-0.890608	0.490177
H155	H	0.913182	-0.976532	0.473920
H156	H	0.945995	-1.027433	0.596714
H157	H	1.065175	-0.991442	0.651851
H158	H	1.151546	-0.904547	0.584192
H159	H	1.118733	-0.853645	0.461397
C160	C	0.845884	-0.911575	0.290616
C161	C	0.784416	-0.892143	0.334788
C162	C	0.713907	-0.921549	0.315828
C163	C	0.704866	-0.970386	0.252696
C164	C	0.766337	-0.989819	0.208519
C165	C	0.836846	-0.960414	0.227479
H166	H	0.791106	-0.855989	0.381526
H167	H	0.668402	-0.907162	0.348531
H168	H	0.652671	-0.992153	0.238660
H169	H	0.759646	-1.025974	0.161782
H170	H	0.882351	-0.974801	0.194777
H171	H	1.056784	-0.271452	0.940280
H172	H	0.899563	-0.443850	0.584463
C173	C	0.582108	-0.457642	0.416893
C174	C	0.620985	-0.509955	0.464417
C175	C	0.582110	-0.562272	0.511957
C176	C	0.504357	-0.562276	0.511972
C177	C	0.465475	-0.509962	0.464445
C178	C	0.504351	-0.457645	0.416906
H179	H	0.678547	-0.509954	0.464408
H180	H	0.610893	-0.600999	0.547139
H181	H	0.475579	-0.601005	0.547164
H182	H	0.407914	-0.509963	0.464455
H183	H	0.475567	-0.418918	0.381724
C184	C	0.887230	-0.457344	0.930139
C185	C	0.810293	-0.451264	0.939871
C186	C	0.762624	-0.503518	0.901004
C187	C	0.791892	-0.561852	0.852405
C188	C	0.868833	-0.567934	0.842671
C189	C	0.916501	-0.515680	0.881538
H190	H	0.788624	-0.408080	0.975850
H191	H	0.705668	-0.499015	0.908210
H192	H	0.756605	-0.600533	0.823633
H193	H	0.890502	-0.611118	0.806692
H194	H	0.973458	-0.520182	0.874332
H195	H	0.364686	-0.444069	0.404562
