data_functionalizedCrystal
_audit_creation_method	'MofGen! by Chris Wilmer'
_symmetry_space_group_name_H-M	'P1'
_symmetry_Int_Tables_number	1
_symmetry_cell_setting	triclinic
loop_
_symmetry_equiv_pos_as_xyz
  x,y,z
_cell_length_a	19.188925
_cell_length_b	17.666332
_cell_length_c	10.723024
_cell_angle_alpha	89.994743
_cell_angle_beta	96.194791
_cell_angle_gamma	90.010303
loop_
_atom_site_label
_atom_site_type_symbol
_atom_site_fract_x
_atom_site_fract_y
_atom_site_fract_z
O1	O	0.927164	0.062963	-0.155751
O2	O	0.723989	0.062960	-0.176729
O3	O	0.830263	0.062959	0.015434
O4	O	0.820890	0.062964	-0.347913
O5	O	0.830244	-0.062938	0.015444
O6	O	0.723970	-0.062936	-0.176719
O7	O	0.927145	-0.062934	-0.155741
Cu8	Cu	0.825556	-0.074430	-0.166229
Cu9	Cu	0.825578	0.074457	-0.166241
O10	O	0.820871	-0.062932	-0.347903
C11	C	0.697964	0.000012	-0.176046
C12	C	0.620446	0.000011	-0.174010
N13	N	0.825545	-0.179150	-0.166220
C14	C	0.059320	0.000014	-0.273132
C15	C	0.132155	0.000018	-0.275056
C16	C	0.176357	0.000015	-0.162301
C17	C	0.147718	0.000028	-0.047614
C18	C	0.074883	0.000031	-0.045693
N19	N	0.296497	-0.042842	-0.080668
N20	N	0.365687	-0.042847	-0.082500
C21	C	0.395804	0.000006	-0.168081
N22	N	0.354117	0.042856	-0.251779
N23	N	0.284921	0.042857	-0.249951
C24	C	0.255335	0.000012	-0.164371
C25	C	0.503412	0.000004	-0.284847
C26	C	0.576249	0.000013	-0.286766
C27	C	0.591810	0.000014	-0.059320
C28	C	0.518974	0.000013	-0.057405
C29	C	0.474779	0.000004	-0.170171
C30	C	0.872619	-0.218760	-0.081171
C31	C	0.872623	-0.298008	-0.081165
C32	C	0.825560	-0.337642	-0.166229
C33	C	0.778477	-0.298022	-0.251284
C34	C	0.778470	-0.218776	-0.251279
N35	N	0.817202	-0.462059	-0.276688
N36	N	0.817213	-0.537340	-0.276688
C37	C	0.825579	-0.576406	-0.166246
N38	N	0.833946	-0.537348	-0.055800
N39	N	0.833939	-0.462061	-0.055801
C40	C	0.825563	-0.423571	-0.166243
C41	C	0.872659	-0.701946	-0.081185
C42	C	0.872658	-0.781195	-0.081177
C43	C	0.778516	-0.781207	-0.251306
C44	C	0.778514	-0.701960	-0.251303
C45	C	0.825589	-0.662334	-0.166244
C46	C	0.953170	0.000016	-0.156424
C47	C	1.030688	0.000022	-0.158460
C48	C	0.829571	0.000011	0.061924
C49	C	0.827531	0.000014	0.200436
N50	N	0.825594	0.179176	-0.166240
C51	C	0.821562	0.000017	-0.394394
C52	C	0.823603	0.000019	-0.532906
C53	C	0.886996	0.000016	0.276655
C54	C	0.884888	0.000018	0.419815
H55	H	0.023340	0.000011	-0.364956
H56	H	0.910990	-0.813446	-0.011914
H57	H	0.740136	-0.186524	-0.320537
H58	H	0.939467	0.000012	0.235924
H59	H	0.910989	-0.669681	-0.011920
H60	H	0.740184	-0.669707	-0.320562
H61	H	0.467426	-0.000002	-0.376668
H62	H	0.740194	-0.813477	-0.320562
H63	H	0.155472	0.000005	-0.368438
H64	H	0.935795	0.000017	0.485306
H65	H	0.775060	0.000018	0.241167
H66	H	0.183711	0.000027	0.044192
H67	H	0.051573	0.000038	0.047689
H68	H	0.599558	0.000013	-0.380149
H69	H	0.495663	0.000015	0.035974
H70	H	0.772693	0.000012	0.401611
H71	H	0.910949	-0.186499	-0.011908
H72	H	0.910957	-0.330265	-0.011906
H73	H	0.627799	0.000018	0.032487
H74	H	0.740157	-0.330296	-0.320542
