data_functionalizedCrystal
_audit_creation_method	'MofGen! by Chris Wilmer'
_symmetry_space_group_name_H-M	'P1'
_symmetry_Int_Tables_number	1
_symmetry_cell_setting	triclinic
loop_
_symmetry_equiv_pos_as_xyz
  x,y,z
_cell_length_a	12.827892
_cell_length_b	10.685972
_cell_length_c	10.685314
_cell_angle_alpha	90.358457
_cell_angle_beta	94.336989
_cell_angle_gamma	85.619715
loop_
_atom_site_label
_atom_site_type_symbol
_atom_site_fract_x
_atom_site_fract_y
_atom_site_fract_z
Zn1	Zn	-0.352109	-1.863574	-0.856569
Zn2	Zn	-0.512567	-1.879528	-0.646803
Zn3	Zn	-0.350120	-1.669862	-0.630714
Zn4	Zn	-0.539092	-1.653768	-0.840406
O5	O	-0.438472	-1.766683	-0.743623
O6	O	-0.363126	-2.041241	-0.842241
O7	O	-0.479085	-1.865128	-0.469124
O8	O	-0.204146	-1.695617	-0.660706
O9	O	-0.481013	-2.052962	-0.688126
O10	O	-0.205607	-1.837936	-0.826640
O11	O	-0.359735	-1.711087	-0.457304
O12	O	-0.385456	-1.492177	-0.645033
O13	O	-0.526222	-1.668187	-1.018095
O14	O	-0.524293	-1.480352	-0.799093
O15	O	-0.388846	-1.822330	-1.029970
O16	O	-0.662323	-1.849522	-0.672453
O17	O	-0.681811	-1.683657	-0.814693
C18	C	-0.457538	-1.440746	-0.718564
C19	C	-0.465721	-1.301307	-0.707873
C20	C	-0.709985	-1.766606	-0.743595
C21	C	-0.826136	-1.766685	-0.743634
C22	C	-0.868243	-1.848844	-0.673341
C23	C	-0.988290	-1.848928	-0.673379
C24	C	-0.165899	-1.766792	-0.743681
C25	C	-0.049744	-1.766839	-0.743706
C26	C	-0.460715	-1.741684	-1.070822
C27	C	-0.470193	-1.731030	-1.210255
C28	C	-0.419325	-1.093893	-0.768775
C29	C	-0.411147	-1.233332	-0.779478
C30	C	-0.416236	-1.791658	-0.417703
C31	C	-0.406449	-1.802554	-0.278290
H32	H	-0.358157	-1.281811	-0.848959
Cl33	Cl	-0.565653	-1.623905	-1.285011
Cl34	Cl	-0.993793	-1.658223	-0.836621
H35	H	-0.344610	-1.871931	-1.229860
Cl36	Cl	-0.907685	-1.658182	-0.836604
H37	H	-0.518708	-1.252822	-0.638380
H38	H	-1.024539	-1.919264	-0.613195
Cl39	Cl	-0.786694	-1.957361	-0.580386
