data_functionalizedCrystal
_audit_creation_method	'MofGen! by Chris Wilmer'
_symmetry_space_group_name_H-M	'P1'
_symmetry_Int_Tables_number	1
_symmetry_cell_setting	triclinic
loop_
_symmetry_equiv_pos_as_xyz
  x,y,z
_cell_length_a	15.538191
_cell_length_b	19.288864
_cell_length_c	18.366186
_cell_angle_alpha	89.977106
_cell_angle_beta	89.995484
_cell_angle_gamma	65.204172
loop_
_atom_site_label
_atom_site_type_symbol
_atom_site_fract_x
_atom_site_fract_y
_atom_site_fract_z
O1	O	0.117639	0.891965	-0.060769
O2	O	0.133508	0.685740	-0.060717
O3	O	-0.011726	0.828996	-0.060756
O4	O	0.262873	0.748709	-0.060729
O5	O	-0.011734	0.828980	0.060343
O6	O	0.133501	0.685724	0.060382
O7	O	0.117632	0.891949	0.060331
Zn8	Zn	0.125565	0.788834	0.079584
Zn9	Zn	0.125574	0.788855	-0.079970
O10	O	0.262866	0.748693	0.060370
C11	C	0.132994	0.659983	-0.000161
C12	C	0.131461	0.583263	-0.000142
C13	C	-0.046861	0.837388	-0.000211
C14	C	-0.151541	0.862409	-0.000225
C15	C	0.216678	0.517278	-0.000145
C16	C	0.215238	0.445191	-0.000153
C17	C	0.128576	0.439092	-0.000173
C18	C	0.043348	0.505089	-0.000166
C19	C	0.044790	0.577175	-0.000150
C20	C	0.060453	0.347855	-0.042631
C21	C	0.059014	0.275770	-0.042651
C22	C	0.124123	0.216759	-0.000218
C23	C	0.190688	0.229837	0.042226
C24	C	0.192131	0.301922	0.042242
C25	C	0.127002	0.360931	-0.000189
C26	C	0.207785	0.072607	-0.000228
C27	C	0.206341	0.000520	-0.000232
C28	C	0.034449	0.060421	-0.000252
C29	C	0.035895	0.132506	-0.000241
C30	C	0.122565	0.138594	-0.000233
C31	C	-0.438277	0.613831	-0.000147
C32	C	-0.536642	0.637359	-0.000151
C33	C	-0.559647	0.769703	-0.000185
C34	C	-0.461281	0.746185	-0.000184
C35	C	-0.400603	0.668248	-0.000164
C36	C	-0.423608	0.800603	-0.000201
C37	C	-0.325251	0.777087	-0.000197
C38	C	-0.264567	0.699153	-0.000175
C39	C	-0.302246	0.644732	-0.000160
C40	C	-0.484287	0.878540	-0.000216
C41	C	-0.446614	0.932957	-0.000233
C42	C	-0.348255	0.909441	-0.000234
C43	C	-0.287571	0.831508	-0.000212
C44	C	-0.310576	0.963863	-0.000249
C45	C	-0.212219	0.940346	-0.000244
C46	C	-0.189214	0.807992	-0.000207
C47	C	0.298001	0.740301	-0.000177
C48	C	0.402681	0.715280	-0.000168
C49	C	0.118146	0.917706	-0.000227
C50	C	0.119679	0.994427	-0.000251
N51	N	0.125558	0.788824	0.188475
N52	N	0.125574	0.788872	-0.188861
C53	C	0.061280	0.852266	0.226558
C54	C	0.061276	0.852271	0.302786
C55	C	0.125566	0.788838	0.340928
C56	C	0.189849	0.725386	0.302835
C57	C	0.189845	0.725380	0.226609
C58	C	0.211489	0.758075	0.461698
C59	C	0.211494	0.758086	0.537923
C60	C	0.125578	0.788855	0.576035
C61	C	0.039653	0.819627	0.537913
C62	C	0.039649	0.819621	0.461687
C63	C	0.125577	0.788838	0.423582
C64	C	0.061290	0.852306	0.696773
C65	C	0.061284	0.852307	0.773002
C66	C	0.189866	0.725423	0.773051
C67	C	0.189863	0.725421	0.696823
C68	C	0.125576	0.788866	0.658689
H69	H	0.287252	0.522228	-0.000140
Cl70	Cl	-0.021408	0.422035	-0.095980
H71	H	-0.564375	0.897684	-0.000226
Cl72	Cl	-0.386867	1.061836	-0.000260
H73	H	0.242208	0.673773	0.804105
H74	H	-0.496031	0.996414	-0.000246
Cl75	Cl	0.322376	0.362226	-0.000155
H76	H	0.281457	0.733007	0.430673
Cl77	Cl	0.275803	0.318363	0.095600
H78	H	0.243706	0.181790	0.076780
H79	H	-0.030314	0.844675	0.430651
Cl80	Cl	-0.019538	0.932034	0.350669
H81	H	-0.567310	0.593040	-0.000126
H82	H	-0.139806	0.744528	-0.000197
H83	H	-0.181545	0.984659	-0.000258
H84	H	0.008931	0.903925	0.195511
Cl85	Cl	-0.065599	0.497424	-0.000186
Cl86	Cl	-0.068364	0.858315	0.585817
H87	H	-0.388869	0.550366	-0.000136
H88	H	0.242194	0.673737	0.333894
Cl89	Cl	-0.062349	0.660132	-0.000147
H90	H	-0.609064	0.833159	-0.000198
H91	H	0.242189	0.673717	0.195601
Cl92	Cl	-0.225958	0.546752	-0.000142
H93	H	0.008940	0.903965	0.665723
Cl94	Cl	-0.019535	0.932065	0.820881
Cl95	Cl	0.319512	0.719406	0.585840
Cl96	Cl	0.316740	0.080265	-0.000211
H97	H	0.242208	0.673763	0.665814
H98	H	-0.036113	0.055457	-0.000313
Cl99	Cl	0.313482	-0.082436	-0.000232
Cl100	Cl	-0.071242	0.215463	-0.000241
H101	H	-0.184479	0.680008	-0.000167
Cl102	Cl	-0.024657	0.259333	-0.096015
