data_functionalizedCrystal
_audit_creation_method	'MofGen! by Chris Wilmer'
_symmetry_space_group_name_H-M	'P1'
_symmetry_Int_Tables_number	1
_symmetry_cell_setting	triclinic
loop_
_symmetry_equiv_pos_as_xyz
  x,y,z
_cell_length_a	15.944551
_cell_length_b	27.732048
_cell_length_c	14.421503
_cell_angle_alpha	89.999321
_cell_angle_beta	89.996859
_cell_angle_gamma	83.070697
loop_
_atom_site_label
_atom_site_type_symbol
_atom_site_fract_x
_atom_site_fract_y
_atom_site_fract_z
O1	O	1.113714	0.062334	-0.077025
O2	O	0.869064	0.070020	-0.077050
O3	O	0.998987	-0.004187	-0.077019
O4	O	0.983791	0.136540	-0.077056
O5	O	0.998966	-0.004176	0.077204
O6	O	0.869042	0.070031	0.077174
O7	O	1.113693	0.062345	0.077198
Cu8	Cu	0.991366	0.066189	0.091268
Cu9	Cu	0.991391	0.066176	-0.091119
O10	O	0.983769	0.136552	0.077168
C11	C	0.837763	0.069706	0.000059
C12	C	0.744530	0.068749	0.000051
C13	C	0.998658	-0.022190	0.000095
C14	C	0.997697	-0.075849	0.000103
C15	C	0.530305	0.020466	0.000081
C16	C	0.469002	0.042882	-0.075965
C17	C	0.573827	0.067019	0.000062
C18	C	0.469003	0.042904	0.076087
C19	C	0.408936	0.065344	0.000077
C20	C	0.513752	0.089447	-0.076047
C21	C	0.513759	0.089463	0.076074
C22	C	0.452474	0.111912	0.000009
C23	C	0.668816	0.067983	0.000053
C24	C	0.313947	0.064384	0.000080
C25	C	1.068426	-0.414358	0.000062
C26	C	1.064862	-0.616033	0.000049
O27	O	1.129539	-0.647008	0.000015
N28	N	0.987823	-0.635490	0.000042
C29	C	0.911669	-0.604525	0.000032
O30	O	0.846061	-0.625703	0.000017
C31	C	0.915234	-0.402851	0.000039
C32	C	0.992278	-0.383397	0.000055
C33	C	1.145464	-0.394903	0.000077
C34	C	1.146354	-0.344487	0.000086
C35	C	1.070206	-0.313526	0.000079
C36	C	0.993168	-0.332981	0.000064
C37	C	0.839081	-0.371887	0.000023
C38	C	0.839979	-0.321466	0.000022
C39	C	0.917024	-0.302012	0.000038
C40	C	0.917911	-0.251604	0.000065
N41	N	0.994950	-0.232147	0.000072
C42	C	1.071098	-0.263108	0.000079
C43	C	0.909803	-0.710408	0.000031
C44	C	0.908912	-0.760826	0.000031
C45	C	1.062105	-0.772330	0.000045
C46	C	1.062995	-0.721911	0.000052
C47	C	0.986842	-0.690950	0.000038
C48	C	1.072961	-0.157231	0.000097
C49	C	1.073845	-0.106810	0.000109
C50	C	0.920652	-0.095310	0.000090
C51	C	0.919768	-0.145727	0.000083
C52	C	0.995930	-0.176686	0.000083
O53	O	0.853269	-0.220600	0.000089
O54	O	1.136697	-0.241921	0.000074
C55	C	1.067536	-0.464774	0.000054
C56	C	0.990498	-0.484228	0.000039
C57	C	0.914350	-0.453268	0.000032
C58	C	0.989607	-0.534647	0.000039
C59	C	1.065754	-0.565608	0.000045
C60	C	1.142794	-0.546150	0.000052
C61	C	1.143684	-0.495734	0.000061
C62	C	0.837311	-0.472725	0.000025
C63	C	0.836427	-0.523141	0.000018
C64	C	0.912575	-0.554102	0.000024
C65	C	1.144993	0.062658	0.000087
C66	C	1.238227	0.063615	0.000090
C67	C	0.984099	0.154554	0.000051
C68	C	0.985059	0.208213	0.000038
N69	N	0.991354	0.066198	0.219549
N70	N	0.991409	0.066163	-0.219401
C71	C	0.931267	0.100495	0.469189
C72	C	1.007044	0.109880	0.530996
C73	C	0.991374	0.066186	0.408710
C74	C	0.915616	0.056813	0.530997
C75	C	0.991387	0.066176	0.591432
C76	C	1.067190	0.075592	0.469157
C77	C	0.975712	0.022507	0.469153
C78	C	1.051545	0.031872	0.530932
C79	C	0.991366	0.066193	0.303449
C80	C	0.991405	0.066169	0.696691
H81	H	0.564143	-0.018169	-0.000003
H82	H	0.962429	-0.014416	0.441967
C83	C	0.836185	-0.166920	-0.000071
C84	C	0.831220	-0.195532	-0.079414
C85	C	0.754241	-0.215065	-0.079590
H86	H	0.790888	-0.141309	-0.000118
H87	H	0.832638	-0.186381	0.053675
H88	H	0.834759	-0.176073	-0.133146
H89	H	0.876499	-0.221151	-0.079384
H90	H	0.750694	-0.234526	-0.025843
H91	H	0.708950	-0.189452	-0.079634
H92	H	0.750865	-0.234485	-0.133418
C93	C	1.119322	-0.006815	0.567045
C94	C	1.118142	-0.006679	0.664122
C95	C	1.180560	-0.042313	0.697422
H96	H	1.173132	-0.000126	0.545854
H97	H	1.108642	-0.037774	0.544983
H98	H	1.128829	0.024272	0.686174
H99	H	1.064347	-0.013374	0.685337
H100	H	1.169879	-0.073272	0.675361
H101	H	1.234365	-0.035621	0.676226
H102	H	1.179762	-0.042229	0.763292
H103	H	0.449158	0.023187	-0.140246
H104	H	0.851544	0.048890	0.558163
H105	H	0.533491	0.109118	-0.140408
H106	H	0.846175	-0.776661	0.000034
C107	C	0.863679	0.139242	0.432897
C108	C	0.901484	0.172303	0.378162
C109	C	0.839253	0.207999	0.344703
H110	H	0.835298	0.155888	0.483608
H111	H	0.824205	0.124381	0.396600
H112	H	0.940943	0.187163	0.414458
H113	H	0.929860	0.155671	0.327437
H114	H	0.799779	0.193139	0.308406
H115	H	0.810876	0.224642	0.395420
H116	H	0.864894	0.230433	0.307555
H117	H	0.533624	0.109141	0.140358
H118	H	0.449165	0.023210	0.140376
C119	C	0.407622	0.163489	-0.000248
C120	C	0.430300	0.187625	-0.080012
C121	C	0.388989	0.235135	-0.080290
H122	H	0.423590	0.180211	0.053190
H123	H	0.348239	0.162621	0.000216
H124	H	0.489670	0.188495	-0.080467
H125	H	0.414330	0.170918	-0.133462
H126	H	0.329607	0.234267	-0.079826
H127	H	0.404961	0.251852	-0.026849
H128	H	0.404365	0.251516	-0.134413
H129	H	1.204796	-0.571368	0.000062
C130	C	1.024751	0.159084	0.567411
C131	C	1.025296	0.158277	0.664484
C132	C	1.041607	0.203594	0.698059
H133	H	0.982027	0.183471	0.546376
H134	H	1.078183	0.165982	0.545384
H135	H	0.971872	0.151385	0.686502
H136	H	1.068020	0.133900	0.685543
H137	H	1.095039	0.210492	0.676032
H138	H	0.998881	0.227977	0.677018
H139	H	1.041987	0.203051	0.763926
H140	H	1.136586	-0.090973	0.000125
C141	C	1.229918	-0.323276	0.000133
C142	C	1.214417	-0.272494	0.000155
C143	C	1.291379	-0.252942	0.000205
H144	H	1.261305	-0.333853	-0.053634
H145	H	1.261247	-0.333878	0.053936
H146	H	1.183101	-0.261897	-0.053642
H147	H	1.183042	-0.261904	0.053918
H148	H	1.322708	-0.263544	0.054007
H149	H	1.322761	-0.263522	-0.053563
H150	H	1.280873	-0.218485	0.000228
H151	H	0.777965	-0.296260	0.000009
H152	H	1.134979	-0.182432	0.000094
H153	H	1.125732	-0.706075	0.000065
C154	C	1.228237	-0.428432	0.000137
C155	C	1.295883	-0.400592	0.000173
C156	C	1.372152	-0.431459	0.000248
H157	H	1.231215	-0.448353	-0.053627
H158	H	1.231115	-0.448331	0.053942
H159	H	1.293007	-0.380703	-0.053627
H160	H	1.292934	-0.380673	0.053932
H161	H	1.375030	-0.451357	0.054054
H162	H	1.375121	-0.451378	-0.053516
H163	H	1.418059	-0.412575	0.000281
H164	H	1.131276	0.083559	0.442107
H165	H	0.847786	-0.685203	0.000019
C166	C	1.144756	-0.805973	-0.000148
C167	C	1.148720	-0.835242	-0.079509
C168	C	1.224846	-0.866237	-0.079733
H169	H	1.147672	-0.825929	0.053567
H170	H	1.190795	-0.787186	-0.000199
H171	H	1.102694	-0.854028	-0.079449
H172	H	1.145820	-0.815300	-0.133236
H173	H	1.270885	-0.847449	-0.079784
H174	H	1.227755	-0.886189	-0.026015
H175	H	1.227550	-0.886096	-0.133582
H176	H	0.776344	-0.387718	0.000004
H177	H	0.858655	-0.070093	0.000088
H178	H	1.206421	-0.479900	0.000073
H179	H	0.775301	-0.447521	0.000017
C180	C	0.752685	-0.544166	-0.000047
C181	C	0.686195	-0.506254	-0.000078
C182	C	0.609044	-0.525601	-0.000159
H183	H	0.749015	-0.563591	0.053713
H184	H	0.749117	-0.563577	-0.053856
H185	H	0.689761	-0.486851	0.053726
H186	H	0.689837	-0.486826	-0.053833
H187	H	0.605476	-0.545012	-0.053968
H188	H	0.605383	-0.545026	0.053602
H189	H	0.563921	-0.499882	-0.000188
