data_functionalizedCrystal
_audit_creation_method	'MofGen! by Chris Wilmer'
_symmetry_space_group_name_H-M	'P1'
_symmetry_Int_Tables_number	1
_symmetry_cell_setting	triclinic
loop_
_symmetry_equiv_pos_as_xyz
  x,y,z
_cell_length_a	29.839134
_cell_length_b	29.839131
_cell_length_c	29.839135
_cell_angle_alpha	90.007589
_cell_angle_beta	90.016207
_cell_angle_gamma	90.036281
loop_
_atom_site_label
_atom_site_type_symbol
_atom_site_fract_x
_atom_site_fract_y
_atom_site_fract_z
Zn1	Zn	0.686694	-0.179023	0.254125
Zn2	Zn	0.936694	0.070977	0.504125
Zn3	Zn	1.186694	0.320977	0.754125
Zn4	Zn	1.436694	0.570977	1.004125
Zn5	Zn	0.686634	-0.254122	0.178995
Zn6	Zn	0.936634	-0.004122	0.428995
Zn7	Zn	1.186634	0.245878	0.678995
Zn8	Zn	1.436634	0.495878	0.928995
Zn9	Zn	0.611584	-0.179000	0.178995
Zn10	Zn	0.861584	0.071000	0.428995
Zn11	Zn	1.111584	0.321000	0.678995
Zn12	Zn	1.361584	0.571000	0.928995
Zn13	Zn	0.611524	-0.254120	0.254083
Zn14	Zn	0.861524	-0.004120	0.504083
Zn15	Zn	1.111524	0.245880	0.754083
Zn16	Zn	1.361524	0.495880	1.004083
O17	O	0.649109	-0.216566	0.216549
O18	O	0.899109	0.033434	0.466549
O19	O	1.149109	0.283434	0.716549
O20	O	1.399109	0.533434	0.966549
O21	O	0.749553	-0.188995	0.244176
O22	O	0.999553	0.061005	0.494176
O23	O	1.249553	0.311005	0.744176
O24	O	1.499553	0.561005	0.994176
O25	O	0.676678	-0.244148	0.116128
O26	O	0.926678	0.005852	0.366128
O27	O	1.176678	0.255852	0.616128
O28	O	1.426678	0.505852	0.866128
O29	O	0.621598	-0.116136	0.188978
O30	O	0.871598	0.133864	0.438978
O31	O	1.121598	0.383864	0.688978
O32	O	1.371598	0.633864	0.938978
O33	O	0.749509	-0.244170	0.188979
O34	O	0.999509	0.005830	0.438979
O35	O	1.249509	0.255830	0.688979
O36	O	1.499509	0.505830	0.938979
O37	O	0.676781	-0.116153	0.244176
O38	O	0.926781	0.133847	0.494176
O39	O	1.176781	0.383847	0.744176
O40	O	1.426781	0.633847	0.994176
O41	O	0.621540	-0.188956	0.116127
O42	O	0.871540	0.061044	0.366127
O43	O	1.121540	0.311044	0.616127
O44	O	1.371540	0.561044	0.866127
O45	O	0.548709	-0.188954	0.188938
O46	O	0.798709	0.061046	0.438938
O47	O	1.048709	0.311046	0.688938
O48	O	1.298709	0.561046	0.938938
O49	O	0.621496	-0.244167	0.316956
O50	O	0.871496	0.005833	0.566956
O51	O	1.121496	0.255833	0.816956
O52	O	1.371496	0.505833	1.066956
O53	O	0.548665	-0.244144	0.244105
O54	O	0.798665	0.005856	0.494105
O55	O	1.048665	0.255856	0.744105
O56	O	1.298665	0.505856	0.994105
O57	O	0.676723	-0.188994	0.316987
O58	O	0.926723	0.061006	0.566987
O59	O	1.176723	0.311006	0.816987
O60	O	1.426723	0.561006	1.066987
O61	O	0.676620	-0.316988	0.188938
O62	O	0.926620	-0.066988	0.438938
O63	O	1.176620	0.183012	0.688938
O64	O	1.426620	0.433012	0.938938
O65	O	0.621438	-0.316987	0.244105
O66	O	0.871438	-0.066987	0.494105
O67	O	1.121438	0.183013	0.744105
O68	O	1.371438	0.433013	0.994105
C69	C	0.532387	-0.216547	0.216517
C70	C	0.782387	0.033453	0.466517
C71	C	1.032387	0.283453	0.716517
C72	C	1.282387	0.533453	0.966517
C73	C	0.482452	-0.216550	0.216514
C74	C	0.732452	0.033450	0.466514
C75	C	0.982452	0.283450	0.716514
C76	C	1.232452	0.533450	0.966514
C77	C	0.172795	-0.245346	0.245240
C78	C	0.422795	0.004654	0.495240
C79	C	0.672795	0.254654	0.745240
C80	C	0.922795	0.504654	0.995240
C81	C	-0.014878	-0.245359	0.245260
C82	C	0.235122	0.004641	0.495260
C83	C	0.485122	0.254641	0.745260
C84	C	0.735122	0.504641	0.995260
O85	O	-0.039154	-0.269821	0.269665
O86	O	0.210846	-0.019821	0.519665
O87	O	0.460846	0.230179	0.769665
O88	O	0.710846	0.480179	1.019665
N89	N	-0.038333	-0.216582	0.216583
N90	N	0.211667	0.033418	0.466583
N91	N	0.461667	0.283418	0.716583
N92	N	0.711667	0.533418	0.966583
C93	C	-0.014867	-0.187799	0.187902
C94	C	0.235133	0.062201	0.437902
C95	C	0.485133	0.312201	0.687902
C96	C	0.735133	0.562201	0.937902
O97	O	-0.039123	-0.163320	0.163514
O98	O	0.210877	0.086680	0.413514
O99	O	0.460877	0.336680	0.663514
O100	O	0.710877	0.586680	0.913514
C101	C	0.172805	-0.187784	0.187884
C102	C	0.422805	0.062216	0.437884
C103	C	0.672805	0.312216	0.687884
C104	C	0.922805	0.562216	0.937884
C105	C	0.196258	-0.216566	0.216560
C106	C	0.446258	0.033434	0.466560
C107	C	0.696258	0.283434	0.716560
C108	C	0.946258	0.533434	0.966560
C109	C	0.196248	-0.274125	0.273913
C110	C	0.446248	-0.024125	0.523913
C111	C	0.696248	0.225875	0.773913
C112	C	0.946248	0.475875	1.023913
C113	C	0.243164	-0.274123	0.273906
C114	C	0.493164	-0.024123	0.523906
C115	C	0.743164	0.225877	0.773906
C116	C	0.993164	0.475877	1.023906
C117	C	0.266626	-0.245343	0.245226
C118	C	0.516626	0.004657	0.495226
C119	C	0.766626	0.254657	0.745226
C120	C	1.016626	0.504657	0.995226
C121	C	0.243173	-0.216564	0.216553
C122	C	0.493173	0.033436	0.466553
C123	C	0.743173	0.283436	0.716553
C124	C	0.993173	0.533436	0.966553
C125	C	0.196270	-0.158999	0.159205
C126	C	0.446270	0.091001	0.409205
C127	C	0.696270	0.341001	0.659205
C128	C	0.946270	0.591001	0.909205
C129	C	0.243191	-0.158997	0.159204
C130	C	0.493191	0.091003	0.409204
C131	C	0.743191	0.341003	0.659204
C132	C	0.993191	0.591003	0.909204
C133	C	0.266644	-0.187778	0.187880
C134	C	0.516644	0.062222	0.437880
C135	C	0.766644	0.312222	0.687880
C136	C	1.016644	0.562222	0.937880
C137	C	0.313551	-0.187782	0.187865
C138	C	0.563551	0.062218	0.437865
C139	C	0.813551	0.312218	0.687865
C140	C	1.063551	0.562218	0.937865
N141	N	0.337007	-0.216558	0.216542
N142	N	0.587007	0.033442	0.466542
N143	N	0.837007	0.283442	0.716542
N144	N	1.087007	0.533442	0.966542
C145	C	0.313544	-0.245338	0.245222
C146	C	0.563544	0.004662	0.495222
C147	C	0.813544	0.254662	0.745222
C148	C	1.063544	0.504662	0.995222
C149	C	-0.113398	-0.187809	0.187912
C150	C	0.136602	0.062191	0.437912
C151	C	0.386602	0.312191	0.687912
C152	C	0.636602	0.562191	0.937912
C153	C	-0.160316	-0.187813	0.187916
C154	C	0.089684	0.062187	0.437916
C155	C	0.339684	0.312187	0.687916
C156	C	0.589684	0.562187	0.937916
C157	C	-0.160323	-0.245373	0.245275
C158	C	0.089677	0.004627	0.495275
C159	C	0.339677	0.254627	0.745275
C160	C	0.589677	0.504627	0.995275
C161	C	-0.113404	-0.245371	0.245268
C162	C	0.136596	0.004629	0.495268
C163	C	0.386596	0.254629	0.745268
C164	C	0.636596	0.504629	0.995268
C165	C	-0.089942	-0.216585	0.216589
C166	C	0.160058	0.033415	0.466589
C167	C	0.410058	0.283415	0.716589
C168	C	0.660058	0.533415	0.966589
C169	C	0.412070	-0.245333	0.245205
C170	C	0.662070	0.004667	0.495205
C171	C	0.912070	0.254667	0.745205
C172	C	1.162070	0.504667	0.995205
C173	C	0.458990	-0.245330	0.245194
C174	C	0.708990	0.004670	0.495194
C175	C	0.958990	0.254670	0.745194
C176	C	1.208990	0.504670	0.995194
C177	C	0.458993	-0.187769	0.187837
C178	C	0.708993	0.062231	0.437837
C179	C	0.958993	0.312231	0.687837
C180	C	1.208993	0.562231	0.937837
C181	C	0.412077	-0.187773	0.187846
C182	C	0.662077	0.062227	0.437846
C183	C	0.912077	0.312227	0.687846
C184	C	1.162077	0.562227	0.937846
C185	C	0.388617	-0.216557	0.216534
C186	C	0.638617	0.033443	0.466534
C187	C	0.888617	0.283443	0.716534
C188	C	1.138617	0.533443	0.966534
O189	O	0.337857	-0.163328	0.163477
O190	O	0.587857	0.086672	0.413477
O191	O	0.837857	0.336672	0.663477
O192	O	1.087857	0.586672	0.913477
O193	O	0.337809	-0.269807	0.269613
O194	O	0.587809	-0.019807	0.519613
O195	O	0.837809	0.230193	0.769613
O196	O	1.087809	0.480193	1.019613
C197	C	0.125880	-0.245348	0.245247
C198	C	0.375880	0.004652	0.495247
C199	C	0.625880	0.254652	0.745247
C200	C	0.875880	0.504652	0.995247
C201	C	0.102427	-0.216569	0.216574
C202	C	0.352427	0.033431	0.466574
C203	C	0.602427	0.283431	0.716574
C204	C	0.852427	0.533431	0.966574
C205	C	0.125890	-0.187789	0.187893
C206	C	0.375890	0.062211	0.437893
C207	C	0.625890	0.312211	0.687893
C208	C	0.875890	0.562211	0.937893
C209	C	0.055509	-0.216573	0.216577
C210	C	0.305509	0.033427	0.466577
C211	C	0.555509	0.283427	0.716577
C212	C	0.805509	0.533427	0.966577
C213	C	0.032047	-0.245354	0.245258
C214	C	0.282047	0.004646	0.495258
C215	C	0.532047	0.254646	0.745258
C216	C	0.782047	0.504646	0.995258
C217	C	0.055502	-0.274130	0.273934
C218	C	0.305502	-0.024130	0.523934
C219	C	0.555502	0.225870	0.773934
C220	C	0.805502	0.475870	1.023934
C221	C	0.102417	-0.274128	0.273927
C222	C	0.352417	-0.024128	0.523927
C223	C	0.602417	0.225872	0.773927
C224	C	0.852417	0.475872	1.023927
C225	C	0.102434	-0.159012	0.159217
C226	C	0.352434	0.090988	0.409217
C227	C	0.602434	0.340988	0.659217
C228	C	0.852434	0.590988	0.909217
C229	C	0.055519	-0.159017	0.159226
C230	C	0.305519	0.090983	0.409226
C231	C	0.555519	0.340983	0.659226
C232	C	0.805519	0.590983	0.909226
C233	C	0.032056	-0.187797	0.187906
C234	C	0.282056	0.062203	0.437906
C235	C	0.532056	0.312203	0.687906
C236	C	0.782056	0.562203	0.937906
C237	C	0.649028	-0.333289	0.216527
C238	C	0.899028	-0.083289	0.466527
C239	C	1.149028	0.166711	0.716527
C240	C	1.399028	0.416711	0.966527
C241	C	0.649034	-0.383223	0.216533
C242	C	0.899034	-0.133223	0.466533
C243	C	1.149034	0.116777	0.716533
C244	C	1.399034	0.366777	0.966533
C245	C	0.677895	-0.692854	0.187866
C246	C	0.927895	-0.442854	0.437866
C247	C	1.177895	-0.192854	0.687866
C248	C	1.427895	0.057146	0.937866
C249	C	0.677950	-0.880527	0.187883
C250	C	0.927950	-0.630527	0.437883
C251	C	1.177950	-0.380527	0.687883
C252	C	1.427950	-0.130527	0.937883
O253	O	0.702424	-0.904782	0.163493
O254	O	0.952424	-0.654782	0.413493
O255	O	1.202424	-0.404782	0.663493
O256	O	1.452424	-0.154782	0.913493
N257	N	0.649202	-0.904008	0.216583
N258	N	0.899202	-0.654008	0.466583
N259	N	1.149202	-0.404008	0.716583
N260	N	1.399202	-0.154008	0.966583
C261	C	0.620440	-0.880567	0.245283
C262	C	0.870440	-0.630567	0.495283
C263	C	1.120440	-0.380567	0.745283
C264	C	1.370440	-0.130567	0.995283
O265	O	0.595993	-0.904845	0.269698
O266	O	0.845993	-0.654845	0.519698
O267	O	1.095993	-0.404845	0.769698
O268	O	1.345993	-0.154845	1.019698
C269	C	0.620388	-0.692895	0.245268
C270	C	0.870388	-0.442895	0.495268
C271	C	1.120388	-0.192895	0.745268
C272	C	1.370388	0.057105	0.995268
C273	C	0.649134	-0.669417	0.216562
C274	C	0.899134	-0.419417	0.466562
C275	C	1.149134	-0.169417	0.716562
C276	C	1.399134	0.080583	0.966562
C277	C	0.706640	-0.669376	0.159163
C278	C	0.956640	-0.419376	0.409163
C279	C	1.206640	-0.169376	0.659163
C280	C	1.456640	0.080624	0.909163
C281	C	0.706624	-0.622461	0.159158
C282	C	0.956624	-0.372461	0.409158
C283	C	1.206624	-0.122461	0.659158
C284	C	1.456624	0.127539	0.909158
C285	C	0.677863	-0.599023	0.187854
C286	C	0.927863	-0.349023	0.437854
C287	C	1.177863	-0.099023	0.687854
C288	C	1.427863	0.150977	0.937854
C289	C	0.649118	-0.622502	0.216557
C290	C	0.899118	-0.372502	0.466557
C291	C	1.149118	-0.122502	0.716557
C292	C	1.399118	0.127498	0.966557
C293	C	0.591628	-0.669456	0.273969
C294	C	0.841628	-0.419456	0.523969
C295	C	1.091628	-0.169456	0.773969
C296	C	1.341628	0.080544	1.023969
C297	C	0.591618	-0.622535	0.273964
C298	C	0.841618	-0.372535	0.523964
C299	C	1.091618	-0.122535	0.773964
C300	C	1.341618	0.127465	1.023964
C301	C	0.620365	-0.599056	0.245259
C302	C	0.870365	-0.349056	0.495259
C303	C	1.120365	-0.099056	0.745259
C304	C	1.370365	0.150944	0.995259
C305	C	0.620342	-0.552149	0.245247
C306	C	0.870342	-0.302149	0.495247
C307	C	1.120342	-0.052149	0.745247
C308	C	1.370342	0.197851	0.995247
N309	N	0.649090	-0.528668	0.216547
N310	N	0.899090	-0.278668	0.466547
N311	N	1.149090	-0.028668	0.716547
N312	N	1.399090	0.221332	0.966547
C313	C	0.677851	-0.552106	0.187851
C314	C	0.927851	-0.302106	0.437851
C315	C	1.177851	-0.052106	0.687851
C316	C	1.427851	0.197894	0.937851
C317	C	0.620470	-0.979098	0.245289
C318	C	0.870470	-0.729098	0.495289
C319	C	1.120470	-0.479098	0.745289
C320	C	1.370470	-0.229098	0.995289
C321	C	0.620482	-1.026016	0.245292
C322	C	0.870482	-0.776016	0.495292
C323	C	1.120482	-0.526016	0.745292
C324	C	1.370482	-0.276016	0.995292
C325	C	0.677993	-1.025973	0.187893
C326	C	0.927993	-0.775973	0.437893
C327	C	1.177993	-0.525973	0.687893
C328	C	1.427993	-0.275973	0.937893
C329	C	0.677978	-0.979054	0.187887
C330	C	0.927978	-0.729054	0.437887
C331	C	1.177978	-0.479054	0.687887
C332	C	1.427978	-0.229054	0.937887
C333	C	0.649218	-0.955617	0.216589
C334	C	0.899218	-0.705617	0.466589
C335	C	1.149218	-0.455617	0.716589
C336	C	1.399218	-0.205617	0.966589
C337	C	0.677815	-0.453580	0.187841
C338	C	0.927815	-0.203580	0.437841
C339	C	1.177815	0.046420	0.687841
C340	C	1.427815	0.296420	0.937841
C341	C	0.677795	-0.406660	0.187836
C342	C	0.927795	-0.156660	0.437836
C343	C	1.177795	0.093340	0.687836
C344	C	1.427795	0.343340	0.937836
C345	C	0.620286	-0.406708	0.245237
C346	C	0.870286	-0.156708	0.495237
C347	C	1.120286	0.093292	0.745237
C348	C	1.370286	0.343292	0.995237
C349	C	0.620304	-0.453623	0.245240
C350	C	0.870304	-0.203623	0.495240
C351	C	1.120304	0.046377	0.745240
C352	C	1.370304	0.296377	0.995240
C353	C	0.649072	-0.477058	0.216540
C354	C	0.899072	-0.227058	0.466540
C355	C	1.149072	0.022942	0.716540
C356	C	1.399072	0.272942	0.966540
O357	O	0.595885	-0.527865	0.269629
O358	O	0.845885	-0.277865	0.519629
O359	O	1.095885	-0.027865	0.769629
O360	O	1.345885	0.222135	1.019629
O361	O	0.702301	-0.527820	0.163447
O362	O	0.952301	-0.277820	0.413447
O363	O	1.202301	-0.027820	0.663447
O364	O	1.452301	0.222180	0.913447
C365	C	0.677911	-0.739770	0.187872
C366	C	0.927911	-0.489770	0.437872
C367	C	1.177911	-0.239770	0.687872
C368	C	1.427911	0.010230	0.937872
C369	C	0.649166	-0.763248	0.216574
C370	C	0.899166	-0.513248	0.466574
C371	C	1.149166	-0.263248	0.716574
C372	C	1.399166	-0.013248	0.966574
C373	C	0.620405	-0.739811	0.245271
C374	C	0.870405	-0.489811	0.495271
C375	C	1.120405	-0.239811	0.745271
C376	C	1.370405	0.010189	0.995271
C377	C	0.649179	-0.810166	0.216577
C378	C	0.899179	-0.560166	0.466577
C379	C	1.149179	-0.310166	0.716577
C380	C	1.399179	-0.060166	0.966577
C381	C	0.677939	-0.833603	0.187881
C382	C	0.927939	-0.583603	0.437881
C383	C	1.177939	-0.333603	0.687881
C384	C	1.427939	-0.083603	0.937881
C385	C	0.706687	-0.810123	0.159181
C386	C	0.956687	-0.560123	0.409181
C387	C	1.206687	-0.310123	0.659181
C388	C	1.456687	-0.060123	0.909181
C389	C	0.706671	-0.763207	0.159175
C390	C	0.956671	-0.513207	0.409175
C391	C	1.206671	-0.263207	0.659175
C392	C	1.456671	-0.013207	0.909175
C393	C	0.591657	-0.763291	0.273971
C394	C	0.841657	-0.513291	0.523971
C395	C	1.091657	-0.263291	0.773971
C396	C	1.341657	-0.013291	1.023971
C397	C	0.591675	-0.810207	0.273974
C398	C	0.841675	-0.560207	0.523974
C399	C	1.091675	-0.310207	0.773974
C400	C	1.341675	-0.060207	1.023974
C401	C	0.620436	-0.833644	0.245277
C402	C	0.870436	-0.583644	0.495277
C403	C	1.120436	-0.333644	0.745277
C404	C	1.370436	-0.083644	0.995277
C405	C	0.766287	-0.216585	0.216582
C406	C	1.016287	0.033415	0.466582
C407	C	1.266287	0.283415	0.716582
C408	C	1.516287	0.533415	0.966582
C409	C	0.816222	-0.216594	0.216596
C410	C	1.066222	0.033406	0.466596
C411	C	1.316222	0.283406	0.716596
C412	C	1.566222	0.533406	0.966596
C413	C	0.649109	-0.216583	0.333728
C414	C	0.899109	0.033417	0.583728
C415	C	1.149109	0.283417	0.833728
C416	C	1.399109	0.533417	1.083728
C417	C	0.649110	-0.216590	0.383662
C418	C	0.899110	0.033410	0.633662
C419	C	1.149110	0.283410	0.883662
C420	C	1.399110	0.533410	1.133662
C421	C	0.649203	-0.099388	0.216582
C422	C	0.899203	0.150612	0.466582
C423	C	1.149203	0.400612	0.716582
C424	C	1.399203	0.650612	0.966582
C425	C	0.649243	-0.049453	0.216595
C426	C	0.899243	0.200547	0.466595
C427	C	1.149243	0.450547	0.716595
C428	C	1.399243	0.700547	0.966595
C429	C	0.677865	-0.187840	0.693324
C430	C	0.927865	0.062160	0.943324
C431	C	1.177865	0.312160	1.193324
C432	C	1.427865	0.562160	1.443324
C433	C	0.677869	-0.187835	0.880998
C434	C	0.927869	0.062165	1.130998
C435	C	1.177869	0.312165	1.380998
C436	C	1.427869	0.562165	1.630998
O437	O	0.702308	-0.163392	0.905278
O438	O	0.952308	0.086608	1.155278
O439	O	1.202308	0.336608	1.405278
O440	O	1.452308	0.586608	1.655278
N441	N	0.649117	-0.216561	0.904447
N442	N	0.899117	0.033439	1.154447
N443	N	1.149117	0.283439	1.404447
N444	N	1.399117	0.533439	1.654447
C445	C	0.620360	-0.245289	0.880976
C446	C	0.870360	0.004711	1.130976
C447	C	1.120360	0.254711	1.380976
C448	C	1.370360	0.504711	1.630976
O449	O	0.595901	-0.269719	0.905227
O450	O	0.845901	-0.019719	1.155227
O451	O	1.095901	0.230281	1.405227
O452	O	1.345901	0.480281	1.655227
C453	C	0.620355	-0.245291	0.693304
C454	C	0.870355	0.004709	0.943304
C455	C	1.120355	0.254709	1.193304
C456	C	1.370355	0.504709	1.443304
C457	C	0.649112	-0.216567	0.669856
C458	C	0.899112	0.033433	0.919856
C459	C	1.149112	0.283433	1.169856
C460	C	1.399112	0.533433	1.419856
C461	C	0.706619	-0.159118	0.669877
C462	C	0.956619	0.090882	0.919877
C463	C	1.206619	0.340882	1.169877
C464	C	1.456619	0.590882	1.419877
C465	C	0.706620	-0.159121	0.622962
C466	C	0.956620	0.090879	0.872962
C467	C	1.206620	0.340879	1.122962
C468	C	1.456620	0.590879	1.372962
C469	C	0.677866	-0.187847	0.599494
C470	C	0.927866	0.062153	0.849494
C471	C	1.177866	0.312153	1.099494
C472	C	1.427866	0.562153	1.349494
C473	C	0.649112	-0.216570	0.622941
C474	C	0.899112	0.033430	0.872941
C475	C	1.149112	0.283430	1.122941
C476	C	1.399112	0.533430	1.372941
C477	C	0.591596	-0.274016	0.669833
C478	C	0.841596	-0.024016	0.919833
C479	C	1.091596	0.225984	1.169833
C480	C	1.341596	0.475984	1.419833
C481	C	0.591596	-0.274013	0.622912
C482	C	0.841596	-0.024013	0.872912
C483	C	1.091596	0.225987	1.122912
C484	C	1.341596	0.475987	1.372912
C485	C	0.620353	-0.245289	0.599465
C486	C	0.870353	0.004711	0.849465
C487	C	1.120353	0.254711	1.099465
C488	C	1.370353	0.504711	1.349465
C489	C	0.620359	-0.245299	0.552557
C490	C	0.870359	0.004701	0.802557
C491	C	1.120359	0.254701	1.052557
C492	C	1.370359	0.504701	1.302557
N493	N	0.649111	-0.216573	0.529108
N494	N	0.899111	0.033427	0.779108
N495	N	1.149111	0.283427	1.029108
N496	N	1.399111	0.533427	1.279108
C497	C	0.677865	-0.187847	0.552576
C498	C	0.927865	0.062153	0.802576
C499	C	1.177865	0.312153	1.052576
C500	C	1.427865	0.562153	1.302576
C501	C	0.620365	-0.245286	0.979506
C502	C	0.870365	0.004714	1.229506
C503	C	1.120365	0.254714	1.479506
C504	C	1.370365	0.504714	1.729506
C505	C	0.620367	-0.245286	1.026424
C506	C	0.870367	0.004714	1.276424
C507	C	1.120367	0.254714	1.526424
C508	C	1.370367	0.504714	1.776424
C509	C	0.677875	-0.187832	1.026443
C510	C	0.927875	0.062168	1.276443
C511	C	1.177875	0.312168	1.526443
C512	C	1.427875	0.562168	1.776443
C513	C	0.677875	-0.187834	0.979524
C514	C	0.927875	0.062166	1.229524
C515	C	1.177875	0.312166	1.479524
C516	C	1.427875	0.562166	1.729524
C517	C	0.649117	-0.216560	0.956057
C518	C	0.899117	0.033440	1.206057
C519	C	1.149117	0.283440	1.456057
C520	C	1.399117	0.533440	1.706057
C521	C	0.677864	-0.187856	0.454050
C522	C	0.927864	0.062144	0.704050
C523	C	1.177864	0.312144	0.954050
C524	C	1.427864	0.562144	1.204050
C525	C	0.677863	-0.187864	0.407130
C526	C	0.927863	0.062136	0.657130
C527	C	1.177863	0.312136	0.907130
C528	C	1.427863	0.562136	1.157130
C529	C	0.620354	-0.245316	0.407116
C530	C	0.870354	0.004684	0.657116
C531	C	1.120354	0.254684	0.907116
C532	C	1.370354	0.504684	1.157116
C533	C	0.620356	-0.245311	0.454031
C534	C	0.870356	0.004689	0.704031
C535	C	1.120356	0.254689	0.954031
C536	C	1.370356	0.504689	1.204031
C537	C	0.649112	-0.216577	0.477497
C538	C	0.899112	0.033423	0.727497
C539	C	1.149112	0.283423	0.977497
C540	C	1.399112	0.533423	1.227497
O541	O	0.595929	-0.269726	0.528247
O542	O	0.845929	-0.019726	0.778247
O543	O	1.095929	0.230274	1.028247
O544	O	1.345929	0.480274	1.278247
O545	O	0.702312	-0.163414	0.528316
O546	O	0.952312	0.086586	0.778316
O547	O	1.202312	0.336586	1.028316
O548	O	1.452312	0.586586	1.278316
C549	C	0.677865	-0.187837	0.740240
C550	C	0.927865	0.062163	0.990240
C551	C	1.177865	0.312163	1.240240
C552	C	1.427865	0.562163	1.490240
C553	C	0.649110	-0.216560	0.763687
C554	C	0.899110	0.033440	1.013687
C555	C	1.149110	0.283440	1.263687
C556	C	1.399110	0.533440	1.513687
C557	C	0.620357	-0.245286	0.740219
C558	C	0.870357	0.004714	0.990219
C559	C	1.120357	0.254714	1.240219
C560	C	1.370357	0.504714	1.490219
C561	C	0.649112	-0.216560	0.810605
C562	C	0.899112	0.033440	1.060605
C563	C	1.149112	0.283440	1.310605
C564	C	1.399112	0.533440	1.560605
C565	C	0.677866	-0.187834	0.834073
C566	C	0.927866	0.062166	1.084073
C567	C	1.177866	0.312166	1.334073
C568	C	1.427866	0.562166	1.584073
C569	C	0.706618	-0.159108	0.810624
C570	C	0.956618	0.090892	1.060624
C571	C	1.206618	0.340892	1.310624
C572	C	1.456618	0.590892	1.560624
C573	C	0.706618	-0.159111	0.763708
C574	C	0.956618	0.090889	1.013708
C575	C	1.206618	0.340889	1.263708
C576	C	1.456618	0.590889	1.513708
C577	C	0.591605	-0.274012	0.763669
C578	C	0.841605	-0.024012	1.013669
C579	C	1.091605	0.225988	1.263669
C580	C	1.341605	0.475988	1.513669
C581	C	0.591607	-0.274007	0.810584
C582	C	0.841607	-0.024007	1.060584
C583	C	1.091607	0.225993	1.310584
C584	C	1.341607	0.475993	1.560584
C585	C	0.620361	-0.245281	0.834052
C586	C	0.870361	0.004719	1.084052
C587	C	1.120361	0.254719	1.334052
C588	C	1.370361	0.504719	1.584052
C589	C	0.649109	-0.216561	1.099827
C590	C	0.899109	0.033439	1.349827
C591	C	1.149109	0.283439	1.599827
C592	C	1.399109	0.533439	1.849827
C593	C	0.649121	-0.216560	1.049892
C594	C	0.899121	0.033440	1.299892
C595	C	1.149121	0.283440	1.549892
C596	C	1.399121	0.533440	1.799892
H597	H	-0.094299	-0.164368	0.164556
H598	H	0.155701	0.085632	0.414556
H599	H	0.405701	0.335632	0.664556
H600	H	0.655701	0.585632	0.914556
Br601	Br	0.716992	-0.947196	0.148929
Br602	Br	0.966992	-0.697196	0.398929
Br603	Br	1.216992	-0.447196	0.648929
Br604	Br	1.466992	-0.197196	0.898929
Br605	Br	0.552587	-0.590731	0.312919
Br606	Br	0.802587	-0.340731	0.562919
Br607	Br	1.052587	-0.090731	0.812919
Br608	Br	1.302587	0.159269	1.062919
H609	H	0.730080	-0.744095	0.135801
H610	H	0.980080	-0.494095	0.385801
H611	H	1.230080	-0.244095	0.635801
H612	H	1.480080	0.005905	0.885801
H613	H	0.596898	-0.472740	0.268615
H614	H	0.846898	-0.222740	0.518615
H615	H	1.096898	0.027260	0.768615
H616	H	1.346898	0.277260	1.018615
Br617	Br	0.134269	-0.119947	0.120291
Br618	Br	0.384269	0.130053	0.370291
Br619	Br	0.634269	0.380053	0.620291
Br620	Br	0.884269	0.630053	0.870291
Br621	Br	0.164415	-0.313189	0.312842
Br622	Br	0.414415	-0.063189	0.562842
Br623	Br	0.664415	0.186811	0.812842
Br624	Br	0.914415	0.436811	1.062842
H625	H	0.478105	-0.164338	0.164485
H626	H	0.728105	0.085662	0.414485
H627	H	0.978105	0.335662	0.664485
H628	H	1.228105	0.585662	0.914485
Br629	Br	0.552580	-0.312998	0.842400
Br630	Br	0.802580	-0.062998	1.092400
Br631	Br	1.052580	0.187002	1.342400
Br632	Br	1.302580	0.437002	1.592400
Br633	Br	0.581347	-0.284280	1.058240
Br634	Br	0.831347	-0.034280	1.308240
Br635	Br	1.081347	0.215720	1.558240
Br636	Br	1.331347	0.465720	1.808240
Br637	Br	0.275030	-0.119928	0.120281
Br638	Br	0.525030	0.130072	0.370281
Br639	Br	0.775030	0.380072	0.620281
Br640	Br	1.025030	0.630072	0.870281
Br641	Br	0.023696	-0.119954	0.120303
Br642	Br	0.273696	0.130046	0.370303
Br643	Br	0.523696	0.380046	0.620303
Br644	Br	0.773696	0.630046	0.870303
H645	H	0.568218	-0.688563	0.297342
H646	H	0.818218	-0.438563	0.547342
H647	H	1.068218	-0.188563	0.797342
H648	H	1.318218	0.061437	1.047342
H649	H	0.478083	-0.268769	0.268545
H650	H	0.728083	-0.018769	0.518545
H651	H	0.978083	0.231231	0.768545
H652	H	1.228083	0.481231	1.018545
Br653	Br	0.552622	-0.731491	0.312921
Br654	Br	0.802622	-0.481491	0.562921
Br655	Br	1.052622	-0.231491	0.812921
Br656	Br	1.302622	0.018509	1.062921
H657	H	0.596868	-0.387618	0.268600
H658	H	0.846868	-0.137618	0.518600
H659	H	1.096868	0.112382	0.768600
H660	H	1.346868	0.362382	1.018600
Br661	Br	0.716898	-0.148847	1.058301
Br662	Br	0.966898	0.101153	1.308301
Br663	Br	1.216898	0.351153	1.558301
Br664	Br	1.466898	0.601153	1.808301
Br665	Br	0.716895	-0.148879	0.375312
Br666	Br	0.966895	0.101121	0.625312
Br667	Br	1.216895	0.351121	0.875312
Br668	Br	1.466895	0.601121	1.125312
H669	H	0.121508	-0.297565	0.297278
H670	H	0.371508	-0.047565	0.547278
H671	H	0.621508	0.202435	0.797278
H672	H	0.871508	0.452435	1.047278
H673	H	0.701279	-0.164457	0.473150
H674	H	0.951279	0.085543	0.723150
H675	H	1.201279	0.335543	0.973150
H676	H	1.451279	0.585543	1.223150
Br677	Br	0.745717	-0.841940	0.120234
Br678	Br	0.995717	-0.591940	0.370234
Br679	Br	1.245717	-0.341940	0.620234
Br680	Br	1.495717	-0.091940	0.870234
Br681	Br	0.581332	-0.284298	0.485854
Br682	Br	0.831332	-0.034298	0.735854
Br683	Br	1.081332	0.215702	0.985854
Br684	Br	1.331332	0.465702	1.235854
H685	H	0.036390	-0.297565	0.297285
H686	H	0.286390	-0.047565	0.547285
H687	H	0.536390	0.202435	0.797285
H688	H	0.786390	0.452435	1.047285
H689	H	0.597070	-1.045128	0.268662
H690	H	0.847070	-0.795128	0.518662
H691	H	1.097070	-0.545128	0.768662
H692	H	1.347070	-0.295128	1.018662
H693	H	0.568179	-0.297407	0.688916
H694	H	0.818179	-0.047407	0.938916
H695	H	1.068179	0.202593	1.188916
H696	H	1.318179	0.452593	1.438916
H697	H	0.568190	-0.297406	0.744566
H698	H	0.818190	-0.047406	0.994566
H699	H	1.068190	0.202594	1.244566
H700	H	1.318190	0.452594	1.494566
H701	H	0.730035	-0.135720	0.744621
H702	H	0.980035	0.114280	0.994621
H703	H	1.230035	0.364280	1.244621
H704	H	1.480035	0.614280	1.494621
Br705	Br	0.716810	-0.374800	0.148876
Br706	Br	0.966810	-0.124800	0.398876
Br707	Br	1.216810	0.125200	0.648876
Br708	Br	1.466810	0.375200	0.898876
Br709	Br	0.380247	-0.148721	0.148921
Br710	Br	0.630247	0.101279	0.398921
Br711	Br	0.880247	0.351279	0.648921
Br712	Br	1.130247	0.601279	0.898921
Br713	Br	-0.081580	-0.284432	0.284186
Br714	Br	0.168420	-0.034432	0.534186
Br715	Br	0.418420	0.215568	0.784186
Br716	Br	0.668420	0.465568	1.034186
H717	H	0.730036	-0.135729	0.603875
H718	H	0.980036	0.114271	0.853875
H719	H	1.230036	0.364271	1.103875
H720	H	1.480036	0.614271	1.353875
Br721	Br	0.552657	-0.842064	0.312933
Br722	Br	0.802657	-0.592064	0.562933
Br723	Br	1.052657	-0.342064	0.812933
Br724	Br	1.302657	-0.092064	1.062933
Br725	Br	-0.192174	-0.284429	0.284201
Br726	Br	0.057826	-0.034429	0.534201
Br727	Br	0.307826	0.215571	0.784201
Br728	Br	0.557826	0.465571	1.034201
H729	H	0.701411	-1.045063	0.164527
H730	H	0.951411	-0.795063	0.414527
H731	H	1.201411	-0.545063	0.664527
H732	H	1.451411	-0.295063	0.914527
Br733	Br	0.716857	-0.485377	0.148891
Br734	Br	0.966857	-0.235377	0.398891
Br735	Br	1.216857	0.014623	0.648891
Br736	Br	1.466857	0.264623	0.898891
H737	H	0.730034	-0.135723	0.688980
H738	H	0.980034	0.114277	0.938980
H739	H	1.230034	0.364277	1.188980
H740	H	1.480034	0.614277	1.438980
Br741	Br	0.745646	-0.590605	0.120205
Br742	Br	0.995646	-0.340605	0.370205
Br743	Br	1.245646	-0.090605	0.620205
Br744	Br	1.495646	0.159395	0.870205
Br745	Br	0.581332	-0.284299	0.375257
Br746	Br	0.831332	-0.034299	0.625257
Br747	Br	1.081332	0.215701	0.875257
Br748	Br	1.331332	0.465701	1.125257
H749	H	0.701291	-0.164443	0.960436
H750	H	0.951291	0.085557	1.210436
H751	H	1.201291	0.335557	1.460436
H752	H	1.451291	0.585557	1.710436
H753	H	0.568172	-0.297401	0.603807
H754	H	0.818172	-0.047401	0.853807
H755	H	1.068172	0.202599	1.103807
H756	H	1.318172	0.452599	1.353807
Br757	Br	-0.192138	-0.148758	0.148991
Br758	Br	0.057862	0.101242	0.398991
Br759	Br	0.307862	0.351242	0.648991
Br760	Br	0.557862	0.601242	0.898991
H761	H	0.597049	-0.960019	0.268661
H762	H	0.847049	-0.710019	0.518661
H763	H	1.097049	-0.460019	0.768661
H764	H	1.347049	-0.210019	1.018661
Br765	Br	0.581332	-0.284275	0.947665
Br766	Br	0.831332	-0.034275	1.197665
Br767	Br	1.081332	0.215725	1.447665
Br768	Br	1.331332	0.465725	1.697665
H769	H	0.730062	-0.688454	0.135795
H770	H	0.980062	-0.438454	0.385795
H771	H	1.230062	-0.188454	0.635795
H772	H	1.480062	0.061546	0.885795
H773	H	0.730031	-0.135719	0.829740
H774	H	0.980031	0.114281	1.079740
H775	H	1.230031	0.364281	1.329740
H776	H	1.480031	0.614281	1.579740
H777	H	0.262255	-0.297559	0.297257
H778	H	0.512255	-0.047559	0.547257
H779	H	0.762255	0.202441	0.797257
H780	H	1.012255	0.452441	1.047257
Br781	Br	0.380238	-0.284396	0.284139
Br782	Br	0.630238	-0.034396	0.534139
Br783	Br	0.880238	0.215604	0.784139
Br784	Br	1.130238	0.465604	1.034139
H785	H	0.177183	-0.135563	0.135854
H786	H	0.427183	0.114437	0.385854
H787	H	0.677183	0.364437	0.635854
H788	H	0.927183	0.614437	0.885854
