data_functionalizedCrystal
_audit_creation_method	'MofGen! by Chris Wilmer'
_symmetry_space_group_name_H-M	'P1'
_symmetry_Int_Tables_number	1
_symmetry_cell_setting	triclinic
loop_
_symmetry_equiv_pos_as_xyz
  x,y,z
_cell_length_a	10.654550
_cell_length_b	15.944551
_cell_length_c	9.130313
_cell_angle_alpha	89.997799
_cell_angle_beta	89.996220
_cell_angle_gamma	83.991820
loop_
_atom_site_label
_atom_site_type_symbol
_atom_site_fract_x
_atom_site_fract_y
_atom_site_fract_z
O1	O	1.666308	0.117973	-0.121923
O2	O	1.300684	0.129213	-0.121900
O3	O	1.493480	0.001376	-0.121899
O4	O	1.473511	0.245810	-0.121924
O5	O	1.493478	0.001379	0.121700
O6	O	1.300681	0.129216	0.121699
O7	O	1.666305	0.117976	0.121676
Cu8	Cu	1.483493	0.123596	0.143930
Cu9	Cu	1.483496	0.123592	-0.144154
O10	O	1.473509	0.245813	0.121675
C11	C	1.253895	0.128389	-0.000098
C12	C	1.114484	0.125920	-0.000088
C13	C	1.034024	0.201188	-0.000117
C14	C	0.903034	0.198863	-0.000142
C15	C	0.932975	0.045995	-0.000116
C16	C	1.063963	0.048321	-0.000080
C17	C	1.084545	0.278788	-0.000126
C18	C	1.004084	0.354062	-0.000156
C19	C	0.873094	0.351737	-0.000182
C20	C	0.822564	0.274137	-0.000176
C21	C	1.492650	-0.029921	-0.000099
C22	C	1.490165	-0.123182	-0.000098
C23	C	1.364720	-0.338765	-0.000111
C24	C	1.422971	-0.399443	0.119995
C25	C	1.485668	-0.293934	-0.000109
C26	C	1.423002	-0.399430	-0.120175
C27	C	1.481317	-0.458872	-0.000126
C28	C	1.543953	-0.353384	0.120095
C29	C	1.543967	-0.353364	-0.120182
C30	C	1.602306	-0.414024	-0.000048
C31	C	1.488172	-0.198917	-0.000098
C32	C	1.478822	-0.553887	-0.000127
C33	C	1.713094	0.118800	-0.000130
C34	C	1.852505	0.121269	-0.000149
C35	C	1.474339	0.277110	-0.000128
C36	C	1.476824	0.370371	-0.000139
N37	N	1.483500	0.123599	0.346552
N38	N	1.483499	0.123583	-0.346777
C39	C	1.568892	0.067012	0.423205
C40	C	1.568889	0.067002	0.576542
C41	C	1.398098	0.180173	0.576560
C42	C	1.398096	0.180178	0.423226
C43	C	1.654296	0.010433	0.346531
C44	C	1.739696	-0.046158	0.423184
C45	C	1.739693	-0.046168	0.576520
C46	C	1.654290	0.010412	0.653205
H47	H	0.715901	0.272250	-0.000174
N48	N	1.826888	-0.103988	0.654829
N49	N	1.787030	-0.156385	0.740368
H50	H	1.848612	-0.197226	0.795669
N51	N	1.654288	0.010382	0.809835
N52	N	1.730530	-0.040152	0.878262
H53	H	1.730532	-0.040174	0.988881
N54	N	0.881385	-0.033274	-0.000108
N55	N	0.906011	-0.084190	0.102586
H56	H	0.869579	-0.140175	0.102589
H57	H	1.328567	0.226239	0.639006
N58	N	1.654316	0.010455	0.189903
N59	N	1.751333	0.024970	0.121468
H60	H	1.751350	0.024990	0.010849
N61	N	1.826901	-0.103995	0.344912
N62	N	1.942982	-0.102181	0.362034
H63	H	2.004558	-0.143050	0.306777
H64	H	1.702787	-0.446602	0.000014
N65	N	1.218344	0.281179	-0.000113
N66	N	1.263441	0.350465	-0.000126
H67	H	1.357937	0.352154	-0.000122
N68	N	1.055714	0.433317	-0.000139
N69	N	1.172668	0.435385	-0.000111
H70	H	1.209132	0.491360	-0.000095
H71	H	1.328561	0.226256	0.360815
N72	N	1.146141	-0.028570	-0.000032
N73	N	1.101021	-0.097849	-0.000028
H74	H	1.159059	-0.152156	0.000015
N75	N	1.358818	-0.424989	-0.247568
N76	N	1.398895	-0.409318	-0.372226
H77	H	1.353558	-0.427366	-0.462195
N78	N	1.238776	-0.297716	0.000051
N79	N	1.165576	-0.309996	0.103028
H80	H	1.076630	-0.281005	0.103148
H81	H	1.371814	-0.419846	0.221540
N82	N	1.608083	-0.327747	-0.247586
N83	N	1.566861	-0.342264	-0.372205
H84	H	1.612135	-0.324171	-0.462196
N85	N	1.608076	-0.327927	0.247607
N86	N	1.620289	-0.251707	0.268217
H87	H	1.665572	-0.233725	0.358273
N88	N	0.790908	0.428625	-0.000172
N89	N	0.795498	0.480062	0.102510
H90	H	0.737457	0.534368	0.102516
