data_functionalizedCrystal
_audit_creation_method	'MofGen! by Chris Wilmer'
_symmetry_space_group_name_H-M	'P1'
_symmetry_Int_Tables_number	1
_symmetry_cell_setting	triclinic
loop_
_symmetry_equiv_pos_as_xyz
  x,y,z
_cell_length_a	14.519709
_cell_length_b	12.376457
_cell_length_c	14.519731
_cell_angle_alpha	101.297478
_cell_angle_beta	83.684499
_cell_angle_gamma	78.691279
loop_
_atom_site_label
_atom_site_type_symbol
_atom_site_fract_x
_atom_site_fract_y
_atom_site_fract_z
O1	O	1.241505	-0.093858	0.103270
O2	O	0.973035	-0.093893	0.117500
O3	O	1.114376	-0.093864	-0.023850
O4	O	1.100164	-0.093886	0.244620
O5	O	1.079053	0.094141	0.011440
O6	O	0.937713	0.094112	0.152789
O7	O	1.206182	0.094147	0.138560
Zn8	Zn	1.066339	0.123980	0.151277
Zn9	Zn	1.112878	-0.123725	0.104782
O10	O	1.064842	0.094119	0.279910
C11	C	0.921015	0.000105	0.134481
C12	C	0.818636	0.000092	0.132490
N13	N	1.034584	0.293031	0.183009
C14	C	1.096049	0.000139	-0.040565
C15	C	1.094052	0.000139	-0.142945
C16	C	0.443730	0.000145	0.125180
C17	C	0.548041	0.000130	0.127210
C18	C	0.631180	0.000117	0.128835
C19	C	0.735497	0.000105	0.130865
C20	C	1.258203	0.000147	0.121579
C21	C	1.360583	0.000152	0.123568
N22	N	1.144641	-0.292777	0.073044
C23	C	1.218354	0.648054	-0.000632
C24	C	1.240574	0.529718	-0.022841
C25	C	1.189078	0.470541	0.028619
C26	C	1.115359	0.529710	0.102293
C27	C	1.093142	0.648057	0.124508
C28	C	1.063866	0.470544	0.153760
C29	C	0.990147	0.529714	0.227433
C30	C	0.967932	0.648049	0.249645
C31	C	1.019428	0.707227	0.198185
C32	C	1.086083	0.352197	0.131544
C33	C	0.960871	0.352201	0.256685
C34	C	0.938651	0.470536	0.278894
C35	C	1.092431	0.000136	-0.226089
C36	C	1.090406	0.000127	-0.330400
C37	C	1.088799	0.000120	-0.413540
C38	C	1.086774	0.000113	-0.517857
C39	C	1.083170	0.000113	0.296624
C40	C	1.085167	0.000106	0.399003
H41	H	1.146106	0.304032	0.071559
F42	F	0.889483	0.711022	0.328064
F43	F	1.273159	0.711038	-0.055386
F44	F	0.995776	0.833175	0.221818
H45	H	0.918940	0.304019	0.298591
F46	F	0.860195	0.533521	0.357302
F47	F	1.212727	0.344597	0.004980
F48	F	1.319028	0.466750	-0.101245
