data_functionalizedCrystal
_audit_creation_method	'MofGen! by Chris Wilmer'
_symmetry_space_group_name_H-M	'P1'
_symmetry_Int_Tables_number	1
_symmetry_cell_setting	triclinic
loop_
_symmetry_equiv_pos_as_xyz
  x,y,z
_cell_length_a	14.044220
_cell_length_b	18.266242
_cell_length_c	14.044220
_cell_angle_alpha	89.993114
_cell_angle_beta	86.811122
_cell_angle_gamma	90.003954
loop_
_atom_site_label
_atom_site_type_symbol
_atom_site_fract_x
_atom_site_fract_y
_atom_site_fract_z
O1	O	1.277174	0.060806	-0.230170
O2	O	1.777174	0.560806	0.269830
O3	O	1.000503	0.060824	-0.221864
O4	O	1.500503	0.560824	0.278136
O5	O	1.134686	0.060808	-0.087681
O6	O	1.634686	0.560808	0.412319
O7	O	1.142991	0.060822	-0.364352
O8	O	1.642991	0.560822	0.135648
O9	O	1.134660	-0.060954	-0.087671
O10	O	1.634660	0.439046	0.412329
O11	O	1.000477	-0.060938	-0.221854
O12	O	1.500477	0.439062	0.278146
O13	O	1.277149	-0.060956	-0.230160
O14	O	1.777149	0.439044	0.269840
Zn15	Zn	1.138809	-0.080279	-0.226006
Zn16	Zn	1.638809	0.419721	0.273994
Zn17	Zn	1.138843	0.080148	-0.226018
Zn18	Zn	1.638843	0.580148	0.273982
O19	O	1.142966	-0.060940	-0.364343
O20	O	1.642966	0.439060	0.135657
C21	C	0.964868	-0.000054	-0.218223
C22	C	1.464868	0.499946	0.281777
C23	C	0.858725	-0.000047	-0.207379
C24	C	1.358725	0.499953	0.292621
N25	N	1.138793	-0.189766	-0.225997
N26	N	1.638793	0.310234	0.274003
C27	C	0.664388	-0.000063	-0.187553
C28	C	1.164388	0.499937	0.312447
C29	C	0.613258	-0.000062	-0.264467
C30	C	1.113258	0.499938	0.235533
C31	C	0.505122	-0.000071	-0.253435
C32	C	1.005122	0.499929	0.246565
C33	C	0.772534	-0.000054	-0.198583
C34	C	1.272534	0.499946	0.301417
C35	C	1.198233	-0.228082	-0.166614
C36	C	1.698233	0.271918	0.333386
C37	C	1.198239	-0.304727	-0.166610
C38	C	1.698239	0.195273	0.333390
C39	C	1.138815	-0.343053	-0.226006
C40	C	1.638815	0.156947	0.273994
C41	C	1.079363	-0.304728	-0.285393
C42	C	1.579363	0.195272	0.214607
C43	C	1.079352	-0.228084	-0.285388
C44	C	1.579352	0.271916	0.214612
N45	N	1.133806	-0.463381	-0.309456
N46	N	1.633806	0.036619	0.190544
N47	N	1.133822	-0.536189	-0.309458
N48	N	1.633822	-0.036189	0.190542
C49	C	1.138843	-0.573975	-0.226022
C50	C	1.638843	-0.073975	0.273978
N51	N	1.143866	-0.536203	-0.142584
N52	N	1.643866	-0.036203	0.357416
N53	N	1.143855	-0.463389	-0.142583
N54	N	1.643855	0.036611	0.357417
C55	C	1.138820	-0.426160	-0.226017
C56	C	1.638820	0.073840	0.273983
C57	C	1.198292	-0.695399	-0.166630
C58	C	1.698292	-0.195399	0.333370
C59	C	1.198291	-0.772045	-0.166625
C60	C	1.698291	-0.272045	0.333375
C61	C	1.079420	-0.772044	-0.285416
C62	C	1.579420	-0.272044	0.214584
C63	C	1.079416	-0.695399	-0.285413
C64	C	1.579416	-0.195399	0.214587
C65	C	1.138857	-0.657081	-0.226022
C66	C	1.638857	-0.157081	0.273978
C67	C	1.312783	-0.000076	-0.233800
C68	C	1.812783	0.499924	0.266200
C69	C	1.418926	-0.000078	-0.244645
C70	C	1.918926	0.499922	0.255355
C71	C	1.131037	-0.000073	-0.052054
C72	C	1.631037	0.499927	0.447946
C73	C	1.120193	-0.000073	0.054088
C74	C	1.620193	0.499927	0.554088
N75	N	1.138865	0.189634	-0.226020
N76	N	1.638865	0.689634	0.273980
C77	C	1.146614	-0.000057	-0.399969
C78	C	1.646614	0.499943	0.100031
C79	C	1.157459	-0.000052	-0.506112
C80	C	1.657459	0.499948	-0.006112
C81	C	1.100366	-0.000061	0.248426
C82	C	1.600366	0.499939	0.748426
C83	C	1.177281	-0.000064	0.299556
C84	C	1.677281	0.499936	0.799556
C85	C	1.166249	-0.000057	0.407692
C86	C	1.666249	0.499943	0.907692
C87	C	1.111397	-0.000068	0.140280
C88	C	1.611397	0.499932	0.640280
H89	H	0.626951	-0.000071	-0.113425
H90	H	1.126951	0.499929	0.386575
N91	N	1.015304	-0.654074	-0.349468
N92	N	1.515304	-0.154074	0.150532
H93	H	1.032025	-0.667401	-0.418164
H94	H	1.532025	-0.167401	0.081836
H95	H	1.024336	-0.599718	-0.340374
H96	H	1.524336	-0.099718	0.159626
H97	H	1.030947	-0.196887	-0.333745
H98	H	1.530947	0.303113	0.166255
H99	H	1.026239	-0.000054	0.285863
H100	H	1.526239	0.499946	0.785863
H101	H	1.246691	-0.803242	-0.118263
H102	H	1.746691	-0.303242	0.381737
H103	H	1.246690	-0.664199	-0.118267
H104	H	1.746690	-0.164199	0.381733
N105	N	1.262338	-0.186753	-0.102556
N106	N	1.762338	0.313247	0.397444
H107	H	1.299994	-0.222661	-0.064936
H108	H	1.799994	0.277339	0.435064
H109	H	1.222218	-0.154966	-0.057233
H110	H	1.722218	0.345034	0.442767
N111	N	1.262349	-0.346066	-0.102557
N112	N	1.762349	0.153934	0.397443
H113	H	1.300000	-0.310162	-0.064932
H114	H	1.800000	0.189838	0.435068
H115	H	1.307643	-0.377854	-0.142710
H116	H	1.807643	0.122146	0.357290
H117	H	1.030977	-0.335936	-0.333752
H118	H	1.530977	0.164064	0.166248
H119	H	0.650697	-0.000055	-0.338600
H120	H	1.150697	0.499945	0.161400
N121	N	1.015318	-0.813370	-0.349472
N122	N	1.515318	-0.313370	0.150528
H123	H	1.024341	-0.867738	-0.340463
H124	H	1.524341	-0.367738	0.159537
H125	H	1.032065	-0.799964	-0.418140
H126	H	1.532065	-0.299964	0.081860
H127	H	1.251414	-0.000020	0.262117
H128	H	1.751414	0.499980	0.762117
