data_functionalizedCrystal
_audit_creation_method	'MofGen! by Chris Wilmer'
_symmetry_space_group_name_H-M	'P1'
_symmetry_Int_Tables_number	1
_symmetry_cell_setting	triclinic
loop_
_symmetry_equiv_pos_as_xyz
  x,y,z
_cell_length_a	19.188905
_cell_length_b	19.188924
_cell_length_c	12.376457
_cell_angle_alpha	101.235232
_cell_angle_beta	78.739884
_cell_angle_gamma	83.138260
loop_
_atom_site_label
_atom_site_type_symbol
_atom_site_fract_x
_atom_site_fract_y
_atom_site_fract_z
O1	O	0.939613	0.073632	-0.094198
O2	O	0.736293	0.085390	-0.094160
O3	O	0.843821	-0.022144	-0.094167
O4	O	0.832085	0.181166	-0.094191
O5	O	0.816949	0.004703	0.093847
O6	O	0.709421	0.112237	0.093854
O7	O	0.912740	0.100479	0.093816
Zn8	Zn	0.806814	0.110621	0.123686
Zn9	Zn	0.842219	0.075249	-0.124030
O10	O	0.805213	0.208013	0.093822
C11	C	0.696845	0.098437	-0.000148
C12	C	0.619337	0.097305	-0.000133
C13	C	0.597594	0.082126	-0.102623
C14	C	0.524773	0.081051	-0.102637
C15	C	0.473698	0.095142	-0.000155
C16	C	0.495448	0.110327	0.102347
C17	C	0.568267	0.111409	0.102358
N18	N	0.353777	0.064604	0.076116
N19	N	0.284603	0.063574	0.076099
C20	C	0.254295	0.091885	-0.000182
N21	N	0.295779	0.121254	-0.076463
N22	N	0.364961	0.122281	-0.076449
C23	C	0.394736	0.093971	-0.000156
C24	C	0.153591	0.075541	-0.102694
C25	C	0.080767	0.074470	-0.102703
C26	C	0.051444	0.103740	0.102284
C27	C	0.124267	0.104817	0.102290
C28	C	0.175337	0.090713	-0.000202
C29	C	0.830005	-0.034731	-0.000159
C30	C	0.828866	-0.112235	-0.000156
C31	C	0.842983	-0.163268	-0.102642
C32	C	0.841904	-0.236092	-0.102651
C33	C	0.826722	-0.257881	-0.000167
C34	C	0.812599	-0.206837	0.102333
C35	C	0.813671	-0.134014	0.102339
N36	N	0.853869	-0.366657	0.076103
N37	N	0.852853	-0.435837	0.076090
C38	C	0.823489	-0.477291	-0.000177
N39	N	0.795191	-0.446956	-0.076449
N40	N	0.796210	-0.377771	-0.076440
C41	C	0.825557	-0.336844	-0.000161
C42	C	0.836436	-0.607289	-0.102680
C43	C	0.835352	-0.680113	-0.102684
C44	C	0.806054	-0.650857	0.102303
C45	C	0.807132	-0.578034	0.102304
C46	C	0.822326	-0.556255	-0.000190
C47	C	0.952189	0.087432	-0.000199
C48	C	1.029697	0.088563	-0.000221
C49	C	0.819029	0.220600	-0.000188
C50	C	0.820169	0.298103	-0.000199
N51	N	0.782656	0.134761	0.292746
N52	N	0.866383	0.051103	-0.293090
C53	C	0.922462	-0.004947	0.647722
C54	C	0.939366	-0.021843	0.529381
C55	C	0.900190	0.017306	0.470216
C56	C	0.844107	0.073355	0.529404
C57	C	0.827204	0.090256	0.647757
C58	C	0.804932	0.112509	0.470251
C59	C	0.748849	0.168557	0.529439
C60	C	0.731949	0.185455	0.647780
C61	C	0.771126	0.146306	0.706945
C62	C	0.821835	0.095608	0.351899
C63	C	0.726577	0.190811	0.351933
C64	C	0.709673	0.207707	0.470274
H65	H	0.453858	0.121802	0.185788
C66	C	0.802306	-0.009393	0.193361
C67	C	0.798157	-0.077912	0.214999
H68	H	0.792725	0.025242	0.262915
H69	H	0.849206	-0.008929	0.151253
H70	H	0.767792	0.001980	0.151254
H71	H	0.832675	-0.089287	0.257099
H72	H	0.751250	-0.078378	0.257125
C73	C	0.801735	-0.601732	-0.277386
C74	C	0.853131	-0.583330	-0.215327
H75	H	0.812042	-0.586935	-0.346923
H76	H	0.803119	-0.652401	-0.292073
H77	H	0.755187	-0.578329	-0.235254
H78	H	0.899679	-0.606737	-0.257456
H79	H	0.851755	-0.532652	-0.200643
H80	H	0.639172	0.070642	-0.186080
H81	H	0.009859	0.115218	0.185726
H82	H	0.507065	0.068691	-0.186098
H83	H	0.585968	0.123771	0.185820
H84	H	0.855353	-0.145542	-0.186101
H85	H	0.195174	0.064064	-0.186149
C86	C	0.798777	0.118681	0.876455
C87	C	0.752548	0.164883	0.837032
H88	H	0.787312	0.130153	0.956766
H89	H	0.793178	0.070266	0.849699
H90	H	0.847195	0.124301	0.849649
H91	H	0.704130	0.159259	0.863831
H92	H	0.758141	0.213309	0.863799
H93	H	0.686288	0.231098	0.695971
C94	C	0.641474	0.275882	0.651709
C95	C	0.648032	0.269319	0.535342
H96	H	0.603423	0.313922	0.691877
H97	H	0.631267	0.232077	0.671106
H98	H	0.685285	0.286111	0.671065
H99	H	0.604223	0.259085	0.515985
H100	H	0.658234	0.313134	0.515938
C101	C	0.730132	0.266866	0.218837
C102	C	0.683510	0.233850	0.286912
H103	H	0.703547	0.293431	0.178686
H104	H	0.752518	0.298496	0.264987
H105	H	0.765945	0.231057	0.166655
H106	H	0.647700	0.269659	0.339099
H107	H	0.661113	0.202217	0.240758
C108	C	0.117073	0.045627	-0.305320
C109	C	0.056866	0.057781	-0.215369
H110	H	0.102316	0.035319	-0.374874
H111	H	0.139410	0.087359	-0.301067
H112	H	0.150320	0.005951	-0.301030
H113	H	0.023621	0.097461	-0.219655
H114	H	0.034518	0.016045	-0.219624
H115	H	0.141969	0.117173	0.185748
H116	H	0.846845	-0.721665	-0.186144
H117	H	0.793688	-0.668596	0.185748
H118	H	0.853395	-0.277651	-0.186110
C119	C	0.734393	-0.263725	0.221246
C120	C	0.795910	-0.230784	0.214986
H121	H	0.724090	-0.278511	0.290794
H122	H	0.694720	-0.230471	0.216996
H123	H	0.742656	-0.304544	0.160201
H124	H	0.787645	-0.189962	0.276027
H125	H	0.835592	-0.264041	0.219248
C126	C	0.778080	-0.556435	0.304917
C127	C	0.791629	-0.521935	0.214963
H128	H	0.768513	-0.521801	0.374470
H129	H	0.737563	-0.579988	0.300666
H130	H	0.818981	-0.590908	0.300630
H131	H	0.750725	-0.487466	0.219245
H132	H	0.832150	-0.498371	0.219216
H133	H	0.867498	0.049974	0.303718
C134	C	0.976260	-0.058734	0.300676
C135	C	0.918765	-0.001270	0.340134
H136	H	0.987723	-0.070208	0.220365
H137	H	1.017027	-0.045465	0.327416
H138	H	0.963017	-0.099507	0.327475
H139	H	0.932010	0.039504	0.313342
H140	H	0.877990	-0.014536	0.313382
H141	H	0.954358	-0.036814	0.695901
H142	H	0.985029	-0.067476	0.481195
