data_functionalizedCrystal
_audit_creation_method	'MofGen! by Chris Wilmer'
_symmetry_space_group_name_H-M	'P1'
_symmetry_Int_Tables_number	1
_symmetry_cell_setting	triclinic
loop_
_symmetry_equiv_pos_as_xyz
  x,y,z
_cell_length_a	16.974867
_cell_length_b	17.666332
_cell_length_c	16.974813
_cell_angle_alpha	93.661038
_cell_angle_beta	96.372291
_cell_angle_gamma	93.641793
loop_
_atom_site_label
_atom_site_type_symbol
_atom_site_fract_x
_atom_site_fract_y
_atom_site_fract_z
O1	O	-1.049027	0.004929	0.100741
O2	O	-0.549027	0.504929	0.600741
O3	O	-0.818810	0.019804	0.113585
O4	O	-0.318810	0.519804	0.613585
O5	O	-0.940335	0.004919	-0.007948
O6	O	-0.440335	0.504919	0.492052
O7	O	-0.927501	0.019815	0.222274
O8	O	-0.427501	0.519815	0.722274
O9	O	-0.940314	-0.120977	-0.007954
O10	O	-0.440314	0.379023	0.492046
O11	O	-0.818789	-0.106092	0.113579
O12	O	-0.318789	0.393908	0.613579
O13	O	-1.049005	-0.120967	0.100734
O14	O	-0.549005	0.379033	0.600734
Cu15	Cu	-0.933895	-0.125024	0.107156
Cu16	Cu	-0.433895	0.374976	0.607156
Cu17	Cu	-0.933920	0.023862	0.107164
Cu18	Cu	-0.433920	0.523862	0.607164
O19	O	-0.927480	-0.106081	0.222267
O20	O	-0.427480	0.393919	0.722267
C21	C	-0.789342	-0.041371	0.113095
C22	C	-0.289342	0.458629	0.613095
C23	C	-0.701568	-0.036089	0.111634
C24	C	-0.201568	0.463911	0.611634
C25	C	-0.207500	0.001059	0.103383
C26	C	0.292500	0.501059	0.603383
C27	C	-0.289973	-0.003914	0.104756
C28	C	0.210027	0.496086	0.604756
C29	C	-0.331189	-0.075027	0.105445
C30	C	0.168811	0.424973	0.605445
C31	C	-0.289929	-0.141171	0.104753
C32	C	0.210071	0.358829	0.604753
C33	C	-0.207459	-0.136198	0.103374
C34	C	0.292541	0.363802	0.603374
C35	C	-0.577838	-0.097260	0.109563
C36	C	-0.077838	0.402740	0.609563
C37	C	-0.660314	-0.102228	0.110944
C38	C	-0.160314	0.397772	0.610944
C39	C	-0.660352	0.035029	0.110946
C40	C	-0.160352	0.535029	0.610946
C41	C	-0.577879	0.039997	0.109572
C42	C	-0.077879	0.539997	0.609572
C43	C	-0.536627	-0.026148	0.108876
C44	C	-0.036627	0.473852	0.608876
N45	N	-0.415489	-0.080112	0.106851
N46	N	0.084511	0.419888	0.606851
N47	N	-0.452330	-0.021063	0.107464
N48	N	0.047670	0.478937	0.607464
N49	N	-0.933883	-0.229743	0.107150
N50	N	-0.433883	0.270257	0.607150
C51	C	-0.987712	-0.275944	0.053361
C52	C	-0.487712	0.224056	0.553361
C53	C	-0.987717	-0.355192	0.053358
C54	C	-0.487717	0.144808	0.553358
C55	C	-0.933900	-0.388236	0.107156
C56	C	-0.433900	0.111764	0.607156
C57	C	-0.880061	-0.342025	0.160949
C58	C	-0.380061	0.157975	0.660949
C59	C	-0.880052	-0.262779	0.160946
C60	C	-0.380052	0.237221	0.660946
N61	N	-0.923759	-0.507746	0.177132
N62	N	-0.423759	-0.007746	0.677132
N63	N	-0.923772	-0.583027	0.177133
N64	N	-0.423772	-0.083027	0.677133
C65	C	-0.933921	-0.627001	0.107167
C66	C	-0.433921	-0.127001	0.607167
N67	N	-0.944072	-0.592851	0.037199
N68	N	-0.444072	-0.092851	0.537199
N69	N	-0.944063	-0.517563	0.037199
N70	N	-0.444063	-0.017563	0.537199
C71	C	-0.933903	-0.474165	0.107165
C72	C	-0.433903	0.025835	0.607165
C73	C	-0.987757	-0.759132	0.053370
C74	C	-0.487757	-0.259132	0.553370
C75	C	-0.987757	-0.838381	0.053365
C76	C	-0.487757	-0.338381	0.553365
C77	C	-0.880105	-0.825213	0.160963
C78	C	-0.380105	-0.325213	0.660963
C79	C	-0.880102	-0.745965	0.160961
C80	C	-0.380102	-0.245965	0.660961
C81	C	-0.933932	-0.712929	0.107165
C82	C	-0.433932	-0.212929	0.607165
C83	C	-0.078473	-0.059793	0.101227
C84	C	0.421527	0.440207	0.601227
C85	C	-0.166246	-0.065081	0.102694
C86	C	0.333754	0.434919	0.602694
C87	C	-0.939836	-0.059803	-0.037409
C88	C	-0.439836	0.440197	0.462591
C89	C	-0.938371	-0.065088	-0.125184
C90	C	-0.438371	0.434912	0.374816
N91	N	-0.933938	0.128580	0.107163
N92	N	-0.433938	0.628580	0.607163
C93	C	-0.937696	0.001054	-0.166413
C94	C	-0.437696	0.501054	0.333587
C95	C	-0.936315	-0.003914	-0.248887
C96	C	-0.436315	0.496086	0.251113
C97	C	-0.935614	-0.075025	-0.290131
C98	C	-0.435614	0.424975	0.209869
C99	C	-0.936286	-0.141172	-0.248896
C100	C	-0.436286	0.358828	0.251104
C101	C	-0.937662	-0.136203	-0.166423
C102	C	-0.437662	0.363797	0.333577
C103	C	-0.931492	-0.097245	-0.536788
C104	C	-0.431492	0.402755	-0.036788
C105	C	-0.930119	-0.102210	-0.619267
C106	C	-0.430119	0.397790	-0.119267
C107	C	-0.930146	0.035049	-0.619253
C108	C	-0.430146	0.535049	-0.119253
C109	C	-0.931527	0.040012	-0.536779
C110	C	-0.431527	0.540012	-0.036779
C111	C	-0.932195	-0.026135	-0.495550
C112	C	-0.432195	0.473865	0.004450
N113	N	-0.934204	-0.080105	-0.374432
N114	N	-0.434204	0.419895	0.125568
N115	N	-0.933599	-0.021054	-0.411249
N116	N	-0.433599	0.478946	0.088751
C117	C	-0.927979	-0.041358	0.251729
C118	C	-0.427979	0.458642	0.751729
C119	C	-0.929444	-0.036068	0.339504
C120	C	-0.429444	0.463932	0.839504
H121	H	-0.323494	-0.199073	0.105309
H122	H	0.176506	0.300927	0.605309
H123	H	-0.544327	0.097904	0.109010
H124	H	-0.044327	0.597904	0.609010
H125	H	-0.693869	-0.160139	0.111510
H126	H	-0.193869	0.339861	0.611510
O127	O	-0.929406	0.106389	-0.663722
O128	O	-0.429406	0.606389	-0.163722
H129	H	-0.930125	0.156671	-0.621186
H130	H	-0.430125	0.656671	-0.121186
H131	H	-0.323559	0.049943	0.105313
H132	H	0.176441	0.549943	0.605313
H133	H	-1.031542	-0.249049	0.009556
H134	H	-0.531542	0.250951	0.509556
H135	H	-0.836283	-0.852117	0.204764
H136	H	-0.336283	-0.352117	0.704764
H137	H	-1.031552	-0.392815	0.009555
H138	H	-0.531552	0.107185	0.509555
O139	O	-0.822018	-0.377659	0.218981
O140	O	-0.322018	0.122341	0.718981
H141	H	-0.831073	-0.440526	0.209953
H142	H	-0.331073	0.059474	0.709953
O143	O	-0.821998	-0.212941	0.218969
O144	O	-0.321998	0.287059	0.718969
H145	H	-0.784577	-0.249228	0.256382
H146	H	-0.284577	0.250772	0.756382
O147	O	-1.045829	-0.888211	-0.004648
O148	O	-0.545829	-0.388211	0.495352
H149	H	-1.035841	-0.876170	-0.066287
H150	H	-0.535841	-0.376170	0.433713
O151	O	-0.929369	-0.178919	-0.663744
O152	O	-0.429369	0.321081	-0.163744
H153	H	-0.982617	-0.188198	-0.708413
H154	H	-0.482617	0.311802	-0.208413
O155	O	-0.162956	-0.207532	0.102637
O156	O	0.337044	0.292468	0.602637
H157	H	-0.205468	-0.257817	0.103356
H158	H	0.294532	0.242183	0.603356
O159	O	-0.935544	-0.217871	-0.293384
O160	O	-0.435544	0.282129	0.206616
H161	H	-0.881060	-0.219689	-0.323865
H162	H	-0.381060	0.280311	0.176135
H163	H	-0.693949	0.088880	0.111512
H164	H	-0.193949	0.588880	0.611512
H165	H	-0.544262	-0.151121	0.108984
H166	H	-0.044262	0.348879	0.608984
H167	H	-0.173948	0.058967	0.102828
H168	H	0.326052	0.558967	0.602828
O169	O	-1.045803	-0.723490	-0.004658
O170	O	-0.545803	-0.223490	0.495342
H171	H	-1.083227	-0.768934	-0.042073
H172	H	-0.583227	-0.268934	0.457927
O173	O	-0.822052	-0.696126	0.218985
O174	O	-0.322052	-0.196126	0.718985
H175	H	-0.784634	-0.732415	0.256400
H176	H	-0.284634	-0.232415	0.756400
O177	O	-0.938393	-0.207545	-0.121955
O178	O	-0.438393	0.292455	0.378045
H179	H	-0.939460	-0.192143	-0.057677
H180	H	-0.439460	0.307857	0.442323
O181	O	-0.938446	0.077754	-0.121929
O182	O	-0.438446	0.577754	0.378071
H183	H	-0.937735	0.122912	-0.164456
H184	H	-0.437735	0.622912	0.335544
H185	H	-0.935769	0.049946	-0.282453
H186	H	-0.435769	0.549946	0.217547
H187	H	-0.932098	0.097918	-0.503204
H188	H	-0.432098	0.597918	-0.003204
O189	O	-0.932233	-0.168587	-0.492327
O190	O	-0.432233	0.331413	0.007673
H191	H	-0.931529	-0.218868	-0.534866
H192	H	-0.431529	0.281132	-0.034866
