data_functionalizedCrystal
_audit_creation_method	'MofGen! by Chris Wilmer'
_symmetry_space_group_name_H-M	'P1'
_symmetry_Int_Tables_number	1
_symmetry_cell_setting	triclinic
loop_
_symmetry_equiv_pos_as_xyz
  x,y,z
_cell_length_a	19.121063
_cell_length_b	21.395364
_cell_length_c	21.395356
_cell_angle_alpha	89.982872
_cell_angle_beta	87.586704
_cell_angle_gamma	87.514290
loop_
_atom_site_label
_atom_site_type_symbol
_atom_site_fract_x
_atom_site_fract_y
_atom_site_fract_z
Zn1	Zn	-0.279337	-0.947191	0.364894
Zn2	Zn	0.053996	-0.613858	0.698227
Zn3	Zn	0.387329	-0.280524	1.031561
Zn4	Zn	-0.396787	-0.942644	0.264582
Zn5	Zn	-0.063454	-0.609311	0.597915
Zn6	Zn	0.269880	-0.275977	0.931249
Zn7	Zn	-0.279386	-0.842419	0.260131
Zn8	Zn	0.053947	-0.509086	0.593465
Zn9	Zn	0.387280	-0.175752	0.926798
Zn10	Zn	-0.396788	-0.837911	0.369321
Zn11	Zn	-0.063455	-0.504577	0.702654
Zn12	Zn	0.269878	-0.171244	1.035987
O13	O	-0.338075	-0.892541	0.314732
O14	O	-0.004741	-0.559208	0.648065
O15	O	0.328592	-0.225875	0.981399
O16	O	-0.294896	-1.034267	0.351597
O17	O	0.038437	-0.700933	0.684931
O18	O	0.371770	-0.367600	1.018264
O19	O	-0.381233	-0.929333	0.176314
O20	O	-0.047900	-0.596000	0.509648
O21	O	0.285433	-0.262666	0.842981
O22	O	-0.181094	-0.860107	0.270313
O23	O	0.152240	-0.526774	0.603646
O24	O	0.485573	-0.193440	0.936980
O25	O	-0.381186	-1.030926	0.277899
O26	O	-0.047853	-0.697593	0.611232
O27	O	0.285481	-0.364259	0.944565
O28	O	-0.181058	-0.937082	0.347282
O29	O	0.152275	-0.603749	0.680615
O30	O	0.485609	-0.270416	1.013949
O31	O	-0.294980	-0.855698	0.173045
O32	O	0.038354	-0.522365	0.506378
O33	O	0.371687	-0.189031	0.839711
O34	O	-0.294981	-0.754142	0.274606
O35	O	0.038352	-0.420809	0.607939
O36	O	0.371685	-0.087476	0.941272
O37	O	-0.381189	-0.852423	0.456411
O38	O	-0.047855	-0.519090	0.789744
O39	O	0.285478	-0.185757	1.123077
O40	O	-0.381236	-0.750830	0.354827
O41	O	-0.047903	-0.417497	0.688160
O42	O	0.285431	-0.084163	1.021493
O43	O	-0.294898	-0.932711	0.453158
O44	O	0.038436	-0.599378	0.786492
O45	O	0.371769	-0.266044	1.119825
O46	O	-0.495073	-0.924961	0.282191
O47	O	-0.161740	-0.591628	0.615524
O48	O	0.171593	-0.258295	0.948858
O49	O	-0.495074	-0.848014	0.359142
O50	O	-0.161741	-0.514681	0.692475
O51	O	0.171592	-0.181348	1.025809
C52	C	-0.338115	-0.729752	0.314714
C53	C	-0.004781	-0.396419	0.648047
C54	C	0.328552	-0.063085	0.981380
C55	C	-0.338148	-0.660110	0.314722
C56	C	-0.004815	-0.326776	0.648055
C57	C	0.328518	0.006557	0.981388
C58	C	-0.293292	-0.629155	0.353161
C59	C	0.040041	-0.295822	0.686494
C60	C	0.373374	0.037511	1.019828
C61	C	-0.293276	-0.563721	0.353162
C62	C	0.040058	-0.230387	0.686495
C63	C	0.373391	0.102946	1.019829
C64	C	-0.338128	-0.529242	0.314730
C65	C	-0.004795	-0.195909	0.648064
C66	C	0.328539	0.137425	0.981397
C67	C	-0.382988	-0.560204	0.276283
C68	C	-0.049654	-0.226871	0.609617
C69	C	0.283679	0.106463	0.942950
C70	C	-0.382998	-0.625638	0.276279
C71	C	-0.049664	-0.292304	0.609612
C72	C	0.283669	0.041029	0.942946
C73	C	-0.401384	-0.423114	0.312096
C74	C	-0.068051	-0.089781	0.645430
C75	C	0.265283	0.243553	0.978763
C76	C	-0.401375	-0.357681	0.312105
C77	C	-0.068042	-0.024348	0.645439
C78	C	0.265292	0.308985	0.978772
C79	C	-0.338096	-0.327422	0.314741
C80	C	-0.004763	0.005911	0.648074
C81	C	0.328570	0.339244	0.981407
C82	C	-0.274825	-0.362604	0.317380
C83	C	0.058508	-0.029271	0.650713
C84	C	0.391842	0.304062	0.984047
C85	C	-0.274835	-0.428038	0.317375
C86	C	0.058498	-0.094705	0.650709
C87	C	0.391832	0.238629	0.984042
C88	C	-0.338122	-0.458290	0.314731
C89	C	-0.004788	-0.124957	0.648064
C90	C	0.328545	0.208377	0.981397
C91	C	-0.293218	-0.225517	0.353183
C92	C	0.040115	0.107817	0.686516
C93	C	0.373448	0.441150	1.019850
C94	C	-0.293201	-0.160081	0.353179
C95	C	0.040133	0.173253	0.686513
C96	C	0.373466	0.506586	1.019846
C97	C	-0.382919	-0.156565	0.276305
C98	C	-0.049586	0.176768	0.609638
C99	C	0.283748	0.510102	0.942971
C100	C	-0.382930	-0.222000	0.276305
C101	C	-0.049597	0.111333	0.609638
C102	C	0.283736	0.444667	0.942971
C103	C	-0.338081	-0.256472	0.314747
C104	C	-0.004748	0.076862	0.648080
C105	C	0.328586	0.410195	0.981414
C106	C	-0.520558	-0.885522	0.321644
C107	C	-0.187225	-0.552189	0.654977
C108	C	0.146108	-0.218856	0.988310
C109	C	-0.598626	-0.882577	0.324621
C110	C	-0.265292	-0.549243	0.657955
C111	C	0.068041	-0.215910	0.991288
C112	C	-0.635278	-0.921286	0.285989
C113	C	-0.301944	-0.587953	0.619322
C114	C	0.031389	-0.254620	0.952656
C115	C	-0.708630	-0.918520	0.288793
C116	C	-0.375297	-0.585187	0.622127
C117	C	-0.041963	-0.251853	0.955460
C118	C	-0.745329	-0.877040	0.330227
C119	C	-0.411996	-0.543707	0.663560
C120	C	-0.078662	-0.210374	0.996894
C121	C	-0.708672	-0.838329	0.368863
C122	C	-0.375338	-0.504996	0.702197
C123	C	-0.042005	-0.171662	1.035530
C124	C	-0.635321	-0.841099	0.366062
C125	C	-0.301987	-0.507766	0.699395
C126	C	0.031346	-0.174432	1.032729
C127	C	-0.966803	-0.866674	0.340691
C128	C	-0.633470	-0.533340	0.674025
C129	C	-0.300136	-0.200007	1.007358
C130	C	-1.040159	-0.863905	0.343489
C131	C	-0.706826	-0.530572	0.676822
C132	C	-0.373493	-0.197238	1.010155
C133	C	-1.040113	-0.944097	0.263419
C134	C	-0.706779	-0.610764	0.596752
C135	C	-0.373446	-0.277431	0.930086
C136	C	-0.966760	-0.946861	0.260618
C137	C	-0.633427	-0.613528	0.593952
C138	C	-0.300094	-0.280194	0.927285
C139	C	-0.930109	-0.908152	0.299257
C140	C	-0.596776	-0.574819	0.632590
C141	C	-0.263443	-0.241485	0.965924
C142	C	-0.820307	-0.874210	0.333093
C143	C	-0.486974	-0.540877	0.666426
C144	C	-0.153640	-0.207543	0.999760
C145	C	-0.855133	-0.910986	0.296394
C146	C	-0.521799	-0.577652	0.629727
C147	C	-0.188466	-0.244319	0.963061
C148	C	-0.154879	-0.899605	0.307807
C149	C	0.178455	-0.566271	0.641141
C150	C	0.511788	-0.232938	0.974474
C151	C	-0.076811	-0.902615	0.304856
C152	C	0.256522	-0.569281	0.638190
C153	C	0.589855	-0.235948	0.971523
C154	C	-0.338038	-0.892571	0.478154
C155	C	-0.004705	-0.559238	0.811487
C156	C	0.328629	-0.225905	1.144821
C157	C	-0.338022	-0.892584	0.547795
C158	C	-0.004689	-0.559251	0.881128
C159	C	0.328645	-0.225918	1.214461
C160	C	-0.338044	-0.055966	0.314748
C161	C	-0.004711	0.277368	0.648081
C162	C	0.328623	0.610701	0.981414
C163	C	-0.338053	-0.125607	0.314747
C164	C	-0.004720	0.207727	0.648080
C165	C	0.328614	0.541060	0.981414
C166	C	-0.338061	-0.892549	0.151944
C167	C	-0.004728	-0.559216	0.485277
C168	C	0.328606	-0.225883	0.818611
C169	C	-0.337879	-0.892665	0.082296
C170	C	-0.004545	-0.559332	0.415629
C171	C	0.328788	-0.225999	0.748963
C172	C	-0.382787	-0.931002	1.051289
C173	C	-0.049454	-0.597669	1.384622
C174	C	0.283880	-0.264335	1.717955
C175	C	-0.382809	-0.930990	0.985854
C176	C	-0.049476	-0.597656	1.319187
C177	C	0.283857	-0.264323	1.652521
C178	C	-0.337911	-0.892648	0.951429
C179	C	-0.004577	-0.559315	1.284762
C180	C	0.328756	-0.225982	1.618096
C181	C	-0.292999	-0.854304	0.982444
C182	C	0.040334	-0.520971	1.315778
C183	C	0.373667	-0.187637	1.649111
C184	C	-0.292983	-0.854313	1.047878
C185	C	0.040350	-0.520979	1.381211
C186	C	0.373683	-0.187646	1.714544
C187	C	-0.274658	-0.890127	0.845369
C188	C	0.058675	-0.556794	1.178702
C189	C	0.392009	-0.223460	1.512036
C190	C	-0.274673	-0.890123	0.779936
C191	C	0.058660	-0.556789	1.113270
C192	C	0.391994	-0.223456	1.446603
C193	C	-0.337961	-0.892618	0.749610
C194	C	-0.004627	-0.559285	1.082943
C195	C	0.328706	-0.225951	1.416277
C196	C	-0.401235	-0.895131	0.784724
C197	C	-0.067902	-0.561797	1.118057
C198	C	0.265431	-0.228464	1.451391
C199	C	-0.401219	-0.895139	0.850158
C200	C	-0.067886	-0.561806	1.183491
C201	C	0.265447	-0.228472	1.516824
C202	C	-0.337923	-0.892634	0.880477
C203	C	-0.004590	-0.559301	1.213810
C204	C	0.328743	-0.225968	1.547144
C205	C	-0.382897	-0.930943	0.647651
C206	C	-0.049564	-0.597610	0.980984
C207	C	0.283770	-0.264277	1.314318
C208	C	-0.382920	-0.930927	0.582215
C209	C	-0.049587	-0.597594	0.915549
C210	C	0.283746	-0.264260	1.248882
C211	C	-0.293104	-0.854245	0.578806
C212	C	0.040229	-0.520911	0.912140
C213	C	0.373563	-0.187578	1.245473
C214	C	-0.293087	-0.854258	0.644241
C215	C	0.040247	-0.520924	0.977575
C216	C	0.373580	-0.187591	1.310908
C217	C	-0.337982	-0.892610	0.678659
C218	C	-0.004649	-0.559277	1.011993
C219	C	0.328684	-0.225944	1.345326
H220	H	-0.452894	-0.329041	0.309959
H221	H	-0.119561	0.004292	0.643293
H222	H	0.213772	0.337625	0.976626
Cl223	Cl	-0.236526	-0.806110	1.086861
Cl224	Cl	0.096807	-0.472777	1.420194
Cl225	Cl	0.430140	-0.139443	1.753528
H226	H	-0.936881	-0.980637	0.226880
H227	H	-0.603548	-0.647304	0.560213
H228	H	-0.270215	-0.313970	0.893546
H229	H	-0.452917	-0.447745	0.309950
H230	H	-0.119583	-0.114412	0.643283
H231	H	0.213750	0.218922	0.976617
H232	H	-0.256695	-0.253585	0.384481
H233	H	0.076638	0.079748	0.717814
H234	H	0.409972	0.413081	1.051148
H235	H	-0.419455	-0.962171	0.675676
H236	H	-0.086122	-0.628838	1.009009
H237	H	0.247211	-0.295504	1.342343
H238	H	-0.419460	-0.247203	0.245006
H239	H	-0.086127	0.086130	0.578339
H240	H	0.247207	0.419464	0.911672
Cl241	Cl	-0.920737	-0.818009	0.389265
Cl242	Cl	-0.587404	-0.484676	0.722598
Cl243	Cl	-0.254070	-0.151343	1.055932
H244	H	-0.850195	-0.840436	0.366827
H245	H	-0.516862	-0.507103	0.700160
H246	H	-0.183529	-0.173769	1.033494
H247	H	-0.419497	-0.962142	0.556970
H248	H	-0.086163	-0.628808	0.890304
H249	H	0.247170	-0.295475	1.223637
H250	H	-0.419506	-0.532127	0.244992
H251	H	-0.086173	-0.198794	0.578325
H252	H	0.247160	0.134539	0.911658
H253	H	-0.256772	-0.657218	0.384463
H254	H	0.076562	-0.323885	0.717797
H255	H	0.409895	0.009448	1.051130
Cl256	Cl	-0.236553	-0.806105	0.939168
Cl257	Cl	0.096780	-0.472771	1.272501
Cl258	Cl	0.430113	-0.139438	1.605835
H259	H	-0.256548	-0.823025	0.550778
H260	H	0.076785	-0.489691	0.884112
H261	H	0.410118	-0.156358	1.217445
Cl262	Cl	-0.439392	-0.664554	0.227949
Cl263	Cl	-0.106058	-0.331220	0.561283
Cl264	Cl	0.227275	0.002113	0.894616
Cl265	Cl	-0.236880	-0.524798	0.401489
Cl266	Cl	0.096453	-0.191465	0.734822
Cl267	Cl	0.429787	0.141868	1.068155
H268	H	-0.223317	-0.456681	0.319523
H269	H	0.110016	-0.123347	0.652856
H270	H	0.443349	0.209986	0.986189
Cl271	Cl	-0.808996	-0.963132	0.244310
Cl272	Cl	-0.475663	-0.629799	0.577643
Cl273	Cl	-0.142329	-0.296465	0.910977
Cl274	Cl	-0.589149	-0.973431	0.233894
Cl275	Cl	-0.255816	-0.640098	0.567227
Cl276	Cl	0.077517	-0.306764	0.900561
Cl277	Cl	-0.754704	-0.967188	0.240226
Cl278	Cl	-0.421371	-0.633855	0.573560
Cl279	Cl	-0.088038	-0.300521	0.906893
Cl280	Cl	-0.195058	-0.887305	0.883485
Cl281	Cl	0.138275	-0.553972	1.216818
Cl282	Cl	0.471608	-0.220638	1.550152
Cl283	Cl	-1.086192	-0.992761	0.214852
Cl284	Cl	-0.752859	-0.659427	0.548185
Cl285	Cl	-0.419526	-0.326094	0.881518
H286	H	-0.419439	-0.128493	0.245013
H287	H	-0.086105	0.204840	0.578346
H288	H	0.247228	0.538173	0.911679
Cl289	Cl	-0.236637	-0.806051	0.683225
Cl290	Cl	0.096697	-0.472718	1.016558
Cl291	Cl	0.430030	-0.139385	1.349891
H292	H	-0.223297	-0.337969	0.319526
H293	H	0.110036	-0.004636	0.652859
H294	H	0.443369	0.328697	0.986193
H295	H	-0.419347	-0.962230	1.079308
H296	H	-0.086013	-0.628897	1.412641
H297	H	0.247320	-0.295563	1.745975
Cl298	Cl	-0.236802	-0.121166	0.401505
Cl299	Cl	0.096532	0.212167	0.734839
Cl300	Cl	0.429865	0.545500	1.068172
H301	H	-1.070037	-0.830135	0.377240
H302	H	-0.736704	-0.496802	0.710573
H303	H	-0.403371	-0.163468	1.043906
H304	H	-0.738558	-0.804558	0.402602
H305	H	-0.405224	-0.471225	0.735936
H306	H	-0.071891	-0.137891	1.069269
Cl307	Cl	-0.589243	-0.792436	0.414632
Cl308	Cl	-0.255910	-0.459102	0.747966
Cl309	Cl	0.077423	-0.125769	1.081299
H310	H	-0.419371	-0.962217	0.960602
H311	H	-0.086038	-0.628884	1.293936
H312	H	0.247295	-0.295551	1.627269
Cl313	Cl	-0.480761	-0.898293	0.894299
Cl314	Cl	-0.147427	-0.564959	1.227632
Cl315	Cl	0.185906	-0.231626	1.560965
H316	H	-0.452770	-0.897164	0.760034
H317	H	-0.119437	-0.563830	1.093367
H318	H	0.213897	-0.230497	1.426701
H319	H	-0.223151	-0.888081	0.751351
H320	H	0.110182	-0.554747	1.084685
H321	H	0.443516	-0.221414	1.418018
