data_functionalizedCrystal
_audit_creation_method	'MofGen! by Chris Wilmer'
_symmetry_space_group_name_H-M	'P1'
_symmetry_Int_Tables_number	1
_symmetry_cell_setting	triclinic
loop_
_symmetry_equiv_pos_as_xyz
  x,y,z
_cell_length_a	12.759401
_cell_length_b	12.645330
_cell_length_c	12.759393
_cell_angle_alpha	90.031109
_cell_angle_beta	90.020938
_cell_angle_gamma	90.014171
loop_
_atom_site_label
_atom_site_type_symbol
_atom_site_fract_x
_atom_site_fract_y
_atom_site_fract_z
Zn1	Zn	1.606281	-0.421945	0.594016
Zn2	Zn	1.606179	-0.599246	0.418334
Zn3	Zn	1.430580	-0.422001	0.418351
Zn4	Zn	1.430578	-0.599171	0.593971
O5	O	1.518405	-0.510591	0.506168
O6	O	1.753289	-0.445472	0.570723
O7	O	1.582843	-0.575788	0.271315
O8	O	1.453931	-0.273647	0.441679
O9	O	1.753213	-0.575734	0.441650
O10	O	1.583018	-0.273605	0.570739
O11	O	1.453831	-0.445568	0.271327
O12	O	1.283559	-0.445496	0.441636
O13	O	1.453928	-0.575607	0.740998
O14	O	1.283557	-0.575662	0.570663
O15	O	1.583016	-0.445400	0.741031
O16	O	1.582841	-0.747583	0.441607
O17	O	1.453828	-0.747529	0.570647
C18	C	1.245437	-0.510578	0.506147
C19	C	1.128661	-0.510598	0.506163
C20	C	1.073825	-0.578479	0.573242
C21	C	0.964101	-0.578483	0.573263
C22	C	0.964057	-0.442722	0.439117
C23	C	1.073779	-0.442714	0.439102
C24	C	1.518352	-0.786021	0.506143
C25	C	1.518426	-0.903851	0.506168
C26	C	1.599457	-1.071405	0.424824
C27	C	1.599721	-0.948844	0.425023
C28	C	1.548455	-0.948224	0.616912
C29	C	1.549098	-1.070822	0.616481
C30	C	1.407332	-1.071183	0.477858
C31	C	1.407865	-0.948579	0.475374
C32	C	1.792438	-0.510605	0.506189
C33	C	1.909215	-0.510610	0.506199
C34	C	1.518483	-0.510489	0.780201
C35	C	1.518517	-0.510446	0.896978
C36	C	1.518486	-0.234086	0.506216
C37	C	1.518521	-0.116255	0.506236
C38	C	1.518387	-0.510616	0.233200
C39	C	1.518557	-0.510360	0.116424
C40	C	1.585738	-0.442636	0.951859
C41	C	1.585756	-0.442590	1.061583
C42	C	1.451328	-0.578173	1.061536
C43	C	1.451306	-0.578213	0.951814
H44	H	1.118507	-0.633751	0.627850
C45	C	1.377350	-0.652810	0.891442
N46	N	1.321646	-0.708991	0.845969
H47	H	0.919460	-0.633756	0.627887
H48	H	1.396610	-0.633349	1.106197
C49	C	0.903678	-0.368060	0.365348
N50	N	0.858201	-0.311824	0.309781
C51	C	1.471247	-0.908840	0.701059
N52	N	1.413094	-0.879172	0.764438
H53	H	1.385222	-0.919589	0.393875
C54	C	1.659707	-0.367996	1.121947
N55	N	1.715411	-0.311809	1.167412
C56	C	1.574402	-1.111348	0.313563
N57	N	1.555528	-1.141440	0.229758
C58	C	1.134102	-0.368036	0.365306
N59	N	1.179536	-0.311790	0.309726
C60	C	1.574300	-0.908318	0.314097
N61	N	1.555142	-0.877798	0.230544
H62	H	1.681369	-1.102131	0.443384
C63	C	1.710980	-0.909106	0.450373
N64	N	1.794785	-0.879176	0.469467
H65	H	1.347028	-1.100188	0.537154
C66	C	1.370446	-1.113074	0.370656
N67	N	1.342675	-1.144626	0.289907
C68	C	1.658899	-1.109339	0.648942
N69	N	1.741605	-1.138344	0.673388
H70	H	1.492730	-1.100486	0.679229
H71	H	1.628811	-0.917432	0.641351
H72	H	1.640463	-0.387452	0.907215
C73	C	1.321998	-0.907216	0.549607
N74	N	1.257326	-0.876063	0.605528
