data_functionalizedCrystal
_audit_creation_method	'MofGen! by Chris Wilmer'
_symmetry_space_group_name_H-M	'P1'
_symmetry_Int_Tables_number	1
_symmetry_cell_setting	triclinic
loop_
_symmetry_equiv_pos_as_xyz
  x,y,z
_cell_length_a	9.065218
_cell_length_b	9.065218
_cell_length_c	10.868271
_cell_angle_alpha	90.002492
_cell_angle_beta	90.003238
_cell_angle_gamma	94.984115
loop_
_atom_site_label
_atom_site_type_symbol
_atom_site_fract_x
_atom_site_fract_y
_atom_site_fract_z
O1	O	1.960382	-0.216358	-0.102351
O2	O	2.460382	0.283642	0.397649
O3	O	1.531098	-0.234104	-0.102346
O4	O	2.031098	0.265896	0.397654
O5	O	1.754613	-0.010588	-0.102346
O6	O	2.254613	0.489412	0.397654
O7	O	1.736867	-0.439873	-0.102351
O8	O	2.236867	0.060127	0.397649
O9	O	1.754632	-0.010580	0.102299
O10	O	2.254632	0.489420	0.602299
O11	O	1.531116	-0.234095	0.102299
O12	O	2.031116	0.265905	0.602299
O13	O	1.960401	-0.216349	0.102293
O14	O	2.460401	0.283651	0.602293
Zn15	Zn	1.745762	-0.225221	0.134788
Zn16	Zn	2.245762	0.274779	0.634788
Zn17	Zn	1.745737	-0.225232	-0.134840
Zn18	Zn	2.245737	0.274768	0.365160
O19	O	1.736885	-0.439864	0.102294
O20	O	2.236885	0.060136	0.602294
C21	C	1.476120	-0.232394	-0.000023
C22	C	1.976120	0.267606	0.499977
C23	C	1.312277	-0.227294	-0.000021
C24	C	1.812277	0.272706	0.499979
N25	N	1.745721	-0.225229	-0.318854
N26	N	2.245721	0.274771	0.181146
C27	C	1.752917	0.044403	-0.000026
C28	C	2.252917	0.544403	0.499974
C29	C	1.747817	0.208245	-0.000032
C30	C	2.247817	0.708245	0.499968
C31	C	2.015378	-0.218059	-0.000032
C32	C	2.515378	0.281941	0.499968
C33	C	2.179221	-0.223158	-0.000042
C34	C	2.679221	0.276842	0.499958
C35	C	1.738582	-0.494855	-0.000029
C36	C	2.238582	0.005145	0.499971
C37	C	1.743681	-0.658698	-0.000032
C38	C	2.243681	-0.158698	0.499968
C39	C	1.745731	-0.225229	-0.430192
C40	C	2.245731	0.274771	0.069808
C41	C	1.745759	-0.225224	-0.569869
C42	C	2.245759	0.274776	-0.069869
N43	N	1.745789	-0.225212	0.318802
N44	N	2.245789	0.274788	0.818802
