data_functionalizedCrystal
_audit_creation_method	'MofGen! by Chris Wilmer'
_symmetry_space_group_name_H-M	'P1'
_symmetry_Int_Tables_number	1
_symmetry_cell_setting	triclinic
loop_
_symmetry_equiv_pos_as_xyz
  x,y,z
_cell_length_a	14.971486
_cell_length_b	10.654545
_cell_length_c	9.730223
_cell_angle_alpha	89.997167
_cell_angle_beta	89.998890
_cell_angle_gamma	95.951396
loop_
_atom_site_label
_atom_site_type_symbol
_atom_site_fract_x
_atom_site_fract_y
_atom_site_fract_z
O1	O	-0.125612	1.666495	-0.114258
O2	O	-0.137585	1.300887	-0.114262
O3	O	-0.001452	1.493490	-0.114270
O4	O	-0.261745	1.473892	-0.114250
O5	O	-0.001448	1.493478	0.114310
O6	O	-0.137581	1.300875	0.114318
O7	O	-0.125608	1.666482	0.114322
Zn8	Zn	-0.131594	1.483677	0.150612
Zn9	Zn	-0.131599	1.483693	-0.150552
O10	O	-0.261742	1.473879	0.114330
C11	C	-0.136705	1.254092	0.000027
C12	C	-0.134077	1.114677	0.000025
C13	C	-0.132838	1.049179	0.124625
C14	C	-0.130354	0.918186	0.124625
C15	C	-0.130352	0.918200	-0.124586
C16	C	-0.132830	1.049192	-0.124584
C17	C	-0.295073	1.474762	0.000043
C18	C	-0.394384	1.477389	0.000050
C19	C	-0.450995	1.364240	0.000048
C20	C	-0.544308	1.366715	0.000029
C21	C	-0.581008	1.482341	0.000023
C22	C	-0.524390	1.595499	0.000022
C23	C	-0.431079	1.593022	0.000030
C24	C	-0.718881	1.600653	0.000007
C25	C	-0.812198	1.603130	0.000001
C26	C	-0.832110	1.374346	0.000006
C27	C	-0.738799	1.371869	0.000014
C28	C	-0.682187	1.485028	0.000016
C29	C	0.031880	1.492608	0.000015
C30	C	0.131191	1.489981	-0.000002
C31	C	-0.126488	1.713277	0.000030
C32	C	-0.129116	1.852693	0.000023
N33	N	-0.131590	1.483675	0.356149
N34	N	-0.131596	1.483705	-0.356088
C35	C	-0.071336	1.568988	0.428071
C36	C	-0.071336	1.569001	0.571954
C37	C	-0.191853	1.398382	0.571979
C38	C	-0.191848	1.398365	0.428099
H39	H	-0.133836	1.102522	-0.226054
H40	H	-0.240914	1.328886	0.369536
O41	O	-0.012713	1.651894	0.358390
C42	C	0.106792	1.821169	0.373558
C43	C	0.040459	1.727328	0.452636
H44	H	0.149786	1.882199	0.449721
H45	H	0.151899	1.766946	0.306249
H46	H	0.067745	1.883894	0.306143
H47	H	0.079433	1.664578	0.520125
H48	H	-0.004648	1.781629	0.519858
H49	H	-0.129346	0.864864	0.226086
H50	H	-0.384987	1.685160	0.000027
O51	O	-0.250296	1.315349	0.641817
C52	C	-0.301295	1.097074	0.685827
C53	C	-0.235041	1.190969	0.606678
H54	H	-0.288997	0.996493	0.657424
H55	H	-0.290949	1.111634	0.801033
H56	H	-0.373039	1.113595	0.657547
H57	H	-0.163271	1.174506	0.634843
H58	H	-0.245466	1.176386	0.491491
H59	H	-0.133854	1.102493	0.226090
O60	O	-0.847888	1.715419	0.000225
C61	C	-0.941727	1.850971	0.118572
C62	C	-0.901354	1.723771	0.118509
H63	H	-0.984978	1.857754	0.214180
H64	H	-0.885270	1.931468	0.118650
H65	H	-0.984873	1.857823	0.022864
H66	H	-0.858217	1.716796	0.214201
H67	H	-0.957854	1.643335	0.118360
H68	H	-0.129338	0.864866	-0.226038
H69	H	-0.421122	1.270084	0.000069
H70	H	-0.878208	1.282208	0.000010
H71	H	-0.022271	1.638469	0.630509
O72	O	-0.599171	1.256685	0.000099
C73	C	-0.609073	1.029502	0.000047
C74	C	-0.546839	1.154022	-0.000001
H75	H	-0.566788	0.946467	-0.000063
H76	H	-0.653245	1.024859	0.095726
H77	H	-0.653271	1.025005	-0.095595
H78	H	-0.502586	1.158603	0.095576
H79	H	-0.502728	1.158613	-0.095743
O80	O	-0.664015	1.710690	0.000067
C81	C	-0.654107	1.937874	-0.000013
C82	C	-0.716345	1.813357	-0.000056
H83	H	-0.696391	2.020911	-0.000142
H84	H	-0.609945	1.942515	0.095673
H85	H	-0.609900	1.942369	-0.095647
H86	H	-0.760608	1.808778	0.095513
H87	H	-0.760446	1.808767	-0.095806
H88	H	-0.554279	1.689643	0.000019
H89	H	-0.708921	1.277717	0.000026
