data_functionalizedCrystal
_audit_creation_method	'MofGen! by Chris Wilmer'
_symmetry_space_group_name_H-M	'P1'
_symmetry_Int_Tables_number	1
_symmetry_cell_setting	triclinic
loop_
_symmetry_equiv_pos_as_xyz
  x,y,z
_cell_length_a	12.759401
_cell_length_b	16.625545
_cell_length_c	12.759393
_cell_angle_alpha	90.032830
_cell_angle_beta	90.019802
_cell_angle_gamma	90.024644
loop_
_atom_site_label
_atom_site_type_symbol
_atom_site_fract_x
_atom_site_fract_y
_atom_site_fract_z
Zn1	Zn	1.606187	-0.320982	0.593971
Zn2	Zn	1.606045	-0.455837	0.418284
Zn3	Zn	1.430486	-0.321019	0.418310
Zn4	Zn	1.430444	-0.455774	0.593925
O5	O	1.518291	-0.388403	0.506122
O6	O	1.753189	-0.338881	0.570675
O7	O	1.582714	-0.437994	0.271266
O8	O	1.453870	-0.208182	0.441642
O9	O	1.753085	-0.437958	0.441598
O10	O	1.582957	-0.208155	0.570699
O11	O	1.453732	-0.338945	0.271285
O12	O	1.283459	-0.338885	0.441597
O13	O	1.453799	-0.437852	0.740952
O14	O	1.283429	-0.437889	0.570620
O15	O	1.582917	-0.338821	0.740986
O16	O	1.582674	-0.568661	0.441553
O17	O	1.453661	-0.568615	0.570596
C18	C	1.245323	-0.388384	0.506107
C19	C	1.128547	-0.388396	0.506125
C20	C	0.964002	-0.336918	0.573447
C21	C	1.073727	-0.336903	0.573440
C22	C	1.073637	-0.439914	0.438821
C23	C	0.963915	-0.439933	0.438834
C24	C	1.518176	-0.597894	0.506089
C25	C	1.518224	-0.687515	0.506110
C26	C	1.518264	-0.760298	0.506131
C27	C	1.518326	-0.851606	0.506155
C28	C	1.518380	-0.924382	0.506168
C29	C	1.518440	-1.015697	0.506189
C30	C	1.792324	-0.388423	0.506139
C31	C	1.909100	-0.388431	0.506145
C32	C	1.518369	-0.388326	0.780156
C33	C	1.518403	-0.388293	0.896933
C34	C	1.518434	-0.178094	0.506179
C35	C	1.518495	-0.088473	0.506203
C36	C	1.518273	-0.388422	0.233155
C37	C	1.518443	-0.388228	0.116379
C38	C	1.585639	-0.336719	0.951814
C39	C	1.585657	-0.336684	1.061538
C40	C	1.451199	-0.439804	1.061490
C41	C	1.451177	-0.439834	0.951768
H42	H	1.118280	-0.481844	0.384017
C43	C	1.378134	-0.495922	0.892363
C44	C	1.319292	-0.541074	0.963867
C45	C	1.252006	-0.592753	0.909182
H46	H	1.332279	-0.465175	0.849559
H47	H	1.418270	-0.531111	0.849579
H48	H	1.279160	-0.505889	1.006634
H49	H	1.365119	-0.571838	1.006674
H50	H	1.292142	-0.627942	0.866397
H51	H	1.206158	-0.561999	0.866379
H52	H	1.212081	-0.623400	0.957689
H53	H	1.640406	-0.294686	1.106218
H54	H	0.919212	-0.481886	0.384029
H55	H	1.396468	-0.481769	1.106150
C56	C	0.904678	-0.280980	0.646649
C57	C	0.976250	-0.235882	0.705608
C58	C	0.921642	-0.184352	0.773068
H59	H	0.861861	-0.245746	0.606668
H60	H	0.861912	-0.311859	0.692415
H61	H	1.018997	-0.205006	0.659848
H62	H	1.019069	-0.271095	0.745611
H63	H	0.878877	-0.215231	0.818834
H64	H	0.878827	-0.149123	0.733078
H65	H	0.970195	-0.153752	0.813087
C66	C	1.133389	-0.281106	0.646638
C67	C	1.196374	-0.326811	0.713889
C68	C	1.251339	-0.275439	0.781348
H69	H	1.176272	-0.245916	0.606648
H70	H	1.085058	-0.250453	0.686787
H71	H	1.244700	-0.357450	0.673745
H72	H	1.153518	-0.361999	0.753902
H73	H	1.203008	-0.244786	0.821496
H74	H	1.294215	-0.240250	0.741349
H75	H	1.294073	-0.306442	0.826992
H76	H	1.640376	-0.294749	0.907171
