data_functionalizedCrystal
_audit_creation_method	'MofGen! by Chris Wilmer'
_symmetry_space_group_name_H-M	'P1'
_symmetry_Int_Tables_number	1
_symmetry_cell_setting	triclinic
loop_
_symmetry_equiv_pos_as_xyz
  x,y,z
_cell_length_a	27.732048
_cell_length_b	27.732048
_cell_length_c	11.804365
_cell_angle_alpha	101.725897
_cell_angle_beta	78.257132
_cell_angle_gamma	82.642655
loop_
_atom_site_label
_atom_site_type_symbol
_atom_site_fract_x
_atom_site_fract_y
_atom_site_fract_z
O1	O	0.650751	0.047698	-0.098882
O2	O	0.509962	0.056440	-0.098919
O3	O	0.584727	-0.018325	-0.098877
O4	O	0.575986	0.122463	-0.098924
O5	O	0.565044	0.001338	0.099168
O6	O	0.490279	0.076103	0.099125
O7	O	0.631069	0.067361	0.099163
Cu8	Cu	0.558877	0.073528	0.117227
Cu9	Cu	0.582154	0.050274	-0.116983
O10	O	0.556303	0.142127	0.099120
C11	C	0.482114	0.066088	0.000098
C12	C	0.428460	0.065533	0.000085
C13	C	0.089641	0.106241	0.000123
C14	C	-0.112019	0.104191	0.000134
O15	O	-0.143279	0.141416	0.000173
N16	N	-0.131144	0.059857	0.000147
C17	C	-0.099851	0.016033	0.000165
O18	O	-0.120747	-0.021721	0.000188
C19	C	0.101807	0.018085	0.000162
C20	C	0.120931	0.062420	0.000137
C21	C	0.108765	0.150573	0.000099
C22	C	0.159178	0.151084	0.000090
C23	C	0.190467	0.107264	0.000104
C24	C	0.171344	0.062932	0.000128
C25	C	0.133098	-0.025738	0.000189
C26	C	0.183516	-0.025221	0.000191
C27	C	0.202639	0.019115	0.000166
C28	C	0.253046	0.019622	0.000133
N29	N	0.272171	0.063956	0.000120
C30	C	0.240881	0.107777	0.000106
C31	C	-0.205726	0.014959	0.000164
C32	C	-0.256140	0.014446	0.000163
C33	C	-0.268304	0.102604	0.000134
C34	C	-0.217888	0.103116	0.000127
C35	C	-0.186600	0.059293	0.000151
C36	C	0.346753	0.108847	0.000085
C37	C	0.397171	0.109354	0.000071
C38	C	0.409331	0.021197	0.000106
C39	C	0.358917	0.020689	0.000114
C40	C	0.327629	0.064519	0.000107
O41	O	0.284332	-0.017581	0.000107
O42	O	0.261784	0.145528	0.000109
C43	C	0.039229	0.105730	0.000132
C44	C	0.020105	0.061397	0.000156
C45	C	0.051394	0.017577	0.000170
C46	C	-0.030309	0.060884	0.000154
C47	C	-0.061599	0.104705	0.000140
C48	C	-0.042474	0.149039	0.000127
C49	C	0.007939	0.149550	0.000118
C50	C	0.032269	-0.026757	0.000183
C51	C	-0.018144	-0.027265	0.000191
C52	C	-0.049433	0.016556	0.000177
C53	C	0.574702	-0.026500	0.000149
C54	C	0.574148	-0.080154	0.000159
C55	C	0.614857	-0.418974	0.000108
C56	C	0.612807	-0.620636	0.000091
O57	O	0.650032	-0.651895	0.000049
N58	N	0.568473	-0.639760	0.000081
C59	C	0.524649	-0.608467	0.000066
O60	O	0.486894	-0.629362	0.000044
C61	C	0.526700	-0.406808	0.000075
C62	C	0.571035	-0.387685	0.000098
C63	C	0.659189	-0.399851	0.000130
C64	C	0.659700	-0.349438	0.000141
C65	C	0.615879	-0.318148	0.000130
C66	C	0.571547	-0.337272	0.000108
C67	C	0.482877	-0.375516	0.000052
C68	C	0.483394	-0.325099	0.000051
C69	C	0.527730	-0.305976	0.000074
C70	C	0.528237	-0.255569	0.000108
N71	N	0.572571	-0.236444	0.000119
C72	C	0.616392	-0.267734	0.000130
C73	C	0.523575	-0.714341	0.000064
C74	C	0.523062	-0.764756	0.000064
C75	C	0.611221	-0.776921	0.000087
C76	C	0.611733	-0.726505	0.000095
C77	C	0.567909	-0.695217	0.000075
C78	C	0.617462	-0.161862	0.000154
C79	C	0.617969	-0.111444	0.000169
C80	C	0.529811	-0.099284	0.000140
C81	C	0.529303	-0.149697	0.000131
C82	C	0.573133	-0.180986	0.000133
O83	O	0.491033	-0.224282	0.000137
O84	O	0.654144	-0.246832	0.000125
C85	C	0.614345	-0.469387	0.000098
C86	C	0.570013	-0.488511	0.000076
C87	C	0.526192	-0.457221	0.000065
C88	C	0.569500	-0.538925	0.000076
C89	C	0.613321	-0.570215	0.000087
C90	C	0.657655	-0.551090	0.000098
C91	C	0.658167	-0.500677	0.000108
C92	C	0.481858	-0.476346	0.000055
C93	C	0.481350	-0.526759	0.000045
C94	C	0.525171	-0.558049	0.000056
C95	C	0.658917	0.057714	0.000143
C96	C	0.712571	0.058267	0.000148
C97	C	0.566329	0.150301	0.000092
C98	C	0.566883	0.203955	0.000075
N99	N	0.542508	0.089883	0.281959
N100	N	0.598526	0.033915	-0.281715
C101	C	0.637832	-0.005370	0.655962
C102	C	0.650214	-0.017744	0.531307
C103	C	0.623289	0.009161	0.468964
C104	C	0.583979	0.048444	0.531287
C105	C	0.571598	0.060823	0.655954
C106	C	0.557055	0.075354	0.468956
C107	C	0.517745	0.114636	0.531280
C108	C	0.505367	0.127013	0.655935
C109	C	0.532292	0.100107	0.718278
C110	C	0.569436	0.062975	0.344290
C111	C	0.503202	0.129167	0.344282
C112	C	0.490820	0.141542	0.468937
H113	H	-0.033708	-0.063372	0.000202
C114	C	0.190472	-0.112414	0.000221
C115	C	0.217908	-0.073395	0.000205
H116	H	0.211705	-0.142154	0.000219
H117	H	0.163698	-0.103922	0.069284
H118	H	0.177412	-0.117632	-0.068842
H119	H	0.230965	-0.068175	0.069273
H120	H	0.244690	-0.081888	-0.068865
H121	H	0.487887	-0.688870	0.000047
H122	H	0.646902	-0.802406	0.000096
C123	C	0.319386	-0.041141	-0.101666
C124	C	0.337894	-0.028045	0.000130
H125	H	0.306411	-0.071228	-0.101648
H126	H	0.293536	-0.015117	-0.101658
H127	H	0.345662	-0.045966	-0.170728
H128	H	0.311617	-0.023216	0.069193
H129	H	0.363746	-0.054074	0.000134
H130	H	0.458813	0.173527	0.519696
H131	H	0.321282	0.144538	0.000084
H132	H	0.446775	-0.391078	0.000026
H133	H	0.654074	-0.095877	0.000191
H134	H	0.659754	-0.027270	0.706730
H135	H	0.481278	0.151077	0.293523
C136	C	0.677081	-0.044607	0.290403
C137	C	0.636894	-0.004444	0.331941
H138	H	0.685478	-0.053010	0.205807
H139	H	0.705121	-0.035399	0.318585
H140	H	0.667894	-0.072653	0.318631
H141	H	0.646082	0.023603	0.303720
H142	H	0.608849	-0.013650	0.303746
C143	C	0.441395	-0.422697	-0.101756
C144	C	0.433684	-0.441958	0.000046
H145	H	0.411651	-0.401471	-0.101759
H146	H	0.467863	-0.404087	-0.101737
H147	H	0.449894	-0.449473	-0.170815
H148	H	0.425189	-0.415182	0.069105
H149	H	0.407208	-0.460568	0.000037
C150	C	0.380074	0.196446	0.000050
C151	C	0.418189	0.158092	0.000052
H152	H	0.393049	0.226534	0.000048
H153	H	0.367524	0.187556	-0.069005
H154	H	0.353803	0.201264	0.069121
H155	H	0.444458	0.153271	-0.069024
H156	H	0.430747	0.166984	0.069114
H157	H	0.682220	-0.049727	0.480568
C158	C	0.142072	0.238172	0.000082
C159	C	0.180191	0.199822	0.000084
H160	H	0.155043	0.268263	0.000090
H161	H	0.129526	0.229282	-0.068978
H162	H	0.115800	0.242985	0.069148
H163	H	0.206462	0.195007	-0.068987
H164	H	0.192746	0.208714	0.069151
H165	H	0.083293	0.186260	0.000092
C166	C	0.719890	-0.473700	-0.101663
C167	C	0.707364	-0.434238	0.000142
H168	H	0.749635	-0.494924	-0.101651
H169	H	0.693421	-0.492310	-0.101664
H170	H	0.725117	-0.460628	-0.170719
H171	H	0.702133	-0.447310	0.069199
H172	H	0.733838	-0.415626	0.000154
H173	H	0.522209	0.110181	0.819782
H174	H	0.473362	0.159002	0.706679
H175	H	0.486958	-0.780319	0.000066
H176	H	0.023504	0.185653	0.000099
C177	C	-0.234988	0.190203	0.000100
C178	C	-0.196872	0.151852	0.000113
H179	H	-0.222015	0.220292	0.000101
H180	H	-0.247534	0.181311	-0.068961
H181	H	-0.261261	0.195020	0.069165
H182	H	-0.170600	0.147032	-0.068956
H183	H	-0.184319	0.160746	0.069181
H184	H	-0.293789	0.138285	0.000123
C185	C	0.492016	-0.017150	0.000131
C186	C	0.443729	-0.026968	0.000131
H187	H	0.513251	-0.046885	0.000161
H188	H	0.504636	-0.005819	-0.068941
H189	H	0.490909	0.007908	0.069185
H190	H	0.444836	-0.052024	-0.068928
H191	H	0.431107	-0.038306	0.069210
H192	H	0.695803	-0.333873	0.000155
C193	C	-0.125162	0.187390	0.000131
C194	C	-0.076874	0.197208	0.000116
H195	H	-0.146401	0.217128	0.000136
H196	H	-0.124060	0.162342	-0.068922
H197	H	-0.137775	0.176049	0.069204
H198	H	-0.064260	0.208546	-0.068961
H199	H	-0.077974	0.222264	0.069176
H200	H	0.493198	-0.165264	0.000145
H201	H	0.447707	-0.299626	0.000033
H202	H	0.445243	-0.542323	0.000037
H203	H	0.694269	-0.485112	0.000127
H204	H	-0.271703	-0.021658	0.000164
C205	C	0.039220	-0.113947	0.000199
C206	C	0.066659	-0.074930	0.000188
H207	H	0.060452	-0.143690	0.000189
H208	H	0.012447	-0.105456	0.069262
H209	H	0.026159	-0.119161	-0.068863
H210	H	0.079717	-0.069714	0.069255
H211	H	0.093441	-0.083423	-0.068882
H212	H	0.117538	-0.061841	0.000210
C213	C	-0.198775	-0.072234	0.000180
C214	C	-0.171336	-0.033217	0.000177
H215	H	-0.177544	-0.101976	0.000177
H216	H	-0.225550	-0.063742	0.069239
H217	H	-0.211833	-0.077448	-0.068887
H218	H	-0.158282	-0.028000	0.069249
H219	H	-0.144552	-0.041710	-0.068889
H220	H	0.653153	-0.187333	0.000151
H221	H	0.693335	-0.576574	0.000112
H222	H	0.601442	0.030991	0.293557
C223	C	0.698821	-0.743606	0.000110
C224	C	0.660469	-0.705489	0.000102
H225	H	0.728910	-0.730634	0.000103
H226	H	0.689923	-0.756159	0.069172
H227	H	0.703643	-0.769871	-0.068954
H228	H	0.655644	-0.679225	0.069171
H229	H	0.669369	-0.692929	-0.068967
C230	C	0.442619	-0.092312	0.000099
C231	C	0.481645	-0.064885	0.000120
H232	H	0.412884	-0.071074	0.000086
H233	H	0.451118	-0.119081	-0.068958
H234	H	0.437385	-0.105375	0.069168
H235	H	0.486882	-0.051825	-0.068953
H236	H	0.473145	-0.038107	0.069184
