data_functionalizedCrystal
_audit_creation_method	'MofGen! by Chris Wilmer'
_symmetry_space_group_name_H-M	'P1'
_symmetry_Int_Tables_number	1
_symmetry_cell_setting	triclinic
loop_
_symmetry_equiv_pos_as_xyz
  x,y,z
_cell_length_a	19.288874
_cell_length_b	14.971486
_cell_length_c	17.766277
_cell_angle_alpha	89.995240
_cell_angle_beta	89.994527
_cell_angle_gamma	83.377177
loop_
_atom_site_label
_atom_site_type_symbol
_atom_site_fract_x
_atom_site_fract_y
_atom_site_fract_z
O1	O	0.090515	1.186466	-0.062509
O2	O	0.101355	0.926008	-0.062529
O3	O	-0.005171	1.063759	-0.062512
O4	O	0.197040	1.048716	-0.062525
O5	O	-0.005173	1.063733	0.062676
O6	O	0.101352	0.925982	0.062659
O7	O	0.090512	1.186441	0.062680
Cu8	Cu	0.095932	1.056209	0.074100
Cu9	Cu	0.095935	1.056239	-0.073950
O10	O	0.197038	1.048690	0.062663
C11	C	0.100869	0.892673	0.000063
C12	C	0.099416	0.793384	0.000055
C13	C	-0.031050	1.063260	0.000082
C14	C	-0.108158	1.061803	0.000081
C15	C	0.161996	0.735823	0.000052
C16	C	0.160627	0.642531	0.000063
C17	C	0.096677	0.606801	0.000072
C18	C	0.034091	0.664370	0.000077
C19	C	0.035461	0.757660	0.000071
C20	C	0.031241	0.469922	0.000088
C21	C	0.029871	0.376626	0.000092
C22	C	0.156407	0.354793	0.000080
C23	C	0.157777	0.448084	0.000074
C24	C	0.095191	0.505645	0.000078
C25	C	-0.663762	1.051325	0.068302
C26	C	-0.591310	1.052685	0.068307
C27	C	-0.555076	1.053383	0.000067
C28	C	-0.591297	1.052698	-0.068181
C29	C	-0.663746	1.051329	-0.068184
C30	C	-0.445565	1.107949	-0.052207
C31	C	-0.373117	1.109323	-0.052202
C32	C	-0.331616	1.057600	0.000071
C33	C	-0.362572	1.004514	0.052352
C34	C	-0.435022	1.003146	0.052350
C35	C	-0.476516	1.054866	0.000062
C36	C	-0.216842	1.059753	0.068320
C37	C	-0.144388	1.061107	0.068321
C38	C	-0.144376	1.061129	-0.068169
C39	C	-0.216828	1.059766	-0.068168
C40	C	-0.253057	1.059082	0.000079
C41	C	0.222917	1.049188	0.000067
C42	C	0.300025	1.050646	0.000063
C43	C	0.090998	1.219776	0.000087
C44	C	0.092451	1.319065	0.000089
N45	N	0.095929	1.056195	0.178231
C46	C	0.138130	1.110265	0.217613
C47	C	0.138128	1.110278	0.296415
C48	C	0.095934	1.056205	0.335831
C49	C	0.053726	1.002131	0.296439
C50	C	0.053723	1.002126	0.217639
C51	C	0.093915	0.975576	0.460684
C52	C	0.093923	0.975579	0.539483
C53	C	0.095938	1.056222	0.578878
C54	C	0.097960	1.136863	0.539463
C55	C	0.097958	1.136857	0.460663
C56	C	0.095932	1.056205	0.421277
C57	C	0.138138	1.110311	0.703706
C58	C	0.138132	1.110327	0.782509
C59	C	0.053734	1.002171	0.782532
C60	C	0.053736	1.002164	0.703730
C61	C	0.095942	1.056233	0.664322
N62	N	0.095937	1.056254	0.821920
H63	H	0.211587	0.595668	0.000060
H64	H	-0.015498	0.804526	0.000073
H65	H	0.019358	0.958094	0.185575
C66	C	-0.256665	1.059029	-0.143232
H67	H	-0.224711	1.059646	-0.183874
H68	H	-0.279676	1.006349	-0.146074
H69	H	-0.290179	1.110652	-0.146066
C70	C	-0.339069	1.167720	-0.109701
H71	H	-0.289978	1.161139	-0.102206
H72	H	-0.349078	1.149084	-0.159244
H73	H	-0.357140	1.228975	-0.103112
H74	H	-0.246340	1.059188	0.123890
H75	H	-0.561818	1.053222	0.123877
H76	H	0.172505	1.154338	0.671618
C77	C	-0.037602	0.533238	0.000083
H78	H	-0.075885	0.498600	0.000079
H79	H	-0.039705	0.570091	0.043733
H80	H	-0.039690	0.570078	-0.043584
C81	C	-0.469071	0.944747	0.109846
H82	H	-0.433982	0.914130	0.140977
H83	H	-0.501144	0.981974	0.140081
H84	H	-0.493084	0.902088	0.083945
H85	H	-0.022203	0.347538	0.000101
H86	H	-0.328783	0.962399	0.094920
C87	C	0.184545	1.169746	0.174264
H88	H	0.178504	1.161997	0.121692
H89	H	0.171720	1.230994	0.187176
H90	H	0.232053	1.152930	0.187172
H91	H	-0.561789	1.053263	-0.123742
C92	C	-0.104553	1.061856	0.143389
H93	H	-0.136510	1.061262	0.184030
H94	H	-0.071039	1.010241	0.146231
H95	H	-0.081544	1.114544	0.146223
C96	C	-0.104527	1.061901	-0.143231
H97	H	-0.056192	1.062820	-0.133457
H98	H	-0.111145	1.009536	-0.171277
H99	H	-0.121652	1.113839	-0.171263
H100	H	-0.479350	1.150064	-0.094783
H101	H	0.099604	1.202529	0.571537
H102	H	-0.693255	1.050767	0.123874
C103	C	-0.703584	1.050597	-0.143250
H104	H	-0.671630	1.051213	-0.183893
H105	H	-0.726600	0.997921	-0.146095
H106	H	-0.737094	1.102224	-0.146080
H107	H	0.092280	0.909916	0.571568
C108	C	0.184557	1.169749	0.339745
H109	H	0.209696	1.201944	0.304988
H110	H	0.156154	1.211031	0.370489
H111	H	0.216476	1.132952	0.370479
H112	H	0.099603	1.202518	0.428575
C113	C	0.184555	1.169803	0.825833
H114	H	0.178508	1.162071	0.878409
H115	H	0.232057	1.152983	0.812916
H116	H	0.171730	1.231056	0.812913
C117	C	0.228120	0.487385	0.000066
H118	H	0.265198	0.439744	0.000072
H119	H	0.231285	0.523327	-0.043591
H120	H	0.231279	0.523321	0.043726
C121	C	0.007322	0.942691	0.825881
H122	H	0.013369	0.950433	0.878453
H123	H	-0.040182	0.959498	0.812971
H124	H	0.020155	0.881438	0.812973
H125	H	0.019375	0.958130	0.671665
C126	C	0.225250	0.291480	0.000078
H127	H	0.215277	0.230802	0.000091
H128	H	0.251467	0.302282	-0.043584
H129	H	0.251470	0.302284	0.043734
H130	H	0.092279	0.909901	0.428616
H131	H	0.214072	0.764906	0.000044
H132	H	0.019371	0.958105	0.328537
H133	H	-0.017978	0.635271	0.000095
