data_functionalizedCrystal
_audit_creation_method	'MofGen! by Chris Wilmer'
_symmetry_space_group_name_H-M	'P1'
_symmetry_Int_Tables_number	1
_symmetry_cell_setting	triclinic
loop_
_symmetry_equiv_pos_as_xyz
  x,y,z
_cell_length_a	10.686220
_cell_length_b	12.594516
_cell_length_c	10.686551
_cell_angle_alpha	94.405296
_cell_angle_beta	89.691918
_cell_angle_gamma	94.393406
loop_
_atom_site_label
_atom_site_type_symbol
_atom_site_fract_x
_atom_site_fract_y
_atom_site_fract_z
Zn1	Zn	1.972305	-0.259490	0.562388
Zn2	Zn	1.956088	-0.452139	0.352631
Zn3	Zn	1.746425	-0.286718	0.368706
Zn4	Zn	1.762518	-0.449982	0.578409
O5	O	1.859334	-0.362082	0.465533
O6	O	2.145695	-0.274553	0.521131
O7	O	1.914754	-0.442493	0.179218
O8	O	1.776440	-0.134155	0.394421
O9	O	2.133780	-0.416091	0.367024
O10	O	1.942393	-0.114151	0.536718
O11	O	1.760715	-0.320959	0.191028
O12	O	1.573019	-0.318867	0.409955
O13	O	1.803868	-0.412415	0.751829
O14	O	1.584842	-0.438817	0.564023
O15	O	1.957998	-0.272462	0.740059
O16	O	1.930359	-0.600803	0.382558
O17	O	1.788144	-0.599219	0.548436
C18	C	1.533414	-0.381563	0.490473
C19	C	1.393987	-0.389921	0.501172
C20	C	1.859274	-0.638628	0.465516
C21	C	1.859367	-0.756926	0.465542
C22	C	1.936821	-0.826990	0.375403
C23	C	1.976266	-0.887866	0.487555
C24	C	1.820084	-0.906834	0.353451
C25	C	1.898875	-0.816236	0.577749
C26	C	1.742633	-0.835207	0.443572
C27	C	1.782041	-0.896048	0.555806
C28	C	2.186526	-0.342526	0.440497
C29	C	2.325956	-0.334192	0.429829
C30	C	1.884537	-0.339161	0.792733
C31	C	1.895277	-0.329393	0.932167
C32	C	1.859430	-0.084452	0.465576
C33	C	1.859471	0.033857	0.465594
C34	C	1.834301	-0.384833	0.139601
C35	C	1.823804	-0.394287	0.000150
H36	H	1.345559	-0.444037	0.570434
H37	H	1.374378	-0.280087	0.360563
N38	N	2.023593	-0.786766	0.274510
H39	H	2.111803	-0.805660	0.291297
H40	H	2.022227	-0.706658	0.274730
N41	N	1.943090	-0.764133	0.703373
H42	H	1.942812	-0.684013	0.702567
H43	H	2.031012	-0.783749	0.720125
H44	H	2.075031	-0.911296	0.506168
N45	N	1.775993	-0.959094	0.227858
H46	H	1.697771	-1.007548	0.239799
H47	H	1.844025	-1.002387	0.189124
N48	N	1.987215	-0.245892	0.996375
H49	H	1.966021	-0.172581	0.975140
H50	H	2.075073	-0.258728	0.966755
H51	H	1.716591	-0.926198	0.632138
H52	H	1.643894	-0.811755	0.424922
H53	H	1.754399	-0.457321	0.951682
