data_functionalizedCrystal
_audit_creation_method	'MofGen! by Chris Wilmer'
_symmetry_space_group_name_H-M	'P1'
_symmetry_Int_Tables_number	1
_symmetry_cell_setting	triclinic
loop_
_symmetry_equiv_pos_as_xyz
  x,y,z
_cell_length_a	19.188930
_cell_length_b	14.044191
_cell_length_c	13.101039
_cell_angle_alpha	86.337551
_cell_angle_beta	93.345801
_cell_angle_gamma	88.168279
loop_
_atom_site_label
_atom_site_type_symbol
_atom_site_fract_x
_atom_site_fract_y
_atom_site_fract_z
O1	O	0.164780	1.262238	-0.085186
O2	O	0.158702	0.986294	-0.085198
O3	O	0.060600	1.132228	-0.085172
O4	O	0.262881	1.116304	-0.085213
O5	O	0.067651	1.121757	0.085256
O6	O	0.165753	0.975824	0.085229
O7	O	0.171831	1.251767	0.085242
Zn8	Zn	0.169912	1.112133	0.112295
Zn9	Zn	0.160621	1.125929	-0.112251
O10	O	0.269933	1.105834	0.085215
C11	C	0.159568	0.945756	0.000014
C12	C	0.151637	0.840563	0.000010
C13	C	0.193385	0.590103	0.000012
C14	C	0.137150	0.647965	0.000022
C15	C	0.145213	0.755136	0.000016
C16	C	0.185324	0.482922	0.000019
C17	C	0.038081	1.126477	0.000045
C18	C	-0.039523	1.124928	0.000054
C19	C	-0.078919	1.210558	0.000062
C20	C	-0.151837	1.209104	0.000046
C21	C	-0.185356	1.122015	0.000041
C22	C	-0.145951	1.036374	0.000027
C23	C	-0.073034	1.037831	0.000033
N24	N	-0.295258	1.051882	0.058038
N25	N	-0.364526	1.050504	0.058034
C26	C	-0.405049	1.117621	0.000020
N27	N	-0.373687	1.186182	-0.057977
N28	N	-0.304413	1.187562	-0.057969
C29	C	-0.264421	1.120426	0.000034
C30	C	-0.523512	1.201681	0.000010
C31	C	-0.596432	1.200224	-0.000013
C32	C	-0.590543	1.027491	-0.000022
C33	C	-0.517625	1.028951	-0.000009
C34	C	-0.484114	1.116048	0.000011
C35	C	0.292451	1.111585	-0.000004
C36	C	0.370055	1.113134	-0.000019
C37	C	0.170964	1.292306	0.000027
C38	C	0.178895	1.397499	0.000024
N39	N	0.176252	1.102725	0.265541
N40	N	0.154275	1.135344	-0.265498
C41	C	0.184885	1.089925	0.474582
C42	C	0.145645	1.148141	0.525468
C43	C	0.150448	1.141019	0.641785
C44	C	0.180082	1.097046	0.358254
H45	H	-0.183920	1.278836	0.000049
C46	C	-0.030162	0.944919	0.000189
C47	C	0.015497	0.935333	0.087863
C48	C	0.055010	0.849760	0.088036
H49	H	-0.060480	0.892759	0.000233
H50	H	-0.004003	0.945542	-0.059208
H51	H	-0.010660	0.934701	0.147245
H52	H	0.045829	0.987472	0.087838
H53	H	0.081169	0.850384	0.028639
H54	H	0.024687	0.797607	0.088077
H55	H	0.085999	0.843249	0.147517
C56	C	0.064870	0.606742	0.000239
C57	C	0.032334	0.632274	0.087934
C58	C	-0.034244	0.594301	0.088170
H59	H	0.037691	0.631254	-0.059123
H60	H	0.068957	0.539143	0.000293
H61	H	0.028243	0.699859	0.087870
H62	H	0.059492	0.607763	0.147310
H63	H	-0.030156	0.526702	0.088225
H64	H	-0.061416	0.618816	0.028804
H65	H	-0.056325	0.611612	0.147674
H66	H	0.222085	1.034739	0.518369
C67	C	-0.487167	1.296279	-0.000198
C68	C	-0.510279	1.353400	-0.087898
C69	C	-0.476809	1.440544	-0.088135
H70	H	-0.497852	1.328000	0.059160
H71	H	-0.438095	1.284924	-0.000247
H72	H	-0.559340	1.364758	-0.087840
H73	H	-0.499594	1.321709	-0.147271
H74	H	-0.427736	1.429188	-0.088183
H75	H	-0.487496	1.472256	-0.028772
H76	H	-0.492480	1.479307	-0.147642
C77	C	0.265590	0.631553	-0.000065
C78	C	0.259330	0.731155	-0.000096
C79	C	0.325828	0.769385	-0.000185
H80	H	0.292755	0.607123	0.059343
H81	H	0.287777	0.614363	-0.059529
H82	H	0.237153	0.748337	0.059362
H83	H	0.232177	0.755611	-0.059500
H84	H	0.348014	0.752195	-0.059649
H85	H	0.352987	0.744948	0.059224
H86	H	0.321589	0.836969	-0.000216
H87	H	-0.051639	1.281479	0.000076
H88	H	-0.173246	0.965466	0.000021
H89	H	-0.617833	0.956582	-0.000031
H90	H	-0.628508	1.269957	-0.000012
H91	H	-0.485548	0.959222	-0.000011
H92	H	0.108443	1.203332	0.481676
