data_functionalizedCrystal
_audit_creation_method	'MofGen! by Chris Wilmer'
_symmetry_space_group_name_H-M	'P1'
_symmetry_Int_Tables_number	1
_symmetry_cell_setting	triclinic
loop_
_symmetry_equiv_pos_as_xyz
  x,y,z
_cell_length_a	12.827893
_cell_length_b	10.686285
_cell_length_c	10.686551
_cell_angle_alpha	99.084519
_cell_angle_beta	85.604899
_cell_angle_gamma	94.368299
loop_
_atom_site_label
_atom_site_type_symbol
_atom_site_fract_x
_atom_site_fract_y
_atom_site_fract_z
Zn1	Zn	1.669493	0.450170	-0.678983
Zn2	Zn	1.669409	0.678749	-0.450481
Zn3	Zn	1.482282	0.466523	-0.466747
Zn4	Zn	1.507191	0.662366	-0.662686
O5	O	1.582094	0.564452	-0.564724
O6	O	1.815720	0.480504	-0.648684
O7	O	1.634126	0.664297	-0.275008
O8	O	1.496727	0.286731	-0.508529
O9	O	1.815658	0.648440	-0.480804
O10	O	1.634270	0.274716	-0.664457
O11	O	1.496645	0.508375	-0.286959
O12	O	1.339348	0.492489	-0.492727
O13	O	1.539180	0.620517	-0.842478
O14	O	1.357649	0.636374	-0.636682
O15	O	1.658423	0.464618	-0.854451
O16	O	1.658279	0.854199	-0.465002
O17	O	1.539098	0.842162	-0.620909
C18	C	1.310581	0.564429	-0.564702
C19	C	1.194430	0.564448	-0.564720
C20	C	1.601413	0.894234	-0.539450
C21	C	1.609776	1.035313	-0.528680
C22	C	1.601590	0.538916	-0.895810
C23	C	1.609898	0.528034	-1.036899
C24	C	1.151729	0.635777	-0.635826
C25	C	1.031681	0.635797	-0.635846
C26	C	1.854667	0.564476	-0.564747
C27	C	1.970821	0.564486	-0.564757
C28	C	1.562729	0.233380	-0.590125
C29	C	1.554478	0.092297	-0.600950
C30	C	1.562728	0.589797	-0.234934
C31	C	1.554602	0.600321	-0.093873
H32	H	1.204045	0.696823	-0.696692
H33	H	0.994924	0.696868	-0.696719
H34	H	1.142114	0.503391	-0.503865
C35	C	1.481884	1.012413	-0.695682
H36	H	1.448308	1.067078	-0.739571
H37	H	1.522051	0.956373	-0.754939
H38	H	1.430492	0.964512	-0.650969
C39	C	1.020456	0.481978	-0.482512
H40	H	0.966700	0.437247	-0.437909
H41	H	1.062674	0.423036	-0.535428
H42	H	1.062609	0.534762	-0.423439
H43	H	1.500907	0.670539	-1.034712
C44	C	1.682368	1.115209	-0.433942
H45	H	1.678655	1.202730	-0.438882
H46	H	1.660841	1.100162	-0.350273
H47	H	1.752401	1.092036	-0.454242
H48	H	1.663604	0.457821	-1.096066
