data_functionalizedCrystal
_audit_creation_method	'MofGen! by Chris Wilmer'
_symmetry_space_group_name_H-M	'P1'
_symmetry_Int_Tables_number	1
_symmetry_cell_setting	triclinic
loop_
_symmetry_equiv_pos_as_xyz
  x,y,z
_cell_length_a	14.044209
_cell_length_b	11.792241
_cell_length_c	10.868271
_cell_angle_alpha	90.005281
_cell_angle_beta	89.998683
_cell_angle_gamma	88.690684
loop_
_atom_site_label
_atom_site_type_symbol
_atom_site_fract_x
_atom_site_fract_y
_atom_site_fract_z
O1	O	-1.259115	-0.273758	-0.102175
O2	O	-1.009115	-0.023758	0.147825
O3	O	-0.759115	0.226242	0.397825
O4	O	-0.509115	0.476242	0.647825
O5	O	-0.983094	-0.263882	-0.102210
O6	O	-0.733094	-0.013882	0.147790
O7	O	-0.483094	0.236118	0.397790
O8	O	-0.233094	0.486118	0.647790
O9	O	-1.127803	-0.104278	-0.102183
O10	O	-0.877803	0.145722	0.147817
O11	O	-0.627803	0.395722	0.397817
O12	O	-0.377803	0.645722	0.647817
O13	O	-1.114406	-0.433362	-0.102202
O14	O	-0.864406	-0.183362	0.147798
O15	O	-0.614406	0.066638	0.397798
O16	O	-0.364406	0.316638	0.647798
O17	O	-1.127791	-0.104270	0.102462
O18	O	-0.877791	0.145730	0.352462
O19	O	-0.627791	0.395730	0.602462
O20	O	-0.377791	0.645730	0.852462
O21	O	-0.983082	-0.263874	0.102435
O22	O	-0.733082	-0.013874	0.352435
O23	O	-0.483082	0.236126	0.602435
O24	O	-0.233082	0.486126	0.852435
O25	O	-1.259103	-0.273750	0.102470
O26	O	-1.009103	-0.023750	0.352470
O27	O	-0.759103	0.226250	0.602470
O28	O	-0.509103	0.476250	0.852470
Zn29	Zn	-1.121091	-0.268811	0.134944
Zn30	Zn	-0.871091	-0.018811	0.384944
Zn31	Zn	-0.621091	0.231189	0.634944
Zn32	Zn	-0.371091	0.481189	0.884944
Zn33	Zn	-1.121106	-0.268821	-0.134684
Zn34	Zn	-0.871106	-0.018821	0.115316
Zn35	Zn	-0.621106	0.231179	0.365316
Zn36	Zn	-0.371106	0.481179	0.615316
O37	O	-1.114394	-0.433354	0.102443
O38	O	-0.864394	-0.183354	0.352443
O39	O	-0.614394	0.066646	0.602443
O40	O	-0.364394	0.316646	0.852443
C41	C	-0.947752	-0.259554	0.000108
C42	C	-0.697752	-0.009554	0.250108
C43	C	-0.447752	0.240446	0.500108
C44	C	-0.197752	0.490446	0.750108
C45	C	-0.842459	-0.246656	0.000095
C46	C	-0.592459	0.003344	0.250095
C47	C	-0.342459	0.253344	0.500095
C48	C	-0.092459	0.503344	0.750095
N49	N	-1.121087	-0.268804	0.318958
N50	N	-0.871087	-0.018804	0.568958
N51	N	-0.621087	0.231196	0.818958
N52	N	-0.371087	0.481196	1.068958
C53	C	-1.126955	-0.061905	0.000139
C54	C	-0.876955	0.188095	0.250139
C55	C	-0.626955	0.438095	0.500139
C56	C	-0.376955	0.688095	0.750139
C57	C	-1.124436	0.064346	0.000138
C58	C	-0.874436	0.314346	0.250138
C59	C	-0.624436	0.564346	0.500138
C60	C	-0.374436	0.814346	0.750138
C61	C	-0.649677	-0.223076	0.000118
C62	C	-0.399677	0.026924	0.250118
C63	C	-0.149677	0.276924	0.500118
C64	C	0.100323	0.526924	0.750118
C65	C	-0.592514	-0.314561	0.000117
C66	C	-0.342514	-0.064561	0.250117
C67	C	-0.092514	0.185439	0.500117
C68	C	0.157486	0.435439	0.750117
C69	C	-0.485243	-0.301441	0.000130
C70	C	-0.235243	-0.051441	0.250130
C71	C	0.014757	0.198559	0.500130
C72	C	0.264757	0.448559	0.750130
C73	C	-0.756958	-0.236194	0.000105
C74	C	-0.506958	0.013806	0.250105
C75	C	-0.256958	0.263806	0.500105
C76	C	-0.006958	0.513806	0.750105
C77	C	-0.294445	-0.278081	0.000146
C78	C	-0.044445	-0.028081	0.250146
C79	C	0.205555	0.221919	0.500146
C80	C	0.455555	0.471919	0.750146
C81	C	-0.399736	-0.290986	0.000140
C82	C	-0.149736	-0.040986	0.250140
C83	C	0.100264	0.209014	0.500140
C84	C	0.350264	0.459014	0.750140
C85	C	-1.115242	-0.475728	0.000119
C86	C	-0.865242	-0.225728	0.250119
C87	C	-0.615242	0.024272	0.500119
C88	C	-0.365242	0.274272	0.750119
C89	C	-1.117760	-0.601978	0.000112
C90	C	-0.867760	-0.351978	0.250112
C91	C	-0.617760	-0.101978	0.500112
C92	C	-0.367760	0.148022	0.750112
C93	C	-1.119805	0.295493	0.000116
C94	C	-0.869805	0.545493	0.250116
C95	C	-0.619805	0.795493	0.500116
C96	C	-0.369805	1.045493	0.750116
C97	C	-1.122378	0.166866	0.000128
C98	C	-0.872378	0.416866	0.250128
C99	C	-0.622378	0.666866	0.500128
C100	C	-0.372378	0.916866	0.750128
N101	N	-1.121118	-0.268820	-0.318698
N102	N	-0.871118	-0.018820	-0.068698
N103	N	-0.621118	0.231180	0.181302
N104	N	-0.371118	0.481180	0.431302
C105	C	-1.121101	-0.268819	0.569964
C106	C	-0.871101	-0.018819	0.819964
C107	C	-0.621101	0.231181	1.069964
C108	C	-0.371101	0.481181	1.319964
C109	C	-1.121090	-0.268813	0.430287
C110	C	-0.871090	-0.018813	0.680287
C111	C	-0.621090	0.231187	0.930287
C112	C	-0.371090	0.481187	1.180287
H113	H	-0.624138	-0.402738	0.000107
H114	H	-0.374138	-0.152738	0.250107
H115	H	-0.124138	0.097262	0.500107
H116	H	0.125862	0.347262	0.750107
Br117	Br	-0.596970	-0.076116	0.000132
Br118	Br	-0.346970	0.173884	0.250132
Br119	Br	-0.096970	0.423884	0.500132
Br120	Br	0.153030	0.673884	0.750132
