data_functionalizedCrystal
_audit_creation_method	'MofGen! by Chris Wilmer'
_symmetry_space_group_name_H-M	'P1'
_symmetry_Int_Tables_number	1
_symmetry_cell_setting	triclinic
loop_
_symmetry_equiv_pos_as_xyz
  x,y,z
_cell_length_a	8.559649
_cell_length_b	22.010155
_cell_length_c	8.559649
_cell_angle_alpha	90.005257
_cell_angle_beta	110.221336
_cell_angle_gamma	90.007067
loop_
_atom_site_label
_atom_site_type_symbol
_atom_site_fract_x
_atom_site_fract_y
_atom_site_fract_z
O1	O	2.126896	0.050516	0.055059
O2	O	1.651411	0.050518	-0.028722
O3	O	1.931044	0.050516	0.250911
O4	O	1.847263	0.050518	-0.224574
O5	O	1.930994	-0.050534	0.250868
O6	O	1.651361	-0.050532	-0.028765
O7	O	2.126846	-0.050535	0.055016
Cu8	Cu	1.889099	-0.059760	0.013122
Cu9	Cu	1.889158	0.059743	0.013172
O10	O	1.847213	-0.050533	-0.224617
C11	C	1.591077	-0.000007	-0.035093
C12	C	1.411378	-0.000006	-0.053992
N13	N	1.889070	-0.143813	0.013088
C14	C	2.012984	-0.563593	0.136979
C15	C	2.012993	-0.627201	0.136991
O16	O	2.118282	-0.660093	0.242298
N17	N	1.889161	-0.659020	0.013206
C18	C	1.765303	-0.627228	-0.110589
O19	O	1.659974	-0.660134	-0.215876
C20	C	1.765289	-0.563622	-0.110593
C21	C	1.889138	-0.531806	0.013190
C22	C	2.136823	-0.531777	0.260753
C23	C	2.136815	-0.468174	0.260739
C24	C	2.012969	-0.436387	0.136950
C25	C	1.889131	-0.468203	0.013176
C26	C	1.641425	-0.531831	-0.234380
C27	C	1.641421	-0.468220	-0.234372
C28	C	1.765270	-0.436405	-0.110589
C29	C	1.765277	-0.372812	-0.110627
N30	N	1.889109	-0.340993	0.013158
C31	C	2.012955	-0.372780	0.136947
C32	C	1.765341	-0.760806	-0.110570
C33	C	1.765360	-0.824411	-0.110575
C34	C	2.013049	-0.824379	0.137008
C35	C	2.013035	-0.760773	0.137004
C36	C	1.889172	-0.728987	0.013215
C37	C	2.012930	-0.239209	0.136906
C38	C	2.012916	-0.175600	0.136877
C39	C	1.765223	-0.175637	-0.110699
C40	C	1.765242	-0.239241	-0.110676
C41	C	1.889103	-0.271025	0.013141
O42	O	1.660038	-0.339880	-0.215877
O43	O	2.118253	-0.339867	0.242228
C44	C	2.187180	-0.000009	0.061387
C45	C	2.366879	-0.000006	0.080286
C46	C	1.937369	-0.000008	0.311198
C47	C	1.956268	-0.000005	0.490898
N48	N	1.889202	0.143796	0.013220
C49	C	1.840889	-0.000007	-0.284904
C50	C	1.821990	-0.000007	-0.464604
H51	H	1.311990	-0.000002	-0.183420
O52	O	1.498513	-0.000008	0.251722
H53	H	1.437656	-0.000004	0.347107
O54	O	2.146491	-0.141283	0.270400
H55	H	2.232593	-0.174076	0.356489
O56	O	1.650549	-0.000009	0.403770
H57	H	1.581911	0.041173	0.418136
H58	H	2.085696	-0.000010	0.590286
O59	O	2.146598	-0.726467	0.270548
H60	H	2.087972	-0.697495	0.341050
H61	H	2.113788	-0.265080	0.237731
H62	H	2.237660	-0.442273	0.361538
O63	O	2.270429	-0.566057	0.394259
H64	H	2.356536	-0.533238	0.480300
O65	O	2.146622	-0.858669	0.270544
H66	H	2.125801	-0.908243	0.249752
O67	O	1.631828	-0.858725	-0.244128
H68	H	1.545724	-0.825929	-0.330208
H69	H	1.664479	-0.734929	-0.211387
H70	H	1.540552	-0.442343	-0.335176
O71	O	1.507866	-0.566124	-0.367950
H72	H	1.383943	-0.553924	-0.362748
O73	O	1.631670	-0.273563	-0.244182
H74	H	1.545548	-0.240770	-0.330257
O75	O	1.631613	-0.141348	-0.244178
H76	H	1.652403	-0.091774	-0.223356
