data_functionalizedCrystal
_audit_creation_method	'MofGen! by Chris Wilmer'
_symmetry_space_group_name_H-M	'P1'
_symmetry_Int_Tables_number	1
_symmetry_cell_setting	triclinic
loop_
_symmetry_equiv_pos_as_xyz
  x,y,z
_cell_length_a	31.640172
_cell_length_b	31.640172
_cell_length_c	14.560438
_cell_angle_alpha	59.997520
_cell_angle_beta	90.002813
_cell_angle_gamma	60.004780
loop_
_atom_site_label
_atom_site_type_symbol
_atom_site_fract_x
_atom_site_fract_y
_atom_site_fract_z
Zr1	Zr	0.407247	0.462535	-0.120396
O2	O	0.339770	0.550710	-0.267061
O3	O	0.427923	0.374366	-0.075437
O4	O	0.427937	0.462532	-0.267038
O5	O	0.339755	0.462543	0.075680
O6	O	0.497494	0.462524	-0.267017
O7	O	0.339756	0.462543	-0.075460
O8	O	0.497469	0.304809	0.075721
O9	O	0.339780	0.620258	-0.267059
O10	O	0.488661	0.410622	-0.056245
O11	O	0.436751	0.410629	0.056533
O12	O	0.436767	0.514434	-0.169052
O13	O	0.384856	0.514440	-0.056273
Zr14	Zr	0.518180	0.462521	0.120687
Zr15	Zr	0.518182	0.462521	-0.120364
Zr16	Zr	0.407244	0.462535	0.120654
Zr17	Zr	0.407262	0.573455	-0.120393
Zr18	Zr	0.518165	0.351601	0.120684
O19	O	0.497503	0.550690	0.075727
O20	O	0.497506	0.550691	-0.267015
O21	O	0.339767	0.550710	0.075682
O22	O	0.585656	0.374345	0.267351
O23	O	0.585659	0.374346	-0.075391
O24	O	0.427920	0.374365	0.267306
O25	O	0.585671	0.462512	-0.075389
O26	O	0.497489	0.462523	0.267328
O27	O	0.427932	0.462532	0.267308
O28	O	0.585670	0.462512	0.075751
O29	O	0.427959	0.620247	-0.267034
O30	O	0.497468	0.304809	0.267324
O31	O	0.585646	0.304798	0.267350
O32	O	0.585648	0.304798	0.075747
O33	O	0.339778	0.620258	-0.075456
O34	O	0.427957	0.620247	-0.075431
O35	O	0.488659	0.410622	0.169342
O36	O	0.540570	0.410615	0.056563
O37	O	0.488676	0.514427	-0.056243
O38	O	0.436765	0.514434	0.056536
C39	C	0.462694	0.323784	0.000142
C40	C	0.462688	0.276695	0.000141
C41	C	0.489820	-0.015350	-0.058714
C42	C	0.489831	-0.192346	-0.058713
O43	O	0.512895	-0.215254	-0.108739
N44	N	0.462734	-0.214472	0.000154
C45	C	0.435634	-0.192349	0.059031
O46	O	0.412591	-0.215233	0.109111
C47	C	0.435627	-0.015357	0.059036
C48	C	0.462722	0.006771	0.000156
C49	C	0.516914	0.006777	-0.117588
C50	C	0.516908	0.051026	-0.117593
C51	C	0.489810	0.073147	-0.058723
C52	C	0.462717	0.051020	0.000152
C53	C	0.408531	0.006763	0.117920
C54	C	0.408533	0.051012	0.117918
C55	C	0.435628	0.073140	0.059038
C56	C	0.435613	0.117390	0.059017
N57	N	0.462711	0.139515	0.000150
C58	C	0.489809	0.117394	-0.058720
C59	C	0.435639	-0.285271	0.059023
C60	C	0.435640	-0.329518	0.059020
C61	C	0.489838	-0.329513	-0.058723
C62	C	0.489834	-0.285262	-0.058726
C63	C	0.462737	-0.263145	0.000155
C64	C	0.489796	0.210320	-0.058726
C65	C	0.489786	0.254574	-0.058729
C66	C	0.435591	0.254563	0.059018
C67	C	0.435598	0.210315	0.059017
C68	C	0.462704	0.188193	0.000143
O69	O	0.412566	0.140320	0.109027
O70	O	0.512858	0.140277	-0.108772
C71	C	0.489826	-0.059599	-0.058709
C72	C	0.462732	-0.081726	0.000165
C73	C	0.435634	-0.059605	0.059035
C74	C	0.462733	-0.125973	0.000163
C75	C	0.489832	-0.148094	-0.058707
C76	C	0.516929	-0.125969	-0.117574
C77	C	0.516924	-0.081720	-0.117579
C78	C	0.408537	-0.081731	0.117902
C79	C	0.408543	-0.125979	0.117901
C80	C	0.435642	-0.148100	0.059031
C81	C	0.323950	0.462545	0.000105
C82	C	0.276855	0.462551	0.000091
C83	C	0.011937	0.408334	0.059052
C84	C	-0.165048	0.408323	0.059074
O85	O	-0.164896	0.362237	0.109193
N86	N	-0.214266	0.462511	0.000189
C87	C	-0.219237	0.516706	-0.058700
O88	O	-0.265161	0.562796	-0.108776
C89	C	-0.042252	0.516716	-0.058715
C90	C	0.006965	0.462524	0.000165
C91	C	0.061152	0.354146	0.117928
C92	C	0.105396	0.354149	0.117917
C93	C	0.100424	0.408340	0.059029
C94	C	0.051208	0.462527	0.000153
C95	C	-0.047224	0.570910	-0.117597
C96	C	-0.002972	0.570908	-0.117593
C97	C	0.046245	0.516716	-0.058713
C98	C	0.090480	0.516721	-0.058745
N99	N	0.139698	0.462533	0.000140
C100	C	0.144670	0.408342	0.059028
C101	C	-0.312154	0.516697	-0.058690
C102	C	-0.356400	0.516695	-0.058688
C103	C	-0.302208	0.408312	0.059088
C104	C	-0.257962	0.408315	0.059079
C105	C	-0.262936	0.462509	0.000195
C106	C	0.237582	0.408353	0.058999
C107	C	0.281827	0.408361	0.058979
C108	C	0.227631	0.516744	-0.058792
C109	C	0.183390	0.516736	-0.058777
C110	C	0.188369	0.462536	0.000127
O111	O	0.090367	0.562782	-0.108828
O112	O	0.190598	0.362259	0.109116
C113	C	-0.032306	0.408330	0.059063
C114	C	-0.081522	0.462518	0.000187
C115	C	-0.086494	0.516708	-0.058700
C116	C	-0.125768	0.462516	0.000189
C117	C	-0.120796	0.408325	0.059076
C118	C	-0.071578	0.354137	0.117961
C119	C	-0.027334	0.354140	0.117950
C120	C	-0.135712	0.570897	-0.117585
C121	C	-0.179953	0.570889	-0.117571
C122	C	-0.174981	0.516698	-0.058683
C123	C	0.601477	0.462510	0.000185
C124	C	0.648572	0.462504	0.000199
C125	C	0.462716	0.462528	-0.301372
C126	C	0.462717	0.462528	-0.403704
C127	C	0.462732	0.601272	0.000149
C128	C	0.462739	0.648361	0.000150
C129	C	0.501034	0.462526	-0.451777
C130	C	0.501032	0.462523	-0.547926
C131	C	0.424390	0.462528	-0.547924
C132	C	0.424395	0.462526	-0.451772
C133	C	0.539356	0.462528	-0.403710
C134	C	0.577676	0.462526	-0.451783
C135	C	0.577673	0.462524	-0.547932
C136	C	0.539351	0.462523	-0.596008
C137	C	0.462710	0.462528	0.301663
C138	C	0.462709	0.462527	0.403995
C139	C	0.601457	0.323766	0.000182
C140	C	0.648546	0.276672	0.000195
C141	C	0.462691	0.323783	0.301659
C142	C	0.462684	0.276695	0.403990
C143	C	0.601455	0.323766	0.301699
C144	C	0.648542	0.276671	0.404044
C145	C	0.323972	0.601290	-0.301409
C146	C	0.276884	0.648384	-0.403753
C147	C	0.323969	0.601290	0.000109
C148	C	0.276880	0.648384	0.000096
C149	C	0.462735	0.601272	-0.301369
C150	C	0.462742	0.648361	-0.403700
C151	C	0.643564	0.254559	-0.058695
C152	C	0.687804	0.210315	-0.058706
C153	C	0.737026	0.188181	0.000180
C154	C	0.742008	0.210298	0.059071
C155	C	0.697768	0.254544	0.059075
C156	C	0.489776	0.254578	0.510941
C157	C	0.489767	0.210339	0.607101
C158	C	0.462669	0.188215	0.596308
C159	C	0.435573	0.210336	0.489346
C160	C	0.435579	0.254577	0.393188
C161	C	0.697757	0.254552	0.393237
C162	C	0.742005	0.210308	0.489391
C163	C	0.737037	0.188181	0.596352
C164	C	0.687818	0.210304	0.607157
C165	C	0.643571	0.254551	0.511004
C166	C	0.227670	0.670509	-0.392946
C167	C	0.183422	0.714767	-0.489101
C168	C	0.188389	0.736897	-0.596061
C169	C	0.237609	0.714770	-0.606866
C170	C	0.281856	0.670516	-0.510713
C171	C	0.281863	0.670501	0.058975
C172	C	0.237622	0.714758	0.058960
C173	C	0.188400	0.736893	0.000070
C174	C	0.183419	0.714774	-0.058816
C175	C	0.227658	0.670521	-0.058806
C176	C	0.489846	0.670471	-0.392870
C177	C	0.489863	0.714710	-0.489012
C178	C	0.462773	0.736841	-0.595982
C179	C	0.435669	0.714727	-0.606809
C180	C	0.435655	0.670486	-0.510668
H181	H	0.538983	-0.011232	-0.165526
F182	F	0.682491	0.186783	-0.121384
F183	F	0.334245	0.646953	0.121655
H184	H	0.241689	0.732760	0.106916
F185	F	0.518622	0.278114	0.522454
H186	H	0.782077	0.192299	0.480574
H187	H	0.152381	0.772926	0.000072
F188	F	0.682539	0.186749	0.721002
H189	H	0.413528	0.192304	0.106947
F190	F	-0.296924	0.350638	0.121760
H191	H	0.223594	0.652515	-0.106750
F192	F	-0.099598	0.628589	-0.180258
H193	H	0.143336	0.732803	-0.106762
F194	F	0.518672	-0.261717	-0.121392
H195	H	0.413582	0.652489	-0.519502
H196	H	0.603500	0.272555	0.519819
F197	F	0.784134	0.141089	0.698678
F198	F	0.222371	0.646965	-0.279120
H199	H	0.413570	-0.347524	0.106951
F200	F	0.518710	0.738240	-0.477465
F201	F	0.618459	0.462515	-0.599087
H202	H	0.511850	0.272590	-0.106680
H203	H	0.701811	0.272561	0.306153
F204	F	0.539355	0.462513	-0.698332
H205	H	0.413573	-0.267268	0.106975
F206	F	0.383614	0.462527	-0.400606
H207	H	0.511834	0.192333	0.694185
F208	F	0.406735	0.186784	0.477876
H209	H	0.603488	0.272580	-0.106660
H210	H	0.701832	0.272543	0.107036
F211	F	0.518646	0.186781	-0.121384
H212	H	0.462668	0.152192	0.674615
F213	F	0.518681	0.646925	-0.279034
F214	F	0.406745	0.278108	0.279365
H215	H	0.393189	0.462528	-0.587074
F216	F	0.131044	0.738307	-0.477578
F217	F	0.157773	0.296471	0.180592
F218	F	0.406752	0.278114	0.121668
F219	F	0.242887	0.738326	-0.720711
H220	H	0.538973	0.069038	-0.165534
H221	H	0.773045	0.152152	0.000169
F222	F	0.462791	0.783928	-0.698294
H223	H	0.152356	0.772931	-0.674346
F224	F	0.794398	0.186734	0.121741
H225	H	0.321927	0.652502	-0.519526
H226	H	0.413613	0.732753	-0.693917
H227	H	0.386468	-0.011247	0.165868
F228	F	0.518678	-0.353064	-0.121377
H229	H	0.538988	-0.063707	-0.165525
F230	F	0.379692	0.074548	0.180591
H231	H	0.538992	-0.143985	-0.165514
H232	H	0.386474	-0.143988	0.165845
F233	F	0.222349	0.574414	-0.121448
F234	F	0.334208	0.350680	0.121647
F235	F	0.379695	-0.058195	0.180567
F236	F	-0.408778	0.574373	-0.121371
H237	H	0.241644	0.364218	0.106965
H238	H	0.065210	0.310015	0.165887
H239	H	-0.217889	0.364187	0.107034
H240	H	-0.316213	0.560831	-0.106648
H241	H	-0.007029	0.615040	-0.165530
H242	H	0.012738	0.310011	0.165899
F243	F	0.131007	0.574412	-0.121464
H244	H	-0.067536	0.310013	0.165902
H245	H	-0.139768	0.615026	-0.165541
F246	F	-0.232333	0.628572	-0.180248
H247	H	0.539360	0.462532	-0.325422
F248	F	0.618462	0.462520	-0.400611
