data_functionalizedCrystal
_audit_creation_method	'MofGen! by Chris Wilmer'
_symmetry_space_group_name_H-M	'P1'
_symmetry_Int_Tables_number	1
_symmetry_cell_setting	triclinic
loop_
_symmetry_equiv_pos_as_xyz
  x,y,z
_cell_length_a	14.971491
_cell_length_b	16.992695
_cell_length_c	14.048226
_cell_angle_alpha	89.993436
_cell_angle_beta	89.991693
_cell_angle_gamma	87.142229
loop_
_atom_site_label
_atom_site_type_symbol
_atom_site_fract_x
_atom_site_fract_y
_atom_site_fract_z
O1	O	1.194125	0.102209	-0.079203
O2	O	1.527459	0.435542	0.254131
O3	O	1.860792	0.768876	0.587464
O4	O	0.934585	0.114442	-0.079196
O5	O	1.267919	0.447776	0.254137
O6	O	1.601252	0.781109	0.587471
O7	O	1.063315	-0.005818	-0.079192
O8	O	1.396648	0.327515	0.254142
O9	O	1.729982	0.660849	0.587475
O10	O	1.065396	0.222469	-0.079207
O11	O	1.398729	0.555803	0.254126
O12	O	1.732063	0.889136	0.587460
O13	O	1.063298	-0.005825	0.079130
O14	O	1.396631	0.327508	0.412463
O15	O	1.729965	0.660842	0.745796
O16	O	0.934568	0.114435	0.079125
O17	O	1.267902	0.447768	0.412459
O18	O	1.601235	0.781102	0.745792
O19	O	1.194108	0.102202	0.079119
O20	O	1.527442	0.435535	0.412452
O21	O	1.860775	0.768869	0.745785
Zn22	Zn	1.064336	0.108317	0.104259
Zn23	Zn	1.397669	0.441651	0.437592
Zn24	Zn	1.731002	0.774984	0.770926
Zn25	Zn	1.064358	0.108327	-0.104336
Zn26	Zn	1.397691	0.441660	0.228997
Zn27	Zn	1.731025	0.774993	0.562330
O28	O	1.065379	0.222462	0.079114
O29	O	1.398712	0.555796	0.412448
O30	O	1.732046	0.889129	0.745781
C31	C	0.901214	0.113891	-0.000034
C32	C	1.234547	0.447224	0.333299
C33	C	1.567880	0.780558	0.666632
C34	C	0.801802	0.112249	-0.000031
C35	C	1.135135	0.445583	0.333302
C36	C	1.468468	0.778916	0.666635
C37	C	0.373608	0.105169	-0.086354
C38	C	0.706941	0.438503	0.246979
C39	C	1.040274	0.771836	0.580313
C40	C	0.467016	0.106709	-0.086350
C41	C	0.800349	0.440043	0.246983
C42	C	1.133683	0.773376	0.580316
C43	C	0.513707	0.107481	-0.000046
C44	C	0.847040	0.440814	0.333287
C45	C	1.180374	0.774147	0.666620
C46	C	0.466985	0.106704	0.086260
C47	C	0.800319	0.440037	0.419594
C48	C	1.133652	0.773371	0.752927
C49	C	0.373579	0.105158	0.086256
C50	C	0.706912	0.438492	0.419589
C51	C	1.040246	0.771825	0.752922
C52	C	0.661674	0.109928	0.086263
C53	C	0.995007	0.443261	0.419597
C54	C	1.328340	0.776594	0.752930
C55	C	0.755086	0.111475	0.086268
C56	C	1.088420	0.444808	0.419602
C57	C	1.421753	0.778142	0.752935
C58	C	0.755111	0.111479	-0.086343
C59	C	1.088444	0.444812	0.246991
C60	C	1.421777	0.778145	0.580324
C61	C	0.661704	0.109933	-0.086347
C62	C	0.995038	0.443266	0.246986
C63	C	1.328371	0.776600	0.580320
C64	C	0.614989	0.109158	-0.000040
C65	C	0.948322	0.442491	0.333293
C66	C	1.281656	0.775825	0.666626
C67	C	1.060630	-0.035037	-0.000031
C68	C	1.393963	0.298297	0.333302
C69	C	1.727296	0.631630	0.666636
C70	C	1.052643	-0.122088	-0.000031
C71	C	1.385976	0.211245	0.333302
C72	C	1.719309	0.544578	0.666636
C73	C	1.129707	-0.172255	-0.000032
C74	C	1.463040	0.161078	0.333301
C75	C	1.796373	0.494411	0.666634
C76	C	1.122197	-0.254049	-0.000041
C77	C	1.455530	0.079284	0.333292
C78	C	1.788863	0.412618	0.666626
C79	C	1.037622	-0.285674	-0.000042
C80	C	1.370955	0.047659	0.333291
C81	C	1.704288	0.380992	0.666625
C82	C	0.960552	-0.235501	-0.000044
C83	C	1.293885	0.097832	0.333290
C84	C	1.627218	0.431166	0.666623
C85	C	0.968063	-0.153709	-0.000042
C86	C	1.301396	0.179625	0.333292
C87	C	1.634729	0.512958	0.666625
C88	C	1.006492	-0.529302	-0.000054
C89	C	1.339826	-0.195968	0.333279
C90	C	1.673159	0.137365	0.666612
C91	C	0.998987	-0.611100	-0.000053
C92	C	1.332320	-0.277767	0.333280
C93	C	1.665654	0.055566	0.666613
C94	C	1.160633	-0.629643	-0.000052
C95	C	1.493966	-0.296310	0.333281
C96	C	1.827300	0.037024	0.666614
C97	C	1.168136	-0.547848	-0.000045
C98	C	1.501470	-0.214515	0.333289
C99	C	1.834803	0.118818	0.666622
C100	C	1.091066	-0.497682	-0.000052
C101	C	1.424400	-0.164349	0.333282
C102	C	1.757733	0.168984	0.666615
N103	N	1.029943	-0.369281	-0.000048
N104	N	1.363277	-0.035947	0.333285
N105	N	1.696610	0.297386	0.666619
N106	N	1.098746	-0.414078	-0.000052
N107	N	1.432079	-0.080744	0.333281
N108	N	1.765412	0.252589	0.666614
C109	C	1.227480	0.102753	-0.000045
C110	C	1.560813	0.436087	0.333288
C111	C	1.894147	0.769420	0.666622
C112	C	1.326892	0.104395	-0.000054
C113	C	1.660226	0.437728	0.333279
C114	C	1.993559	0.771062	0.666612
C115	C	1.068064	0.251681	-0.000048
C116	C	1.401398	0.585014	0.333285
C117	C	1.734731	0.918348	0.666618
C118	C	1.076051	0.338733	-0.000054
C119	C	1.409385	0.672066	0.333279
C120	C	1.742718	1.005399	0.666612
N121	N	1.064327	0.108311	0.246620
N122	N	1.397660	0.441644	0.579953
N123	N	1.730994	0.774977	0.913286
N124	N	1.064374	0.108327	-0.246697
N125	N	1.397707	0.441661	0.086636
N126	N	1.731040	0.774994	0.419970
C127	C	1.121349	0.055081	0.296440
C128	C	1.454682	0.388415	0.629773
C129	C	1.788016	0.721748	0.963106
C130	C	1.121355	0.055081	0.396097
C131	C	1.454688	0.388414	0.729431
C132	C	1.788022	0.721748	1.062764
C133	C	1.064343	0.108314	0.445933
C134	C	1.397676	0.441647	0.779266
C135	C	1.731010	0.774981	1.112600
C136	C	1.007314	0.161546	0.396106
C137	C	1.340648	0.494879	0.729440
C138	C	1.673981	0.828212	1.062773
C139	C	1.007305	0.161542	0.296450
C140	C	1.340638	0.494875	0.629784
C141	C	1.673971	0.828209	0.963117
C142	C	1.007341	0.161552	0.603821
C143	C	1.340674	0.494885	0.937154
C144	C	1.674007	0.828218	1.270487
C145	C	1.007352	0.161557	0.703483
C146	C	1.340685	0.494890	1.036817
C147	C	1.674018	0.828223	1.370150
C148	C	1.121391	0.055091	0.703467
C149	C	1.454725	0.388424	1.036801
C150	C	1.788058	0.721757	1.370134
C151	C	1.121381	0.055087	0.603811
C152	C	1.454715	0.388420	0.937145
C153	C	1.788048	0.721753	1.270478
C154	C	1.064354	0.108320	0.553991
C155	C	1.397687	0.441653	0.887325
C156	C	1.731020	0.774986	1.220658
H157	H	0.335544	0.104536	0.156530
H158	H	0.668877	0.437869	0.489863
H159	H	1.002211	0.771202	0.823197
H160	H	0.891689	-0.261257	-0.000051
H161	H	1.225022	0.072077	0.333283
H162	H	1.558355	0.405410	0.666616
H163	H	0.943736	-0.488466	-0.000060
H164	H	1.277069	-0.155132	0.333274
H165	H	1.610403	0.178201	0.666607
H166	H	0.960870	0.204885	0.255888
H167	H	1.294204	0.538219	0.589221
H168	H	1.627537	0.871552	0.922555
H169	H	0.905308	-0.112863	-0.000041
H170	H	1.238642	0.220470	0.333292
H171	H	1.571975	0.553804	0.666626
H172	H	0.335598	0.104547	-0.156633
H173	H	0.668931	0.437880	0.176700
H174	H	1.002265	0.771214	0.510034
H175	H	1.167779	0.011736	0.255870
H176	H	1.501112	0.345069	0.589203
H177	H	1.834445	0.678403	0.922536
Cl178	Cl	0.935636	0.228465	0.458755
Cl179	Cl	1.268969	0.561799	0.792088
Cl180	Cl	1.602303	0.895132	1.125422
H181	H	1.167786	0.011737	0.436660
H182	H	1.501119	0.345071	0.769993
H183	H	1.834453	0.678404	1.103327
Cl184	Cl	1.193059	-0.011830	0.541159
Cl185	Cl	1.526393	0.321503	0.874492
Cl186	Cl	1.859726	0.654836	1.207825
H187	H	1.198577	-0.146513	-0.000026
H188	H	1.531910	0.186820	0.333308
H189	H	1.865243	0.520154	0.666641
H190	H	1.167824	0.011747	0.744036
H191	H	1.501158	0.345080	1.077370
H192	H	1.834491	0.678413	1.410703
Cl193	Cl	0.525741	0.107679	-0.194847
Cl194	Cl	0.859074	0.441012	0.138487
Cl195	Cl	1.192407	0.774346	0.471820
Cl196	Cl	0.935673	0.228480	0.766127
Cl197	Cl	1.269007	0.561813	1.099460
Cl198	Cl	1.602340	0.895147	1.432793
H199	H	0.960900	0.204897	0.563260
H200	H	1.294233	0.538230	0.896594
H201	H	1.627566	0.871564	1.229927
H202	H	1.184951	-0.294892	-0.000040
H203	H	1.518284	0.038441	0.333294
H204	H	1.851618	0.371774	0.666627
Cl205	Cl	0.603008	0.108970	-0.194846
Cl206	Cl	0.936341	0.442304	0.138488
Cl207	Cl	1.269674	0.775637	0.471821
H208	H	0.793151	0.112111	-0.156617
H209	H	1.126484	0.445445	0.176717
H210	H	1.459817	0.778778	0.510050
H211	H	1.237006	-0.522106	-0.000044
H212	H	1.570340	-0.188772	0.333290
H213	H	1.903673	0.144561	0.666623
H214	H	0.793099	0.112107	0.156545
H215	H	1.126433	0.445440	0.489878
H216	H	1.459766	0.778774	0.823211
Cl217	Cl	0.602948	0.108944	0.194765
Cl218	Cl	0.936281	0.442277	0.528099
Cl219	Cl	1.269614	0.775611	0.861432
Cl220	Cl	0.892656	-0.650856	-0.000049
Cl221	Cl	1.225990	-0.317523	0.333284
Cl222	Cl	1.559323	0.015811	0.666618
Cl223	Cl	0.525683	0.107672	0.194758
Cl224	Cl	0.859016	0.441005	0.528091
Cl225	Cl	1.192350	0.774339	0.861424
Cl226	Cl	1.257514	-0.692713	-0.000047
Cl227	Cl	1.590848	-0.359380	0.333287
Cl228	Cl	1.924181	-0.026046	0.666620
