data_functionalizedCrystal
_audit_creation_method	'MofGen! by Chris Wilmer'
_symmetry_space_group_name_H-M	'P1'
_symmetry_Int_Tables_number	1
_symmetry_cell_setting	triclinic
loop_
_symmetry_equiv_pos_as_xyz
  x,y,z
_cell_length_a	17.699104
_cell_length_b	15.995350
_cell_length_c	16.776229
_cell_angle_alpha	89.991668
_cell_angle_beta	90.004464
_cell_angle_gamma	83.391946
loop_
_atom_site_label
_atom_site_type_symbol
_atom_site_fract_x
_atom_site_fract_y
_atom_site_fract_z
O1	O	1.004242	0.105953	0.066300
O2	O	1.337576	0.439286	0.399634
O3	O	1.670909	0.772620	0.732967
O4	O	0.783889	0.119711	0.066298
O5	O	1.117222	0.453044	0.399631
O6	O	1.450556	0.786377	0.732965
O7	O	0.900089	-0.009068	0.066299
O8	O	1.233423	0.324266	0.399632
O9	O	1.566756	0.657599	0.732965
O10	O	0.888042	0.234731	0.066300
O11	O	1.221376	0.568065	0.399633
O12	O	1.554709	0.901398	0.732967
O13	O	0.900078	-0.009045	-0.066278
O14	O	1.233412	0.324288	0.267055
O15	O	1.566745	0.657622	0.600389
O16	O	0.783878	0.119733	-0.066279
O17	O	1.117212	0.453066	0.267055
O18	O	1.450545	0.786400	0.600388
O19	O	1.004232	0.105975	-0.066276
O20	O	1.337565	0.439309	0.267057
O21	O	1.670898	0.772642	0.600391
Zn22	Zn	0.894053	0.112858	-0.087327
Zn23	Zn	1.227387	0.446191	0.246007
Zn24	Zn	1.560720	0.779525	0.579340
Zn25	Zn	0.894067	0.112828	0.087349
Zn26	Zn	1.227401	0.446162	0.420682
Zn27	Zn	1.560734	0.779495	0.754015
O28	O	0.888031	0.234754	-0.066277
O29	O	1.221365	0.568087	0.267057
O30	O	1.554698	0.901420	0.600390
C31	C	0.755686	0.119226	0.000009
C32	C	1.089019	0.452559	0.333343
C33	C	1.422353	0.785893	0.666676
C34	C	0.671666	0.117738	0.000009
C35	C	1.005000	0.451071	0.333342
C36	C	1.338333	0.784405	0.666675
C37	C	0.899586	-0.040250	0.000012
C38	C	1.232919	0.293083	0.333345
C39	C	1.566252	0.626417	0.666678
C40	C	0.898093	-0.133198	0.000016
C41	C	1.231426	0.200136	0.333350
C42	C	1.564759	0.533469	0.666683
C43	C	0.146907	0.184938	0.000017
C44	C	0.480241	0.518271	0.333351
C45	C	0.813574	0.851604	0.666684
C46	C	0.225853	0.186331	0.000020
C47	C	0.559187	0.519664	0.333353
C48	C	0.892520	0.852997	0.666686
C49	C	0.274345	0.110733	0.000019
C50	C	0.607678	0.444066	0.333352
C51	C	0.941012	0.777400	0.666686
C52	C	0.243887	0.033737	0.000024
C53	C	0.577221	0.367071	0.333358
C54	C	0.910554	0.700404	0.666691
C55	C	0.164943	0.032345	0.000028
C56	C	0.498276	0.365679	0.333361
C57	C	0.831609	0.699012	0.666694
C58	C	0.562263	0.039349	0.000012
C59	C	0.895596	0.372683	0.333345
C60	C	1.228929	0.706016	0.666678
C61	C	0.641212	0.040748	0.000006
C62	C	0.974545	0.374081	0.333339
C63	C	1.307879	0.707414	0.666672
C64	C	0.623173	0.193335	0.000004
C65	C	0.956507	0.526668	0.333337
C66	C	1.289840	0.860002	0.666670
C67	C	0.544229	0.191943	0.000007
C68	C	0.877562	0.525276	0.333340
C69	C	1.210895	0.858610	0.666674
C70	C	0.513778	0.114948	0.000016
C71	C	0.847111	0.448281	0.333350
C72	C	1.180444	0.781615	0.666683
C73	C	0.428175	0.113438	0.000015
C74	C	0.761509	0.446772	0.333349
C75	C	1.094842	0.780105	0.666682
C76	C	0.359946	0.112242	0.000014
C77	C	0.693279	0.445575	0.333348
C78	C	1.026613	0.778908	0.666681
C79	C	0.892730	-0.470935	0.000014
C80	C	1.226064	-0.137601	0.333347
C81	C	1.559397	0.195732	0.666680
C82	C	0.809975	-0.423339	0.000310
C83	C	1.143308	-0.090006	0.333643
C84	C	1.476642	0.243328	0.666977
C85	C	0.811468	-0.326652	0.000011
C86	C	1.144802	0.006682	0.333344
C87	C	1.478135	0.340015	0.666678
C88	C	0.895390	-0.303379	0.000015
C89	C	1.228724	0.029954	0.333349
C90	C	1.562057	0.363287	0.666682
C91	C	0.936202	-0.344524	-0.075691
C92	C	1.269535	-0.011190	0.257643
C93	C	1.602869	0.322143	0.590976
C94	C	0.934123	-0.441155	-0.075754
C95	C	1.267457	-0.107822	0.257579
C96	C	1.600790	0.225511	0.590913
C97	C	0.935845	-0.441542	0.075010
C98	C	1.269178	-0.108209	0.408344
C99	C	1.602512	0.225124	0.741677
C100	C	0.935825	-0.344597	0.076011
C101	C	1.269159	-0.011264	0.409344
C102	C	1.602492	0.322070	0.742678
C103	C	0.896898	-0.208685	0.000014
C104	C	1.230231	0.124649	0.333347
C105	C	1.563565	0.457982	0.666680
C106	C	0.891225	-0.565629	0.000010
C107	C	1.224559	-0.232296	0.333343
C108	C	1.557892	0.101037	0.666676
C109	C	1.032435	0.106460	0.000014
C110	C	1.365768	0.439794	0.333348
C111	C	1.699101	0.773127	0.666681
C112	C	1.116454	0.107948	0.000020
C113	C	1.449788	0.441281	0.333354
C114	C	1.783121	0.774615	0.666687
C115	C	0.888535	0.265936	0.000012
C116	C	1.221868	0.599270	0.333345
C117	C	1.555202	0.932603	0.666679
C118	C	0.890028	0.358884	0.000013
C119	C	1.223361	0.692217	0.333346
C120	C	1.556695	1.025550	0.666679
N121	N	0.894049	0.112878	-0.206538
N122	N	1.227382	0.446211	0.126795
N123	N	1.560716	0.779544	0.460129
C124	C	0.848176	0.062086	-0.751711
C125	C	1.181509	0.395419	-0.418377
C126	C	1.514843	0.728752	-0.085044
C127	C	0.848174	0.062093	-0.668258
C128	C	1.181507	0.395426	-0.334925
C129	C	1.514841	0.728759	-0.001592
C130	C	0.894071	0.112821	-0.626537
C131	C	1.227404	0.446155	-0.293204
C132	C	1.560737	0.779488	0.040129
C133	C	0.939977	0.163540	-0.668273
C134	C	1.273311	0.496873	-0.334939
C135	C	1.606644	0.830206	-0.001606
C136	C	0.939983	0.163527	-0.751723
C137	C	1.273316	0.496861	-0.418390
C138	C	1.606649	0.830194	-0.085057
C139	C	0.939958	0.163589	-0.331726
C140	C	1.273291	0.496922	0.001608
C141	C	1.606624	0.830256	0.334941
C142	C	0.939947	0.163599	-0.248269
C143	C	1.273281	0.496932	0.085064
C144	C	1.606614	0.830266	0.418398
C145	C	0.848149	0.062154	-0.248261
C146	C	1.181483	0.395487	0.085073
C147	C	1.514816	0.728821	0.418406
C148	C	0.848154	0.062142	-0.331711
C149	C	1.181488	0.395475	0.001622
C150	C	1.514821	0.728809	0.334955
C151	C	0.894064	0.112857	-0.373439
C152	C	1.227397	0.446190	-0.040106
C153	C	1.560731	0.779523	0.293227
C154	C	0.894067	0.112847	-0.463928
C155	C	1.227400	0.446181	-0.130594
C156	C	1.560733	0.779514	0.202739
C157	C	0.894065	0.112836	-0.536051
C158	C	1.227398	0.446169	-0.202717
C159	C	1.560731	0.779502	0.130616
N160	N	0.894078	0.112802	0.206560
N161	N	1.227411	0.446135	0.539893
N162	N	1.560744	0.779469	0.873226
H163	H	0.107430	0.246498	0.000012
H164	H	0.440763	0.579832	0.333345
H165	H	0.774096	0.913165	0.666678
Br166	Br	0.785879	-0.006758	-0.808324
Br167	Br	1.119212	0.326575	-0.474991
Br168	Br	1.452545	0.659909	-0.141657
H169	H	0.283376	-0.027816	0.000029
H170	H	0.616709	0.305518	0.333362
H171	H	0.950042	0.638851	0.666695
Br172	Br	1.002286	0.232353	-0.808358
Br173	Br	1.335620	0.565686	-0.475024
Br174	Br	1.668953	0.899020	-0.141691
H175	H	0.680694	-0.020817	0.000007
H176	H	1.014027	0.312516	0.333341
H177	H	1.347360	0.645850	0.666674
Br178	Br	0.520946	-0.065144	0.000048
Br179	Br	0.854279	0.268190	0.333381
Br180	Br	1.187613	0.601523	0.666715
Br181	Br	0.267179	0.290821	0.000024
Br182	Br	0.600512	0.624155	0.333357
Br183	Br	0.933846	0.957488	0.666690
H184	H	0.140150	-0.030348	0.000032
H185	H	0.473483	0.302986	0.333365
H186	H	0.806816	0.636319	0.666698
H187	H	0.810799	0.020792	-0.634286
H188	H	1.144132	0.354125	-0.300953
H189	H	1.477465	0.687458	0.032381
Br190	Br	1.037540	-0.494677	0.075865
Br191	Br	1.370874	-0.161343	0.409199
Br192	Br	1.704207	0.171990	0.742532
H193	H	0.504750	0.253503	0.000003
H194	H	0.838083	0.586836	0.333337
H195	H	1.171416	0.920169	0.666670
Br196	Br	0.757998	-0.279186	0.090463
Br197	Br	1.091331	0.054148	0.423797
Br198	Br	1.424665	0.387481	0.757130
H199	H	0.908793	-0.462039	0.132391
H200	H	1.242126	-0.128706	0.465724
H201	H	1.575459	0.204628	0.799058
Br202	Br	1.038966	-0.321185	-0.080383
Br203	Br	1.372300	0.012148	0.252950
Br204	Br	1.705633	0.345482	0.586284
Br205	Br	0.886510	-0.298561	0.169373
Br206	Br	1.219843	0.034772	0.502707
Br207	Br	1.553176	0.368105	0.836040
H208	H	0.647975	0.256028	-0.000001
H209	H	0.981309	0.589362	0.333333
H210	H	1.314642	0.922695	0.666666
Br211	Br	0.884504	-0.471551	-0.170079
Br212	Br	1.217837	-0.138217	0.163254
Br213	Br	1.551170	0.195116	0.496588
Br214	Br	0.754847	-0.454129	0.090799
Br215	Br	1.088180	-0.120796	0.424133
Br216	Br	1.421514	0.212538	0.757466
Br217	Br	0.754923	-0.456273	-0.089399
Br218	Br	1.088256	-0.122939	0.243935
Br219	Br	1.421589	0.210394	0.577268
H220	H	0.994881	-0.473521	-0.079186
H221	H	1.328214	-0.140188	0.254147
H222	H	1.661548	0.193145	0.587481
H223	H	0.779163	-0.298715	-0.054351
H224	H	1.112496	0.034619	0.278982
H225	H	1.445829	0.367952	0.612316
H226	H	0.907847	-0.316077	-0.132031
H227	H	1.241181	0.017256	0.201302
H228	H	1.574514	0.350589	0.534636
H229	H	0.810778	0.020837	-0.365676
H230	H	1.144111	0.354170	-0.032343
H231	H	1.477445	0.687503	0.300990
H232	H	0.997025	-0.329355	0.080585
H233	H	1.330359	0.003978	0.413918
H234	H	1.663692	0.337311	0.747252
Br235	Br	0.785843	-0.006676	-0.191625
Br236	Br	1.119176	0.326657	0.141708
Br237	Br	1.452510	0.659991	0.475041
Br238	Br	1.002272	0.232380	-0.611652
Br239	Br	1.335606	0.565714	-0.278319
Br240	Br	1.668939	0.899047	0.055014
H241	H	0.977324	0.204911	-0.214302
H242	H	1.310657	0.538244	0.119031
H243	H	1.643991	0.871577	0.452365
H244	H	0.977340	0.204885	-0.365691
H245	H	1.310673	0.538218	-0.032357
H246	H	1.644006	0.871551	0.300976
