data_functionalizedCrystal
_audit_creation_method	'MofGen! by Chris Wilmer'
_symmetry_space_group_name_H-M	'P1'
_symmetry_Int_Tables_number	1
_symmetry_cell_setting	triclinic
loop_
_symmetry_equiv_pos_as_xyz
  x,y,z
_cell_length_a	21.295419
_cell_length_b	21.295417
_cell_length_c	12.759393
_cell_angle_alpha	90.038651
_cell_angle_beta	90.022273
_cell_angle_gamma	90.045308
loop_
_atom_site_label
_atom_site_type_symbol
_atom_site_fract_x
_atom_site_fract_y
_atom_site_fract_z
Zn1	Zn	0.962342	-0.250327	0.594015
Zn2	Zn	0.962248	-0.355610	0.418312
Zn3	Zn	0.857069	-0.250386	0.418345
Zn4	Zn	0.857034	-0.355589	0.593944
O5	O	0.909673	-0.302978	0.506154
O6	O	1.050419	-0.264277	0.570724
O7	O	0.948271	-0.341685	0.271295
O8	O	0.871087	-0.162288	0.441692
O9	O	1.050350	-0.341628	0.441636
O10	O	0.948431	-0.162245	0.570756
O11	O	0.870997	-0.264377	0.271319
O12	O	0.768975	-0.264357	0.441622
O13	O	0.871028	-0.341593	0.740974
O14	O	0.768949	-0.341650	0.570634
O15	O	0.948397	-0.264257	0.741027
O16	O	0.948238	-0.443696	0.441566
O17	O	0.870937	-0.443681	0.570602
C18	C	0.746122	-0.303008	0.506125
C19	C	0.676153	-0.303036	0.506137
C20	C	0.909591	-0.466529	0.506096
C21	C	0.909613	-0.536498	0.506106
C22	C	0.643345	-0.262825	0.573457
C23	C	0.577602	-0.262808	0.573461
C24	C	0.544671	-0.303014	0.506156
C25	C	0.577487	-0.343227	0.438823
C26	C	0.643229	-0.343239	0.438813
N27	N	0.441396	-0.358092	0.497945
N28	N	0.378944	-0.358080	0.497960
C29	C	0.346596	-0.302981	0.506179
N30	N	0.379059	-0.247894	0.514403
N31	N	0.441516	-0.247907	0.514393
C32	C	0.473386	-0.303005	0.506158
C33	C	0.242502	-0.262748	0.573507
C34	C	0.176759	-0.262730	0.573504
C35	C	0.176645	-0.343155	0.438871
C36	C	0.242387	-0.343167	0.438869
C37	C	0.275312	-0.302965	0.506193
C38	C	0.949899	-0.569351	0.438986
C39	C	0.949928	-0.635094	0.439010
C40	C	0.909661	-0.667980	0.506142
C41	C	0.869372	-0.635118	0.573275
C42	C	0.869348	-0.569377	0.573257
N43	N	0.854593	-0.771259	0.514142
N44	N	0.854618	-0.833711	0.514153
C45	C	0.909731	-0.866055	0.506203
N46	N	0.964820	-0.833588	0.498220
N47	N	0.964795	-0.771131	0.498204
C48	C	0.909682	-0.739265	0.506170
C49	C	0.950053	-0.970194	0.439104
C50	C	0.950083	-1.035938	0.439135
C51	C	0.869521	-1.035961	0.573396
C52	C	0.869496	-0.970219	0.573370
C53	C	0.909761	-0.937339	0.506219
C54	C	1.073863	-0.302948	0.506184
C55	C	1.143832	-0.302935	0.506197
C56	C	0.909719	-0.302916	0.780188
C57	C	0.909738	-0.302889	0.896964
C58	C	0.909773	-0.138787	0.506235
C59	C	0.909816	-0.068819	0.506270
C60	C	0.909664	-0.302994	0.233187
C61	C	0.909766	-0.302843	0.116411
C62	C	0.950040	-0.262590	1.061587
C63	C	0.950028	-0.262615	0.951862
C64	C	0.869463	-0.343147	0.951796
C65	C	0.869478	-0.343125	1.061518
C66	C	1.024260	-0.240141	0.801944
C67	C	1.064529	-0.199878	0.747116
C68	C	1.074237	-0.138446	0.782764
C69	C	1.043667	-0.117265	0.873239
C70	C	1.003394	-0.157525	0.928061
C71	C	0.993698	-0.218965	0.892414
C72	C	0.795245	-0.365593	1.211439
C73	C	0.754968	-0.405849	1.266263
C74	C	0.745254	-0.467282	1.230617
C75	C	0.775813	-0.488461	1.140138
C76	C	0.816090	-0.448204	1.085314
C77	C	0.825805	-0.386772	1.120968
H78	H	0.550885	-0.230061	0.628280
H79	H	0.836689	-0.943467	0.628022
H80	H	0.982686	-0.542582	0.384310
O81	O	0.989209	-0.223553	1.115026
C82	C	1.029863	-0.259373	1.178465
H83	H	1.007633	-0.307078	1.194871
H84	H	1.038326	-0.233715	1.255638
H85	H	1.076502	-0.266291	1.136187
H86	H	0.712474	-0.500066	1.275287
O87	O	0.545472	-0.382351	0.373595
C88	C	0.507413	-0.423035	0.433291
H89	H	0.527247	-0.426985	0.516021
H90	H	0.506610	-0.471453	0.395142
H91	H	0.457609	-0.403567	0.436981
H92	H	0.150047	-0.229982	0.628323
H93	H	0.730066	-0.388592	1.339912
H94	H	0.669941	-0.375984	0.383991
H95	H	0.836587	-0.661899	0.627937
O96	O	0.675230	-0.223708	0.638876
C97	C	0.632169	-0.188223	0.698312
H98	H	0.585295	-0.186009	0.655295
H99	H	0.651211	-0.138635	0.709665
H100	H	0.625181	-0.211328	0.778037
H101	H	0.149832	-0.375891	0.384070
O102	O	0.830318	-1.067831	0.638559
C103	C	0.767578	-1.051865	0.615481
H104	H	0.766266	-1.004155	0.575077
H105	H	0.739328	-1.049611	0.691263
H106	H	0.746408	-1.088919	0.561446
H107	H	0.978497	-0.140276	1.001715
H108	H	0.803155	-0.315570	1.240475
O109	O	0.274232	-0.382325	0.373594
C110	C	0.258100	-0.445076	0.396347
H111	H	0.240049	-0.448309	0.480272
H112	H	0.301301	-0.476178	0.387196
H113	H	0.219908	-0.461484	0.339975
O114	O	0.274393	-0.223636	0.638932
C115	C	0.231334	-0.188148	0.698367
H116	H	0.184463	-0.185925	0.655342
H117	H	0.250383	-0.138564	0.709731
H118	H	0.224337	-0.211257	0.778087
O119	O	0.989082	-0.666919	0.373703
C120	C	1.024627	-0.623802	0.314452
H121	H	0.998831	-0.576968	0.310766
H122	H	1.031367	-0.642831	0.231689
H123	H	1.072424	-0.616739	0.352987
O124	O	1.094157	-0.220392	0.659130
C125	C	1.076498	-0.182588	0.573381
H126	H	1.029370	-0.159412	0.590550
H127	H	1.072225	-0.212967	0.500121
H128	H	1.113616	-0.144816	0.560134
O129	O	0.766334	-0.548166	1.105678
C130	C	0.724224	-0.579152	1.173456
H131	H	0.724967	-0.555359	1.253509
H132	H	0.738892	-0.630355	1.182195
H133	H	0.674763	-0.576799	1.139473
H134	H	0.836542	-0.542627	0.627916
H135	H	0.982841	-0.943422	0.384429
O136	O	1.053185	-0.057577	0.907744
C137	C	1.095273	-0.026579	0.839941
H138	H	1.124940	-0.062790	0.796635
H139	H	1.127231	0.005581	0.887551
H140	H	1.067682	0.002536	0.780813
O141	O	0.989240	-1.067756	0.373833
C142	C	1.024781	-1.024635	0.314582
H143	H	0.998980	-0.977805	0.310893
H144	H	1.031526	-1.043666	0.231821
H145	H	1.072577	-1.017566	0.353120
O146	O	1.014952	-0.299832	0.767291
C147	C	1.072729	-0.332106	0.765812
H148	H	1.112866	-0.296788	0.760695
H149	H	1.074298	-0.364694	0.694941
H150	H	1.077745	-0.360934	0.840599
H151	H	1.107025	-0.105664	0.738116
O152	O	0.830417	-0.382301	0.898347
C153	C	0.866228	-0.422970	0.834884
H154	H	0.913945	-0.400760	0.818484
H155	H	0.840577	-0.431422	0.757710
H156	H	0.873121	-0.469612	0.877139
H157	H	0.840972	-0.465453	1.011642
