data_functionalizedCrystal
_audit_creation_method	'MofGen! by Chris Wilmer'
_symmetry_space_group_name_H-M	'P1'
_symmetry_Int_Tables_number	1
_symmetry_cell_setting	triclinic
loop_
_symmetry_equiv_pos_as_xyz
  x,y,z
_cell_length_a	16.625547
_cell_length_b	12.759393
_cell_length_c	16.625539
_cell_angle_alpha	90.022777
_cell_angle_beta	89.975178
_cell_angle_gamma	89.985236
loop_
_atom_site_label
_atom_site_type_symbol
_atom_site_fract_x
_atom_site_fract_y
_atom_site_fract_z
Zn1	Zn	1.232723	0.418266	-0.456032
Zn2	Zn	1.732723	0.918266	0.043968
Zn3	Zn	1.232645	0.593967	-0.321212
Zn4	Zn	1.732645	1.093967	0.178788
Zn5	Zn	1.097885	0.418303	-0.321202
Zn6	Zn	1.597885	0.918303	0.178798
Zn7	Zn	1.097874	0.593904	-0.455992
Zn8	Zn	1.597874	1.093904	0.044008
O9	O	1.165282	0.506110	-0.388610
O10	O	1.665282	1.006110	0.111390
O11	O	1.345545	0.441585	-0.438168
O12	O	1.845545	0.941585	0.061832
O13	O	1.214740	0.570707	-0.208378
O14	O	1.714740	1.070707	0.291622
O15	O	1.115810	0.271277	-0.339100
O16	O	1.615810	0.771277	0.160900
O17	O	1.345487	0.570672	-0.339117
O18	O	1.845487	1.070672	0.160883
O19	O	1.214875	0.271250	-0.438159
O20	O	1.714875	0.771250	0.061841
O21	O	1.115733	0.441647	-0.208371
O22	O	1.615733	0.941647	0.291629
O23	O	0.985051	0.441585	-0.339062
O24	O	1.485051	0.941585	0.160938
O25	O	1.115790	0.570563	-0.568830
O26	O	1.615790	1.070563	-0.068830
O27	O	0.985043	0.570598	-0.438091
O28	O	1.485043	1.070598	0.061909
O29	O	1.214863	0.441523	-0.568859
O30	O	1.714863	0.941523	-0.068859
O31	O	1.214729	0.740980	-0.339078
O32	O	1.714729	1.240980	0.160922
O33	O	1.115713	0.740933	-0.438100
O34	O	1.615713	1.240933	0.061900
C35	C	0.955791	0.506090	-0.388571
C36	C	1.455791	1.006090	0.111429
C37	C	0.866170	0.506106	-0.388574
C38	C	1.366170	1.006106	0.111426
C39	C	1.165233	0.779078	-0.388604
C40	C	1.665233	1.279078	0.111396
C41	C	1.165286	0.895854	-0.388628
C42	C	1.665286	1.395854	0.111372
C43	C	0.793387	0.506108	-0.388584
C44	C	1.293387	1.006108	0.111416
C45	C	0.702079	0.506114	-0.388604
C46	C	1.202079	1.006114	0.111396
C47	C	0.629302	0.506123	-0.388625
C48	C	1.129302	1.006123	0.111375
C49	C	0.537988	0.506131	-0.388644
C50	C	1.037988	1.006131	0.111356
C51	C	1.268469	0.895850	-0.285594
C52	C	1.768469	1.395850	0.214406
C53	C	1.320081	0.950708	-0.234089
C54	C	1.820081	1.450708	0.265911
C55	C	1.320128	1.060430	-0.234116
C56	C	1.820128	1.560430	0.265884
C57	C	1.268559	1.115295	-0.285656
C58	C	1.768559	1.615295	0.214344
C59	C	1.216947	1.060437	-0.337161
C60	C	1.716947	1.560437	0.162839
C61	C	1.216904	0.950713	-0.337126
C62	C	1.716904	1.450713	0.162874
C63	C	1.113770	1.060441	-0.440198
C64	C	1.613770	1.560441	0.059802
C65	C	1.113718	0.950720	-0.440168
C66	C	1.613718	1.450720	0.059832
C67	C	1.062201	1.115307	-0.491738
C68	C	1.562201	1.615307	0.008262
C69	C	1.010584	1.060448	-0.543240
C70	C	1.510584	1.560448	-0.043240
C71	C	1.010538	0.950720	-0.543210
C72	C	1.510538	1.450720	-0.043210
C73	C	1.062105	0.895861	-0.491673
C74	C	1.562105	1.395861	0.008327
C75	C	1.375591	0.506131	-0.388648
C76	C	1.875591	1.006131	0.111352
C77	C	1.465212	0.506140	-0.388665
C78	C	1.965212	1.006140	0.111335
C79	C	1.165334	0.506032	-0.598919
C80	C	1.665334	1.006032	-0.098919
C81	C	1.165356	0.505998	-0.688540
C82	C	1.665356	1.005998	-0.188540
C83	C	1.165352	1.232077	-0.388646
C84	C	1.665352	1.732077	0.111354
C85	C	1.165382	1.115300	-0.388693
C86	C	1.665382	1.615300	0.111307
C87	C	1.165394	0.505881	-1.016716
C88	C	1.665394	1.005881	-0.516716
C89	C	1.165381	0.505917	-0.925407
C90	C	1.665381	1.005917	-0.425407
C91	C	1.165375	0.505940	-0.852631
C92	C	1.665375	1.005940	-0.352631
C93	C	1.165362	0.505975	-0.761316
C94	C	1.665362	1.005975	-0.261316
C95	C	1.165276	0.506112	-0.179119
C96	C	1.665276	1.006112	0.320881
C97	C	1.165410	0.505850	-0.089498
C98	C	1.665410	1.005850	0.410502
H99	H	1.268425	0.806509	-0.285556
H100	H	1.768425	1.306509	0.214444
O101	O	1.375705	0.891539	-0.178502
O102	O	1.875705	1.391539	0.321498
H103	H	1.438986	0.912523	-0.192405
H104	H	1.938986	1.412523	0.307595
O105	O	1.375806	1.119616	-0.178584
O106	O	1.875806	1.619616	0.321416
H107	H	1.339764	1.169700	-0.137548
H108	H	1.839764	1.669700	0.362452
O109	O	0.954963	1.119628	-0.598814
O110	O	1.454963	1.619628	-0.098814
H111	H	0.991052	1.169545	-0.639881
H112	H	1.491052	1.669545	-0.139881
O113	O	1.268610	1.233638	-0.285683
O114	O	1.768610	1.733638	0.214317
H115	H	1.329432	1.262488	-0.302036
H116	H	1.829432	1.762488	0.197964
H117	H	1.062068	0.806520	-0.491638
H118	H	1.562068	1.306520	0.008362
O119	O	1.062241	1.233650	-0.491766
O120	O	1.562241	1.733650	0.008234
H121	H	1.106785	1.262582	-0.447286
H122	H	1.606785	1.762582	0.052714
H123	H	0.968512	0.906060	-0.585155
H124	H	1.468512	1.406060	-0.085155
