data_functionalizedCrystal
_audit_creation_method	'MofGen! by Chris Wilmer'
_symmetry_space_group_name_H-M	'P1'
_symmetry_Int_Tables_number	1
_symmetry_cell_setting	triclinic
loop_
_symmetry_equiv_pos_as_xyz
  x,y,z
_cell_length_a	6.817900
_cell_length_b	12.200863
_cell_length_c	10.943624
_cell_angle_alpha	92.412930
_cell_angle_beta	108.838799
_cell_angle_gamma	107.143441
loop_
_atom_site_label
_atom_site_type_symbol
_atom_site_fract_x
_atom_site_fract_y
_atom_site_fract_z
V1	V	-4.106715	-0.158682	-0.402682
O2	O	-4.073628	0.007656	-0.394882
O3	O	-4.076034	-0.314670	-0.400058
O4	O	-4.084813	-0.156228	-0.578247
O5	O	-4.064787	-0.151883	-0.215460
V6	V	-4.584613	-0.138788	-0.380273
O7	O	-4.380311	-0.202322	-0.451839
O8	O	-4.761214	-0.095148	-0.331117
O9	O	-4.392088	0.017200	-0.382897
O10	O	-4.735097	-0.305127	-0.388074
O11	O	-4.743937	-0.145587	-0.567496
O12	O	-4.383308	-0.141242	-0.204709
C13	C	-3.924487	-0.352697	-0.393739
C14	C	-3.980865	-0.480219	-0.392764
C15	C	-4.084050	-0.713696	-0.390988
C16	C	-4.026623	-0.583773	-0.391976
C17	C	-3.935685	-0.150587	-0.621035
C18	C	-3.999179	-0.149612	-0.764560
C19	C	-3.844372	-0.143049	-0.841703
C20	C	-4.028340	-0.240467	-0.947773
C21	C	-3.928372	-0.050468	-0.914229
C22	C	-4.182352	-0.247122	-0.868755
C23	C	-4.082309	-0.057036	-0.835187
C24	C	-4.266412	-0.154483	-0.941228
C25	C	-4.206976	0.055221	-0.389213
C26	C	-4.129837	0.182742	-0.390197
C27	C	-4.195777	-0.146887	-0.161914
C28	C	-4.111521	-0.147856	-0.018387
H29	H	-3.665432	-0.138345	-0.798250
H30	H	-4.289131	-0.330325	-0.848279
C31	C	-4.508279	-0.161043	-0.999669
H32	H	-4.598623	-0.230919	-0.984453
H33	H	-4.528184	-0.096537	-0.959609
H34	H	-4.547257	-0.159748	-1.091019
H35	H	-4.104378	0.020515	-0.786139
C36	C	-3.784171	0.061815	-0.942123
H37	H	-3.874184	0.104066	-0.987834
H38	H	-3.682281	0.107832	-0.861964
H39	H	-3.707099	0.042808	-0.993805
C40	C	-3.998420	-0.345218	-1.014002
H41	H	-3.848970	-0.341058	-0.979743
H42	H	-4.087232	-0.414988	-0.997634
H43	H	-4.040556	-0.344215	-1.105493
