data_functionalizedCrystal
_audit_creation_method	'MofGen! by Chris Wilmer'
_symmetry_space_group_name_H-M	'P1'
_symmetry_Int_Tables_number	1
_symmetry_cell_setting	triclinic
loop_
_symmetry_equiv_pos_as_xyz
  x,y,z
_cell_length_a	19.121063
_cell_length_b	17.077404
_cell_length_c	19.121278
_cell_angle_alpha	87.576072
_cell_angle_beta	89.864274
_cell_angle_gamma	87.533933
loop_
_atom_site_label
_atom_site_type_symbol
_atom_site_fract_x
_atom_site_fract_y
_atom_site_fract_z
Zn1	Zn	-0.262257	-1.168041	-0.408297
Zn2	Zn	0.237743	-0.668041	0.091703
Zn3	Zn	-0.384501	-1.167465	-0.296054
Zn4	Zn	0.115499	-0.667465	0.203946
Zn5	Zn	-0.267274	-1.042128	-0.291073
Zn6	Zn	0.232726	-0.542128	0.208927
Zn7	Zn	-0.379455	-1.030906	-0.413250
Zn8	Zn	0.120545	-0.530906	0.086750
O9	O	-0.323372	-1.102135	-0.352168
O10	O	0.176628	-0.602135	0.147832
O11	O	-0.278485	-1.277811	-0.393419
O12	O	0.221515	-0.777811	0.106581
O13	O	-0.373161	-1.155294	-0.197288
O14	O	0.126839	-0.655294	0.302712
O15	O	-0.168502	-1.063768	-0.302466
O16	O	0.331498	-0.563768	0.197534
O17	O	-0.368297	-1.277387	-0.310955
O18	O	0.131703	-0.777387	0.189045
O19	O	-0.164816	-1.156276	-0.388590
O20	O	0.335184	-0.656276	0.111410
O21	O	-0.287036	-1.063209	-0.193629
O22	O	0.212964	-0.563209	0.306371
O23	O	-0.282143	-0.930793	-0.307269
O24	O	0.217857	-0.430793	0.192731
O25	O	-0.359697	-1.044642	-0.510698
O26	O	0.140303	-0.544642	-0.010698
O27	O	-0.364562	-0.922549	-0.397031
O28	O	0.135438	-0.422549	0.102969
O29	O	-0.273593	-1.145395	-0.507059
O30	O	0.226407	-0.645395	-0.007059
O31	O	-0.481938	-1.144413	-0.315757
O32	O	0.018062	-0.644413	0.184243
O33	O	-0.478231	-1.044084	-0.401860
O34	O	0.021769	-0.544084	0.098140
C35	C	-0.323350	-0.898189	-0.352147
C36	C	0.176650	-0.398189	0.147853
C37	C	-0.323357	-0.810939	-0.352156
C38	C	0.176643	-0.310939	0.147844
C39	C	-0.276668	-0.770163	-0.395166
C40	C	0.223332	-0.270163	0.104834
C41	C	-0.276671	-0.688182	-0.395168
C42	C	0.223329	-0.188182	0.104832
C43	C	-0.323367	-0.646979	-0.352162
C44	C	0.176633	-0.146979	0.147838
C45	C	-0.370058	-0.687760	-0.309147
C46	C	0.129942	-0.187760	0.190853
C47	C	-0.370051	-0.769740	-0.309142
C48	C	0.129949	-0.269740	0.190858
C49	C	-0.370071	-0.516889	-0.309162
C50	C	0.129929	-0.016889	0.190838
C51	C	-0.370079	-0.434904	-0.309167
C52	C	0.129921	0.065096	0.190833
C53	C	-0.276692	-0.435331	-0.395187
C54	C	0.223308	0.064669	0.104813
C55	C	-0.276684	-0.517311	-0.395182
C56	C	0.223316	-0.017311	0.104818
C57	C	-0.323376	-0.558087	-0.352168
C58	C	0.176624	-0.058087	0.147832
C59	C	-0.505522	-1.092989	-0.359902
C60	C	-0.005522	-0.592989	0.140098
C61	C	-0.583446	-1.089147	-0.363234
C62	C	-0.083446	-0.589147	0.136766
C63	C	-0.621960	-1.139615	-0.320007
C64	C	-0.121960	-0.639615	0.179993
C65	C	-0.695177	-1.136006	-0.323145
C66	C	-0.195177	-0.636006	0.176855
C67	C	-0.729879	-1.081924	-0.369506
C68	C	-0.229879	-0.581924	0.130494
C69	C	-0.691360	-1.031454	-0.412738
C70	C	-0.191360	-0.531454	0.087262
C71	C	-0.618144	-1.035067	-0.409603
C72	C	-0.118144	-0.535067	0.090397
C73	C	-0.950849	-1.068402	-0.381215
C74	C	-0.450849	-0.568402	0.118785
C75	C	-1.024071	-1.064791	-0.384345
C76	C	-0.524071	-0.564791	0.115655
C77	C	-1.027882	-1.169345	-0.294752
C78	C	-0.527882	-0.669345	0.205248
C79	C	-0.954665	-1.172950	-0.291619
C80	C	-0.454665	-0.672950	0.208381
C81	C	-0.916152	-1.122483	-0.334853
C82	C	-0.416152	-0.622483	0.165147
C83	C	-0.804719	-1.078232	-0.372713
C84	C	-0.304719	-0.578232	0.127287
C85	C	-0.841313	-1.126179	-0.331649
C86	C	-0.341313	-0.626179	0.168351
C87	C	-0.140509	-1.111338	-0.344420
C88	C	0.359491	-0.611338	0.155580
C89	C	-0.062584	-1.115260	-0.341118
C90	C	0.437416	-0.615260	0.158882
C91	C	-0.315522	-1.093831	-0.535027
C92	C	0.184478	-0.593831	-0.035027
C93	C	-0.312178	-1.090292	-0.612951
C94	C	0.187822	-0.590292	-0.112951
C95	C	-0.323391	-0.306878	-0.352184
C96	C	0.176609	0.193122	0.147816
C97	C	-0.323391	-0.394128	-0.352178
C98	C	0.176609	0.105872	0.147822
C99	C	-0.291017	-1.067877	-1.053576
C100	C	0.208983	-0.567877	-0.553576
C101	C	-0.294157	-1.071205	-0.980358
C102	C	0.205843	-0.571205	-0.480358
C103	C	-0.340572	-1.120809	-0.945654
C104	C	0.159428	-0.620809	-0.445654
C105	C	-0.383844	-1.167093	-0.984171
C106	C	0.116156	-0.667093	-0.484171
C107	C	-0.380700	-1.163768	-1.057387
C108	C	0.119300	-0.663768	-0.557387
C109	C	-0.352306	-1.133251	-0.724684
C110	C	0.147694	-0.633251	-0.224684
C111	C	-0.355448	-1.136571	-0.651462
C112	C	0.144552	-0.636571	-0.151462
C113	C	-0.265760	-1.040684	-0.647655
C114	C	0.234240	-0.540684	-0.147655
C115	C	-0.262623	-1.037360	-0.720873
C116	C	0.237377	-0.537360	-0.220873
C117	C	-0.305892	-1.083647	-0.759383
C118	C	0.194108	-0.583647	-0.259383
C119	C	-0.343784	-1.124211	-0.870814
C120	C	0.156216	-0.624211	-0.370814
C121	C	-0.302676	-1.080248	-0.834221
C122	C	0.197324	-0.580248	-0.334221
C123	C	-0.331140	-1.110454	-0.170019
C124	C	0.168860	-0.610454	0.329981
C125	C	-0.334287	-1.114155	-0.092087
C126	C	0.165713	-0.614155	0.407913
H127	H	-0.238654	-0.654986	-0.430192
H128	H	0.261346	-0.154986	0.069808
N129	N	-0.840158	-1.022972	-0.420061
N130	N	-0.340158	-0.522972	0.079939
N131	N	-0.805767	-0.977904	-0.458649
N132	N	-0.305767	-0.477904	0.041351
H133	H	-0.830796	-0.938876	-0.492089
H134	H	-0.330796	-0.438876	0.007911
N135	N	-0.228975	-0.393698	-0.439112
N136	N	0.271025	0.106302	0.060888
N137	N	-0.187281	-0.430496	-0.477501
N138	N	0.312719	0.069504	0.022499
H139	H	-0.153580	-0.401091	-0.508520
H140	H	0.346420	0.098909	-0.008520
H141	H	-0.586786	-0.993971	-0.444804
H142	H	-0.086786	-0.493971	0.055196
N143	N	-0.911510	-1.016864	-0.425382
N144	N	-0.411510	-0.516864	0.074618
N145	N	-0.868707	-1.044437	-0.468333
N146	N	-0.368707	-0.544437	0.031667
H147	H	-0.840922	-1.008038	-0.499531
H148	H	-0.340922	-0.508038	0.000469
H149	H	-0.408091	-0.550087	-0.274133
H150	H	0.091909	-0.050087	0.225867
N151	N	-0.726818	-0.976210	-0.460086
N152	N	-0.226818	-0.476210	0.039914
N153	N	-0.768778	-0.925317	-0.437127
N154	N	-0.268778	-0.425317	0.062873
H155	H	-0.793821	-0.886298	-0.470565
H156	H	-0.293821	-0.386298	0.029435
N157	N	-0.417754	-0.811392	-0.265220
N158	N	0.082246	-0.311392	0.234780
N159	N	-0.461408	-0.853785	-0.291708
N160	N	0.038592	-0.353785	0.208292
H161	H	-0.495099	-0.883201	-0.260685
H162	H	0.004901	-0.383201	0.239315
H163	H	-0.238645	-0.803705	-0.430188
H164	H	0.261355	-0.303705	0.069812
H165	H	-0.238664	-0.550856	-0.430205
H166	H	0.261336	-0.050856	0.069795
H167	H	-1.059247	-1.210434	-0.259555
H168	H	-0.559247	-0.710434	0.240445
N169	N	-0.243602	-1.017218	-1.089033
N170	N	0.256398	-0.517218	-0.589033
N171	N	-0.240797	-1.014256	-1.154403
N172	N	0.259203	-0.514256	-0.654403
H173	H	-0.207307	-0.978480	-1.179445
H174	H	0.292693	-0.478480	-0.679445
H175	H	-0.258923	-1.033519	-0.949005
H176	H	0.241077	-0.533519	-0.449005
H177	H	-0.408103	-0.401358	-0.274149
H178	H	0.091897	0.098642	0.225851
H179	H	-0.813057	-1.170215	-0.293904
H180	H	-0.313057	-0.670215	0.206096
H181	H	-0.408075	-0.654206	-0.274128
H182	H	0.091925	-0.154206	0.225872
H183	H	-0.593710	-1.183651	-0.282251
H184	H	-0.093710	-0.683651	0.217749
N185	N	-0.734507	-1.187575	-0.278995
N186	N	-0.234507	-0.687575	0.221005
N187	N	-0.703514	-1.235862	-0.237607
N188	N	-0.203514	-0.735862	0.262393
H189	H	-0.731290	-1.272290	-0.206427
H190	H	-0.231290	-0.772290	0.293573
H191	H	-0.415934	-1.201454	-1.088742
H192	H	0.084066	-0.701454	-0.588742
H193	H	-0.224830	-0.996964	-0.749124
H194	H	0.275170	-0.496964	-0.249124
H195	H	-0.230531	-1.003001	-0.616292
H196	H	0.269469	-0.503001	-0.116292
N197	N	-0.402867	-1.187231	-0.616004
N198	N	0.097133	-0.687231	-0.116004
N199	N	-0.449293	-1.159209	-0.577046
N200	N	0.050707	-0.659209	-0.077046
H201	H	-0.482784	-1.194982	-0.552003
H202	H	0.017216	-0.694982	-0.052003
N203	N	-0.919231	-1.228196	-0.244255
N204	N	-0.419231	-0.728196	0.255745
N205	N	-0.953627	-1.273254	-0.205661
N206	N	-0.453627	-0.773254	0.294339
H207	H	-0.928603	-1.312270	-0.172207
H208	H	-0.428603	-0.812270	0.327793
N209	N	-0.396518	-1.180523	-0.764004
N210	N	0.103482	-0.680523	-0.264004
N211	N	-0.437964	-1.224798	-0.733008
N212	N	0.062036	-0.724798	-0.233008
H213	H	-0.469196	-1.258182	-0.760780
H214	H	0.030804	-0.758182	-0.260780
N215	N	-0.431248	-1.217763	-0.948712
N216	N	0.068752	-0.717763	-0.448712
N217	N	-0.434051	-1.220725	-0.883341
N218	N	0.065949	-0.720725	-0.383341
H219	H	-0.467533	-1.256510	-0.858299
H220	H	0.032467	-0.756510	-0.358299
H221	H	-1.052322	-1.020760	-0.422110
H222	H	-0.552322	-0.520760	0.077890
H223	H	-0.264882	-1.039865	-0.862481
H224	H	0.235118	-0.539865	-0.362481
N225	N	-0.391191	-1.174881	-0.835360
N226	N	0.108809	-0.674881	-0.335360
N227	N	-0.368287	-1.227999	-0.793464
N228	N	0.131713	-0.727999	-0.293464
H229	H	-0.401768	-1.263786	-0.768422
H230	H	0.098232	-0.763786	-0.268422
