data_functionalizedCrystal
_audit_creation_method	'MofGen! by Chris Wilmer'
_symmetry_space_group_name_H-M	'P1'
_symmetry_Int_Tables_number	1
_symmetry_cell_setting	triclinic
loop_
_symmetry_equiv_pos_as_xyz
  x,y,z
_cell_length_a	12.645330
_cell_length_b	12.827893
_cell_length_c	12.827885
_cell_angle_alpha	89.980728
_cell_angle_beta	89.971022
_cell_angle_gamma	90.017662
loop_
_atom_site_label
_atom_site_type_symbol
_atom_site_fract_x
_atom_site_fract_y
_atom_site_fract_z
Zn1	Zn	-0.421989	1.597653	-0.590855
Zn2	Zn	-0.599290	1.597540	-0.416117
Zn3	Zn	-0.422040	1.422894	-0.416128
Zn4	Zn	-0.599211	1.422873	-0.590817
O5	O	-0.510632	1.510240	-0.503479
O6	O	-0.445520	1.743874	-0.567686
O7	O	-0.575832	1.574335	-0.269883
O8	O	-0.273686	1.446133	-0.439326
O9	O	-0.575782	1.743791	-0.439308
O10	O	-0.273648	1.574527	-0.567697
O11	O	-0.445608	1.446023	-0.269891
O12	O	-0.445531	1.276655	-0.439290
O13	O	-0.575647	1.446096	-0.737058
O14	O	-0.575697	1.276639	-0.567633
O15	O	-0.445443	1.574506	-0.737086
O16	O	-0.747626	1.574314	-0.439271
O17	O	-0.747568	1.445986	-0.567623
C18	C	-0.510612	1.238730	-0.503459
C19	C	-0.510629	1.122577	-0.503476
C20	C	-0.786062	1.510164	-0.503465
C21	C	-0.903892	1.510227	-0.503493
C22	C	-0.446152	0.950728	-0.440098
C23	C	-0.446133	1.070779	-0.440080
C24	C	-1.071464	1.429829	-0.584488
C25	C	-0.948904	1.429418	-0.584228
C26	C	-0.948494	1.480414	-0.393362
C27	C	-1.071093	1.479923	-0.393854
C28	C	-1.070979	1.620929	-0.531736
C29	C	-0.948372	1.620251	-0.534144
C30	C	-0.234127	1.510345	-0.503517
C31	C	-0.116297	1.510390	-0.503533
C32	C	-0.510531	1.510311	-0.776050
C33	C	-0.510487	1.510341	-0.892203
C34	C	-0.510654	1.782810	-0.503500
C35	C	-0.510663	1.898963	-0.503509
C36	C	-0.574844	1.446853	-1.064018
C37	C	-0.574890	1.446820	-0.943968
C38	C	-0.510657	1.510229	-0.231969
C39	C	-0.510402	1.510401	-0.115817
H40	H	-0.390932	0.906169	-0.385828
Br41	Br	-1.122377	1.666259	-0.663312
H42	H	-1.102366	1.348392	-0.566042
Br43	Br	-0.899781	1.657728	-0.669236
H44	H	-0.917885	1.400452	-0.369038
H45	H	-0.390906	1.115295	-0.385788
Br46	Br	-0.897284	1.725568	-0.443034
H47	H	-0.565865	1.078067	-0.557763
Br48	Br	-0.602690	0.973220	-0.593984
Br49	Br	-0.418489	1.601038	-1.041608
H50	H	-0.918744	1.448070	-0.665889
H51	H	-0.919671	1.347469	-0.565543
Br52	Br	-1.120477	1.460624	-0.721049
H53	H	-1.099786	1.399118	-0.369962
H54	H	-1.100754	1.536054	-0.331479
Br55	Br	-1.119323	1.720972	-0.433479
Br56	Br	-0.899910	1.575110	-0.290076
H57	H	-0.629977	1.392468	-1.108549
H58	H	-0.630065	1.392418	-0.899423
H59	H	-0.455317	1.564754	-0.936741
