data_functionalizedCrystal
_audit_creation_method	'MofGen! by Chris Wilmer'
_symmetry_space_group_name_H-M	'P1'
_symmetry_Int_Tables_number	1
_symmetry_cell_setting	triclinic
loop_
_symmetry_equiv_pos_as_xyz
  x,y,z
_cell_length_a	14.519731
_cell_length_b	12.996460
_cell_length_c	10.723024
_cell_angle_alpha	89.999097
_cell_angle_beta	84.078361
_cell_angle_gamma	90.006310
loop_
_atom_site_label
_atom_site_type_symbol
_atom_site_fract_x
_atom_site_fract_y
_atom_site_fract_z
O1	O	1.224694	0.085566	0.163692
O2	O	1.558028	0.418900	0.497026
O3	O	1.891361	0.752233	0.830359
O4	O	0.956318	0.085568	0.182928
O5	O	1.289652	0.418901	0.516261
O6	O	1.622985	0.752234	0.849594
O7	O	1.096697	0.085563	-0.008323
O8	O	1.430030	0.418897	0.325010
O9	O	1.763364	0.752230	0.658343
O10	O	1.084316	0.085571	0.354944
O11	O	1.417649	0.418904	0.688277
O12	O	1.750983	0.752238	1.021610
O13	O	1.096679	-0.085571	-0.008312
O14	O	1.430012	0.247763	0.325021
O15	O	1.763345	0.581096	0.658354
O16	O	0.956300	-0.085566	0.182939
O17	O	1.289634	0.247767	0.516272
O18	O	1.622967	0.581101	0.849606
O19	O	1.224676	-0.085567	0.163704
O20	O	1.558010	0.247766	0.497037
O21	O	1.891343	0.581099	0.830370
Cu22	Cu	1.090487	-0.101193	0.173322
Cu23	Cu	1.423820	0.232141	0.506656
Cu24	Cu	1.757153	0.565474	0.839989
Cu25	Cu	1.090508	0.101193	0.173309
Cu26	Cu	1.423841	0.434526	0.506642
Cu27	Cu	1.757175	0.767860	0.839976
O28	O	1.084298	-0.085563	0.354955
O29	O	1.417631	0.247770	0.688288
O30	O	1.750964	0.581104	1.021621
C31	C	0.921945	0.000001	0.182032
C32	C	1.255279	0.333334	0.515365
C33	C	1.588612	0.666668	0.848699
C34	C	0.819551	0.000001	0.179331
C35	C	1.152885	0.333335	0.512665
C36	C	1.486218	0.666668	0.845998
C37	C	0.736396	0.000006	0.177137
C38	C	1.069729	0.333339	0.510470
C39	C	1.403063	0.666672	0.843803
C40	C	0.632073	0.000006	0.174395
C41	C	0.965407	0.333339	0.507728
C42	C	1.298740	0.666673	0.841061
C43	C	0.548923	0.000006	0.172218
C44	C	0.882256	0.333339	0.505552
C45	C	1.215590	0.666672	0.838885
C46	C	0.444594	0.000008	0.169476
C47	C	0.777927	0.333341	0.502810
C48	C	1.111260	0.666675	0.836143
N49	N	1.090478	-0.243540	0.173331
N50	N	1.423812	0.089794	0.506664
N51	N	1.757145	0.423127	0.839997
C52	C	1.090483	-0.336646	0.173334
C53	C	1.423816	-0.003312	0.506667
C54	C	1.757149	0.330021	0.840000
C55	C	1.090491	-0.453451	0.173325
C56	C	1.423824	-0.120118	0.506659
C57	C	1.757158	0.213216	0.839992
C58	C	1.090502	-0.546549	0.173312
C59	C	1.423836	-0.213216	0.506645
C60	C	1.757169	0.120118	0.839978
C61	C	1.090512	-0.663362	0.173305
C62	C	1.423846	-0.330028	0.506638
C63	C	1.757179	0.003305	0.839971
C64	C	1.259049	0.000002	0.164599
C65	C	1.592383	0.333335	0.497933
C66	C	1.925716	0.666668	0.831266
C67	C	1.361443	0.000008	0.167300
C68	C	1.694777	0.333341	0.500633
C69	C	2.028110	0.666674	0.833967
C70	C	1.095787	-0.000003	-0.054809
C71	C	1.429120	0.333331	0.278524
C72	C	1.762454	0.666664	0.611858
C73	C	1.093091	0.000001	-0.193338
C74	C	1.426425	0.333334	0.139995
C75	C	1.759758	0.666668	0.473328
N76	N	1.090524	0.243540	0.173291
N77	N	1.423857	0.576873	0.506624
N78	N	1.757190	0.910207	0.839957
C79	C	1.171640	0.000002	-0.269047
C80	C	1.504973	0.333336	0.064286
C81	C	1.838306	0.666669	0.397619
C82	C	1.168855	0.000006	-0.412225
C83	C	1.502189	0.333339	-0.078892
C84	C	1.835522	0.666673	0.254442
C85	C	1.085208	0.000005	0.401440
C86	C	1.418541	0.333338	0.734774
C87	C	1.751875	0.666672	1.068107
C88	C	1.087904	0.000008	0.539970
C89	C	1.421237	0.333341	0.873303
C90	C	1.754570	0.666675	1.206636
H91	H	1.240949	-0.000004	-0.227866
H92	H	1.574282	0.333329	0.105467
H93	H	1.907616	0.666662	0.438800
H94	H	1.236099	0.000002	-0.477280
H95	H	1.569432	0.333336	-0.143946
H96	H	1.902766	0.666669	0.189387
H97	H	1.020656	0.000000	-0.394983
H98	H	1.353990	0.333334	-0.061650
H99	H	1.687323	0.666667	0.271683
H100	H	1.023782	0.000008	-0.234520
H101	H	1.357115	0.333342	0.098814
H102	H	1.690448	0.666675	0.432147
