data_functionalizedCrystal
_audit_creation_method	'MofGen! by Chris Wilmer'
_symmetry_space_group_name_H-M	'P1'
_symmetry_Int_Tables_number	1
_symmetry_cell_setting	triclinic
loop_
_symmetry_equiv_pos_as_xyz
  x,y,z
_cell_length_a	16.109301
_cell_length_b	15.944551
_cell_length_c	14.586319
_cell_angle_alpha	89.995256
_cell_angle_beta	89.999213
_cell_angle_gamma	83.480109
loop_
_atom_site_label
_atom_site_type_symbol
_atom_site_fract_x
_atom_site_fract_y
_atom_site_fract_z
O1	O	1.103166	0.107966	-0.076184
O2	O	0.861108	0.121403	-0.076199
O3	O	0.988747	-0.007593	-0.076183
O4	O	0.975527	0.236961	-0.076200
O5	O	0.988738	-0.007595	0.076298
O6	O	0.861099	0.121401	0.076282
O7	O	1.103157	0.107964	0.076296
Cu8	Cu	0.982127	0.114682	0.090212
Cu9	Cu	0.982138	0.114685	-0.090114
O10	O	0.975518	0.236960	0.076280
C11	C	0.830129	0.120857	0.000039
C12	C	0.737833	0.119226	0.000034
C13	C	0.515584	0.191975	0.000040
C14	C	0.428863	0.190435	0.000046
C15	C	0.448688	0.037387	0.000053
C16	C	0.535407	0.038927	0.000053
C17	C	0.568853	0.116224	0.000042
C18	C	0.395412	0.113143	0.000047
C19	C	0.301386	0.111473	0.000054
C20	C	0.662885	0.117894	0.000037
C21	C	0.988194	-0.038887	0.000057
C22	C	0.986548	-0.132133	0.000058
C23	C	0.903499	-0.346962	0.000040
C24	C	0.942060	-0.407993	0.075225
C25	C	0.983572	-0.302858	0.000051
C26	C	0.942088	-0.407975	-0.075109
C27	C	0.980691	-0.467769	0.000040
C28	C	1.022155	-0.362660	0.075297
C29	C	1.022171	-0.362636	-0.075104
C30	C	1.060790	-0.423649	0.000099
C31	C	0.985229	-0.207856	0.000058
C32	C	0.979039	-0.562770	0.000039
C33	C	1.134136	0.108510	0.000056
C34	C	1.226432	0.110141	0.000055
C35	C	0.976071	0.268254	0.000038
C36	C	0.977717	0.361500	0.000031
N37	N	0.982126	0.114680	0.217044
N38	N	0.982146	0.114680	-0.216946
C39	C	1.038663	0.057580	0.452057
C40	C	1.038666	0.057578	0.548038
C41	C	0.925602	0.171783	0.548034
C42	C	0.925597	0.171780	0.452054
C43	C	0.982132	0.114680	0.404068
C44	C	0.982140	0.114680	0.596029
C45	C	0.982142	0.114679	0.700096
C46	C	0.982129	0.114680	0.299995
H47	H	0.578781	-0.022762	0.000058
H48	H	1.084696	0.011085	0.412989
H49	H	1.127313	-0.456830	0.000145
C50	C	0.772043	-0.324687	0.078960
C51	C	0.813779	-0.301960	0.000132
H52	H	0.716658	-0.296899	0.079020
H53	H	0.770384	-0.384042	0.079498
H54	H	0.800777	-0.308520	0.131822
H55	H	0.785048	-0.318132	-0.052731
H56	H	0.815434	-0.242592	-0.000415
C57	C	0.362671	-0.053129	-0.078336
C58	C	0.411922	-0.047575	0.000052
H59	H	0.339980	-0.105585	-0.078339
H60	H	0.318539	-0.008241	-0.078331
H61	H	0.396101	-0.049343	-0.131501
H62	H	0.378490	-0.051356	0.053218
H63	H	0.456061	-0.092476	0.000056
H64	H	0.908189	-0.428091	0.138783
H65	H	0.542812	0.254914	0.000037
H66	H	1.084697	0.011082	0.587108
C67	C	0.417984	0.341869	0.000024
C68	C	0.370310	0.273703	0.000036
H69	H	0.381834	0.393276	0.000014
H70	H	0.452218	0.339287	0.053194
H71	H	0.452222	0.339278	-0.053153
H72	H	0.336076	0.276290	0.053218
H73	H	0.336062	0.276286	-0.053139
C74	C	1.068917	-0.248013	0.160451
C75	C	1.067827	-0.335698	0.161204
H76	H	1.097106	-0.231367	0.213490
H77	H	1.097173	-0.232133	0.107138
H78	H	1.013206	-0.221073	0.160230
H79	H	1.123538	-0.362638	0.161418
H80	H	1.039573	-0.351586	0.214531
C81	C	1.137605	-0.296379	-0.134284
C82	C	1.067858	-0.335465	-0.160907
H83	H	1.165807	-0.279608	-0.187262
H84	H	1.119956	-0.248141	-0.098048
H85	H	1.174360	-0.334887	-0.099500
H86	H	1.031100	-0.296955	-0.195686
H87	H	1.085506	-0.383709	-0.197159
C88	C	0.814015	-0.395965	-0.160768
C89	C	0.896361	-0.435072	-0.160919
H90	H	0.785785	-0.412688	-0.213744
H91	H	0.786117	-0.412261	-0.107391
H92	H	0.814300	-0.336421	-0.161083
H93	H	0.896076	-0.494617	-0.160597
H94	H	0.924267	-0.418781	-0.214310
H95	H	0.879574	0.218274	0.587113
H96	H	0.879558	0.218278	0.412979
