data_functionalizedCrystal
_audit_creation_method	'MofGen! by Chris Wilmer'
_symmetry_space_group_name_H-M	'P1'
_symmetry_Int_Tables_number	1
_symmetry_cell_setting	triclinic
loop_
_symmetry_equiv_pos_as_xyz
  x,y,z
_cell_length_a	10.686285
_cell_length_b	10.685727
_cell_length_c	19.805399
_cell_angle_alpha	94.383215
_cell_angle_beta	85.610534
_cell_angle_gamma	99.060155
loop_
_atom_site_label
_atom_site_type_symbol
_atom_site_fract_x
_atom_site_fract_y
_atom_site_fract_z
Zn1	Zn	-0.654427	-1.979477	-0.437095
Zn2	Zn	-0.154427	-1.479477	0.062905
Zn3	Zn	-0.866682	-1.995674	-0.315863
Zn4	Zn	-0.366682	-1.495674	0.184137
Zn5	Zn	-0.638157	-1.767213	-0.315877
Zn6	Zn	-0.138157	-1.267213	0.184123
Zn7	Zn	-0.850316	-1.783493	-0.420975
Zn8	Zn	-0.350316	-1.283493	0.079025
O9	O	-0.752395	-1.881464	-0.372453
O10	O	-0.252395	-1.381464	0.127547
O11	O	-0.696241	-2.159257	-0.427753
O12	O	-0.196241	-1.659257	0.072247
O13	O	-0.836407	-1.965333	-0.221146
O14	O	-0.336407	-1.465333	0.278854
O15	O	-0.462696	-1.781778	-0.338708
O16	O	0.037304	-1.281778	0.161292
O17	O	-0.852184	-2.171157	-0.338685
O18	O	-0.352184	-1.671157	0.161315
O19	O	-0.474650	-1.937728	-0.427766
O20	O	0.025350	-1.437728	0.072234
O21	O	-0.668511	-1.797484	-0.221156
O22	O	-0.168511	-1.297484	0.278844
O23	O	-0.652642	-1.591740	-0.323078
O24	O	-0.152642	-1.091740	0.176922
O25	O	-0.824291	-1.809525	-0.517833
O26	O	-0.324291	-1.309525	-0.017833
O27	O	-0.808514	-1.603701	-0.400294
O28	O	-0.308514	-1.103701	0.099706
O29	O	-0.680372	-1.953514	-0.529676
O30	O	-0.180372	-1.453514	-0.029676
O31	O	-1.042130	-1.981119	-0.323055
O32	O	-0.542130	-1.481119	0.176945
O33	O	-1.030106	-1.825231	-0.400280
O34	O	-0.530106	-1.325231	0.099720
C35	C	-0.727038	-1.551663	-0.359939
C36	C	-0.227038	-1.051663	0.140061
C37	C	-0.716220	-1.410575	-0.354600
C38	C	-0.216220	-0.910575	0.145400
C39	C	-1.082175	-1.906733	-0.359933
C40	C	-0.582175	-1.406733	0.140067
C41	C	-1.223265	-1.917660	-0.354604
C42	C	-0.723265	-1.417660	0.145396
C43	C	-0.421331	-1.856131	-0.385037
C44	C	0.078669	-1.356131	0.114963
C45	C	-0.280250	-1.845335	-0.390400
C46	C	0.219750	-1.345335	0.109600
C47	C	-0.752321	-1.881529	-0.549001
C48	C	-0.252321	-1.381529	-0.049001
C49	C	-0.752289	-1.881557	-0.624236
C50	C	-0.252289	-1.381557	-0.124236
C51	C	-0.777839	-1.212552	-0.385013
C52	C	-0.277839	-0.712552	0.114987
C53	C	-0.788646	-1.353639	-0.390358
C54	C	-0.288646	-0.853639	0.109642
C55	C	-0.677347	-1.956533	-0.665748
C56	C	-0.177347	-1.456533	-0.165748
C57	C	-0.677311	-1.956543	-0.736438
C58	C	-0.177311	-1.456543	-0.236438
C59	C	-0.752225	-1.881583	-0.765615
C60	C	-0.252225	-1.381583	-0.265615
C61	C	-0.827171	-1.806598	-0.724098
C62	C	-0.327171	-1.306598	-0.224098
C63	C	-0.827199	-1.806582	-0.653409
C64	C	-0.327199	-1.306582	-0.153409
C65	C	-0.827058	-1.806661	-1.009178
C66	C	-0.327058	-1.306661	-0.509178
C67	C	-0.827027	-1.806685	-1.079873
C68	C	-0.327027	-1.306685	-0.579873
C69	C	-0.677170	-1.956622	-1.092208
C70	C	-0.177170	-1.456622	-0.592208
C71	C	-0.677198	-1.956606	-1.021519
C72	C	-0.177198	-1.456606	-0.521519
C73	C	-0.752138	-1.881616	-0.980007
C74	C	-0.252138	-1.381616	-0.480007
C75	C	-0.752174	-1.881604	-0.903357
C76	C	-0.252174	-1.381604	-0.403357
C77	C	-0.752197	-1.881601	-0.842264
C78	C	-0.252197	-1.381601	-0.342264
C79	C	-0.752383	-1.881465	-0.196597
C80	C	-0.252383	-1.381465	0.303403
C81	C	-0.752077	-1.881656	-0.121386
C82	C	-0.252077	-1.381656	0.378614
H83	H	-0.858920	-1.412829	-0.425060
H84	H	-0.358920	-0.912829	0.074940
H85	H	-0.645930	-1.351377	-0.319901
H86	H	-0.145930	-0.851377	0.180099
F87	F	-1.202939	-1.753474	-0.435787
F88	F	-0.702939	-1.253474	0.064213
F89	F	-1.300581	-2.009513	-0.309208
F90	F	-0.800581	-1.509513	0.190792
F91	F	-0.597593	-2.036391	-0.780615
F92	F	-0.097593	-1.536391	-0.280615
F93	F	-0.597618	-2.036325	-0.634702
F94	F	-0.097618	-1.536325	-0.134702
H95	H	-0.616199	-2.017651	-0.997767
H96	H	-0.116199	-1.517651	-0.497767
F97	F	-0.597407	-2.036429	-1.136393
F98	F	-0.097407	-1.536429	-0.636393
H99	H	-0.888033	-1.745638	-1.103626
H100	H	-0.388033	-1.245638	-0.603626
H101	H	-0.888098	-1.745619	-0.975388
H102	H	-0.388098	-1.245619	-0.475388
F103	F	-0.906895	-1.726814	-0.755152
F104	F	-0.406895	-1.226814	-0.255152
F105	F	-0.906959	-1.726778	-0.609228
F106	F	-0.406959	-1.226778	-0.109228
