data_functionalizedCrystal
_audit_creation_method	'MofGen! by Chris Wilmer'
_symmetry_space_group_name_H-M	'P1'
_symmetry_Int_Tables_number	1
_symmetry_cell_setting	triclinic
loop_
_symmetry_equiv_pos_as_xyz
  x,y,z
_cell_length_a	19.121215
_cell_length_b	19.121063
_cell_length_c	17.077396
_cell_angle_alpha	92.407870
_cell_angle_beta	87.536854
_cell_angle_gamma	95.002544
loop_
_atom_site_label
_atom_site_type_symbol
_atom_site_fract_x
_atom_site_fract_y
_atom_site_fract_z
Zn1	Zn	1.063732	-0.234334	-0.505852
Zn2	Zn	1.058624	-0.352010	-0.379943
Zn3	Zn	0.946068	-0.239368	-0.369214
Zn4	Zn	0.941008	-0.356972	-0.505779
O5	O	1.002358	-0.295671	-0.440197
O6	O	1.161521	-0.245761	-0.493670
O7	O	1.043673	-0.337098	-0.268673
O8	O	0.965932	-0.140234	-0.382879
O9	O	1.157767	-0.332217	-0.401165
O10	O	1.052380	-0.136536	-0.483267
O11	O	0.960979	-0.254340	-0.260791
O12	O	0.846931	-0.259152	-0.382809
O13	O	0.957308	-0.340674	-0.615635
O14	O	0.843213	-0.345555	-0.483143
O15	O	1.047473	-0.250572	-0.615689
O16	O	1.038766	-0.451134	-0.401095
O17	O	0.952354	-0.454779	-0.493547
C18	C	0.819541	-0.303438	-0.431805
C19	C	0.741330	-0.306778	-0.428234
C20	C	0.298888	-0.327922	-0.405644
C21	C	0.372375	-0.324780	-0.408993
C22	C	0.411072	-0.278270	-0.458915
C23	C	0.376278	-0.234894	-0.505485
C24	C	0.302792	-0.238032	-0.502132
C25	C	0.633050	-0.266541	-0.471451
C26	C	0.706541	-0.263407	-0.474802
C27	C	0.702633	-0.353293	-0.378309
C28	C	0.629146	-0.356431	-0.374963
C29	C	0.594358	-0.313052	-0.421530
C30	C	0.486188	-0.275059	-0.462341
C31	C	0.519244	-0.316260	-0.418099
C32	C	0.994476	-0.478487	-0.448495
C33	C	0.991168	-0.556694	-0.452074
C34	C	1.034639	-0.591512	-0.405664
C35	C	1.031532	-0.664996	-0.409035
C36	C	0.984950	-0.703659	-0.458813
C37	C	0.941477	-0.668835	-0.505228
C38	C	0.944588	-0.595353	-0.501860
C39	C	0.973308	-0.925624	-0.471390
C40	C	0.970199	-0.999112	-0.474752
C41	C	1.060256	-0.995267	-0.378560
C42	C	1.063359	-0.921784	-0.375194
C43	C	1.019889	-0.886966	-0.421612
C44	C	0.981772	-0.778771	-0.462258
C45	C	1.023071	-0.811855	-0.418170
C46	C	1.185889	-0.287874	-0.448622
C47	C	1.264099	-0.284551	-0.452213
C48	C	1.002396	-0.295615	-0.644940
C49	C	1.002412	-0.295591	-0.732190
C50	C	1.010290	-0.112140	-0.431884
C51	C	1.013671	-0.033930	-0.428342
C52	C	0.959367	-0.252493	-0.769075
C53	C	0.959379	-0.252477	-0.851056
C54	C	1.002440	-0.295555	-0.896149
C55	C	1.045487	-0.338658	-0.859258
C56	C	1.045471	-0.338677	-0.777279
C57	C	1.045519	-0.338612	-1.030128
C58	C	1.045537	-0.338592	-1.112112
C59	C	0.959428	-0.252412	-1.103904
C60	C	0.959411	-0.252431	-1.021925
C61	C	1.002459	-0.295533	-0.985040
C62	C	1.002363	-0.295674	-0.236249
C63	C	1.002492	-0.295494	-0.148998
H64	H	0.597644	-0.394304	-0.334310
H65	H	0.738046	-0.225527	-0.515454
H66	H	0.937912	-0.897282	-0.509184
H67	H	0.400697	-0.360097	-0.371071
H68	H	1.095648	-1.023623	-0.340770
H69	H	0.924377	-0.217316	-1.133940
H70	H	0.903552	-0.700321	-0.545761
H71	H	0.909190	-0.567004	-0.539653
H72	H	0.274468	-0.202712	-0.540050
H73	H	1.080545	-0.373737	-0.895979
H74	H	0.924350	-0.217350	-0.985212
N75	N	1.091981	-0.385052	-1.160751
H76	H	1.119246	-0.412364	-1.124947
H77	H	1.061935	-0.418819	-1.194927
H78	H	1.080580	-0.373704	-1.000098
N79	N	1.073308	-0.770156	-0.364480
H80	H	1.100377	-0.803361	-0.335585
H81	H	1.107146	-0.738235	-0.396558
H82	H	1.080528	-0.373767	-0.747248
N83	N	0.931524	-0.820471	-0.515940
H84	H	0.958811	-0.849696	-0.555049
H85	H	0.897658	-0.852352	-0.483850
H86	H	0.487734	-0.354127	-0.377451
H87	H	1.072568	-0.560037	-0.365127
N88	N	0.257149	-0.378086	-0.351801
H89	H	0.267780	-0.427829	-0.366762
H90	H	0.270406	-0.366484	-0.295839
N91	N	0.740154	-0.400075	-0.328081
H92	H	0.792578	-0.391030	-0.337777
H93	H	0.727758	-0.389603	-0.270954
H94	H	0.932275	-1.030589	-0.515301
N95	N	0.912924	-0.206022	-0.720449
H96	H	0.862180	-0.219082	-0.732903
H97	H	0.919503	-0.212587	-0.662935
N98	N	0.595535	-0.219745	-0.521661
H99	H	0.631202	-0.189804	-0.553791
H100	H	0.563818	-0.249716	-0.557850
N101	N	0.912960	-0.205974	-0.890825
H102	H	0.942980	-0.172145	-0.924671
H103	H	0.879119	-0.235979	-0.924595
N104	N	0.418011	-0.184740	-0.559345
H105	H	0.469843	-0.189339	-0.554412
H106	H	0.404702	-0.196322	-0.615295
N107	N	1.078416	-0.702553	-0.358978
H108	H	1.129228	-0.687572	-0.372929
H109	H	1.067994	-0.690262	-0.301816
H110	H	1.101290	-0.890305	-0.334661
N111	N	0.527921	-0.224904	-0.516200
H112	H	0.514674	-0.236455	-0.572178
H113	H	0.517273	-0.175180	-0.501181
