data_functionalizedCrystal
_audit_creation_method	'MofGen! by Chris Wilmer'
_symmetry_space_group_name_H-M	'P1'
_symmetry_Int_Tables_number	1
_symmetry_cell_setting	triclinic
loop_
_symmetry_equiv_pos_as_xyz
  x,y,z
_cell_length_a	18.101395
_cell_length_b	16.120530
_cell_length_c	18.101390
_cell_angle_alpha	92.916565
_cell_angle_beta	90.034180
_cell_angle_gamma	87.127367
loop_
_atom_site_label
_atom_site_type_symbol
_atom_site_fract_x
_atom_site_fract_y
_atom_site_fract_z
Zn1	Zn	-0.352281	1.274485	0.476062
Zn2	Zn	-0.476132	1.274365	0.352212
Zn3	Zn	-0.346027	1.135070	0.345963
Zn4	Zn	-0.469795	1.135013	0.469743
O5	O	-0.411059	1.204733	0.410995
O6	O	-0.373980	1.391134	0.464893
O7	O	-0.458909	1.255860	0.247749
O8	O	-0.243227	1.153637	0.363249
O9	O	-0.464973	1.391045	0.373901
O10	O	-0.247822	1.256065	0.458833
O11	O	-0.363321	1.153521	0.243158
O12	O	-0.357176	1.018397	0.357123
O13	O	-0.454171	1.153541	0.574216
O14	O	-0.448107	1.018356	0.448064
O15	O	-0.367834	1.256010	0.578858
O16	O	-0.578921	1.255805	0.367774
O17	O	-0.574265	1.153424	0.454124
C18	C	-0.401276	0.988127	0.401230
C19	C	-0.397108	0.895461	0.397070
C20	C	-0.389482	0.725801	0.389481
C21	C	-0.432690	0.684505	0.432563
C22	C	-0.428447	0.590100	0.428341
C23	C	-0.393724	0.820214	0.393703
C24	C	-0.603464	1.204618	0.410958
C25	C	-0.685780	1.204645	0.410971
C26	C	-0.836492	1.204741	0.411005
C27	C	-0.864946	1.140293	0.465288
C28	C	-0.950575	1.140536	0.465540
C29	C	-0.984879	1.204834	0.411038
C30	C	-0.957658	1.292727	0.435988
C31	C	-0.871994	1.292300	0.436367
C32	C	-0.867114	1.182085	0.331670
C33	C	-0.952681	1.180200	0.332019
C34	C	-1.068741	1.204892	0.411056
C35	C	-0.752630	1.204689	0.410989
C36	C	-0.217903	1.204871	0.411049
C37	C	-0.135592	1.204930	0.411072
C38	C	-0.410993	1.204782	0.604159
C39	C	-0.410966	1.204804	0.686474
C40	C	-0.420881	1.422185	0.420799
C41	C	-0.425066	1.514850	0.424976
C42	C	-0.411073	1.204732	0.218584
C43	C	-0.410899	1.204872	0.136277
C44	C	-0.410921	1.204849	0.985567
C45	C	-0.356811	1.269532	0.957173
C46	C	-0.356591	1.269330	0.871545
C47	C	-0.410943	1.204827	0.837184
C48	C	-0.385779	1.117000	0.864307
C49	C	-0.385369	1.117387	0.949970
C50	C	-0.490307	1.227219	0.954984
C51	C	-0.489995	1.229147	0.869421
C52	C	-0.410957	1.204809	0.753324
C53	C	-0.410906	1.204860	1.069427
H54	H	-0.968725	1.075369	0.449485
H55	H	-0.298413	1.254912	0.978054
H56	H	-0.423803	1.067498	0.841700
H57	H	-0.349308	0.690257	0.349429
H58	H	-0.844040	1.155126	0.523655
H59	H	-0.841477	1.074893	0.449370
H60	H	-0.372872	1.334870	0.980713
H61	H	-0.328252	1.097690	0.842001
H62	H	-0.422851	1.067554	0.968435
H63	H	-0.530674	1.180111	0.973114
H64	H	-0.472867	0.720051	0.472619
H65	H	-0.971688	1.155604	0.524250
H66	H	-0.852824	1.311478	0.494473
H67	H	-0.853483	1.341970	0.398754
H68	H	-0.848942	1.229020	0.291178
H69	H	-0.327221	1.098423	0.969109
H70	H	-0.372806	1.334456	0.853466
H71	H	-0.980220	1.342084	0.397848
H72	H	-0.979930	1.312263	0.493489
H73	H	-0.842742	1.119059	0.309679
H74	H	-0.970156	1.115516	0.313272
H75	H	-0.976032	1.223720	0.289113
H76	H	-0.297860	1.254523	0.850408
H77	H	-0.512452	1.290139	0.979458
H78	H	-0.508898	1.293779	0.852018
H79	H	-0.532797	1.185460	0.846038
