data_functionalizedCrystal
_audit_creation_method	'MofGen! by Chris Wilmer'
_symmetry_space_group_name_H-M	'P1'
_symmetry_Int_Tables_number	1
_symmetry_cell_setting	triclinic
loop_
_symmetry_equiv_pos_as_xyz
  x,y,z
_cell_length_a	14.519709
_cell_length_b	16.992695
_cell_length_c	15.455313
_cell_angle_alpha	87.152573
_cell_angle_beta	92.680598
_cell_angle_gamma	87.174184
loop_
_atom_site_label
_atom_site_type_symbol
_atom_site_fract_x
_atom_site_fract_y
_atom_site_fract_z
O1	O	-1.235028	-0.099376	-0.072018
O2	O	-0.967421	-0.111480	-0.072044
O3	O	-1.100152	0.008716	-0.072024
O4	O	-1.102298	-0.219572	-0.072038
O5	O	-1.092559	0.001871	0.072237
O6	O	-0.959829	-0.118325	0.072217
O7	O	-1.227436	-0.106221	0.072243
Cu8	Cu	-1.092939	-0.112898	0.085402
Cu9	Cu	-1.101918	-0.104803	-0.085203
O10	O	-1.094706	-0.226417	0.072223
C11	C	-1.093595	0.034510	0.000106
C12	C	-1.085360	0.121566	0.000105
C13	C	-0.929225	-0.114338	0.000083
C14	C	-0.826723	-0.112647	0.000073
C15	C	-1.265632	-0.103363	0.000114
C16	C	-1.368134	-0.105053	0.000118
C17	C	-0.451378	-0.106425	0.000113
C18	C	-0.555811	-0.108153	0.000101
C19	C	-0.639047	-0.109536	0.000092
C20	C	-0.743487	-0.111264	0.000082
C21	C	-1.101262	-0.252211	0.000091
C22	C	-1.109498	-0.339266	0.000086
N23	N	-1.086631	-0.118591	0.205397
C24	C	-1.164819	0.171694	0.000114
C25	C	-1.157076	0.253492	0.000105
C26	C	-1.069873	0.285159	0.000093
C27	C	-0.990408	0.235025	0.000082
C28	C	-0.998152	0.153229	0.000084
C29	C	-1.037776	0.528803	0.000078
C30	C	-1.030038	0.610605	0.000078
C31	C	-1.196708	0.629067	0.000099
C32	C	-1.204444	0.547269	0.000107
C33	C	-1.124979	0.497141	0.000091
N34	N	-1.061956	0.368770	0.000087
N35	N	-1.132897	0.413533	0.000091
N36	N	-1.108233	-0.099104	-0.205198
C37	C	-1.143042	-0.067546	0.250799
C38	C	-1.138280	-0.071859	0.341606
C39	C	-1.077111	-0.127221	0.387009
C40	C	-1.020694	-0.178268	0.341600
C41	C	-1.025452	-0.173951	0.250795
C42	C	-1.056574	-0.145834	0.658588
C43	C	-1.051822	-0.150148	0.749400
C44	C	-1.169407	-0.043738	0.749399
C45	C	-1.174163	-0.039429	0.658592
C46	C	-1.117743	-0.090473	0.613191
N47	N	-1.072245	-0.131632	0.479829
N48	N	-1.122606	-0.086058	0.520373
H49	H	-1.221781	0.294304	0.000114
H50	H	-1.235830	0.145917	0.000128
O51	O	-0.960650	0.480028	0.000183
C52	C	-0.956196	0.428631	0.074906
H53	H	-1.028397	0.423212	0.099824
H54	H	-0.927257	0.368001	0.058097
H55	H	-0.909333	0.453117	0.127220
H56	H	-0.919405	0.260815	0.000067
O57	O	-1.289124	0.516461	0.000266
C58	C	-1.294645	0.466143	0.074970
H59	H	-1.242278	0.483083	0.127187
H60	H	-1.367118	0.472186	0.100055
H61	H	-1.279006	0.402472	0.058078
H62	H	-1.261404	0.669890	0.000110
O63	O	-1.192949	-0.022200	0.385744
C64	C	-1.137252	0.023772	0.438300
H65	H	-1.065850	0.026540	0.410948
H66	H	-1.170247	0.085980	0.439329
H67	H	-1.130622	-0.004026	0.507118
H68	H	-1.002009	-0.195234	0.786362
H69	H	-0.933447	0.112414	0.000077
H70	H	-1.223972	0.005650	0.621627
O71	O	-0.945255	0.641240	0.000019
C72	C	-0.876776	0.579456	0.000023
H73	H	-0.908162	0.525148	-0.027281
H74	H	-0.818469	0.598622	-0.041875
H75	H	-0.848321	0.564639	0.069226
O76	O	-1.224292	0.005888	0.793368
C77	C	-1.279278	0.055694	0.733822
H78	H	-1.286087	0.026614	0.669089
H79	H	-1.350676	0.066282	0.760053
H80	H	-1.245536	0.114459	0.724173
H81	H	-1.192855	-0.022468	0.213838
O82	O	-1.001738	-0.195502	0.614627
C83	C	-0.946719	-0.245278	0.674176
H84	H	-0.981212	-0.249310	0.738898
H85	H	-0.938632	-0.306631	0.647932
H86	H	-0.875823	-0.220144	0.683851
H87	H	-0.979515	-0.215516	0.213829
H88	H	-0.970885	-0.223342	0.378573
