data_functionalizedCrystal
_audit_creation_method	'MofGen! by Chris Wilmer'
_symmetry_space_group_name_H-M	'P1'
_symmetry_Int_Tables_number	1
_symmetry_cell_setting	triclinic
loop_
_symmetry_equiv_pos_as_xyz
  x,y,z
_cell_length_a	12.759401
_cell_length_b	25.639239
_cell_length_c	12.759393
_cell_angle_alpha	89.962948
_cell_angle_beta	89.981433
_cell_angle_gamma	90.037730
loop_
_atom_site_label
_atom_site_type_symbol
_atom_site_fract_x
_atom_site_fract_y
_atom_site_fract_z
Zn1	Zn	1.606080	-0.208133	-0.593943
Zn2	Zn	1.605901	-0.295580	-0.418246
Zn3	Zn	1.430382	-0.208159	-0.418282
Zn4	Zn	1.430297	-0.295538	-0.593888
O5	O	1.518165	-0.251853	-0.506090
O6	O	1.753078	-0.219740	-0.570645
O7	O	1.582579	-0.284012	-0.271230
O8	O	1.453799	-0.134990	-0.441622
O9	O	1.752946	-0.283987	-0.441561
O10	O	1.582884	-0.134971	-0.570680
O11	O	1.453626	-0.219784	-0.271256
O12	O	1.283350	-0.219743	-0.441569
O13	O	1.453655	-0.283915	-0.740916
O14	O	1.283288	-0.283940	-0.570585
O15	O	1.582802	-0.219699	-0.740957
O16	O	1.582496	-0.368740	-0.441507
O17	O	1.453481	-0.368709	-0.570550
C18	C	1.245198	-0.251840	-0.506075
C19	C	1.128421	-0.251848	-0.506094
C20	C	1.073621	-0.218458	-0.573412
C21	C	0.963897	-0.218468	-0.573419
C22	C	0.963783	-0.285262	-0.438786
C23	C	1.073505	-0.285249	-0.438775
C24	C	1.073685	-0.179896	-0.651144
C25	C	0.963961	-0.179906	-0.651151
C26	C	1.517989	-0.387695	-0.506042
C27	C	1.518009	-0.445809	-0.506056
C28	C	1.585519	-0.806176	-0.439012
C29	C	1.585559	-0.860780	-0.439026
O30	O	1.642775	-0.889020	-0.381969
N31	N	1.518350	-0.888092	-0.506160
C32	C	1.451103	-0.860796	-0.573291
O33	O	1.393940	-0.889041	-0.630396
C34	C	1.451068	-0.806193	-0.573282
C35	C	1.518275	-0.778884	-0.506136
C36	C	1.652721	-0.778867	-0.371873
C37	C	1.652678	-0.724266	-0.371857
C38	C	1.585434	-0.696975	-0.438981
C39	C	1.518232	-0.724283	-0.506121
C40	C	1.383827	-0.778898	-0.640418
C41	C	1.383799	-0.724291	-0.640403
C42	C	1.451005	-0.696982	-0.573257
C43	C	1.450946	-0.642391	-0.573230
N44	N	1.518155	-0.615080	-0.506096
C45	C	1.585399	-0.642371	-0.438972
C46	C	1.451182	-0.975467	-0.573307
C47	C	1.451210	-1.030069	-0.573312
C48	C	1.585669	-1.030049	-0.439048
C49	C	1.585634	-0.975446	-0.439039
C50	C	1.518391	-0.948155	-0.506174
C51	C	1.585305	-0.527706	-0.438945
C52	C	1.585253	-0.473101	-0.438932
C53	C	1.450799	-0.473126	-0.573200
C54	C	1.450846	-0.527726	-0.573209
C55	C	1.518108	-0.555015	-0.506078
O56	O	1.393762	-0.614117	-0.630260
O57	O	1.642562	-0.614120	-0.381887
C58	C	1.792198	-0.251865	-0.506105
C59	C	1.908975	-0.251871	-0.506112
C60	C	1.518239	-0.251800	-0.780123
C61	C	1.518270	-0.251777	-0.896900
C62	C	1.518371	-0.115480	-0.506161
C63	C	1.518459	-0.057365	-0.506192
C64	C	1.585526	-0.218337	-0.951785
C65	C	1.585551	-0.218318	-1.061509
C66	C	1.451061	-0.285185	-1.061454
C67	C	1.451032	-0.285200	-0.951732
C68	C	1.663176	-0.179734	-0.951818
C69	C	1.663201	-0.179715	-1.061542
C70	C	1.518152	-0.251867	-0.233123
C71	C	1.518325	-0.251743	-0.116346
H72	H	0.919057	-0.312457	-0.383978
H73	H	1.103486	-0.139385	-0.629498
H74	H	0.934207	-0.190802	-0.732485
H75	H	1.396262	-0.312429	-0.907048
C76	C	1.659184	-0.443064	-0.365059
N77	N	1.714866	-0.420443	-0.309418
C78	C	1.377209	-0.945452	-0.647170
N79	N	1.321498	-0.922847	-0.702810
C80	C	1.773111	-0.194372	-1.101774
N81	N	1.855892	-0.205413	-1.132075
H82	H	1.118120	-0.312434	-0.383949
C83	C	1.633806	-0.125034	-0.911625
N84	N	1.611681	-0.083836	-0.881351
C85	C	1.659289	-0.557716	-0.365091
N86	N	1.715009	-0.580319	-0.309458
C87	C	1.659569	-0.945411	-0.365177
N88	N	1.715262	-0.922792	-0.309543
C89	C	1.659648	-1.060080	-0.365218
N90	N	1.715366	-1.082702	-0.309614
C91	C	1.767560	-0.199330	-0.905828
N92	N	1.846186	-0.214087	-0.871188
C93	C	1.119695	-0.199549	-0.755484
N94	N	1.154350	-0.214353	-0.834072
H95	H	1.396474	-1.052299	-0.627979
C96	C	1.726696	-0.808879	-0.298018
N97	N	1.782411	-0.831481	-0.242379
H98	H	1.707407	-0.702035	-0.317185
C99	C	0.918011	-0.127918	-0.611988
N100	N	0.883400	-0.088762	-0.582493
C101	C	1.309896	-0.808926	-0.714288
N102	N	1.254209	-0.831542	-0.769933
H103	H	1.329043	-0.702074	-0.695076
H104	H	1.396125	-0.549962	-0.627887
H105	H	1.396046	-0.450896	-0.627849
C106	C	1.377101	-0.321947	-1.121779
N107	N	1.321393	-0.349637	-1.167214
C108	C	1.623964	-0.127731	-1.107555
N109	N	1.594422	-0.088576	-1.142213
