data_functionalizedCrystal
_audit_creation_method	'MofGen! by Chris Wilmer'
_symmetry_space_group_name_H-M	'P1'
_symmetry_Int_Tables_number	1
_symmetry_cell_setting	triclinic
loop_
_symmetry_equiv_pos_as_xyz
  x,y,z
_cell_length_a	12.594517
_cell_length_b	12.594516
_cell_length_c	15.296720
_cell_angle_alpha	80.349469
_cell_angle_beta	80.339807
_cell_angle_gamma	90.015485
loop_
_atom_site_label
_atom_site_type_symbol
_atom_site_fract_x
_atom_site_fract_y
_atom_site_fract_z
Zn1	Zn	1.523036	-0.527896	0.510135
Zn2	Zn	1.553746	-0.675105	0.359296
Zn3	Zn	1.375860	-0.497139	0.359295
Zn4	Zn	1.345030	-0.705823	0.510097
O5	O	1.449418	-0.601491	0.434706
O6	O	1.676052	-0.547440	0.490142
O7	O	1.555904	-0.625769	0.233058
O8	O	1.395433	-0.352276	0.379319
O9	O	1.698615	-0.655593	0.379322
O10	O	1.503563	-0.374873	0.490141
O11	O	1.425211	-0.495018	0.233057
O12	O	1.222828	-0.524805	0.379282
O13	O	1.342888	-0.707949	0.636339
O14	O	1.200177	-0.678125	0.490076
O15	O	1.473669	-0.577226	0.636367
O16	O	1.526010	-0.828122	0.379285
O17	O	1.372667	-0.850691	0.490077
C18	C	1.172883	-0.601461	0.434675
C19	C	1.054576	-0.601479	0.434684
C20	C	0.926820	-0.518038	0.374561
C21	C	0.980859	-0.508914	0.456878
C22	C	1.002106	-0.610557	0.352375
C23	C	0.897808	-0.592369	0.517111
C24	C	0.919060	-0.694045	0.412552
C25	C	0.973056	-0.684970	0.494926
C26	C	1.449350	-0.878030	0.434697
C27	C	1.449412	-0.996341	0.434723
C28	C	1.366011	-1.077899	0.494941
C29	C	1.356896	-1.131955	0.412625
C30	C	1.458621	-1.153086	0.517053
C31	C	1.440255	-1.048830	0.352363
C32	C	1.542014	-1.069966	0.456848
C33	C	1.532948	-1.123979	0.374475
C34	C	1.727033	-0.601521	0.434736
C35	C	1.845335	-0.601534	0.434750
C36	C	1.401414	-0.649445	0.670001
C37	C	1.380957	-0.669880	0.770269
C38	C	1.449511	-0.323876	0.434734
C39	C	1.449551	-0.205573	0.434746
C40	C	1.497297	-0.553646	0.200326
C41	C	1.517959	-0.532911	0.100058
C42	C	1.595664	-0.455251	1.052969
C43	C	1.614891	-0.436053	0.958761
C44	C	1.556409	-0.494507	0.911634
C45	C	1.478697	-0.572164	0.958723
C46	C	1.459475	-0.591370	1.052939
C47	C	1.420219	-0.630627	0.911604
C48	C	1.342508	-0.708284	0.958693
C49	C	1.323288	-0.727486	1.052901
C50	C	1.381770	-0.669031	1.100028
C51	C	1.439442	-0.611421	0.817388
C52	C	1.303253	-0.747541	0.817358
C53	C	1.284026	-0.766739	0.911566
H54	H	0.906105	-0.447420	0.323752
H55	H	1.603549	-1.144408	0.323502
H56	H	0.993551	-0.755568	0.545857
O57	O	1.635266	-1.037361	0.479351
C58	C	1.644591	-1.091041	0.566222
H59	H	1.561214	-1.118904	0.605083
H60	H	1.682661	-1.033740	0.603253
H61	H	1.697436	-1.163884	0.560578
O62	O	1.013599	-0.415642	0.479280
C63	C	1.125447	-0.417321	0.479710
H64	H	1.152218	-0.504330	0.490082
H65	H	1.144458	-0.376643	0.536705
H66	H	1.170107	-0.372347	0.412696
H67	H	1.047367	-0.618213	0.282740
H68	H	1.466355	-1.198326	0.586670
H69	H	0.852674	-0.584620	0.586766
O70	O	0.886550	-0.787305	0.389997
C71	C	0.940252	-0.796537	0.303102
H72	H	0.968036	-0.713127	0.264283
H73	H	0.882991	-0.834639	0.266057
H74	H	1.013150	-0.849311	0.308700
O75	O	1.281641	-1.053282	0.555503
C76	C	1.184259	-1.084669	0.531857
H77	H	1.197602	-1.089298	0.457031
H78	H	1.120422	-1.023039	0.546847
H79	H	1.156006	-1.167046	0.572571
O80	O	1.263648	-1.164640	0.390153
C81	C	1.287237	-1.210138	0.311174
H82	H	1.369149	-1.177917	0.271932
H83	H	1.222636	-1.187732	0.267832
H84	H	1.289000	-1.301555	0.329893
O85	O	1.652629	-0.398582	1.098705
C86	C	1.763400	-0.417145	1.075675
H87	H	1.774025	-0.496892	1.049761
H88	H	1.803346	-0.420620	1.137640
H89	H	1.802400	-0.348935	1.021003
O90	O	1.431103	-0.995057	0.269231
C91	C	1.518706	-1.018984	0.205823
H92	H	1.588909	-1.046474	0.241569
H93	H	1.544556	-0.943896	0.153496
H94	H	1.493491	-1.085926	0.171132
H95	H	1.502715	-0.548191	0.779057
H96	H	1.366120	-0.684658	1.176740
O97	O	1.575179	-0.475688	0.820121
C98	C	1.656325	-0.394630	0.788664
H99	H	1.660182	-0.343518	0.842968
H100	H	1.637081	-0.341385	0.725640
H101	H	1.737327	-0.433440	0.771948
H102	H	1.678166	-0.372827	0.920428
H103	H	1.260019	-0.790728	1.091238
H104	H	1.220752	-0.829967	0.949919
H105	H	1.255634	-0.795141	0.778987
