data_functionalizedCrystal
_audit_creation_method	'MofGen! by Chris Wilmer'
_symmetry_space_group_name_H-M	'P1'
_symmetry_Int_Tables_number	1
_symmetry_cell_setting	triclinic
loop_
_symmetry_equiv_pos_as_xyz
  x,y,z
_cell_length_a	14.971486
_cell_length_b	10.540539
_cell_length_c	14.048226
_cell_angle_alpha	89.995726
_cell_angle_beta	89.998499
_cell_angle_gamma	84.069810
loop_
_atom_site_label
_atom_site_type_symbol
_atom_site_fract_x
_atom_site_fract_y
_atom_site_fract_z
O1	O	1.187879	0.165423	-0.079046
O2	O	0.927591	0.185233	-0.079072
O3	O	1.063673	-0.009446	-0.079057
O4	O	1.051796	0.360102	-0.079061
O5	O	1.063657	-0.009457	0.079264
O6	O	0.927574	0.185221	0.079249
O7	O	1.187862	0.165412	0.079275
Zn8	Zn	1.057716	0.175315	0.104399
Zn9	Zn	1.057737	0.175330	-0.104196
O10	O	1.051780	0.360090	0.079260
C11	C	0.894253	0.184341	0.000085
C12	C	0.794940	0.181686	0.000076
C13	C	0.738360	0.296055	0.000076
C14	C	0.645046	0.293553	0.000090
C15	C	0.608315	0.176681	0.000097
C16	C	0.664903	0.062303	0.000100
C17	C	0.758215	0.064807	0.000092
C18	C	0.470412	0.057094	0.000113
C19	C	0.377093	0.054590	0.000119
C20	C	0.357242	0.285839	0.000111
C21	C	0.450554	0.288343	0.000103
C22	C	0.507136	0.173965	0.000104
C23	C	1.062774	-0.056745	0.000101
C24	C	1.060109	-0.197662	0.000096
C25	C	0.958001	-0.379931	-0.000269
C26	C	0.960702	-0.233343	0.000087
C27	C	1.107939	-0.259870	0.090510
C28	C	1.104547	-0.406376	0.090586
C29	C	1.106587	-0.406904	-0.089455
C30	C	1.107503	-0.259932	-0.090650
C31	C	1.221200	0.166303	0.000115
C32	C	1.320512	0.168958	0.000119
C33	C	1.052679	0.407389	0.000099
C34	C	1.055344	0.548307	0.000099
N35	N	1.057707	0.175303	0.246760
N36	N	1.057753	0.175331	-0.246557
C37	C	1.117984	0.089135	0.296584
C38	C	1.117990	0.089135	0.396242
C39	C	1.057723	0.175309	0.446073
C40	C	0.997440	0.261481	0.396242
C41	C	0.997430	0.261475	0.296586
C42	C	0.997466	0.261491	0.603956
C43	C	0.997476	0.261499	0.703619
C44	C	1.118025	0.089150	0.703612
C45	C	1.118016	0.089144	0.603956
C46	C	1.057733	0.175318	0.554132
H47	H	0.311169	0.378970	0.000114
F48	F	1.182142	-0.002576	0.449269
F49	F	0.584832	0.415280	0.000086
H50	H	0.480457	0.383510	0.000088
F51	F	0.933294	0.353190	0.449277
H52	H	0.634990	-0.032856	0.000119
F53	F	1.182182	-0.002560	0.756643
F54	F	0.906680	-0.416720	-0.085018
H55	H	0.347191	-0.040578	0.000126
H56	H	1.167094	0.018981	0.563384
F57	F	1.064538	-0.447648	-0.179026
H58	H	1.072506	-0.218672	-0.157536
F59	F	0.530628	-0.064641	0.000117
F60	F	0.818433	-0.056920	0.000096
F61	F	0.911509	-0.177089	-0.084627
H62	H	0.918886	-0.409699	0.064198
H63	H	0.948346	0.331640	0.256020
F64	F	0.911144	-0.178202	0.084932
F65	F	1.058322	-0.442720	0.178914
F66	F	1.197989	-0.470138	0.095966
F67	F	1.203358	-0.231737	0.094917
F68	F	1.064495	-0.203707	0.178447
F69	F	1.202234	-0.229342	-0.097783
F70	F	1.200436	-0.469697	-0.090243
H71	H	1.167064	0.018968	0.256018
F72	F	0.933302	0.353205	0.550933
F73	F	0.777442	0.420448	0.000062
F74	F	0.933330	0.353216	0.756646
