data_functionalizedCrystal
_audit_creation_method	'MofGen! by Chris Wilmer'
_symmetry_space_group_name_H-M	'P1'
_symmetry_Int_Tables_number	1
_symmetry_cell_setting	triclinic
loop_
_symmetry_equiv_pos_as_xyz
  x,y,z
_cell_length_a	18.215407
_cell_length_b	17.640280
_cell_length_c	18.215399
_cell_angle_alpha	101.224603
_cell_angle_beta	90.019833
_cell_angle_gamma	78.800709
loop_
_atom_site_label
_atom_site_type_symbol
_atom_site_fract_x
_atom_site_fract_y
_atom_site_fract_z
Zn1	Zn	1.184366	-0.314661	0.356963
Zn2	Zn	1.684366	0.185339	0.856963
Zn3	Zn	1.209181	-0.446838	0.209048
Zn4	Zn	1.709181	0.053162	0.709048
Zn5	Zn	1.061303	-0.314687	0.233905
Zn6	Zn	1.561303	0.185313	0.733905
Zn7	Zn	1.086163	-0.446794	0.332082
Zn8	Zn	1.586163	0.053206	0.832082
O9	O	1.135253	-0.380745	0.282999
O10	O	1.635253	0.119255	0.782999
O11	O	1.290643	-0.332202	0.337352
O12	O	1.790643	0.167798	0.837352
O13	O	1.189546	-0.429337	0.109356
O14	O	1.689546	0.070663	0.609356
O15	O	1.056838	-0.204079	0.271045
O16	O	1.556838	0.295921	0.771045
O17	O	1.308875	-0.429312	0.228680
O18	O	1.808875	0.070688	0.728680
O19	O	1.147252	-0.204060	0.361454
O20	O	1.647252	0.295940	0.861454
O21	O	1.080901	-0.332246	0.127618
O22	O	1.580901	0.167754	0.627618
O23	O	0.961615	-0.332203	0.246918
O24	O	1.461615	0.167797	0.746918
O25	O	1.099208	-0.429237	0.438372
O26	O	1.599208	0.070763	0.938372
O27	O	0.979879	-0.429262	0.319048
O28	O	1.479879	0.070738	0.819048
O29	O	1.171357	-0.332159	0.456652
O30	O	1.671357	0.167841	0.956652
O31	O	1.213652	-0.557436	0.204553
O32	O	1.713652	-0.057436	0.704553
O33	O	1.123271	-0.557404	0.294945
O34	O	1.623271	-0.057404	0.794945
C35	C	0.944044	-0.380731	0.282981
C36	C	1.444044	0.119269	0.782981
C37	C	0.862248	-0.380745	0.282987
C38	C	1.362248	0.119255	0.782987
C39	C	1.173871	-0.586099	0.244368
C40	C	1.673871	-0.086099	0.744368
C41	C	1.190460	-0.673950	0.227866
C42	C	1.690460	-0.173950	0.727866
C43	C	0.683598	-0.431363	0.320471
C44	C	1.183598	0.068637	0.820471
C45	C	0.606740	-0.431365	0.320479
C46	C	1.106740	0.068635	0.820479
C47	C	0.587662	-0.330142	0.245542
C48	C	1.087662	0.169858	0.745542
C49	C	0.664519	-0.330136	0.245538
C50	C	1.164519	0.169864	0.745538
C51	C	0.712485	-0.380751	0.283000
C52	C	1.212485	0.119249	0.783000
C53	C	0.558771	-0.380759	0.283013
C54	C	1.058771	0.119241	0.783013
C55	C	0.475438	-0.380761	0.283022
C56	C	0.975438	0.119239	0.783022
C57	C	0.795824	-0.380748	0.282993
C58	C	1.295824	0.119252	0.782993
C59	C	1.009534	-0.962935	0.408631
C60	C	1.509534	-0.462935	0.908631
C61	C	1.025123	-1.045484	0.393101
C62	C	1.525123	-0.545484	0.893101
C63	C	1.119295	-1.045452	0.299071
C64	C	1.619295	-0.545452	0.799071
C65	C	1.103717	-0.962901	0.314596
C66	C	1.603717	-0.462901	0.814596
C67	C	1.048835	-0.921649	0.369375
C68	C	1.548835	-0.421649	0.869375
C69	C	1.143018	-0.921615	0.275340
C70	C	1.643018	-0.421615	0.775340
C71	C	1.127438	-0.839071	0.290861
C72	C	1.627438	-0.339071	0.790861
C73	C	1.072557	-0.797813	0.345636
C74	C	1.572557	-0.297813	0.845636
C75	C	1.033255	-0.839105	0.384896
C76	C	1.533255	-0.339105	0.884896
C77	C	1.197896	-0.962869	0.220557
C78	C	1.697896	-0.462869	0.720557
C79	C	1.237196	-0.921583	0.181301
C80	C	1.737196	-0.421583	0.681301
C81	C	1.221620	-0.839038	0.196825
C82	C	1.721620	-0.339038	0.696825
C83	C	1.166739	-0.797780	0.251601
C84	C	1.666739	-0.297780	0.751601
C85	C	1.260922	-0.797746	0.157566
C86	C	1.760922	-0.297746	0.657566
C87	C	1.245342	-0.715202	0.173086
C88	C	1.745342	-0.215202	0.673086
C89	C	1.151159	-0.715236	0.267122
C90	C	1.651159	-0.215236	0.767122
C91	C	1.327209	-0.380759	0.283018
C92	C	1.827209	0.119241	0.783018
C93	C	1.409009	-0.380765	0.283027
C94	C	1.909009	0.119235	0.783027
C95	C	1.135288	-0.380690	0.474963
C96	C	1.635288	0.119310	0.974963
C97	C	1.135302	-0.380667	0.556766
C98	C	1.635302	0.119333	1.056766
C99	C	1.096504	-0.174589	0.321798
C100	C	1.596504	0.325411	0.821798
C101	C	1.079991	-0.086738	0.338331
C102	C	1.579991	0.413262	0.838331
C103	C	1.135250	-0.380742	0.091794
C104	C	1.635250	0.119258	0.591794
C105	C	1.135336	-0.380543	0.010033
C106	C	1.635336	0.119457	0.510033
C107	C	1.172878	-0.330072	0.754489
C108	C	1.672878	0.169928	1.254489
C109	C	1.172883	-0.330049	0.831352
C110	C	1.672883	0.169951	1.331352
C111	C	1.097755	-0.431141	0.812304
C112	C	1.597755	0.068859	1.312304
C113	C	1.097747	-0.431159	0.735444
C114	C	1.597747	0.068841	1.235444
C115	C	1.135313	-0.380626	0.706537
C116	C	1.635313	0.119374	1.206537
C117	C	1.135326	-0.380584	0.860261
C118	C	1.635326	0.119416	1.360261
C119	C	1.135330	-0.380560	0.943600
C120	C	1.635330	0.119440	1.443600
C121	C	1.135307	-0.380649	0.623194
C122	C	1.635307	0.119351	1.123194
H123	H	0.722651	-0.472575	0.350978
H124	H	1.222651	0.027425	0.850978
C125	C	0.574970	-0.487050	0.361692
C126	C	1.074970	0.012950	0.861692
N127	N	0.551042	-0.528996	0.392732
N128	N	1.051042	-0.028996	0.892732
C129	C	0.696296	-0.274456	0.204315
C130	C	1.196296	0.225544	0.704315
N131	N	0.720230	-0.232519	0.173268
N132	N	1.220230	0.267481	0.673268
C133	C	1.056417	-0.486773	0.682694
C134	C	1.556417	0.013227	1.182694
N135	N	1.025286	-0.528658	0.642964
N136	N	1.525286	-0.028658	1.142964
C137	C	1.090776	-0.669853	0.327373
C138	C	1.590776	-0.169853	0.827373
N139	N	1.045292	-0.635671	0.372746
N140	N	1.545292	-0.135671	0.872746
H141	H	1.059867	-0.730600	0.358267
H142	H	1.559867	-0.230600	0.858267
H143	H	0.548599	-0.288934	0.215039
H144	H	1.048599	0.211066	0.715039
C145	C	1.214194	-0.274477	0.722696
C146	C	1.714194	0.225523	1.222696
N147	N	1.245312	-0.232598	0.698753
N148	N	1.745312	0.267402	1.198753
C149	C	0.972872	-0.793722	0.445147
C150	C	1.472872	-0.293722	0.945147
N151	N	0.927388	-0.759540	0.490520
N152	N	1.427388	-0.259540	0.990520
H153	H	0.993124	-1.079096	0.425081
H154	H	1.493124	-0.579096	0.925081
C155	C	0.949152	-0.917552	0.468882
C156	C	1.449152	-0.417552	0.968882
N157	N	0.903667	-0.883370	0.514255
N158	N	1.403667	-0.383370	1.014255
H159	H	1.203471	-0.288881	0.870391
H160	H	1.703471	0.211119	1.370391
H161	H	1.210581	-1.030082	0.207924
H162	H	1.710581	-0.530082	0.707924
C163	C	1.179661	-1.090839	0.238812
C164	C	1.679661	-0.590839	0.738812
N165	N	1.225129	-1.125024	0.193424
N166	N	1.725129	-0.625024	0.693424
C167	C	1.297562	-0.966970	0.121042
C168	C	1.797562	-0.466970	0.621042
N169	N	1.343030	-1.001155	0.075654
N170	N	1.843030	-0.501155	0.575654
H171	H	1.305601	-0.831346	0.112959
H172	H	1.805601	-0.331346	0.612959
C173	C	1.056433	-0.486723	0.844109
C174	C	1.556433	0.013277	1.344109
N175	N	1.025308	-0.528588	0.868064
N176	N	1.525308	-0.028588	1.368064
C177	C	1.288581	-0.669785	0.129909
C178	C	1.788581	-0.169785	0.629909
N179	N	1.321150	-0.635577	0.097388
N180	N	1.821150	-0.135577	0.597388
