data_functionalizedCrystal
_audit_creation_method	'MofGen! by Chris Wilmer'
_symmetry_space_group_name_H-M	'P1'
_symmetry_Int_Tables_number	1
_symmetry_cell_setting	triclinic
loop_
_symmetry_equiv_pos_as_xyz
  x,y,z
_cell_length_a	19.288864
_cell_length_b	19.288865
_cell_length_c	18.366186
_cell_angle_alpha	89.988521
_cell_angle_beta	89.977106
_cell_angle_gamma	83.136245
loop_
_atom_site_label
_atom_site_type_symbol
_atom_site_fract_x
_atom_site_fract_y
_atom_site_fract_z
O1	O	0.921353	0.086649	-0.060791
O2	O	1.254686	0.419982	0.272542
O3	O	1.588019	0.753315	0.605875
O4	O	0.719092	0.098337	-0.060743
O5	O	1.052425	0.431671	0.272591
O6	O	1.385759	0.765004	0.605924
O7	O	0.826067	-0.008637	-0.060754
O8	O	1.159400	0.324696	0.272579
O9	O	1.492733	0.658029	0.605913
O10	O	0.814378	0.193623	-0.060780
O11	O	1.147711	0.526957	0.272553
O12	O	1.481045	0.860290	0.605887
O13	O	0.826049	-0.008643	0.060345
O14	O	1.159382	0.324691	0.393679
O15	O	1.492715	0.658024	0.727012
O16	O	0.719074	0.098332	0.060357
O17	O	1.052407	0.431665	0.393690
O18	O	1.385741	0.764999	0.727023
O19	O	0.921335	0.086643	0.060308
O20	O	1.254668	0.419977	0.393641
O21	O	1.588001	0.753310	0.726975
Zn22	Zn	0.820201	0.092487	0.079559
Zn23	Zn	1.153535	0.425820	0.412893
Zn24	Zn	1.486868	0.759154	0.746226
Zn25	Zn	0.820225	0.092494	-0.079994
Zn26	Zn	1.153559	0.425827	0.253339
Zn27	Zn	1.486892	0.759161	0.586672
O28	O	0.814360	0.193618	0.060319
O29	O	1.147693	0.526951	0.393653
O30	O	1.481027	0.860285	0.726986
C31	C	0.693207	0.097959	-0.000187
C32	C	1.026540	0.431292	0.333147
C33	C	1.359873	0.764625	0.666480
C34	C	0.616103	0.096830	-0.000167
C35	C	0.949436	0.430163	0.333166
C36	C	1.282770	0.763496	0.666499
C37	C	0.571407	0.159598	-0.000187
C38	C	0.904740	0.492931	0.333146
C39	C	1.238073	0.826264	0.666480
C40	C	0.498960	0.158537	-0.000195
C41	C	0.832293	0.491870	0.333138
C42	C	1.165626	0.825204	0.666472
C43	C	0.471212	0.094705	-0.000198
C44	C	0.804545	0.428038	0.333135
C45	C	1.137879	0.761371	0.666469
C46	C	0.515918	0.031929	-0.000174
C47	C	0.849252	0.365262	0.333159
C48	C	1.182585	0.698595	0.666492
C49	C	0.588364	0.032991	-0.000159
C50	C	0.921697	0.366324	0.333174
C51	C	1.255030	0.699658	0.666508
C52	C	0.362956	0.044527	-0.042642
C53	C	0.696290	0.377861	0.290691
C54	C	1.029623	0.711194	0.624024
C55	C	0.290512	0.043468	-0.042662
C56	C	0.623845	0.376801	0.290671
C57	C	0.957179	0.710134	0.624005
C58	C	0.247767	0.091425	-0.000241
C59	C	0.581100	0.424758	0.333092
C60	C	0.914433	0.758092	0.666425
C61	C	0.277473	0.140454	0.042189
C62	C	0.610806	0.473788	0.375523
C63	C	0.944140	0.807121	0.708856
C64	C	0.349918	0.141517	0.042205
C65	C	0.683252	0.474850	0.375538
C66	C	1.016585	0.808183	0.708871
C67	C	0.392658	0.093546	-0.000214
C68	C	0.725991	0.426879	0.333119
C69	C	1.059325	0.760212	0.666453
C70	C	0.124514	0.153047	-0.000269
C71	C	0.457848	0.486381	0.333065
C72	C	0.791181	0.819714	0.666398
C73	C	0.052066	0.151984	-0.000272
C74	C	0.385400	0.485317	0.333061
C75	C	0.718733	0.818651	0.666395
C76	C	0.069026	0.025374	-0.000259
C77	C	0.402360	0.358707	0.333075
C78	C	0.735693	0.692040	0.666408
C79	C	0.141473	0.026439	-0.000248
C80	C	0.474806	0.359772	0.333085
C81	C	0.808140	0.693106	0.666419
C82	C	0.169212	0.090278	-0.000256
C83	C	0.502546	0.423611	0.333077
C84	C	0.835879	0.756944	0.666410
C85	C	0.825682	-0.034516	-0.000202
C86	C	1.159015	0.298817	0.333131
C87	C	1.492348	0.632150	0.666465
C88	C	0.824553	-0.111620	-0.000195
C89	C	1.157886	0.221713	0.333138
C90	C	1.491219	0.555047	0.666471
C91	C	0.887321	-0.156316	-0.000207
C92	C	1.220654	0.177017	0.333126
C93	C	1.553987	0.510350	0.666460
C94	C	0.886260	-0.228763	-0.000218
C95	C	1.219593	0.104570	0.333115
C96	C	1.552927	0.437903	0.666448
C97	C	0.822428	-0.256511	-0.000203
C98	C	1.155761	0.076822	0.333130
C99	C	1.489094	0.410156	0.666463
C100	C	0.759652	-0.211805	-0.000196
C101	C	1.092985	0.121529	0.333137
C102	C	1.426318	0.454862	0.666471
C103	C	0.760714	-0.139359	-0.000192
C104	C	1.094047	0.193974	0.333141
C105	C	1.427381	0.527307	0.666475
C106	C	0.772242	-0.364800	0.042227
C107	C	1.105575	-0.031467	0.375561
C108	C	1.438908	0.301867	0.708894
C109	C	0.771182	-0.437245	0.042228
C110	C	1.104515	-0.103911	0.375561
C111	C	1.437849	0.229422	0.708894
C112	C	0.819148	-0.479956	-0.000219
C113	C	1.152481	-0.146623	0.333114
C114	C	1.485815	0.186710	0.666448
C115	C	0.868186	-0.450216	-0.042657
C116	C	1.201519	-0.116883	0.290677
C117	C	1.534852	0.216450	0.624010
C118	C	0.869248	-0.377771	-0.042653
C119	C	1.202582	-0.044438	0.290681
C120	C	1.535915	0.288896	0.624014
C121	C	0.821269	-0.335065	-0.000208
C122	C	1.154602	-0.001732	0.333125
C123	C	1.487935	0.331602	0.666459
C124	C	0.880770	-0.603209	-0.000244
C125	C	1.214104	-0.269875	0.333090
C126	C	1.547437	0.063458	0.666423
C127	C	0.879707	-0.675657	-0.000259
C128	C	1.213040	-0.342323	0.333074
C129	C	1.546374	-0.008990	0.666407
C130	C	0.753097	-0.658697	-0.000230
C131	C	1.086430	-0.325363	0.333104
C132	C	1.419763	0.007970	0.666437
C133	C	0.754162	-0.586250	-0.000221
C134	C	1.087495	-0.252917	0.333112
C135	C	1.420829	0.080417	0.666445
C136	C	0.818001	-0.558511	-0.000225
C137	C	1.151334	-0.225177	0.333109
C138	C	1.484667	0.108156	0.666442
C139	C	0.947220	0.087022	-0.000250
C140	C	1.280553	0.420355	0.333084
C141	C	1.613887	0.753689	0.666417
C142	C	1.024324	0.088151	-0.000274
C143	C	1.357657	0.421484	0.333060
C144	C	1.690990	0.754818	0.666393
C145	C	0.814745	0.219497	-0.000234
C146	C	1.148078	0.552831	0.333099
C147	C	1.481412	0.886164	0.666432
C148	C	0.815874	0.296601	-0.000246
C149	C	1.149207	0.629934	0.333088
C150	C	1.482541	0.963267	0.666421
N151	N	0.820190	0.092482	0.188451
N152	N	1.153524	0.425815	0.521784
N153	N	1.486857	0.759148	0.855117
N154	N	0.820242	0.092493	-0.188885
N155	N	1.153575	0.425827	0.144448
N156	N	1.486909	0.759160	0.477781
C157	C	0.867574	0.045137	0.226546
C158	C	1.200907	0.378470	0.559879
C159	C	1.534241	0.711803	0.893213
C160	C	0.867578	0.045134	0.302774
C161	C	1.200912	0.378467	0.636107
C162	C	1.534245	0.711800	0.969440
C163	C	0.820206	0.092488	0.340903
C164	C	1.153539	0.425821	0.674237
C165	C	1.486872	0.759154	1.007570
C166	C	0.772813	0.139836	0.302799
C167	C	1.106146	0.473170	0.636132
C168	C	1.439480	0.806503	0.969465
C169	C	0.772805	0.139834	0.226572
C170	C	1.106139	0.473167	0.559906
C171	C	1.439472	0.806500	0.893239
C172	C	0.810907	0.155775	0.461657
C173	C	1.144241	0.489109	0.794990
C174	C	1.477574	0.822442	1.128324
C175	C	0.810920	0.155779	0.537882
C176	C	1.144253	0.489112	0.871215
C177	C	1.477587	0.822446	1.204548
C178	C	0.820225	0.092496	0.576011
C179	C	1.153559	0.425830	0.909344
C180	C	1.486892	0.759163	1.242677
C181	C	0.829533	0.029207	0.537905
C182	C	1.162866	0.362540	0.871239
C183	C	1.496200	0.695873	1.204572
C184	C	0.829525	0.029204	0.461679
C185	C	1.162859	0.362537	0.795012
C186	C	1.496192	0.695871	1.128346
C187	C	0.820208	0.092496	0.423558
C188	C	1.153542	0.425829	0.756891
C189	C	1.486875	0.759162	1.090225
C190	C	0.867617	0.045144	0.696761
C191	C	1.200950	0.378477	1.030094
C192	C	1.534283	0.711810	1.363428
C193	C	0.867616	0.045140	0.772990
C194	C	1.200949	0.378473	1.106324
C195	C	1.534283	0.711806	1.439657
C196	C	0.772854	0.139849	0.773014
C197	C	1.106187	0.473182	1.106347
C198	C	1.439521	0.806515	1.439681
C199	C	0.772851	0.139847	0.696786
C200	C	1.106184	0.473180	1.030119
C201	C	1.439518	0.806513	1.363453
C202	C	0.820236	0.092495	0.658664
C203	C	1.153569	0.425828	0.991998
C204	C	1.486903	0.759162	1.325331
H205	H	0.242671	0.179506	0.076733
H206	H	0.576004	0.512839	0.410066
H207	H	0.909337	0.846172	0.743399
H208	H	0.147101	0.205028	-0.000265
H209	H	0.480434	0.538362	0.333069
H210	H	0.813767	0.871695	0.666402
H211	H	0.906198	0.006585	0.665721
H212	H	1.239532	0.339918	0.999054
H213	H	1.572865	0.673252	1.332388
H214	H	0.709599	-0.102967	-0.000182
H215	H	1.042933	0.230367	0.333151
H216	H	1.376266	0.563700	0.666484
H217	H	0.734269	0.178402	0.665767
H218	H	1.067603	0.511736	0.999100
H219	H	1.400936	0.845069	1.332433
C220	C	0.839752	-0.040407	0.419764
C221	C	1.173085	0.292927	0.753097
C222	C	1.506419	0.626260	1.086430
H223	H	0.845391	-0.078097	0.453382
H224	H	1.178724	0.255236	0.786715
H225	H	1.512057	0.588570	1.120049
H226	H	0.880138	-0.041875	0.389924
H227	H	1.213471	0.291459	0.723257
H228	H	1.546804	0.624792	1.056591
H229	H	0.800023	-0.044198	0.390132
H230	H	1.133357	0.289135	0.723466
H231	H	1.466690	0.622468	1.056799
C232	C	0.950986	-0.572688	-0.000257
C233	C	1.284320	-0.239355	0.333077
C234	C	1.617653	0.093978	0.666410
H235	H	0.942630	-0.523141	-0.000243
H236	H	1.275963	-0.189807	0.333091
H237	H	1.609296	0.143526	0.666424
H238	H	0.976829	-0.588033	-0.042494
H239	H	1.310162	-0.254699	0.290839
H240	H	1.643495	0.078634	0.624173
H241	H	0.976815	-0.588057	0.041971
H242	H	1.310148	-0.254724	0.375305
H243	H	1.643482	0.078610	0.708638
H244	H	0.803346	0.207313	0.568901
H245	H	1.136679	0.540646	0.902235
H246	H	1.470012	0.873980	1.235568
H247	H	0.046435	-0.026600	-0.000306
H248	H	0.379769	0.306734	0.333027
H249	H	0.713102	0.640067	0.666360
H250	H	0.906165	0.006578	0.333797
H251	H	1.239499	0.339911	0.667130
H252	H	1.572832	0.673245	1.000463
C253	C	0.382595	0.195438	0.088881
C254	C	0.715928	0.528771	0.422214
C255	C	1.049261	0.862105	0.755548
H256	H	0.346766	0.223847	0.114149
H257	H	0.680100	0.557180	0.447482
H258	H	1.013433	0.890513	0.780816
H259	H	0.407119	0.223899	0.058299
H260	H	0.740452	0.557232	0.391633
H261	H	1.073786	0.890566	0.724966
H262	H	0.414051	0.171828	0.123006
H263	H	0.747384	0.505161	0.456339
H264	H	1.080718	0.838495	0.789673
H265	H	0.177866	-0.024674	-0.000236
H266	H	0.511199	0.308660	0.333097
H267	H	0.844533	0.641993	0.666431
C268	C	0.637532	-0.036057	-0.000146
C269	C	0.970865	0.297277	0.333187
C270	C	1.304198	0.630610	0.666521
H271	H	0.610633	-0.074226	-0.000153
H272	H	0.943967	0.259107	0.333180
H273	H	1.277300	0.592440	0.666514
H274	H	0.666126	-0.038277	0.042087
H275	H	0.999459	0.295056	0.375420
H276	H	1.332793	0.628390	0.708753
H277	H	0.666164	-0.038268	-0.042379
H278	H	0.999497	0.295065	0.290955
H279	H	1.332830	0.628398	0.624288
C280	C	0.920956	-0.497187	-0.089349
C281	C	1.254289	-0.163854	0.243985
C282	C	1.587622	0.169480	0.577318
H283	H	0.950314	-0.469100	-0.114615
H284	H	1.283648	-0.135767	0.218718
H285	H	1.616981	0.197566	0.552051
H286	H	0.896537	-0.522225	-0.123463
H287	H	1.229870	-0.188891	0.209871
H288	H	1.563204	0.144442	0.543204
H289	H	0.948582	-0.529211	-0.058763
H290	H	1.281916	-0.195877	0.274571
H291	H	1.615249	0.137456	0.607904
H292	H	0.397755	0.005473	-0.077191
H293	H	0.731088	0.338806	0.256143
H294	H	1.064421	0.672140	0.589476
H295	H	0.837110	-0.022324	0.568948
H296	H	1.170443	0.311009	0.902282
H297	H	1.503777	0.644342	1.235615
H298	H	0.803318	0.207311	0.430619
H299	H	1.136651	0.540645	0.763952
H300	H	1.469984	0.873978	1.097285
C301	C	0.682881	-0.689207	-0.000216
C302	C	1.016214	-0.355873	0.333117
C303	C	1.349547	-0.022540	0.666450
H304	H	0.645649	-0.652208	-0.000211
H305	H	0.978983	-0.318874	0.333122
H306	H	1.312316	0.014459	0.666455
H307	H	0.679826	-0.717127	0.042011
H308	H	1.013159	-0.383794	0.375344
H309	H	1.346492	-0.050461	0.708677
H310	H	0.679843	-0.717102	-0.042455
H311	H	1.013176	-0.383769	0.290879
H312	H	1.346510	-0.050436	0.624212
H313	H	0.930822	-0.712049	-0.000273
H314	H	1.264156	-0.378715	0.333060
H315	H	1.597489	-0.045382	0.666394
C316	C	0.685116	-0.537082	-0.000196
C317	C	1.018450	-0.203749	0.333137
C318	C	1.351783	0.129585	0.666470
H319	H	0.646947	-0.563981	-0.000183
H320	H	0.980280	-0.230648	0.333151
H321	H	1.313614	0.102685	0.666484
H322	H	0.682903	-0.508456	-0.042422
H323	H	1.016236	-0.175123	0.290911
H324	H	1.349570	0.158210	0.624244
H325	H	0.682896	-0.508481	0.042043
H326	H	1.016229	-0.175148	0.375376
H327	H	1.349563	0.158185	0.708710
C328	C	0.919742	-0.006941	0.814896
C329	C	1.253076	0.326392	1.148229
C330	C	1.586409	0.659725	1.481562
H331	H	0.947964	-0.035136	0.781271
H332	H	1.281298	0.298198	1.114605
H333	H	1.614631	0.631531	1.447938
H334	H	0.894858	-0.035796	0.844652
H335	H	1.228191	0.297537	1.177985
H336	H	1.561524	0.630871	1.511319
H337	H	0.948576	0.017982	0.844609
H338	H	1.281909	0.351315	1.177943
H339	H	1.615243	0.684648	1.511276
H340	H	0.266331	0.003548	-0.077215
H341	H	0.599664	0.336881	0.256119
H342	H	0.932997	0.670215	0.589452
H343	H	0.731250	-0.461452	0.076779
H344	H	1.064583	-0.128119	0.410112
H345	H	1.397916	0.205214	0.743446
H346	H	0.734279	0.178402	0.804058
H347	H	1.067613	0.511736	1.137392
H348	H	1.400946	0.845069	1.470725
H349	H	0.906156	0.006579	0.195509
H350	H	1.239489	0.339912	0.528843
H351	H	1.572823	0.673245	0.862176
C352	C	0.720706	0.191926	0.344738
C353	C	1.054040	0.525260	0.678071
C354	C	1.387373	0.858593	1.011404
H355	H	0.727502	0.185153	0.395592
H356	H	1.060835	0.518486	0.728926
H357	H	1.394169	0.851819	1.062259
H358	H	0.674374	0.184501	0.332275
H359	H	1.007708	0.517835	0.665608
H360	H	1.341041	0.851168	0.998941
H361	H	0.728105	0.238266	0.332227
H362	H	1.061438	0.571600	0.665560
H363	H	1.394772	0.904933	0.998894
C364	C	0.720689	0.191921	0.184662
C365	C	1.054023	0.525255	0.517996
C366	C	1.387356	0.858588	0.851329
H367	H	0.727470	0.185137	0.133805
H368	H	1.060803	0.518470	0.467138
H369	H	1.394137	0.851803	0.800471
H370	H	0.728087	0.238259	0.197142
H371	H	1.061421	0.571592	0.530476
H372	H	1.394754	0.904925	0.863809
H373	H	0.674356	0.184494	0.197176
H374	H	1.007689	0.517827	0.530509
H375	H	1.341023	0.851161	0.863843
C376	C	0.601917	0.229817	-0.000183
C377	C	0.935250	0.563150	0.333151
C378	C	1.268583	0.896484	0.666484
H379	H	0.564917	0.267048	-0.000188
H380	H	0.898250	0.600381	0.333145
H381	H	1.231583	0.933714	0.666479
H382	H	0.629852	0.232869	-0.042404
H383	H	0.963186	0.566203	0.290929
H384	H	1.296519	0.899536	0.624263
H385	H	0.629797	0.232859	0.042061
H386	H	0.963130	0.566192	0.375395
H387	H	1.296464	0.899525	0.708728
C388	C	0.449782	0.227582	-0.000220
C389	C	0.783115	0.560915	0.333114
C390	C	1.116449	0.894249	0.666447
H391	H	0.402664	0.217805	-0.000224
H392	H	0.735997	0.551138	0.333110
H393	H	1.069330	0.884471	0.666443
H394	H	0.458195	0.253766	-0.042452
H395	H	0.791528	0.587099	0.290881
H396	H	1.124861	0.920432	0.624215
H397	H	0.458144	0.253768	0.042013
H398	H	0.791477	0.587101	0.375347
H399	H	1.124810	0.920434	0.708680
H400	H	0.733180	-0.330029	0.076796
H401	H	1.066514	0.003304	0.410130
H402	H	1.399847	0.336638	0.743463
C403	C	0.689438	-0.242324	-0.000177
C404	C	1.022772	0.091009	0.333156
C405	C	1.356105	0.424343	0.666490
H406	H	0.697795	-0.291872	-0.000173
H407	H	1.031128	0.041461	0.333160
H408	H	1.364461	0.374795	0.666493
H409	H	0.663608	-0.226960	-0.042400
H410	H	0.996941	0.106373	0.290933
H411	H	1.330274	0.439707	0.624266
H412	H	0.663598	-0.226975	0.042065
H413	H	0.996931	0.106358	0.375398
H414	H	1.330264	0.439691	0.708732
H415	H	0.493322	-0.020044	-0.000187
H416	H	0.826655	0.313289	0.333147
H417	H	1.159988	0.646623	0.666480
C418	C	0.002900	0.221032	-0.000294
C419	C	0.336233	0.554366	0.333040
C420	C	0.669566	0.887699	0.666373
H421	H	0.029799	0.259201	-0.000303
H422	H	0.363132	0.592535	0.333030
H423	H	0.696466	0.925868	0.666363
H424	H	-0.025737	0.223253	0.041931
H425	H	0.307596	0.556586	0.375264
H426	H	0.640929	0.889920	0.708597
H427	H	-0.025690	0.223246	-0.042535
H428	H	0.307643	0.556579	0.290799
H429	H	0.640977	0.889913	0.624132
H430	H	0.939303	-0.133736	-0.000212
H431	H	1.272636	0.199597	0.333121
H432	H	1.605970	0.532931	0.666454
C433	C	0.955307	-0.277938	-0.000226
C434	C	1.288640	0.055395	0.333108
C435	C	1.621974	0.388729	0.666441
H436	H	0.993478	-0.251041	-0.000223
H437	H	1.326811	0.082292	0.333110
H438	H	1.660145	0.415625	0.666444
H439	H	0.957535	-0.306546	-0.042455
H440	H	1.290868	0.026788	0.290878
H441	H	1.624202	0.360121	0.624211
H442	H	0.957509	-0.306557	0.042010
H443	H	1.290843	0.026777	0.375343
H444	H	1.624176	0.360110	0.708677
H445	H	0.909175	-0.353560	-0.077208
H446	H	1.242508	-0.020226	0.256125
H447	H	1.575842	0.313107	0.589458
