data_functionalizedCrystal
_audit_creation_method	'MofGen! by Chris Wilmer'
_symmetry_space_group_name_H-M	'P1'
_symmetry_Int_Tables_number	1
_symmetry_cell_setting	triclinic
loop_
_symmetry_equiv_pos_as_xyz
  x,y,z
_cell_length_a	15.995350
_cell_length_b	10.489741
_cell_length_c	14.472310
_cell_angle_alpha	89.999301
_cell_angle_beta	89.990621
_cell_angle_gamma	84.015774
loop_
_atom_site_label
_atom_site_type_symbol
_atom_site_fract_x
_atom_site_fract_y
_atom_site_fract_z
O1	O	1.111988	0.164399	-0.076762
O2	O	0.868335	0.184702	-0.076781
O3	O	0.995706	-0.011125	-0.076766
O4	O	0.984617	0.360226	-0.076777
O5	O	0.995673	-0.011114	0.076916
O6	O	0.868302	0.184713	0.076901
O7	O	1.111955	0.164411	0.076920
Cu8	Cu	0.990125	0.174563	0.090943
Cu9	Cu	0.990164	0.174549	-0.090804
O10	O	0.984584	0.360237	0.076905
C11	C	0.837119	0.183868	0.000058
C12	C	0.744153	0.181352	0.000050
C13	C	0.406351	0.172315	0.000070
C14	C	0.452944	0.032851	0.000417
C15	C	0.549650	0.035368	0.000064
C16	C	0.573939	0.176797	0.000061
C17	C	0.533285	0.245579	-0.087698
C18	C	0.436628	0.242076	-0.087765
C19	C	0.436269	0.244970	0.087001
C20	C	0.533214	0.244937	0.088154
C21	C	0.668651	0.179338	0.000053
C22	C	0.311638	0.169778	0.000072
C23	C	0.994852	-0.058639	0.000075
C24	C	0.992346	-0.200234	0.000073
C25	C	0.911304	-0.267240	0.000060
C26	C	0.949571	-0.359892	0.075836
C27	C	0.949623	-0.359878	-0.075682
C28	C	1.030647	-0.291021	0.075912
C29	C	1.030687	-0.290998	-0.075675
C30	C	1.069013	-0.383624	0.000120
C31	C	1.143171	0.165244	0.000079
C32	C	1.236137	0.167761	0.000080
C33	C	0.985438	0.407752	0.000062
C34	C	0.987944	0.549346	0.000058
N35	N	0.990104	0.174572	0.218774
N36	N	0.990192	0.174531	-0.218635
C37	C	0.990163	0.174544	0.592865
C38	C	0.921777	0.278976	0.553691
C39	C	0.921938	0.279357	0.446603
C40	C	0.990133	0.174558	0.407274
C41	C	1.077673	0.203626	0.446117
C42	C	1.077290	0.204368	0.553238
C43	C	0.971787	0.040735	0.553397
C44	C	0.969789	0.041628	0.446269
C45	C	0.990122	0.174563	0.302386
C46	C	0.990181	0.174542	0.697753
H47	H	0.415444	0.199381	0.153519
H48	H	0.909296	0.012784	0.580461
N49	N	1.076091	-0.250495	-0.160524
H50	H	1.135328	-0.294549	-0.161126
H51	H	1.045376	-0.275246	-0.217691
H52	H	0.905390	0.019568	0.420883
N53	N	1.031403	-0.066143	0.410828
H54	H	1.073567	-0.030163	0.368805
H55	H	1.061709	-0.111295	0.464727
N56	N	0.823047	-0.200224	0.000145
H57	H	0.792115	-0.226314	-0.056499
H58	H	0.792602	-0.225112	0.057473
H59	H	1.093360	0.301954	0.578212
N60	N	1.037829	-0.062213	0.586948
H61	H	1.079456	-0.022443	0.627514
H62	H	1.010024	-0.128071	0.623575
N63	N	0.904143	-0.400321	0.160697
H64	H	0.844572	-0.357550	0.160641
H65	H	0.903324	-0.496462	0.160332
H66	H	1.094107	0.300099	0.419278
H67	H	0.577739	-0.018699	0.062974
N68	N	0.835340	0.256425	0.587845
H69	H	0.792402	0.324477	0.561902
H70	H	0.821644	0.169121	0.566946
H71	H	0.560214	0.194727	0.153077
H72	H	0.561385	0.197797	-0.153007
H73	H	0.549200	0.348073	0.093452
H74	H	0.434072	-0.022892	0.063353
H75	H	1.064894	-0.260664	0.140046
H76	H	0.433029	-0.022644	-0.062167
N77	N	0.586131	-0.036731	-0.083415
H78	H	0.616333	0.022727	-0.123407
H79	H	0.627082	-0.110958	-0.062574
H80	H	0.418031	0.191907	-0.153364
H81	H	1.135706	-0.433981	0.000167
N82	N	0.904201	-0.400290	-0.160536
H83	H	0.884797	-0.322205	-0.198747
H84	H	0.943521	-0.461141	-0.198435
H85	H	0.856894	0.262038	0.420342
H86	H	0.933757	0.378654	0.420966
N87	N	0.394722	0.377700	-0.093007
H88	H	0.439061	0.439494	-0.095273
H89	H	0.358892	0.387943	-0.150516
N90	N	0.937242	0.409781	0.589284
H91	H	0.988350	0.401684	0.630679
H92	H	0.947031	0.467595	0.535408
N93	N	1.146747	0.107409	0.587572
H94	H	1.177484	0.064384	0.533117
H95	H	1.187362	0.152201	0.626257
N96	N	0.552831	0.383208	-0.092041
H97	H	0.588312	0.402341	-0.037031
H98	H	0.584577	0.397339	-0.150861
H99	H	0.405128	0.347796	0.087591
H100	H	1.129811	0.129587	0.420640
