data_functionalizedCrystal
_audit_creation_method	'MofGen! by Chris Wilmer'
_symmetry_space_group_name_H-M	'P1'
_symmetry_Int_Tables_number	1
_symmetry_cell_setting	triclinic
loop_
_symmetry_equiv_pos_as_xyz
  x,y,z
_cell_length_a	19.077105
_cell_length_b	12.645330
_cell_length_c	19.077271
_cell_angle_alpha	87.708706
_cell_angle_beta	89.912562
_cell_angle_gamma	87.714233
loop_
_atom_site_label
_atom_site_type_symbol
_atom_site_fract_x
_atom_site_fract_y
_atom_site_fract_z
Zn1	Zn	1.058228	-0.513030	0.440441
Zn2	Zn	1.062902	-0.683435	0.322944
Zn3	Zn	0.945467	-0.498782	0.318234
Zn4	Zn	0.940703	-0.682840	0.435695
O5	O	1.001825	-0.594522	0.379329
O6	O	1.157179	-0.541847	0.428811
O7	O	1.051275	-0.653227	0.223988
O8	O	0.960462	-0.352328	0.334460
O9	O	1.160614	-0.667043	0.342487
O10	O	1.043307	-0.362796	0.424245
O11	O	0.964995	-0.517563	0.220528
O12	O	0.846504	-0.516985	0.329859
O13	O	0.952343	-0.666028	0.534656
O14	O	0.843004	-0.652211	0.416157
O15	O	1.038688	-0.541269	0.538142
O16	O	1.046655	-0.831700	0.337885
O17	O	0.956876	-0.831263	0.420724
C18	C	0.819257	-0.582988	0.371983
C19	C	0.741153	-0.578081	0.368857
C20	C	0.702659	-0.646278	0.412248
C21	C	0.629272	-0.641653	0.409314
C22	C	0.594381	-0.568835	0.362985
C23	C	0.632880	-0.500630	0.319592
C24	C	0.706266	-0.505251	0.322529
C25	C	0.375094	-0.547451	0.349391
C26	C	0.301703	-0.542838	0.346455
C27	C	0.298100	-0.683860	0.436179
C28	C	0.371487	-0.688479	0.439110
C29	C	0.409980	-0.620270	0.395719
N30	N	0.519367	-0.564108	0.359983
N31	N	0.484992	-0.624992	0.398725
C32	C	1.001774	-0.869948	0.379317
C33	C	1.001816	-0.987781	0.379338
C34	C	0.945553	-1.155138	0.431628
C35	C	0.945283	-1.032551	0.431441
C36	C	0.984764	-1.026777	0.304480
C37	C	0.984420	-1.149374	0.304797
C38	C	1.075486	-1.160676	0.401318
C39	C	1.074965	-1.038135	0.402919
C40	C	1.185106	-0.606101	0.386704
C41	C	1.263209	-0.611035	0.389847
C42	C	0.994462	-0.605171	0.562608
C43	C	0.991325	-0.609710	0.640711
C44	C	1.001895	-0.318022	0.379357
C45	C	1.001924	-0.200195	0.379369
C46	C	1.034804	-0.546890	0.679220
C47	C	1.031847	-0.551149	0.752605
C48	C	0.985415	-0.618235	0.787480
C49	C	0.941931	-0.681057	0.748966
C50	C	0.944885	-0.676791	0.675582
C51	C	0.971758	-0.637953	1.006761
C52	C	0.968809	-0.642216	1.080150
C53	C	1.058724	-0.512306	1.083784
C54	C	1.061677	-0.508051	1.010399
C55	C	1.018190	-0.570869	0.971891
N56	N	0.982393	-0.622593	0.862492
N57	N	1.021209	-0.566505	0.896880
C58	C	1.009153	-0.583936	1.196762
C59	C	1.012288	-0.579396	1.118659
H60	H	0.597933	-0.697188	0.444648
H61	H	0.930996	-0.696848	1.108543
H62	H	1.067254	-0.499997	0.783956
H63	H	1.094127	-0.461162	1.115145
H64	H	0.904123	-0.735676	0.777367
N65	N	0.914420	-0.980474	0.279947
H66	H	0.893501	-0.934237	0.317205
H67	H	0.881998	-1.039707	0.271026
H68	H	1.024653	-0.997588	0.264348
N69	N	1.133211	-0.998255	0.356480
H70	H	1.179522	-1.031948	0.372881
H71	H	1.134758	-0.918757	0.359005
H72	H	0.266751	-0.739390	0.471506
N73	N	0.409109	-0.767024	0.489082
H74	H	0.394332	-0.752792	0.538796
H75	H	0.461431	-0.759575	0.484302
H76	H	1.117448	-1.189888	0.363292
H77	H	0.909473	-0.727935	0.644228
H78	H	0.273297	-0.483528	0.308732
N79	N	1.111759	-0.435698	0.972784
H80	H	1.138855	-0.396547	1.008316
H81	H	1.084395	-0.383063	0.941188
N82	N	1.096883	-1.207173	0.472598
H83	H	1.060989	-1.184904	0.508658
H84	H	1.144228	-1.180759	0.485576
N85	N	0.924834	-0.705667	0.965231
H86	H	0.894967	-0.748802	0.998462
H87	H	0.954624	-0.754775	0.935915
N88	N	0.747781	-0.431693	0.275724
H89	H	0.779527	-0.474715	0.244330
H90	H	0.777049	-0.386226	0.305603
N91	N	0.740289	-0.724826	0.462213
H92	H	0.704765	-0.767325	0.489257
H93	H	0.769444	-0.685563	0.496000
H94	H	0.406427	-0.491918	0.314054
N95	N	1.084889	-0.474539	0.641607
H96	H	1.111983	-0.435389	0.677141
H97	H	1.057525	-0.421904	0.610011
H98	H	0.891295	-1.181860	0.417025
H99	H	0.604466	-0.441336	0.281872
H100	H	0.955752	-1.188558	0.487216
N101	N	0.958950	-0.997902	0.504841
H102	H	0.965205	-1.062308	0.537609
H103	H	0.917870	-0.952185	0.520938
H104	H	0.890688	-0.999106	0.416665
H105	H	0.930735	-1.173698	0.286550
H106	H	1.023859	-1.178956	0.264372
H107	H	1.087879	-1.013128	0.458025
