data_functionalizedCrystal
_audit_creation_method	'MofGen! by Chris Wilmer'
_symmetry_space_group_name_H-M	'P1'
_symmetry_Int_Tables_number	1
_symmetry_cell_setting	triclinic
loop_
_symmetry_equiv_pos_as_xyz
  x,y,z
_cell_length_a	19.288862
_cell_length_b	16.992697
_cell_length_c	17.766277
_cell_angle_alpha	90.000788
_cell_angle_beta	89.987962
_cell_angle_gamma	86.901868
loop_
_atom_site_label
_atom_site_type_symbol
_atom_site_fract_x
_atom_site_fract_y
_atom_site_fract_z
O1	O	-0.147253	-1.039871	0.062506
O2	O	-0.145638	-0.811591	0.062532
O3	O	-0.045700	-0.932328	0.062499
O4	O	-0.247191	-0.919134	0.062539
O5	O	-0.045696	-0.932315	-0.062689
O6	O	-0.145634	-0.811578	-0.062657
O7	O	-0.147250	-1.039858	-0.062682
Cu8	Cu	-0.146442	-0.925717	-0.074100
Cu9	Cu	-0.146446	-0.925732	0.073950
O10	O	-0.247188	-0.919121	-0.062650
C11	C	-0.143558	-0.782380	-0.000060
C12	C	-0.137357	-0.695357	-0.000051
C13	C	-0.197185	-0.644905	-0.000039
C14	C	-0.191354	-0.563139	-0.000050
C15	C	-0.125695	-0.531827	-0.000066
C16	C	-0.065863	-0.582286	-0.000081
C17	C	-0.071694	-0.664050	-0.000076
C18	C	-0.101528	-0.288315	-0.000088
C19	C	-0.095701	-0.206544	-0.000091
C20	C	-0.221194	-0.187403	-0.000061
C21	C	-0.227019	-0.269170	-0.000051
C22	C	-0.167186	-0.319621	-0.000070
N23	N	-0.119734	-0.448249	-0.000075
N24	N	-0.173148	-0.403198	-0.000067
C25	C	-0.019797	-0.931897	-0.000099
C26	C	0.057381	-0.930624	-0.000108
C27	C	0.097949	-1.001467	-0.000122
C28	C	0.170466	-1.000270	-0.000113
C29	C	0.202412	-0.928227	-0.000106
C30	C	0.161835	-0.857375	-0.000088
C31	C	0.089320	-0.858573	-0.000089
C32	C	0.314001	-0.871589	-0.043955
C33	C	0.386516	-0.870393	-0.043958
C34	C	0.426073	-0.924528	-0.000098
C35	C	0.393109	-0.979871	0.043756
C36	C	0.320593	-0.981069	0.043755
C37	C	0.281042	-0.926920	-0.000104
C38	C	0.545272	-0.994078	-0.000100
C39	C	0.617790	-0.992879	-0.000087
C40	C	0.609158	-0.849981	-0.000070
C41	C	0.536642	-0.851183	-0.000076
C42	C	0.504703	-0.923233	-0.000095
C43	C	0.726909	-0.919554	-0.000061
C44	C	0.649732	-0.920835	-0.000078
N45	N	-0.146439	-0.925711	-0.178231
C46	C	-0.149330	-0.069070	-0.000086
C47	C	-0.155529	-0.156092	-0.000079
C48	C	-0.102204	-0.979207	-0.782534
C49	C	-0.102206	-0.979209	-0.703732
C50	C	-0.146440	-0.925733	-0.664319
C51	C	-0.190688	-0.872265	-0.703715
C52	C	-0.190690	-0.872271	-0.782515
C53	C	-0.151546	-0.854299	-0.539479
C54	C	-0.151539	-0.854292	-0.460680
C55	C	-0.146437	-0.925716	-0.421273
C56	C	-0.141328	-0.997149	-0.460675
C57	C	-0.141330	-0.997155	-0.539475
C58	C	-0.146443	-0.925721	-0.578874
C59	C	-0.102197	-0.979185	-0.296441
C60	C	-0.102204	-0.979187	-0.217638
C61	C	-0.190682	-0.872237	-0.217622
C62	C	-0.190679	-0.872241	-0.296424
C63	C	-0.146433	-0.925715	-0.335829
N64	N	-0.146444	-0.925744	0.178080
H65	H	-0.269906	-0.146317	-0.000048
H66	H	-0.155704	-0.796133	-0.571557
C67	C	0.176800	-0.735224	0.064285
C68	C	0.196949	-0.778184	-0.000079
H69	H	0.198482	-0.686336	0.064294
H70	H	0.127813	-0.725799	0.064281
H71	H	0.190453	-0.764400	0.107930
H72	H	0.183292	-0.749011	-0.043724
H73	H	0.245948	-0.787607	-0.000082
H74	H	0.071949	-1.060136	-0.000134
C75	C	-0.223854	-0.736390	-0.320686
C76	C	-0.239302	-0.813464	-0.339723
H77	H	-0.253872	-0.700105	-0.347421
H78	H	-0.230187	-0.728740	-0.268122
H79	H	-0.177028	-0.728054	-0.333616
H80	H	-0.286127	-0.821802	-0.326788
H81	H	-0.232975	-0.821118	-0.392299
C82	C	0.171721	-1.141638	-0.000149
C83	C	0.215069	-1.078146	-0.000133
H84	H	0.199257	-1.189714	-0.000167
H85	H	0.143253	-1.139147	0.043505
H86	H	0.143263	-1.139120	-0.043807
H87	H	0.243524	-1.080661	0.043528
H88	H	0.243549	-1.080639	-0.043792
C89	C	0.418412	-1.029519	0.167832
C90	C	0.436577	-1.039384	0.091974
H91	H	0.445246	-1.066264	0.197596
H92	H	0.427165	-0.977465	0.183256
H93	H	0.370505	-1.038152	0.174092
H94	H	0.484483	-1.030746	0.085713
H95	H	0.427830	-1.091450	0.076546
C96	C	-0.014734	-1.084909	-0.711654
C97	C	-0.053569	-1.037974	-0.660426
H98	H	0.015295	-1.121183	-0.684919
H99	H	-0.045216	-1.113013	-0.742375
H100	H	0.012067	-1.052359	-0.742402
H101	H	-0.080374	-1.070524	-0.629682
H102	H	-0.023083	-1.009868	-0.629692
H103	H	-0.042231	-0.181054	-0.000104
H104	H	-0.137172	-1.055318	-0.571553
C105	C	0.231252	-0.852725	-0.144154
C106	C	0.270525	-0.812078	-0.092171
H107	H	0.204410	-0.815984	-0.173915
H108	H	0.261459	-0.883901	-0.175771
H109	H	0.201244	-0.885847	-0.118026
H110	H	0.300537	-0.778960	-0.118299
H111	H	0.240314	-0.780888	-0.060550
C112	C	0.704368	-1.074413	-0.064446
C113	C	0.662389	-1.070753	-0.000097
H114	H	0.731905	-1.122488	-0.064447
H115	H	0.675911	-1.071909	-0.108096
H116	H	0.733765	-1.031329	-0.064426
H117	H	0.632988	-1.113834	-0.000119
H118	H	0.690849	-1.073264	0.043565
H119	H	0.519267	-1.052746	-0.000112
C120	C	-0.306381	-0.350053	-0.064348
C121	C	-0.299187	-0.303603	-0.000010
H122	H	-0.350932	-0.371318	-0.064308
H123	H	-0.301526	-0.318561	-0.108006
H124	H	-0.271570	-0.391790	-0.064353
H125	H	-0.333995	-0.261863	-0.000008
H126	H	-0.304048	-0.335096	0.043659
C127	C	-0.257594	-0.460080	0.064323
C128	C	-0.257121	-0.507683	-0.000028
H129	H	-0.298196	-0.425842	0.064333
H130	H	-0.257257	-0.492374	0.107972
H131	H	-0.217655	-0.429732	0.064299
H132	H	-0.297058	-0.538036	-0.000001
H133	H	-0.257465	-0.475386	-0.043688
C134	C	0.002777	-0.777019	-0.064434
C135	C	0.044721	-0.780699	-0.000079
H136	H	-0.024761	-0.728944	-0.064424
H137	H	0.031256	-0.779510	-0.108080
H138	H	-0.026621	-0.820103	-0.064435
H139	H	0.074122	-0.737618	-0.000081
H140	H	0.016238	-0.778201	0.043579
C141	C	0.023100	-0.299010	-0.000112
C142	C	-0.035760	-0.343764	-0.000102
H143	H	0.063703	-0.333247	-0.000116
H144	H	0.022762	-0.266724	-0.043766
H145	H	0.022756	-0.266718	0.043547
H146	H	-0.035419	-0.376053	-0.043764
H147	H	-0.035422	-0.376065	0.043556
H148	H	-0.012401	-0.556785	-0.000105
C149	C	0.033469	-0.705547	0.064264
C150	C	-0.005930	-0.719514	-0.000083
H151	H	0.074067	-0.739792	0.064258
H152	H	0.046339	-0.652378	0.064254
H153	H	0.006724	-0.715013	0.107921
H154	H	0.020813	-0.710042	-0.043740
H155	H	-0.018799	-0.772695	-0.000079
H156	H	-0.066178	-1.022750	-0.814615
C157	C	-0.191812	-1.120737	-0.436452
C158	C	-0.135732	-1.075680	-0.417391
H159	H	-0.188355	-1.169222	-0.409736
H160	H	-0.234035	-1.092624	-0.423520
H161	H	-0.191070	-1.130933	-0.489026
H162	H	-0.136477	-1.065479	-0.364817
H163	H	-0.093498	-1.103798	-0.430318
H164	H	0.635168	-0.791322	-0.000060
H165	H	-0.066171	-1.022729	-0.328525
H166	H	-0.250652	-0.670392	-0.000025
H167	H	-0.066181	-1.022728	-0.185569
H168	H	-0.226701	-0.828699	-0.185533
C169	C	0.535396	-0.709819	-0.000070
C170	C	0.492045	-0.773309	-0.000075
H171	H	0.507863	-0.661742	-0.000073
H172	H	0.563847	-0.712326	0.043585
H173	H	0.563872	-0.712327	-0.043727
H174	H	0.463573	-0.770804	0.043586
H175	H	0.463582	-0.770801	-0.043734
C176	C	0.400597	-0.733409	-0.069399
C177	C	0.422745	-0.809560	-0.092160
H178	H	0.422965	-0.695852	-0.099155
H179	H	0.351755	-0.726381	-0.075676
H180	H	0.412062	-0.726345	-0.017930
H181	H	0.411275	-0.816625	-0.143627
H182	H	0.471598	-0.816591	-0.085890
C183	C	-0.161648	-0.713085	-0.468600
C184	C	-0.157156	-0.775775	-0.417374
H185	H	-0.165120	-0.664612	-0.441864
H186	H	-0.121304	-0.714814	-0.499345
H187	H	-0.201575	-0.717309	-0.499325
H188	H	-0.117226	-0.771554	-0.386653
H189	H	-0.197505	-0.774044	-0.386616
C190	C	-0.284236	-0.854909	-0.615068
C191	C	-0.239309	-0.813483	-0.660395
H192	H	-0.314253	-0.818619	-0.588322
H193	H	-0.311043	-0.887446	-0.645799
H194	H	-0.257880	-0.886749	-0.580334
H195	H	-0.265666	-0.781648	-0.695133
H196	H	-0.212500	-0.780932	-0.629661
H197	H	0.293757	-1.026130	0.079463
C198	C	-0.278144	-0.766554	-0.774583
C199	C	-0.239315	-0.813493	-0.825814
H200	H	-0.308159	-0.730263	-0.801317
H201	H	-0.304952	-0.799093	-0.743845
H202	H	-0.247651	-0.738461	-0.743853
H203	H	-0.269808	-0.841590	-0.856541
H204	H	-0.212505	-0.780949	-0.856565
