data_functionalizedCrystal
_audit_creation_method	'MofGen! by Chris Wilmer'
_symmetry_space_group_name_H-M	'P1'
_symmetry_Int_Tables_number	1
_symmetry_cell_setting	triclinic
loop_
_symmetry_equiv_pos_as_xyz
  x,y,z
_cell_length_a	12.645331
_cell_length_b	13.032721
_cell_length_c	13.033454
_cell_angle_alpha	90.931327
_cell_angle_beta	97.160230
_cell_angle_gamma	82.796443
loop_
_atom_site_label
_atom_site_type_symbol
_atom_site_fract_x
_atom_site_fract_y
_atom_site_fract_z
Zn1	Zn	1.495869	0.335532	-0.633493
Zn2	Zn	1.995869	0.835532	-0.133493
Zn3	Zn	1.490108	0.529385	-0.483355
Zn4	Zn	1.990108	1.029385	0.016645
Zn5	Zn	1.337915	0.357426	-0.461538
Zn6	Zn	1.837915	0.857426	0.038462
Zn7	Zn	1.293600	0.507464	-0.655266
Zn8	Zn	1.793600	1.007464	-0.155266
O9	O	1.404373	0.432452	-0.558413
O10	O	1.904373	0.932452	-0.058413
O11	O	1.643448	0.361259	-0.613595
O12	O	2.143448	0.861259	-0.113595
O13	O	1.486054	0.524911	-0.336551
O14	O	1.986054	1.024911	0.163449
O15	O	1.379825	0.210602	-0.466106
O16	O	1.879825	0.710602	0.033894
O17	O	1.639215	0.503681	-0.503289
O18	O	2.139215	1.003681	-0.003289
O19	O	1.495873	0.194517	-0.592440
O20	O	1.995873	0.694517	-0.092440
O21	O	1.374239	0.398573	-0.320523
O22	O	1.874239	0.898573	0.179477
O23	O	1.183693	0.377317	-0.487218
O24	O	1.683693	0.877317	0.012782
O25	O	1.304296	0.466320	-0.796287
O26	O	1.804296	0.966320	-0.296287
O27	O	1.151135	0.487549	-0.629550
O28	O	1.651135	0.987549	-0.129550
O29	O	1.452902	0.340002	-0.780290
O30	O	1.952902	0.840002	-0.280290
O31	O	1.443083	0.670396	-0.524402
O32	O	1.943083	1.170396	-0.024402
O33	O	1.298710	0.654291	-0.650705
O34	O	1.798710	1.154291	-0.150705
C35	C	1.128950	0.432431	-0.558380
C36	C	1.628950	0.932431	-0.058380
C37	C	1.011117	0.432444	-0.558394
C38	C	1.511117	0.932444	-0.058394
C39	C	1.365489	0.699658	-0.592306
C40	C	1.865489	1.199658	-0.092306
C41	C	1.348947	0.813965	-0.606840
C42	C	1.848947	1.313965	-0.106840
C43	C	1.374299	0.398274	-0.826646
C44	C	1.874299	0.898274	-0.326646
C45	C	1.361483	0.383709	-0.940951
C46	C	1.861483	0.883709	-0.440951
C47	C	0.864004	0.362676	-0.469245
C48	C	1.364004	0.862676	0.030755
C49	C	0.986572	0.362926	-0.468923
C50	C	1.486572	0.862926	0.031077
C51	C	0.954190	0.544546	-0.542538
C52	C	1.454190	1.044546	-0.042538
C53	C	0.831716	0.544178	-0.541944
C54	C	1.331716	1.044178	-0.041944
C55	C	0.835712	0.391102	-0.663834
C56	C	1.335712	0.891102	-0.163834
C57	C	0.958737	0.388759	-0.662921
C58	C	1.458737	0.888759	-0.162921
C59	C	1.680871	0.432473	-0.558447
C60	C	2.180871	0.932473	-0.058447
C61	C	1.798698	0.432482	-0.558461
C62	C	2.298698	0.932482	-0.058461
C63	C	1.443435	0.164199	-0.524410
C64	C	1.943435	0.664199	-0.024410
C65	C	1.460081	0.049886	-0.509920
C66	C	1.960081	0.549886	-0.009920
C67	C	1.413057	0.872855	-0.550874
C68	C	1.913057	1.372855	-0.050874
C69	C	1.395962	0.990998	-0.565894
C70	C	1.895962	1.490998	-0.065894
C71	C	1.411093	0.439725	-0.999843
C72	C	1.911093	0.939725	-0.499843
C73	C	1.397848	0.424673	-1.117983
C74	C	1.897848	0.924673	-0.617983
C75	C	1.434402	0.466422	-0.291214
C76	C	1.934402	0.966422	0.208786
C77	C	1.447465	0.480697	-0.176873
C78	C	1.947465	0.980697	0.323127
H79	H	1.026255	0.280230	-0.477283
H80	H	1.526255	0.780230	0.022717
H81	H	1.527633	1.012845	-0.450886
H82	H	2.027633	1.512845	0.049114
C83	C	1.327217	0.344824	-1.168017
C84	C	1.827217	0.844824	-0.668017
N85	N	1.274018	0.284684	-1.205705
N86	N	1.774018	0.784684	-0.705705
H87	H	0.808628	0.577651	-0.465320
H88	H	1.308628	1.077651	0.034680
H89	H	1.463376	0.498822	-0.962798
H90	H	1.963376	0.998822	-0.462798
C91	C	0.837218	0.250662	-0.480223
C92	C	1.337218	0.750662	0.019777
N93	N	0.817035	0.166291	-0.488492
N94	N	1.317035	0.666291	0.011508
C95	C	1.257696	0.864008	-0.686593
C96	C	1.757696	1.364008	-0.186593
N97	N	1.188961	0.901700	-0.746663
N98	N	1.688961	1.401700	-0.246663
H99	H	0.968213	0.598545	-0.606083
H100	H	1.468213	1.098545	-0.106083
H101	H	1.309209	0.324604	-0.977994
H102	H	1.809209	0.824604	-0.477994
C103	C	0.830967	0.400751	-0.363983
C104	C	1.330967	0.900751	0.136017
N105	N	0.806080	0.429432	-0.284701
N106	N	1.306080	0.929432	0.215299
C107	C	1.034813	0.401378	-0.363056
C108	C	1.534813	0.901378	0.136944
N109	N	1.071147	0.430345	-0.283313
N110	N	1.571147	0.930345	0.216687
C111	C	1.518097	0.560547	-1.126841
C112	C	2.018097	1.060547	-0.626841
N113	N	1.571294	0.620690	-1.089156
N114	N	2.071294	1.120690	-0.589156
H115	H	0.786942	0.598691	-0.604838
H116	H	1.286942	1.098691	-0.104838
H117	H	1.480605	0.835810	-0.491843
H118	H	1.980605	1.335810	0.008157
C119	C	0.805124	0.281610	-0.686892
C120	C	1.305124	0.781610	-0.186892
N121	N	0.782090	0.199136	-0.704246
N122	N	1.282090	0.699136	-0.204246
C123	C	1.002893	0.590159	-0.440240
C124	C	1.502893	1.090159	0.059760
N125	N	1.039574	0.624509	-0.363185
N126	N	1.539574	1.124509	0.136815
H127	H	1.328418	1.028040	-0.624936
H128	H	1.828418	1.528040	-0.124936
H129	H	0.974583	0.434791	-0.731837
H130	H	1.474583	0.934791	-0.231837
C131	C	1.010294	0.277214	-0.679405
C132	C	1.510294	0.777214	-0.179405
N133	N	1.049131	0.193196	-0.691816
N134	N	1.549131	0.693196	-0.191816
C135	C	0.776193	0.459559	-0.753408
C136	C	1.276193	0.959559	-0.253408
N137	N	0.731357	0.511122	-0.820869
N138	N	1.231357	1.011122	-0.320869
