data_functionalizedCrystal
_audit_creation_method	'MofGen! by Chris Wilmer'
_symmetry_space_group_name_H-M	'P1'
_symmetry_Int_Tables_number	1
_symmetry_cell_setting	triclinic
loop_
_symmetry_equiv_pos_as_xyz
  x,y,z
_cell_length_a	15.995300
_cell_length_b	14.472311
_cell_length_c	11.792241
_cell_angle_alpha	90.003432
_cell_angle_beta	96.167389
_cell_angle_gamma	90.007636
loop_
_atom_site_label
_atom_site_type_symbol
_atom_site_fract_x
_atom_site_fract_y
_atom_site_fract_z
O1	O	1.111678	0.076875	-0.146009
O2	O	0.867979	0.076870	-0.164134
O3	O	0.995742	0.076866	0.010150
O4	O	0.983914	0.076879	-0.320293
O5	O	0.995725	-0.076816	0.010127
O6	O	0.867962	-0.076812	-0.164157
O7	O	1.111661	-0.076807	-0.146032
Cu8	Cu	0.989810	-0.090842	-0.155097
Cu9	Cu	0.989830	0.090905	-0.155070
O10	O	0.983897	-0.076803	-0.320316
C11	C	0.836772	0.000028	-0.163407
C12	C	0.743809	0.000026	-0.161190
N13	N	0.989801	-0.218673	-0.155115
C14	C	0.573607	0.000033	-0.157097
C15	C	0.526705	0.000035	-0.281191
C16	C	0.430007	0.000386	-0.278927
C17	C	0.406032	0.000038	-0.153069
C18	C	0.446895	0.087623	-0.091489
C19	C	0.543543	0.087694	-0.094629
C20	C	0.543794	-0.087077	-0.092818
C21	C	0.446850	-0.088226	-0.092829
C22	C	0.311327	0.000045	-0.150786
C23	C	0.668313	0.000032	-0.159377
C24	C	0.989816	-0.407173	-0.155090
C25	C	0.921441	-0.446401	-0.248312
C26	C	0.921204	-0.553489	-0.248058
C27	C	0.989830	-0.592764	-0.155067
C28	C	0.970567	-0.553879	-0.036504
C29	C	0.970067	-0.446758	-0.037064
C30	C	1.077661	-0.446629	-0.179362
C31	C	1.077093	-0.553758	-0.182039
C32	C	0.989840	-0.697652	-0.155047
C33	C	0.989805	-0.302285	-0.155102
C34	C	1.142868	0.000037	-0.146760
C35	C	1.235831	0.000045	-0.148976
C36	C	0.994991	0.000025	0.052423
C37	C	0.992767	0.000026	0.178417
N38	N	0.989845	0.218736	-0.155042
C39	C	0.984649	0.000040	-0.362589
C40	C	0.986873	0.000045	-0.488584
C41	C	0.988678	0.000042	0.409094
C42	C	0.990950	0.000033	0.280729
H43	H	0.401756	-0.062383	-0.327314
F44	F	0.393899	0.082934	-0.341873
H45	H	0.905997	-0.421791	-0.015743
F46	F	0.551573	-0.081726	-0.346631
H47	H	0.564472	-0.153483	-0.133683
F48	F	1.032670	-0.412833	0.056361
H49	H	0.419707	-0.153022	-0.137799
H50	H	0.932705	-0.579782	-0.336176
H51	H	0.546543	0.062752	-0.330309
H52	H	0.562071	0.153416	-0.138991
H53	H	0.575403	0.091433	-0.003505
F54	F	0.410121	0.173146	-0.146722
H55	H	0.432376	0.090630	0.000989
H56	H	0.431095	-0.093777	-0.001070
F57	F	0.584804	-0.088194	0.026762
H58	H	0.856624	-0.419503	-0.232979
F59	F	0.936220	-0.412738	-0.363884
H60	H	0.856026	-0.579136	-0.232497
H61	H	1.019042	-0.579315	0.034561
H62	H	0.907236	-0.580733	-0.014661
F63	F	1.101788	-0.411321	-0.289990
F64	F	1.096194	-0.586973	-0.296046
H65	H	1.130380	-0.580491	-0.118571
H66	H	1.128547	-0.421252	-0.111387
