data_functionalizedCrystal
_audit_creation_method	'MofGen! by Chris Wilmer'
_symmetry_space_group_name_H-M	'P1'
_symmetry_Int_Tables_number	1
_symmetry_cell_setting	triclinic
loop_
_symmetry_equiv_pos_as_xyz
  x,y,z
_cell_length_a	15.944493
_cell_length_b	14.421503
_cell_length_c	10.540558
_cell_angle_alpha	90.008276
_cell_angle_beta	95.995921
_cell_angle_gamma	89.992353
loop_
_atom_site_label
_atom_site_type_symbol
_atom_site_fract_x
_atom_site_fract_y
_atom_site_fract_z
O1	O	1.115522	0.077085	-0.163350
O2	O	0.871088	0.077088	-0.183611
O3	O	0.998873	0.077096	0.011302
O4	O	0.987736	0.077077	-0.358263
O5	O	0.998889	-0.077127	0.011289
O6	O	0.871103	-0.077135	-0.183624
O7	O	1.115538	-0.077138	-0.163363
Cu8	Cu	0.993322	-0.091219	-0.173495
Cu9	Cu	0.993303	0.091168	-0.173480
O10	O	0.987752	-0.077147	-0.358276
C11	C	0.839796	-0.000023	-0.182789
C12	C	0.746532	-0.000021	-0.180307
N13	N	0.993341	-0.219500	-0.173504
C14	C	0.511461	-0.000027	-0.295037
C15	C	0.460539	-0.076068	-0.233174
C16	C	0.575783	-0.000023	-0.175707
C17	C	0.460528	0.075985	-0.233133
C18	C	0.410847	-0.000020	-0.171272
C19	C	0.526090	-0.076126	-0.113876
C20	C	0.526082	0.075994	-0.113852
C21	C	0.475192	-0.000065	-0.051901
C22	C	0.670799	-0.000025	-0.178265
C23	C	0.315835	-0.000025	-0.168704
C24	C	1.052442	-0.469125	-0.083357
C25	C	0.976393	-0.530919	-0.058722
C26	C	0.993322	-0.408661	-0.173489
C27	C	1.069354	-0.530961	-0.198049
C28	C	0.993311	-0.591383	-0.173471
C29	C	0.917234	-0.469095	-0.148798
C30	C	1.010246	-0.469131	-0.288175
C31	C	0.934141	-0.530898	-0.263589
C32	C	0.993330	-0.303400	-0.173496
C33	C	0.993295	-0.696642	-0.173465
C34	C	1.146830	-0.000025	-0.164185
C35	C	1.240093	-0.000021	-0.166668
C36	C	0.998043	-0.000011	0.058586
C37	C	0.995534	0.000003	0.199498
N38	N	0.993291	0.219450	-0.173460
C39	C	0.899636	0.000361	0.381588
C40	C	0.902180	0.000005	0.235006
C41	C	1.040466	-0.088064	0.261774
C42	C	1.037273	-0.088129	0.408273
C43	C	1.039154	0.087252	0.408832
C44	C	1.040020	0.088408	0.261863
C45	C	0.988572	-0.000022	0.594437
C46	C	0.991047	0.000015	0.453519
H47	H	0.527702	-0.000103	-0.397827
Br48	Br	0.850718	-0.575822	-0.390631
Br49	Br	0.412787	0.183118	-0.317156
H50	H	0.852916	-0.442034	-0.127907
H51	H	1.024594	-0.441970	-0.385139
Br52	Br	0.981941	-0.197850	0.454501
Br53	Br	0.448376	-0.000127	0.119547
H54	H	0.962068	-0.558061	0.038272
H55	H	1.133657	-0.558136	-0.218831
Br56	Br	0.573638	-0.183384	-0.029939
H57	H	0.554719	0.140289	-0.063490
H58	H	1.106580	0.087846	0.456997
H59	H	1.102384	-0.442001	-0.007092
Br60	Br	0.412823	-0.183225	-0.317172
Br61	Br	0.843254	0.105226	0.163179
Br62	Br	0.838154	0.105632	0.428401
H63	H	0.862915	-0.062439	0.411278
Br64	Br	0.842856	-0.105393	0.164563
H65	H	1.104410	-0.092123	0.457176
Br66	Br	1.154734	-0.093531	0.226116
Br67	Br	0.988469	-0.197306	0.190045
Br68	Br	0.988775	0.198513	0.460710
Br69	Br	0.985693	0.197013	0.192192
Br70	Br	1.153462	0.097277	0.223067
