data_functionalizedCrystal
_audit_creation_method	'MofGen! by Chris Wilmer'
_symmetry_space_group_name_H-M	'P1'
_symmetry_Int_Tables_number	1
_symmetry_cell_setting	triclinic
loop_
_symmetry_equiv_pos_as_xyz
  x,y,z
_cell_length_a	16.109301
_cell_length_b	19.288865
_cell_length_c	17.766277
_cell_angle_alpha	90.011603
_cell_angle_beta	89.993359
_cell_angle_gamma	96.701136
loop_
_atom_site_label
_atom_site_type_symbol
_atom_site_fract_x
_atom_site_fract_y
_atom_site_fract_z
O1	O	1.102832	-0.089282	-0.062555
O2	O	1.602832	0.410718	0.437445
O3	O	0.860732	-0.100392	-0.062569
O4	O	1.360732	0.399608	0.437431
O5	O	0.988778	0.006277	-0.062547
O6	O	1.488778	0.506277	0.437453
O7	O	0.974787	-0.195951	-0.062577
O8	O	1.474787	0.304049	0.437423
O9	O	0.988755	0.006282	0.062642
O10	O	1.488755	0.506282	0.562642
O11	O	0.860710	-0.100387	0.062620
O12	O	1.360710	0.399613	0.562620
O13	O	1.102810	-0.089276	0.062633
O14	O	1.602810	0.410724	0.562633
Cu15	Cu	0.981758	-0.094831	0.074057
Cu16	Cu	1.481758	0.405169	0.574057
Cu17	Cu	0.981784	-0.094838	-0.073993
Cu18	Cu	1.481784	0.405162	0.426007
O19	O	0.974764	-0.195945	0.062611
O20	O	1.474764	0.304055	0.562611
C21	C	0.829748	-0.099940	0.000024
C22	C	1.329748	0.400060	0.500024
C23	C	0.737457	-0.098590	0.000020
C24	C	1.237457	0.401410	0.500020
C25	C	0.988316	0.032157	0.000050
C26	C	1.488316	0.532157	0.500050
C27	C	0.986965	0.109264	0.000056
C28	C	1.486965	0.609264	0.500056
N29	N	0.981745	-0.094826	0.178188
N30	N	1.481745	0.405174	0.678188
C31	C	0.514979	-0.158748	0.000020
C32	C	1.014979	0.341252	0.500020
C33	C	0.428263	-0.157475	0.000025
C34	C	0.928263	0.342525	0.500025
C35	C	0.448570	-0.030916	0.000041
C36	C	0.948570	0.469084	0.500041
C37	C	0.535284	-0.032190	0.000041
C38	C	1.035284	0.467810	0.500041
C39	C	0.568486	-0.096108	0.000027
C40	C	1.068486	0.403892	0.500027
C41	C	0.395056	-0.093561	0.000031
C42	C	0.895056	0.406439	0.500031
C43	C	0.301034	-0.092180	0.000037
C44	C	0.801034	0.407820	0.500037
C45	C	0.662513	-0.097489	0.000023
C46	C	1.162513	0.402511	0.500023
C47	C	1.133794	-0.089729	0.000039
C48	C	1.633794	0.410271	0.500039
C49	C	1.226085	-0.091078	0.000038
C50	C	1.726085	0.408922	0.500038
C51	C	0.975226	-0.221825	0.000013
C52	C	1.475226	0.278175	0.500013
C53	C	0.976577	-0.298932	0.000002
C54	C	1.476577	0.201068	0.500002
C55	C	1.062096	0.153781	0.000064
C56	C	1.562096	0.653781	0.500064
C57	C	1.060827	0.226231	0.000052
C58	C	1.560827	0.726231	0.500052
C59	C	0.984421	0.254161	0.000047
C60	C	1.484421	0.754161	0.500047
C61	C	0.909280	0.209634	0.000036
C62	C	1.409280	0.709634	0.500036
C63	C	0.910552	0.137185	0.000040
C64	C	1.410552	0.637185	0.500040
C65	C	0.924350	0.362593	0.043895
C66	C	1.424350	0.862593	0.543895
C67	C	0.923082	0.435041	0.043895
C68	C	1.423082	0.935041	0.543895
C69	C	0.980496	0.477616	0.000030
C70	C	1.480496	0.977616	0.500030
C71	C	1.039193	0.447735	-0.043825
C72	C	1.539193	0.947735	0.456175
C73	C	1.040465	0.375287	-0.043821
C74	C	1.540465	0.875287	0.456179
C75	C	0.983034	0.332718	0.000042
C76	C	1.483034	0.832718	0.500042
C77	C	1.054256	0.600692	0.000024
C78	C	1.554256	1.100692	0.500024
C79	C	1.052983	0.673143	0.000007
C80	C	1.552983	1.173143	0.500007
C81	C	0.901434	0.656544	-0.000002
C82	C	1.401434	1.156544	0.499998
C83	C	0.902709	0.584095	0.000008
C84	C	1.402709	1.084095	0.500008
C85	C	0.979122	0.556173	0.000024
C86	C	1.479122	1.056173	0.500024
N87	N	0.981803	-0.094837	-0.178123
N88	N	1.481803	0.405163	0.321877
C89	C	1.038462	-0.047616	0.217584
C90	C	1.538462	0.452384	0.717584
C91	C	1.038467	-0.047613	0.296386
C92	C	1.538467	0.452387	0.796386
C93	C	0.981763	-0.094832	0.335788
C94	C	1.481763	0.405168	0.835788
C95	C	0.925035	-0.142045	0.296382
C96	C	1.425035	0.357955	0.796382
C97	C	0.925026	-0.142042	0.217582
C98	C	1.425026	0.357958	0.717582
C99	C	0.970632	-0.158093	0.460616
C100	C	1.470632	0.341907	0.960616
C101	C	0.970647	-0.158096	0.539415
C102	C	1.470647	0.341904	1.039415
C103	C	0.981785	-0.094840	0.578834
C104	C	1.481785	0.405160	1.078834
C105	C	0.992926	-0.031577	0.539445
C106	C	1.492926	0.468423	1.039445
C107	C	0.992917	-0.031575	0.460645
C108	C	1.492917	0.468425	0.960645
C109	C	0.981765	-0.094840	0.421234
C110	C	1.481765	0.405160	0.921234
C111	C	1.038510	-0.047623	0.703677
C112	C	1.538510	0.452377	1.203677
C113	C	1.038509	-0.047619	0.782480
C114	C	1.538509	0.452381	1.282480
C115	C	0.925081	-0.142057	0.782475
C116	C	1.425081	0.357943	1.282475
C117	C	0.925078	-0.142055	0.703673
C118	C	1.425078	0.357945	1.203673
C119	C	0.981797	-0.094839	0.664279
C120	C	1.481797	0.405161	1.164279
H121	H	0.542008	-0.210794	0.000014
H122	H	1.042008	0.289206	0.500014
H123	H	0.384700	-0.208483	0.000020
H124	H	0.884700	0.291517	0.500020
Cl125	Cl	1.147443	0.729109	0.000012
Cl126	Cl	1.647443	1.229109	0.500012
H127	H	1.084691	-0.009174	0.671601
H128	H	1.584691	0.490826	1.171601
Cl129	Cl	0.406824	0.049434	0.000054
Cl130	Cl	0.906824	0.549434	0.500054
Cl131	Cl	1.109811	0.011740	0.832010
Cl132	Cl	1.609811	0.511740	1.332010
Cl133	Cl	1.006913	0.047952	0.411130
Cl134	Cl	1.506913	0.547952	0.911130
H135	H	0.578853	0.018823	0.000049
H136	H	1.078853	0.518823	0.500049
Cl137	Cl	1.158158	0.118683	0.000063
Cl138	Cl	1.658158	0.618683	0.500063
H139	H	1.122009	0.262483	0.000055
H140	H	1.622009	0.762483	0.500055
Cl141	Cl	0.852167	0.309078	0.099047
Cl142	Cl	1.352167	0.809078	0.599047
H143	H	0.847071	0.232379	0.000030
H144	H	1.347071	0.732379	0.500030
H145	H	1.088256	0.350962	-0.079530
H146	H	1.588256	0.850962	0.420470
Cl147	Cl	1.111375	0.501250	-0.098975
Cl148	Cl	1.611375	1.001250	0.401025
H149	H	1.116476	0.577957	0.000034
H150	H	1.616476	1.077957	0.500034
H151	H	0.878898	-0.180500	0.671594
H152	H	1.378898	0.319500	1.171594
Cl153	Cl	0.805381	0.691649	-0.000012
Cl154	Cl	1.305381	1.191649	0.499988
H155	H	0.875283	0.459363	0.079601
H156	H	1.375283	0.959363	0.579601
Cl157	Cl	0.816093	0.081218	0.000031
Cl158	Cl	1.316093	0.581218	0.500031
Cl159	Cl	0.853790	-0.201412	0.832003
Cl160	Cl	1.353790	0.298588	1.332003
H161	H	1.084654	-0.009168	0.328469
H162	H	1.584654	0.490832	0.828469
H163	H	0.841529	0.547848	0.000005
H164	H	1.341529	1.047848	0.500005
Cl165	Cl	1.109759	0.011743	0.168061
Cl166	Cl	1.609759	0.511743	0.668061
H167	H	1.001995	0.019932	0.571539
H168	H	1.501995	0.519932	1.071539
H169	H	0.961580	-0.209609	0.571480
H170	H	1.461580	0.290391	1.071480
H171	H	0.961548	-0.209607	0.428527
H172	H	1.461548	0.290393	0.928527
H173	H	0.878865	-0.180490	0.328467
H174	H	1.378865	0.319510	0.828467
Cl175	Cl	0.853721	-0.201397	0.168051
Cl176	Cl	1.353721	0.298603	0.668051
