data_functionalizedCrystal
_audit_creation_method	'MofGen! by Chris Wilmer'
_symmetry_space_group_name_H-M	'P1'
_symmetry_Int_Tables_number	1
_symmetry_cell_setting	triclinic
loop_
_symmetry_equiv_pos_as_xyz
  x,y,z
_cell_length_a	17.699083
_cell_length_b	15.538191
_cell_length_c	16.176319
_cell_angle_alpha	89.995479
_cell_angle_beta	90.000958
_cell_angle_gamma	114.722446
loop_
_atom_site_label
_atom_site_type_symbol
_atom_site_fract_x
_atom_site_fract_y
_atom_site_fract_z
O1	O	-0.971508	0.119201	-0.068618
O2	O	-0.471508	0.619201	0.431382
O3	O	-0.746892	0.134709	-0.068647
O4	O	-0.246892	0.634709	0.431353
O5	O	-0.902923	-0.010274	-0.068631
O6	O	-0.402923	0.489726	0.431369
O7	O	-0.815476	0.264185	-0.068634
O8	O	-0.315476	0.764185	0.431366
O9	O	-0.902910	-0.010284	0.068862
O10	O	-0.402910	0.489716	0.568862
O11	O	-0.746878	0.134700	0.068846
O12	O	-0.246878	0.634700	0.568846
O13	O	-0.971494	0.119192	0.068875
O14	O	-0.471494	0.619192	0.568875
Cu15	Cu	-0.859185	0.126945	0.081415
Cu16	Cu	-0.359185	0.626945	0.581415
Cu17	Cu	-0.859201	0.126956	-0.081187
Cu18	Cu	-0.359201	0.626956	0.418813
O19	O	-0.815463	0.264175	0.068859
O20	O	-0.315463	0.764175	0.568859
C21	C	-0.718840	0.134149	0.000096
C22	C	-0.218840	0.634149	0.500096
C23	C	-0.635277	0.132482	0.000085
C24	C	-0.135277	0.632482	0.500085
C25	C	-0.912066	-0.045395	0.000114
C26	C	-0.412066	0.454605	0.500114
C27	C	-0.939318	-0.150032	0.000109
C28	C	-0.439318	0.349968	0.500109
C29	C	-0.563403	0.217584	0.000084
C30	C	-0.063403	0.717584	0.500084
C31	C	-0.484889	0.216012	0.000094
C32	C	0.015111	0.716012	0.500094
C33	C	-0.478252	0.129337	0.000099
C34	C	0.021748	0.629337	0.500099
C35	C	-0.550134	0.044228	0.000103
C36	C	-0.050134	0.544228	0.500103
C37	C	-0.628646	0.045801	0.000099
C38	C	-0.128646	0.545801	0.500099
C39	C	-0.233505	0.037882	0.000121
C40	C	0.266495	0.537882	0.500121
C41	C	-0.154985	0.036316	0.000123
C42	C	0.345015	0.536316	0.500123
C43	C	-0.089748	0.208094	0.000116
C44	C	0.410252	0.708094	0.500116
C45	C	-0.168260	0.209667	0.000112
C46	C	0.331740	0.709667	0.500112
C47	C	-0.240135	0.124558	0.000120
C48	C	0.259865	0.624558	0.500120
C49	C	-0.325269	0.126264	0.000111
C50	C	0.174731	0.626264	0.500111
C51	C	-0.393120	0.127630	0.000103
C52	C	0.106880	0.627630	0.500103
C53	C	-0.668571	-0.437202	0.000093
C54	C	-0.168571	0.062798	0.500093
C55	C	-0.694198	-0.535527	0.000098
C56	C	-0.194198	-0.035527	0.500098
C57	C	-0.838344	-0.558300	0.000116
C58	C	-0.338344	-0.058300	0.500116
C59	C	-0.812729	-0.459975	0.000107
C60	C	-0.312729	0.040025	0.500107
C61	C	-0.727842	-0.399434	0.000096
C62	C	-0.227842	0.100566	0.500096
C63	C	-0.872000	-0.422207	0.000110
C64	C	-0.372000	0.077793	0.500110
C65	C	-0.846387	-0.323891	0.000105
C66	C	-0.346387	0.176109	0.500105
C67	C	-0.761503	-0.263343	0.000097
C68	C	-0.261503	0.236657	0.500097
C69	C	-0.702229	-0.301118	0.000091
C70	C	-0.202229	0.198882	0.500091
C71	C	-0.956887	-0.482750	0.000126
C72	C	-0.456887	0.017250	0.500126
C73	C	-1.016158	-0.444981	0.000130
C74	C	-0.516158	0.055019	0.500130
C75	C	-0.990545	-0.346663	0.000119
C76	C	-0.490545	0.153337	0.500119
C77	C	-0.905661	-0.286116	0.000111
C78	C	-0.405661	0.213884	0.500111
C79	C	-1.049819	-0.308889	0.000125
C80	C	-0.549819	0.191111	0.500125
C81	C	-1.024206	-0.210573	0.000120
C82	C	-0.524206	0.289427	0.500120
C83	C	-0.880048	-0.187800	0.000106
C84	C	-0.380048	0.312200	0.500106
C85	C	0.000454	0.119752	0.000128
C86	C	0.500454	0.619752	0.500128
C87	C	-0.083109	0.121419	0.000127
C88	C	0.416891	0.621419	0.500127
C89	C	-0.806321	0.299297	0.000112
C90	C	-0.306321	0.799297	0.500112
C91	C	-0.779068	0.403933	0.000112
C92	C	-0.279068	0.903933	0.500112
N93	N	-0.859180	0.126937	0.195780
N94	N	-0.359180	0.626937	0.695780
N95	N	-0.859215	0.126957	-0.195552
N96	N	-0.359215	0.626957	0.304448
C97	C	-0.928279	0.062764	0.239051
C98	C	-0.428279	0.562764	0.739051
C99	C	-0.928283	0.062763	0.325598
C100	C	-0.428283	0.562763	0.825598
C101	C	-0.859189	0.126940	0.368873
C102	C	-0.359189	0.626940	0.868873
C103	C	-0.790084	0.191116	0.325595
C104	C	-0.290084	0.691116	0.825595
C105	C	-0.790078	0.191111	0.239050
C106	C	-0.290078	0.691111	0.739050
C107	C	-0.790105	0.191133	0.674624
C108	C	-0.290105	0.691133	1.174624
C109	C	-0.790117	0.191135	0.761175
C110	C	-0.290117	0.691135	1.261175
C111	C	-0.928310	0.062785	0.761172
C112	C	-0.428310	0.562785	1.261172
C113	C	-0.928304	0.062781	0.674627
C114	C	-0.428304	0.562781	1.174627
C115	C	-0.859197	0.126953	0.631357
C116	C	-0.359197	0.626953	1.131357
C117	C	-0.859193	0.126952	0.537513
C118	C	-0.359193	0.626952	1.037513
C119	C	-0.859195	0.126946	0.462715
C120	C	-0.359195	0.626946	0.962715
H121	H	-0.568797	0.288165	0.000079
H122	H	-0.068797	0.788165	0.500079
N123	N	-0.012214	0.299883	0.000133
N124	N	0.487786	0.799883	0.500133
H125	H	-0.011626	0.337697	0.051103
H126	H	0.488374	0.837697	0.551103
H127	H	-0.011643	0.337646	-0.050868
H128	H	0.488357	0.837646	0.449132
N129	N	-0.715566	0.260348	0.627971
N130	N	-0.215566	0.760348	1.127971
H131	H	-0.705905	0.327235	0.643025
H132	H	-0.205905	0.827235	1.143025
H133	H	-0.726083	0.250532	0.566591
H134	H	-0.226083	0.750532	1.066591
H135	H	-0.149589	-0.034270	0.000128
H136	H	0.350411	0.465730	0.500128
N137	N	-1.088132	-0.169832	0.000128
N138	N	-0.588132	0.330168	0.500128
H139	H	-1.080709	-0.129555	0.051100
H140	H	-0.580709	0.370445	0.551100
H141	H	-1.145761	-0.223158	0.000105
H142	H	-0.645761	0.276842	0.500105
N143	N	-1.002790	-0.006464	0.192371
N144	N	-0.502790	0.493536	0.692371
H145	H	-1.026419	0.029494	0.156450
H146	H	-0.526419	0.529494	0.656450
H147	H	-1.046511	-0.047110	0.232964
H148	H	-0.546511	0.452890	0.732964
H149	H	-0.292019	-0.031418	0.000128
H150	H	0.207981	0.468582	0.500128
H151	H	-0.733850	0.243397	0.796408
H152	H	-0.233850	0.743397	1.296408
N153	N	-1.002827	-0.006434	0.627952
N154	N	-0.502827	0.493566	1.127952
H155	H	-1.046603	-0.047089	0.668498
H156	H	-0.546603	0.452911	1.168498
H157	H	-0.985286	-0.048061	0.592052
H158	H	-0.485286	0.451939	1.092052
N159	N	-1.002828	-0.006419	0.372270
N160	N	-0.502828	0.493581	0.872270
H161	H	-1.046605	-0.047059	0.331724
H162	H	-0.546605	0.452941	0.831724
H163	H	-1.026361	0.029657	0.408155
H164	H	-0.526361	0.529657	0.908155
N165	N	-1.002848	-0.006433	0.807841
N166	N	-0.502848	0.493567	1.307841
H167	H	-0.992371	0.003301	0.869234
H168	H	-0.492371	0.503301	1.369234
H169	H	-1.012479	-0.073291	0.792719
H170	H	-0.512479	0.426709	1.292719
H171	H	-0.740650	-0.183289	0.000098
H172	H	-0.240650	0.316711	0.500098
N173	N	-0.715552	0.260333	0.192377
N174	N	-0.215552	0.760333	0.692377
H175	H	-0.726031	0.250591	0.130985
H176	H	-0.226031	0.750591	0.630985
H177	H	-0.664834	0.249526	0.207514
H178	H	-0.164834	0.749526	0.707514
N179	N	-0.630268	-0.576266	0.000087
N180	N	-0.130268	-0.076266	0.500087
H181	H	-0.637676	-0.616550	0.051058
H182	H	-0.137676	-0.116550	0.551058
H183	H	-0.572638	-0.522941	0.000048
H184	H	-0.072638	-0.022941	0.500048
H185	H	-0.173657	0.280246	0.000104
H186	H	0.326343	0.780246	0.500104
H187	H	-1.085273	-0.494287	0.000141
H188	H	-0.585273	0.005713	0.500141
H189	H	-0.733824	0.243367	0.360834
H190	H	-0.233824	0.743367	0.860834
H191	H	-0.544725	-0.026345	0.000119
H192	H	-0.044725	0.473655	0.500119
H193	H	-0.687169	-0.023498	0.000099
H194	H	-0.187169	0.476502	0.500099
H195	H	-0.426369	0.285311	0.000092
H196	H	0.073631	0.785311	0.500092
H197	H	-0.907460	-0.607605	0.000128
H198	H	-0.407460	-0.107605	0.500128
N199	N	-0.610671	-0.235809	0.000067
N200	N	-0.110671	0.264191	0.500067
H201	H	-0.577006	-0.274651	0.000060
H202	H	-0.077006	0.225349	0.500060
H203	H	-0.596897	-0.194520	0.051034
H204	H	-0.096897	0.305480	0.551034
N205	N	-0.577017	-0.371881	0.000098
N206	N	-0.077017	0.128119	0.500098
H207	H	-0.563180	-0.330573	-0.050868
H208	H	-0.063180	0.169427	0.449132
H209	H	-0.543402	-0.410777	0.000129
H210	H	-0.043402	0.089223	0.500129
H211	H	-0.810924	-0.138503	0.000091
H212	H	-0.310924	0.361497	0.500091
H213	H	-0.977738	-0.562804	0.000123
H214	H	-0.477738	-0.062804	0.500123
H215	H	-1.118934	-0.358196	0.000141
H216	H	-0.618934	0.141804	0.500141
