data_functionalizedCrystal
_audit_creation_method	'MofGen! by Chris Wilmer'
_symmetry_space_group_name_H-M	'P1'
_symmetry_Int_Tables_number	1
_symmetry_cell_setting	triclinic
loop_
_symmetry_equiv_pos_as_xyz
  x,y,z
_cell_length_a	14.446369
_cell_length_b	14.446369
_cell_length_c	18.426585
_cell_angle_alpha	60.000906
_cell_angle_beta	90.000266
_cell_angle_gamma	59.998616
loop_
_atom_site_label
_atom_site_type_symbol
_atom_site_fract_x
_atom_site_fract_y
_atom_site_fract_z
Zr1	Zr	0.891672	1.013293	-0.095267
O2	O	0.743854	1.206410	-0.211141
O3	O	0.936991	0.820175	-0.059747
O4	O	0.936973	1.013302	-0.211151
O5	O	0.743881	1.013277	0.059694
O6	O	1.089302	1.013310	-0.211157
O7	O	0.743873	1.013283	-0.059737
O8	O	1.089335	0.667842	0.059676
O9	O	0.743848	1.358745	-0.211139
O10	O	1.069994	0.899614	-0.044602
O11	O	0.956319	0.899603	0.044533
O12	O	0.956297	1.126985	-0.133725
O13	O	0.842622	1.126974	-0.044590
Zr14	Zr	1.134631	1.013296	0.095201
Zr15	Zr	1.134619	1.013306	-0.095278
Zr16	Zr	0.891684	1.013283	0.095211
Zr17	Zr	0.891661	1.256250	-0.095265
Zr18	Zr	1.134642	0.770339	0.095199
O19	O	1.089311	1.206414	0.059681
O20	O	1.089293	1.206429	-0.211155
O21	O	0.743872	1.206395	0.059695
O22	O	1.282448	0.820179	0.211074
O23	O	1.282430	0.820194	-0.059762
O24	O	0.937009	0.820160	0.211089
O25	O	1.282422	1.013313	-0.059760
O26	O	1.089330	1.013287	0.211084
O27	O	0.937001	1.013279	0.211090
O28	O	1.282430	1.013306	0.059671
O29	O	0.936958	1.358756	-0.211147
O30	O	1.089345	0.667833	0.211081
O31	O	1.282455	0.667844	0.211073
O32	O	1.282445	0.667852	0.059668
O33	O	0.743858	1.358737	-0.059734
O34	O	0.936968	1.358748	-0.059742
O35	O	1.070006	0.899604	0.133658
O36	O	1.183681	0.899615	0.044524
O37	O	1.069984	1.126986	-0.044600
O38	O	0.956309	1.126975	0.044535
C39	C	1.013165	0.709392	-0.000036
C40	C	1.013169	0.606250	-0.000037
C41	C	1.084499	0.459941	-0.056529
C42	C	1.084903	0.566866	-0.056288
C43	C	1.065478	0.479391	0.096808
C44	C	1.065998	0.372012	0.096502
C45	C	0.889431	0.546984	-0.039595
C46	C	0.889628	0.655458	-0.041559
C47	C	0.709262	1.013278	-0.000020
C48	C	0.606125	1.013272	-0.000016
C49	C	0.531152	0.869885	0.055902
C50	C	0.638481	0.869788	0.056223
C51	C	0.531565	1.084498	0.040989
C52	C	0.424706	1.083587	0.041392
C53	C	0.423123	1.086548	-0.097029
C54	C	0.531795	1.083846	-0.096870
C55	C	1.317041	1.013311	-0.000046
C56	C	1.420178	1.013317	-0.000050
C57	C	1.013136	1.013307	-0.238293
C58	C	1.013130	1.013312	-0.319156
C59	C	1.013138	1.317197	-0.000030
C60	C	1.013134	1.420339	-0.000030
C61	C	1.013173	1.013273	-0.615240
C62	C	1.013164	1.013278	-0.532858
C63	C	1.013151	1.013292	-0.467201
C64	C	1.013143	1.013298	-0.384814
C65	C	1.013167	1.013282	0.238226
C66	C	1.013173	1.013277	0.319090
C67	C	1.317054	0.709409	-0.000049
C68	C	1.420196	0.606273	-0.000054
C69	C	1.013180	0.709379	0.238224
C70	C	1.013190	0.606233	0.319086
C71	C	1.317070	0.709396	0.238211
C72	C	1.420217	0.606255	0.319069
C73	C	0.709233	1.317193	-0.238277
C74	C	0.606086	1.420334	-0.319135
C75	C	0.709249	1.317180	-0.000018
C76	C	0.606107	1.420317	-0.000012
C77	C	1.013123	1.317210	-0.238290
C78	C	1.013113	1.420356	-0.319152
C79	C	1.072538	0.557795	0.403590
C80	C	1.072543	0.460892	0.479576
C81	C	1.013206	0.412422	0.471056
C82	C	0.953850	0.460869	0.386543
C83	C	0.953840	0.557777	0.310559
C84	C	1.528003	0.557825	0.310513
C85	C	1.624930	0.460927	0.386480
C86	C	1.614068	0.412455	0.471003
C87	C	1.506270	0.460894	0.479556
C88	C	1.409346	0.557797	0.403590
C89	C	0.498300	1.468776	-0.310580
C90	C	0.401373	1.565704	-0.386547
C91	C	0.412235	1.614181	-0.471069
C92	C	0.520033	1.565736	-0.479623
C93	C	0.616957	1.468816	-0.403656
C94	C	1.072462	1.468796	-0.310604
C95	C	1.072474	1.565699	-0.386575
C96	C	1.013131	1.614169	-0.471094
C97	C	0.953781	1.565720	-0.479641
C98	C	0.953775	1.468811	-0.403671
C99	C	1.638563	0.459969	0.055856
C100	C	1.531332	0.566885	0.056184
C101	C	1.423532	0.479412	0.040947
C102	C	1.531300	0.372041	0.041344
C103	C	1.529910	0.547027	-0.097076
C104	C	1.423942	0.655493	-0.096911
H105	H	1.157027	0.281261	0.128178
Br106	Br	0.483527	1.403002	-0.195880
H107	H	0.344901	1.192211	-0.138913
H108	H	1.497443	0.421414	0.548385
Br109	Br	1.013149	1.745691	-0.574189
H110	H	1.155644	0.440836	0.128706
Br111	Br	1.535433	0.504442	0.175428
H112	H	1.579921	0.586604	-0.131332
Br113	Br	0.728140	0.776048	0.175464
H114	H	0.583174	1.035021	0.111678
Br115	Br	0.280681	1.745717	-0.574159
H116	H	1.120858	0.597249	0.410544
H117	H	0.424982	1.032964	0.112756
Br118	Br	1.153008	1.403038	-0.195908
H119	H	0.905515	0.597203	0.241754
H120	H	1.581653	0.281285	0.112706
Br121	Br	0.489228	1.258331	-0.172199
Br122	Br	1.263068	0.623506	0.415218
Br123	Br	0.535056	0.776048	0.010296
Br124	Br	1.026318	0.522018	-0.175700
Br125	Br	0.816602	0.612945	-0.156661
Br126	Br	1.728484	0.522055	0.010244
H127	H	0.313609	1.605132	-0.379565
H128	H	1.120803	1.605137	-0.379598
H129	H	1.504646	0.342088	0.003219
Br130	Br	0.534755	1.631538	-0.594339
Br131	Br	1.293084	0.516476	-0.023696
Br132	Br	0.763235	1.403079	-0.415284
H133	H	1.120881	0.421458	0.548383
H134	H	1.013224	0.333513	0.532934
H135	H	0.905540	0.421390	0.379619
H136	H	0.905465	1.605198	-0.548467
H137	H	0.419003	1.040654	-0.131285
H138	H	1.175209	0.370285	-0.029326
Br139	Br	0.728949	0.776642	0.010387
H140	H	1.536869	0.597278	0.241698
Br141	Br	1.771212	0.395206	0.374850
H142	H	0.905441	1.429382	-0.410644
Br143	Br	1.730204	0.310524	0.174376
Br144	Br	1.419990	0.415129	0.158770
H145	H	1.532940	0.656237	0.028685
Br146	Br	1.745622	0.280942	0.574093
H147	H	0.583218	1.031913	-0.127503
Br148	Br	1.424785	0.806328	-0.147969
H149	H	0.504327	1.189997	0.002201
Br150	Br	1.292007	0.709034	-0.172240
H151	H	1.502461	0.522238	-0.138963
H152	H	1.049826	0.656214	-0.127602
H153	H	0.346119	1.188822	0.003273
H154	H	1.176157	0.529404	-0.028845
H155	H	0.532192	0.813866	0.127011
H156	H	1.017377	0.342051	0.140886
H157	H	1.016004	0.501632	0.140730
H158	H	0.850551	0.745951	-0.112907
H159	H	0.836009	0.522189	0.001361
H160	H	0.831983	0.687579	-0.004683
