data_functionalizedCrystal
_audit_creation_method	'MofGen! by Chris Wilmer'
_symmetry_space_group_name_H-M	'P1'
_symmetry_Int_Tables_number	1
_symmetry_cell_setting	triclinic
loop_
_symmetry_equiv_pos_as_xyz
  x,y,z
_cell_length_a	14.971506
_cell_length_b	10.654551
_cell_length_c	14.048226
_cell_angle_alpha	89.996418
_cell_angle_beta	89.993237
_cell_angle_gamma	84.053875
loop_
_atom_site_label
_atom_site_type_symbol
_atom_site_fract_x
_atom_site_fract_y
_atom_site_fract_z
O1	O	1.187828	0.163780	-0.079161
O2	O	1.687828	0.663780	0.420839
O3	O	0.927536	0.183352	-0.079161
O4	O	1.427536	0.683352	0.420839
O5	O	1.063666	-0.009237	-0.079162
O6	O	1.563666	0.490763	0.420838
O7	O	1.051698	0.356369	-0.079161
O8	O	1.551698	0.856369	0.420839
O9	O	1.063649	-0.009248	0.079160
O10	O	1.563649	0.490752	0.579160
O11	O	0.927520	0.183340	0.079160
O12	O	1.427520	0.683340	0.579160
O13	O	1.187811	0.163768	0.079160
O14	O	1.687811	0.663768	0.579160
Zn15	Zn	1.057663	0.173553	0.104297
Zn16	Zn	1.557663	0.673553	0.604297
Zn17	Zn	1.057685	0.173568	-0.104298
Zn18	Zn	1.557685	0.673568	0.395702
O19	O	1.051681	0.356357	0.079161
O20	O	1.551681	0.856357	0.579161
C21	C	0.894199	0.182466	-0.000000
C22	C	1.394199	0.682466	0.500000
C23	C	0.794888	0.179830	-0.000000
C24	C	1.294888	0.679830	0.500000
C25	C	1.062779	-0.056031	-0.000003
C26	C	1.562779	0.443969	0.499997
C27	C	1.060149	-0.195446	-0.000009
C28	C	1.560149	0.304554	0.499991
C29	C	0.357167	0.282910	-0.000010
C30	C	0.857167	0.782910	0.499990
C31	C	0.450481	0.285378	-0.000014
C32	C	0.950481	0.785378	0.499986
C33	C	0.507085	0.172224	-0.000010
C34	C	1.007085	0.672224	0.499990
C35	C	0.470371	0.056596	-0.000012
C36	C	0.970371	0.556596	0.499988
C37	C	0.377059	0.054130	-0.000014
C38	C	0.877059	0.554130	0.499986
C39	C	0.664862	0.061744	-0.000004
C40	C	1.164862	0.561744	0.499996
C41	C	0.758180	0.064210	0.000001
C42	C	1.258180	0.564210	0.500001
C43	C	0.738284	0.292992	-0.000003
C44	C	1.238284	0.792992	0.499997
C45	C	0.644972	0.290526	-0.000006
C46	C	1.144972	0.790526	0.499994
C47	C	0.608264	0.174897	-0.000006
C48	C	1.108264	0.674897	0.499994
C49	C	1.058924	-0.260939	-0.086309
C50	C	1.558924	0.239061	0.413691
C51	C	1.056446	-0.391933	-0.086304
C52	C	1.556446	0.108067	0.413696
C53	C	1.056420	-0.391931	0.086306
C54	C	1.556420	0.108069	0.586306
C55	C	1.058893	-0.260938	0.086301
C56	C	1.558893	0.239062	0.586301
C57	C	1.058943	-0.260942	-0.185964
C58	C	1.558943	0.239058	0.314036
C59	C	1.056464	-0.391936	-0.185960
C60	C	1.556464	0.108064	0.314040
C61	C	1.221148	0.164654	-0.000003
C62	C	1.721148	0.664654	0.499997
C63	C	1.320459	0.167291	-0.000009
C64	C	1.820459	0.667291	0.499991
C65	C	1.052569	0.403151	0.000000
C66	C	1.552569	0.903151	0.500000
C67	C	1.055198	0.542567	0.000000
C68	C	1.555198	1.042567	0.500000
N69	N	1.057654	0.173542	0.246658
N70	N	1.557654	0.673542	0.746658
N71	N	1.057700	0.173569	-0.246659
N72	N	1.557700	0.673569	0.253341
C73	C	1.117952	0.088299	0.296476
C74	C	1.617952	0.588299	0.796476
C75	C	1.117958	0.088298	0.396133
C76	C	1.617958	0.588298	0.896133
C77	C	1.057670	0.173547	0.445971
C78	C	1.557670	0.673547	0.945971
C79	C	0.997366	0.258794	0.396147
C80	C	1.497366	0.758794	0.896147
C81	C	0.997356	0.258788	0.296491
C82	C	1.497356	0.758788	0.796491
C83	C	0.997392	0.258803	0.603861
C84	C	1.497392	0.758803	1.103861
C85	C	0.997402	0.258812	0.703524
C86	C	1.497402	0.758812	1.203524
C87	C	1.117993	0.088313	0.703503
C88	C	1.617993	0.588313	1.203503
C89	C	1.117984	0.088307	0.603847
C90	C	1.617984	0.588307	1.103847
C91	C	1.057681	0.173556	0.554030
C92	C	1.557681	0.673556	1.054030
H93	H	0.311086	0.375053	-0.000006
H94	H	0.811086	0.875053	0.499994
H95	H	0.347173	-0.040019	-0.000015
H96	H	0.847173	0.459981	0.499985
F97	F	1.182132	-0.002428	0.449153
F98	F	1.682132	0.497572	0.949153
H99	H	1.167079	0.018897	0.563270
H100	H	1.667079	0.518897	1.063270
H101	H	0.480363	0.379526	-0.000024
H102	H	0.980363	0.879526	0.499976
H103	H	1.059885	-0.207618	0.156574
H104	H	1.559885	0.292382	0.656574
H105	H	1.055396	-0.445270	0.156577
H106	H	1.555396	0.054730	0.656577
F107	F	0.978160	-0.199582	-0.235982
F108	F	1.478160	0.300418	0.264018
H109	H	0.598887	0.382665	-0.000003
H110	H	1.098887	0.882665	0.499997
F111	F	1.144212	-0.223193	-0.226383
F112	F	1.644212	0.276807	0.273617
H113	H	0.991233	-0.420808	-0.216891
H114	H	1.491233	0.079192	0.283109
H115	H	1.118280	-0.438881	-0.224223
H116	H	1.618280	0.061119	0.275777
H117	H	0.634978	-0.032413	-0.000008
H118	H	1.134978	0.467587	0.499992
F119	F	1.182124	-0.002431	0.243444
F120	F	1.682124	0.497569	0.743444
F121	F	1.182173	-0.002413	0.756527
F122	F	1.682173	0.497587	1.256527
H123	H	0.516465	-0.035535	-0.000014
H124	H	1.016465	0.464465	0.499986
F125	F	0.933234	0.349544	0.756558
F126	F	1.433234	0.849544	1.256558
F127	F	0.933207	0.349533	0.550845
F128	F	1.433207	0.849533	1.050845
F129	F	0.933198	0.349519	0.449189
F130	F	1.433198	0.849519	0.949189
F131	F	0.933177	0.349512	0.243472
F132	F	1.433177	0.849512	0.743472
F133	F	0.818421	-0.056220	-0.000001
F134	F	1.318421	0.443780	0.499999
F135	F	0.777351	0.416054	0.000004
F136	F	1.277351	0.916054	0.500004
