data_functionalizedCrystal
_audit_creation_method	'MofGen! by Chris Wilmer'
_symmetry_space_group_name_H-M	'P1'
_symmetry_Int_Tables_number	1
_symmetry_cell_setting	triclinic
loop_
_symmetry_equiv_pos_as_xyz
  x,y,z
_cell_length_a	14.971491
_cell_length_b	16.109304
_cell_length_c	14.048226
_cell_angle_alpha	89.996377
_cell_angle_beta	89.991693
_cell_angle_gamma	83.539437
loop_
_atom_site_label
_atom_site_type_symbol
_atom_site_fract_x
_atom_site_fract_y
_atom_site_fract_z
O1	O	1.186789	0.108368	-0.079195
O2	O	0.926371	0.121338	-0.079188
O3	O	1.063733	-0.006169	-0.079192
O4	O	1.049427	0.235875	-0.079191
O5	O	1.063716	-0.006176	0.079129
O6	O	0.926354	0.121331	0.079134
O7	O	1.186773	0.108361	0.079126
Zn8	Zn	1.056561	0.114844	0.104267
Zn9	Zn	1.056583	0.114854	-0.104328
O10	O	1.049411	0.235867	0.079131
C11	C	0.893039	0.120754	-0.000026
C12	C	0.793745	0.119013	-0.000023
C13	C	0.366059	0.111507	-0.086346
C14	C	0.459357	0.113140	-0.086343
C15	C	0.505992	0.113957	-0.000038
C16	C	0.459326	0.113134	0.086268
C17	C	0.366031	0.111495	0.086263
C18	C	0.653783	0.116552	0.086271
C19	C	0.747085	0.118192	0.086276
C20	C	0.747109	0.118196	-0.086335
C21	C	0.653814	0.116558	-0.086339
C22	C	0.607154	0.115736	-0.000032
C23	C	1.063144	-0.037148	-0.000034
C24	C	1.061406	-0.129445	-0.000040
C25	C	1.057398	-0.341784	-0.086337
C26	C	1.055756	-0.428506	-0.086336
C27	C	1.055743	-0.428511	0.086274
C28	C	1.057378	-0.341790	0.086272
C29	C	1.058210	-0.298429	-0.000036
C30	C	1.054933	-0.471872	-0.000033
C31	C	1.053153	-0.565900	-0.000032
C32	C	1.059989	-0.204394	-0.000038
C33	C	1.220105	0.108945	-0.000038
C34	C	1.319399	0.110686	-0.000047
C35	C	1.049999	0.266847	-0.000030
C36	C	1.051738	0.359144	-0.000030
N37	N	1.056553	0.114837	0.246628
N38	N	1.056598	0.114855	-0.246689
C39	C	1.117395	0.058400	0.296444
C40	C	1.117401	0.058400	0.396101
C41	C	1.056568	0.114841	0.445941
C42	C	0.995719	0.171280	0.396118
C43	C	0.995709	0.171276	0.296462
C44	C	0.995745	0.171286	0.603832
C45	C	0.995755	0.171292	0.703495
C46	C	1.117437	0.058410	0.703471
C47	C	1.117427	0.058406	0.603815
C48	C	1.056579	0.114847	0.553999
H49	H	0.328094	0.110847	-0.156625
H50	H	1.166936	0.012443	0.255870
H51	H	1.166981	0.012454	0.744037
H52	H	0.615845	0.115897	-0.156616
O53	O	0.504608	0.113778	0.170129
C54	C	0.543243	0.042329	0.317685
C55	C	0.491941	0.041483	0.222737
H56	H	0.533005	-0.016106	0.360255
H57	H	0.617957	0.043590	0.302921
H58	H	0.516694	0.100171	0.360203
H59	H	0.518414	-0.016351	0.180172
H60	H	0.417234	0.040265	0.237569
H61	H	0.946218	0.217251	0.744070
H62	H	1.058073	-0.306481	-0.156615
O63	O	0.504745	0.113795	-0.170148
C64	C	0.620290	0.043706	-0.270293
C65	C	0.568943	0.042851	-0.175357
H66	H	0.672218	-0.013636	-0.274527
H67	H	0.570984	0.042793	-0.332018
H68	H	0.655724	0.102638	-0.274587
H69	H	0.533506	-0.016070	-0.170970
H70	H	0.618291	0.043808	-0.113677
O71	O	1.054852	-0.470515	-0.170230
C72	C	0.976892	-0.487733	-0.317730
C73	C	0.977819	-0.440080	-0.222762
H74	H	0.914608	-0.463156	-0.360221
H75	H	1.039736	-0.478208	-0.360358
H76	H	0.975620	-0.557164	-0.302884
H77	H	0.979059	-0.370634	-0.237522
H78	H	0.914980	-0.449674	-0.180163
H79	H	0.785104	0.118867	-0.156609
O80	O	1.058289	-0.299593	0.170050
C81	C	1.137594	-0.211061	0.270240
C82	C	1.136670	-0.258795	0.175325
H83	H	1.200967	-0.178078	0.274544
H84	H	1.075842	-0.162864	0.274568
H85	H	1.136681	-0.256958	0.331911
H86	H	1.137613	-0.212961	0.113600
H87	H	1.198415	-0.307003	0.171080
H88	H	1.055067	-0.463826	0.156544
O89	O	0.792257	0.118935	0.170196
C90	C	0.782391	0.118779	0.341402
C91	C	0.731124	0.117921	0.246433
H92	H	0.732985	0.117977	0.403064
H93	H	0.834249	0.061391	0.345769
H94	H	0.817893	0.177671	0.345675
H95	H	0.695568	0.059068	0.242096
H96	H	0.679317	0.175348	0.242105
O97	O	1.176601	0.003556	0.444345
C98	C	1.297278	-0.108420	0.433804
C99	C	1.230290	-0.046342	0.379051
H100	H	1.340690	-0.148789	0.381039
H101	H	1.342005	-0.072483	0.480413
H102	H	1.258678	-0.149984	0.480507
H103	H	1.268816	-0.004762	0.332297
H104	H	1.185564	-0.082330	0.332502
O105	O	0.936605	0.226194	0.555587
C106	C	0.815888	0.338133	0.566122
C107	C	0.882821	0.276006	0.620878
H108	H	0.772374	0.378410	0.618885
H109	H	0.854443	0.379781	0.519477
H110	H	0.771254	0.302153	0.519454
H111	H	0.927473	0.311919	0.667597
H112	H	0.844211	0.234358	0.667462
H113	H	0.615794	0.115892	0.156552
H114	H	0.946183	0.217233	0.436703
H115	H	1.166966	0.012452	0.563236
H116	H	0.946164	0.217232	0.255903
H117	H	0.328040	0.110835	0.156537
