data_functionalizedCrystal
_audit_creation_method	'MofGen! by Chris Wilmer'
_symmetry_space_group_name_H-M	'P1'
_symmetry_Int_Tables_number	1
_symmetry_cell_setting	triclinic
loop_
_symmetry_equiv_pos_as_xyz
  x,y,z
_cell_length_a	18.215407
_cell_length_b	16.625546
_cell_length_c	18.215399
_cell_angle_alpha	90.029176
_cell_angle_beta	90.019833
_cell_angle_gamma	90.022916
loop_
_atom_site_label
_atom_site_type_symbol
_atom_site_fract_x
_atom_site_fract_y
_atom_site_fract_z
Zn1	Zn	1.125084	-0.321000	0.416110
Zn2	Zn	1.458418	0.012333	0.749443
Zn3	Zn	1.791751	0.345666	1.082776
Zn4	Zn	1.124998	-0.455841	0.293041
Zn5	Zn	1.458331	-0.122507	0.626374
Zn6	Zn	1.791665	0.210826	0.959707
Zn7	Zn	1.002017	-0.321027	0.293057
Zn8	Zn	1.335350	0.012307	0.626390
Zn9	Zn	1.668684	0.345640	0.959724
Zn10	Zn	1.001988	-0.455796	0.416066
Zn11	Zn	1.335321	-0.122462	0.749399
Zn12	Zn	1.668655	0.210871	1.082732
O13	O	1.063522	-0.388416	0.354568
O14	O	1.396855	-0.055082	0.687902
O15	O	1.730188	0.278251	1.021235
O16	O	1.228057	-0.338895	0.399796
O17	O	1.561390	-0.005562	0.733129
O18	O	1.894724	0.327772	1.066463
O19	O	1.108660	-0.437987	0.190059
O20	O	1.441993	-0.104654	0.523392
O21	O	1.775327	0.228680	0.856725
O22	O	1.018390	-0.208191	0.309405
O23	O	1.351724	0.125143	0.642739
O24	O	1.685057	0.458476	0.976072
O25	O	1.227994	-0.437961	0.309378
O26	O	1.561327	-0.104628	0.642711
O27	O	1.894660	0.228705	0.976044
O28	O	1.108807	-0.208171	0.399812
O29	O	1.442141	0.125162	0.733145
O30	O	1.775474	0.458495	1.066478
O31	O	1.018307	-0.338940	0.190070
O32	O	1.351640	-0.005606	0.523404
O33	O	1.684973	0.327727	0.856737
O34	O	0.899029	-0.338896	0.309363
O35	O	1.232362	-0.005563	0.642696
O36	O	1.565695	0.327770	0.976029
O37	O	1.018341	-0.437885	0.519056
O38	O	1.351674	-0.104552	0.852389
O39	O	1.685008	0.228782	1.185722
O40	O	0.899008	-0.437910	0.399737
O41	O	1.232341	-0.104577	0.733070
O42	O	1.565674	0.228756	1.066403
O43	O	1.108779	-0.338851	0.519088
O44	O	1.442113	-0.005518	0.852421
O45	O	1.775446	0.327815	1.185755
O46	O	1.108632	-0.568667	0.309335
O47	O	1.441965	-0.235334	0.642668
O48	O	1.775299	0.098000	0.976002
O49	O	1.018257	-0.568634	0.399721
O50	O	1.351591	-0.235301	0.733054
O51	O	1.684924	0.098033	1.066387
C52	C	0.872315	-0.388402	0.354547
C53	C	1.205649	-0.055069	0.687880
C54	C	1.538982	0.278265	1.021214
C55	C	0.790517	-0.388415	0.354556
C56	C	1.123850	-0.055082	0.687889
C57	C	1.457183	0.278251	1.021222
C58	C	0.602331	-0.440053	0.401554
C59	C	0.935664	-0.106720	0.734887
C60	C	1.268998	0.226613	1.068221
C61	C	0.525472	-0.440056	0.401563
C62	C	0.858805	-0.106722	0.734897
C63	C	1.192139	0.226611	1.068230
C64	C	0.525465	-0.336793	0.307598
C65	C	0.858798	-0.003460	0.640932
C66	C	1.192131	0.329874	0.974265
C67	C	0.602322	-0.336787	0.307593
C68	C	0.935655	-0.003454	0.640927
C69	C	1.268989	0.329880	0.974260
C70	C	0.640753	-0.388422	0.354570
C71	C	0.974086	-0.055088	0.687904
C72	C	1.307420	0.278245	1.021237
C73	C	0.487037	-0.388430	0.354584
C74	C	0.820370	-0.055097	0.687918
C75	C	1.153704	0.278237	1.021251
C76	C	0.403703	-0.388433	0.354594
C77	C	0.737037	-0.055099	0.687927
C78	C	1.070370	0.278234	1.021261
C79	C	0.724092	-0.388418	0.354562
C80	C	1.057425	-0.055085	0.687895
C81	C	1.390759	0.278248	1.021228
C82	C	1.063452	-0.597907	0.354537
C83	C	1.396785	-0.264573	0.687871
C84	C	1.730119	0.068760	1.021204
C85	C	1.063490	-0.687528	0.354549
C86	C	1.396823	-0.354194	0.687882
C87	C	1.730156	-0.020861	1.021215
C88	C	1.063618	-1.015703	0.354625
C89	C	1.396951	-0.682370	0.687959
C90	C	1.730285	-0.349037	1.021292
C91	C	1.063580	-0.924395	0.354606
C92	C	1.396913	-0.591062	0.687940
C93	C	1.730247	-0.257728	1.021273
C94	C	1.063553	-0.851618	0.354587
C95	C	1.396887	-0.518285	0.687920
C96	C	1.730220	-0.184952	1.021253
C97	C	1.063516	-0.760304	0.354568
C98	C	1.396850	-0.426971	0.687902
C99	C	1.730183	-0.093637	1.021235
C100	C	1.255475	-0.388430	0.354590
C101	C	1.588808	-0.055097	0.687923
C102	C	1.922141	0.278236	1.021256
C103	C	1.337274	-0.388436	0.354599
C104	C	1.670607	-0.055103	0.687932
C105	C	2.003940	0.278230	1.021266
C106	C	1.063567	-0.388360	0.546521
C107	C	1.396900	-0.055027	0.879855
C108	C	1.730233	0.278306	1.213188
C109	C	1.063586	-0.388336	0.628320
C110	C	1.396919	-0.055003	0.961653
C111	C	1.730252	0.278330	1.294987
C112	C	1.063612	-0.178107	0.354615
C113	C	1.396945	0.155227	0.687949
C114	C	1.730278	0.488560	1.021282
C115	C	1.063650	-0.088486	0.354635
C116	C	1.396983	0.244848	0.687969
C117	C	1.730317	0.578181	1.021302
C118	C	1.063519	-0.388413	0.163362
C119	C	1.396853	-0.055080	0.496695
C120	C	1.730186	0.278254	0.830029
C121	C	1.063643	-0.388209	0.081563
C122	C	1.396976	-0.054876	0.414897
C123	C	1.730310	0.278457	0.748230
C124	C	1.110694	-0.336721	0.816532
C125	C	1.444027	-0.003388	1.149866
C126	C	1.777361	0.329945	1.483199
C127	C	1.110703	-0.336698	0.893391
C128	C	1.444036	-0.003365	1.226724
C129	C	1.777369	0.329969	1.560058
C130	C	1.016530	-0.439827	0.893346
C131	C	1.349863	-0.106493	1.226679
C132	C	1.683196	0.226840	1.560013
C133	C	1.016518	-0.439846	0.816489
C134	C	1.349851	-0.106512	1.149822
C135	C	1.683184	0.226821	1.483155
C136	C	1.063604	-0.388294	0.778084
C137	C	1.396937	-0.054961	1.111417
C138	C	1.730271	0.278373	1.444750
C139	C	1.063625	-0.388252	0.931800
C140	C	1.396958	-0.054918	1.265133
C141	C	1.730291	0.278415	1.598467
C142	C	1.063634	-0.388227	1.015134
C143	C	1.396967	-0.054893	1.348467
C144	C	1.730301	0.278440	1.681800
C145	C	1.063594	-0.388318	0.694745
C146	C	1.396927	-0.054985	1.028078
C147	C	1.730261	0.278349	1.361411
H148	H	0.494192	-0.482098	0.439823
H149	H	0.827525	-0.148765	0.773157
H150	H	1.160859	0.184568	1.106490
H151	H	0.978166	-0.481842	0.785183
H152	H	1.311499	-0.148508	1.118516
H153	H	1.644833	0.184825	1.451850
H154	H	1.149047	-0.294701	0.924692
H155	H	1.482380	0.038632	1.258026
H156	H	1.815713	0.371966	1.591359
H157	H	1.149033	-0.294743	0.785265
H158	H	1.482366	0.038591	1.118598
H159	H	1.815699	0.371924	1.451932
C160	C	0.644602	-0.496847	0.453235
C161	C	0.977936	-0.163513	0.786569
C162	C	1.311269	0.169820	1.119902
N163	N	0.676439	-0.539623	0.492166
N164	N	1.009773	-0.206290	0.825499
N165	N	1.343106	0.127043	1.158832
C166	C	0.644589	-0.279985	0.255905
C167	C	0.977922	0.053348	0.589238
C168	C	1.311256	0.386681	0.922571
N169	N	0.676424	-0.237203	0.216975
N170	N	1.009758	0.096130	0.550308
N171	N	1.343091	0.429463	0.883642
C172	C	0.964736	-0.496529	0.935599
C173	C	1.298069	-0.163195	1.268932
C174	C	1.631403	0.170138	1.602265
N175	N	0.925724	-0.539238	0.967423
N176	N	1.259057	-0.205904	1.300756
N177	N	1.592390	0.127429	1.634089
H178	H	0.494165	-0.294755	0.269350
H179	H	0.827498	0.038578	0.602684
H180	H	1.160831	0.371912	0.936017
