data_functionalizedCrystal
_audit_creation_method	'MofGen! by Chris Wilmer'
_symmetry_space_group_name_H-M	'P1'
_symmetry_Int_Tables_number	1
_symmetry_cell_setting	triclinic
loop_
_symmetry_equiv_pos_as_xyz
  x,y,z
_cell_length_a	25.639239
_cell_length_b	19.805407
_cell_length_c	19.805399
_cell_angle_alpha	90.016510
_cell_angle_beta	89.969866
_cell_angle_gamma	89.965164
loop_
_atom_site_label
_atom_site_type_symbol
_atom_site_fract_x
_atom_site_fract_y
_atom_site_fract_z
Zn1	Zn	-0.208209	-1.034660	-0.382707
Zn2	Zn	0.291791	-0.534660	0.117293
Zn3	Zn	-0.295646	-1.034556	-0.269517
Zn4	Zn	0.204354	-0.534556	0.230483
Zn5	Zn	-0.208220	-0.921480	-0.269533
Zn6	Zn	0.291780	-0.421480	0.230467
Zn7	Zn	-0.295610	-0.921414	-0.382664
Zn8	Zn	0.204390	-0.421414	0.117336
O9	O	-0.251921	-0.978027	-0.326105
O10	O	0.248079	-0.478027	0.173895
O11	O	-0.219818	-1.129363	-0.367704
O12	O	0.280182	-0.629363	0.132296
O13	O	-0.284068	-1.019540	-0.174802
O14	O	0.215932	-0.519540	0.325198
O15	O	-0.135053	-0.936565	-0.284570
O16	O	0.364947	-0.436565	0.215430
O17	O	-0.284057	-1.129286	-0.284543
O18	O	0.215943	-0.629286	0.215457
O19	O	-0.135046	-1.019718	-0.367719
O20	O	0.364954	-0.519718	0.132281
O21	O	-0.219837	-0.936464	-0.174814
O22	O	0.280163	-0.436464	0.325186
O23	O	-0.219802	-0.826755	-0.284529
O24	O	0.280198	-0.326755	0.215471
O25	O	-0.283996	-0.936452	-0.477387
O26	O	0.216004	-0.436452	0.022613
O27	O	-0.284007	-0.826706	-0.367646
O28	O	0.215993	-0.326706	0.132354
O29	O	-0.219784	-1.019654	-0.477418
O30	O	0.280216	-0.519654	0.022582
O31	O	-0.368806	-1.019476	-0.284502
O32	O	0.131194	-0.519476	0.215498
O33	O	-0.368780	-0.936351	-0.367630
O34	O	0.131220	-0.436351	0.132370
C35	C	-0.251902	-0.802171	-0.326085
C36	C	0.248098	-0.302171	0.173915
C37	C	-0.251906	-0.726939	-0.326092
C38	C	0.248094	-0.226939	0.173908
C39	C	-0.218516	-0.691636	-0.369459
C40	C	0.281484	-0.191636	0.130541
C41	C	-0.218517	-0.620947	-0.369459
C42	C	0.281483	-0.120947	0.130541
C43	C	-0.251913	-0.585564	-0.326097
C44	C	0.248087	-0.085564	0.173903
C45	C	-0.285305	-0.620872	-0.282725
C46	C	0.214695	-0.120872	0.217275
C47	C	-0.285300	-0.691560	-0.282721
C48	C	0.214700	-0.191560	0.217279
C49	C	-0.285324	-0.335799	-0.282739
C50	C	0.214676	0.164201	0.217261
C51	C	-0.285327	-0.265107	-0.282747
C52	C	0.214673	0.234893	0.217253
C53	C	-0.218541	-0.265187	-0.369477
C54	C	0.281459	0.234813	0.130523
C55	C	-0.218536	-0.335874	-0.369473
C56	C	0.281464	0.164126	0.130527
C57	C	-0.251926	-0.371176	-0.326100
C58	C	0.248074	0.128824	0.173900
C59	C	-0.251924	-0.447825	-0.326098
C60	C	0.248076	0.052175	0.173902
C61	C	-0.251919	-0.508917	-0.326101
C62	C	0.248081	-0.008917	0.173899
C63	C	-0.387764	-0.977914	-0.326074
C64	C	0.112236	-0.477914	0.173926
C65	C	-0.445878	-0.977927	-0.326084
C66	C	0.054122	-0.477927	0.173916
C67	C	-0.806242	-1.021423	-0.282894
C68	C	-0.306242	-0.521423	0.217106
C69	C	-0.860846	-1.021450	-0.282903
C70	C	-0.360846	-0.521450	0.217097
O71	O	-0.889084	-1.058314	-0.246147
O72	O	-0.389084	-0.558314	0.253853
N73	N	-0.888160	-0.978146	-0.326150
N74	N	-0.388160	-0.478146	0.173850
C75	C	-0.860867	-0.934819	-0.369396
C76	C	-0.360867	-0.434819	0.130604
O77	O	-0.889114	-0.897989	-0.406183
O78	O	-0.389114	-0.397989	0.093817
C79	C	-0.806264	-0.934796	-0.369390
C80	C	-0.306264	-0.434796	0.130610
C81	C	-0.778953	-0.978098	-0.326135
C82	C	-0.278953	-0.478098	0.173865
C83	C	-0.778931	-1.064722	-0.239643
C84	C	-0.278931	-0.564722	0.260357
C85	C	-0.724330	-1.064695	-0.239633
C86	C	-0.224330	-0.564695	0.260367
C87	C	-0.697041	-1.021369	-0.282874
C88	C	-0.197041	-0.521369	0.217126
C89	C	-0.724352	-0.978071	-0.326125
C90	C	-0.224352	-0.478071	0.173875
C91	C	-0.778972	-0.891473	-0.412639
C92	C	-0.278972	-0.391473	0.087361
C93	C	-0.724365	-0.891455	-0.412629
C94	C	-0.224365	-0.391455	0.087371
C95	C	-0.697053	-0.934756	-0.369374
C96	C	-0.197053	-0.434756	0.130626
C97	C	-0.642462	-0.934718	-0.369357
C98	C	-0.142462	-0.434718	0.130643
N99	N	-0.615148	-0.978021	-0.326109
N100	N	-0.115148	-0.478021	0.173891
C101	C	-0.642438	-1.021347	-0.282868
C102	C	-0.142438	-0.521347	0.217132
C103	C	-0.975538	-0.934870	-0.369407
C104	C	-0.475538	-0.434870	0.130593
C105	C	-1.030140	-0.934888	-0.369410
C106	C	-0.530140	-0.434888	0.130590
C107	C	-1.030115	-1.021520	-0.282917
C108	C	-0.530115	-0.521520	0.217083
C109	C	-0.975512	-1.021498	-0.282911
C110	C	-0.475512	-0.521498	0.217089
C111	C	-0.948224	-0.978173	-0.326159
C112	C	-0.448224	-0.478173	0.173841
C113	C	-0.527772	-1.021286	-0.282851
C114	C	-0.027772	-0.521286	0.217149
C115	C	-0.473167	-1.021252	-0.282843
C116	C	0.026833	-0.521252	0.217157
C117	C	-0.473196	-0.934623	-0.369337
C118	C	0.026804	-0.434623	0.130663
C119	C	-0.527797	-0.934654	-0.369343
C120	C	-0.027797	-0.434654	0.130657
C121	C	-0.555084	-0.977990	-0.326097
C122	C	-0.055084	-0.477990	0.173903
O123	O	-0.614190	-0.897874	-0.406095
O124	O	-0.114190	-0.397874	0.093905
O125	O	-0.614184	-1.058177	-0.246094
O126	O	-0.114184	-0.558177	0.253906
C127	C	-0.115548	-0.978160	-0.326151
C128	C	0.384452	-0.478160	0.173849
C129	C	-0.057434	-0.978217	-0.326171
C130	C	0.442566	-0.478217	0.173829
C131	C	-0.251885	-0.978057	-0.502648
C132	C	0.248115	-0.478057	-0.002648
C133	C	-0.251869	-0.978070	-0.577880
C134	C	0.248131	-0.478070	-0.077880
C135	C	-0.251937	-0.154570	-0.326120
C136	C	0.248063	0.345430	0.173880
C137	C	-0.251933	-0.229802	-0.326111
C138	C	0.248067	0.270198	0.173889
C139	C	-0.218421	-0.934824	-0.613230
C140	C	0.281579	-0.434824	-0.113230
C141	C	-0.218411	-0.934834	-0.683918
C142	C	0.281589	-0.434834	-0.183918
C143	C	-0.251847	-0.978092	-0.719256
C144	C	0.248153	-0.478092	-0.219256
C145	C	-0.285299	-1.021340	-0.683901
C146	C	0.214701	-0.521340	-0.183901
C147	C	-0.285311	-1.021327	-0.613214
C148	C	0.214689	-0.521327	-0.113214
C149	C	-0.285250	-1.021393	-0.968975
C150	C	0.214750	-0.521393	-0.468975
C151	C	-0.285234	-1.021405	-1.039667
C152	C	0.214766	-0.521405	-0.539667
C153	C	-0.218350	-0.934900	-1.039679
C154	C	0.281650	-0.434900	-0.539679
C155	C	-0.218362	-0.934887	-0.968992
C156	C	0.281638	-0.434887	-0.468992
C157	C	-0.251816	-0.978132	-0.933643
C158	C	0.248184	-0.478132	-0.433643
C159	C	-0.251827	-0.978120	-0.856995
C160	C	0.248173	-0.478120	-0.356995
C161	C	-0.251833	-0.978108	-0.795903
C162	C	0.248167	-0.478108	-0.295903
C163	C	-0.251920	-0.978037	-0.150249
C164	C	0.248080	-0.478037	0.349751
C165	C	-0.251788	-0.978155	-0.075018
C166	C	0.248212	-0.478155	0.424982
H167	H	-0.312512	-0.364534	-0.247422
H168	H	0.187488	0.135466	0.252578
Br169	Br	-1.067198	-0.876110	-0.428105
Br170	Br	-0.567198	-0.376110	0.071895
H171	H	-0.312526	-1.056558	-0.712679
H172	H	0.187474	-0.556558	-0.212679
H173	H	-0.191191	-0.899602	-0.584463
H174	H	0.308809	-0.399602	-0.084463
Br175	Br	-0.436150	-0.875830	-0.428022
Br176	Br	0.063850	-0.375830	0.071978
H177	H	-0.191176	-0.899616	-0.712697
H178	H	0.308824	-0.399616	-0.212697
H179	H	-0.191328	-0.592206	-0.404774
H180	H	0.308672	-0.092206	0.095226
H181	H	-0.191344	-0.364680	-0.404786
H182	H	0.308656	0.135320	0.095214
H183	H	-0.312493	-0.592058	-0.247415
H184	H	0.187507	-0.092058	0.252585
H185	H	-0.953322	-0.899584	-0.404622
H186	H	-0.453322	-0.399584	0.095378
Br187	Br	-0.687274	-1.123474	-0.180937
Br188	Br	-0.187274	-0.623474	0.319063
H189	H	-0.801144	-1.100006	-0.204431
H190	H	-0.301144	-0.600006	0.295569
H191	H	-0.191133	-0.899664	-0.940224
H192	H	0.308867	-0.399664	-0.440224
H193	H	-0.312496	-1.056599	-0.940202
H194	H	0.187504	-0.556599	-0.440202
H195	H	-0.191323	-0.720440	-0.404772
H196	H	0.308677	-0.220440	0.095228
Br197	Br	-0.330614	-1.080118	-1.087625
Br198	Br	0.169386	-0.580118	-0.587625
H199	H	-0.191112	-0.899687	-1.068468
H200	H	0.308888	-0.399687	-0.568468
Br201	Br	-0.330617	-0.739473	-0.223863
Br202	Br	0.169383	-0.239473	0.276137
H203	H	-0.312544	-1.056547	-0.584433
H204	H	0.187456	-0.556547	-0.084433
H205	H	-0.191352	-0.236435	-0.404792
H206	H	0.308648	0.263565	0.095208
H207	H	-0.312523	-0.236300	-0.247434
H208	H	0.187477	0.263700	0.252566
Br209	Br	-0.436105	-1.080021	-0.224134
Br210	Br	0.063895	-0.580021	0.275866
H211	H	-0.953279	-1.056758	-0.247690
H212	H	-0.453279	-0.556758	0.252310
Br213	Br	-1.067161	-1.080317	-0.224229
Br214	Br	-0.567161	-0.580317	0.275771
Br215	Br	-0.564796	-1.080100	-0.224160
Br216	Br	-0.064796	-0.580100	0.275840
H217	H	-0.801199	-0.856209	-0.447859
H218	H	-0.301199	-0.356209	0.052141
H219	H	-0.702149	-0.856175	-0.447849
H220	H	-0.202149	-0.356175	0.052151
H221	H	-0.550035	-0.899396	-0.404567
H222	H	-0.050035	-0.399396	0.095433
