data_functionalizedCrystal
_audit_creation_method	'MofGen! by Chris Wilmer'
_symmetry_space_group_name_H-M	'P1'
_symmetry_Int_Tables_number	1
_symmetry_cell_setting	triclinic
loop_
_symmetry_equiv_pos_as_xyz
  x,y,z
_cell_length_a	14.044191
_cell_length_b	12.503572
_cell_length_c	11.792241
_cell_angle_alpha	86.452757
_cell_angle_beta	88.692596
_cell_angle_gamma	93.837835
loop_
_atom_site_label
_atom_site_type_symbol
_atom_site_fract_x
_atom_site_fract_y
_atom_site_fract_z
O1	O	1.264548	0.089269	0.267796
O2	O	0.988528	0.089283	0.257907
O3	O	1.133235	0.089268	0.098311
O4	O	1.119840	0.089284	0.427393
O5	O	1.122353	-0.089373	0.110335
O6	O	0.977645	-0.089358	0.269932
O7	O	1.253665	-0.089372	0.279820
Cu8	Cu	1.114661	-0.105676	0.275974
Cu9	Cu	1.127531	0.105587	0.261754
O10	O	1.108957	-0.089357	0.439417
C11	C	0.947750	-0.000036	0.259594
C12	C	0.842458	-0.000031	0.246692
N13	N	1.105616	-0.254268	0.285976
C14	C	0.592520	-0.000039	0.314609
C15	C	0.649679	-0.000041	0.223123
C16	C	0.756951	-0.000036	0.236240
C17	C	0.485238	-0.000044	0.301494
C18	C	1.092310	-0.473382	0.300698
C19	C	1.149887	-0.526715	0.237025
C20	C	1.142483	-0.648637	0.245217
C21	C	1.099713	-0.351448	0.292508
C22	C	1.294443	-0.000051	0.278133
C23	C	1.399735	-0.000049	0.291035
C24	C	1.126953	-0.000052	0.061953
C25	C	1.124434	-0.000051	-0.064297
N26	N	1.136584	0.254178	0.251744
C27	C	1.119804	-0.000033	-0.295446
C28	C	1.122376	-0.000043	-0.166818
C29	C	1.115240	-0.000035	0.475775
C30	C	1.117759	-0.000029	0.602024
H31	H	0.618055	0.000030	0.134942
H32	H	1.037461	-0.519284	0.361359
H33	H	0.624147	-0.000031	0.402778
H34	H	1.204741	-0.480807	0.176361
