data_functionalizedCrystal
_audit_creation_method	'MofGen! by Chris Wilmer'
_symmetry_space_group_name_H-M	'P1'
_symmetry_Int_Tables_number	1
_symmetry_cell_setting	triclinic
loop_
_symmetry_equiv_pos_as_xyz
  x,y,z
_cell_length_a	13.339070
_cell_length_b	10.489741
_cell_length_c	12.376457
_cell_angle_alpha	101.393369
_cell_angle_beta	75.589755
_cell_angle_gamma	100.084234
loop_
_atom_site_label
_atom_site_type_symbol
_atom_site_fract_x
_atom_site_fract_y
_atom_site_fract_z
O1	O	1.366233	0.623457	-0.094044
O2	O	1.071092	0.539311	-0.094038
O3	O	1.225377	0.398086	-0.094035
O4	O	1.211948	0.764681	-0.094048
O5	O	1.186819	0.433330	0.093977
O6	O	1.032534	0.574555	0.093973
O7	O	1.327675	0.658701	0.093967
Zn8	Zn	1.173983	0.622224	0.123821
Zn9	Zn	1.224784	0.575788	-0.123892
O10	O	1.173390	0.799925	0.093964
C11	C	1.014020	0.542719	-0.000031
C12	C	0.901409	0.500351	-0.000029
C13	C	0.539022	0.829783	-0.000059
C14	C	0.644826	0.869593	-0.000065
C15	C	0.708977	0.777286	-0.000055
C16	C	0.667313	0.645161	-0.000041
C17	C	0.561501	0.605345	-0.000044
C18	C	0.731456	0.552849	-0.000040
C19	C	0.689792	0.420724	-0.000026
C20	C	0.583990	0.380915	-0.000028
C21	C	0.519839	0.473222	-0.000037
C22	C	0.837268	0.592665	-0.000037
C23	C	0.859747	0.368227	-0.000022
C24	C	0.753943	0.328417	-0.000016
C25	C	1.205084	0.367829	-0.000030
C26	C	1.202049	0.225160	-0.000032
C27	C	1.103883	0.123412	-0.000038
C28	C	1.131245	0.064542	0.092661
C29	C	1.169284	0.029828	-0.092704
C30	C	1.229436	0.168184	0.092743
C31	C	1.267478	0.133459	-0.092704
C32	C	1.294907	0.074645	0.000017
C33	C	1.384748	0.655292	-0.000042
C34	C	1.497360	0.697659	-0.000052
C35	C	1.193684	0.830182	-0.000044
C36	C	1.196720	0.972849	-0.000049
N37	N	1.139319	0.653917	0.292879
N38	N	1.259456	0.544088	-0.292950
C39	C	1.339921	0.470493	0.647868
C40	C	1.364176	0.448309	0.529529
C41	C	1.307963	0.499709	0.470360
C42	C	1.227492	0.573297	0.529543
C43	C	1.203240	0.595492	0.647894
C44	C	1.171283	0.624708	0.470386
C45	C	1.090812	0.698296	0.529569
C46	C	1.066563	0.720486	0.647908
C47	C	1.122775	0.669087	0.707076
C48	C	1.195535	0.602512	0.352035
C49	C	1.058855	0.727511	0.352061
C50	C	1.034599	0.749696	0.470400
H51	H	0.678742	0.977167	-0.000085
H52	H	0.550074	0.273328	-0.000029
H53	H	1.023150	0.145449	0.000058
H54	H	0.969078	0.809614	0.518602
H55	H	1.261055	0.542597	0.303859
O56	O	1.391358	0.048848	-0.000078
C57	C	1.463194	0.085790	-0.096967
H58	H	1.432380	0.162681	-0.128960
H59	H	1.541506	0.128504	-0.074600
H60	H	1.473784	-0.003940	-0.165684
H61	H	1.385687	0.428658	0.696050
H62	H	1.325053	0.164019	-0.171080
H63	H	0.911980	0.293062	-0.000020
O64	O	1.138750	-0.041494	-0.186167
C65	C	1.037978	-0.017231	-0.185793
H66	H	1.022641	0.081651	-0.131521
H67	H	1.032350	-0.015771	-0.275944
H68	H	0.977457	-0.097953	-0.149614
H69	H	1.073636	0.034002	0.171032
O70	O	0.988270	0.791794	0.705347
C71	C	0.893649	0.729998	0.676433
H72	H	0.899077	0.621339	0.643909
H73	H	0.826907	0.741256	0.754271
H74	H	0.878450	0.777430	0.607739
H75	H	1.327716	0.481643	0.374003
O76	O	1.259929	0.239404	0.186263
C77	C	1.360264	0.214133	0.186490
H78	H	1.402222	0.177342	0.096438
H79	H	1.406853	0.308264	0.221558
H80	H	1.352850	0.136360	0.241655
O81	O	0.877642	0.721011	-0.000197
C82	C	0.864940	0.761279	-0.097589
H83	H	0.797977	0.694370	-0.130052
H84	H	0.846536	0.866677	-0.075697
H85	H	0.940035	0.755355	-0.165770
O86	O	0.811720	0.816186	-0.000003
C87	C	0.834744	0.952588	-0.000045
H88	H	0.760102	0.999863	0.035536
H89	H	0.893646	0.996279	0.054545
H90	H	0.869100	0.971923	-0.090246
O91	O	1.004318	0.777307	0.294423
C92	C	1.042995	0.741965	0.177279
H93	H	1.083473	0.650705	0.161116
H94	H	0.975509	0.720527	0.132316
H95	H	1.101275	0.826083	0.143681
H96	H	0.720008	0.220837	-0.000014
H97	H	1.103024	0.687144	0.803438
O98	O	0.476553	0.919277	-0.000020
C99	C	0.374241	0.855792	-0.000054
H100	H	0.362154	0.760589	0.035548
H101	H	0.315647	0.922556	0.054522
H102	H	0.362188	0.832898	-0.090255
O103	O	1.442182	0.376476	0.472276
C104	C	1.418623	0.249598	0.501488
H105	H	1.330714	0.226482	0.533921
H106	H	1.445779	0.174757	0.423823
H107	H	1.460324	0.244954	0.570338
O108	O	0.417105	0.434366	-0.000187
C109	C	0.407890	0.341286	-0.097573
H110	H	0.482083	0.292612	-0.130035
H111	H	0.338134	0.263594	-0.075672
H112	H	0.395999	0.392383	-0.165758
