data_functionalizedCrystal
_audit_creation_method	'MofGen! by Chris Wilmer'
_symmetry_space_group_name_H-M	'P1'
_symmetry_Int_Tables_number	1
_symmetry_cell_setting	triclinic
loop_
_symmetry_equiv_pos_as_xyz
  x,y,z
_cell_length_a	17.077404
_cell_length_b	17.077402
_cell_length_c	17.077396
_cell_angle_alpha	90.027432
_cell_angle_beta	89.980499
_cell_angle_gamma	89.975442
loop_
_atom_site_label
_atom_site_type_symbol
_atom_site_fract_x
_atom_site_fract_y
_atom_site_fract_z
Zn1	Zn	1.200047	0.312503	-0.443848
Zn2	Zn	1.199951	0.443778	-0.312585
Zn3	Zn	1.068779	0.312531	-0.312596
Zn4	Zn	1.068743	0.443732	-0.443808
O5	O	1.134380	0.378136	-0.378210
O6	O	1.309881	0.329925	-0.426448
O7	O	1.182525	0.426399	-0.202739
O8	O	1.086247	0.202680	-0.330029
O9	O	1.309810	0.426372	-0.330009
O10	O	1.182689	0.202660	-0.426459
O11	O	1.086153	0.329972	-0.202748
O12	O	0.958927	0.329927	-0.329990
O13	O	1.086186	0.426293	-0.553661
O14	O	0.958901	0.426320	-0.426391
O15	O	1.182655	0.329880	-0.553690
O16	O	1.182491	0.553619	-0.329970
O17	O	1.086093	0.553585	-0.426380
C18	C	0.930432	0.378122	-0.378188
C19	C	0.843182	0.378135	-0.378197
C20	C	1.134299	0.582084	-0.378187
C21	C	1.134336	0.669334	-0.378203
C22	C	0.802199	0.428402	-0.428313
C23	C	0.720219	0.428404	-0.428325
C24	C	0.679223	0.378141	-0.378218
C25	C	0.720212	0.327869	-0.328100
C26	C	0.802191	0.327863	-0.328092
C27	C	0.549342	0.327884	-0.328119
C28	C	0.467357	0.327890	-0.328126
C29	C	0.467370	0.428424	-0.428352
C30	C	0.549348	0.428419	-0.428344
C31	C	0.590332	0.378147	-0.378225
C32	C	1.184580	0.710316	-0.328058
C33	C	1.184617	0.792296	-0.328082
C34	C	1.134404	0.833293	-0.378246
C35	C	1.084158	0.792305	-0.428397
C36	C	1.084126	0.710327	-0.428377
C37	C	1.084226	0.963175	-0.428434
C38	C	1.084256	1.045160	-0.428453
C39	C	1.184717	1.045145	-0.328138
C40	C	1.184685	0.963166	-0.328118
C41	C	1.134437	0.922184	-0.378268
C42	C	1.339124	0.378151	-0.378232
C43	C	1.426374	0.378157	-0.378241
C44	C	1.134427	0.378078	-0.582954
C45	C	1.134447	0.378054	-0.670204
C46	C	1.134476	1.173392	-0.378260
C47	C	1.134501	1.086142	-0.378308
C48	C	1.184680	0.327847	-0.711210
C49	C	1.184690	0.327821	-0.793191
C50	C	1.134470	0.378006	-0.834163
C51	C	1.084231	0.428214	-0.793151
C52	C	1.084219	0.428236	-0.711172
C53	C	1.084263	0.428167	-0.964021
C54	C	1.084277	0.428147	-1.046006
C55	C	1.184734	0.327752	-1.046040
C56	C	1.184721	0.327774	-0.964061
C57	C	1.134484	0.377984	-0.923054
C58	C	1.134378	0.378137	-0.174262
C59	C	1.134509	0.377941	-0.087012
H60	H	0.835572	0.469334	-0.469113
H61	H	0.686854	0.469337	-0.469133
O62	O	1.030059	0.482337	-0.837342
H63	H	1.043480	0.543951	-0.821593
H64	H	0.582725	0.469352	-0.469142
H65	H	1.043384	1.078538	-0.469316
O66	O	0.423174	0.482643	-0.482417
H67	H	0.359281	0.474197	-0.474015
O68	O	1.238853	0.273724	-0.667022
H69	H	1.203738	0.233798	-0.629667
O70	O	1.030024	0.918969	-0.482515
H71	H	0.995105	0.961247	-0.517393
O72	O	1.238841	0.918946	-0.274011
H73	H	1.278736	0.881535	-0.309177
O74	O	1.030026	0.482379	-0.666943
H75	H	1.043453	0.543987	-0.682657
H76	H	0.686826	0.286941	-0.287305
H77	H	1.225466	0.676941	-0.287205
H78	H	1.043277	0.825692	-0.469245
H79	H	1.225619	0.286913	-0.930704
H80	H	1.225633	1.078516	-0.287307
O81	O	0.423135	0.273672	-0.274092
H82	H	0.465404	0.238704	-0.239249
H83	H	0.582708	0.286940	-0.287314
H84	H	1.043342	0.469041	-0.930636
H85	H	0.835558	0.286927	-0.287287
O86	O	1.029923	0.666125	-0.482454
H87	H	1.043348	0.681809	-0.544079
O88	O	1.238804	0.836501	-0.273993
H89	H	1.273706	0.794221	-0.239099
O90	O	1.238873	0.273675	-0.837423
H91	H	1.273800	0.238791	-0.795160
H92	H	1.225638	0.286868	-1.079432
H93	H	1.043381	0.469010	-1.079363
