data_functionalizedCrystal
_audit_creation_method	'MofGen! by Chris Wilmer'
_symmetry_space_group_name_H-M	'P1'
_symmetry_Int_Tables_number	1
_symmetry_cell_setting	triclinic
loop_
_symmetry_equiv_pos_as_xyz
  x,y,z
_cell_length_a	10.686220
_cell_length_b	15.299816
_cell_length_c	10.686551
_cell_angle_alpha	94.573802
_cell_angle_beta	90.308082
_cell_angle_gamma	83.959204
loop_
_atom_site_label
_atom_site_type_symbol
_atom_site_fract_x
_atom_site_fract_y
_atom_site_fract_z
Zn1	Zn	2.027753	-0.214219	-0.610037
Zn2	Zn	2.052702	-0.373258	-0.435655
Zn3	Zn	1.807691	-0.236697	-0.421355
Zn4	Zn	1.858671	-0.371478	-0.661037
O5	O	1.936704	-0.298913	-0.532021
O6	O	2.204361	-0.226655	-0.571546
O7	O	2.009306	-0.365295	-0.260471
O8	O	1.805106	-0.110751	-0.419055
O9	O	2.222691	-0.343500	-0.443429
O10	O	1.966785	-0.094236	-0.557680
O11	O	1.829298	-0.264964	-0.249964
O12	O	1.641154	-0.263238	-0.468508
O13	O	1.891994	-0.340465	-0.827559
O14	O	1.678609	-0.362260	-0.644601
O15	O	2.016218	-0.224928	-0.790090
O16	O	2.058739	-0.495987	-0.492881
O17	O	1.916186	-0.494678	-0.658468
C18	C	1.614947	-0.314995	-0.560538
C19	C	1.477306	-0.321895	-0.572771
C20	C	1.995737	-0.527213	-0.582785
C21	C	2.021107	-0.624872	-0.604533
C22	C	1.756216	-0.934843	-0.376932
C23	C	1.732373	-0.843088	-0.356502
C24	C	1.804555	-0.788529	-0.418507
C25	C	1.900583	-0.825736	-0.500947
C26	C	1.924422	-0.917500	-0.521387
C27	C	1.972761	-0.771186	-0.562962
C28	C	2.068789	-0.808393	-0.645402
C29	C	2.092624	-0.900148	-0.665837
C30	C	2.020442	-0.954707	-0.603832
C31	C	1.948922	-0.679422	-0.542523
C32	C	2.117128	-0.662078	-0.686978
C33	C	2.140970	-0.753834	-0.707408
C34	C	2.259717	-0.282768	-0.503394
C35	C	2.397366	-0.275889	-0.491195
C36	C	1.957009	-0.279990	-0.855012
C37	C	1.965662	-0.271927	-0.992652
C38	C	1.877476	-0.069719	-0.481083
C39	C	1.852237	0.027950	-0.459377
C40	C	1.916533	-0.317695	-0.210266
C41	C	1.908055	-0.325499	-0.072551
H42	H	1.434227	-0.231223	-0.411994
C43	C	1.832479	-0.395796	-1.022712
N44	N	1.775551	-0.448744	-0.985165
C45	C	2.246594	-0.794773	-0.798096
N46	N	2.326148	-0.825610	-0.866404
C47	C	1.427508	-0.382246	-0.679772
N48	N	1.389998	-0.427700	-0.760365
H49	H	1.697451	-0.979272	-0.326462
H50	H	1.870735	-0.649137	-0.475400
C51	C	1.778329	-0.687596	-0.396025
N52	N	1.758576	-0.611569	-0.379082
C53	C	1.626721	-0.802167	-0.265849
N54	N	1.547130	-0.771346	-0.197574
C55	C	2.198259	-0.941072	-0.756522
N56	N	2.277828	-0.971895	-0.824822
H57	H	2.039854	-1.029423	-0.620457
H58	H	2.021612	-0.219892	-1.029550
C59	C	2.196535	-0.602068	-0.755186
N60	N	2.256339	-0.556863	-0.806557
