data_functionalizedCrystal
_audit_creation_method	'MofGen! by Chris Wilmer'
_symmetry_space_group_name_H-M	'P1'
_symmetry_Int_Tables_number	1
_symmetry_cell_setting	triclinic
loop_
_symmetry_equiv_pos_as_xyz
  x,y,z
_cell_length_a	19.805407
_cell_length_b	19.077692
_cell_length_c	19.805399
_cell_angle_alpha	87.728486
_cell_angle_beta	90.019573
_cell_angle_gamma	87.730708
loop_
_atom_site_label
_atom_site_type_symbol
_atom_site_fract_x
_atom_site_fract_y
_atom_site_fract_z
Zn1	Zn	1.045551	-0.280198	0.393551
Zn2	Zn	1.545551	0.219802	0.893551
Zn3	Zn	1.050008	-0.397889	0.284912
Zn4	Zn	1.550008	0.102111	0.784912
Zn5	Zn	0.932366	-0.280218	0.280376
Zn6	Zn	1.432366	0.219782	0.780376
Zn7	Zn	0.936870	-0.397852	0.398057
Zn8	Zn	1.436870	0.102148	0.898057
O9	O	0.991199	-0.339039	0.339224
O10	O	1.491199	0.160961	0.839224
O11	O	1.140859	-0.295818	0.379152
O12	O	1.640859	0.204182	0.879152
O13	O	1.034383	-0.382303	0.189594
O14	O	1.534383	0.117697	0.689594
O15	O	0.943630	-0.181731	0.291605
O16	O	1.443630	0.318269	0.791605
O17	O	1.144134	-0.382285	0.299335
O18	O	1.644134	0.117715	0.799335
O19	O	1.026786	-0.181717	0.374754
O20	O	1.526786	0.318283	0.874754
O21	O	0.947952	-0.295851	0.186262
O22	O	1.447952	0.204149	0.686262
O23	O	0.838247	-0.295814	0.295974
O24	O	1.338247	0.204186	0.795974
O25	O	0.951306	-0.382221	0.492175
O26	O	1.451306	0.117779	0.992175
O27	O	0.841556	-0.382240	0.382434
O28	O	1.341556	0.117760	0.882434
O29	O	1.031153	-0.295781	0.488864
O30	O	1.531153	0.204219	0.988864
O31	O	1.038751	-0.496368	0.303705
O32	O	1.538751	0.003632	0.803705
O33	O	0.955628	-0.496341	0.386832
O34	O	1.455628	0.003659	0.886832
C35	C	0.815342	-0.339026	0.339201
C36	C	1.315342	0.160974	0.839201
C37	C	0.740111	-0.339037	0.339209
C38	C	1.240111	0.160963	0.839209
C39	C	0.706510	-0.384106	0.384161
C40	C	1.206510	0.115894	0.884161
C41	C	0.635821	-0.384107	0.384170
C42	C	1.135821	0.115893	0.884170
C43	C	0.598735	-0.339042	0.339224
C44	C	1.098735	0.160958	0.839224
C45	C	0.632341	-0.293968	0.294270
C46	C	1.132341	0.206032	0.794270
C47	C	0.703028	-0.293964	0.294264
C48	C	1.203028	0.206036	0.794264
C49	C	0.347268	-0.293984	0.294293
C50	C	0.847268	0.206016	0.794293
C51	C	0.276576	-0.293993	0.294301
C52	C	0.776576	0.206007	0.794301
C53	C	0.280062	-0.384127	0.384199
C54	C	0.780062	0.115873	0.884199
C55	C	0.350749	-0.384123	0.384193
C56	C	0.850749	0.115877	0.884193
C57	C	0.384348	-0.339046	0.339242
C58	C	0.884348	0.160954	0.839242
C59	C	0.460996	-0.339045	0.339233
C60	C	0.960996	0.160955	0.839233
C61	C	0.522088	-0.339047	0.339229
C62	C	1.022088	0.160953	0.839229
C63	C	0.998180	-0.521890	0.346264
C64	C	1.498180	-0.021890	0.846264
C65	C	1.001229	-0.600115	0.349299
C66	C	1.501229	-0.100115	0.849299
C67	C	0.959405	-0.636935	0.307405
C68	C	1.459405	-0.136935	0.807405
C69	C	0.962277	-0.710435	0.310260
C70	C	1.462277	-0.210435	0.810260
C71	C	1.006969	-0.747114	0.355012
C72	C	1.506969	-0.247114	0.855012
C73	C	1.048797	-0.710289	0.396907
C74	C	1.548797	-0.210289	0.896907
C75	C	1.045928	-0.636790	0.394049
C76	C	1.545928	-0.136790	0.894049
C77	C	1.020189	-0.966925	0.368202
C78	C	1.520189	-0.466925	0.868202
C79	C	1.023053	-1.040429	0.371059
C80	C	1.523053	-0.540429	0.871059
C81	C	0.936534	-1.040571	0.284410
C82	C	1.436534	-0.540571	0.784410
C83	C	0.933666	-0.967070	0.281559
C84	C	1.433666	-0.467070	0.781559
C85	C	0.975497	-0.930251	0.323452
C86	C	1.475497	-0.430251	0.823452
N87	N	1.009903	-0.822243	0.357932
N88	N	1.509903	-0.322243	0.857932
N89	N	0.972565	-0.855124	0.320528
N90	N	1.472565	-0.355124	0.820528
C91	C	1.167742	-0.339053	0.339247
C92	C	1.667742	0.160947	0.839247
C93	C	1.242974	-0.339059	0.339257
C94	C	1.742974	0.160941	0.839257
C95	C	0.991235	-0.338995	0.515765
C96	C	1.491235	0.161005	1.015765
C97	C	0.991250	-0.338976	0.590996
C98	C	1.491250	0.161024	1.090996
C99	C	0.984208	-0.155474	0.332171
C100	C	1.484208	0.344526	0.832171
C101	C	0.981230	-0.077249	0.329165
C102	C	1.481230	0.422751	0.829165
C103	C	0.991200	-0.339032	0.163368
C104	C	1.491200	0.160968	0.663368
C105	C	0.991308	-0.338853	0.088129
C106	C	1.491308	0.161147	0.588129
C107	C	1.032828	-0.293965	0.624617
C108	C	1.532828	0.206035	1.124617
C109	C	1.032834	-0.293944	0.695305
C110	C	1.532834	0.206056	1.195305
C111	C	0.991266	-0.338939	0.732370
C112	C	1.491266	0.161061	1.232370
C113	C	0.949684	-0.383952	0.698744
C114	C	1.449684	0.116048	1.198744
C115	C	0.949675	-0.383969	0.628058
C116	C	1.449675	0.116031	1.128058
C117	C	0.949720	-0.383887	0.983815
C118	C	1.449720	0.116113	1.483815
C119	C	0.949733	-0.383868	1.054507
C120	C	1.449733	0.116132	1.554507
C121	C	1.032879	-0.293862	1.051063
C122	C	1.532879	0.206138	1.551063
C123	C	1.032870	-0.293879	0.980376
C124	C	1.532870	0.206121	1.480376
C125	C	0.991285	-0.338889	0.946756
C126	C	1.491285	0.161111	1.446756
C127	C	0.991278	-0.338910	0.870108
C128	C	1.491278	0.161090	1.370108
C129	C	0.991276	-0.338923	0.809017
C130	C	1.491276	0.161077	1.309017
H131	H	0.736701	-0.420806	0.420759
H132	H	1.236701	0.079194	0.920759
Cl133	Cl	1.085131	-0.237314	0.933784
Cl134	Cl	1.585131	0.262686	1.433784
H135	H	0.923010	-0.607076	0.270967
H136	H	1.423010	-0.107076	0.770967
H137	H	0.380941	-0.420822	0.420791
H138	H	0.880941	0.079178	0.920791
H139	H	0.915811	-0.420614	0.600684
H140	H	1.415811	0.079386	1.100684
H141	H	0.602140	-0.257272	0.257676
H142	H	1.102140	0.242728	0.757676
H143	H	0.915881	-0.420510	1.084684
H144	H	1.415881	0.079490	1.584684
Cl145	Cl	1.085155	-0.237274	1.093332
Cl146	Cl	1.585155	0.262726	1.593332
H147	H	0.897275	-0.937208	0.245118
H148	H	1.397275	-0.437208	0.745118
Cl149	Cl	1.072772	-0.920648	0.420872
Cl150	Cl	1.572772	-0.420648	0.920872
Cl151	Cl	1.104984	-0.756399	0.453164
Cl152	Cl	1.604984	-0.256399	0.953164
H153	H	0.928221	-0.740411	0.276144
H154	H	1.428221	-0.240411	0.776144
H155	H	0.902478	-1.070557	0.250303
H156	H	1.402478	-0.570557	0.750303
Cl157	Cl	1.079248	-1.086538	0.427316
Cl158	Cl	1.579248	-0.586538	0.927316
H159	H	0.915869	-0.420547	0.956451
H160	H	1.415869	0.079453	1.456451
H161	H	0.252697	-0.420828	0.420803
H162	H	0.752697	0.079172	0.920803
H163	H	1.079986	-0.606811	0.428162
H164	H	1.579986	-0.106811	0.928162
H165	H	0.374616	-0.257285	0.257685
H166	H	0.874616	0.242715	0.757685
H167	H	0.730384	-0.257260	0.257663
H168	H	1.230384	0.242740	0.757663
Cl169	Cl	1.085092	-0.237400	0.578028
Cl170	Cl	1.585092	0.262600	1.078028
H171	H	0.608467	-0.420808	0.420774
H172	H	1.108467	0.079192	0.920774
Cl173	Cl	1.085136	-0.237387	0.737570
Cl174	Cl	1.585136	0.262613	1.237570
H175	H	0.246382	-0.257291	0.257700
H176	H	0.746382	0.242709	0.757700
Cl177	Cl	0.897424	-0.440515	0.745341
Cl178	Cl	1.397424	0.059485	1.245341
