data_functionalizedCrystal
_audit_creation_method	'MofGen! by Chris Wilmer'
_symmetry_space_group_name_H-M	'P1'
_symmetry_Int_Tables_number	1
_symmetry_cell_setting	triclinic
loop_
_symmetry_equiv_pos_as_xyz
  x,y,z
_cell_length_a	17.699083
_cell_length_b	16.176319
_cell_length_c	17.699083
_cell_angle_alpha	89.992304
_cell_angle_beta	83.283015
_cell_angle_gamma	89.998611
loop_
_atom_site_label
_atom_site_type_symbol
_atom_site_fract_x
_atom_site_fract_y
_atom_site_fract_z
O1	O	1.004079	-0.068632	0.095713
O2	O	1.337412	0.264701	0.429046
O3	O	1.670745	0.598034	0.762380
O4	O	0.783700	-0.068660	0.108166
O5	O	1.117034	0.264674	0.441499
O6	O	1.450367	0.598007	0.774832
O7	O	0.900116	-0.068638	-0.008250
O8	O	1.233449	0.264695	0.325083
O9	O	1.566782	0.598029	0.658417
O10	O	0.887663	-0.068654	0.212129
O11	O	1.220997	0.264679	0.545462
O12	O	1.554330	0.598013	0.878795
O13	O	0.900100	0.068855	-0.008257
O14	O	1.233433	0.402189	0.325076
O15	O	1.566766	0.735522	0.658409
O16	O	0.783684	0.068834	0.108158
O17	O	1.117018	0.402167	0.441492
O18	O	1.450351	0.735500	0.774825
O19	O	1.004063	0.068861	0.095706
O20	O	1.337396	0.402194	0.429039
O21	O	1.670729	0.735528	0.762372
Cu22	Cu	0.893872	0.081401	0.101931
Cu23	Cu	1.227205	0.414735	0.435265
Cu24	Cu	1.560539	0.748068	0.768598
Cu25	Cu	0.893891	-0.081200	0.101940
Cu26	Cu	1.227224	0.252133	0.435273
Cu27	Cu	1.560558	0.585467	0.768607
O28	O	0.887647	0.068839	0.212121
O29	O	1.220981	0.402173	0.545454
O30	O	1.554314	0.735506	0.878788
C31	C	0.755495	0.000084	0.107716
C32	C	1.088829	0.333417	0.441049
C33	C	1.422162	0.666750	0.774382
C34	C	0.671477	0.000073	0.106377
C35	C	1.004811	0.333407	0.439710
C36	C	1.338144	0.666740	0.773044
N37	N	0.893864	0.195767	0.101925
N38	N	1.227198	0.529100	0.435258
N39	N	1.560531	0.862433	0.768591
C40	C	0.899662	0.000109	-0.036451
C41	C	1.232995	0.333442	0.296883
C42	C	1.566328	0.666775	0.630216
C43	C	0.898323	0.000109	-0.120469
C44	C	1.231656	0.333442	0.212865
C45	C	1.564990	0.666776	0.546198
C46	C	0.622856	0.000069	0.174710
C47	C	0.956190	0.333402	0.508044
C48	C	1.289523	0.666735	0.841377
C49	C	0.543913	0.000079	0.173448
C50	C	0.877246	0.333413	0.506782
C51	C	1.210580	0.666746	0.840115
C52	C	0.513592	0.000089	0.103852
C53	C	0.846926	0.333422	0.437185
C54	C	1.180259	0.666756	0.770518
C55	C	0.562219	0.000096	0.035513
C56	C	0.895553	0.333430	0.368846
C57	C	1.228886	0.666763	0.702180
C58	C	0.641161	0.000091	0.036776
C59	C	0.974495	0.333425	0.370109
C60	C	1.307828	0.666758	0.703443
C61	C	0.243856	0.000117	0.030418
C62	C	0.577190	0.333450	0.363751
C63	C	0.910523	0.666784	0.697085
C64	C	0.164908	0.000120	0.029160
C65	C	0.498242	0.333453	0.362493
C66	C	0.831575	0.666786	0.695827
C67	C	0.146608	0.000105	0.167090
C68	C	0.479942	0.333438	0.500423
C69	C	0.813275	0.666772	0.833757
C70	C	0.225550	0.000100	0.168353
C71	C	0.558883	0.333434	0.501686
C72	C	0.892217	0.666767	0.835020
C73	C	0.274170	0.000112	0.100015
C74	C	0.607504	0.333445	0.433348
C75	C	0.940837	0.666778	0.766681
C76	C	0.359769	0.000102	0.101384
C77	C	0.693103	0.333435	0.434718
C78	C	1.026436	0.666768	0.768051
C79	C	0.427995	0.000093	0.102481
C80	C	0.761328	0.333427	0.435815
C81	C	1.094661	0.666760	0.769148
C82	C	1.032268	0.000116	0.096156
C83	C	1.365601	0.333449	0.429489
C84	C	1.698934	0.666783	0.762822
C85	C	1.116286	0.000121	0.097494
C86	C	1.449619	0.333454	0.430828
C87	C	1.782953	0.666787	0.764161
N88	N	0.893905	-0.195565	0.101941
N89	N	1.227238	0.137768	0.435274
N90	N	1.560571	0.471101	0.768607
C91	C	0.945429	0.239040	0.050397
C92	C	1.278762	0.572374	0.383730
C93	C	1.612095	0.905707	0.717064
C94	C	0.945432	0.325588	0.050396
C95	C	1.278766	0.658921	0.383729
C96	C	1.612099	0.992254	0.717063
C97	C	0.893875	0.368859	0.101927
C98	C	1.227208	0.702193	0.435261
C99	C	1.560542	1.035526	0.768594
C100	C	0.842305	0.325579	0.153457
C101	C	1.175639	0.658913	0.486791
C102	C	1.508972	0.992246	0.820124
C103	C	0.842299	0.239034	0.153454
C104	C	1.175632	0.572367	0.486787
C105	C	1.508965	0.905701	0.820121
C106	C	0.842331	0.674608	0.153472
C107	C	1.175665	1.007941	0.486805
C108	C	1.508998	1.341274	0.820138
C109	C	0.842344	0.761159	0.153473
C110	C	1.175677	1.094493	0.486806
C111	C	1.509010	1.427826	0.820139
C112	C	0.945465	0.761161	0.050414
C113	C	1.278799	1.094495	0.383747
C114	C	1.612132	1.427828	0.717080
C115	C	0.945458	0.674616	0.050410
C116	C	1.278792	1.007949	0.383744
C117	C	1.612125	1.341283	0.717077
C118	C	0.893886	0.631344	0.101937
C119	C	1.227220	0.964677	0.435271
C120	C	1.560553	1.298010	0.768604
C121	C	0.893882	0.537499	0.101937
C122	C	1.227215	0.870833	0.435270
C123	C	1.560548	1.204166	0.768603
C124	C	0.893883	0.462702	0.101932
C125	C	1.227216	0.796035	0.435265
C126	C	1.560549	1.129369	0.768599
C127	C	0.966656	0.000119	-0.169090
C128	C	1.299990	0.333452	0.164244
C129	C	1.633323	0.666785	0.497577
C130	C	0.965394	0.000111	-0.248033
C131	C	1.298727	0.333444	0.085300
C132	C	1.632061	0.666778	0.418634
C133	C	0.895798	0.000100	-0.278354
C134	C	1.229131	0.333433	0.054980
C135	C	1.562464	0.666767	0.388313
C136	C	0.827459	0.000088	-0.229727
C137	C	1.160792	0.333421	0.103607
C138	C	1.494126	0.666754	0.436940
C139	C	0.828722	0.000089	-0.150785
C140	C	1.162055	0.333423	0.182549
C141	C	1.495389	0.666756	0.515882
C142	C	0.822364	0.000080	-0.548090
C143	C	1.155697	0.333414	-0.214756
C144	C	1.489030	0.666747	0.118577
C145	C	0.821106	0.000081	-0.627038
C146	C	1.154439	0.333415	-0.293704
C147	C	1.487773	0.666748	0.039629
C148	C	0.959036	0.000102	-0.645338
C149	C	1.292369	0.333436	-0.312004
C150	C	1.625703	0.666769	0.021329
C151	C	0.960299	0.000104	-0.566396
C152	C	1.293632	0.333437	-0.233063
C153	C	1.626966	0.666770	0.100271
C154	C	0.891961	0.000087	-0.517776
C155	C	1.225294	0.333421	-0.184442
C156	C	1.558627	0.666754	0.148891
C157	C	0.893330	0.000094	-0.432177
C158	C	1.226664	0.333427	-0.098843
C159	C	1.559997	0.666760	0.234490
C160	C	0.894427	0.000099	-0.363951
C161	C	1.227761	0.333433	-0.030618
C162	C	1.561094	0.666766	0.302715
C163	C	0.888102	0.000091	0.240322
C164	C	1.221435	0.333424	0.573655
C165	C	1.554768	0.666757	0.906989
C166	C	0.889440	0.000085	0.324340
C167	C	1.222773	0.333418	0.657673
C168	C	1.556107	0.666752	0.991007
H169	H	0.647537	0.000060	0.231384
H170	H	0.980870	0.333394	0.564717
H171	H	1.314204	0.666727	0.898051
H172	H	0.764429	0.000074	-0.651721
H173	H	1.097762	0.333407	-0.318388
H174	H	1.431096	0.666741	0.014946
F175	F	1.000308	0.192996	-0.004447
F176	F	1.333641	0.526329	0.328886
F177	F	1.666974	0.859662	0.662219
F178	F	0.755992	0.000077	-0.099039
F179	F	1.089326	0.333410	0.234295
F180	F	1.422659	0.666743	0.567628
F181	F	0.257815	0.000085	0.242427
F182	F	0.591148	0.333418	0.575760
F183	F	0.924482	0.666752	0.909093
F184	F	1.031768	0.000117	-0.697089
F185	F	1.365102	0.333450	-0.363756
F186	F	1.698435	0.666784	-0.030423
F187	F	0.492170	0.000071	0.246178
F188	F	0.825503	0.333404	0.579512
F189	F	1.158837	0.666737	0.912845
H190	H	0.800341	0.639382	0.195428
H191	H	1.133674	0.972715	0.528761
H192	H	1.467008	1.306049	0.862095
F193	F	1.000335	0.628566	-0.004433
F194	F	1.333668	0.961900	0.328900
F195	F	1.667001	1.295233	0.662234
F196	F	0.529948	0.000112	-0.038557
F197	F	0.863281	0.333445	0.294776
F198	F	1.196614	0.666779	0.628110
F199	F	0.749632	0.000061	-0.496354
F200	F	1.082965	0.333394	-0.163021
F201	F	1.416299	0.666727	0.170312
H202	H	0.800323	0.360816	0.195413
H203	H	1.133656	0.694150	0.528746
H204	H	1.466989	1.027483	0.862079
H205	H	0.800309	0.203801	0.195412
H206	H	1.133642	0.537134	0.528746
H207	H	1.466975	0.870468	0.862079
F208	F	1.034373	0.000115	-0.534131
F209	F	1.367706	0.333448	-0.200798
F210	F	1.701039	0.666781	0.132536
H211	H	0.770792	0.000073	-0.254420
H212	H	1.104126	0.333407	0.078913
H213	H	1.437459	0.666740	0.412247
F214	F	1.040732	0.000138	-0.136828
F215	F	1.374065	0.333472	0.196506
F216	F	1.707398	0.666805	0.529839
F217	F	0.132641	0.000130	-0.044918
F218	F	0.465975	0.333463	0.288416
F219	F	0.799308	0.666797	0.621749
F220	F	1.038124	0.000123	-0.299776
F221	F	1.371457	0.333456	0.033557
F222	F	1.704791	0.666790	0.366891
H223	H	0.107012	0.000100	0.222734
H224	H	0.440345	0.333433	0.556067
H225	H	0.773678	0.666767	0.889401
H226	H	0.680748	0.000095	-0.018868
H227	H	1.014082	0.333428	0.314465
H228	H	1.347415	0.666761	0.647799
F229	F	0.295592	0.000129	-0.042314
F230	F	0.628925	0.333463	0.291019
F231	F	0.962258	0.666796	0.624353
H232	H	0.987456	0.796403	0.008455
H233	H	1.320789	1.129736	0.341788
H234	H	1.654122	1.463070	0.675122
F235	F	1.000312	0.371643	-0.004446
F236	F	1.333645	0.704976	0.328887
F237	F	1.666978	1.038310	0.662221
F238	F	0.787466	0.807211	0.208321
F239	F	1.120799	1.140544	0.541654
F240	F	1.454132	1.473877	0.874988
