data_functionalizedCrystal
_audit_creation_method	'MofGen! by Chris Wilmer'
_symmetry_space_group_name_H-M	'P1'
_symmetry_Int_Tables_number	1
_symmetry_cell_setting	triclinic
loop_
_symmetry_equiv_pos_as_xyz
  x,y,z
_cell_length_a	12.759401
_cell_length_b	16.959453
_cell_length_c	12.759393
_cell_angle_alpha	89.964958
_cell_angle_beta	89.980316
_cell_angle_gamma	90.019102
loop_
_atom_site_label
_atom_site_type_symbol
_atom_site_fract_x
_atom_site_fract_y
_atom_site_fract_z
Zn1	Zn	1.606217	-0.314654	-0.593989
Zn2	Zn	1.606095	-0.446855	-0.418299
Zn3	Zn	1.430519	-0.314693	-0.418325
Zn4	Zn	1.430491	-0.446792	-0.593937
O5	O	1.518330	-0.380748	-0.506137
O6	O	1.753222	-0.332201	-0.570695
O7	O	1.582765	-0.429366	-0.271281
O8	O	1.453888	-0.204077	-0.441660
O9	O	1.753132	-0.429329	-0.441615
O10	O	1.582973	-0.204048	-0.570720
O11	O	1.453770	-0.332267	-0.271300
O12	O	1.283494	-0.332206	-0.441609
O13	O	1.453841	-0.429221	-0.740965
O14	O	1.283474	-0.429259	-0.570630
O15	O	1.582946	-0.332139	-0.741003
O16	O	1.582738	-0.557458	-0.441564
O17	O	1.453723	-0.557411	-0.570605
C18	C	1.245363	-0.380730	-0.506117
C19	C	1.128586	-0.380741	-0.506134
C20	C	1.073704	-0.330139	-0.439076
C21	C	0.963980	-0.330158	-0.439090
C22	C	0.964030	-0.431383	-0.573227
C23	C	1.073752	-0.431368	-0.573208
C24	C	1.128538	-0.279513	-0.372002
C25	C	1.073656	-0.228906	-0.304940
C26	C	0.963932	-0.228925	-0.304953
C27	C	0.909090	-0.279551	-0.372029
C28	C	1.518243	-0.586115	-0.506099
C29	C	1.518301	-0.673971	-0.506118
C30	C	1.585631	-1.045373	-0.573466
C31	C	1.451323	-1.045520	-0.438965
C32	C	1.451284	-0.962974	-0.438941
C33	C	1.518419	-0.921624	-0.506181
C34	C	1.585592	-0.962820	-0.573446
C35	C	1.384105	-0.921772	-0.371685
C36	C	1.384063	-0.839221	-0.371659
C37	C	1.451203	-0.797870	-0.438895
C38	C	1.518380	-0.839071	-0.506161
C39	C	1.585514	-0.797720	-0.573402
C40	C	1.652696	-0.838920	-0.640664
C41	C	1.652732	-0.921468	-0.640682
C42	C	1.451167	-0.715321	-0.438877
C43	C	1.585475	-0.715167	-0.573382
C44	C	1.792364	-0.380767	-0.506158
C45	C	1.909140	-0.380775	-0.506167
C46	C	1.518404	-0.380669	-0.780171
C47	C	1.518435	-0.380635	-0.896948
C48	C	1.518447	-0.174580	-0.506199
C49	C	1.518497	-0.086723	-0.506225
C50	C	1.585669	-0.330079	-0.951831
C51	C	1.585694	-0.330051	-1.061556
C52	C	1.451248	-0.431139	-1.061502
C53	C	1.451219	-0.431163	-0.951780
C54	C	1.652886	-0.279551	-0.896999
C55	C	1.720127	-0.228992	-0.951883
C56	C	1.720152	-0.228963	-1.061607
C57	C	1.652936	-0.279494	-1.116447
C58	C	1.518318	-0.380771	-0.233170
C59	C	1.518490	-0.380582	-0.116394
H60	H	1.640148	-0.681505	-0.628134
H61	H	1.118439	-0.472571	-0.627813
O62	O	1.378763	-0.485640	-1.120651
H63	H	1.296308	-0.472075	-1.099599
H64	H	1.640332	-1.078921	-0.628226
O65	O	1.246883	-0.279500	-0.371978
H66	H	1.275838	-0.219896	-0.393347
O67	O	1.652948	-0.279463	-1.234794
H68	H	1.732184	-0.295443	-1.263734
O69	O	1.792653	-0.174426	-1.120812
H70	H	1.846089	-0.209792	-1.170806
O71	O	0.904729	-0.174359	-0.232613
H72	H	0.854756	-0.134200	-0.279734
O73	O	1.378703	-0.485692	-0.892578
H74	H	1.325256	-0.450314	-0.842610
O75	O	1.132796	-0.174305	-0.232595
H76	H	1.218314	-0.182786	-0.243856
O77	O	1.311720	-0.966378	-0.299155
H78	H	1.258271	-1.004002	-0.346132
H79	H	1.707353	-0.805243	-0.695416
O80	O	1.725181	-0.965908	-0.713225
H81	H	1.771867	-0.923289	-0.759972
O82	O	0.790744	-0.279574	-0.372048
H83	H	0.761790	-0.235880	-0.314152
H84	H	0.919370	-0.472599	-0.627839
H85	H	1.396662	-1.079192	-0.384226
H86	H	1.329360	-0.805682	-0.316891
O87	O	1.378721	-0.670886	-0.366333
H88	H	1.296262	-0.686763	-0.384279
O89	O	1.652852	-0.279580	-0.778654
H90	H	1.710880	-0.235948	-0.749744
O91	O	1.792625	-0.174495	-0.892744
H92	H	1.781323	-0.183013	-0.807226
