data_functionalizedCrystal
_audit_creation_method	'MofGen! by Chris Wilmer'
_symmetry_space_group_name_H-M	'P1'
_symmetry_Int_Tables_number	1
_symmetry_cell_setting	triclinic
loop_
_symmetry_equiv_pos_as_xyz
  x,y,z
_cell_length_a	8.597366
_cell_length_b	14.519709
_cell_length_c	12.996460
_cell_angle_alpha	89.998766
_cell_angle_beta	97.695693
_cell_angle_gamma	84.511450
loop_
_atom_site_label
_atom_site_type_symbol
_atom_site_fract_x
_atom_site_fract_y
_atom_site_fract_z
O1	O	2.082775	0.137647	0.099081
O2	O	2.582775	0.637647	0.599081
O3	O	1.625883	0.148207	0.058572
O4	O	2.125883	0.648207	0.558572
O5	O	1.866443	0.008786	0.079910
O6	O	2.366443	0.508786	0.579910
O7	O	1.842215	0.277068	0.077743
O8	O	2.342215	0.777068	0.577743
O9	O	1.866412	0.008794	0.251041
O10	O	2.366412	0.508794	0.751041
O11	O	1.625852	0.148215	0.229704
O12	O	2.125852	0.648215	0.729704
O13	O	2.082744	0.137655	0.270212
O14	O	2.582744	0.637655	0.770212
Cu15	Cu	1.854295	0.142936	0.265583
Cu16	Cu	2.354295	0.642936	0.765583
Cu17	Cu	1.854332	0.142926	0.063201
Cu18	Cu	2.354332	0.642926	0.563201
O19	O	1.842184	0.277076	0.248874
O20	O	2.342184	0.777076	0.748874
C21	C	1.567394	0.147077	0.138954
C22	C	2.067394	0.647077	0.638954
C23	C	1.393162	0.143686	0.123507
C24	C	1.893162	0.643686	0.623507
C25	C	1.865298	-0.025579	0.165376
C26	C	2.365298	0.474421	0.665376
C27	C	1.861915	-0.127987	0.165076
C28	C	2.361915	0.372013	0.665076
C29	C	1.849458	-0.502983	0.163945
C30	C	2.349458	-0.002983	0.663945
C31	C	1.852917	-0.398648	0.164259
C32	C	2.352917	0.101352	0.664259
C33	C	1.855686	-0.315489	0.164512
C34	C	2.355686	0.184511	0.664512
C35	C	1.859146	-0.211146	0.164824
C36	C	2.359146	0.288854	0.664824
C37	C	2.141233	0.138785	0.189828
C38	C	2.641233	0.638785	0.689828
C39	C	2.315465	0.142176	0.205269
C40	C	2.815465	0.642176	0.705269
C41	C	1.843329	0.311441	0.163407
C42	C	2.343329	0.811441	0.663407
C43	C	1.846712	0.413849	0.163699
C44	C	2.346712	0.913849	0.663699
N45	N	1.854281	0.142942	0.407929
N46	N	2.354281	0.642942	0.907929
N47	N	1.854358	0.142913	-0.079144
N48	N	2.354358	0.642913	0.420856
C49	C	1.854288	0.142944	0.501036
C50	C	2.354288	0.642944	1.001036
C51	C	1.854302	0.142938	0.617842
C52	C	2.354302	0.642938	1.117842
C53	C	1.854322	0.142928	0.710942
C54	C	2.354322	0.642928	1.210942
C55	C	1.854339	0.142923	0.827756
C56	C	2.354339	0.642923	1.327756
H57	H	1.326392	0.142378	0.041683
H58	H	1.826392	0.642378	0.541683
H59	H	1.382244	0.143477	0.287098
H60	H	1.882244	0.643477	0.787098
