data_functionalizedCrystal
_audit_creation_method	'MofGen! by Chris Wilmer'
_symmetry_space_group_name_H-M	'P1'
_symmetry_Int_Tables_number	1
_symmetry_cell_setting	triclinic
loop_
_symmetry_equiv_pos_as_xyz
  x,y,z
_cell_length_a	22.863218
_cell_length_b	22.862586
_cell_length_c	22.858745
_cell_angle_alpha	60.006856
_cell_angle_beta	60.013818
_cell_angle_gamma	59.991795
loop_
_atom_site_label
_atom_site_type_symbol
_atom_site_fract_x
_atom_site_fract_y
_atom_site_fract_z
O1	O	0.081006	-0.854581	0.714630
O2	O	0.030492	-0.665350	0.575795
O3	O	0.150314	-0.785089	0.575706
O4	O	-0.038816	-0.734841	0.714718
O5	O	0.190066	-0.745348	0.615369
O6	O	0.070244	-0.625609	0.615458
O7	O	0.120758	-0.814840	0.754293
Zn8	Zn	0.101812	-0.713914	0.691173
Zn9	Zn	0.049438	-0.766275	0.638915
O10	O	0.000936	-0.695100	0.754381
N11	N	0.137558	-0.678184	0.726840
N12	N	0.013698	-0.802011	0.603247
C13	C	0.187224	-0.518558	0.776483
C14	C	0.187235	-0.628552	0.776467
C15	C	0.214753	-0.601061	0.803961
C16	C	0.334724	-0.580392	0.740801
C17	C	0.409718	-0.605392	0.715784
C18	C	0.409746	-0.726732	0.762051
C19	C	0.334754	-0.701730	0.787070
C20	C	0.205297	-0.481049	0.702756
C21	C	0.180267	-0.406048	0.677779
C22	C	0.119099	-0.406071	0.800259
C23	C	0.144128	-0.481071	0.825236
C24	C	0.113501	-0.610437	0.794610
C25	C	0.088492	-0.635428	0.769607
C26	C	0.210943	-0.696652	0.708337
C27	C	0.235956	-0.671660	0.733331
C28	C	0.113585	-0.610461	0.923980
C29	C	0.088635	-0.635476	0.998978
C30	C	0.211128	-0.696714	0.998930
C31	C	0.236077	-0.671700	0.923930
C32	C	0.187303	-0.628571	0.886457
C33	C	0.297246	-0.628559	0.776441
C34	C	-0.117796	-0.823430	0.581283
C35	C	-0.007671	-0.823587	0.471446
C36	C	-0.007879	-0.933535	0.581483
C37	C	-0.007861	-0.823583	0.581554
C38	C	-0.035301	-0.851035	0.553942
N39	N	0.446162	-0.678198	0.726752
O40	O	0.691234	-0.690164	0.550341
O41	O	0.691462	-0.829422	0.739388
O42	O	0.691373	-0.829102	0.619485
O43	O	0.691323	-0.690484	0.670244
O44	O	0.572233	-0.789455	0.659278
O45	O	0.572322	-0.789775	0.779181
O46	O	0.572094	-0.650517	0.590134
Zn47	Zn	0.553292	-0.713851	0.690976
Zn48	Zn	0.710264	-0.766088	0.638547
O49	O	0.572183	-0.650837	0.710037
N50	N	0.817394	-0.801741	0.602763
N51	N	0.137538	-0.369628	0.726874
O52	O	-0.038795	-0.124419	0.714761
O53	O	0.150256	-0.124417	0.575522
O54	O	0.030331	-0.124432	0.575860
O55	O	0.081131	-0.124404	0.714423
O56	O	0.070086	-0.243584	0.615573
O57	O	0.190011	-0.243569	0.615236
O58	O	0.000960	-0.243571	0.754474
Zn59	Zn	0.101797	-0.262488	0.691160
Zn60	Zn	0.049419	-0.105500	0.638836
O61	O	0.120885	-0.243556	0.754137
N62	N	0.013669	0.001640	0.603123
N63	N	0.137749	-0.678230	1.035381
O64	O	0.125655	-0.854547	1.280566
O65	O	-0.013567	-0.665426	1.280590
O66	O	-0.013245	-0.785328	1.280537
O67	O	0.125333	-0.734644	1.280618
O68	O	0.026456	-0.745599	1.161392
O69	O	0.026134	-0.625697	1.161444
O70	O	0.165355	-0.814817	1.161420
Zn71	Zn	0.102048	-0.713949	1.142516
Zn72	Zn	0.049740	-0.766294	1.299495
O73	O	0.165033	-0.694915	1.161473
N74	N	0.014038	-0.802020	1.406629
C75	C	0.045634	-0.621635	0.576499
C76	C	0.194019	-0.769918	0.576389
C77	C	0.105616	-0.858555	0.753588
C78	C	-0.042769	-0.710272	0.753698
C79	C	0.631920	-0.828776	0.783102
C80	C	0.631811	-0.828380	0.634616
C81	C	0.631633	-0.651162	0.546422
C82	C	0.631745	-0.651559	0.694907
C83	C	0.193900	-0.183846	0.576155
C84	C	0.045437	-0.184012	0.576622
C85	C	-0.042734	-0.183994	0.753792
C86	C	0.105780	-0.183977	0.753375
C87	C	-0.012889	-0.621735	1.221020
C88	C	-0.012483	-0.770211	1.220931
C89	C	0.164678	-0.858508	1.220991
C90	C	0.164280	-0.710023	1.221052
H91	H	0.073862	-0.575336	0.893474
H92	H	0.034558	-0.184014	0.533090
C93	C	-0.071275	-0.784826	1.220829
C94	C	-0.099288	-0.845849	1.282641
C95	C	-0.158080	-0.860463	1.282538
C96	C	-0.188859	-0.814054	1.220623
C97	C	-0.160846	-0.753027	1.158806
C98	C	-0.102054	-0.738413	1.158909
H99	H	-0.076504	-0.880207	1.328479
H100	H	-0.178817	-0.905639	1.328300
H101	H	-0.232380	-0.824872	1.220547
H102	H	-0.183630	-0.718669	1.112969
H103	H	-0.081317	-0.693237	1.113148
C104	C	0.223730	-0.931883	1.220983
C105	C	0.210723	-1.000374	1.282834
C106	C	0.269775	-1.073749	1.282826
C107	C	0.341834	-1.078634	1.220968
C108	C	0.354844	-1.010141	1.159112
C109	C	0.295792	-0.936766	1.159120
H110	H	0.157378	-0.996760	1.328629
H111	H	0.260144	-1.124452	1.328616
H112	H	0.385548	-1.132951	1.220962
H113	H	0.408189	-1.013755	1.113316
H114	H	0.305423	-0.886063	1.113330
C115	C	0.223099	-0.695381	1.221073
C116	C	0.253935	-0.741766	1.282948
C117	C	0.312754	-0.727124	1.282969
C118	C	0.340738	-0.666099	1.221116
C119	C	0.309901	-0.619710	1.159237
C120	C	0.251082	-0.634352	1.159216
H121	H	0.233221	-0.786944	1.328739
H122	H	0.335581	-0.761464	1.328776
H123	H	0.384279	-0.655260	1.221131
H124	H	0.330616	-0.574532	1.113445
H125	H	0.228256	-0.600012	1.113408
C126	C	0.267093	-0.183394	0.516947
C127	C	0.313443	-0.245044	0.485807
C128	C	0.386635	-0.244592	0.426599
C129	C	0.413477	-0.182490	0.398531
C130	C	0.367127	-0.120835	0.429671
C131	C	0.293934	-0.121287	0.488879
H132	H	0.293573	-0.291020	0.506585
H133	H	0.420947	-0.290233	0.403547
H134	H	0.467659	-0.182155	0.354702
H135	H	0.386997	-0.074859	0.408894
H136	H	0.259623	-0.075646	0.511931
H137	H	0.631832	-0.871926	0.623751
H138	H	0.248339	-0.780632	0.532734
C139	C	0.120185	-0.931988	0.812498
C140	C	0.193620	-0.990903	0.797959
C141	C	0.208189	-1.064336	0.856868
C142	C	0.149323	-1.078855	0.930318
C143	C	0.075883	-1.019939	0.944860
C144	C	0.061314	-0.946506	0.885950
H145	H	0.237201	-0.980157	0.743584
H146	H	0.262555	-1.107950	0.846103
H147	H	0.160108	-1.133214	0.973926
H148	H	0.032302	-1.030685	0.999235
H149	H	0.006948	-0.902892	0.896716
H150	H	0.116656	-0.183968	0.796904
C151	C	-0.116153	-0.695810	0.812674
C152	C	-0.175132	-0.622400	0.798233
C153	C	-0.248516	-0.607938	0.857210
C154	C	-0.262921	-0.666885	0.930627
C155	C	-0.203941	-0.740299	0.945071
C156	C	-0.130557	-0.754762	0.886095
H157	H	-0.164469	-0.578760	0.743883
H158	H	-0.292177	-0.553591	0.846517
H159	H	-0.317245	-0.656179	0.974285
H160	H	-0.214604	-0.783940	0.999422
H161	H	-0.086896	-0.809108	0.896787
H162	H	0.631977	-0.872492	0.837399
C163	C	-0.116079	-0.183992	0.812849
C164	C	-0.175134	-0.184001	0.798548
C165	C	-0.248479	-0.183999	0.857606
C166	C	-0.262769	-0.183988	0.930965
C167	C	-0.203713	-0.183979	0.945269
C168	C	-0.130368	-0.183981	0.886211
H169	H	-0.164556	-0.184009	0.744241
H170	H	-0.292196	-0.184005	0.847016
H171	H	-0.317064	-0.183986	0.974683
H172	H	-0.214290	-0.183971	0.999576
H173	H	-0.086650	-0.183974	0.896801
C174	C	-0.071942	-0.548360	1.221028
C175	C	-0.057633	-0.489328	1.221060
C176	C	-0.116685	-0.415953	1.221068
C177	C	-0.190046	-0.401610	1.221044
C178	C	-0.204359	-0.460643	1.221012
C179	C	-0.145306	-0.534018	1.221004
H180	H	-0.003323	-0.499944	1.221078
H181	H	-0.106090	-0.372252	1.221092
H182	H	-0.233760	-0.347293	1.221050
H183	H	-0.258668	-0.450027	1.220994
H184	H	-0.155902	-0.577719	1.220980
H185	H	0.250848	-0.731818	1.029432
C186	C	0.007538	-0.615539	1.040246
C187	C	-0.046106	-0.568095	0.999023
C188	C	-0.127201	-0.548158	1.040293
C189	C	-0.154652	-0.575665	1.122786
C190	C	-0.101008	-0.623112	1.164014
C191	C	-0.019912	-0.643049	1.122744
H192	H	-0.025786	-0.547730	0.937953
H193	H	-0.166912	-0.513034	1.009773
H194	H	-0.214684	-0.560906	1.153337
H195	H	-0.121328	-0.643476	1.225085
H196	H	0.019799	-0.678172	1.153264
C197	C	0.631723	-0.592728	0.709575
C198	C	0.693539	-0.561859	0.663181
C199	C	0.693516	-0.503028	0.677850
C200	C	0.631678	-0.475065	0.738912
C201	C	0.569856	-0.505933	0.785310
C202	C	0.569879	-0.564765	0.770642
H203	H	0.739320	-0.582559	0.617975
H204	H	0.739281	-0.480177	0.643503
H205	H	0.631661	-0.431514	0.749771
H206	H	0.524075	-0.485233	0.830516
H207	H	0.524115	-0.587615	0.804989
H208	H	0.034845	-0.567275	0.532897
H209	H	0.296108	-0.686456	0.893383
C210	C	0.631537	-0.592093	0.473079
C211	C	0.693361	-0.605068	0.404558
C212	C	0.693266	-0.545999	0.331215
C213	C	0.631346	-0.473955	0.326393
C214	C	0.569518	-0.460977	0.394917
C215	C	0.569613	-0.520046	0.468260
H216	H	0.739202	-0.658402	0.408125
H217	H	0.739036	-0.555607	0.280489
H218	H	0.631276	-0.430229	0.272100
H219	H	0.523677	-0.407642	0.391350
H220	H	0.523843	-0.510438	0.518985
C221	C	0.007385	-0.615504	0.789551
C222	C	-0.026612	-0.674792	0.831286
C223	C	-0.107717	-0.654865	0.851224
C224	C	-0.154825	-0.575650	0.829427
C225	C	-0.120829	-0.516357	0.787690
C226	C	-0.039724	-0.536283	0.767751
H227	H	0.008261	-0.733437	0.847423
H228	H	-0.132883	-0.698759	0.882121
H229	H	-0.214864	-0.560899	0.844187
H230	H	-0.155702	-0.457712	0.771552
H231	H	-0.014558	-0.492390	0.736854
C232	C	0.264542	-0.744068	0.660889
C233	C	0.318532	-0.816408	0.689555
C234	C	0.372135	-0.863822	0.642101
C235	C	0.371748	-0.838895	0.565982
C236	C	0.317756	-0.766551	0.537312
C237	C	0.264153	-0.719137	0.584765
H238	H	0.318821	-0.834864	0.745906
H239	H	0.412103	-0.917376	0.663325
H240	H	0.411427	-0.873993	0.530854
H241	H	0.317467	-0.748095	0.480960
H242	H	0.224185	-0.665583	0.563542
H243	H	0.304191	-0.520811	0.732143
H244	H	0.295996	-0.686402	0.718551
C245	C	0.293524	-0.754717	0.826273
C246	C	0.242007	-0.762138	0.903838
C247	C	0.200777	-0.815125	0.943044
C248	C	0.211064	-0.860689	0.904685
C249	C	0.262583	-0.853269	0.827116
C250	C	0.303813	-0.800283	0.787910
H251	H	0.234390	-0.728407	0.932238
H252	H	0.162639	-0.820617	1.000466
H253	H	0.180543	-0.899913	0.933708
H254	H	0.270200	-0.887000	0.798717
H255	H	0.341951	-0.794790	0.730488
C256	C	0.451014	-0.807221	0.773734
C257	C	0.440754	-0.861759	0.850259
C258	C	0.482023	-0.942247	0.861943
C259	C	0.533551	-0.968197	0.797102
C260	C	0.543814	-0.913658	0.720572
C261	C	0.502545	-0.833170	0.708888
H262	H	0.402608	-0.842551	0.898263
H263	H	0.474425	-0.982620	0.918596
H264	H	0.564101	-1.027778	0.805751
H265	H	0.581960	-0.932866	0.672568
H266	H	0.510143	-0.792797	0.652235
C267	C	0.450945	-0.552405	0.676573
C268	C	0.440653	-0.506829	0.714923
C269	C	0.481881	-0.453840	0.675710
C270	C	0.533401	-0.446427	0.598148
C271	C	0.543695	-0.492004	0.559794
C272	C	0.502468	-0.544994	0.599007
H273	H	0.402512	-0.512315	0.772344
H274	H	0.474260	-0.420100	0.704103
H275	H	0.563920	-0.407201	0.569120
H276	H	0.581836	-0.486518	0.502373
H277	H	0.510089	-0.578733	0.570614
C278	C	0.252700	-0.522286	0.649131
C279	C	0.272571	-0.481024	0.568031
C280	C	0.319975	-0.522261	0.514403
C281	C	0.347510	-0.604758	0.541875
C282	C	0.327640	-0.646024	0.622979
C283	C	0.280235	-0.604788	0.676607
H284	H	0.252187	-0.419951	0.547691
H285	H	0.334684	-0.491712	0.454364
H286	H	0.382602	-0.635284	0.502176
H287	H	0.348023	-0.707098	0.643319
H288	H	0.265526	-0.635336	0.736646
C289	C	0.200145	-0.364781	0.596675
C290	C	0.279339	-0.375082	0.549576
C291	C	0.299219	-0.333815	0.468473
C292	C	0.239905	-0.282248	0.434469
C293	C	0.160706	-0.271944	0.481569
C294	C	0.140826	-0.313211	0.562672
H295	H	0.323252	-0.413257	0.574747
H296	H	0.357848	-0.341443	0.433607
H297	H	0.254622	-0.251700	0.374432
H298	H	0.116794	-0.233769	0.456398
H299	H	0.082197	-0.305583	0.597538
H300	H	0.073825	-0.575337	0.829731
H301	H	0.129402	-0.511613	0.885274
C302	C	0.071707	-0.364830	0.853884
C303	C	0.051846	-0.406088	0.934985
C304	C	0.004457	-0.364849	0.988611
C305	C	-0.023072	-0.282352	0.961136
C306	C	-0.003211	-0.241089	0.880031
C307	C	0.044179	-0.282328	0.826406
H308	H	0.072225	-0.467162	0.955327
H309	H	-0.010245	-0.395396	1.048650
H310	H	-0.058152	-0.251824	1.000833
H311	H	-0.023590	-0.180015	0.859689
H312	H	0.058881	-0.251781	0.766366
