data_functionalizedCrystal
_audit_creation_method	'MofGen! by Chris Wilmer'
_symmetry_space_group_name_H-M	'P1'
_symmetry_Int_Tables_number	1
_symmetry_cell_setting	triclinic
loop_
_symmetry_equiv_pos_as_xyz
  x,y,z
_cell_length_a	19.288864
_cell_length_b	19.288855
_cell_length_c	18.366186
_cell_angle_alpha	90.008830
_cell_angle_beta	90.022894
_cell_angle_gamma	83.134244
loop_
_atom_site_label
_atom_site_type_symbol
_atom_site_fract_x
_atom_site_fract_y
_atom_site_fract_z
O1	O	-0.921350	-0.086649	-0.060787
O2	O	-0.421350	0.413351	0.439213
O3	O	-0.719089	-0.098338	-0.060738
O4	O	-0.219089	0.401662	0.439262
O5	O	-0.826067	0.008637	-0.060754
O6	O	-0.326067	0.508637	0.439246
O7	O	-0.814371	-0.193624	-0.060771
O8	O	-0.314371	0.306376	0.439229
O9	O	-0.826049	0.008643	0.060345
O10	O	-0.326049	0.508643	0.560345
O11	O	-0.719071	-0.098333	0.060361
O12	O	-0.219071	0.401667	0.560361
O13	O	-0.921332	-0.086644	0.060312
O14	O	-0.421332	0.413356	0.560312
Zn15	Zn	-0.820198	-0.092487	0.079564
Zn16	Zn	-0.320198	0.407513	0.579564
Zn17	Zn	-0.820222	-0.092494	-0.079990
Zn18	Zn	-0.320222	0.407506	0.420010
O19	O	-0.814353	-0.193619	0.060329
O20	O	-0.314353	0.306381	0.560329
C21	C	-0.693203	-0.097959	-0.000182
C22	C	-0.193203	0.402041	0.499818
C23	C	-0.616100	-0.096830	-0.000163
C24	C	-0.116100	0.403170	0.499837
C25	C	-0.825683	0.034517	-0.000204
C26	C	-0.325683	0.534517	0.499796
C27	C	-0.824557	0.111620	-0.000201
C28	C	-0.324557	0.611620	0.499799
C29	C	-0.947217	-0.087023	-0.000246
C30	C	-0.447217	0.412977	0.499754
C31	C	-1.024321	-0.088152	-0.000269
C32	C	-0.524321	0.411848	0.499731
C33	C	-0.571401	-0.159598	-0.000179
C34	C	-0.071401	0.340402	0.499821
C35	C	-0.498954	-0.158538	-0.000187
C36	C	0.001046	0.341462	0.499813
C37	C	-0.471209	-0.094705	-0.000193
C38	C	0.028791	0.405295	0.499807
C39	C	-0.515917	-0.031929	-0.000173
C40	C	-0.015917	0.468071	0.499827
C41	C	-0.588363	-0.032991	-0.000157
C42	C	-0.088363	0.467009	0.499843
C43	C	-0.362955	-0.044528	-0.042640
C44	C	0.137045	0.455472	0.457360
C45	C	-0.290510	-0.043468	-0.042660
C46	C	0.209490	0.456532	0.457340
C47	C	-0.247763	-0.091426	-0.000237
C48	C	0.252237	0.408574	0.499763
C49	C	-0.277468	-0.140455	0.042196
C50	C	0.222532	0.359545	0.542196
C51	C	-0.349913	-0.141517	0.042211
C52	C	0.150087	0.358483	0.542211
C53	C	-0.392655	-0.093546	-0.000209
C54	C	0.107345	0.406454	0.499791
C55	C	-0.124509	-0.153048	-0.000261
C56	C	0.375491	0.346952	0.499739
C57	C	-0.052061	-0.151985	-0.000265
C58	C	0.447939	0.348015	0.499735
C59	C	-0.069026	-0.025374	-0.000257
C60	C	0.430974	0.474626	0.499743
C61	C	-0.141472	-0.026439	-0.000247
C62	C	0.358528	0.473561	0.499753
C63	C	-0.169209	-0.090278	-0.000252
C64	C	0.330791	0.409722	0.499748
C65	C	-0.824041	0.147828	-0.066212
C66	C	-0.324041	0.647828	0.433788
C67	C	-0.822973	0.220274	-0.066216
C68	C	-0.322973	0.720274	0.433784
C69	C	-0.822434	0.256512	-0.000206
C70	C	-0.322434	0.756512	0.499794
C71	C	-0.822946	0.220295	0.065813
C72	C	-0.322946	0.720295	0.565813
C73	C	-0.824007	0.147849	0.065816
C74	C	-0.324007	0.647849	0.565816
C75	C	-0.861429	0.376745	0.050353
C76	C	-0.361429	0.876745	0.550353
C77	C	-0.860372	0.449190	0.050347
C78	C	-0.360372	0.949190	0.550347
C79	C	-0.819158	0.479958	-0.000212
C80	C	-0.319158	0.979958	0.499788
C81	C	-0.779010	0.438273	-0.050778
C82	C	-0.279010	0.938273	0.449222
C83	C	-0.780071	0.365827	-0.050775
C84	C	-0.280071	0.865827	0.449225
C85	C	-0.821283	0.335067	-0.000202
C86	C	-0.321283	0.835067	0.499798
C87	C	-0.817483	0.594720	-0.066232
C88	C	-0.317483	1.094720	0.433768
C89	C	-0.816411	0.667167	-0.066234
C90	C	-0.316411	1.167167	0.433766
C91	C	-0.816391	0.667187	0.065797
C92	C	-0.316391	1.167187	0.565797
C93	C	-0.817457	0.594740	0.065797
C94	C	-0.317457	1.094740	0.565797
C95	C	-0.818006	0.558512	-0.000220
C96	C	-0.318006	1.058512	0.499780
C97	C	-0.814739	0.780502	-0.000222
C98	C	-0.314739	1.280502	0.499778
C99	C	-0.815871	0.703399	-0.000223
C100	C	-0.315871	1.203399	0.499777
N101	N	-0.820187	-0.092482	0.188455
N102	N	-0.320187	0.407518	0.688455
N103	N	-0.820239	-0.092494	-0.188881
N104	N	-0.320239	0.407506	0.311119
C105	C	-0.867572	-0.045137	0.226548
C106	C	-0.367572	0.454863	0.726548
C107	C	-0.867577	-0.045134	0.302776
C108	C	-0.367577	0.454866	0.802776
C109	C	-0.820202	-0.092488	0.340908
C110	C	-0.320202	0.407512	0.840908
C111	C	-0.772808	-0.139837	0.302806
C112	C	-0.272808	0.360163	0.802806
C113	C	-0.772800	-0.139834	0.226579
C114	C	-0.272800	0.360166	0.726579
C115	C	-0.810902	-0.155776	0.461664
C116	C	-0.310902	0.344224	0.961664
C117	C	-0.810915	-0.155780	0.537889
C118	C	-0.310915	0.344220	1.037889
C119	C	-0.820222	-0.092497	0.576015
C120	C	-0.320222	0.407503	1.076015
C121	C	-0.829532	-0.029207	0.537907
C122	C	-0.329532	0.470793	1.037907
C123	C	-0.829524	-0.029204	0.461681
C124	C	-0.329524	0.470796	0.961681
C125	C	-0.820205	-0.092496	0.423563
C126	C	-0.320205	0.407504	0.923563
C127	C	-0.867615	-0.045144	0.696763
C128	C	-0.367615	0.454856	1.196763
C129	C	-0.867615	-0.045140	0.772993
C130	C	-0.367615	0.454860	1.272993
C131	C	-0.772849	-0.139849	0.773021
C132	C	-0.272849	0.360151	1.273021
C133	C	-0.772846	-0.139847	0.696793
C134	C	-0.272846	0.360153	1.196793
C135	C	-0.820233	-0.092495	0.658669
C136	C	-0.320233	0.407505	1.158669
H137	H	-0.593980	-0.211581	-0.000185
H138	H	-0.093980	0.288419	0.499815
H139	H	-0.817883	0.565260	0.119551
H140	H	-0.317883	1.065260	0.619551
H141	H	-0.745450	0.463321	-0.091948
H142	H	-0.245450	0.963321	0.408052
C143	C	-0.824638	0.107980	-0.138833
C144	C	-0.324638	0.607980	0.361167
N145	N	-0.825087	0.077965	-0.193531
N146	N	-0.325087	0.577965	0.306469
C147	C	-0.190643	0.042612	-0.000237
C148	C	0.309357	0.542612	0.499763
N149	N	-0.227678	0.094624	-0.000229
N150	N	0.272322	0.594624	0.499771
H151	H	-0.817926	0.565220	-0.119987
H152	H	-0.317926	1.065220	0.380013
C153	C	-0.822352	0.260157	0.138425
C154	C	-0.322352	0.760157	0.638425
N155	N	-0.821902	0.290181	0.193118
N156	N	-0.321902	0.790181	0.693118
H157	H	-0.266331	-0.003548	-0.077215
H158	H	0.233669	0.496452	0.422785
H159	H	-0.734234	-0.178393	0.333856
H160	H	-0.234234	0.321607	0.833856
C161	C	-0.904533	0.495037	0.105973
C162	C	-0.404533	0.995037	0.605973
N163	N	-0.937795	0.529567	0.147873
N164	N	-0.437795	1.029567	0.647873
H165	H	-0.906199	-0.006582	0.804009
H166	H	-0.406199	0.493418	1.304009
C167	C	-0.720768	-0.191982	0.654889
C168	C	-0.220768	0.308018	1.154889
N169	N	-0.681555	-0.231267	0.623327
N170	N	-0.181555	0.268733	1.123327
H171	H	-0.815987	0.696645	-0.119991
H172	H	-0.315987	1.196645	0.380009
H173	H	-0.734212	-0.178389	0.195563
H174	H	-0.234212	0.321611	0.695563
C175	C	-0.155022	-0.223271	-0.000258
C176	C	0.344978	0.276729	0.499742
N177	N	-0.178003	-0.276164	-0.000254
N178	N	0.321997	0.223836	0.499746
C179	C	-0.822401	0.260110	-0.138836
C180	C	-0.322401	0.760110	0.361164
N181	N	-0.821970	0.290113	-0.193534
N182	N	-0.321970	0.790113	0.306466
C183	C	-0.449777	-0.227590	-0.000214
C184	C	0.050223	0.272410	0.499786
N185	N	-0.412738	-0.279601	-0.000238
N186	N	0.087262	0.220399	0.499762
C187	C	-0.735903	0.319975	-0.106391
C188	C	-0.235903	0.819975	0.393609
N189	N	-0.702632	0.285440	-0.148279
N190	N	-0.202632	0.785440	0.351721
C191	C	-0.815799	0.707043	0.138410
C192	C	-0.315799	1.207043	0.638410
N193	N	-0.815352	0.737067	0.193103
N194	N	-0.315352	1.237067	0.693103
C195	C	-0.800667	-0.225399	0.579801
C196	C	-0.300667	0.274601	1.079801
N197	N	-0.792944	-0.277838	0.611368
N198	N	-0.292944	0.222162	1.111368
C199	C	-0.906774	0.342910	0.105973
C200	C	-0.406774	0.842910	0.605973
N201	N	-0.940927	0.317426	0.147864
N202	N	-0.440927	0.817426	0.647864
H203	H	-0.015667	-0.203100	-0.000274
H204	H	0.484333	0.296900	0.499726
C205	C	-0.824579	0.108020	0.138437
C206	C	-0.324579	0.608020	0.638437
N207	N	-0.825012	0.078020	0.193136
N208	N	-0.325012	0.578020	0.693136
C209	C	-0.382587	-0.195442	0.088895
C210	C	0.117413	0.304558	0.588895
N211	N	-0.407197	-0.236056	0.124061
N212	N	0.092803	0.263944	0.624061
H213	H	-0.803311	-0.207312	0.430629
H214	H	-0.303311	0.292688	0.930629
C215	C	-0.919693	0.006959	0.184616
C216	C	-0.419693	0.506959	0.684616
N217	N	-0.958948	0.046199	0.153032
N218	N	-0.458948	0.546199	0.653032
C219	C	-0.919714	0.006945	0.344687
C220	C	-0.419714	0.506945	0.844687
N221	N	-0.958986	0.046168	0.376252
N222	N	-0.458986	0.546168	0.876252
H223	H	-0.242664	-0.179506	0.076742
H224	H	0.257336	0.320494	0.576742
H225	H	-0.046436	0.026600	-0.000308
H226	H	0.453564	0.526600	0.499692
H227	H	-0.397755	-0.005473	-0.077190
H228	H	0.102245	0.494527	0.422810
H229	H	-0.493322	0.020044	-0.000188
H230	H	0.006678	0.520044	0.499812
H231	H	-0.906198	-0.006585	0.665721
H232	H	-0.406198	0.493415	1.165721
H233	H	-0.837103	0.022329	0.430656
H234	H	-0.337103	0.522329	0.930656
C235	C	-0.637533	0.036062	-0.000144
C236	C	-0.137533	0.536062	0.499856
N237	N	-0.674570	0.088074	-0.000137
N238	N	-0.174570	0.588074	0.499863
H239	H	-0.837111	0.022324	0.568947
H240	H	-0.337111	0.522324	1.068947
H241	H	-0.734273	-0.178403	0.804067
H242	H	-0.234273	0.321597	1.304067
