data_functionalizedCrystal
_audit_creation_method	'MofGen! by Chris Wilmer'
_symmetry_space_group_name_H-M	'P1'
_symmetry_Int_Tables_number	1
_symmetry_cell_setting	triclinic
loop_
_symmetry_equiv_pos_as_xyz
  x,y,z
_cell_length_a	14.971486
_cell_length_b	19.188924
_cell_length_c	14.048226
_cell_angle_alpha	89.991497
_cell_angle_beta	89.998499
_cell_angle_gamma	83.378047
loop_
_atom_site_label
_atom_site_type_symbol
_atom_site_fract_x
_atom_site_fract_y
_atom_site_fract_z
O1	O	1.186463	0.090988	-0.079056
O2	O	1.686463	0.590988	0.420944
O3	O	0.926005	0.101884	-0.079082
O4	O	1.426005	0.601884	0.420918
O5	O	1.063754	-0.005196	-0.079057
O6	O	1.563754	0.494804	0.420943
O7	O	1.048715	0.198068	-0.079081
O8	O	1.548715	0.698068	0.420919
O9	O	1.063737	-0.005202	0.079264
O10	O	1.563737	0.494798	0.579264
O11	O	0.925989	0.101878	0.079239
O12	O	1.425989	0.601878	0.579239
O13	O	1.186447	0.090982	0.079266
O14	O	1.686447	0.590982	0.579266
Zn15	Zn	1.056215	0.096429	0.104389
Zn16	Zn	1.556215	0.596429	0.604389
Zn17	Zn	1.056237	0.096437	-0.104206
Zn18	Zn	1.556237	0.596437	0.395794
O19	O	1.048699	0.198062	0.079240
O20	O	1.548699	0.698062	0.579240
C21	C	0.892675	0.101394	0.000075
C22	C	1.392675	0.601394	0.500075
C23	C	0.793386	0.099933	0.000066
C24	C	1.293386	0.599933	0.500066
C25	C	0.735826	0.162840	0.000060
C26	C	1.235826	0.662840	0.500060
C27	C	0.642534	0.161464	0.000074
C28	C	1.142534	0.661464	0.500074
C29	C	0.606803	0.097180	0.000088
C30	C	1.106803	0.597180	0.500088
C31	C	0.664370	0.034269	0.000096
C32	C	1.164370	0.534269	0.500096
C33	C	0.757661	0.035646	0.000089
C34	C	1.257661	0.535646	0.500089
C35	C	0.469923	0.031403	0.000110
C36	C	0.969923	0.531403	0.500110
C37	C	0.376626	0.030026	0.000116
C38	C	0.876626	0.530026	0.500116
C39	C	0.354796	0.157221	0.000095
C40	C	0.854796	0.657221	0.500095
C41	C	0.448087	0.158598	0.000087
C42	C	0.948087	0.658598	0.500087
C43	C	0.505647	0.095686	0.000095
C44	C	1.005647	0.595686	0.500095
C45	C	1.063260	-0.031211	0.000105
C46	C	1.563260	0.468789	0.500105
C47	C	1.061801	-0.108721	0.000107
C48	C	1.561801	0.391279	0.500107
C49	C	1.061129	-0.145119	-0.086194
C50	C	1.561129	0.354881	0.413806
C51	C	1.059745	-0.217946	-0.086202
C52	C	1.559745	0.282054	0.413798
C53	C	1.059052	-0.254374	0.000097
C54	C	1.559052	0.245626	0.500097
C55	C	1.059719	-0.217967	0.086410
C56	C	1.559719	0.282033	0.586410
C57	C	1.061093	-0.145141	0.086415
C58	C	1.561093	0.354859	0.586415
N59	N	1.107787	-0.373883	0.064332
N60	N	1.607787	0.126117	0.564332
N61	N	1.106484	-0.443066	0.064322
N62	N	1.606484	0.056934	0.564322
C63	C	1.054909	-0.473797	0.000088
C64	C	1.554909	0.026203	0.500088
N65	N	1.004698	-0.432733	-0.064150
N66	N	1.504698	0.067267	0.435850
N67	N	1.006006	-0.363544	-0.064142
N68	N	1.506006	0.136456	0.435858
C69	C	1.057561	-0.333343	0.000101
C70	C	1.557561	0.166657	0.500101
C71	C	1.052736	-0.589162	-0.086228
C72	C	1.552736	-0.089162	0.413772
C73	C	1.051347	-0.661990	-0.086231
C74	C	1.551347	-0.161990	0.413769
C75	C	1.051329	-0.662011	0.086382
C76	C	1.551329	-0.162011	0.586382
C77	C	1.052709	-0.589183	0.086384
C78	C	1.552709	-0.089183	0.586384
C79	C	1.053417	-0.552764	0.000076
C80	C	1.553417	-0.052764	0.500076
C81	C	1.219777	0.091472	0.000106
C82	C	1.719777	0.591472	0.500106
C83	C	1.319067	0.092933	0.000110
C84	C	1.819067	0.592933	0.500110
C85	C	1.049193	0.224077	0.000077
C86	C	1.549193	0.724077	0.500077
C87	C	1.050652	0.301587	0.000068
C88	C	1.550652	0.801587	0.500068
N89	N	1.056207	0.096423	0.246750
N90	N	1.556207	0.596423	0.746750
N91	N	1.056252	0.096438	-0.246566
N92	N	1.556252	0.596438	0.253434
C93	C	1.117221	0.049027	0.296579
C94	C	1.617221	0.549027	0.796579
C95	C	1.117227	0.049027	0.396237
C96	C	1.617227	0.549027	0.896237
C97	C	1.056223	0.096426	0.446064
C98	C	1.556223	0.596426	0.946064
C99	C	0.995202	0.143823	0.396227
C100	C	1.495202	0.643823	0.896227
C101	C	0.995193	0.143820	0.296572
C102	C	1.495193	0.643820	0.796572
C103	C	0.995228	0.143828	0.603942
C104	C	1.495228	0.643828	1.103942
C105	C	0.995238	0.143833	0.703604
C106	C	1.495238	0.643833	1.203604
C107	C	1.117263	0.049036	0.703607
C108	C	1.617263	0.549036	1.203607
C109	C	1.117253	0.049032	0.603951
C110	C	1.617253	0.549032	1.103951
C111	C	1.056233	0.096431	0.554122
C112	C	1.556233	0.596431	1.054122
H113	H	0.516787	-0.019826	0.000117
H114	H	1.016787	0.480174	0.500117
O115	O	0.770382	0.225347	0.000087
O116	O	1.270382	0.725347	0.500087
C117	C	0.699568	0.280574	0.000063
C118	C	1.199568	0.780574	0.500063
H119	H	0.636271	0.260945	0.030044
H120	H	1.136271	0.760945	0.530044
H121	H	0.718888	0.325449	0.046020
H122	H	1.218888	0.825449	0.546020
H123	H	0.686285	0.299985	-0.075894
H124	H	1.186285	0.799985	0.424106
O125	O	0.586534	0.222527	-0.000068
O126	O	1.086534	0.722527	0.499932
C127	C	0.531930	0.225542	-0.082073
C128	C	1.031930	0.725542	0.417927
H129	H	0.527426	0.170119	-0.109391
H130	H	1.027426	0.670119	0.390609
H131	H	0.461710	0.251497	-0.063635
H132	H	0.961710	0.751497	0.436365
H133	H	0.562498	0.257450	-0.139503
H134	H	1.062498	0.757450	0.360497
O135	O	1.061593	-0.109733	0.170227
O136	O	1.561593	0.390267	0.670227
C137	C	0.984954	-0.059748	0.175371
C138	C	1.484954	0.440252	0.675371
H139	H	0.930412	-0.076204	0.126390
H140	H	1.430412	0.423796	0.626390
H141	H	0.958964	-0.056294	0.251699
H142	H	1.458964	0.443706	0.751699
H143	H	1.003513	-0.006326	0.152187
H144	H	1.503513	0.493674	0.652187
H145	H	0.945508	0.182413	0.256001
H146	H	1.445508	0.682413	0.756001
O147	O	1.059104	-0.253205	-0.170124
O148	O	1.559104	0.246795	0.329876
C149	C	1.059978	-0.205439	-0.246298
C150	C	1.559978	0.294561	0.253702
H151	H	1.089293	-0.156404	-0.221008
H152	H	1.589293	0.343596	0.278992
H153	H	1.102972	-0.230879	-0.306672
H154	H	1.602972	0.269121	0.193328
H155	H	0.988378	-0.190410	-0.272812
H156	H	1.488378	0.309590	0.227188
O157	O	0.298926	0.218355	-0.000075
O158	O	0.798926	0.718355	0.499925
C159	C	0.315092	0.257386	-0.082070
C160	C	0.815092	0.757386	0.417930
H161	H	0.347118	0.220552	-0.139377
H162	H	0.847118	0.720552	0.360623
H163	H	0.248788	0.285332	-0.109591
H164	H	0.748788	0.785332	0.390409
H165	H	0.362442	0.297837	-0.063547
H166	H	0.862442	0.797837	0.436453
O167	O	0.935849	0.189796	0.751971
O168	O	1.435849	0.689796	1.251971
C169	C	0.847358	0.178327	0.727623
C170	C	1.347358	0.678327	1.227623
H171	H	0.847158	0.122426	0.700231
H172	H	1.347158	0.622426	1.200231
H173	H	0.802451	0.186285	0.793171
H174	H	1.302451	0.686285	1.293171
H175	H	0.820909	0.216994	0.669781
H176	H	1.320909	0.716994	1.169781
H177	H	0.635271	-0.018072	0.000121
H178	H	1.135271	0.481928	0.500121
O179	O	0.935974	0.189961	0.444519
O180	O	1.435974	0.689961	0.944519
C181	C	0.950243	0.259097	0.420161
C182	C	1.450243	0.759097	0.920161
H183	H	0.984715	0.259053	0.347801
H184	H	1.484715	0.759053	0.847801
H185	H	0.882873	0.293391	0.416747
H186	H	1.382873	0.793391	0.916747
H187	H	0.994678	0.280752	0.476237
H188	H	1.494678	0.780752	0.976237
H189	H	0.477175	0.210943	0.000067
H190	H	0.977175	0.710943	0.500067
H191	H	0.347538	-0.022319	0.000128
H192	H	0.847538	0.477681	0.500128
H193	H	0.804526	-0.015579	0.000093
H194	H	1.304526	0.484421	0.500093
O195	O	1.176423	0.002824	0.555700
O196	O	1.676423	0.502824	1.055700
C197	C	1.162061	-0.066257	0.580245
C198	C	1.662061	0.433743	1.080245
H199	H	1.090419	-0.066595	0.607585
H200	H	1.590419	0.433405	1.107585
H201	H	1.172505	-0.101382	0.514810
H202	H	1.672505	0.398618	1.014810
H203	H	1.211643	-0.086656	0.638185
H204	H	1.711643	0.413344	1.138185
H205	H	1.050795	-0.691623	-0.156511
H206	H	1.550795	-0.191623	0.343489
O207	O	1.061592	-0.109679	-0.169999
O208	O	1.561592	0.390321	0.330001
C209	C	0.984873	-0.059770	-0.175120
C210	C	1.484873	0.440230	0.324880
H211	H	0.959340	-0.046227	-0.100166
H212	H	1.459340	0.453773	0.399834
H213	H	1.003155	-0.010322	-0.211736
H214	H	1.503155	0.489678	0.288264
H215	H	0.930089	-0.082403	-0.217598
H216	H	1.430089	0.417597	0.282402
H217	H	1.053264	-0.559549	0.156660
H218	H	1.553264	-0.059549	0.656660
H219	H	1.059152	-0.247632	0.156675
H220	H	1.559152	0.252368	0.656675
O221	O	1.176516	0.002916	0.248329
O222	O	1.676516	0.502916	0.748329
C223	C	1.230383	-0.038905	0.313685
C224	C	1.730383	0.461095	0.813685
H225	H	1.193722	-0.039737	0.384728
H226	H	1.693722	0.460263	0.884728
H227	H	1.244249	-0.094648	0.284907
H228	H	1.744249	0.405352	0.784907
H229	H	1.296736	-0.016148	0.324269
H230	H	1.796736	0.483852	0.824269
H231	H	1.166946	0.010442	0.744184
H232	H	1.666946	0.510442	1.244184
O233	O	1.050517	-0.697445	0.170159
O234	O	1.550517	-0.197445	0.670159
C235	C	0.972252	-0.731700	0.175312
C236	C	1.472252	-0.231700	0.675312
H237	H	0.946248	-0.739993	0.100372
H238	H	1.446248	-0.239993	0.600372
H239	H	0.988679	-0.784677	0.211854
H240	H	1.488679	-0.284677	0.711854
H241	H	0.918541	-0.698133	0.217876
H242	H	1.418541	-0.198133	0.717876
O243	O	1.053371	-0.553881	-0.170147
O244	O	1.553371	-0.053881	0.329853
C245	C	1.052494	-0.601629	-0.246324
C246	C	1.552494	-0.101629	0.253676
H247	H	1.023197	-0.650677	-0.221028
H248	H	1.523197	-0.150677	0.278972
H249	H	1.009482	-0.576179	-0.306686
H250	H	1.509482	-0.076179	0.193314
H251	H	1.124091	-0.616640	-0.272856
H252	H	1.624091	-0.116640	0.227144
H253	H	1.166909	0.010434	0.436807
H254	H	1.666909	0.510434	0.936807
H255	H	0.945536	0.182423	0.563374
H256	H	1.445536	0.682423	1.063374
