data_functionalizedCrystal
_audit_creation_method	'MofGen! by Chris Wilmer'
_symmetry_space_group_name_H-M	'P1'
_symmetry_Int_Tables_number	1
_symmetry_cell_setting	triclinic
loop_
_symmetry_equiv_pos_as_xyz
  x,y,z
_cell_length_a	23.532355
_cell_length_b	23.532357
_cell_length_c	15.500227
_cell_angle_alpha	92.804145
_cell_angle_beta	87.179784
_cell_angle_gamma	82.827896
loop_
_atom_site_label
_atom_site_type_symbol
_atom_site_fract_x
_atom_site_fract_y
_atom_site_fract_z
O1	O	0.757927	0.066340	-0.071836
O2	O	0.592059	0.076374	-0.071865
O3	O	0.680009	-0.011577	-0.071832
O4	O	0.669977	0.154291	-0.071869
O5	O	0.674672	-0.006261	0.072055
O6	O	0.586722	0.081690	0.072022
O7	O	0.752590	0.071657	0.072051
Cu8	Cu	0.669169	0.077159	0.085174
Cu9	Cu	0.675480	0.070872	-0.084988
O10	O	0.664640	0.159607	0.072018
C11	C	0.568174	0.078781	0.000075
C12	C	0.504956	0.078026	0.000065
C13	C	0.677089	-0.030135	0.000114
C14	C	0.676334	-0.093353	0.000122
C15	C	0.110032	0.076187	0.078535
C16	C	0.050633	0.075470	0.078538
O17	O	0.017440	0.077544	0.145241
N18	N	0.023834	0.072216	0.000106
C19	C	0.056438	0.069674	-0.078335
O20	O	0.028189	0.066840	-0.145047
C21	C	0.115837	0.070387	-0.078338
C22	C	0.142632	0.073647	0.000100
C23	C	0.136828	0.079446	0.156966
C24	C	0.196223	0.080164	0.156962
C25	C	0.228823	0.077624	0.078527
C26	C	0.202027	0.074365	0.000096
C27	C	0.148440	0.067841	-0.156778
C28	C	0.207843	0.068554	-0.156774
C29	C	0.234638	0.071814	-0.078336
C30	C	0.294022	0.072543	-0.078343
N31	N	0.320821	0.075797	0.000089
C32	C	0.288221	0.078337	0.078524
C33	C	-0.068304	0.068175	-0.078324
C34	C	-0.127702	0.067466	-0.078322
C35	C	-0.133503	0.073261	0.078552
C36	C	-0.074104	0.073974	0.078549
C37	C	-0.041505	0.071429	0.000109
C38	C	0.412956	0.079846	0.078510
C39	C	0.472356	0.080567	0.078500
C40	C	0.478152	0.074769	-0.078373
C41	C	0.418756	0.074051	-0.078363
C42	C	0.386160	0.076588	0.000086
O43	O	0.327251	0.070469	-0.145012
O44	O	0.316479	0.081163	0.145226
C45	C	0.674509	-0.488264	-0.078358
C46	C	0.673791	-0.547663	-0.078363
O47	O	0.675875	-0.580844	-0.145067
N48	N	0.670527	-0.574476	0.000068
C49	C	0.667973	-0.541886	0.078510
O50	O	0.665130	-0.570147	0.145222
C51	C	0.668686	-0.482487	0.078514
C52	C	0.671957	-0.455678	0.000078
C53	C	0.677778	-0.461454	-0.156788
C54	C	0.678496	-0.402059	-0.156783
C55	C	0.675945	-0.369473	-0.078347
C56	C	0.672675	-0.396283	0.000083
C57	C	0.666128	-0.449897	0.156955
C58	C	0.666841	-0.390495	0.156952
C59	C	0.670112	-0.363685	0.078516
C60	C	0.670841	-0.304302	0.078524
N61	N	0.674106	-0.277488	0.000093
C62	C	0.676658	-0.310074	-0.078343
C63	C	0.666475	-0.666628	0.078495
C64	C	0.665766	-0.726026	0.078492
C65	C	0.671583	-0.731799	-0.078381
C66	C	0.672296	-0.672400	-0.078377
C67	C	0.669740	-0.639815	0.000064
C68	C	0.678166	-0.185340	-0.078326
C69	C	0.678886	-0.125939	-0.078313
C70	C	0.673066	-0.120171	0.078560
C71	C	0.672349	-0.179567	0.078548
C72	C	0.674897	-0.212150	0.000098
O73	O	0.668757	-0.271084	0.145194
O74	O	0.679493	-0.281804	-0.145043
C75	C	0.776475	0.069249	0.000109
C76	C	0.839693	0.070004	0.000114
C77	C	0.667560	0.178165	0.000070
C78	C	0.668315	0.241383	0.000056
N79	N	0.664734	0.081580	0.204857
N80	N	0.679920	0.066445	-0.204672
C81	C	0.702014	0.044326	0.250148
C82	C	0.698665	0.047675	0.340720
C83	C	0.658038	0.088282	0.385999
C84	C	0.620754	0.125538	0.340702
C85	C	0.624100	0.122185	0.250132
C86	C	0.645982	0.100349	0.659461
C87	C	0.642639	0.103700	0.750038
C88	C	0.720550	0.025836	0.750049
C89	C	0.723896	0.022490	0.659477
C90	C	0.686609	0.059743	0.614188
C91	C	0.654615	0.091707	0.478578
C92	C	0.690030	0.056315	0.521611
H93	H	0.494169	0.083223	0.142375
O94	O	0.756741	-0.010436	0.793951
C95	C	0.748617	-0.067583	0.771857
H96	H	0.729096	-0.069828	0.706099
H97	H	0.791701	-0.095976	0.768764
H98	H	0.718484	-0.083157	0.822840
H99	H	0.615623	0.130684	0.622594
O100	O	0.662568	-0.751972	0.154763
C101	C	0.660486	-0.710469	0.223987
H102	H	0.643817	-0.666511	0.200985
H103	H	0.630590	-0.721825	0.278841
H104	H	0.705365	-0.709510	0.248111
H105	H	0.680238	-0.211861	-0.142207
O106	O	0.741422	0.004793	0.206226
C107	C	0.731669	-0.050707	0.228428
H108	H	0.685149	-0.049808	0.253320
H109	H	0.740592	-0.081545	0.168894
H110	H	0.761379	-0.065647	0.281020
H111	H	0.681158	-0.380236	-0.220654
H112	H	0.587672	0.158599	0.377574
O113	O	0.734804	0.011433	0.384749
C114	C	0.702582	-0.021601	0.437173
H115	H	0.658682	-0.023340	0.409892
H116	H	0.726051	-0.066953	0.438206
H117	H	0.696958	-0.001225	0.505810
H118	H	0.756977	-0.010575	0.622613
O119	O	0.392671	0.070816	-0.154502
C120	C	0.365249	0.020885	-0.159198
H121	H	0.356076	0.006846	-0.091095
H122	H	0.323193	0.030245	-0.192401
H123	H	0.394301	-0.014810	-0.197894
H124	H	0.664750	-0.363965	0.220830
H125	H	0.593742	0.152521	0.213257
O126	O	0.239560	0.066163	-0.232917
C127	C	0.267335	0.115743	-0.237640
H128	H	0.271467	0.134815	-0.169545
H129	H	0.311848	0.103926	-0.270838
H130	H	0.241151	0.148579	-0.276353
O131	O	0.603116	0.143158	0.793889
C132	C	0.570930	0.175328	0.734496
H133	H	0.572813	0.149594	0.669941
H134	H	0.524431	0.185213	0.760673
H135	H	0.589519	0.217189	0.724847
O136	O	0.729559	0.016897	0.477710
C137	C	0.785073	0.026677	0.499780
H138	H	0.782464	0.051052	0.565538
H139	H	0.813255	-0.016171	0.502859
H140	H	0.804389	0.053055	0.448790
O141	O	0.680186	-0.493032	-0.233042
C142	C	0.632794	-0.473539	-0.280761
H143	H	0.616033	-0.427346	-0.258446
H144	H	0.646580	-0.475654	-0.352510
H145	H	0.597447	-0.501853	-0.269914
H146	H	0.621537	0.124771	0.515451
O147	O	0.381225	0.082387	0.154659
C148	C	0.339959	0.131485	0.159357
H149	H	0.331325	0.145305	0.091254
H150	H	0.298482	0.121115	0.192570
H151	H	0.356701	0.167737	0.198045
O152	O	0.105094	0.081987	0.233107
C153	C	0.063830	0.131088	0.237808
H154	H	0.055196	0.144910	0.169706
H155	H	0.022352	0.120719	0.271021
H156	H	0.080575	0.167337	0.276498
O157	O	0.222161	0.083302	0.233234
C158	C	0.180639	0.085402	0.302453
H159	H	0.141616	0.066012	0.279452
H160	H	0.199544	0.059979	0.357318
H161	H	0.167182	0.131914	0.326563
H162	H	-0.052292	0.076629	0.142420
H163	H	-0.160056	0.075329	0.142418
H164	H	0.504705	0.072703	-0.142233
H165	H	-0.149515	0.064821	-0.142194
O166	O	0.662920	-0.475836	0.233227
C167	C	0.660831	-0.434327	0.302446
H168	H	0.644166	-0.390371	0.279433
H169	H	0.630929	-0.445680	0.357295
H170	H	0.705707	-0.433367	0.326580
O171	O	-0.036729	0.065734	-0.154604
C172	C	-0.073124	0.062696	-0.223821
H173	H	-0.118779	0.081067	-0.200817
H174	H	-0.057718	0.088533	-0.278686
H175	H	-0.072304	0.016033	-0.247931
H176	H	0.664394	-0.640100	0.142376
O177	O	0.681959	-0.099832	-0.154467
C178	C	0.633195	-0.058927	-0.159156
H179	H	0.614354	-0.045260	-0.091049
H180	H	0.645999	-0.019901	-0.192386
H181	H	0.599800	-0.078542	-0.197822
H182	H	0.674959	-0.650576	-0.142247
O183	O	0.122516	0.064641	-0.233050
C184	C	0.164037	0.062561	-0.302268
H185	H	0.207989	0.045895	-0.279252
H186	H	0.152695	0.032664	-0.357114
H187	H	0.165000	0.107440	-0.326409
H188	H	0.669691	-0.201397	0.142417
O189	O	0.673985	-0.763387	-0.154632
C190	C	0.626589	-0.743899	-0.202347
H191	H	0.609836	-0.697701	-0.180051
H192	H	0.640368	-0.746031	-0.274100
H193	H	0.591239	-0.772205	-0.191475
O194	O	0.670482	-0.088468	0.154722
C195	C	0.621396	-0.047187	0.159371
H196	H	0.588358	-0.062025	0.114851
H197	H	0.602264	-0.041683	0.228734
H198	H	0.633874	-0.004475	0.138287
