data_functionalizedCrystal
_audit_creation_method	'MofGen! by Chris Wilmer'
_symmetry_space_group_name_H-M	'P1'
_symmetry_Int_Tables_number	1
_symmetry_cell_setting	triclinic
loop_
_symmetry_equiv_pos_as_xyz
  x,y,z
_cell_length_a	25.639242
_cell_length_b	25.639239
_cell_length_c	25.639233
_cell_angle_alpha	89.981253
_cell_angle_beta	90.022166
_cell_angle_gamma	89.965787
loop_
_atom_site_label
_atom_site_type_symbol
_atom_site_fract_x
_atom_site_fract_y
_atom_site_fract_z
Zn1	Zn	0.799225	0.208277	0.295742
Zn2	Zn	0.799149	0.295696	0.208307
Zn3	Zn	0.711801	0.208269	0.208306
Zn4	Zn	0.711746	0.295676	0.295696
O5	O	0.755480	0.251979	0.252013
O6	O	0.872380	0.219884	0.284163
O7	O	0.787553	0.284103	0.135141
O8	O	0.723453	0.135105	0.219924
O9	O	0.872324	0.284111	0.219924
O10	O	0.787683	0.135111	0.284163
O11	O	0.723379	0.219871	0.135141
O12	O	0.638629	0.219853	0.219880
O13	O	0.723360	0.284078	0.368868
O14	O	0.638589	0.284070	0.284085
O15	O	0.787630	0.219866	0.368901
O16	O	0.787499	0.368858	0.219880
O17	O	0.723286	0.368844	0.284085
C18	C	0.619638	0.251959	0.251977
C19	C	0.561524	0.251963	0.251975
C20	C	0.755392	0.387822	0.251989
C21	C	0.755403	0.445936	0.251996
C22	C	0.201149	0.285473	0.285413
C23	C	0.146544	0.285477	0.285421
O24	O	0.118297	0.313943	0.313821
N25	N	0.119241	0.251994	0.252047
C26	C	0.146545	0.218502	0.218666
O27	O	0.118308	0.190022	0.190280
C28	C	0.201149	0.218496	0.218661
C29	C	0.228449	0.251985	0.252034
C30	C	0.228449	0.318959	0.318783
C31	C	0.283049	0.318956	0.318774
C32	C	0.310350	0.285468	0.285395
C33	C	0.283049	0.251983	0.252024
C34	C	0.228452	0.185002	0.185283
C35	C	0.283059	0.185000	0.185281
C36	C	0.310359	0.218488	0.218654
C37	C	0.364950	0.218492	0.218636
N38	N	0.392253	0.251974	0.252010
C39	C	0.364953	0.285463	0.285389
C40	C	0.031875	0.218515	0.218680
C41	C	-0.022728	0.218523	0.218683
C42	C	-0.022725	0.285497	0.285438
C43	C	0.031878	0.285492	0.285433
C44	C	0.059178	0.251998	0.252054
C45	C	0.479618	0.285455	0.285368
C46	C	0.534223	0.285451	0.285354
C47	C	0.534216	0.218475	0.218601
C48	C	0.479615	0.218481	0.218612
C49	C	0.452318	0.251972	0.252000
O50	O	0.393232	0.190038	0.190252
O51	O	0.393197	0.313933	0.313776
C52	C	0.755497	0.251970	0.388386
C53	C	0.755504	0.251966	0.446500
C54	C	0.891853	0.252000	0.252049
C55	C	0.949967	0.252009	0.252064
C56	C	0.755583	0.115606	0.252048
C57	C	0.755627	0.057492	0.252064
C58	C	0.789004	0.806294	0.218638
C59	C	0.789024	0.860898	0.218645
O60	O	0.817502	0.889131	0.190257
N61	N	0.755572	0.888218	0.252048
C62	C	0.722102	0.860932	0.285449
O63	O	0.693651	0.889184	0.313861
C64	C	0.722085	0.806328	0.285444
C65	C	0.755535	0.779011	0.252036
C66	C	0.822452	0.778976	0.185233
C67	C	0.822431	0.724376	0.185226
C68	C	0.788962	0.697093	0.218623
C69	C	0.755514	0.724410	0.252028
C70	C	0.688617	0.779042	0.318847
C71	C	0.688603	0.724435	0.318840
C72	C	0.722053	0.697118	0.285432
C73	C	0.722024	0.642527	0.285418
N74	N	0.755475	0.615206	0.252016
C75	C	0.788944	0.642490	0.218618
C76	C	0.722141	0.975602	0.285457
C77	C	0.722155	1.030204	0.285459
C78	C	0.789078	1.030167	0.218656
C79	C	0.789061	0.975564	0.218652
C80	C	0.755593	0.948282	0.252055
C81	C	0.788897	0.527824	0.218605
C82	C	0.788872	0.473219	0.218599
C83	C	0.721951	0.473261	0.285403
C84	C	0.721974	0.527862	0.285408
C85	C	0.755452	0.555142	0.252007
O86	O	0.693562	0.614260	0.313793
O87	O	0.817396	0.614231	0.190216
C88	C	0.755494	0.251951	0.116170
C89	C	0.755588	0.251807	0.058057
C90	C	0.789012	0.218432	0.806886
C91	C	0.789019	0.218417	0.861491
O92	O	0.817466	0.189967	0.889747
N93	N	0.755562	0.251844	0.888783
C94	C	0.722093	0.285283	0.861468
O95	O	0.693636	0.313713	0.889695
C96	C	0.722084	0.285294	0.806864
C97	C	0.755547	0.251870	0.779575
C98	C	0.822472	0.185009	0.779597
C99	C	0.822466	0.185025	0.724997
C100	C	0.789000	0.218462	0.697685
C101	C	0.755541	0.251885	0.724974
C102	C	0.688613	0.318731	0.779550
C103	C	0.688607	0.318739	0.724943
C104	C	0.722069	0.285314	0.697654
C105	C	0.722070	0.285338	0.643063
N106	N	0.755526	0.251912	0.615771
C107	C	0.788992	0.218474	0.643082
C108	C	0.722113	0.285256	0.976138
C109	C	0.722124	0.285247	1.030741
C110	C	0.789049	0.218381	1.030760
C111	C	0.789041	0.218392	0.976157
C112	C	0.755570	0.251829	0.948846
C113	C	0.788977	0.218509	0.528417
C114	C	0.788970	0.218529	0.473811
C115	C	0.722043	0.285393	0.473797
C116	C	0.722052	0.285375	0.528397
C117	C	0.755521	0.251929	0.555706
O118	O	0.693635	0.313773	0.614771
O119	O	0.817439	0.190044	0.614847
H120	H	0.556449	0.312723	0.312530
C121	C	0.818885	1.113859	0.189076
C122	C	0.825916	1.060164	0.181991
H123	H	0.841641	1.132377	0.166456
H124	H	0.783783	1.122862	0.181344
H125	H	0.826473	1.122753	0.224233
H126	H	0.818324	1.051269	0.146835
H127	H	0.861026	1.051158	0.189719
C128	C	0.277567	0.118799	0.119295
C129	C	0.313065	0.148186	0.148584
H130	H	0.296093	0.096077	0.096637
H131	H	0.256297	0.098835	0.142115
H132	H	0.256244	0.141558	0.099262
H133	H	0.334386	0.125428	0.168620
H134	H	0.334345	0.168152	0.125761
H135	H	0.694809	0.312597	0.550617
H136	H	0.816298	0.191153	1.053007
C137	C	0.656005	1.024743	0.351490
C138	C	0.685383	1.060228	0.322180
H139	H	0.633307	1.043278	0.374164
H140	H	0.636015	1.003478	0.328684
H141	H	0.678771	1.003413	0.371507
H142	H	0.662617	1.081556	0.302159
H143	H	0.705374	1.081502	0.344989
H144	H	-0.044951	0.191258	0.191502
H145	H	0.694883	0.953392	0.312656
H146	H	0.849670	0.702137	0.158024
C147	C	0.622479	0.773571	0.384887
C148	C	0.651850	0.809060	0.355575
H149	H	0.599782	0.792103	0.407565
H150	H	0.602488	0.752306	0.362082
H151	H	0.645249	0.752241	0.404900
H152	H	0.629080	0.830387	0.335559
H153	H	0.671843	0.830334	0.378383
H154	H	0.206227	0.346229	0.345967
C155	C	0.485120	0.351658	0.351350
C156	C	0.449618	0.322270	0.322067
H157	H	0.466598	0.374388	0.374003
H158	H	0.506439	0.328904	0.371384
H159	H	0.506395	0.371618	0.328522
H160	H	0.428346	0.302306	0.344895
H161	H	0.428290	0.345026	0.302031
C162	C	0.026384	0.351690	0.351419
C163	C	0.061884	0.322298	0.322122
H164	H	0.044907	0.374410	0.374072
H165	H	0.005069	0.371657	0.328603
H166	H	0.005104	0.328935	0.371456
H167	H	0.083161	0.345053	0.302081
H168	H	0.083208	0.302330	0.344941
H169	H	0.816300	0.953325	0.191448
H170	H	0.694881	0.312471	1.052955
H171	H	0.661345	0.345963	0.702710
H172	H	0.849714	0.157806	0.702783
H173	H	0.694857	0.312487	0.953905
C174	C	0.888627	0.118926	0.774117
C175	C	0.859265	0.148253	0.809612
H176	H	0.911347	0.096237	0.792645
H177	H	0.865857	0.098928	0.752821
H178	H	0.908598	0.141724	0.752819
H179	H	0.839291	0.125455	0.830907
H180	H	0.882038	0.168253	0.830917
C181	C	-0.106432	0.315230	0.315092
C182	C	-0.052741	0.322304	0.322135
H183	H	-0.124962	0.337949	0.337749
H184	H	-0.115398	0.322834	0.279954
H185	H	-0.115349	0.280109	0.322805
H186	H	-0.043824	0.357424	0.314418
H187	H	-0.043771	0.314704	0.357281
H188	H	0.661364	0.345949	0.801759
H189	H	0.457387	0.191213	0.191436
C190	C	0.855192	0.152297	0.981673
C191	C	0.825819	0.181647	0.946163
H192	H	0.877895	0.129609	0.963157
H193	H	0.875176	0.175078	1.002969
H194	H	0.832423	0.132294	1.002970
H195	H	0.848587	0.201653	0.924868
H196	H	0.805833	0.158863	0.924858
H197	H	0.661350	0.702225	0.346042
C198	C	0.344419	0.389297	0.325919
C199	C	0.313054	0.355762	0.355464
H200	H	0.362938	0.412020	0.348574
H201	H	0.368496	0.369355	0.306045
H202	H	0.323093	0.409264	0.303108
H203	H	0.334381	0.335791	0.378274
H204	H	0.288975	0.375705	0.375348
H205	H	0.816229	0.191272	0.550645
C206	C	0.655825	0.522411	0.351442
C207	C	0.685206	0.557892	0.322130
H208	H	0.633131	0.540949	0.374118
H209	H	0.635830	0.501149	0.328637
H210	H	0.678589	0.501077	0.371457
H211	H	0.662442	0.579224	0.302112
H212	H	0.705202	0.579162	0.344938
C213	C	0.026379	0.152322	0.152687
C214	C	0.061880	0.181704	0.181979
H215	H	0.044902	0.129600	0.130028
H216	H	0.005106	0.132358	0.175507
H217	H	0.005058	0.175084	0.132656
H218	H	0.083198	0.158942	0.202013
H219	H	0.083161	0.201669	0.159157
H220	H	0.694699	0.451039	0.312594
H221	H	0.694798	0.312619	0.451550
C222	C	0.855123	0.152428	0.479324
C223	C	0.825752	0.181783	0.443816
H224	H	0.877826	0.129742	0.460806
H225	H	0.875106	0.175206	0.500623
H226	H	0.832353	0.132423	0.500617
H227	H	0.848522	0.201791	0.422525
H228	H	0.805767	0.159002	0.422507
H229	H	0.556454	0.191211	0.191422
C230	C	0.167053	0.177648	0.114945
C231	C	0.198467	0.148200	0.148577
H232	H	0.148549	0.154928	0.092275
H233	H	0.142964	0.197574	0.134819
H234	H	0.188345	0.200408	0.094925
H235	H	0.177174	0.125443	0.168600
H236	H	0.222559	0.128265	0.128701
C237	C	0.855028	0.478675	0.152568
C238	C	0.825645	0.443193	0.181876
H239	H	0.877731	0.460139	0.129901
H240	H	0.832269	0.500003	0.132548
H241	H	0.875016	0.499944	0.175379
H242	H	0.805653	0.421927	0.159064
H243	H	0.848406	0.421857	0.201897
H244	H	0.816159	0.550030	0.191408
H245	H	0.849709	0.801185	0.158037
