data_functionalizedCrystal
_audit_creation_method	'MofGen! by Chris Wilmer'
_symmetry_space_group_name_H-M	'P1'
_symmetry_Int_Tables_number	1
_symmetry_cell_setting	triclinic
loop_
_symmetry_equiv_pos_as_xyz
  x,y,z
_cell_length_a	12.837943
_cell_length_b	12.837942
_cell_length_c	11.892095
_cell_angle_alpha	85.697431
_cell_angle_beta	85.689438
_cell_angle_gamma	85.171060
loop_
_atom_site_label
_atom_site_type_symbol
_atom_site_fract_x
_atom_site_fract_y
_atom_site_fract_z
O1	O	1.408367	-0.266110	-0.093982
O2	O	1.908367	0.233890	0.406018
O3	O	1.105234	-0.252667	-0.093989
O4	O	1.605234	0.247333	0.406011
O5	O	1.250078	-0.107822	-0.093979
O6	O	1.750078	0.392178	0.406021
O7	O	1.263522	-0.410955	-0.093992
O8	O	1.763522	0.089045	0.406008
O9	O	1.237999	-0.119879	0.094028
O10	O	1.737999	0.380121	0.594028
O11	O	1.093155	-0.264723	0.094018
O12	O	1.593155	0.235277	0.594018
O13	O	1.396288	-0.278167	0.094025
O14	O	1.896288	0.221833	0.594025
Zn15	Zn	1.242803	-0.273359	0.123871
Zn16	Zn	1.742803	0.226641	0.623871
Zn17	Zn	1.258718	-0.257474	-0.123836
Zn18	Zn	1.758718	0.242526	0.376164
O19	O	1.251443	-0.423011	0.094014
O20	O	1.751443	0.076989	0.594014
C21	C	1.060125	-0.254153	0.000014
C22	C	1.560125	0.245847	0.500014
C23	C	0.943710	-0.240609	0.000011
C24	C	1.443710	0.259391	0.500011
C25	C	1.239497	-0.074781	0.000024
C26	C	1.739497	0.425219	0.500024
C27	C	1.225953	0.041634	0.000022
C28	C	1.725953	0.541634	0.500022
C29	C	0.718835	-0.403439	0.000020
C30	C	1.218835	0.096561	0.500020
C31	C	0.609453	-0.390717	0.000019
C32	C	1.109453	0.109283	0.500019
C33	C	0.615561	-0.202446	0.000015
C34	C	1.115561	0.297554	0.500015
C35	C	0.724943	-0.215167	0.000017
C36	C	1.224943	0.284833	0.500017
C37	C	0.776577	-0.315667	0.000017
C38	C	1.276577	0.184333	0.500017
C39	C	0.885961	-0.328387	0.000011
C40	C	1.385961	0.171613	0.500011
C41	C	0.892066	-0.140117	0.000015
C42	C	1.392066	0.359883	0.500015
C43	C	0.782684	-0.127395	0.000014
C44	C	1.282684	0.372605	0.500014
C45	C	1.441397	-0.276680	0.000020
C46	C	1.941397	0.223320	0.500020
C47	C	1.557812	-0.290224	0.000015
C48	C	2.057812	0.209776	0.500015
C49	C	1.262024	-0.456052	0.000009
C50	C	1.762024	0.043948	0.500009
C51	C	1.275569	-0.572467	0.000004
C52	C	1.775569	-0.072467	0.500004
N53	N	1.231950	-0.284200	0.292925
N54	N	1.731950	0.215800	0.792925
C55	C	1.388784	0.266509	0.000002
C56	C	1.888784	0.766509	0.500002
C57	C	1.376062	0.375892	-0.000000
C58	C	1.876062	0.875892	0.500000
C59	C	1.187791	0.369784	0.000007
C60	C	1.687791	0.869784	0.500007
C61	C	1.200512	0.260402	0.000009
C62	C	1.700512	0.760402	0.500009
C63	C	1.301011	0.208768	0.000008
C64	C	1.801011	0.708768	0.500008
C65	C	1.313731	0.099383	0.000019
C66	C	1.813731	0.599383	0.500019
C67	C	1.125461	0.093278	0.000018
C68	C	1.625461	0.593278	0.500018
C69	C	1.112740	0.202660	0.000016
C70	C	1.612740	0.702660	0.500016
N71	N	1.269579	-0.246626	-0.292889
N72	N	1.769579	0.253374	0.207111
C73	C	1.345098	-0.171130	0.529580
C74	C	1.845098	0.328870	1.029580
C75	C	1.337519	-0.178716	0.647922
C76	C	1.837519	0.321284	1.147922
C77	C	1.209210	-0.306952	0.647951
C78	C	1.709210	0.193048	1.147951
C79	C	1.216788	-0.299366	0.529610
C80	C	1.716788	0.200634	1.029610
C81	C	1.284736	-0.231454	0.470428
C82	C	1.784736	0.268546	0.970428
C83	C	1.292319	-0.223874	0.352085
C84	C	1.792319	0.276126	0.852085
C85	C	1.164005	-0.352104	0.352116
C86	C	1.664005	0.147896	0.852116
C87	C	1.156426	-0.359690	0.470458
C88	C	1.656426	0.140310	0.970458
H89	H	0.928000	-0.410219	0.000013
H90	H	1.428000	0.089781	0.500013
O91	O	1.030790	0.030990	0.000030
O92	O	1.530790	0.530990	0.500030
H93	H	0.978300	0.045607	0.076667
H94	H	1.478300	0.545607	0.576667
H95	H	1.153882	-0.362237	0.696151
H96	H	1.653882	0.137763	1.196151
H97	H	1.101102	-0.414980	0.518656
H98	H	1.601102	0.085020	1.018656
H99	H	1.030916	0.244716	0.000012
H100	H	1.530916	0.744716	0.500012
O101	O	1.497171	0.210807	-0.000001
O102	O	1.997171	0.710807	0.499999
H103	H	1.556070	0.269337	-0.000011
H104	H	2.056070	0.769337	0.499989
H105	H	1.347647	-0.168579	0.303901
H106	H	1.847647	0.331421	0.803901
O107	O	1.098885	-0.417169	0.288320
O108	O	1.598885	0.082831	0.788320
H109	H	1.115562	-0.400482	0.196086
H110	H	1.615562	0.099518	0.696086
O111	O	1.418353	-0.097867	0.465729
O112	O	1.918353	0.402133	0.965729
H113	H	1.477042	-0.143515	0.411791
H114	H	1.977042	0.356485	0.911791
H115	H	1.447536	0.422901	-0.000009
H116	H	1.947536	0.922901	0.499991
H117	H	1.395563	0.057344	0.000022
H118	H	1.895563	0.557344	0.500022
H119	H	0.573495	-0.120630	0.000108
H120	H	1.073495	0.379370	0.500108
O121	O	1.402635	-0.113667	0.711727
O122	O	1.902635	0.386333	1.211727
H123	H	1.451162	-0.065180	0.650689
H124	H	1.951162	0.434820	1.150689
H125	H	0.562444	-0.462191	0.000024
H126	H	1.062444	0.037809	0.500024
O127	O	0.774538	-0.511827	0.000023
O128	O	1.274538	-0.011827	0.500023
H129	H	0.716008	-0.570725	0.000030
H130	H	1.216008	-0.070725	0.500030
O131	O	0.726992	-0.019004	0.000019
O132	O	1.226992	0.480996	0.500019
H133	H	0.682229	-0.003790	-0.076612
H134	H	1.182229	0.496210	0.423388
O135	O	0.954341	-0.045438	0.000018
O136	O	1.454341	0.454562	0.500018
H137	H	1.039076	-0.071164	0.000026
H138	H	1.539076	0.428836	0.500026
H139	H	1.105969	0.411844	-0.000004
H140	H	1.605969	0.911844	0.499996
