data_functionalizedCrystal
_audit_creation_method	'MofGen! by Chris Wilmer'
_symmetry_space_group_name_H-M	'P1'
_symmetry_Int_Tables_number	1
_symmetry_cell_setting	triclinic
loop_
_symmetry_equiv_pos_as_xyz
  x,y,z
_cell_length_a	16.109301
_cell_length_b	19.188930
_cell_length_c	14.586319
_cell_angle_alpha	89.991095
_cell_angle_beta	89.998857
_cell_angle_gamma	83.303183
loop_
_atom_site_label
_atom_site_type_symbol
_atom_site_fract_x
_atom_site_fract_y
_atom_site_fract_z
O1	O	1.102833	0.089745	-0.076200
O2	O	1.436167	0.423078	0.257133
O3	O	1.769500	0.756411	0.590466
O4	O	0.860734	0.100913	-0.076215
O5	O	1.194068	0.434246	0.257119
O6	O	1.527401	0.767580	0.590452
O7	O	0.988770	-0.006310	-0.076189
O8	O	1.322104	0.327023	0.257144
O9	O	1.655437	0.660356	0.590477
O10	O	0.974797	0.196968	-0.076226
O11	O	1.308131	0.530302	0.257107
O12	O	1.641464	0.863635	0.590441
O13	O	0.988761	-0.006312	0.076292
O14	O	1.322095	0.327021	0.409625
O15	O	1.655428	0.660355	0.742958
O16	O	0.860725	0.100912	0.076266
O17	O	1.194059	0.434245	0.409599
O18	O	1.527392	0.767578	0.742933
O19	O	1.102824	0.089743	0.076280
O20	O	1.436158	0.423077	0.409614
O21	O	1.769491	0.756410	0.742947
Cu22	Cu	0.981774	0.095327	0.090196
Cu23	Cu	1.315107	0.428661	0.423529
Cu24	Cu	1.648441	0.761994	0.756863
Cu25	Cu	0.981785	0.095329	-0.090130
Cu26	Cu	1.315118	0.428662	0.243203
Cu27	Cu	1.648451	0.761996	0.576536
O28	O	0.974788	0.196967	0.076255
O29	O	1.308122	0.530300	0.409588
O30	O	1.641455	0.863633	0.742922
C31	C	0.829757	0.100460	0.000024
C32	C	1.163090	0.433793	0.333357
C33	C	1.496423	0.767127	0.666691
C34	C	0.737466	0.099103	0.000020
C35	C	1.070799	0.432437	0.333353
C36	C	1.404132	0.765770	0.666686
C37	C	0.428271	0.158294	0.000025
C38	C	0.761605	0.491627	0.333358
C39	C	1.094938	0.824960	0.666692
C40	C	0.514987	0.159575	0.000019
C41	C	0.848321	0.492908	0.333353
C42	C	1.181654	0.826241	0.666686
C43	C	0.535282	0.032358	0.000030
C44	C	0.868615	0.365691	0.333363
C45	C	1.201949	0.699024	0.666697
C46	C	0.448568	0.031077	0.000029
C47	C	0.781901	0.364411	0.333362
C48	C	1.115234	0.697744	0.666696
C49	C	0.395064	0.094048	0.000031
C50	C	0.728397	0.427381	0.333364
C51	C	1.061731	0.760714	0.666698
C52	C	0.568495	0.096609	0.000027
C53	C	0.901828	0.429942	0.333360
C54	C	1.235161	0.763275	0.666693
C55	C	0.662516	0.097997	0.000021
C56	C	0.995849	0.431331	0.333354
C57	C	1.329183	0.764664	0.666687
C58	C	0.301037	0.092659	0.000035
C59	C	0.634370	0.425993	0.333369
C60	C	0.967703	0.759326	0.666702
C61	C	0.988313	-0.032323	0.000054
C62	C	1.321647	0.301010	0.333387
C63	C	1.654980	0.634343	0.666720
C64	C	0.986955	-0.109831	0.000062
C65	C	1.320288	0.223502	0.333395
C66	C	1.653622	0.556836	0.666728
C67	C	1.062082	-0.154579	0.000070
C68	C	1.395416	0.178754	0.333404
C69	C	1.728749	0.512087	0.666737
C70	C	1.060806	-0.227406	0.000056
C71	C	1.394140	0.105927	0.333389
C72	C	1.727473	0.439261	0.666722
C73	C	0.984398	-0.255481	0.000050
C74	C	1.317732	0.077852	0.333384
C75	C	1.651065	0.411185	0.666717
C76	C	0.909261	-0.210723	0.000036
C77	C	1.242595	0.122610	0.333370
C78	C	1.575928	0.455944	0.666703
C79	C	0.910540	-0.137898	0.000042
C80	C	1.243873	0.195435	0.333375
C81	C	1.577206	0.528769	0.666709
N82	N	0.925991	-0.363623	0.051939
N83	N	1.259324	-0.030290	0.385272
N84	N	1.592658	0.303043	0.718606
N85	N	0.924782	-0.432805	0.051936
N86	N	1.258115	-0.099471	0.385269
N87	N	1.591448	0.233862	0.718602
C88	C	0.980543	-0.474899	0.000032
C89	C	1.313876	-0.141566	0.333365
C90	C	1.647209	0.191768	0.666698
N91	N	1.037571	-0.445200	-0.051858
N92	N	1.370904	-0.111866	0.281476
N93	N	1.704238	0.221467	0.614809
N94	N	1.038783	-0.376012	-0.051850
N95	N	1.372116	-0.042679	0.281483
N96	N	1.705449	0.290655	0.614817
C97	C	0.983004	-0.334447	0.000044
C98	C	1.316337	-0.001114	0.333377
C99	C	1.649671	0.332220	0.666710
C100	C	1.054291	-0.598615	0.000023
C101	C	1.387625	-0.265282	0.333356
C102	C	1.720958	0.068052	0.666690
C103	C	1.053012	-0.671443	0.000003
C104	C	1.386345	-0.338109	0.333336
C105	C	1.719679	-0.004776	0.666669
C106	C	0.901465	-0.654758	-0.000007
C107	C	1.234798	-0.321425	0.333326
C108	C	1.568132	0.011909	0.666659
C109	C	0.902747	-0.581932	0.000004
C110	C	1.236080	-0.248599	0.333337
C111	C	1.569413	0.084735	0.666671
C112	C	0.979162	-0.553865	0.000024
C113	C	1.312495	-0.220532	0.333357
C114	C	1.645829	0.112802	0.666690
C115	C	1.133802	0.090196	0.000039
C116	C	1.467136	0.423530	0.333373
C117	C	1.800469	0.756863	0.666706
C118	C	1.226093	0.091553	0.000038
C119	C	1.559426	0.424886	0.333371
C120	C	1.892760	0.758219	0.666705
C121	C	0.975245	0.222980	0.000010
C122	C	1.308579	0.556313	0.333343
C123	C	1.641912	0.889646	0.666677
C124	C	0.976604	0.300487	-0.000004
C125	C	1.309937	0.633821	0.333329
C126	C	1.643270	0.967154	0.666663
N127	N	0.981773	0.095325	0.217028
N128	N	1.315106	0.428659	0.550361
N129	N	1.648440	0.761992	0.883694
N130	N	0.981793	0.095325	-0.216962
N131	N	1.315126	0.428659	0.116371
N132	N	1.648459	0.761992	0.449705
C133	C	1.038486	0.047863	0.452045
C134	C	1.371819	0.381196	0.785379
C135	C	1.705152	0.714529	1.118712
C136	C	1.038488	0.047861	0.548027
C137	C	1.371822	0.381194	0.881360
C138	C	1.705155	0.714528	1.214693
C139	C	0.925074	0.142790	0.548014
C140	C	1.258407	0.476124	0.881347
C141	C	1.591740	0.809457	1.214680
C142	C	0.925068	0.142788	0.452034
C143	C	1.258401	0.476121	0.785367
C144	C	1.591734	0.809455	1.118701
C145	C	0.981779	0.095325	0.404052
C146	C	1.315112	0.428658	0.737386
C147	C	1.648445	0.761992	1.070719
C148	C	0.981787	0.095326	0.596013
C149	C	1.315120	0.428659	0.929347
C150	C	1.648453	0.761992	1.262680
C151	C	0.981789	0.095324	0.700080
C152	C	1.315122	0.428657	1.033414
C153	C	1.648456	0.761991	1.366747
C154	C	0.981776	0.095326	0.299979
C155	C	1.315109	0.428659	0.633312
C156	C	1.648442	0.761992	0.966645
H157	H	1.124306	-0.131732	0.000083
H158	H	1.457639	0.201601	0.333416
H159	H	1.790972	0.534934	0.666750
O160	O	1.093436	0.001698	0.405355
O161	O	1.426770	0.335032	0.738688
O162	O	1.760103	0.668365	1.072021
C163	C	1.049035	-0.041396	0.349898
C164	C	1.382369	0.291938	0.683232
C165	C	1.715702	0.625271	1.016565
H166	H	0.983896	-0.013576	0.335497
H167	H	1.317229	0.319758	0.668830
H168	H	1.650563	0.653091	1.002164
H169	H	1.083772	-0.052481	0.282414
H170	H	1.417106	0.280853	0.615747
H171	H	1.750439	0.614186	0.949080
H172	H	1.043535	-0.092976	0.386939
H173	H	1.376868	0.240357	0.720272
H174	H	1.710202	0.573691	1.053605
H175	H	0.542020	0.211890	0.000013
H176	H	0.875353	0.545224	0.333347
H177	H	1.208686	0.878557	0.666680
H178	H	0.839252	-0.677616	-0.000016
H179	H	1.172586	-0.344283	0.333317
H180	H	1.505919	-0.010949	0.666651
H181	H	0.384711	0.209568	0.000026
H182	H	0.718044	0.542902	0.333359
H183	H	1.051377	0.876235	0.666693
H184	H	1.121986	-0.263847	0.000059
H185	H	1.455319	0.069486	0.333392
H186	H	1.788652	0.402820	0.666726
H187	H	0.878902	0.181434	0.587090
H188	H	1.212235	0.514768	0.920423
H189	H	1.545569	0.848101	1.253756
H190	H	1.114192	-0.707877	0.000005
H191	H	1.447526	-0.374543	0.333338
H192	H	1.780859	-0.041210	0.666671
O193	O	0.835091	-0.238075	-0.000089
O194	O	1.168424	0.095258	0.333244
O195	O	1.501758	0.428592	0.666577
C196	C	0.829816	-0.279677	-0.079074
C197	C	1.163149	0.053657	0.254260
C198	C	1.496482	0.386990	0.587593
H199	H	0.895414	-0.297824	-0.105396
H200	H	1.228747	0.035509	0.227938
H201	H	1.562080	0.368842	0.561271
H202	H	0.796848	-0.327360	-0.061317
H203	H	1.130181	0.005973	0.272016
H204	H	1.463514	0.339306	0.605349
H205	H	0.792921	-0.247488	-0.134375
H206	H	1.126254	0.085846	0.198958
H207	H	1.459588	0.419179	0.532292
H208	H	0.841570	-0.545497	0.000002
H209	H	1.174903	-0.212163	0.333335
H210	H	1.508236	0.121170	0.666669
O211	O	1.093656	0.001731	0.594504
O212	O	1.426989	0.335065	0.927838
O213	O	1.760322	0.668398	1.261171
C214	C	1.143690	-0.040171	0.531569
C215	C	1.477023	0.293163	0.864902
C216	C	1.810356	0.626496	1.198236
H217	H	1.144520	-0.011543	0.463146
H218	H	1.477853	0.321790	0.796480
H219	H	1.811186	0.655123	1.129813
H220	H	1.210123	-0.050806	0.559297
H221	H	1.543457	0.282528	0.892631
H222	H	1.876790	0.615861	1.225964
H223	H	1.116887	-0.092045	0.521373
H224	H	1.450220	0.241288	0.854706
H225	H	1.783553	0.574622	1.188040
H226	H	0.878886	0.181438	0.412956
H227	H	1.212219	0.514771	0.746289
H228	H	1.545553	0.848104	1.079622
H229	H	0.849360	-0.101463	0.000035
H230	H	1.182693	0.231870	0.333369
H231	H	1.516027	0.565204	0.666702
O232	O	1.128590	-0.571461	-0.000015
O233	O	1.461923	-0.238128	0.333318
O234	O	1.795257	0.095206	0.666652
C235	C	1.194628	-0.626578	-0.000001
C236	C	1.527962	-0.293245	0.333333
C237	C	1.861295	0.040088	0.666666
H238	H	1.171503	-0.676041	-0.028871
H239	H	1.504836	-0.342707	0.304462
H240	H	1.838170	-0.009374	0.637795
H241	H	1.247989	-0.611363	-0.044271
H242	H	1.581322	-0.278029	0.289062
H243	H	1.914656	0.055304	0.622395
H244	H	1.217794	-0.636901	0.073150
H245	H	1.551127	-0.303567	0.406483
H246	H	1.884461	0.029766	0.739817
H247	H	0.578855	-0.018910	0.000030
H248	H	0.912188	0.314423	0.333364
H249	H	1.245522	0.647756	0.666697
H250	H	0.421531	-0.021243	0.000031
H251	H	0.754864	0.312091	0.333364
H252	H	1.088198	0.645424	0.666698
