data_functionalizedCrystal
_audit_creation_method	'MofGen! by Chris Wilmer'
_symmetry_space_group_name_H-M	'P1'
_symmetry_Int_Tables_number	1
_symmetry_cell_setting	triclinic
loop_
_symmetry_equiv_pos_as_xyz
  x,y,z
_cell_length_a	31.640172
_cell_length_b	23.196402
_cell_length_c	23.196402
_cell_angle_alpha	120.003275
_cell_angle_beta	119.997172
_cell_angle_gamma	60.006084
loop_
_atom_site_label
_atom_site_type_symbol
_atom_site_fract_x
_atom_site_fract_y
_atom_site_fract_z
Zr1	Zr	0.407130	0.555441	-0.075645
Zr2	Zr	0.907130	1.055441	0.424355
O3	O	0.427820	0.463387	-0.167697
O4	O	0.927820	0.963387	0.332303
O5	O	0.339647	0.583649	-0.047427
O6	O	0.839647	1.083649	0.452573
O7	O	0.339651	0.583641	-0.167698
O8	O	0.839651	1.083641	0.332302
O9	O	0.497361	0.463415	0.047447
O10	O	0.997361	0.963415	0.547447
O11	O	0.339651	0.678512	-0.167697
O12	O	0.839651	1.178512	0.332303
O13	O	0.427816	0.463395	-0.047426
O14	O	0.927816	0.963395	0.452574
O15	O	0.339644	0.678528	0.047446
O16	O	0.839644	1.178528	0.547446
O17	O	0.497368	0.463400	-0.167696
O18	O	0.997368	0.963400	0.332304
O19	O	0.384734	0.666495	-0.035390
O20	O	0.884734	1.166495	0.464610
O21	O	0.436635	0.595708	0.035412
O22	O	0.936635	1.095708	0.535412
O23	O	0.436640	0.595698	-0.106192
O24	O	0.936640	1.095698	0.393808
O25	O	0.488541	0.524912	-0.035390
O26	O	0.988541	1.024912	0.464610
Zr27	Zr	0.518045	0.706782	0.075668
Zr28	Zr	1.018045	1.206782	0.575668
Zr29	Zr	0.407129	0.706750	-0.075644
Zr30	Zr	0.907129	1.206750	0.424356
Zr31	Zr	0.518046	0.555473	0.075667
Zr32	Zr	1.018046	1.055473	0.575667
Zr33	Zr	0.518051	0.555462	-0.075643
Zr34	Zr	1.018051	1.055462	0.424357
Zr35	Zr	0.407124	0.706761	0.075666
Zr36	Zr	0.907124	1.206761	0.575666
O37	O	0.585527	0.678574	0.047450
O38	O	1.085527	1.178574	0.547450
O39	O	0.427819	0.678529	-0.167696
O40	O	0.927819	1.178529	0.332304
O41	O	0.585529	0.463432	0.047448
O42	O	1.085529	0.963432	0.547448
O43	O	0.497355	0.798836	0.167720
O44	O	0.997355	1.298836	0.667720
O45	O	0.339646	0.798791	-0.047425
O46	O	0.839646	1.298791	0.452575
O47	O	0.497356	0.583694	0.167719
O48	O	0.997356	1.083694	0.667719
O49	O	0.427814	0.798808	-0.047424
O50	O	0.927814	1.298808	0.452576
O51	O	0.585523	0.678582	0.167721
O52	O	1.085523	1.178582	0.667721
O53	O	0.585524	0.583711	0.167720
O54	O	1.085524	1.083711	0.667720
O55	O	0.497359	0.798828	0.047449
O56	O	0.997359	1.298828	0.547449
O57	O	0.497368	0.583670	-0.167695
O58	O	0.997368	1.083670	0.332305
O59	O	0.427807	0.678553	0.167718
O60	O	0.927807	1.178553	0.667718
O61	O	0.427806	0.798823	0.167719
O62	O	0.927806	1.298823	0.667719
O63	O	0.339643	0.798798	0.047447
O64	O	0.839643	1.298798	0.547447
O65	O	0.585532	0.463425	-0.047424
O66	O	1.085532	0.963425	0.452576
O67	O	0.585531	0.583695	-0.047423
O68	O	1.085531	1.083695	0.452577
O69	O	0.488535	0.666525	0.106215
O70	O	0.988535	1.166525	0.606215
O71	O	0.436634	0.737311	0.035413
O72	O	0.936634	1.237311	0.535413
O73	O	0.488540	0.666515	-0.035389
O74	O	0.988540	1.166515	0.464611
O75	O	0.540441	0.595728	0.035413
O76	O	1.040441	1.095728	0.535413
C77	C	0.323842	0.631086	0.000009
C78	C	0.823842	1.131086	0.500009
C79	C	0.276752	0.631077	0.000009
C80	C	0.776752	1.131077	0.500009
C81	C	0.462581	0.631125	0.189277
C82	C	0.962581	1.131125	0.689277
C83	C	0.462579	0.631130	0.253512
C84	C	0.962579	1.131130	0.753512
C85	C	0.462586	0.820376	0.000013
C86	C	0.962586	1.320376	0.500013
C87	C	0.462586	0.884610	0.000013
C88	C	0.962586	1.384610	0.500013
C89	C	-0.042374	0.668076	-0.036940
C90	C	0.457626	1.168076	0.463060
C91	C	-0.219370	0.668090	-0.036940
C92	C	0.280630	1.168090	0.463060
O93	O	-0.265297	0.699541	-0.068346
O94	O	0.234703	1.199541	0.431654
N95	N	-0.214408	0.631139	0.000017
N96	N	0.285592	1.131139	0.500017
C97	C	-0.165193	0.594186	0.036980
C98	C	0.334807	1.094186	0.536980
O99	O	-0.165034	0.562764	0.068420
O100	O	0.334966	1.062764	0.568420
C101	C	0.011801	0.594176	0.036983
C102	C	0.511801	1.094176	0.536983
C103	C	0.006836	0.631123	0.000018
C104	C	0.506836	1.131123	0.500018
C105	C	-0.047338	0.705021	-0.073901
C106	C	0.452662	1.205021	0.426099
C107	C	-0.003092	0.705013	-0.073904
C108	C	0.496908	1.205013	0.426096
C109	C	0.046119	0.668061	-0.036946
C110	C	0.546119	1.168061	0.463054
C111	C	0.051082	0.631116	0.000015
C112	C	0.551082	1.131116	0.500015
C113	C	0.061015	0.557227	0.073950
C114	C	0.561015	1.057227	0.573950
C115	C	0.105264	0.557230	0.073949
C116	C	0.605264	1.057230	0.573949
C117	C	0.100299	0.594177	0.036984
C118	C	0.600299	1.094177	0.536984
C119	C	0.144539	0.594157	0.036971
C120	C	0.644539	1.094157	0.536971
N121	N	0.139577	0.631108	0.000014
N122	N	0.639577	1.131108	0.500014
C123	C	0.090367	0.668060	-0.036944
C124	C	0.590367	1.168060	0.463056
C125	C	-0.258119	0.594193	0.036974
C126	C	0.241881	1.094193	0.536974
C127	C	-0.302368	0.594194	0.036973
C128	C	0.197632	1.094194	0.536973
C129	C	-0.356542	0.668099	-0.036946
C130	C	0.143458	1.168099	0.463054
C131	C	-0.312292	0.668094	-0.036948
C132	C	0.187708	1.168094	0.463052
C133	C	-0.263081	0.631144	0.000018
C134	C	0.236919	1.131144	0.500018
C135	C	0.183290	0.668042	-0.036948
C136	C	0.683290	1.168042	0.463052
C137	C	0.227542	0.668029	-0.036950
C138	C	0.727542	1.168029	0.463050
C139	C	0.281712	0.594127	0.036972
C140	C	0.781712	1.094127	0.536972
C141	C	0.237464	0.594136	0.036971
C142	C	0.737464	1.094136	0.536971
C143	C	0.188251	0.631099	0.000010
C144	C	0.688251	1.131099	0.500010
O145	O	0.190481	0.562730	0.068367
O146	O	0.690481	1.062730	0.568367
O147	O	0.090219	0.699491	-0.068366
O148	O	0.590219	1.199491	0.431634
C149	C	-0.086621	0.668083	-0.036937
C150	C	0.413379	1.168083	0.463063
C151	C	-0.081657	0.631138	0.000024
C152	C	0.418343	1.131138	0.500024
C153	C	-0.032447	0.594186	0.036982
C154	C	0.467553	1.094186	0.536982
C155	C	-0.125906	0.631139	0.000022
C156	C	0.374094	1.131139	0.500022
C157	C	-0.175116	0.668091	-0.036936
C158	C	0.324884	1.168091	0.463064
C159	C	-0.180077	0.705042	-0.073893
C160	C	0.319923	1.205042	0.426107
C161	C	-0.135831	0.705035	-0.073895
C162	C	0.364169	1.205035	0.426105
C163	C	-0.027486	0.557235	0.073939
C164	C	0.472514	1.057235	0.573939
C165	C	-0.071734	0.557244	0.073938
C166	C	0.428266	1.057244	0.573938
C167	C	-0.120944	0.594197	0.036980
C168	C	0.379056	1.094197	0.536980
C169	C	0.601333	0.631137	0.000014
C170	C	1.101333	1.131137	0.500014
C171	C	0.648422	0.631146	0.000014
C172	C	1.148422	1.131146	0.500014
C173	C	0.462589	0.441847	0.000010
C174	C	0.962589	0.941847	0.500010
C175	C	0.462589	0.377613	0.000010
C176	C	0.962589	0.877613	0.500010
C177	C	0.435496	0.951739	0.036974
C178	C	0.935496	1.451739	0.536974
C179	C	0.435492	1.012094	0.036971
C180	C	0.935492	1.512094	0.536971
C181	C	0.462589	1.005317	0.000016
C182	C	0.962589	1.505317	0.500016
C183	C	0.489680	0.938176	-0.036954
C184	C	0.989680	1.438176	0.463046
C185	C	0.489679	0.877823	-0.036955
C186	C	0.989679	1.377823	0.463045
C187	C	0.507974	1.072627	0.005296
C188	C	1.007974	1.572627	0.505296
C189	C	0.507977	1.132981	0.005302
C190	C	1.007977	1.632981	0.505302
C191	C	0.462594	1.191464	0.000016
C192	C	0.962594	1.691464	0.500016
C193	C	0.417208	1.189594	-0.005263
C194	C	0.917208	1.689594	0.494737
C195	C	0.417206	1.129241	-0.005264
C196	C	0.917206	1.629241	0.494736
C197	C	0.462594	1.070756	0.000013
C198	C	0.962594	1.570756	0.500013
C199	C	0.435498	1.324039	0.036975
C200	C	0.935498	1.824039	0.536975
C201	C	0.435493	1.384394	0.036966
C202	C	0.935493	1.884394	0.536966
C203	C	0.489686	1.310475	-0.036954
C204	C	0.989686	1.810475	0.463046
C205	C	0.489685	1.250122	-0.036950
C206	C	0.989685	1.750122	0.463050
C207	C	0.462593	1.256909	0.000018
C208	C	0.962593	1.756909	0.500018
C209	C	0.489667	0.668098	0.320643
C210	C	0.989667	1.168098	0.820643
C211	C	0.489672	0.668092	0.380999
C212	C	0.989672	1.168092	0.880999
C213	C	0.462580	0.631128	0.374219
C214	C	0.962580	1.131128	0.874219
C215	C	0.435490	0.594152	0.307075
C216	C	0.935490	1.094152	0.807075
C217	C	0.435490	0.594153	0.246721
C218	C	0.935490	1.094153	0.746721
C219	C	0.417200	0.636393	0.441523
C220	C	0.917200	1.136393	0.941523
C221	C	0.417198	0.636397	0.501877
C222	C	0.917198	1.136397	1.001877
C223	C	0.462582	0.631120	0.560367
C224	C	0.962582	1.131120	1.060367
C225	C	0.507966	0.625854	0.558503
C226	C	1.007966	1.125854	1.058503
C227	C	0.507965	0.625855	0.498150
C228	C	1.007965	1.125855	0.998150
C229	C	0.462577	0.631122	0.439658
C230	C	0.962577	1.131122	0.939658
C231	C	0.489678	0.668084	0.692946
C232	C	0.989678	1.168084	1.192946
C233	C	0.489685	0.668073	0.753301
C234	C	0.989685	1.168073	1.253301
C235	C	0.435498	0.594137	0.679375
C236	C	0.935498	1.094137	1.179375
C237	C	0.435496	0.594143	0.619022
C238	C	0.935496	1.094143	1.119022
C239	C	0.462585	0.631120	0.625812
C240	C	0.962585	1.131120	1.125812
C241	C	0.462593	0.631101	0.810747
C242	C	0.962593	1.131101	1.310747
C243	C	0.462593	0.631107	0.746516
C244	C	0.962593	1.131107	1.246516
C245	C	0.323848	0.631072	-0.189256
C246	C	0.823848	1.131072	0.310744
C247	C	0.276761	0.631059	-0.253492
C248	C	0.776761	1.131059	0.246508
C249	C	0.323840	0.820350	0.000011
C250	C	0.823840	1.320350	0.500011
C251	C	0.276751	0.884576	0.000010
C252	C	0.776751	1.384576	0.500010
C253	C	0.462580	0.820389	0.189278
C254	C	0.962580	1.320389	0.689278
C255	C	0.462577	0.884629	0.253513
C256	C	0.962577	1.384629	0.753513
C257	C	0.462595	0.441834	-0.189255
C258	C	0.962595	0.941834	0.310745
C259	C	0.462598	0.377594	-0.253491
C260	C	0.962598	0.877594	0.246509
C261	C	0.601334	0.441873	0.000012
C262	C	1.101334	0.941873	0.500012
C263	C	0.648424	0.377647	0.000013
C264	C	1.148424	0.877647	0.500013
C265	C	0.601327	0.631151	0.189279
C266	C	1.101327	1.131151	0.689279
C267	C	0.648414	0.631164	0.253514
C268	C	1.148414	1.131164	0.753514
C269	C	0.281743	0.594097	-0.320621
C270	C	0.781743	1.094097	0.179379
C271	C	0.237504	0.594087	-0.380983
C272	C	0.737504	1.094087	0.119017
C273	C	0.188284	0.631035	-0.374214
C274	C	0.688284	1.131035	0.125786
C275	C	0.183303	0.668001	-0.307077
C276	C	0.683303	1.168001	0.192923
C277	C	0.227541	0.668015	-0.246717
C278	C	0.727541	1.168015	0.253283
C279	C	0.227541	0.877771	-0.036955
C280	C	0.727541	1.377771	0.463045
C281	C	0.183291	0.938113	-0.036969
C282	C	0.683291	1.438113	0.463031
C283	C	0.188252	1.005257	-0.000014
C284	C	0.688252	1.505257	0.499986
C285	C	0.237467	1.012060	0.036952
C286	C	0.737467	1.512060	0.536952
C287	C	0.281716	0.951720	0.036962
C288	C	0.781716	1.451720	0.536962
C289	C	0.435484	0.951752	0.246721
C290	C	0.935484	1.451752	0.746721
C291	C	0.435484	1.012118	0.307071
C292	C	0.935484	1.512118	0.807071
C293	C	0.462573	1.005358	0.374213
C294	C	0.962573	1.505358	0.874213
C295	C	0.489670	0.938227	0.381004
C296	C	0.989670	1.438227	0.881004
C297	C	0.489673	0.877863	0.320655
C298	C	0.989673	1.377863	0.820655
C299	C	0.489696	0.310471	-0.246698
C300	C	0.989696	0.810471	0.253302
C301	C	0.489710	0.250105	-0.307048
C302	C	0.989710	0.750105	0.192952
C303	C	0.462623	0.256865	-0.374190
C304	C	0.962623	0.756865	0.125810
C305	C	0.435524	0.323996	-0.380981
C306	C	0.935524	0.823996	0.119019
C307	C	0.435513	0.384360	-0.320632
C308	C	0.935513	0.884360	0.179368
C309	C	0.697634	0.384452	0.036971
C310	C	1.197634	0.884452	0.536971
C311	C	0.741883	0.324110	0.036969
C312	C	1.241883	0.824110	0.536969
C313	C	0.736922	0.256966	0.000012
C314	C	1.236922	0.756966	0.500012
C315	C	0.687707	0.250163	-0.036952
C316	C	1.187707	0.750163	0.463048
C317	C	0.643459	0.310503	-0.036953
C318	C	1.143459	0.810503	0.463047
C319	C	0.697625	0.594209	0.246723
C320	C	1.197625	1.094209	0.746723
C321	C	0.741873	0.594207	0.307073
C322	C	1.241873	1.094207	0.807073
C323	C	0.736907	0.631166	0.374215
C324	C	1.236907	1.131166	0.874215
C325	C	0.687691	0.668122	0.381005
C326	C	1.187691	1.168122	0.881005
C327	C	0.643444	0.668119	0.320655
C328	C	1.143444	1.168119	0.820655
H329	H	0.223494	0.698115	-0.067053
H330	H	0.723494	1.198115	0.432947
Br331	Br	0.462564	1.087288	0.456110
Br332	Br	0.962564	1.587288	0.956110
H333	H	0.511752	0.304953	-0.192033
H334	H	1.011752	0.804953	0.307967
Br335	Br	0.220794	0.786654	-0.087116
Br336	Br	0.720794	1.286654	0.412884
H337	H	0.772940	0.631162	0.423350
H338	H	1.272940	1.131162	0.923350
H339	H	0.683655	0.698212	0.435680
H340	H	1.183655	1.198212	0.935680
H341	H	0.511732	0.698196	0.435668
H342	H	1.011732	1.198196	0.935668
Br343	Br	0.526433	0.929065	0.472131
Br344	Br	1.026433	1.429065	0.972131
H345	H	0.413440	1.066760	0.067082
H346	H	0.913440	1.566760	0.567082
H347	H	-0.220153	0.735127	-0.103989
H348	H	0.279847	1.235127	0.396011
H349	H	0.065069	0.527142	0.104051
H350	H	0.565069	1.027142	0.604051
Br351	Br	0.220771	0.718172	-0.155614
Br352	Br	0.720771	1.218172	0.344386
Br353	Br	0.348499	0.960967	0.087138
Br354	Br	0.848499	1.460967	0.587138
Br355	Br	0.569555	0.618704	0.495617
Br356	Br	1.069555	1.118704	0.995617
Br357	Br	0.526490	0.159009	-0.297815
Br358	Br	1.026490	0.659009	0.202185
Br359	Br	0.704381	0.475569	0.087131
Br360	Br	1.204381	0.975569	0.587131
Br361	Br	0.398729	0.475454	-0.329863
Br362	Br	0.898729	0.975454	0.170137
Br363	Br	0.116507	0.928863	-0.087139
Br364	Br	0.616507	1.428863	0.412861
Br365	Br	0.808668	0.333360	0.087139
Br366	Br	1.308668	0.833360	0.587139
Br367	Br	0.680983	0.159032	-0.087102
Br368	Br	1.180983	0.659032	0.412898
H369	H	0.152218	1.054385	-0.000027
H370	H	0.652218	1.554385	0.499973
Br371	Br	0.348536	0.543955	-0.329828
Br372	Br	0.848536	1.043955	0.170172
H373	H	0.143222	0.698084	-0.301576
H374	H	0.643222	1.198084	0.198424
H375	H	0.380253	1.237214	-0.009566
H376	H	0.880253	1.737214	0.490434
Br377	Br	0.355608	0.643538	0.504399
Br378	Br	0.855608	1.143538	1.004399
Br379	Br	0.796980	0.175081	0.000021
Br380	Br	1.296980	0.675081	0.500021
Br381	Br	0.244191	1.103191	0.087105
Br382	Br	0.744191	1.603191	0.587105
H383	H	0.511740	0.698187	0.698475
H384	H	1.011740	1.198187	1.198475
H385	H	0.603392	0.304953	-0.067047
H386	H	1.103392	0.804953	0.432953
Br387	Br	0.398729	0.960952	0.087148
Br388	Br	0.898729	1.460952	0.587148
H389	H	0.413423	0.957270	0.192056
H390	H	0.913423	1.457270	0.692056
Br391	Br	0.576659	0.718281	0.329886
Br392	Br	1.076659	1.218281	0.829886
Br393	Br	0.526444	0.786769	0.329886
Br394	Br	1.026444	1.286769	0.829886
Br395	Br	0.116508	0.718208	-0.087107
Br396	Br	0.616508	1.218208	0.412893
Br397	Br	0.704378	0.544047	0.155609
Br398	Br	1.204378	1.044047	0.655609
H399	H	0.413436	0.564043	0.564359
H400	H	0.913436	1.064043	1.064359
Br401	Br	0.398706	1.103214	0.297838
Br402	Br	0.898706	1.603214	0.797838
Br403	Br	0.526457	0.718240	0.844414
Br404	Br	1.026457	1.218240	1.344414
Br405	Br	0.462643	0.174935	-0.456087
Br406	Br	0.962643	0.674935	0.043913
Br407	Br	0.355615	1.126703	-0.012426
Br408	Br	0.855615	1.626703	0.487574
Br409	Br	0.526453	0.928976	-0.087110
Br410	Br	1.026453	1.428976	0.412890
Br411	Br	0.398763	0.333158	-0.472108
Br412	Br	0.898763	0.833158	0.027892
H413	H	-0.007140	0.735101	-0.104002
H414	H	0.492860	1.235101	0.395998
H415	H	0.413435	1.329566	0.067073
H416	H	0.913435	1.829566	0.567073
Br417	Br	0.398719	1.475503	0.087126
Br418	Br	0.898719	1.975503	0.587126
Br419	Br	0.808660	0.544046	0.297841
Br420	Br	1.308660	1.044046	0.797841
Br421	Br	0.244276	0.543914	-0.472088
Br422	Br	0.744276	1.043914	0.027912
H423	H	-0.087405	0.735115	-0.103996
H424	H	0.412595	1.235115	0.396004
H425	H	-0.316340	0.698180	-0.067047
H426	H	0.183660	1.198180	0.432953
H427	H	0.511748	1.195462	-0.067044
H428	H	1.011748	1.695462	0.432956
H429	H	0.145334	0.527139	0.104050
H430	H	0.645334	1.027139	0.604050
Br431	Br	0.128251	0.631010	-0.456140
Br432	Br	0.628251	1.131010	0.043860
H433	H	0.413441	0.564037	0.673853
H434	H	0.913441	1.064037	1.173853
H435	H	-0.298318	0.564099	0.067064
H436	H	0.201682	1.064099	0.567064
Br437	Br	-0.423335	0.718249	-0.087104
Br438	Br	0.076665	1.218249	0.412896
Br439	Br	0.244202	0.543981	0.087125
Br440	Br	0.744202	1.043981	0.587125
Br441	Br	-0.191335	0.544043	0.087149
Br442	Br	0.308665	1.044043	0.587149
H443	H	0.413431	0.564048	0.192058
H444	H	0.913431	1.064048	0.692058
Br445	Br	-0.142579	0.755179	-0.124066
Br446	Br	0.357421	1.255179	0.375934
Br447	Br	0.348504	0.543979	0.087126
Br448	Br	0.848504	1.043979	0.587126
H449	H	0.544930	1.134492	0.009585
H450	H	1.044930	1.634492	0.509585
Br451	Br	-0.064986	0.507092	0.124105
Br452	Br	0.435014	1.007092	0.624105
H453	H	0.012580	0.527145	0.104037
H454	H	0.512580	1.027145	0.604037
H455	H	0.511746	1.304955	-0.067047
H456	H	1.011746	1.804955	0.432953
H457	H	0.544932	1.025008	0.009598
H458	H	1.044932	1.525008	0.509598
H459	H	0.511739	0.823162	-0.067055
H460	H	1.011739	1.323162	0.432945
H461	H	0.544922	0.621553	0.606126
H462	H	1.044922	1.121553	1.106126
Br463	Br	0.355603	0.643550	0.362144
Br464	Br	0.855603	1.143550	0.862144
Br465	Br	0.526438	0.718269	0.329861
Br466	Br	1.026438	1.218269	0.829861
Br467	Br	0.398726	0.543979	0.297871
Br468	Br	0.898726	1.043979	0.797871
