data_functionalizedCrystal
_audit_creation_method	'MofGen! by Chris Wilmer'
_symmetry_space_group_name_H-M	'P1'
_symmetry_Int_Tables_number	1
_symmetry_cell_setting	triclinic
loop_
_symmetry_equiv_pos_as_xyz
  x,y,z
_cell_length_a	19.188930
_cell_length_b	22.610064
_cell_length_c	19.188930
_cell_angle_alpha	90.001060
_cell_angle_beta	83.144779
_cell_angle_gamma	90.022082
loop_
_atom_site_label
_atom_site_type_symbol
_atom_site_fract_x
_atom_site_fract_y
_atom_site_fract_z
O1	O	0.926150	0.049381	0.087158
O2	O	1.426150	0.549381	0.587158
O3	O	0.722838	0.049342	0.098892
O4	O	1.222838	0.549342	0.598892
O5	O	0.830361	0.049351	-0.008630
O6	O	1.330361	0.549351	0.491370
O7	O	0.818627	0.049372	0.194681
O8	O	1.318627	0.549372	0.694681
O9	O	0.830342	-0.049018	-0.008615
O10	O	1.330342	0.450982	0.491385
O11	O	0.722819	-0.049028	0.098908
O12	O	1.222819	0.450972	0.598908
O13	O	0.926131	-0.048988	0.087174
O14	O	1.426131	0.451012	0.587174
Zn15	Zn	0.824472	-0.064626	0.093043
Zn16	Zn	1.324472	0.435374	0.593043
Zn17	Zn	0.824497	0.064980	0.093023
Zn18	Zn	1.324497	0.564980	0.593023
O19	O	0.818608	-0.048997	0.194697
O20	O	1.318608	0.451003	0.694697
C21	C	0.696818	0.000152	0.098520
C22	C	1.196818	0.500152	0.598520
C23	C	0.619313	0.000136	0.097380
C24	C	1.119313	0.500136	0.597380
N25	N	0.824460	-0.153078	0.093057
N26	N	1.324460	0.346922	0.593057
C27	C	0.574389	0.000152	0.160470
C28	C	1.074389	0.500152	0.660470
C29	C	0.501566	0.000158	0.159399
C30	C	1.001566	0.500158	0.659399
C31	C	0.473669	0.000161	0.095233
C32	C	0.973669	0.500161	0.595233
C33	C	0.518603	0.000142	0.032133
C34	C	1.018603	0.500142	0.532133
C35	C	0.591425	0.000129	0.033207
C36	C	1.091425	0.500129	0.533207
N37	N	0.365695	0.033659	0.046180
N38	N	0.865695	0.533659	0.546180
N39	N	0.296517	0.033672	0.045165
N40	N	0.796517	0.533672	0.545165
C41	C	0.254260	0.000197	0.091994
C42	C	0.754260	0.500197	0.591994
N43	N	0.283795	-0.033285	0.139889
N44	N	0.783795	0.466715	0.639889
N45	N	0.352979	-0.033295	0.140906
N46	N	0.852979	0.466705	0.640906
C47	C	0.394707	0.000174	0.094061
C48	C	0.894707	0.500174	0.594061
C49	C	0.130372	0.000218	0.153928
C50	C	0.630372	0.500218	0.653928
C51	C	0.057547	0.000221	0.152853
C52	C	0.557547	0.500221	0.652853
C53	C	0.074586	0.000211	0.025586
C54	C	0.574586	0.500211	0.525586
C55	C	0.147409	0.000202	0.026662
C56	C	0.647409	0.500202	0.526662
C57	C	0.175298	0.000209	0.090835
C58	C	0.675298	0.500209	0.590835
C59	C	0.872110	-0.561716	0.045419
C60	C	1.372110	-0.061716	0.545419
C61	C	0.872114	-0.623636	0.045414
C62	C	1.372114	-0.123636	0.545414
O63	O	0.912598	-0.655651	0.004921
O64	O	1.412598	-0.155651	0.504921
N65	N	0.824497	-0.654616	0.093008
N66	N	1.324497	-0.154616	0.593008
C67	C	0.776868	-0.623672	0.140606
C68	C	1.276868	-0.123672	0.640606
O69	O	0.736366	-0.655709	0.181088
O70	O	1.236366	-0.155709	0.681088
C71	C	0.776862	-0.561754	0.140607
C72	C	1.276862	-0.061754	0.640607
C73	C	0.824487	-0.530777	0.093014
C74	C	1.324487	-0.030777	0.593014
C75	C	0.919731	-0.530739	-0.002171
C76	C	1.419731	-0.030739	0.497829
C77	C	0.919728	-0.468823	-0.002164
C78	C	1.419728	0.031177	0.497836
C79	C	0.872105	-0.437884	0.045431
C80	C	1.372105	0.062116	0.545431
C81	C	0.824484	-0.468861	0.093021
C82	C	1.324484	0.031139	0.593021
C83	C	0.729230	-0.530812	0.188201
C84	C	1.229230	-0.030812	0.688201
C85	C	0.729227	-0.468889	0.188198
C86	C	1.229227	0.031111	0.688198
C87	C	0.776853	-0.437912	0.140605
C88	C	1.276853	0.062088	0.640605
C89	C	0.776857	-0.376007	0.140622
C90	C	1.276857	0.123993	0.640622
N91	N	0.824475	-0.345027	0.093028
N92	N	1.324475	0.154973	0.593028
C93	C	0.872098	-0.375966	0.045432
C94	C	1.372098	0.124034	0.545432
C95	C	0.776884	-0.753706	0.140599
C96	C	1.276884	-0.253706	0.640599
C97	C	0.776893	-0.815624	0.140602
C98	C	1.276893	-0.315624	0.640602
C99	C	0.872138	-0.815583	0.045409
C100	C	1.372138	-0.315583	0.545409
C101	C	0.872132	-0.753664	0.045410
C102	C	1.372132	-0.253664	0.545410
C103	C	0.824501	-0.722726	0.093005
C104	C	1.324501	-0.222726	0.593005
C105	C	0.872089	-0.245938	0.045449
C106	C	1.372089	0.254062	0.545449
C107	C	0.872084	-0.184017	0.045461
C108	C	1.372084	0.315983	0.545461
C109	C	0.776836	-0.184064	0.140652
C110	C	1.276836	0.315936	0.640652
C111	C	0.776844	-0.245979	0.140643
C112	C	1.276844	0.254021	0.640643
C113	C	0.824473	-0.276915	0.093035
C114	C	1.324473	0.223085	0.593035
O115	O	0.736392	-0.343952	0.181093
O116	O	1.236392	0.156048	0.681093
O117	O	0.912588	-0.343921	0.004951
O118	O	1.412588	0.156079	0.504951
C119	C	0.952151	0.000203	0.087546
C120	C	1.452151	0.500203	0.587546
C121	C	1.029656	0.000223	0.088687
C122	C	1.529656	0.500223	0.588687
C123	C	0.829972	0.000165	-0.034634
C124	C	1.329972	0.500165	0.465366
C125	C	0.828831	0.000159	-0.112138
C126	C	1.328831	0.500159	0.387862
N127	N	0.824515	0.153432	0.093004
N128	N	1.324515	0.653432	0.593004
C129	C	0.891922	0.000169	-0.157062
C130	C	1.391922	0.500169	0.342938
C131	C	0.890850	0.000178	-0.229886
C132	C	1.390850	0.500178	0.270114
C133	C	0.826684	0.000166	-0.257782
C134	C	1.326684	0.500166	0.242218
C135	C	0.763585	0.000160	-0.212849
C136	C	1.263585	0.500160	0.287151
C137	C	0.764658	0.000157	-0.140026
C138	C	1.264658	0.500157	0.359974
N139	N	0.777630	-0.033320	-0.365782
N140	N	1.277630	0.466680	0.134218
N141	N	0.776615	-0.033319	-0.434961
N142	N	1.276615	0.466681	0.065039
C143	C	0.823446	0.000177	-0.477191
C144	C	1.323446	0.500177	0.022809
N145	N	0.871342	0.033664	-0.447631
N146	N	1.371342	0.533664	0.052369
N147	N	0.872359	0.033659	-0.378446
N148	N	1.372359	0.533659	0.121554
C149	C	0.825513	0.000170	-0.336745
C150	C	1.325513	0.500170	0.163255
C151	C	0.885379	0.000198	-0.601079
C152	C	1.385379	0.500198	-0.101079
C153	C	0.884305	0.000211	-0.673904
C154	C	1.384305	0.500211	-0.173904
C155	C	0.757038	0.000186	-0.656865
C156	C	1.257038	0.500186	-0.156865
C157	C	0.758114	0.000179	-0.584042
C158	C	1.258114	0.500179	-0.084042
C159	C	0.822287	0.000182	-0.556154
C160	C	1.322287	0.500182	-0.056154
C161	C	0.818997	0.000190	0.220700
C162	C	1.318997	0.500190	0.720700
C163	C	0.820138	0.000200	0.298204
C164	C	1.320138	0.500200	0.798204
H165	H	0.597091	0.000159	0.212725
H166	H	1.097091	0.500159	0.712725
H167	H	0.495885	0.000152	-0.020111
H168	H	0.995885	0.500152	0.479889
C169	C	0.048025	0.000245	0.278757
C170	C	0.548025	0.500245	0.778757
C171	C	0.008163	0.000239	0.222209
C172	C	0.508163	0.500239	0.722209
H173	H	0.017535	0.000260	0.321574
H174	H	0.517535	0.500260	0.821574
H175	H	0.076758	-0.034060	0.276539
H176	H	0.576758	0.465940	0.776539
H177	H	0.076807	0.034547	0.276514
H178	H	0.576807	0.534547	0.776514
H179	H	-0.020616	-0.034065	0.224449
H180	H	0.479384	0.465935	0.724449
H181	H	-0.020582	0.034548	0.224428
H182	H	0.479418	0.534548	0.724428
C183	C	0.966974	0.050747	-0.085055
C184	C	1.466974	0.550747	0.414945
C185	C	0.962460	0.000180	-0.126408
C186	C	1.462460	0.500180	0.373592
H187	H	1.010520	0.050752	-0.066128
H188	H	1.510520	0.550752	0.433872
H189	H	0.963918	0.085044	-0.113110
H190	H	1.463918	0.585044	0.386890
H191	H	0.929550	0.050733	-0.047875
H192	H	1.429550	0.550733	0.452125
H193	H	0.999881	0.000197	-0.163591
H194	H	1.499881	0.500197	0.336409
H195	H	0.965523	-0.034125	-0.098352
H196	H	1.465523	0.465875	0.401648
C197	C	0.654767	-0.050425	-0.220746
C198	C	1.154767	0.449575	0.279254
C199	C	0.693050	0.000147	-0.243507
C200	C	1.193050	0.500147	0.256493
H201	H	0.611219	-0.050428	-0.239669
H202	H	1.111219	0.449572	0.260331
H203	H	0.680726	-0.084718	-0.236186
H204	H	1.180726	0.415282	0.263814
H205	H	0.646383	-0.050421	-0.170945
H206	H	1.146383	0.449579	0.329055
H207	H	0.701439	0.000141	-0.293308
H208	H	1.201439	0.500141	0.206692
H209	H	0.667086	0.034449	-0.228071
H210	H	1.167086	0.534449	0.271929
C211	C	0.994186	0.050794	-0.593164
C212	C	1.494186	0.550794	-0.093164
C213	C	0.955913	0.000214	-0.570414
C214	C	1.455913	0.500214	-0.070414
H215	H	1.037728	0.050806	-0.574229
H216	H	1.537728	0.550806	-0.074229
H217	H	1.002578	0.050795	-0.642958
H218	H	1.502578	0.550795	-0.142958
H219	H	0.968211	0.085085	-0.577723
H220	H	1.468211	0.585085	-0.077723
H221	H	0.981886	-0.034078	-0.585860
H222	H	1.481886	0.465922	-0.085860
H223	H	0.947523	0.000207	-0.520610
H224	H	1.447523	0.500207	-0.020610
H225	H	0.183988	0.000192	-0.024713
H226	H	0.683988	0.500192	0.475287
H227	H	0.935683	0.000222	-0.710481
H228	H	1.435683	0.500222	-0.210481
C229	C	0.963450	-0.050382	-0.321671
C230	C	1.463450	0.449618	0.178329
C231	C	0.960204	0.000184	-0.279279
C232	C	1.460204	0.500184	0.220721
H233	H	1.006265	-0.050376	-0.352165
H234	H	1.506265	0.449624	0.147835
H235	H	0.961217	-0.084679	-0.292908
H236	H	1.461217	0.415321	0.207092
H237	H	0.925076	-0.050378	-0.348700
H238	H	1.425076	0.449622	0.151300
H239	H	0.998575	0.000178	-0.252246
H240	H	1.498575	0.500178	0.247754
H241	H	0.962444	0.034490	-0.308046
H242	H	1.462444	0.534490	0.191954
H243	H	0.738099	-0.728520	0.179362
H244	H	1.238099	-0.228520	0.679362
C245	C	0.409817	0.050756	0.231998
C246	C	0.909817	0.550756	0.731998
C247	C	0.452170	0.000180	0.228751
C248	C	0.952170	0.500180	0.728751
H249	H	0.379321	0.050766	0.274811
H250	H	0.879321	0.550766	0.774811
H251	H	0.438607	0.085046	0.229767
H252	H	0.938607	0.585046	0.729767
H253	H	0.382791	0.050748	0.193622
H254	H	0.882791	0.550748	0.693622
H255	H	0.479200	0.000189	0.267124
H256	H	0.979200	0.500189	0.767124
H257	H	0.423377	-0.034120	0.230988
H258	H	0.923377	0.465880	0.730988
C259	C	0.761382	-0.114426	0.235706
C260	C	1.261382	0.385574	0.735706
C261	C	0.724488	-0.150045	0.192963
C262	C	1.224488	0.349955	0.692963
H263	H	0.729060	-0.093421	0.267995
H264	H	1.229060	0.406579	0.767995
H265	H	0.790353	-0.138570	0.260757
H266	H	1.290353	0.361430	0.760757
H267	H	0.789746	-0.087123	0.207353
H268	H	1.289746	0.412877	0.707353
H269	H	0.696127	-0.177352	0.221316
H270	H	1.196127	0.322648	0.721316
H271	H	0.695505	-0.125899	0.167911
H272	H	1.195505	0.374101	0.667911
H273	H	0.628003	0.000117	-0.018171
H274	H	1.128003	0.500117	0.481829
H275	H	0.910872	-0.271119	0.006682
H276	H	1.410872	0.228881	0.506682
H277	H	0.910868	-0.158798	0.006706
H278	H	1.410868	0.341202	0.506706
C279	C	0.634149	-0.399297	0.203594
C280	C	1.134149	0.100703	0.703594
C281	C	0.676870	-0.434884	0.240519
C282	C	1.176870	0.065116	0.740519
H283	H	0.601825	-0.378308	0.235897
H284	H	1.101825	0.121692	0.735897
H285	H	0.662508	-0.371986	0.175261
H286	H	1.162508	0.128014	0.675261
H287	H	0.609133	-0.423466	0.174589
H288	H	1.109133	0.076534	0.674589
H289	H	0.701890	-0.410714	0.269520
H290	H	1.201890	0.089286	0.769520
H291	H	0.648507	-0.462198	0.268864
H292	H	1.148507	0.037802	0.768864
C293	C	0.202417	0.050779	0.228964
C294	C	0.702417	0.550779	0.728964
C295	C	0.161034	0.000216	0.224463
C296	C	0.661034	0.500216	0.724463
H297	H	0.221342	0.050776	0.272511
H298	H	0.721342	0.550776	0.772511
H299	H	0.239592	0.050769	0.191545
H300	H	0.739592	0.550769	0.691545
H301	H	0.174377	0.085082	0.225898
H302	H	0.674377	0.585082	0.725898
H303	H	0.189076	-0.034088	0.227523
H304	H	0.689076	0.465912	0.727523
H305	H	0.123854	0.000220	0.261892
H306	H	0.623854	0.500220	0.761892
H307	H	0.051874	0.000249	-0.026659
H308	H	0.551874	0.500249	0.473341
H309	H	0.713281	0.000149	-0.103449
H310	H	1.213281	0.500149	0.396551
H311	H	0.704792	0.000180	-0.679578
H312	H	1.204792	0.500180	-0.179578
H313	H	0.958507	-0.443605	-0.040920
H314	H	1.458507	0.056395	0.459080
H315	H	0.706738	0.000168	-0.547464
H316	H	1.206738	0.500168	-0.047464
H317	H	0.958512	-0.555924	-0.040932
H318	H	1.458512	-0.055924	0.459068
H319	H	0.910915	-0.840784	0.006653
H320	H	1.410915	-0.340784	0.506653
C321	C	0.966276	-0.759857	-0.048683
C322	C	1.466276	-0.259857	0.451317
C323	C	0.924477	-0.719617	-0.006911
C324	C	1.424477	-0.219617	0.493089
H325	H	0.998588	-0.738839	-0.080988
H326	H	1.498588	-0.238839	0.419012
H327	H	0.991299	-0.783993	-0.019679
H328	H	1.491299	-0.283993	0.480321
H329	H	0.937285	-0.784022	-0.073721
H330	H	1.437285	-0.284022	0.426279
H331	H	0.953467	-0.695455	0.018131
H332	H	1.453467	-0.195455	0.518131
H333	H	0.899452	-0.695470	-0.035919
H334	H	1.399452	-0.195470	0.464081
H335	H	0.738120	-0.840841	0.179364
H336	H	1.238120	-0.340841	0.679364
C337	C	0.635075	-0.524606	0.282279
C338	C	1.135075	-0.024606	0.782279
C339	C	0.676875	-0.564850	0.240515
C340	C	1.176875	-0.064850	0.740515
H341	H	0.602748	-0.545621	0.314574
H342	H	1.102748	-0.045621	0.814574
H343	H	0.664058	-0.500449	0.307323
H344	H	1.164058	-0.000449	0.807323
H345	H	0.610061	-0.500463	0.253264
H346	H	1.110061	-0.000463	0.753264
H347	H	0.701892	-0.588991	0.269530
H348	H	1.201892	-0.088991	0.769530
H349	H	0.647888	-0.589018	0.215469
H350	H	1.147888	-0.089018	0.715469
C351	C	0.682689	-0.239797	0.234729
C352	C	1.182689	0.260203	0.734729
C353	C	0.724491	-0.280033	0.192954
C354	C	1.224491	0.219967	0.692954
H355	H	0.650362	-0.260819	0.267016
H356	H	1.150362	0.239181	0.767016
H357	H	0.711671	-0.215646	0.259782
H358	H	1.211671	0.284354	0.759782
H359	H	0.657677	-0.215647	0.205720
H360	H	1.157677	0.284353	0.705720
H361	H	0.749508	-0.304181	0.221963
H362	H	1.249508	0.195819	0.721963
H363	H	0.695506	-0.304195	0.167899
H364	H	1.195506	0.195805	0.667899
