data_functionalizedCrystal
_audit_creation_method	'MofGen! by Chris Wilmer'
_symmetry_space_group_name_H-M	'P1'
_symmetry_Int_Tables_number	1
_symmetry_cell_setting	triclinic
loop_
_symmetry_equiv_pos_as_xyz
  x,y,z
_cell_length_a	16.109301
_cell_length_b	13.339070
_cell_length_c	15.186229
_cell_angle_alpha	89.998719
_cell_angle_beta	89.999362
_cell_angle_gamma	99.545388
loop_
_atom_site_label
_atom_site_type_symbol
_atom_site_fract_x
_atom_site_fract_y
_atom_site_fract_z
O1	O	1.133153	0.130020	-0.073168
O2	O	0.894827	0.146201	-0.073182
O3	O	0.986638	-0.009144	-0.073174
O4	O	1.041342	0.285365	-0.073176
O5	O	0.986629	-0.009146	0.073283
O6	O	0.894818	0.146199	0.073275
O7	O	1.133144	0.130018	0.073289
Zn8	Zn	1.013980	0.138108	0.096535
Zn9	Zn	1.013992	0.138111	-0.096428
O10	O	1.041333	0.285363	0.073281
C11	C	0.863697	0.145545	0.000045
C12	C	0.770947	0.143580	0.000040
C13	C	0.977393	-0.046831	0.000053
C14	C	0.949849	-0.159124	0.000048
C15	C	0.568905	0.231189	0.000049
C16	C	0.481756	0.229335	0.000055
C17	C	0.459072	0.045023	0.000053
C18	C	0.546219	0.046879	0.000053
C19	C	0.601133	0.139965	0.000047
C20	C	0.426838	0.136255	0.000052
C21	C	0.332347	0.134244	0.000058
C22	C	0.695630	0.141976	0.000043
C23	C	1.164017	-0.523987	0.000060
C24	C	1.189898	-0.418483	0.000070
C25	C	1.129888	-0.353638	0.000064
C26	C	1.043992	-0.394307	0.000049
C27	C	1.018108	-0.499822	0.000046
C28	C	0.983979	-0.329473	0.000050
C29	C	0.898083	-0.370142	0.000035
C30	C	0.872203	-0.475647	0.000032
C31	C	0.932213	-0.540492	0.000038
C32	C	1.009863	-0.223958	0.000053
C33	C	0.863954	-0.199793	0.000039
C34	C	0.838073	-0.305297	0.000029
C35	C	1.164275	0.130675	0.000060
C36	C	1.257024	0.132640	0.000060
C37	C	1.050578	0.323050	0.000052
C38	C	1.078122	0.435343	0.000052
N39	N	1.013977	0.138106	0.228228
N40	N	1.013998	0.138106	-0.228121
C41	C	1.054656	0.069342	0.453954
C42	C	1.054658	0.069340	0.546144
C43	C	0.973315	0.206873	0.546146
C44	C	0.973308	0.206869	0.453958
C45	C	1.013984	0.138105	0.407865
C46	C	1.013992	0.138106	0.592242
C47	C	1.013994	0.138104	0.692198
C48	C	1.013980	0.138106	0.307902
H49	H	0.455520	0.303619	0.000059
H50	H	0.572459	-0.027412	0.000054
H51	H	0.613614	0.306986	0.000051
O52	O	1.154921	-0.251134	-0.000044
C53	C	1.123581	-0.209253	-0.075911
H54	H	1.066074	-0.262999	-0.101211
H55	H	1.105025	-0.132729	-0.058852
H56	H	1.174298	-0.198163	-0.129015
O57	O	1.094040	0.002382	0.409238
C58	C	1.057420	-0.097740	0.431817
H59	H	0.990741	-0.098225	0.457151
H60	H	1.055267	-0.148535	0.371211
H61	H	1.096640	-0.127422	0.485345
H62	H	1.259835	-0.385378	0.000084
H63	H	0.940199	0.262860	0.583685
H64	H	0.815089	-0.146996	0.000039
H65	H	1.212868	-0.576792	0.000072
H66	H	1.087776	0.013345	0.583668
O67	O	0.405609	-0.045307	0.000012
C68	C	0.321779	-0.027386	0.000032
H69	H	0.319625	0.051561	-0.027694
H70	H	0.281417	-0.086943	-0.042491
H71	H	0.296507	-0.032285	0.070294
H72	H	0.940184	0.262865	0.416429
H73	H	0.802261	-0.508756	0.000026
O74	O	0.907176	-0.642999	-0.000088
C75	C	0.938537	-0.684861	-0.075952
H76	H	0.996049	-0.631107	-0.101234
H77	H	0.957090	-0.761388	-0.058897
H78	H	0.887832	-0.695940	-0.129069
H79	H	1.079800	-0.190856	0.000066
H80	H	0.768134	-0.338426	0.000018
