data_functionalizedCrystal
_audit_creation_method	'MofGen! by Chris Wilmer'
_symmetry_space_group_name_H-M	'P1'
_symmetry_Int_Tables_number	1
_symmetry_cell_setting	triclinic
loop_
_symmetry_equiv_pos_as_xyz
  x,y,z
_cell_length_a	19.805407
_cell_length_b	12.827892
_cell_length_c	19.805399
_cell_angle_alpha	89.977471
_cell_angle_beta	89.980427
_cell_angle_gamma	90.015392
loop_
_atom_site_label
_atom_site_type_symbol
_atom_site_fract_x
_atom_site_fract_y
_atom_site_fract_z
Zn1	Zn	1.034788	-0.416057	-0.382743
Zn2	Zn	1.034724	-0.590812	-0.269565
Zn3	Zn	0.921602	-0.416086	-0.269568
Zn4	Zn	0.921587	-0.590757	-0.382712
O5	O	0.978175	-0.503428	-0.326147
O6	O	1.129496	-0.439250	-0.367742
O7	O	1.019698	-0.567670	-0.174849
O8	O	0.936649	-0.269846	-0.284595
O9	O	1.129449	-0.567642	-0.284590
O10	O	1.019806	-0.269825	-0.367745
O11	O	0.936588	-0.439299	-0.174851
O12	O	0.826884	-0.439245	-0.284565
O13	O	0.936624	-0.567547	-0.477433
O14	O	0.826873	-0.567575	-0.367691
O15	O	1.019792	-0.439196	-0.477456
O16	O	1.019684	-0.737041	-0.284560
O17	O	0.936563	-0.737000	-0.367688
C18	C	0.802319	-0.503408	-0.326125
C19	C	0.727087	-0.503425	-0.326132
C20	C	0.978133	-0.774938	-0.326135
C21	C	0.978177	-0.891091	-0.326153
C22	C	0.691755	-0.570347	-0.369346
C23	C	0.621067	-0.570349	-0.369355
C24	C	0.585712	-0.503433	-0.326147
C25	C	0.621049	-0.436504	-0.282931
C26	C	0.691736	-0.436497	-0.282926
C27	C	0.335975	-0.436527	-0.282954
C28	C	0.265283	-0.436540	-0.282961
C29	C	0.265306	-0.570378	-0.369383
C30	C	0.335993	-0.570372	-0.369378
C31	C	0.371324	-0.503439	-0.326165
C32	C	0.447973	-0.503436	-0.326156
C33	C	0.509065	-0.503440	-0.326152
C34	C	1.019357	-0.942862	-0.285064
C35	C	1.019403	-1.062912	-0.285081
C36	C	1.154718	-0.503449	-0.326169
C37	C	1.229950	-0.503458	-0.326179
C38	C	0.978213	-0.503362	-0.502690
C39	C	0.978229	-0.503334	-0.577922
C40	C	0.978236	-0.230858	-0.326174
C41	C	0.978262	-0.114705	-0.326185
C42	C	1.021536	-0.436499	-0.613279
C43	C	1.021543	-0.436468	-0.683968
C44	C	0.978246	-0.503280	-0.719298
C45	C	0.934935	-0.570118	-0.683935
C46	C	0.934925	-0.570143	-0.613248
C47	C	0.934973	-0.570021	-0.969009
C48	C	0.934988	-0.569994	-1.039701
C49	C	1.021591	-0.436347	-1.039728
C50	C	1.021581	-0.436371	-0.969041
C51	C	0.978268	-0.503205	-0.933685
C52	C	0.978260	-0.503236	-0.857037
C53	C	0.978257	-0.503255	-0.795945
C54	C	0.978176	-0.503418	-0.150291
C55	C	0.978291	-0.503152	-0.075060
H56	H	0.720536	-0.624841	-0.404529
H57	H	1.054656	-1.107433	-0.249901
O58	O	1.063539	-0.371404	-0.934653
C59	C	1.025002	-0.303904	-0.893785
H60	H	0.973703	-0.340774	-0.883178
H61	H	1.052564	-0.289897	-0.844086
H62	H	1.017575	-0.226461	-0.921043
O63	O	1.063597	-0.371445	-1.074179
C64	C	1.054335	-0.385759	-1.144145
H65	H	1.002093	-0.419971	-1.153788
H66	H	1.058948	-0.307471	-1.171016
H67	H	1.094472	-0.441406	-1.164209
H68	H	0.943002	-1.070191	-0.361363
O69	O	0.936250	-0.944348	-0.368171
C70	C	0.974822	-1.007369	-0.411908
H71	H	1.026147	-1.023567	-0.388077
H72	H	0.947323	-1.084194	-0.420919
H73	H	0.982188	-0.965310	-0.462092
H74	H	0.899728	-0.624402	-1.068465
H75	H	0.899715	-0.624457	-0.940230
H76	H	1.056795	-0.382096	-0.584519
O77	O	0.231089	-0.635484	-0.411392
C78	C	0.277454	-0.694524	-0.449538
H79	H	0.327827	-0.698086	-0.421801
H80	H	0.257021	-0.776875	-0.456674
H81	H	0.285005	-0.656355	-0.500983
O82	O	0.892939	-0.634984	-0.718357
C83	C	0.902221	-0.620616	-0.788330
H84	H	0.954466	-0.586397	-0.797999
H85	H	0.897615	-0.698882	-0.815185
H86	H	0.862090	-0.564952	-0.808388
O87	O	0.370441	-0.635336	-0.411289
C88	C	0.440408	-0.620959	-0.402030
H89	H	0.450045	-0.586634	-0.349831
H90	H	0.467267	-0.699238	-0.406538
H91	H	0.460489	-0.565381	-0.442235
O92	O	1.061473	-0.889768	-0.243149
C93	C	1.128950	-0.916279	-0.257978
H94	H	1.132367	-0.946293	-0.312040
H95	H	1.162323	-0.844414	-0.252207
H96	H	1.146722	-0.979565	-0.221678
H97	H	0.592257	-0.382015	-0.247753
H98	H	1.056809	-0.382046	-0.712753
O99	O	0.230912	-0.371685	-0.240910
C100	C	0.189993	-0.431103	-0.197140
H101	H	0.211286	-0.513395	-0.192872
H102	H	0.189178	-0.393206	-0.145091
H103	H	0.136426	-0.434754	-0.218061
H104	H	0.364733	-0.382034	-0.247762
H105	H	0.899654	-0.624557	-0.584461
H106	H	0.720502	-0.381997	-0.247740
O107	O	0.586850	-0.635468	-0.411347
C108	C	0.633213	-0.694519	-0.449487
H109	H	0.683590	-0.698062	-0.421756
H110	H	0.612784	-0.776875	-0.456605
H111	H	0.640755	-0.656372	-0.500940
