data_functionalizedCrystal
_audit_creation_method	'MofGen! by Chris Wilmer'
_symmetry_space_group_name_H-M	'P1'
_symmetry_Int_Tables_number	1
_symmetry_cell_setting	triclinic
loop_
_symmetry_equiv_pos_as_xyz
  x,y,z
_cell_length_a	10.723024
_cell_length_b	9.065215
_cell_length_c	8.140239
_cell_angle_alpha	90.000939
_cell_angle_beta	90.001994
_cell_angle_gamma	84.741283
loop_
_atom_site_label
_atom_site_type_symbol
_atom_site_fract_x
_atom_site_fract_y
_atom_site_fract_z
O1	O	0.182966	1.959359	0.136590
O2	O	0.197979	1.529988	0.136597
O3	O	0.008937	1.754578	0.136587
O4	O	0.372009	1.734769	0.136600
O5	O	0.008935	1.754570	-0.136640
O6	O	0.197978	1.529981	-0.136630
O7	O	0.182965	1.959352	-0.136637
Zn8	Zn	0.190471	1.744665	-0.180014
Zn9	Zn	0.190473	1.744675	0.179974
O10	O	0.372007	1.734762	-0.136628
C11	C	0.196537	1.475006	-0.000016
C12	C	0.192225	1.311187	-0.000013
C13	C	-0.037569	1.753132	-0.000024
C14	C	-0.176141	1.748820	-0.000019
C15	C	-0.250614	1.874488	-0.000018
C16	C	-0.393836	1.870033	-0.000012
C17	C	0.418514	1.736207	-0.000012
C18	C	0.557085	1.740520	-0.000007
C19	C	0.184408	2.014334	-0.000021
C20	C	0.188719	2.178152	-0.000013
N21	N	0.190469	1.744669	-0.425697
N22	N	0.190465	1.744682	0.425657
H23	H	-0.208343	1.985375	-0.000030
H24	H	-0.457832	1.977615	-0.000020
Br25	Br	-0.336265	1.561192	-0.000028
H26	H	-0.218413	1.637933	-0.000006
