data_functionalizedCrystal
_audit_creation_method	'MofGen! by Chris Wilmer'
_symmetry_space_group_name_H-M	'P1'
_symmetry_Int_Tables_number	1
_symmetry_cell_setting	triclinic
loop_
_symmetry_equiv_pos_as_xyz
  x,y,z
_cell_length_a	8.497374
_cell_length_b	8.497374
_cell_length_c	12.759401
_cell_angle_alpha	90.000368
_cell_angle_beta	89.994500
_cell_angle_gamma	90.000078
loop_
_atom_site_label
_atom_site_type_symbol
_atom_site_fract_x
_atom_site_fract_y
_atom_site_fract_z
Zn1	Zn	-0.628323	0.891991	1.606216
Zn2	Zn	-0.892068	0.628232	1.606228
Zn3	Zn	-0.628297	0.628224	1.430574
Zn4	Zn	-0.892055	0.891970	1.430569
O5	O	-0.760186	0.760104	1.518397
O6	O	-0.663325	0.857015	1.753239
O7	O	-0.857073	0.407469	1.582935
O8	O	-0.407538	0.663219	1.453870
O9	O	-0.857098	0.663232	1.753248
O10	O	-0.407557	0.857007	1.582913
O11	O	-0.663281	0.407463	1.453882
O12	O	-0.663269	0.663199	1.283552
O13	O	-0.857076	1.112735	1.453862
O14	O	-0.857051	0.856971	1.283549
O15	O	-0.663313	1.112750	1.582909
O16	O	-1.112829	0.663212	1.582930
O17	O	-1.112819	0.856979	1.453874
C18	C	-0.760157	0.760083	1.245429
C19	C	-0.760182	0.760111	1.128653
C20	C	-0.861246	0.860842	1.073817
C21	C	-0.861266	0.860859	0.964093
C22	C	-0.659154	0.659401	0.964051
C23	C	-0.659127	0.659393	1.073773
C24	C	-0.977939	0.977147	1.073840
C25	C	-0.977959	0.977164	0.964116
C26	C	-0.170066	0.760099	1.518393
C27	C	-0.348710	0.760108	1.518398
C28	C	-0.760188	1.171585	1.518389
C29	C	-0.760205	1.350229	1.518391
C30	C	-0.760216	0.760127	1.792430
C31	C	-0.760229	0.760136	1.909207
H32	H	-1.093920	0.933190	1.107891
H33	H	-0.934395	1.093307	0.930083
H34	H	-0.576821	0.577379	1.118416
H35	H	-1.100097	0.944248	0.934356
H36	H	-0.576877	0.577402	0.919354
Br37	Br	-0.923724	1.180871	1.123477
