data_functionalizedCrystal
_audit_creation_method	'MofGen! by Chris Wilmer'
_symmetry_space_group_name_H-M	'P1'
_symmetry_Int_Tables_number	1
_symmetry_cell_setting	triclinic
loop_
_symmetry_equiv_pos_as_xyz
  x,y,z
_cell_length_a	11.792241
_cell_length_b	19.288864
_cell_length_c	10.868271
_cell_angle_alpha	89.981837
_cell_angle_beta	90.005281
_cell_angle_gamma	96.335169
loop_
_atom_site_label
_atom_site_type_symbol
_atom_site_fract_x
_atom_site_fract_y
_atom_site_fract_z
O1	O	0.141581	-0.922152	0.102718
O2	O	0.160680	-0.720000	0.102634
O3	O	-0.014114	-0.825982	0.102669
O4	O	0.316376	-0.816171	0.102682
O5	O	-0.014121	-0.825973	-0.101976
O6	O	0.160674	-0.719991	-0.102011
O7	O	0.141575	-0.922144	-0.101927
Zn8	Zn	0.151123	-0.821066	-0.134461
Zn9	Zn	0.151132	-0.821078	0.135167
O10	O	0.316369	-0.816162	-0.101962
C11	C	0.160063	-0.694116	0.000300
C12	C	0.158218	-0.617002	0.000268
C13	C	-0.056399	-0.825361	0.000347
C14	C	-0.182385	-0.823517	0.000347
C15	C	0.142192	-0.948028	0.000409
C16	C	0.144037	-1.025142	0.000449
C17	C	-0.413046	-0.820125	0.000366
C18	C	-0.284689	-0.822009	0.000356
C19	C	0.358654	-0.816782	0.000362
C20	C	0.484640	-0.818627	0.000370
N21	N	0.151116	-0.821063	-0.318475
C22	C	0.260779	-0.572888	0.000292
C23	C	0.259046	-0.500431	0.000305
C24	C	0.154746	-0.472091	0.000320
C25	C	0.052171	-0.516215	0.000290
C26	C	0.053907	-0.588670	0.000264
C27	C	0.072756	-0.363366	0.072054
C28	C	0.071024	-0.290912	0.072088
C29	C	0.149387	-0.248615	0.000394
C30	C	0.229500	-0.278780	-0.071317
C31	C	0.231236	-0.351235	-0.071343
C32	C	0.152852	-0.393526	0.000347
C33	C	0.250076	-0.125935	0.000431
C34	C	0.248339	-0.053477	0.000436
C35	C	0.041460	-0.069262	0.000433
C36	C	0.043201	-0.141718	0.000415
C37	C	0.147512	-0.170050	0.000419
C38	C	0.151130	-0.821074	-0.569481
C39	C	0.151126	-0.821066	-0.429803
N40	N	0.151130	-0.821086	0.319181
H41	H	0.345717	-0.595951	0.000298
C42	C	0.361171	-0.004951	0.000444
N43	N	0.446158	0.031600	0.000447
C44	C	0.319348	-0.384415	-0.150236
N45	N	0.385711	-0.409406	-0.209666
H46	H	0.342567	-0.464507	0.000321
C47	C	0.315703	-0.232258	-0.150191
N48	N	0.380628	-0.197215	-0.209596
H49	H	0.005796	-0.266358	0.130484
H50	H	0.335012	-0.149004	0.000416
H51	H	0.008942	-0.397800	0.130443
C52	C	-0.073272	-0.038092	0.000448
N53	N	-0.159692	-0.014612	0.000457
H54	H	-0.040316	-0.177637	0.000403
C55	C	-0.062560	-0.485039	0.000307
N56	N	-0.148979	-0.461558	0.000317
C57	C	-0.058924	-0.637197	0.000246
N58	N	-0.143910	-0.673749	0.000237
