data_functionalizedCrystal
_audit_creation_method	'MofGen! by Chris Wilmer'
_symmetry_space_group_name_H-M	'P1'
_symmetry_Int_Tables_number	1
_symmetry_cell_setting	triclinic
loop_
_symmetry_equiv_pos_as_xyz
  x,y,z
_cell_length_a	8.559649
_cell_length_b	16.109301
_cell_length_c	15.186229
_cell_angle_alpha	90.000638
_cell_angle_beta	89.998040
_cell_angle_gamma	103.379927
loop_
_atom_site_label
_atom_site_type_symbol
_atom_site_fract_x
_atom_site_fract_y
_atom_site_fract_z
O1	O	0.205389	-1.090045	-0.073169
O2	O	0.230949	-0.846355	-0.073183
O3	O	-0.014444	-0.989670	-0.073174
O4	O	0.450782	-0.946731	-0.073178
O5	O	-0.014447	-0.989661	0.073283
O6	O	0.230946	-0.846347	0.073274
O7	O	0.205386	-1.090037	0.073288
Zn8	Zn	0.218165	-0.968191	0.096534
Zn9	Zn	0.218170	-0.968202	-0.096429
O10	O	0.450779	-0.946723	0.073279
C11	C	0.229912	-0.815442	0.000044
C12	C	0.226808	-0.723344	0.000039
C13	C	-0.073977	-0.992919	0.000053
C14	C	-0.251362	-1.002605	0.000049
C15	C	0.206423	-1.120950	0.000059
C16	C	0.209527	-1.213048	0.000059
C17	C	0.510312	-0.943473	0.000050
C18	C	0.687697	-0.933787	0.000049
N19	N	0.218161	-0.968189	0.228227
C20	C	0.365202	-0.492255	0.000048
C21	C	0.362273	-0.405721	0.000053
C22	C	0.071122	-0.444145	0.000052
C23	C	0.074053	-0.530677	0.000053
C24	C	0.221098	-0.554729	0.000046
C25	C	0.215238	-0.381663	0.000051
C26	C	0.212061	-0.287840	0.000057
C27	C	0.224275	-0.648558	0.000042
N28	N	0.218161	-0.968210	-0.228122
C29	C	0.109538	-1.031666	0.453954
C30	C	0.109534	-1.031669	0.546144
C31	C	0.326790	-0.904727	0.546145
C32	C	0.326785	-0.904722	0.453957
C33	C	0.218161	-0.968196	0.407864
C34	C	0.218162	-0.968204	0.592241
C35	C	0.218159	-0.968207	0.692198
C36	C	0.218161	-0.968192	0.307901
H37	H	-0.228771	-0.867458	0.000048
H38	H	0.415239	-0.853032	0.416428
H39	H	-0.334903	-1.068938	0.000060
C40	C	0.074925	-1.147024	0.649813
C41	C	-0.009863	-1.101438	0.596809
H42	H	0.001206	-1.190094	0.681094
H43	H	0.141442	-1.172677	0.613846
H44	H	0.139609	-1.109217	0.690456
H45	H	-0.074539	-1.139244	0.556161
H46	H	-0.076408	-1.075784	0.632778
C47	C	0.537391	-0.567284	0.075331
C48	C	0.526826	-0.518699	0.000046
H49	H	0.637171	-0.583611	0.075327
H50	H	0.530201	-0.534325	0.126395
H51	H	0.451978	-0.616875	0.075320
H52	H	0.612233	-0.469105	0.000061
H53	H	0.534033	-0.551659	-0.051031
H54	H	0.479618	-0.354857	0.000056
C55	C	-0.062649	-0.328557	0.000042
C56	C	-0.090504	-0.417702	0.000048
H57	H	-0.162435	-0.312237	0.000032
H58	H	-0.003336	-0.306487	0.051112
H59	H	-0.003307	-0.306493	-0.051034
H60	H	-0.149837	-0.439767	0.051127
H61	H	-0.149843	-0.439782	-0.051028
H62	H	-0.043302	-0.581547	0.000054
C63	C	-0.105223	-1.157135	0.463216
C64	C	-0.009875	-1.101428	0.403288
H65	H	-0.178954	-1.200199	0.431936
H66	H	-0.038693	-1.182794	0.499164
H67	H	-0.162708	-1.126190	0.499180
H68	H	0.047619	-1.132372	0.367327
H69	H	-0.076414	-1.075767	0.367324
H70	H	0.415232	-0.853049	0.583683
