data_functionalizedCrystal
_audit_creation_method	'MofGen! by Chris Wilmer'
_symmetry_space_group_name_H-M	'P1'
_symmetry_Int_Tables_number	1
_symmetry_cell_setting	triclinic
loop_
_symmetry_equiv_pos_as_xyz
  x,y,z
_cell_length_a	16.109302
_cell_length_b	11.792240
_cell_length_c	15.186229
_cell_angle_alpha	90.013097
_cell_angle_beta	89.994701
_cell_angle_gamma	96.172402
loop_
_atom_site_label
_atom_site_type_symbol
_atom_site_fract_x
_atom_site_fract_y
_atom_site_fract_z
O1	O	1.103817	-0.145889	-0.073287
O2	O	1.603817	0.354111	0.426713
O3	O	0.861840	-0.164043	-0.073282
O4	O	1.361840	0.335957	0.426718
O5	O	0.988701	0.010256	-0.073258
O6	O	1.488701	0.510256	0.426742
O7	O	0.976957	-0.320188	-0.073311
O8	O	1.476957	0.179812	0.426689
O9	O	0.988692	0.010258	0.073200
O10	O	1.488692	0.510258	0.573200
O11	O	0.861832	-0.164041	0.073175
O12	O	1.361832	0.335959	0.573175
O13	O	1.103808	-0.145887	0.073171
O14	O	1.603808	0.354113	0.573171
Zn15	Zn	0.982819	-0.154963	0.096426
Zn16	Zn	1.482819	0.345037	0.596426
Zn17	Zn	0.982830	-0.154967	-0.096538
Zn18	Zn	1.482830	0.345033	0.403462
O19	O	0.976948	-0.320186	0.073146
O20	O	1.476948	0.179814	0.573146
C21	C	0.830858	-0.163307	-0.000052
C22	C	1.330858	0.336693	0.499948
C23	C	0.738552	-0.161102	-0.000049
C24	C	1.238552	0.338898	0.499951
C25	C	0.526183	-0.156001	0.079777
C26	C	1.026183	0.343999	0.579777
C27	C	0.439453	-0.153917	0.079774
C28	C	0.939453	0.346083	0.579774
C29	C	0.439472	-0.153926	-0.079902
C30	C	0.939472	0.346074	0.420098
C31	C	0.526202	-0.156002	-0.079898
C32	C	1.026202	0.343998	0.420102
C33	C	0.569554	-0.157045	-0.000056
C34	C	1.069554	0.342955	0.499944
C35	C	0.396095	-0.152885	-0.000063
C36	C	0.896095	0.347115	0.499937
C37	C	0.302059	-0.150625	-0.000066
C38	C	0.802059	0.349375	0.499934
C39	C	0.663596	-0.159303	-0.000053
C40	C	1.163596	0.340697	0.499947
C41	C	0.987959	0.052541	-0.000024
C42	C	1.487959	0.552541	0.499976
C43	C	0.985751	0.178536	-0.000009
C44	C	1.485751	0.678536	0.499991
C45	C	0.981690	0.409212	0.000005
C46	C	1.481690	0.909212	0.500005
C47	C	0.983946	0.280847	-0.000003
C48	C	1.483946	0.780847	0.499997
C49	C	1.134791	-0.146623	-0.000061
C50	C	1.634791	0.353377	0.499939
C51	C	1.227097	-0.148829	-0.000070
C52	C	1.727097	0.351171	0.499930
C53	C	0.977690	0.637528	-0.000058
C54	C	1.477690	1.137528	0.499942
C55	C	0.979898	0.511534	0.000015
C56	C	1.479898	1.011534	0.500015
N57	N	0.982817	-0.154961	0.228119
N58	N	1.482817	0.345039	0.728119
N59	N	0.982838	-0.154961	-0.228230
N60	N	1.482838	0.345039	0.271770
C61	C	1.039010	-0.077807	0.453852
C62	C	1.539010	0.422193	0.953852
C63	C	1.039013	-0.077804	0.546042
C64	C	1.539013	0.422196	1.046042
C65	C	0.926639	-0.232118	0.546030
C66	C	1.426639	0.267882	1.046030
C67	C	0.926633	-0.232114	0.453842
C68	C	1.426633	0.267886	0.953842
C69	C	0.982823	-0.154960	0.407755
C70	C	1.482823	0.345040	0.907755
C71	C	0.982832	-0.154961	0.592133
C72	C	1.482832	0.345039	1.092133
C73	C	0.982834	-0.154959	0.692089
C74	C	1.482834	0.345041	1.192089
C75	C	0.982820	-0.154961	0.307793
C76	C	1.482820	0.345039	0.807793
H77	H	1.084763	-0.014982	0.416331
H78	H	1.584763	0.485018	0.916331
C79	C	0.448203	-0.154149	-0.237734
C80	C	0.948203	0.345851	0.262266
C81	C	0.391816	-0.152797	-0.167662
C82	C	0.891816	0.347203	0.332338
H83	H	0.418782	-0.153450	-0.291913
H84	H	0.918782	0.346550	0.208087
H85	H	0.475989	-0.221097	-0.234415
H86	H	0.975989	0.278903	0.265585
H87	H	0.488073	-0.088805	-0.234400
H88	H	0.988073	0.411195	0.265600
H89	H	0.351950	-0.218146	-0.170991
H90	H	0.851950	0.281854	0.329009
H91	H	0.364017	-0.085842	-0.170982
H92	H	0.864017	0.414158	0.329018
C93	C	0.517450	-0.155765	0.237608
C94	C	1.017450	0.344235	0.737608
C95	C	0.573838	-0.157130	0.167537
C96	C	1.073838	0.342870	0.667537
H97	H	0.546872	-0.156451	0.291788
H98	H	1.046872	0.343549	0.791788
H99	H	0.477584	-0.221099	0.234281
H100	H	0.977584	0.278901	0.734281
H101	H	0.489664	-0.088806	0.234281
H102	H	0.989664	0.411194	0.734281
H103	H	0.601620	-0.224093	0.170860
H104	H	1.101620	0.275907	0.670860
H105	H	0.613719	-0.091789	0.170866
H106	H	1.113719	0.408211	0.670866
C107	C	0.350833	-0.054056	0.172421
C108	C	0.850833	0.445944	0.672421
C109	C	0.391783	-0.152765	0.167531
C110	C	0.891783	0.347235	0.667531
H111	H	0.321410	-0.053340	0.226605
H112	H	0.821410	0.446660	0.726605
H113	H	0.312599	-0.053150	0.124882
H114	H	0.812599	0.446850	0.624882
H115	H	0.390723	0.011267	0.169107
H116	H	0.890723	0.511267	0.669107
H117	H	0.351893	-0.218089	0.170839
H118	H	0.851893	0.281911	0.670839
H119	H	0.430020	-0.153682	0.215083
H120	H	0.930020	0.346318	0.715083
H121	H	1.084764	-0.014978	0.583572
H122	H	1.584764	0.485022	1.083572
H123	H	0.561516	-0.156849	-0.144912
H124	H	1.061516	0.343151	0.355088
C125	C	0.876758	-0.300652	0.687343
C126	C	1.376758	0.199348	1.187343
C127	C	0.864885	-0.316934	0.596691
C128	C	1.364885	0.183066	1.096691
H129	H	0.838637	-0.353023	0.718615
H130	H	1.338637	0.146977	1.218615
H131	H	0.867385	-0.224912	0.702466
H132	H	1.367385	0.275088	1.202466
H133	H	0.932303	-0.313000	0.702427
H134	H	1.432303	0.187000	1.202427
H135	H	0.809341	-0.304578	0.581606
H136	H	1.309341	0.195422	1.081606
H137	H	0.874251	-0.392693	0.581562
H138	H	1.374251	0.107307	1.081562
C139	C	0.815558	-0.384663	0.463082
C140	C	1.315558	0.115337	0.963082
C141	C	0.864870	-0.316931	0.403165
C142	C	1.364870	0.183069	0.903165
H143	H	0.777433	-0.437024	0.431794
H144	H	1.277433	0.062976	0.931794
H145	H	0.785443	-0.337411	0.499052
H146	H	1.285443	0.162589	0.999052
H147	H	0.850358	-0.425503	0.499026
H148	H	1.350358	0.074497	0.999026
H149	H	0.830070	-0.276084	0.367225
H150	H	1.330070	0.223916	0.867225
H151	H	0.894987	-0.364189	0.367180
H152	H	1.394987	0.135811	0.867180
