data_functionalizedCrystal
_audit_creation_method	'MofGen! by Chris Wilmer'
_symmetry_space_group_name_H-M	'P1'
_symmetry_Int_Tables_number	1
_symmetry_cell_setting	triclinic
loop_
_symmetry_equiv_pos_as_xyz
  x,y,z
_cell_length_a	34.408637
_cell_length_b	34.407814
_cell_length_c	34.404193
_cell_angle_alpha	60.004510
_cell_angle_beta	60.009006
_cell_angle_gamma	59.994604
loop_
_atom_site_label
_atom_site_type_symbol
_atom_site_fract_x
_atom_site_fract_y
_atom_site_fract_z
O1	O	0.053973	-0.567860	0.474801
O2	O	0.553973	-0.067860	0.974801
O3	O	0.020377	-0.442124	0.382567
O4	O	0.520377	0.057876	0.882567
O5	O	0.100004	-0.521670	0.382483
O6	O	0.600004	-0.021670	0.882483
O7	O	-0.025653	-0.488314	0.474886
O8	O	0.474347	0.011686	0.974886
O9	O	0.126426	-0.495253	0.408816
O10	O	0.626426	0.004747	0.908816
O11	O	0.046800	-0.415707	0.408900
O12	O	0.546800	0.084293	0.908900
O13	O	0.080396	-0.541443	0.501134
O14	O	0.580396	-0.041443	1.001134
Zn15	Zn	0.067793	-0.474381	0.459198
Zn16	Zn	0.567793	0.025619	0.959198
Zn17	Zn	0.032980	-0.509186	0.424503
Zn18	Zn	0.532980	-0.009186	0.924503
O19	O	0.000769	-0.461897	0.501219
O20	O	0.500769	0.038103	1.001219
N21	N	0.091552	-0.450631	0.482879
N22	N	0.591552	0.049369	0.982879
N23	N	0.009225	-0.532940	0.400823
N24	N	0.509225	-0.032940	0.900823
C25	C	0.142848	-0.268847	0.534081
C26	C	0.642848	0.231153	1.034081
C27	C	0.142979	-0.399386	0.664559
C28	C	0.642979	0.100614	1.164559
C29	C	0.142862	-0.399365	0.534081
C30	C	0.642862	0.100635	1.034081
C31	C	0.273409	-0.399338	0.533986
C32	C	0.773409	0.100662	1.033986
C33	C	0.157225	-0.311914	0.548422
C34	C	0.657225	0.188086	1.048422
C35	C	0.157300	-0.385019	0.621491
C36	C	0.657300	0.114981	1.121491
C37	C	0.230339	-0.384991	0.548370
C38	C	0.730339	0.115009	1.048370
C39	C	0.157235	-0.385007	0.548422
C40	C	0.657235	0.114993	1.048422
C41	C	0.124548	-0.214028	0.515827
C42	C	0.624548	0.285972	1.015827
C43	C	0.124571	-0.417639	0.515827
C44	C	0.624571	0.082361	1.015827
C45	C	0.175526	-0.366733	0.566676
C46	C	0.675526	0.133267	1.066676
C47	C	0.353121	-0.385580	0.491988
C48	C	0.853121	0.114420	0.991988
C49	C	0.402952	-0.402180	0.475348
C50	C	0.902952	0.097820	0.975348
C51	C	0.402981	-0.482812	0.506096
C52	C	0.902981	0.017188	1.006096
C53	C	0.353151	-0.466211	0.522737
C54	C	0.853151	0.033789	1.022737
C55	C	0.136544	-0.189099	0.466839
C56	C	0.636544	0.310901	0.966839
C57	C	0.119905	-0.139265	0.450247
C58	C	0.619905	0.360735	0.950247
C59	C	0.079280	-0.139291	0.531632
C60	C	0.579280	0.360709	1.031632
C61	C	0.095918	-0.189125	0.548224
C62	C	0.595918	0.310875	1.048224
C63	C	0.075577	-0.405615	0.527900
C64	C	0.575577	0.094385	1.027900
C65	C	0.058953	-0.422228	0.511301
C66	C	0.558953	0.077772	1.011301
C67	C	0.140315	-0.462889	0.470566
C68	C	0.640315	0.037111	0.970566
C69	C	0.156941	-0.446276	0.487159
C70	C	0.656941	0.053724	0.987159
C71	C	0.075772	-0.405653	0.744326
C72	C	0.575772	0.094347	1.244326
C73	C	0.059206	-0.422280	0.794159
C74	C	0.559206	0.077720	1.294159
C75	C	0.140607	-0.462951	0.794094
C76	C	0.640607	0.037049	1.294094
C77	C	0.157172	-0.446325	0.744260
C78	C	0.657172	0.053675	1.244260
C79	C	0.124753	-0.417674	0.719377
C80	C	0.624753	0.082326	1.219377
C81	C	0.328223	-0.417595	0.515681
C82	C	0.828223	0.082405	1.015681
C83	C	-0.172390	-0.583988	0.349141
C84	C	0.327610	-0.083988	0.849141
C85	C	-0.041751	-0.584138	0.218783
C86	C	0.458249	-0.084138	0.718783
C87	C	-0.041941	-0.584130	0.349402
C88	C	0.458059	-0.084130	0.849402
C89	C	-0.041957	-0.714607	0.349338
C90	C	0.458043	-0.214607	0.849338
C91	C	-0.129326	-0.598388	0.334853
C92	C	0.370674	-0.098388	0.834853
C93	C	-0.056165	-0.598473	0.261852
C94	C	0.443835	-0.098473	0.761852
C95	C	-0.056282	-0.671535	0.334962
C96	C	0.443718	-0.171535	0.834962
C97	C	-0.056272	-0.598469	0.334999
C98	C	0.443728	-0.098469	0.834999
C99	C	-0.227205	-0.565659	0.367327
C100	C	0.272795	-0.065659	0.867327
C101	C	-0.023703	-0.565882	0.367734
C102	C	0.476297	-0.065882	0.867734
C103	C	-0.074511	-0.616717	0.316667
C104	C	0.425489	-0.116717	0.816667
C105	C	-0.055754	-0.794298	0.391257
C106	C	0.444246	-0.294298	0.891257
C107	C	-0.039181	-0.844132	0.407888
C108	C	0.460819	-0.344132	0.907888
C109	C	0.041447	-0.844215	0.377269
C110	C	0.541447	-0.344215	0.877269
C111	C	0.024873	-0.794381	0.360637
C112	C	0.524873	-0.294381	0.860637
C113	C	-0.252183	-0.577666	0.416302
C114	C	0.247817	-0.077666	0.916302
C115	C	-0.302014	-0.561001	0.432833
C116	C	0.197986	-0.061001	0.932833
C117	C	-0.301886	-0.520329	0.351410
C118	C	0.198114	-0.020329	0.851410
C119	C	-0.252055	-0.536994	0.334880
C120	C	0.247945	-0.036994	0.834880
C121	C	-0.035709	-0.516892	0.355682
C122	C	0.464291	-0.016892	0.855682
C123	C	-0.019129	-0.500308	0.372353
C124	C	0.480871	-0.000308	0.872353
C125	C	0.021465	-0.581700	0.413115
C126	C	0.521465	-0.081700	0.913115
C127	C	0.004884	-0.598286	0.396450
C128	C	0.504884	-0.098286	0.896450
C129	C	-0.035389	-0.516907	0.139026
C130	C	0.464611	-0.016907	0.639026
C131	C	-0.018707	-0.500324	0.089193
C132	C	0.481293	-0.000324	0.589193
C133	C	0.021949	-0.581721	0.089240
C134	C	0.521949	-0.081721	0.589240
C135	C	0.005268	-0.598303	0.139074
C136	C	0.505268	-0.098303	0.639074
C137	C	-0.023402	-0.565894	0.163965
C138	C	0.476598	-0.065894	0.663965
C139	C	-0.023728	-0.769425	0.367633
C140	C	0.476272	-0.269425	0.867633
N141	N	0.427173	-0.450553	0.482630
N142	N	0.927173	0.049447	0.982630
O143	O	0.589997	-0.458460	0.365361
O144	O	1.089997	0.041540	0.865361
O145	O	0.590185	-0.550997	0.490963
O146	O	1.090185	-0.050997	0.990963
O147	O	0.590104	-0.550786	0.411309
O148	O	1.090104	-0.050786	0.911309
O149	O	0.590077	-0.458671	0.445016
O150	O	1.090077	0.041329	0.945016
O151	O	0.510940	-0.524462	0.437777
O152	O	1.010940	-0.024462	0.937777
O153	O	0.511020	-0.524674	0.517432
O154	O	1.011020	-0.024674	1.017432
O155	O	0.510832	-0.432136	0.391830
O156	O	1.010832	0.067864	0.891830
Zn157	Zn	0.498357	-0.474225	0.458833
Zn158	Zn	0.998357	0.025775	0.958833
Zn159	Zn	0.602660	-0.508908	0.423960
Zn160	Zn	1.102660	-0.008908	0.923960
O161	O	0.510913	-0.432348	0.471484
O162	O	1.010913	0.067652	0.971484
N163	N	0.673844	-0.532580	0.400158
N164	N	1.173844	-0.032580	0.900158
N165	N	0.091520	-0.115070	0.482873
N166	N	0.591520	0.384930	0.982873
O167	O	-0.025663	0.047841	0.474857
O168	O	0.474337	0.547841	0.974857
O169	O	0.099940	0.047877	0.382299
O170	O	0.599940	0.547877	0.882299
O171	O	0.020247	0.047844	0.382560
O172	O	0.520247	0.547844	0.882560
O173	O	0.054030	0.047874	0.474596
O174	O	0.554030	0.547874	0.974596
O175	O	0.046674	-0.031326	0.408942
O176	O	0.546674	0.468674	0.908942
O177	O	0.126367	-0.031293	0.408680
O178	O	0.626367	0.468707	0.908680
O179	O	0.000764	-0.031329	0.501238
O180	O	0.500764	0.468671	1.001238
Zn181	Zn	0.067761	-0.043881	0.459148
Zn182	Zn	0.567761	0.456119	0.959148
Zn183	Zn	0.032943	0.060429	0.424389
Zn184	Zn	0.532943	0.560429	0.924389
O185	O	0.080457	-0.031296	0.500977
O186	O	0.580457	0.468704	1.000977
N187	N	0.009178	0.131618	0.400665
N188	N	0.509178	0.631618	0.900665
N189	N	0.091852	-0.450680	0.818332
N190	N	0.591852	0.049320	1.318332
O191	O	0.083862	-0.567845	0.981235
O192	O	0.583862	-0.067845	1.481235
O193	O	-0.008657	-0.442198	0.981276
O194	O	0.491343	0.057802	1.481276
O195	O	-0.008441	-0.521875	0.981252
O196	O	0.491559	-0.021875	1.481252
O197	O	0.083646	-0.488168	0.981258
O198	O	0.583646	0.011832	1.481258
O199	O	0.017919	-0.495468	0.902085
O200	O	0.517919	0.004532	1.402085
O201	O	0.017703	-0.415791	0.902109
O202	O	0.517703	0.084209	1.402109
O203	O	0.110222	-0.541438	0.902067
O204	O	0.610222	-0.041438	1.402067
Zn205	Zn	0.068148	-0.474422	0.889518
Zn206	Zn	0.568148	0.025578	1.389518
Zn207	Zn	0.033417	-0.509214	0.993825
Zn208	Zn	0.533417	-0.009214	1.493825
O209	O	0.110006	-0.461761	0.902091
O210	O	0.610006	0.038239	1.402091
N211	N	0.009712	-0.532961	1.065011
N212	N	0.509712	-0.032961	1.565011
C213	C	0.030439	-0.413071	0.383027
C214	C	0.530439	0.086929	0.883027
C215	C	0.129046	-0.511580	0.382922
C216	C	0.629046	-0.011580	0.882922
C217	C	0.070334	-0.570496	0.500675
C218	C	0.570334	-0.070496	1.000675
C219	C	-0.028274	-0.471987	0.500780
C220	C	0.471726	0.028013	1.000780
C221	C	0.550625	-0.550579	0.520021
C222	C	1.050625	-0.050579	1.020021
C223	C	0.550527	-0.550317	0.421379
C224	C	1.050527	-0.050317	0.921379
C225	C	0.550389	-0.432554	0.362773
C226	C	1.050389	0.067446	0.862773
C227	C	0.550491	-0.432816	0.461414
C228	C	1.050491	0.067184	0.961414
C229	C	0.128944	0.008394	0.382712
C230	C	0.628944	0.508394	0.882712
C231	C	0.030287	0.008256	0.383068
C232	C	0.530287	0.508256	0.883068
C233	C	-0.028273	0.008252	0.500793
C234	C	0.471727	0.508252	1.000793
C235	C	0.070417	0.008292	0.500470
C236	C	0.570417	0.508292	1.000470
C237	C	-0.008218	-0.413165	0.941698
C238	C	0.491782	0.086835	1.441698
C239	C	-0.007945	-0.511830	0.941653
C240	C	0.492055	-0.011830	1.441653
C241	C	0.109783	-0.570471	0.941646
C242	C	0.609783	-0.070471	1.441646
C243	C	0.109516	-0.471800	0.941673
C244	C	0.609516	0.028200	1.441673
H245	H	0.049370	-0.382321	0.724071
H246	H	0.549370	0.117679	1.224071
H247	H	0.023050	0.008252	0.354152
H248	H	0.523050	0.508252	0.854152
H249	H	-0.064344	0.008241	0.529850
H250	H	0.435656	0.508241	1.029850
H251	H	0.077653	0.008301	0.529384
H252	H	0.577653	0.508301	1.029384
H253	H	0.550674	-0.579628	0.556096
H254	H	1.050674	-0.079628	1.056096
H255	H	-0.037264	-0.377079	0.941710
H256	H	0.462736	0.122921	1.441710
C257	C	-0.225119	-0.608815	0.451456
C258	C	0.274881	-0.108815	0.951456
C259	C	-0.176133	-0.620852	0.426497
C260	C	0.323867	-0.120852	0.926497
C261	C	-0.151184	-0.649553	0.458863
C262	C	0.348816	-0.149553	0.958863
H263	H	-0.233247	-0.591948	0.470918
H264	H	0.266753	-0.091948	0.970918
H265	H	-0.233291	-0.636992	0.470877
H266	H	0.266709	-0.136992	0.970877
H267	H	-0.167964	-0.592679	0.407084
H268	H	0.332036	-0.092679	0.907084
H269	H	-0.167990	-0.637725	0.407037
H270	H	0.332010	-0.137725	0.907037
H271	H	-0.159356	-0.677730	0.478284
H272	H	0.340644	-0.177730	0.978284
H273	H	-0.159317	-0.632683	0.478323
H274	H	0.340683	-0.132683	0.978323
H275	H	-0.117945	-0.657727	0.441933
H276	H	0.382055	-0.157727	0.941933
C277	C	0.550467	-0.588923	0.411856
C278	C	1.050467	-0.088923	0.911856
C279	C	0.509780	-0.601658	0.444316
C280	C	1.009780	-0.101658	0.944316
C281	C	0.509712	-0.637224	0.435562
C282	C	1.009712	-0.137224	0.935562
H283	H	0.550403	-0.577339	0.380367
H284	H	1.050403	-0.077339	0.880367
H285	H	0.578083	-0.616001	0.415397
H286	H	1.078083	-0.116001	0.915397
H287	H	0.482171	-0.574585	0.440771
H288	H	0.982171	-0.074585	0.940771
H289	H	0.509835	-0.613250	0.475808
H290	H	1.009835	-0.113250	0.975808
H291	H	0.537328	-0.664302	0.439103
H292	H	1.037328	-0.164302	0.939103
H293	H	0.509649	-0.625637	0.404073
H294	H	1.009649	-0.125637	0.904073
H295	H	0.482109	-0.645872	0.457588
H296	H	0.982109	-0.145872	0.957588
H297	H	0.550329	-0.403500	0.326702
H298	H	1.050329	0.096500	0.826702
H299	H	-0.036863	-0.519031	0.941619
H300	H	0.463137	-0.019031	1.441619
H301	H	0.138832	-0.606554	0.941627
H302	H	0.638832	-0.106554	1.441627
H303	H	0.138447	-0.464586	0.941669
H304	H	0.638447	0.035414	1.441669
H305	H	0.019320	-0.412483	0.814467
H306	H	0.519320	0.087517	1.314467
C307	C	0.550454	-0.394283	0.471127
C308	C	1.050454	0.105717	0.971127
C309	C	0.550502	-0.411544	0.517589
C310	C	1.050502	0.088456	1.017589
C311	C	0.550461	-0.376058	0.526555
C312	C	1.050461	0.123942	1.026555
H313	H	0.578028	-0.385562	0.449190
H314	H	1.078028	0.114438	0.949190
H315	H	0.522812	-0.367224	0.467636
H316	H	1.022812	0.132776	0.967636
H317	H	0.578141	-0.438594	0.521075
H318	H	1.078141	0.061406	1.021075
H319	H	0.522929	-0.420261	0.539536
H320	H	1.022929	0.079739	1.039536
H321	H	0.522819	-0.349000	0.523064
H322	H	1.022819	0.151000	1.023064
H323	H	0.578036	-0.367340	0.504616
H324	H	1.078036	0.132660	1.004616
H325	H	0.550489	-0.387763	0.558081
H326	H	1.050489	0.112237	1.058081
H327	H	0.167007	-0.486271	0.814352
H328	H	0.667007	0.013729	1.314352
H329	H	0.197059	-0.456117	0.723950
H330	H	0.697059	0.043883	1.223950
C331	C	0.176963	0.008727	0.343920
C332	C	0.676963	0.508727	0.843920
C333	C	0.206329	0.008844	0.360920
C334	C	0.706329	0.508844	0.860920
C335	C	0.250565	0.009158	0.325196
C336	C	0.750565	0.509158	0.825196
H337	H	0.191377	-0.018812	0.335117
H338	H	0.691377	0.481188	0.835117
H339	H	0.172635	0.036408	0.316958
H340	H	0.672635	0.536408	0.816958
H341	H	0.210658	-0.018833	0.387873
H342	H	0.710658	0.481167	0.887873
H343	H	0.191930	0.036381	0.369719
H344	H	0.691930	0.536381	0.869719
H345	H	0.246237	0.036838	0.298235
H346	H	0.746237	0.536838	0.798235
H347	H	0.264974	-0.018381	0.316396
H348	H	0.764974	0.481619	0.816396
H349	H	0.270494	0.009242	0.336724
H350	H	0.770494	0.509242	0.836724
H351	H	0.077514	-0.606615	0.529644
H352	H	0.577514	-0.106615	1.029644
C353	C	-0.076417	-0.462414	0.539419
C354	C	0.423583	0.037586	1.039419
C355	C	-0.105760	-0.415957	0.522302
C356	C	0.394240	0.084043	1.022302
C357	C	-0.150110	-0.407119	0.557885
C358	C	0.349890	0.092881	1.057885
H359	H	-0.090745	-0.484373	0.548125
H360	H	0.409255	0.015627	1.048125
H361	H	-0.072270	-0.465965	0.566463
H362	H	0.427730	0.034035	1.066463
H363	H	-0.109908	-0.412411	0.495266
H364	H	0.390092	0.087589	0.995266
H365	H	-0.091448	-0.393988	0.513600
H366	H	0.408552	0.106012	1.013600
H367	H	-0.145963	-0.410669	0.584929
H368	H	0.354037	0.089331	1.084929
H369	H	-0.164433	-0.429081	0.566588
H370	H	0.335567	0.070919	1.066588
H371	H	-0.170023	-0.375596	0.546278
H372	H	0.329977	0.124404	1.046278
H373	H	0.049217	-0.382297	0.551240
H374	H	0.549217	0.117703	1.051240
H375	H	-0.058738	-0.490513	0.159288
H376	H	0.441262	0.009487	0.659288
C377	C	0.005740	-0.409148	0.524482
C378	C	0.505740	0.090852	1.024482
C379	C	-0.019051	-0.380530	0.553156
C380	C	0.480949	0.119470	1.053156
C381	C	-0.068070	-0.368479	0.565315
C382	C	0.431930	0.131521	1.065315
H383	H	-0.002528	-0.392210	0.496359
H384	H	0.497472	0.107790	0.996359
H385	H	-0.002428	-0.437328	0.541412
H386	H	0.497572	0.062672	1.041412
H387	H	-0.010886	-0.352354	0.536227
H388	H	0.489114	0.147646	1.036227
H389	H	-0.010797	-0.397459	0.581286
H390	H	0.489203	0.102541	1.081286
H391	H	-0.076238	-0.396658	0.582245
H392	H	0.423762	0.103342	1.082245
H393	H	-0.076333	-0.351542	0.537190
H394	H	0.423667	0.148458	1.037190
H395	H	-0.084897	-0.349064	0.584775
H396	H	0.415103	0.150936	1.084775
H397	H	0.166679	-0.486211	0.447227
H398	H	0.666679	0.013789	0.947227
C399	C	0.020970	-0.364935	0.344343
C400	C	0.520970	0.135065	0.844343
C401	C	0.061603	-0.364858	0.303599
C402	C	0.561603	0.135142	0.803599
C403	C	0.052900	-0.320521	0.267957
C404	C	0.552900	0.179479	0.767957
H405	H	-0.004973	-0.359119	0.336871
H406	H	0.495027	0.140881	0.836871
H407	H	0.013455	-0.340727	0.355273
H408	H	0.513455	0.159273	0.855273
H409	H	0.069112	-0.389058	0.292671
H410	H	0.569112	0.110942	0.792671
H411	H	0.087552	-0.370666	0.311056
H412	H	0.587552	0.129334	0.811056
H413	H	0.045385	-0.296314	0.278887
H414	H	0.545385	0.203686	0.778887
H415	H	0.026956	-0.314709	0.260489
H416	H	0.526956	0.185291	0.760489
H417	H	0.080469	-0.320461	0.240310
H418	H	0.580469	0.179539	0.740310
H419	H	0.055974	-0.119015	0.558014
H420	H	0.555974	0.380985	1.058014
H421	H	0.332881	-0.492283	0.542031
H422	H	0.832881	0.007717	1.042031
C423	C	0.210154	-0.459393	0.474013
C424	C	0.710154	0.040607	0.974013
C425	C	0.234943	-0.488034	0.445361
C426	C	0.734943	0.011966	0.945361
C427	C	0.283963	-0.500129	0.433243
C428	C	0.783963	-0.000129	0.933243
H429	H	0.218365	-0.431243	0.457080
H430	H	0.718365	0.068757	0.957080
H431	H	0.218382	-0.476329	0.502165
H432	H	0.718382	0.023671	1.002165
H433	H	0.226719	-0.471098	0.417214
H434	H	0.726719	0.028902	0.917214
H435	H	0.226747	-0.516189	0.462285
H436	H	0.726747	-0.016189	0.962285
H437	H	0.292190	-0.517064	0.461395
H438	H	0.792190	-0.017064	0.961395
H439	H	0.292168	-0.471976	0.416312
H440	H	0.792168	0.028024	0.916312
H441	H	0.300788	-0.519566	0.413806
H442	H	0.800788	-0.019566	0.913806
H443	H	0.423225	-0.376108	0.456057
H444	H	0.923225	0.123892	0.956057
C445	C	0.429961	-0.535615	0.513820
C446	C	0.929961	-0.035615	1.013820
C447	C	0.397490	-0.560102	0.538142
C448	C	0.897490	-0.060102	1.038142
C449	C	0.422329	-0.608746	0.545270
C450	C	0.922329	-0.108746	1.045270
H451	H	0.449381	-0.540295	0.483905
H452	H	0.949381	-0.040295	0.983905
H453	H	0.449411	-0.547323	0.532082
H454	H	0.949411	-0.047323	1.032082
H455	H	0.378048	-0.548398	0.519880
H456	H	0.878048	-0.048398	1.019880
H457	H	0.378069	-0.555436	0.568062
H458	H	0.878069	-0.055436	1.068062
H459	H	0.441779	-0.620455	0.563533
H460	H	0.941779	-0.120455	1.063533
H461	H	0.441748	-0.613422	0.515353
H462	H	0.941748	-0.113422	1.015353
H463	H	0.400301	-0.625368	0.561777
H464	H	0.900301	-0.125368	1.061777
C465	C	0.326140	-0.332781	0.484303
C466	C	0.826140	0.167219	0.984303
C467	C	0.358615	-0.308300	0.460004
C468	C	0.858615	0.191700	0.960004
C469	C	0.333780	-0.259663	0.452920
C470	C	0.833780	0.240337	0.952920
H471	H	0.306679	-0.321031	0.466045
H472	H	0.806679	0.178969	0.966045
H473	H	0.306731	-0.328143	0.514245
H474	H	0.806731	0.171857	1.014245
H475	H	0.378016	-0.312935	0.430067
H476	H	0.878016	0.187065	0.930067
H477	H	0.378076	-0.320035	0.478255
H478	H	0.878076	0.179965	0.978255
H479	H	0.314370	-0.255024	0.482861
H480	H	0.814370	0.244976	0.982861
H481	H	0.314320	-0.247918	0.434662
H482	H	0.814320	0.252082	0.934662
H483	H	0.355810	-0.243047	0.436436
H484	H	0.855810	0.256953	0.936436
H485	H	0.159856	-0.209371	0.440456
H486	H	0.659856	0.290629	0.940456
H487	H	0.165136	-0.518689	0.353905
H488	H	0.665136	-0.018689	0.853905
H489	H	0.086148	-0.209418	0.588113
H490	H	0.586148	0.290582	1.088113
C491	C	0.132901	-0.112256	0.397046
C492	C	0.632901	0.387744	0.897046
C493	C	0.115950	-0.124389	0.376555
C494	C	0.615950	0.375611	0.876555
C495	C	0.127917	-0.099524	0.327546
C496	C	0.627917	0.400476	0.827546
H497	H	0.118900	-0.079003	0.391739
H498	H	0.618900	0.420997	0.891739
H499	H	0.166524	-0.120418	0.383005
H500	H	0.666524	0.379582	0.883005
H501	H	0.082335	-0.116223	0.390591
H502	H	0.582335	0.383777	0.890591
H503	H	0.129950	-0.157638	0.381849
H504	H	0.629950	0.342362	0.881849
H505	H	0.161539	-0.107687	0.313506
H506	H	0.661539	0.392313	0.813506
H507	H	0.113915	-0.066272	0.322244
H508	H	0.613915	0.433728	0.822244
H509	H	0.116422	-0.107756	0.313637
H510	H	0.616422	0.392244	0.813637
C511	C	-0.031804	-0.447117	0.062205
C512	C	0.468196	0.052883	0.562205
C513	C	-0.060494	-0.422289	0.094673
C514	C	0.439506	0.077711	0.594673
C515	C	-0.072571	-0.373273	0.069830
C516	C	0.427429	0.126727	0.569830
H517	H	-0.003651	-0.438911	0.042808
H518	H	0.496349	0.061089	0.542808
H519	H	-0.048696	-0.438914	0.042730
H520	H	0.451304	0.061086	0.542730
H521	H	-0.043602	-0.430488	0.114140
H522	H	0.456398	0.069512	0.614140
H523	H	-0.088653	-0.430480	0.114071
H524	H	0.411347	0.069520	0.614071
H525	H	-0.089463	-0.365070	0.050355
H526	H	0.410537	0.134930	0.550355
H527	H	-0.044417	-0.365073	0.050434
H528	H	0.455583	0.134927	0.550434
H529	H	-0.092042	-0.356422	0.091856
H530	H	0.407958	0.143578	0.591856
H531	H	0.015032	-0.638195	0.159378
H532	H	0.515032	-0.138195	0.659378
C533	C	0.053081	-0.616983	0.062301
C534	C	0.553081	-0.116983	0.562301
C535	C	0.060014	-0.663435	0.094808
C536	C	0.560014	-0.163435	0.594808
C537	C	0.088697	-0.695930	0.070010
C538	C	0.588697	-0.195930	0.570010
H539	H	0.037939	-0.612242	0.042816
H540	H	0.537939	-0.112242	0.542816
H541	H	0.082982	-0.612262	0.042918
H542	H	0.582982	-0.112262	0.542918
H543	H	0.030118	-0.668154	0.114183
H544	H	0.530118	-0.168154	0.614183
H545	H	0.075162	-0.668191	0.114295
H546	H	0.575162	-0.168191	0.614295
H547	H	0.118599	-0.691208	0.050626
H548	H	0.618599	-0.191208	0.550626
H549	H	0.073553	-0.691184	0.050525
H550	H	0.573553	-0.191184	0.550525
H551	H	0.093409	-0.727450	0.092062
H552	H	0.593409	-0.227450	0.592062
C553	C	-0.066830	-0.481685	0.324594
C554	C	0.433170	0.018315	0.824594
C555	C	-0.108336	-0.453074	0.349580
C556	C	0.391664	0.046926	0.849580
C557	C	-0.137020	-0.420639	0.320959
C558	C	0.362980	0.079361	0.820959
H559	H	-0.049952	-0.462221	0.296430
H560	H	0.450048	0.037779	0.796430
H561	H	-0.075020	-0.498559	0.316400
H562	H	0.424980	0.001441	0.816400
H563	H	-0.100146	-0.436202	0.357768
H564	H	0.399854	0.063798	0.857768
H565	H	-0.125227	-0.472525	0.377742
H566	H	0.374773	0.027475	0.877742
H567	H	-0.145209	-0.437512	0.312766
H568	H	0.354791	0.062488	0.812766
H569	H	-0.120137	-0.401178	0.292797
H570	H	0.379863	0.098822	0.792797
H571	H	-0.165186	-0.401225	0.337910
H572	H	0.334814	0.098775	0.837910
C573	C	-0.032227	-0.447121	0.359360
C574	C	0.467773	0.052879	0.859360
C575	C	-0.057199	-0.435171	0.400947
C576	C	0.442801	0.064829	0.900947
C577	C	-0.069279	-0.386180	0.388994
C578	C	0.430721	0.113820	0.888994
H579	H	-0.004072	-0.438931	0.342519
H580	H	0.495928	0.061069	0.842519
H581	H	-0.051645	-0.430185	0.339886
H582	H	0.448355	0.069815	0.839886
H583	H	-0.037782	-0.452102	0.420413
H584	H	0.462218	0.047898	0.920413
H585	H	-0.085360	-0.443350	0.417793
H586	H	0.414640	0.056650	0.917793
H587	H	-0.088697	-0.369243	0.369520
H588	H	0.411303	0.130757	0.869520
H589	H	-0.041121	-0.377994	0.372152
H590	H	0.458879	0.122006	0.872152
H591	H	-0.086228	-0.378064	0.417208
H592	H	0.413772	0.121936	0.917208
C593	C	0.052483	-0.616960	0.444303
C594	C	0.552483	-0.116960	0.944303
C595	C	0.059440	-0.663413	0.451293
C596	C	0.559440	-0.163413	0.951293
C597	C	0.088005	-0.695905	0.480026
C598	C	0.588005	-0.195905	0.980026
H599	H	0.082384	-0.612269	0.429175
H600	H	0.582384	-0.112269	0.929175
H601	H	0.037231	-0.612186	0.474185
H602	H	0.537231	-0.112186	0.974185
H603	H	0.074692	-0.668186	0.421416
H604	H	0.574692	-0.168186	0.921416
H605	H	0.029547	-0.668120	0.466427
H606	H	0.529547	-0.168120	0.966427
H607	H	0.072754	-0.691130	0.509908
H608	H	0.572754	-0.191130	1.009908
H609	H	0.117904	-0.691209	0.464895
H610	H	0.617904	-0.191209	0.964895
H611	H	0.092726	-0.727427	0.484776
H612	H	0.592726	-0.227427	0.984776
H613	H	0.014660	-0.638178	0.406265
H614	H	0.514660	-0.138178	0.906265
H615	H	0.081021	-0.864532	0.371574
H616	H	0.581021	-0.364532	0.871574
C617	C	0.059719	-0.767464	0.335021
C618	C	0.559719	-0.267464	0.835021
C619	C	0.105826	-0.799990	0.332469
C620	C	0.605826	-0.299990	0.832469
C621	C	0.137939	-0.775212	0.308881
C622	C	0.637939	-0.275212	0.808881
H623	H	0.058557	-0.748027	0.303766
H624	H	0.558557	-0.248027	0.803766
H625	H	0.051392	-0.748032	0.352012
H626	H	0.551392	-0.248032	0.852012
H627	H	0.114151	-0.819414	0.315477
H628	H	0.614151	-0.319414	0.815477
H629	H	0.107003	-0.819428	0.363717
H630	H	0.607003	-0.319428	0.863717
H631	H	0.129612	-0.755780	0.325873
H632	H	0.629612	-0.255780	0.825873
H633	H	0.136773	-0.755776	0.277629
H634	H	0.636773	-0.255776	0.777629
H635	H	0.169226	-0.797277	0.307151
H636	H	0.669226	-0.297277	0.807151
H637	H	-0.065262	-0.864385	0.427124
H638	H	0.434738	-0.364385	0.927124
H639	H	-0.322352	-0.570775	0.472713
H640	H	0.177648	-0.070775	0.972713
C641	C	-0.108536	-0.767287	0.398860
C642	C	0.391464	-0.267287	0.898860
C643	C	-0.133031	-0.799740	0.423089
C644	C	0.366969	-0.299740	0.923089
C645	C	-0.181650	-0.774877	0.430090
C646	C	0.318350	-0.274877	0.930090
H647	H	-0.120318	-0.747832	0.417135
H648	H	0.379682	-0.247832	0.917135
H649	H	-0.113118	-0.747866	0.368893
H650	H	0.386882	-0.247866	0.868893
H651	H	-0.128451	-0.819153	0.453051
H652	H	0.371549	-0.319153	0.953051
H653	H	-0.121263	-0.819195	0.404822
H654	H	0.378737	-0.319195	0.904822
H655	H	-0.186233	-0.755456	0.400123
H656	H	0.313767	-0.255456	0.900123
H657	H	-0.193428	-0.755423	0.448364
H658	H	0.306572	-0.255423	0.948364
H659	H	-0.198276	-0.796892	0.446526
H660	H	0.301724	-0.296892	0.946526
H661	H	-0.231721	-0.527215	0.295000
H662	H	0.268279	-0.027215	0.795000
C663	C	-0.328782	-0.489196	0.316107
C664	C	0.171218	0.010804	0.816107
C665	C	-0.296240	-0.482246	0.269677
C666	C	0.203760	0.017754	0.769677
C667	C	-0.320997	-0.453563	0.237143
C668	C	0.179003	0.046437	0.737143
H669	H	-0.348225	-0.504347	0.320793
H670	H	0.151775	-0.004347	0.820793
H671	H	-0.348202	-0.459297	0.320842
H672	H	0.151798	0.040703	0.820842
H673	H	-0.276828	-0.512140	0.264943
H674	H	0.223172	-0.012140	0.764943
H675	H	-0.276795	-0.467090	0.264975
H676	H	0.223205	0.032910	0.764975
H677	H	-0.340417	-0.423664	0.241878
H678	H	0.159583	0.076336	0.741878
H679	H	-0.340440	-0.468717	0.241834
H680	H	0.159560	0.031283	0.741834
H681	H	-0.298922	-0.448840	0.205636
H682	H	0.201078	0.051160	0.705636
