data_functionalizedCrystal
_audit_creation_method	'MofGen! by Chris Wilmer'
_symmetry_space_group_name_H-M	'P1'
_symmetry_Int_Tables_number	1
_symmetry_cell_setting	triclinic
loop_
_symmetry_equiv_pos_as_xyz
  x,y,z
_cell_length_a	13.897449
_cell_length_b	18.050589
_cell_length_c	13.897441
_cell_angle_alpha	89.973098
_cell_angle_beta	89.978743
_cell_angle_gamma	90.029048
loop_
_atom_site_label
_atom_site_type_symbol
_atom_site_fract_x
_atom_site_fract_y
_atom_site_fract_z
Zn1	Zn	1.474612	-0.295626	-0.545468
Zn2	Zn	1.724612	-0.045626	-0.295468
Zn3	Zn	1.974612	0.204374	-0.045468
Zn4	Zn	2.224612	0.454374	0.204532
Zn5	Zn	1.474482	-0.419829	-0.384177
Zn6	Zn	1.724482	-0.169829	-0.134177
Zn7	Zn	1.974482	0.080171	0.115823
Zn8	Zn	2.224482	0.330171	0.365823
Zn9	Zn	1.313307	-0.295659	-0.384179
Zn10	Zn	1.563307	-0.045659	-0.134179
Zn11	Zn	1.813307	0.204341	0.115821
Zn12	Zn	2.063307	0.454341	0.365821
Zn13	Zn	1.313253	-0.419781	-0.545422
Zn14	Zn	1.563253	-0.169781	-0.295422
Zn15	Zn	1.813253	0.080219	-0.045422
Zn16	Zn	2.063253	0.330219	0.204578
O17	O	1.393913	-0.357724	-0.464811
O18	O	1.643913	-0.107724	-0.214811
O19	O	1.893913	0.142276	0.035189
O20	O	2.143913	0.392276	0.285189
O21	O	1.609576	-0.312109	-0.524091
O22	O	1.859576	-0.062109	-0.274091
O23	O	2.109576	0.187891	-0.024091
O24	O	2.359576	0.437891	0.225909
O25	O	1.453070	-0.403391	-0.249195
O26	O	1.703070	-0.153391	0.000805
O27	O	1.953070	0.096609	0.250805
O28	O	2.203070	0.346609	0.500805
O29	O	1.334781	-0.191730	-0.405594
O30	O	1.584781	0.058270	-0.155594
O31	O	1.834781	0.308270	0.094406
O32	O	2.084781	0.558270	0.344406
O33	O	1.609481	-0.403359	-0.405591
O34	O	1.859481	-0.153359	-0.155591
O35	O	2.109481	0.096641	0.094409
O36	O	2.359481	0.346641	0.344409
O37	O	1.453291	-0.191706	-0.524093
O38	O	1.703291	0.058294	-0.274093
O39	O	1.953291	0.308294	-0.024093
O40	O	2.203291	0.558294	0.225907
O41	O	1.334655	-0.312164	-0.249197
O42	O	1.584655	-0.062164	0.000803
O43	O	1.834655	0.187836	0.250803
O44	O	2.084655	0.437836	0.500803
O45	O	1.178318	-0.312117	-0.405550
O46	O	1.428318	-0.062117	-0.155550
O47	O	1.678318	0.187883	0.094450
O48	O	1.928318	0.437883	0.344450
O49	O	1.334689	-0.403278	-0.680410
O50	O	1.584689	-0.153278	-0.430410
O51	O	1.834689	0.096722	-0.180410
O52	O	2.084689	0.346722	0.069590
O53	O	1.178279	-0.403309	-0.524014
O54	O	1.428279	-0.153309	-0.274014
O55	O	1.678279	0.096691	-0.024014
O56	O	1.928279	0.346691	0.225986
O57	O	1.453239	-0.312062	-0.680444
O58	O	1.703239	-0.062062	-0.430444
O59	O	1.953239	0.187938	-0.180444
O60	O	2.203239	0.437938	0.069556
O61	O	1.453018	-0.523747	-0.405546
O62	O	1.703018	-0.273747	-0.155546
O63	O	1.953018	-0.023747	0.094454
O64	O	2.203018	0.226253	0.344454
O65	O	1.334564	-0.523712	-0.524013
O66	O	1.584564	-0.273712	-0.274013
O67	O	1.834564	-0.023712	-0.024013
O68	O	2.084564	0.226288	0.225987
C69	C	1.143299	-0.357712	-0.464778
C70	C	1.393299	-0.107712	-0.214778
C71	C	1.643299	0.142288	0.035222
C72	C	1.893299	0.392288	0.285222
C73	C	1.036085	-0.357725	-0.464786
C74	C	1.286085	-0.107725	-0.214786
C75	C	1.536085	0.142275	0.035214
C76	C	1.786085	0.392275	0.285214
C77	C	0.949015	-0.357728	-0.464802
C78	C	1.199015	-0.107728	-0.214802
C79	C	1.449015	0.142272	0.035198
C80	C	1.699015	0.392272	0.285198
C81	C	0.839783	-0.357733	-0.464832
C82	C	1.089783	-0.107733	-0.214832
C83	C	1.339783	0.142267	0.035168
C84	C	1.589783	0.392267	0.285168
C85	C	1.393797	-0.550676	-0.464795
C86	C	1.643797	-0.300676	-0.214795
C87	C	1.893797	-0.050676	0.035205
C88	C	2.143797	0.199324	0.285205
C89	C	1.393835	-0.633222	-0.464821
C90	C	1.643835	-0.383222	-0.214821
C91	C	1.893835	-0.133222	0.035179
C92	C	2.143835	0.116778	0.285179
C93	C	1.329483	-0.832680	-0.529220
C94	C	1.579483	-0.582680	-0.279220
C95	C	1.829483	-0.332680	-0.029220
C96	C	2.079483	-0.082680	0.220780
C97	C	1.305970	-0.882125	-0.441200
C98	C	1.555970	-0.632125	-0.191200
C99	C	1.805970	-0.382125	0.058800
C100	C	2.055970	-0.132125	0.308800
C101	C	1.393930	-0.784352	-0.464833
C102	C	1.643930	-0.534352	-0.214833
C103	C	1.893930	-0.284352	0.035167
C104	C	2.143930	-0.034352	0.285167
C105	C	1.417491	-0.881989	-0.552863
C106	C	1.667491	-0.631989	-0.302863
C107	C	1.917491	-0.381989	-0.052863
C108	C	2.167491	-0.131989	0.197137
C109	C	1.394020	-0.930337	-0.464853
C110	C	1.644020	-0.680337	-0.214853
C111	C	1.894020	-0.430337	0.035147
C112	C	2.144020	-0.180337	0.285147
C113	C	1.370370	-0.832709	-0.376767
C114	C	1.620370	-0.582709	-0.126767
C115	C	1.870370	-0.332709	0.123233
C116	C	2.120370	-0.082709	0.373233
C117	C	1.481933	-0.832569	-0.488489
C118	C	1.731933	-0.582569	-0.238489
C119	C	1.981933	-0.332569	0.011511
C120	C	2.231933	-0.082569	0.261511
C121	C	1.458453	-0.881992	-0.400409
C122	C	1.708453	-0.631992	-0.150409
C123	C	1.958453	-0.381992	0.099591
C124	C	2.208453	-0.131992	0.349591
C125	C	1.393876	-0.700254	-0.464823
C126	C	1.643876	-0.450254	-0.214823
C127	C	1.893876	-0.200254	0.035177
C128	C	2.143876	0.049746	0.285177
C129	C	1.394074	-1.014434	-0.464854
C130	C	1.644074	-0.764434	-0.214854
C131	C	1.894074	-0.514434	0.035146
C132	C	2.144074	-0.264434	0.285146
C133	C	1.645506	-0.357736	-0.464846
C134	C	1.895506	-0.107736	-0.214846
C135	C	2.145506	0.142264	0.035154
C136	C	2.395506	0.392264	0.285154
C137	C	1.752720	-0.357741	-0.464860
C138	C	2.002720	-0.107741	-0.214860
C139	C	2.252720	0.142259	0.035140
C140	C	2.502720	0.392259	0.285140
C141	C	1.393972	-0.357661	-0.716405
C142	C	1.643972	-0.107661	-0.466405
C143	C	1.893972	0.142339	-0.216405
C144	C	2.143972	0.392339	0.033595
C145	C	1.393998	-0.357635	-0.823619
C146	C	1.643998	-0.107635	-0.573619
C147	C	1.893998	0.142365	-0.323619
C148	C	2.143998	0.392365	-0.073619
C149	C	1.394057	-0.164018	-0.464849
C150	C	1.644057	0.085982	-0.214849
C151	C	1.894057	0.335982	0.035151
C152	C	2.144057	0.585982	0.285151
C153	C	1.394118	-0.081472	-0.464864
C154	C	1.644118	0.168528	-0.214864
C155	C	1.894118	0.418528	0.035136
C156	C	2.144118	0.668528	0.285136
C157	C	1.394017	-0.357614	-0.910688
C158	C	1.644017	-0.107614	-0.660688
C159	C	1.894017	0.142386	-0.410688
C160	C	2.144017	0.392386	-0.160688
C161	C	1.394045	-0.357580	-1.019921
C162	C	1.644045	-0.107580	-0.769921
C163	C	1.894045	0.142420	-0.519921
C164	C	2.144045	0.392420	-0.269921
C165	C	1.393910	-0.357732	-0.214197
C166	C	1.643910	-0.107732	0.035803
C167	C	1.893910	0.142268	0.285803
C168	C	2.143910	0.392268	0.535803
C169	C	1.394072	-0.357550	-0.106984
C170	C	1.644072	-0.107550	0.143016
C171	C	1.894072	0.142450	0.393016
C172	C	2.144072	0.392450	0.643016
H173	H	1.274902	-0.811028	-0.583593
H174	H	1.524902	-0.561028	-0.333593
H175	H	1.774902	-0.311028	-0.083593
H176	H	2.024902	-0.061028	0.166407
H177	H	1.512992	-0.903507	-0.345905
H178	H	1.762992	-0.653507	-0.095905
H179	H	2.012992	-0.403507	0.154095
H180	H	2.262992	-0.153507	0.404095
O181	O	1.443850	-0.910661	-0.651462
O182	O	1.693850	-0.660661	-0.401462
O183	O	1.943850	-0.410661	-0.151462
O184	O	2.193850	-0.160661	0.098538
H185	H	1.390200	-0.890911	-0.704754
H186	H	1.640200	-0.640911	-0.454754
H187	H	1.890200	-0.390911	-0.204754
H188	H	2.140200	-0.140911	0.045246
O189	O	1.207446	-0.910959	-0.414690
O190	O	1.457446	-0.660959	-0.164690
O191	O	1.707446	-0.410959	0.085310
O192	O	1.957446	-0.160959	0.335310
H193	H	1.154037	-0.891215	-0.468229
H194	H	1.404037	-0.641215	-0.218229
H195	H	1.654037	-0.391215	0.031771
H196	H	1.904037	-0.141215	0.281771
O197	O	1.343899	-0.804165	-0.278136
O198	O	1.593899	-0.554165	-0.028136
O199	O	1.843899	-0.304165	0.221864
O200	O	2.093899	-0.054165	0.471864
H201	H	1.344031	-0.742677	-0.278913
H202	H	1.594031	-0.492677	-0.028913
H203	H	1.844031	-0.242677	0.221087
H204	H	2.094031	0.007323	0.471087
H205	H	1.556295	-0.810788	-0.508521
H206	H	1.806295	-0.560788	-0.258521
H207	H	2.056295	-0.310788	-0.008521
H208	H	2.306295	-0.060788	0.241479
