data_functionalizedCrystal
_audit_creation_method	'MofGen! by Chris Wilmer'
_symmetry_space_group_name_H-M	'P1'
_symmetry_Int_Tables_number	1
_symmetry_cell_setting	triclinic
loop_
_symmetry_equiv_pos_as_xyz
  x,y,z
_cell_length_a	19.851628
_cell_length_b	21.606444
_cell_length_c	21.606444
_cell_angle_alpha	60.001331
_cell_angle_beta	90.005276
_cell_angle_gamma	59.997133
loop_
_atom_site_label
_atom_site_type_symbol
_atom_site_fract_x
_atom_site_fract_y
_atom_site_fract_z
Zr1	Zr	0.648965	0.677381	-0.081128
O2	O	0.541391	0.806515	-0.179963
O3	O	0.681943	0.548258	-0.050833
O4	O	0.681934	0.677382	-0.179951
O5	O	0.541405	0.677387	0.051009
O6	O	0.792796	0.677370	-0.179939
O7	O	0.541400	0.677391	-0.050845
O8	O	0.792812	0.446391	0.051030
O9	O	0.541390	0.908366	-0.179960
O10	O	0.778741	0.601355	-0.037900
O11	O	0.696011	0.601361	0.038104
O12	O	0.696001	0.753387	-0.113917
O13	O	0.613270	0.753393	-0.037913
Zr14	Zr	0.825786	0.677355	0.081337
Zr15	Zr	0.825777	0.677362	-0.081109
Zr16	Zr	0.648974	0.677374	0.081317
Zr17	Zr	0.648963	0.839821	-0.081123
Zr18	Zr	0.825787	0.514915	0.081332
O19	O	0.792807	0.806478	0.051042
O20	O	0.792795	0.806488	-0.179935
O21	O	0.541404	0.806505	0.051014
O22	O	0.933359	0.548221	0.180172
O23	O	0.933347	0.548231	-0.050805
O24	O	0.681956	0.548248	0.180144
O25	O	0.933345	0.677349	-0.050801
O26	O	0.792816	0.677354	0.180160
O27	O	0.681954	0.677366	0.180148
O28	O	0.933351	0.677345	0.051053
O29	O	0.681932	0.908351	-0.179944
O30	O	0.792819	0.446385	0.180153
O31	O	0.933360	0.446370	0.180168
O32	O	0.933353	0.446375	0.051046
O33	O	0.541397	0.908360	-0.050837
O34	O	0.681939	0.908345	-0.050821
O35	O	0.778750	0.601349	0.114125
O36	O	0.861481	0.601343	0.038122
O37	O	0.778740	0.753375	-0.037895
O38	O	0.696009	0.753381	0.038108
C39	C	0.737378	0.474180	0.000098
C40	C	0.737378	0.405220	0.000095
C41	C	0.780561	0.372819	-0.039579
C42	C	0.780564	0.308019	-0.039573
C43	C	0.737379	0.275625	0.000102
C44	C	0.694195	0.308029	0.039781
C45	C	0.694197	0.372823	0.039780
C46	C	0.694185	0.046719	0.039787
C47	C	0.694184	-0.018078	0.039783
C48	C	0.780552	-0.018084	-0.039566
C49	C	0.780554	0.046710	-0.039567
C50	C	0.737374	0.079104	0.000115
C51	C	0.737373	0.149367	0.000110
C52	C	0.737375	0.205369	0.000103
C53	C	0.516211	0.677392	0.000080
C54	C	0.441149	0.677400	0.000071
C55	C	0.214691	0.760275	-0.041351
C56	C	0.192328	0.718841	-0.071387
C57	C	0.303743	0.677377	0.000093
C58	C	0.192365	0.718817	0.030115
C59	C	0.171011	0.677362	0.000114
C60	C	0.282369	0.635943	-0.029984
C61	C	0.282403	0.635931	0.071556
C62	C	0.260094	0.594436	0.041539
C63	C	0.380205	0.677389	0.000079
C64	C	0.094554	0.677344	0.000126
C65	C	0.958540	0.677344	0.000129
C66	C	1.033601	0.677336	0.000137
C67	C	0.737364	0.677377	-0.203090
C68	C	0.737360	0.677380	-0.272053
C69	C	0.737373	0.880556	0.000111
C70	C	0.737372	0.949516	0.000113
C71	C	0.694170	0.756738	-0.344131
C72	C	0.694177	0.756736	-0.408926
C73	C	0.737370	0.677374	-0.401641
C74	C	0.780566	0.598009	-0.329554
C75	C	0.780563	0.598012	-0.264761
C76	C	0.780579	0.597994	-0.590857
C77	C	0.780576	0.597997	-0.655658
C78	C	0.694193	0.756717	-0.735022
C79	C	0.694190	0.756721	-0.670229
C80	C	0.737389	0.677357	-0.598149
C81	C	0.737382	0.677360	-0.527891
C82	C	0.737373	0.677369	-0.471897
C83	C	0.737386	0.677359	0.203299
C84	C	0.737390	0.677356	0.272261
C85	C	0.958542	0.474156	0.000122
C86	C	1.033604	0.405188	0.000129
C87	C	0.737389	0.474171	0.203292
C88	C	0.737393	0.405208	0.272252
C89	C	0.958553	0.474147	0.203317
C90	C	1.033619	0.405176	0.272286
C91	C	0.516197	0.880589	-0.203108
C92	C	0.441131	0.949560	-0.272077
C93	C	0.516208	0.880580	0.000086
C94	C	0.441146	0.949548	0.000080
C95	C	0.737362	0.880565	-0.203084
C96	C	0.737357	0.949528	-0.272044
C97	C	1.025665	0.372806	-0.039558
C98	C	1.096187	0.308012	-0.039567
C99	C	1.174647	0.275597	0.000115
C100	C	1.182585	0.307985	0.039802
C101	C	1.112064	0.372782	0.039807
C102	C	0.780584	0.372816	0.344326
C103	C	0.780586	0.308027	0.409128
C104	C	0.737400	0.275627	0.401854
C105	C	0.694204	0.308025	0.329773
C106	C	0.694198	0.372818	0.264973
C107	C	1.112063	0.372784	0.265001
C108	C	1.182602	0.307987	0.329798
C109	C	1.174696	0.275579	0.401879
C110	C	1.096244	0.307978	0.409162
C111	C	1.025706	0.372778	0.344366
C112	C	0.362688	0.981960	-0.264792
C113	C	0.292149	1.046777	-0.329589
C114	C	0.300055	1.079188	-0.401670
C115	C	0.378507	1.046785	-0.408953
C116	C	0.449044	0.981974	-0.344157
C117	C	0.449085	0.981937	0.039760
C118	C	0.378563	1.046749	0.039751
C119	C	0.300103	1.079166	0.000067
C120	C	0.292166	1.046775	-0.039618
C121	C	0.362687	0.981969	-0.039613
C122	C	0.780551	0.981907	-0.264746
C123	C	0.780563	1.046697	-0.329535
C124	C	0.737375	1.079110	-0.401621
C125	C	0.694180	1.046724	-0.408918
C126	C	0.694174	0.981931	-0.344130
H127	H	0.815716	0.073086	-0.071877
F128	F	0.648219	0.841185	-0.811742
F129	F	0.826551	0.513524	-0.647899
F130	F	0.826527	0.513527	-0.514152
F131	F	0.141650	0.764629	0.063291
H132	H	0.321063	0.600933	-0.055435
F133	F	1.266088	0.273514	0.322031
H134	H	1.232138	0.222815	0.454634
F135	F	0.648195	0.841208	-0.351894
H136	H	0.961785	0.399198	-0.071881
F137	F	0.225055	1.148139	0.000070
F138	F	0.826535	1.081157	-0.321753
H139	H	0.815715	-0.044470	-0.071875
F140	F	0.141594	0.764636	-0.150369
H141	H	0.658996	0.955575	-0.350083
H142	H	0.815719	0.955527	-0.206055
H143	H	1.089708	0.281649	-0.071886
H144	H	0.242612	1.131961	-0.454425
F145	F	0.648232	0.081185	0.082023
F146	F	0.648214	1.081235	-0.485644
F147	F	0.333135	0.590173	0.150523
H148	H	0.961836	0.399144	0.350308
F149	F	1.120526	0.407234	0.082054
F150	F	0.386909	1.081286	-0.485674
F151	F	1.266095	0.273475	0.082034
H152	H	0.815723	0.399194	-0.071890
H153	H	0.659037	0.281644	0.072089
F154	F	1.120496	0.407266	0.188293
F155	F	0.532528	0.947492	-0.351922
F156	F	0.354225	0.947500	-0.081844
F157	F	1.087842	0.273479	0.485882
F158	F	0.208656	1.081283	-0.081848
H159	H	0.737387	1.131869	-0.454370
H160	H	0.815727	0.281638	-0.071878
F161	F	0.208662	1.081249	-0.321822
H162	H	0.196237	0.830369	-0.076449
H163	H	0.659031	0.399205	0.072084
F164	F	0.648219	-0.052553	0.082014
F165	F	0.532582	0.947449	0.081998
F166	F	0.284355	0.502767	0.087314
F167	F	0.648207	0.841201	-0.485638
F168	F	0.648208	0.841189	-0.677989
H169	H	0.659043	0.281635	0.323861
H170	H	0.815752	0.399189	0.350263
F171	F	0.826539	0.513548	-0.188048
F172	F	0.826538	0.513546	-0.321802
H173	H	0.815764	0.281656	0.467813
F174	F	1.249696	0.206632	0.000104
F175	F	0.387028	1.081208	0.081994
F176	F	0.737414	0.206668	0.470828
H177	H	0.659029	0.399183	0.206289
F178	F	0.354254	0.947476	-0.188084
