data_functionalizedCrystal
_audit_creation_method	'MofGen! by Chris Wilmer'
_symmetry_space_group_name_H-M	'P1'
_symmetry_Int_Tables_number	1
_symmetry_cell_setting	triclinic
loop_
_symmetry_equiv_pos_as_xyz
  x,y,z
_cell_length_a	10.654546
_cell_length_b	10.654550
_cell_length_c	16.776229
_cell_angle_alpha	89.994543
_cell_angle_beta	89.991956
_cell_angle_gamma	84.484193
loop_
_atom_site_label
_atom_site_type_symbol
_atom_site_fract_x
_atom_site_fract_y
_atom_site_fract_z
O1	O	1.667848	0.176381	-0.066304
O2	O	1.302369	0.193192	-0.066301
O3	O	1.493512	0.002047	-0.066299
O4	O	1.476706	0.367526	-0.066305
O5	O	1.493486	0.002035	0.066277
O6	O	1.302344	0.193179	0.066275
O7	O	1.667823	0.176369	0.066273
Zn8	Zn	1.485079	0.184772	0.087324
Zn9	Zn	1.485113	0.184788	-0.087352
O10	O	1.476680	0.367513	0.066271
C11	C	1.255558	0.191952	-0.000013
C12	C	1.116115	0.188262	-0.000012
C13	C	1.050634	0.186522	-0.072283
C14	C	0.919613	0.183045	-0.072289
C15	C	0.919566	0.183042	0.072253
C16	C	1.050584	0.186528	0.072259
C17	C	1.116165	0.188256	-0.144553
C18	C	1.050685	0.186515	-0.216830
C19	C	0.919664	0.183038	-0.216836
C20	C	0.854124	0.181301	-0.144566
C21	C	1.492265	-0.044757	-0.000012
C22	C	1.488573	-0.184200	-0.000015
C23	C	1.601115	-0.263687	-0.000013
C24	C	1.597638	-0.394708	-0.000019
C25	C	1.369068	-0.366742	-0.000024
C26	C	1.372546	-0.235724	-0.000024
C27	C	1.717142	-0.212164	-0.000004
C28	C	1.829693	-0.291652	-0.000001
C29	C	1.826216	-0.422673	-0.000007
C30	C	1.710188	-0.474206	-0.000015
C31	C	1.714633	0.177608	-0.000017
C32	C	1.854077	0.181298	-0.000023
C33	C	1.477927	0.414317	-0.000018
C34	C	1.481619	0.553761	-0.000020
N35	N	1.485065	0.184761	0.206535
N36	N	1.485137	0.184790	-0.206563
C37	C	1.569729	0.100157	0.248253
C38	C	1.569736	0.100156	0.331705
C39	C	1.485084	0.184766	0.373438
C40	C	1.400411	0.269373	0.331714
C41	C	1.400399	0.269367	0.248263
C42	C	1.400456	0.269398	0.668261
C43	C	1.400477	0.269400	0.751718
C44	C	1.569794	0.100187	0.751703
C45	C	1.569782	0.100181	0.668252
C46	C	1.485105	0.184784	0.626536
C47	C	1.485097	0.184782	0.536047
C48	C	1.485097	0.184774	0.463925
H49	H	1.104055	0.187940	-0.275670
N50	N	0.848874	0.181162	0.150194
H51	H	0.802608	0.102863	0.152929
H52	H	0.910510	0.181069	0.195931
H53	H	1.719985	-0.105482	0.000003
N54	N	0.849033	0.181170	-0.294786
H55	H	0.910432	0.182796	-0.340565
H56	H	0.804186	0.102005	-0.297931
H57	H	1.103898	0.187952	0.131108
H58	H	1.274604	-0.408711	-0.000030
N59	N	1.661120	0.008931	0.796701
H60	H	1.645895	-0.080344	0.782186
H61	H	1.750331	0.024345	0.782143
N62	N	1.954831	-0.236080	0.000007
H63	H	1.939959	-0.141019	0.000014
H64	H	2.004108	-0.265103	0.049157
H65	H	1.331539	0.338302	0.785695
H66	H	1.917860	-0.487390	-0.000013
N67	N	1.706434	-0.615520	-0.000032
H68	H	1.795336	-0.658060	-0.000034
H69	H	1.660661	-0.641498	0.049114
H70	H	1.638718	0.031289	0.634276
H71	H	1.222849	0.191085	-0.144556
N72	N	1.251166	-0.149980	-0.000031
H73	H	1.177136	-0.202499	-0.000031
H74	H	1.247619	-0.095014	0.049116
H75	H	1.331455	0.338258	0.214297
H76	H	0.747436	0.178484	-0.144577
H77	H	1.638668	0.031263	0.214279
H78	H	1.638675	0.031265	0.365671
N79	N	1.309124	0.360637	0.623273
H80	H	1.255503	0.414236	0.662376
H81	H	1.357665	0.416610	0.588631
H82	H	1.331479	0.338260	0.365698
