data_functionalizedCrystal
_audit_creation_method	'MofGen! by Chris Wilmer'
_symmetry_space_group_name_H-M	'P1'
_symmetry_Int_Tables_number	1
_symmetry_cell_setting	triclinic
loop_
_symmetry_equiv_pos_as_xyz
  x,y,z
_cell_length_a	12.759401
_cell_length_b	25.639234
_cell_length_c	12.759399
_cell_angle_alpha	89.980949
_cell_angle_beta	90.014450
_cell_angle_gamma	89.982534
loop_
_atom_site_label
_atom_site_type_symbol
_atom_site_fract_x
_atom_site_fract_y
_atom_site_fract_z
Zn1	Zn	1.606239	-0.295598	-0.418357
Zn2	Zn	1.606134	-0.208171	-0.594039
Zn3	Zn	1.430544	-0.208180	-0.418371
Zn4	Zn	1.430527	-0.295579	-0.593992
O5	O	1.518361	-0.251882	-0.506190
O6	O	1.753246	-0.284004	-0.441675
O7	O	1.582805	-0.135007	-0.570762
O8	O	1.453901	-0.219788	-0.271348
O9	O	1.753169	-0.219772	-0.570748
O10	O	1.582983	-0.284013	-0.271338
O11	O	1.453800	-0.135014	-0.441700
O12	O	1.283521	-0.219770	-0.441654
O13	O	1.453872	-0.368747	-0.570668
O14	O	1.283508	-0.283981	-0.570682
O15	O	1.582967	-0.368760	-0.441630
O16	O	1.582789	-0.219754	-0.741053
O17	O	1.453771	-0.283973	-0.741019
C18	C	1.245394	-0.251875	-0.506165
C19	C	1.128617	-0.251884	-0.506180
C20	C	1.073788	-0.285381	-0.439099
C21	C	0.964064	-0.285385	-0.439119
C22	C	0.964008	-0.218392	-0.573310
C23	C	1.073730	-0.218386	-0.573284
C24	C	1.128675	-0.318879	-0.371994
C25	C	1.073846	-0.352380	-0.304908
C26	C	0.964122	-0.352383	-0.304929
C27	C	0.909227	-0.318886	-0.372035
C28	C	1.518429	-0.388255	-0.506142
C29	C	1.518458	-0.446369	-0.506121
C30	C	1.451315	-0.806741	-0.438794
C31	C	1.451321	-0.861346	-0.438775
O32	O	1.394180	-0.889590	-0.381646
N33	N	1.518493	-0.888652	-0.505957
C34	C	1.585657	-0.861351	-0.573169
O35	O	1.642793	-0.889591	-0.630312
C36	C	1.585646	-0.806747	-0.573193
C37	C	1.518476	-0.779444	-0.505999
C38	C	1.384150	-0.779438	-0.371606
C39	C	1.384146	-0.724837	-0.371624
C40	C	1.451307	-0.697540	-0.438829
C41	C	1.518472	-0.724843	-0.506017
C42	C	1.652804	-0.779447	-0.640410
C43	C	1.652785	-0.724840	-0.640429
C44	C	1.585616	-0.697537	-0.573235
C45	C	1.585629	-0.642946	-0.573240
N46	N	1.518456	-0.615640	-0.506059
C47	C	1.451295	-0.642937	-0.438853
C48	C	1.585676	-0.976021	-0.573116
C49	C	1.585693	-1.030624	-0.573088
C50	C	1.451355	-1.030615	-0.438694
C51	C	1.451343	-0.976011	-0.438718
C52	C	1.518503	-0.948715	-0.505934
C53	C	1.451292	-0.528272	-0.438895
C54	C	1.451297	-0.473666	-0.438916
C55	C	1.585632	-0.473680	-0.573313
C56	C	1.585631	-0.528281	-0.573289
C57	C	1.518453	-0.555575	-0.506076
O58	O	1.642738	-0.614667	-0.630343
O59	O	1.394159	-0.614690	-0.381730
C60	C	1.792394	-0.251890	-0.506215
C61	C	1.909171	-0.251893	-0.506226
C62	C	1.518295	-0.251872	-0.779157
C63	C	1.518363	-0.251885	-0.895934
C64	C	1.518354	-0.116039	-0.506162
C65	C	1.518528	-0.057926	-0.505886
C66	C	1.585692	-0.218500	-1.060504
C67	C	1.585623	-0.218484	-0.950780
C68	C	1.451160	-0.285300	-0.950817
C69	C	1.451224	-0.285312	-1.060540
C70	C	1.652964	-0.185100	-1.115344
C71	C	1.720166	-0.151685	-1.060468
C72	C	1.720097	-0.151670	-0.950744
C73	C	1.652826	-0.185070	-0.895896
C74	C	1.518456	-0.251903	-0.232156
C75	C	1.518496	-0.251913	-0.115380
H76	H	1.118373	-0.191110	-0.627908
H77	H	1.396600	-0.451438	-0.384194
H78	H	1.707483	-0.702619	-0.695159
H79	H	0.919483	-0.379657	-0.250297
N80	N	0.904796	-0.182267	-0.645681
H81	H	0.859290	-0.203476	-0.694438
H82	H	0.956243	-0.161050	-0.688105
N83	N	1.658089	-0.557733	-0.645745
H84	H	1.700638	-0.532153	-0.688318
H85	H	1.615309	-0.580377	-0.694359
N86	N	1.378837	-0.557706	-0.366405
H87	H	1.336294	-0.532117	-0.323850
H88	H	1.421619	-0.580370	-0.317778
H89	H	1.396392	-0.312493	-0.906153
N90	N	1.792720	-0.115664	-1.119621
H91	H	1.835276	-0.094494	-1.068204
H92	H	1.750012	-0.091455	-1.165213
H93	H	1.218018	-0.318880	-0.371970
H94	H	1.329445	-0.702612	-0.316912
N95	N	1.311703	-0.808874	-0.299117
H96	H	1.269159	-0.783284	-0.256565
H97	H	1.354488	-0.831535	-0.250486
N98	N	1.658071	-0.444233	-0.645793
H99	H	1.647749	-0.405500	-0.635724
H100	H	1.641799	-0.453830	-0.720814
H101	H	1.653029	-0.185110	-1.204687
H102	H	1.640378	-0.953800	-0.627846
N103	N	1.378902	-0.946565	-0.366242
H104	H	1.336364	-0.972148	-0.323664
H105	H	1.330254	-0.923902	-0.409004
N106	N	0.790882	-0.318887	-0.372061
H107	H	0.764429	-0.283037	-0.352655
H108	H	0.764557	-0.345212	-0.319389
H109	H	1.396668	-1.052850	-0.383972
H110	H	1.652764	-0.185048	-0.806551
H111	H	1.118549	-0.379649	-0.250267
H112	H	1.640401	-1.052850	-0.627792
H113	H	1.396518	-0.312525	-1.105221
N114	N	1.725249	-0.808887	-0.712888
H115	H	1.767780	-0.783301	-0.755464
H116	H	1.682465	-0.831532	-0.761497
N117	N	1.792571	-0.115630	-0.891553
H118	H	1.835195	-0.094476	-0.942946
H119	H	1.841135	-0.136932	-0.845964
