data_functionalizedCrystal
_audit_creation_method	'MofGen! by Chris Wilmer'
_symmetry_space_group_name_H-M	'P1'
_symmetry_Int_Tables_number	1
_symmetry_cell_setting	triclinic
loop_
_symmetry_equiv_pos_as_xyz
  x,y,z
_cell_length_a	17.917603
_cell_length_b	12.970454
_cell_length_c	12.970454
_cell_angle_alpha	59.999644
_cell_angle_beta	90.000283
_cell_angle_gamma	57.011542
loop_
_atom_site_label
_atom_site_type_symbol
_atom_site_fract_x
_atom_site_fract_y
_atom_site_fract_z
Zr1	Zr	0.754906	1.033602	-0.087842
O2	O	0.629781	1.264427	-0.260335
O3	O	0.793264	0.813688	-0.034963
O4	O	0.793263	1.028780	-0.250055
O5	O	0.629782	1.049334	0.124424
O6	O	0.922220	1.012565	-0.241947
O7	O	0.629782	1.049335	-0.045243
O8	O	0.922221	0.627805	0.142813
O9	O	0.629781	1.434094	-0.260336
O10	O	0.905862	0.888000	-0.006361
O11	O	0.809623	0.900100	0.114209
O12	O	0.809622	1.153343	-0.139034
O13	O	0.713383	1.165444	-0.018464
Zr14	Zr	0.960579	1.007740	0.195689
Zr15	Zr	0.960578	1.007742	-0.074911
Zr16	Zr	0.754907	1.033601	0.182758
Zr17	Zr	0.754906	1.304202	-0.087844
Zr18	Zr	0.960579	0.737140	0.195690
O19	O	0.922221	1.227654	0.142810
O20	O	0.922220	1.227656	-0.241948
O21	O	0.629783	1.264425	0.124423
O22	O	1.085704	0.776916	0.368182
O23	O	1.085703	0.776918	-0.016577
O24	O	0.793265	0.813686	0.349795
O25	O	1.085703	0.992009	-0.016578
O26	O	0.922222	1.012562	0.357902
O27	O	0.793265	1.028777	0.349794
O28	O	1.085703	0.992008	0.153090
O29	O	0.793263	1.413538	-0.250057
O30	O	0.922222	0.627804	0.357904
O31	O	1.085704	0.607248	0.368183
O32	O	1.085703	0.607249	0.153092
O33	O	0.629782	1.434093	-0.045245
O34	O	0.793264	1.413537	-0.034966
O35	O	0.905863	0.887999	0.246881
O36	O	1.002102	0.875899	0.126311
O37	O	0.905862	1.141242	-0.006362
O38	O	0.809623	1.153342	0.114208
C39	C	0.857742	0.682192	0.053925
C40	C	0.857742	0.567315	0.053926
C41	C	0.600478	1.053019	0.037748
C42	C	0.513165	1.063997	0.032259
C43	C	0.353321	1.084051	0.022233
C44	C	0.362157	0.957298	0.085610
C45	C	0.273214	0.968456	0.080032
C46	C	0.442270	1.072896	0.027810
C47	C	1.115007	0.988324	0.070098
C48	C	1.202320	0.977345	0.075588
C49	C	0.857741	1.020673	-0.284556
C50	C	0.857741	1.020674	-0.399433
C51	C	0.857743	1.359150	0.053922
C52	C	0.857743	1.474027	0.053921
C53	C	0.857744	1.020669	0.392403
C54	C	0.857744	1.020669	0.507279
C55	C	1.115007	0.649844	0.070100
C56	C	1.202320	0.523989	0.075590
C57	C	0.857744	0.682190	0.392404
C58	C	0.857744	0.567313	0.507282
C59	C	1.115008	0.649843	0.408579
C60	C	1.202321	0.523987	0.528946
C61	C	0.600477	1.391500	-0.300733
C62	C	0.513164	1.517356	-0.421100
C63	C	0.600478	1.391498	0.037747
C64	C	0.513165	1.517353	0.032256
C65	C	0.857741	1.359152	-0.284558
C66	C	0.857741	1.474030	-0.399435
C67	C	1.193087	0.471203	0.008904
C68	C	1.275119	0.352965	0.014037
C69	C	1.366383	0.287507	0.085864
C70	C	1.375614	0.340304	0.152553
C71	C	1.293583	0.458548	0.147412
C72	C	1.293569	0.458566	0.522536
C73	C	1.375617	0.340325	0.635624
C74	C	1.366415	0.287500	0.755121
C75	C	1.275158	0.352932	0.761528
C76	C	1.193112	0.471178	0.648441
C77	C	0.421916	1.582789	-0.414690
C78	C	0.339868	1.701064	-0.527777
C79	C	0.349070	1.753895	-0.647274
C80	C	0.440327	1.688456	-0.653681
C81	C	0.522373	1.570191	-0.540595
C82	C	0.522398	1.570151	0.098931
C83	C	0.440366	1.688419	0.093769
C84	C	0.349102	1.753880	0.021938
C85	C	0.339871	1.701078	-0.044746
C86	C	0.421902	1.582819	-0.039590
H87	H	0.436519	0.840402	0.144058
H88	H	0.278964	1.200938	-0.036212
C89	C	0.411729	1.524739	-0.112926
N90	N	0.404060	1.480998	-0.168166
C91	C	1.476014	0.268273	0.231569
N92	N	1.551638	0.214007	0.291092
C93	C	0.622782	1.498171	0.177949
N94	N	0.698388	1.443970	0.237461
C95	C	0.622744	1.498209	-0.547667
N96	N	0.698342	1.443994	-0.553004
H97	H	1.267680	0.309904	0.858837
H98	H	1.301114	0.501511	0.201724
H99	H	0.265553	1.754395	-0.103229
H100	H	1.118817	0.524430	0.653678
H101	H	1.118782	0.524497	-0.049601
H102	H	1.301079	0.501559	0.425247
C103	C	1.475991	0.268358	0.628547
N104	N	1.551590	0.214151	0.623213
C105	C	0.239494	1.773023	-0.520701
N106	N	0.163895	1.827220	-0.515367
H107	H	1.433230	0.191215	0.847193
H108	H	1.267584	0.309993	-0.040269
H109	H	0.414406	1.539782	-0.317400
H110	H	0.447901	1.731390	0.148076
H111	H	0.282255	1.850194	-0.739346
H112	H	1.433170	0.191225	0.090041
H113	H	0.447808	1.731486	-0.750989
H114	H	0.282315	1.850173	0.017750
