data_functionalizedCrystal
_audit_creation_method	'MofGen! by Chris Wilmer'
_symmetry_space_group_name_H-M	'P1'
_symmetry_Int_Tables_number	1
_symmetry_cell_setting	triclinic
loop_
_symmetry_equiv_pos_as_xyz
  x,y,z
_cell_length_a	14.853568
_cell_length_b	26.210047
_cell_length_c	14.853559
_cell_angle_alpha	89.993300
_cell_angle_beta	96.366679
_cell_angle_gamma	89.993757
loop_
_atom_site_label
_atom_site_type_symbol
_atom_site_fract_x
_atom_site_fract_y
_atom_site_fract_z
O1	O	-1.196368	0.042393	0.117694
O2	O	-0.696368	0.542393	0.617694
O3	O	-0.933908	0.042401	0.131715
O4	O	-0.433908	0.542401	0.631715
O5	O	-1.072153	0.042396	-0.006525
O6	O	-0.572153	0.542396	0.493475
O7	O	-1.058124	0.042398	0.255935
O8	O	-0.558124	0.542398	0.755935
O9	O	-1.072126	-0.042462	-0.006504
O10	O	-0.572126	0.457538	0.493496
O11	O	-0.933882	-0.042457	0.131737
O12	O	-0.433882	0.457543	0.631737
O13	O	-1.196341	-0.042465	0.117716
O14	O	-0.696341	0.457535	0.617716
Cu15	Cu	-1.065109	-0.050209	0.124728
Cu16	Cu	-0.565109	0.449791	0.624728
Cu17	Cu	-1.065141	0.050145	0.124703
Cu18	Cu	-0.565141	0.550145	0.624703
O19	O	-1.058097	-0.042460	0.255957
O20	O	-0.558097	0.457540	0.755957
C21	C	-0.900306	-0.000027	0.131091
C22	C	-0.400306	0.499973	0.631091
C23	C	-0.800223	-0.000024	0.129187
C24	C	-0.300223	0.499976	0.629187
C25	C	-0.387692	-0.000036	0.039020
C26	C	0.112308	0.499964	0.539020
C27	C	-0.366406	-0.000035	0.203253
C28	C	0.133594	0.499965	0.703253
C29	C	-0.460439	-0.000033	0.205043
C30	C	0.039561	0.499967	0.705043
C31	C	-0.518104	-0.000032	0.123821
C32	C	-0.018104	0.499968	0.623821
C33	C	-0.481734	-0.000033	0.040808
C34	C	0.018266	0.499967	0.540808
C35	C	-0.496816	-0.000027	0.288055
C36	C	0.003184	0.499973	0.788055
C37	C	-0.590855	-0.000025	0.289849
C38	C	-0.090855	0.499975	0.789849
C39	C	-0.648521	-0.000027	0.208625
C40	C	-0.148521	0.499973	0.708625
C41	C	-0.612146	-0.000029	0.125608
C42	C	-0.112146	0.499971	0.625608
C43	C	-0.669811	-0.000028	0.044386
C44	C	-0.169811	0.499972	0.544386
C45	C	-0.633438	-0.000033	-0.038632
C46	C	-0.133438	0.499967	0.461368
C47	C	-0.539401	-0.000036	-0.040416
C48	C	-0.039401	0.499964	0.459584
C49	C	-0.742558	-0.000025	0.210409
C50	C	-0.242558	0.499975	0.710409
C51	C	-0.763853	-0.000024	0.046174
C52	C	-0.263853	0.499976	0.546174
N53	N	-1.065093	-0.120793	0.124746
N54	N	-0.565093	0.379207	0.624746
C55	C	-1.126349	-0.473309	0.063504
C56	C	-0.626349	0.026691	0.563504
C57	C	-1.126369	-0.686968	0.063491
C58	C	-0.626369	-0.186968	0.563491
O59	O	-1.178416	-0.714591	0.011425
O60	O	-0.678416	-0.214591	0.511425
N61	N	-1.065145	-0.713687	0.124683
N62	N	-0.565145	-0.213687	0.624683
C63	C	-1.003909	-0.686988	0.185878
C64	C	-0.503909	-0.186988	0.685878
O65	O	-0.951828	-0.714617	0.237919
O66	O	-0.451828	-0.214617	0.737919
C67	C	-1.003885	-0.473331	0.185886
C68	C	-0.503885	0.026669	0.685886
C69	C	-1.065119	-0.446614	0.124696
C70	C	-0.565119	0.053386	0.624696
C71	C	-1.187577	-0.446593	0.002318
C72	C	-0.687577	0.053407	0.502318
C73	C	-1.187575	-0.393181	0.002325
C74	C	-0.687575	0.106819	0.502325
C75	C	-1.126345	-0.366486	0.063518
C76	C	-0.626345	0.133514	0.563518
C77	C	-1.065117	-0.393203	0.124703
C78	C	-0.565117	0.106797	0.624703
C79	C	-0.942645	-0.446633	0.247076
C80	C	-0.442645	0.053367	0.747076
C81	C	-0.942643	-0.393215	0.247071
C82	C	-0.442643	0.106785	0.747071
C83	C	-1.003876	-0.366499	0.185881
C84	C	-0.503876	0.133501	0.685881
C85	C	-1.003884	-0.313096	0.185903
C86	C	-0.503884	0.186904	0.685903
N87	N	-1.065108	-0.286377	0.124711
N88	N	-0.565108	0.213623	0.624711
C89	C	-1.126338	-0.313072	0.063518
C90	C	-0.626338	0.186928	0.563518
C91	C	-1.003926	-0.799161	0.185871
C92	C	-0.503926	-0.299161	0.685871
C93	C	-1.003933	-0.852576	0.185871
C94	C	-0.503933	-0.352576	0.685871
C95	C	-1.126393	-0.852551	0.063482
C96	C	-0.626393	-0.352551	0.563482
C97	C	-1.126390	-0.799136	0.063488
C98	C	-0.626390	-0.299136	0.563488
C99	C	-1.065150	-0.772442	0.124680
C100	C	-0.565150	-0.272442	0.624680
C101	C	-1.126329	-0.200904	0.063538
C102	C	-0.626329	0.299096	0.563538
C103	C	-1.126324	-0.147488	0.063553
C104	C	-0.626324	0.352512	0.563553
C105	C	-1.003862	-0.147517	0.185938
C106	C	-0.503862	0.352483	0.685938
C107	C	-1.003869	-0.200928	0.185927
C108	C	-0.503869	0.299072	0.685927
C109	C	-1.065107	-0.227621	0.124719
C110	C	-0.565107	0.272379	0.624719
O111	O	-0.951857	-0.285440	0.237935
O112	O	-0.451857	0.214560	0.737935
O113	O	-1.178397	-0.285434	0.011472
O114	O	-0.678397	0.214566	0.511472
C115	C	-1.126351	-0.526721	0.063497
C116	C	-0.626351	-0.026721	0.563497
C117	C	-1.065123	-0.553437	0.124682
C118	C	-0.565123	-0.053437	0.624682
C119	C	-1.003893	-0.526742	0.185875
C120	C	-0.503893	-0.026742	0.685875
C121	C	-1.065130	-0.606851	0.124682
C122	C	-0.565130	-0.106851	0.624682
C123	C	-1.126360	-0.633546	0.063489
C124	C	-0.626360	-0.133546	0.563489
C125	C	-1.187584	-0.606827	0.002297
C126	C	-0.687584	-0.106827	0.502297
C127	C	-1.187582	-0.553416	0.002304
C128	C	-0.687582	-0.053416	0.502304
C129	C	-0.942670	-0.553461	0.247066
C130	C	-0.442670	-0.053461	0.747066
C131	C	-0.942678	-0.606873	0.247055
C132	C	-0.442678	-0.106873	0.747055
C133	C	-1.003908	-0.633568	0.185863
C134	C	-0.503908	-0.133568	0.685863
C135	C	-0.229944	-0.000036	0.118340
C136	C	0.270056	0.499964	0.618340
C137	C	-0.330027	-0.000037	0.120242
C138	C	0.169973	0.499963	0.620242
C139	C	-1.071505	-0.000032	-0.040103
C140	C	-0.571505	0.499968	0.459897
C141	C	-1.069605	-0.000029	-0.140188
C142	C	-0.569605	0.499971	0.359812
N143	N	-1.065163	0.120729	0.124678
N144	N	-0.565163	0.620729	0.624678
C145	C	-1.061555	0.046228	-0.563374
C146	C	-0.561555	0.546228	-0.063374
C147	C	-1.061526	-0.046288	-0.563346
C148	C	-0.561526	0.453712	-0.063346
C149	C	-1.063319	-0.046288	-0.469312
C150	C	-0.563319	0.453712	0.030688
C151	C	-1.064229	-0.000030	-0.422306
C152	C	-0.564229	0.499970	0.077694
C153	C	-1.063346	0.046229	-0.469332
C154	C	-0.563346	0.546229	0.030668
C155	C	-1.064194	-0.092546	-0.422278
C156	C	-0.564194	0.407454	0.077722
C157	C	-1.065986	-0.092548	-0.328238
C158	C	-0.565986	0.407452	0.171762
C159	C	-1.066903	-0.046290	-0.281231
C160	C	-0.566903	0.453710	0.218769
C161	C	-1.066020	-0.000029	-0.328263
C162	C	-0.566020	0.499971	0.171737
C163	C	-1.066930	0.046229	-0.281256
C164	C	-0.566930	0.546229	0.218744
C165	C	-1.066054	0.092490	-0.328288
C166	C	-0.566054	0.592490	0.171712
C167	C	-1.064263	0.092488	-0.422324
C168	C	-0.564263	0.592488	0.077676
C169	C	-1.068695	-0.046287	-0.187194
C170	C	-0.568695	0.453713	0.312806
C171	C	-1.068721	0.046230	-0.187214
C172	C	-0.568721	0.546230	0.312786
C173	C	-1.058744	-0.000031	0.289535
C174	C	-0.558744	0.499969	0.789535
C175	C	-1.060645	-0.000030	0.389619
C176	C	-0.560645	0.499970	0.889619
H177	H	-0.620461	-0.000020	0.357446
H178	H	-0.120461	0.499980	0.857446
Cl179	Cl	-1.063029	-0.150695	-0.481372
Cl180	Cl	-0.563029	0.349305	0.018628
H181	H	-0.509777	-0.000052	-0.108005
H182	H	-0.009777	0.499948	0.391995
H183	H	-0.358073	-0.000042	-0.028571
H184	H	0.141927	0.499958	0.471429
H185	H	-0.892807	-0.531730	0.296896
H186	H	-0.392807	-0.031730	0.796896
Cl187	Cl	-1.063165	0.150639	-0.481455
Cl188	Cl	-0.563165	0.650639	0.018545
H189	H	-1.237434	-0.371432	-0.047503
H190	H	-0.737434	0.128568	0.452497
Cl191	Cl	-0.788281	-0.000014	0.314765
Cl192	Cl	-0.288281	0.499986	0.814765
H193	H	-0.319450	-0.000031	0.269381
H194	H	0.180550	0.499969	0.769381
H195	H	-1.237438	-0.468323	-0.047516
H196	H	-0.737438	0.031677	0.452484
Cl197	Cl	-1.203370	-0.765556	-0.013441
Cl198	Cl	-0.703370	-0.265556	0.486559
H199	H	-1.066789	0.130154	-0.290002
H200	H	-0.566789	0.630154	0.209998
Cl201	Cl	-0.424321	-0.000020	0.390156
Cl202	Cl	0.075679	0.499980	0.890156
Cl203	Cl	-1.069872	0.104387	-0.128128
Cl204	Cl	-0.569872	0.604387	0.371872
Cl205	Cl	-1.069794	-0.104439	-0.128073
Cl206	Cl	-0.569794	0.395561	0.371927
Cl207	Cl	-0.705941	-0.000028	-0.140736
Cl208	Cl	-0.205941	0.499972	0.359264
H209	H	-1.066703	-0.130217	-0.289954
H210	H	-0.566703	0.369783	0.210046
Cl211	Cl	-1.203310	-0.113904	-0.013375
Cl212	Cl	-0.703310	0.386096	0.486625
H213	H	-1.060846	0.083892	-0.601672
H214	H	-0.560846	0.583892	-0.101672
H215	H	-1.176250	-0.874295	0.013658
H216	H	-0.676250	-0.374295	0.513658
H217	H	-1.060779	-0.083949	-0.601623
H218	H	-0.560779	0.416051	-0.101623
H219	H	-0.810798	-0.000026	-0.019969
H220	H	-0.310798	0.499974	0.480031
H221	H	-1.176193	-0.222631	0.013697
H222	H	-0.676193	0.277369	0.513697
Cl223	Cl	-0.926935	-0.765609	0.262808
Cl224	Cl	-0.426935	-0.265609	0.762808
Cl225	Cl	-0.926963	-0.886156	0.262810
Cl226	Cl	-0.426963	-0.386156	0.762810
Cl227	Cl	-0.865660	-0.480208	0.324002
Cl228	Cl	-0.365660	0.019792	0.824002
Cl229	Cl	-0.865649	-0.359661	0.324002
Cl230	Cl	-0.365649	0.140339	0.824002
Cl231	Cl	-0.926897	-0.234513	0.262863
Cl232	Cl	-0.426897	0.265487	0.762863
H233	H	-0.892815	-0.628622	0.296891
H234	H	-0.392815	-0.128622	0.796891
Cl235	Cl	-0.926890	-0.113949	0.262864
Cl236	Cl	-0.426890	0.386051	0.762864
H237	H	-1.237444	-0.628571	-0.047525
H238	H	-0.737444	-0.128571	0.452475
Cl239	Cl	-1.264564	-0.519836	-0.074625
Cl240	Cl	-0.764564	-0.019836	0.425375
