data_functionalizedCrystal
_audit_creation_method	'MofGen! by Chris Wilmer'
_symmetry_space_group_name_H-M	'P1'
_symmetry_Int_Tables_number	1
_symmetry_cell_setting	triclinic
loop_
_symmetry_equiv_pos_as_xyz
  x,y,z
_cell_length_a	27.732048
_cell_length_b	27.732048
_cell_length_c	26.809956
_cell_angle_alpha	89.999364
_cell_angle_beta	89.996742
_cell_angle_gamma	82.642655
loop_
_atom_site_label
_atom_site_type_symbol
_atom_site_fract_x
_atom_site_fract_y
_atom_site_fract_z
O1	O	0.640931	0.057510	-0.041421
O2	O	0.500138	0.066256	-0.041436
O3	O	0.574907	-0.008514	-0.041419
O4	O	0.566162	0.132280	-0.041439
O5	O	0.574893	-0.008502	0.041541
O6	O	0.500123	0.066267	0.041523
O7	O	0.640917	0.057522	0.041539
Zn8	Zn	0.570518	0.061896	0.054702
Zn9	Zn	0.570536	0.061881	-0.054600
O10	O	0.566147	0.132291	0.041521
C11	C	0.482124	0.066078	0.000041
C12	C	0.428469	0.065525	0.000036
C13	C	0.574716	-0.026515	0.000062
C14	C	0.574164	-0.080170	0.000066
C15	C	0.089654	0.106229	0.000051
C16	C	-0.112006	0.104178	0.000056
O17	O	-0.143262	0.141398	0.000073
N18	N	-0.131130	0.059843	0.000062
C19	C	-0.099835	0.016017	0.000069
O20	O	-0.120728	-0.021740	0.000079
C21	C	0.101824	0.018068	0.000068
C22	C	0.120944	0.062407	0.000057
C23	C	0.108775	0.150563	0.000042
C24	C	0.159187	0.151076	0.000038
C25	C	0.190477	0.107253	0.000044
C26	C	0.171356	0.062919	0.000054
C27	C	0.133117	-0.025757	0.000079
C28	C	0.183535	-0.025240	0.000080
C29	C	0.202655	0.019098	0.000069
C30	C	0.253059	0.019609	0.000056
N31	N	0.272183	0.063944	0.000050
C32	C	0.240892	0.107766	0.000044
C33	C	-0.205709	0.014943	0.000069
C34	C	-0.256124	0.014430	0.000068
C35	C	-0.268291	0.102591	0.000056
C36	C	-0.217876	0.103104	0.000053
C37	C	-0.186585	0.059278	0.000063
C38	C	0.346761	0.108839	0.000036
C39	C	0.397178	0.109347	0.000030
C40	C	0.409341	0.021186	0.000044
C41	C	0.358929	0.020678	0.000048
C42	C	0.327639	0.064508	0.000045
O43	O	0.284343	-0.017592	0.000045
O44	O	0.261794	0.145518	0.000045
C45	C	0.039242	0.105716	0.000055
C46	C	0.020120	0.061382	0.000065
C47	C	0.051411	0.017560	0.000071
C48	C	-0.030294	0.060869	0.000065
C49	C	-0.061585	0.104691	0.000059
C50	C	-0.042461	0.149026	0.000053
C51	C	0.007951	0.149539	0.000049
C52	C	0.032287	-0.026775	0.000077
C53	C	-0.018125	-0.027284	0.000080
C54	C	-0.049416	0.016538	0.000074
C55	C	0.614867	-0.418985	0.000045
C56	C	0.612816	-0.620645	0.000038
O57	O	0.650037	-0.651900	0.000021
N58	N	0.568481	-0.639768	0.000034
C59	C	0.524656	-0.608474	0.000028
O60	O	0.486899	-0.629367	0.000019
C61	C	0.526707	-0.406815	0.000031
C62	C	0.571045	-0.387694	0.000041
C63	C	0.659202	-0.399864	0.000054
C64	C	0.659714	-0.349452	0.000059
C65	C	0.615892	-0.318161	0.000054
C66	C	0.571557	-0.337282	0.000045
C67	C	0.482882	-0.375521	0.000022
C68	C	0.483399	-0.325104	0.000021
C69	C	0.527737	-0.305983	0.000031
C70	C	0.528247	-0.255580	0.000045
N71	N	0.572583	-0.236456	0.000050
C72	C	0.616405	-0.267747	0.000054
C73	C	0.523582	-0.714348	0.000027
C74	C	0.523069	-0.764762	0.000027
C75	C	0.611230	-0.776930	0.000036
C76	C	0.611742	-0.726514	0.000040
C77	C	0.567917	-0.695224	0.000031
C78	C	0.617477	-0.161878	0.000064
C79	C	0.617986	-0.111461	0.000071
C80	C	0.529825	-0.099298	0.000059
C81	C	0.529316	-0.149710	0.000055
C82	C	0.573147	-0.180999	0.000056
O83	O	0.491047	-0.224296	0.000057
O84	O	0.654156	-0.246844	0.000053
C85	C	0.614355	-0.469397	0.000041
C86	C	0.570021	-0.488518	0.000032
C87	C	0.526198	-0.457228	0.000027
C88	C	0.569508	-0.538933	0.000032
C89	C	0.613330	-0.570223	0.000036
C90	C	0.657665	-0.551100	0.000041
C91	C	0.658177	-0.500688	0.000045
C92	C	0.481863	-0.476351	0.000023
C93	C	0.481355	-0.526764	0.000019
C94	C	0.525177	-0.558054	0.000023
C95	C	0.658931	0.057699	0.000060
C96	C	0.712586	0.058252	0.000062
C97	C	0.566338	0.150292	0.000039
C98	C	0.566891	0.203947	0.000031
N99	N	0.570509	0.061906	0.129298
N100	N	0.570549	0.061867	-0.129196
C101	C	0.603640	0.028781	0.473932
C102	C	0.603652	0.028774	0.682810
O103	O	0.631801	0.000613	0.709820
N104	N	0.570539	0.061870	0.708925
C105	C	0.537419	0.094969	0.682818
O106	O	0.509252	0.123116	0.709824
C107	C	0.537406	0.094974	0.473941
C108	C	0.570524	0.061878	0.447829
C109	C	0.636755	-0.004312	0.447819
C110	C	0.636754	-0.004308	0.395603
C111	C	0.603637	0.028789	0.369500
C112	C	0.570522	0.061882	0.395612
C113	C	0.504284	0.128070	0.447835
C114	C	0.504283	0.128067	0.395613
C115	C	0.537401	0.094972	0.369500
C116	C	0.537405	0.094983	0.317293
N117	N	0.570517	0.061887	0.291177
C118	C	0.603633	0.028790	0.317281
C119	C	0.537429	0.094965	0.792481
C120	C	0.537433	0.094964	0.844700
C121	C	0.603665	0.028768	0.844689
C122	C	0.603663	0.028772	0.792469
C123	C	0.570542	0.061868	0.766366
C124	C	0.603628	0.028801	0.207623
C125	C	0.603625	0.028809	0.155402
C126	C	0.537392	0.095003	0.155418
C127	C	0.537396	0.094997	0.207635
C128	C	0.570516	0.061892	0.233735
O129	O	0.509266	0.123126	0.290250
O130	O	0.631789	0.000640	0.290266
C131	C	0.603642	0.028777	0.526149
C132	C	0.570527	0.061870	0.552261
C133	C	0.537410	0.094968	0.526158
C134	C	0.570531	0.061870	0.604480
C135	C	0.603647	0.028773	0.630584
C136	C	0.636759	-0.004324	0.604468
C137	C	0.636758	-0.004320	0.552252
C138	C	0.504298	0.128064	0.552273
C139	C	0.504303	0.128058	0.604489
C140	C	0.537419	0.094961	0.630593
H141	H	0.321291	0.144530	0.000035
C142	C	0.672558	-0.040409	0.367275
C143	C	0.646920	-0.069802	0.337391
C144	C	0.679854	-0.103126	0.311325
H145	H	0.692216	-0.060157	0.390317
H146	H	0.692627	-0.023326	0.346815
H147	H	0.626859	-0.086884	0.357849
H148	H	0.627264	-0.050067	0.314340
H149	H	0.699924	-0.086043	0.290864
H150	H	0.699511	-0.122871	0.334370
H151	H	0.662464	-0.123070	0.291042
C152	C	0.434757	-0.396301	0.000108
C153	C	0.431861	-0.424880	0.042791
C154	C	0.387531	-0.444024	0.042888
H155	H	0.432684	-0.415745	-0.028791
H156	H	0.408721	-0.370453	0.000128
H157	H	0.457890	-0.450725	0.042765
H158	H	0.433925	-0.405447	0.071696
H159	H	0.361494	-0.418177	0.042908
H160	H	0.385462	-0.463466	0.013987
H161	H	0.385558	-0.463414	0.071849
C162	C	-0.038975	-0.075377	0.000065
C163	C	-0.089824	-0.066454	0.000055
C164	C	-0.109045	-0.110743	0.000038
H165	H	-0.028263	-0.093434	0.028989
H166	H	-0.028238	-0.093414	-0.028874
H167	H	-0.100556	-0.048425	0.028991
H168	H	-0.100549	-0.048404	-0.028868
H169	H	-0.098309	-0.128780	-0.028900
H170	H	-0.098330	-0.128797	0.028964
H171	H	-0.143547	-0.104695	0.000027
C172	C	0.659866	-0.705730	0.000148
C173	C	0.662740	-0.677151	0.042834
C174	C	0.707069	-0.658006	0.042952
H175	H	0.661954	-0.686286	-0.028749
H176	H	0.685903	-0.731577	0.000178
H177	H	0.636710	-0.651308	0.042799
H178	H	0.660661	-0.696585	0.071737
H179	H	0.733106	-0.683853	0.042982
H180	H	0.709153	-0.638564	0.014053
H181	H	0.709026	-0.638617	0.071915
C182	C	0.658846	-0.810851	-0.000041
C183	C	0.685572	-0.802251	-0.042715
C184	C	0.729439	-0.833487	-0.042804
H185	H	0.652256	-0.843630	-0.000068
H186	H	0.677069	-0.805086	0.028874
H187	H	0.667353	-0.808019	-0.071622
H188	H	0.692175	-0.769478	-0.042697
H189	H	0.747662	-0.827723	-0.013890
H190	H	0.722844	-0.866264	-0.042830
H191	H	0.747579	-0.827654	-0.071756
C192	C	0.433197	-0.547492	-0.000095
C193	C	0.406748	-0.531559	-0.042786
C194	C	0.362388	-0.550647	-0.042916
H195	H	0.415104	-0.536743	0.028798
H196	H	0.439142	-0.582000	-0.000125
H197	H	0.400801	-0.497058	-0.042752
H198	H	0.424826	-0.542307	-0.071686
H199	H	0.368333	-0.585155	-0.042947
H200	H	0.344299	-0.539897	-0.014022
H201	H	0.344438	-0.539843	-0.071884
H202	H	0.057760	-0.062462	0.000083
H203	H	0.510430	0.121952	0.134157
H204	H	0.023514	0.185643	0.000042
H205	H	0.653168	-0.187348	0.000063
H206	H	0.477330	0.155015	0.531024
H207	H	0.510457	0.121917	0.771232
C208	C	0.474880	-0.785424	-0.000003
C209	C	0.436615	-0.747225	-0.000022
C210	C	0.392216	-0.766238	-0.000059
H211	H	0.472769	-0.804830	0.028918
H212	H	0.472825	-0.804823	-0.028946
H213	H	0.438669	-0.727835	0.028918
H214	H	0.438709	-0.727816	-0.028940
H215	H	0.390160	-0.785637	-0.029002
H216	H	0.390110	-0.785644	0.028862
H217	H	0.366248	-0.740323	-0.000076
H218	H	0.446177	-0.450879	0.000018
C219	C	0.179848	0.199265	0.000059
C220	C	0.141647	0.237527	0.000069
C221	C	0.160657	0.281929	0.000098
H222	H	0.199256	0.201369	-0.028862
H223	H	0.199244	0.201328	0.029001
H224	H	0.122259	0.235465	-0.028870
H225	H	0.122236	0.235439	0.028988
H226	H	0.180053	0.283992	0.029040
H227	H	0.180065	0.284028	-0.028824
H228	H	0.134741	0.307895	0.000110
C229	C	0.435763	-0.291212	0.000038
C230	C	0.396829	-0.318753	0.000041
C231	C	0.352941	-0.287550	0.000064
H232	H	0.434067	-0.271280	-0.028883
H233	H	0.434096	-0.271301	0.028980
H234	H	0.398496	-0.338656	-0.028898
H235	H	0.398509	-0.338684	0.028960
H236	H	0.351273	-0.267638	0.029006
H237	H	0.351250	-0.267619	-0.028858
H238	H	0.326519	-0.306232	0.000071
C239	C	0.481129	-0.170379	0.000020
C240	C	0.442862	-0.132183	0.000006
C241	C	0.398464	-0.151200	-0.000039
H242	H	0.479019	-0.189790	0.028937
H243	H	0.479077	-0.189773	-0.028926
H244	H	0.444912	-0.112797	0.028949
H245	H	0.444956	-0.112768	-0.028909
H246	H	0.396412	-0.170594	-0.028986
H247	H	0.396359	-0.170611	0.028878
H248	H	0.372494	-0.125287	-0.000054
C249	C	0.706367	-0.480026	0.000026
C250	C	0.744629	-0.518228	0.000016
C251	C	0.789030	-0.499217	-0.000010
H252	H	0.708468	-0.460621	0.028949
H253	H	0.708433	-0.460627	-0.028915
H254	H	0.742564	-0.537619	0.028954
H255	H	0.742544	-0.537636	-0.028904
H256	H	0.791097	-0.479818	-0.028950
H257	H	0.791127	-0.479813	0.028913
H258	H	0.814997	-0.525134	-0.000021
H259	H	0.494146	-0.073812	0.000057
C260	C	0.074751	0.198111	-0.000047
C261	C	0.045451	0.200382	-0.042724
C262	C	0.014102	0.244176	-0.042824
H263	H	0.093306	0.224624	-0.000079
H264	H	0.054798	0.199759	0.028866
H265	H	0.065402	0.198738	-0.071629
H266	H	0.026885	0.173879	-0.042702
H267	H	-0.005852	0.245824	-0.013912
H268	H	0.032661	0.270685	-0.042855
H269	H	-0.005785	0.245720	-0.071778
H270	H	0.663725	-0.031269	0.530995
H271	H	0.412743	0.145454	0.000021
H272	H	0.695819	-0.333889	0.000065
H273	H	0.343360	-0.015426	0.000049
C274	C	0.501421	0.130852	0.236055
C275	C	0.472034	0.105300	0.266040
C276	C	0.438889	0.138310	0.292230
H277	H	0.481651	0.150581	0.213087
H278	H	0.518644	0.150846	0.256457
H279	H	0.454813	0.085315	0.245640
H280	H	0.491791	0.085574	0.289017
H281	H	0.456112	0.158304	0.312632
H282	H	0.419122	0.158037	0.269259
H283	H	0.418950	0.120978	0.312581
C284	C	0.705229	-0.585102	-0.000059
C285	C	0.707515	-0.614387	-0.042749
C286	C	0.751324	-0.645713	-0.042865
H287	H	0.706903	-0.605070	0.028835
H288	H	0.731725	-0.566515	-0.000082
H289	H	0.681027	-0.632973	-0.042721
H290	H	0.705850	-0.594432	-0.071650
H291	H	0.777820	-0.627126	-0.042888
H292	H	0.752993	-0.665678	-0.013969
H293	H	0.752883	-0.665584	-0.071831
H294	H	0.487892	-0.688875	0.000020
C295	C	0.639604	-0.007181	0.127142
C296	C	0.668595	-0.036175	0.161183
C297	C	0.701738	-0.069338	0.135170
H298	H	0.659642	0.010013	0.106769
H299	H	0.622380	-0.027210	0.106782
H300	H	0.685818	-0.016148	0.181534
H301	H	0.648571	-0.053379	0.181557
H302	H	0.684514	-0.089367	0.114811
H303	H	0.721772	-0.052140	0.114798
H304	H	0.721410	-0.089017	0.158263
H305	H	0.630597	0.001843	0.228868
C306	C	0.666177	-0.090796	0.000053
C307	C	0.704443	-0.128993	0.000041
C308	C	0.748841	-0.109978	0.000017
H309	H	0.668276	-0.071392	0.028977
H310	H	0.668241	-0.071395	-0.028886
H311	H	0.702380	-0.148386	0.028978
H312	H	0.702360	-0.148401	-0.028880
H313	H	0.750905	-0.090577	-0.028923
H314	H	0.750935	-0.090574	0.028941
H315	H	0.774810	-0.135892	0.000004
H316	H	0.663722	-0.031266	0.469068
H317	H	0.630630	0.001822	0.771211
H318	H	0.630630	0.001820	0.865951
H319	H	-0.180236	-0.020747	0.000077
C320	C	0.501425	0.130922	0.872958
C321	C	0.472416	0.159896	0.838914
C322	C	0.439233	0.193020	0.864924
H323	H	0.518603	0.150974	0.893329
H324	H	0.481408	0.113684	0.893319
H325	H	0.492430	0.177133	0.818561
H326	H	0.455228	0.139858	0.818542
H327	H	0.419216	0.175781	0.885286
H328	H	0.456414	0.213068	0.885294
H329	H	0.419543	0.212679	0.841830
H330	H	0.477317	0.155019	0.469089
C331	C	0.468301	0.164058	0.367364
C332	C	0.439310	0.193046	0.401413
C333	C	0.406165	0.226211	0.375410
H334	H	0.448263	0.146867	0.346992
H335	H	0.485523	0.184091	0.347004
H336	H	0.422090	0.173016	0.421764
H337	H	0.459335	0.210249	0.421786
H338	H	0.423387	0.246244	0.355050
H339	H	0.386130	0.209015	0.355039
H340	H	0.386494	0.245886	0.398508
C341	C	0.672660	-0.040237	0.632906
C342	C	0.665559	-0.033160	0.684225
C343	C	0.698613	-0.066238	0.710439
H344	H	0.704903	-0.035245	0.624409
H345	H	0.667647	-0.072473	0.624378
H346	H	0.670576	-0.000931	0.692749
H347	H	0.633323	-0.038156	0.692736
H348	H	0.693601	-0.098474	0.701911
H349	H	0.730854	-0.061243	0.701939
H350	H	0.693797	-0.061444	0.745261
C351	C	0.468288	0.164015	0.632747
C352	C	0.439280	0.192989	0.598703
C353	C	0.406092	0.226109	0.624713
H354	H	0.485463	0.184066	0.653121
H355	H	0.448271	0.146773	0.653105
H356	H	0.459294	0.210229	0.578354
H357	H	0.422095	0.172951	0.578328
H358	H	0.386075	0.208867	0.645071
H359	H	0.423271	0.246157	0.645087
H360	H	0.386403	0.245769	0.601619
H361	H	-0.202311	0.139207	0.000047
H362	H	0.209009	-0.060929	0.000089
H363	H	-0.293777	0.138273	0.000051
H364	H	0.117558	-0.061861	0.000088
H365	H	-0.271687	-0.021674	0.000069
H366	H	0.434827	-0.014492	0.000047
H367	H	-0.067947	0.184708	0.000046
H368	H	0.694889	-0.425336	0.000056
