data_functionalizedCrystal
_audit_creation_method	'MofGen! by Chris Wilmer'
_symmetry_space_group_name_H-M	'P1'
_symmetry_Int_Tables_number	1
_symmetry_cell_setting	triclinic
loop_
_symmetry_equiv_pos_as_xyz
  x,y,z
_cell_length_a	11.792254
_cell_length_b	14.971494
_cell_length_c	13.448316
_cell_angle_alpha	89.998062
_cell_angle_beta	90.005028
_cell_angle_gamma	96.091922
loop_
_atom_site_label
_atom_site_type_symbol
_atom_site_fract_x
_atom_site_fract_y
_atom_site_fract_z
O1	O	1.506115	-0.122649	0.082687
O2	O	1.839448	0.210684	0.416020
O3	O	2.172781	0.544018	0.749354
O4	O	1.175695	-0.135272	0.082689
O5	O	1.509028	0.198061	0.416022
O6	O	1.842361	0.531395	0.749355
O7	O	1.349756	0.001203	0.082686
O8	O	1.683089	0.334537	0.416019
O9	O	2.016423	0.667870	0.749352
O10	O	1.332054	-0.259124	0.082690
O11	O	1.665387	0.074209	0.416023
O12	O	1.998720	0.407542	0.749357
O13	O	1.349738	0.001205	-0.082698
O14	O	1.683072	0.334538	0.250635
O15	O	2.016405	0.667871	0.583968
O16	O	1.175677	-0.135271	-0.082695
O17	O	1.509011	0.198063	0.250638
O18	O	1.842344	0.531396	0.583972
O19	O	1.506097	-0.122648	-0.082697
O20	O	1.839431	0.210686	0.250636
O21	O	2.172764	0.544019	0.583970
Cu22	Cu	1.340886	-0.128959	-0.097797
Cu23	Cu	1.674219	0.204374	0.235537
Cu24	Cu	2.007552	0.537708	0.568870
Cu25	Cu	1.340906	-0.128961	0.097789
Cu26	Cu	1.674240	0.204373	0.431122
Cu27	Cu	2.007573	0.537706	0.764455
O28	O	1.332036	-0.259123	-0.082694
O29	O	1.665370	0.074210	0.250640
O30	O	1.998703	0.407544	0.583973
C31	C	1.133400	-0.134476	-0.000003
C32	C	1.466734	0.198857	0.333330
C33	C	1.800067	0.532190	0.666664
C34	C	1.007403	-0.132096	-0.000002
C35	C	1.340736	0.201237	0.333331
C36	C	1.674069	0.534570	0.666664
C37	C	0.905078	-0.130162	0.000002
C38	C	1.238412	0.203171	0.333335
C39	C	1.571745	0.536504	0.666669
C40	C	0.776707	-0.127744	0.000003
C41	C	1.110041	0.205589	0.333336
C42	C	1.443374	0.538922	0.666669
C43	C	1.348954	0.034532	-0.000005
C44	C	1.682287	0.367865	0.333329
C45	C	2.015621	0.701198	0.666662
C46	C	1.346576	0.133838	-0.000000
C47	C	1.679910	0.467171	0.333333
C48	C	2.013243	0.800505	0.666666
C49	C	1.548392	-0.123444	-0.000003
C50	C	1.881725	0.209890	0.333330
C51	C	2.215058	0.543223	0.666664
C52	C	1.674389	-0.125824	0.000003
C53	C	2.007723	0.207510	0.333336
C54	C	2.341056	0.540843	0.666669
C55	C	1.332838	-0.292451	-0.000001
C56	C	1.666172	0.040882	0.333332
C57	C	1.999505	0.374215	0.666666
C58	C	1.335216	-0.391758	0.000001
C59	C	1.668549	-0.058424	0.333334
C60	C	2.001882	0.274909	0.666667
C61	C	1.345471	0.180486	0.090152
C62	C	1.678805	0.513820	0.423485
C63	C	2.012138	0.847153	0.756818
C64	C	1.343230	0.273795	0.090153
C65	C	1.676563	0.607128	0.423486
C66	C	2.009897	0.940461	0.756820
C67	C	1.342102	0.320453	0.000001
C68	C	1.675435	0.653787	0.333335
C69	C	2.008769	0.987120	0.666668
C70	C	1.343203	0.273798	-0.090158
C71	C	1.676537	0.607131	0.243176
C72	C	2.009870	0.940465	0.576509
C73	C	1.345437	0.180491	-0.090158
C74	C	1.678770	0.513824	0.243176
C75	C	2.012103	0.847157	0.576509
C76	C	1.338552	0.468280	-0.090151
C77	C	1.671885	0.801613	0.243182
C78	C	2.005218	1.134946	0.576516
C79	C	1.336321	0.561594	-0.090151
C80	C	1.669654	0.894927	0.243182
C81	C	2.002987	1.228260	0.576516
C82	C	1.336345	0.561584	0.090160
C83	C	1.669679	0.894917	0.423493
C84	C	2.003012	1.228250	0.756826
C85	C	1.338578	0.468277	0.090160
C86	C	1.671912	0.801610	0.423493
C87	C	2.005245	1.134943	0.756826
C88	C	1.339682	0.421628	0.000000
C89	C	1.673015	0.754961	0.333334
C90	C	2.006349	1.088294	0.666667
N91	N	1.340880	-0.128958	-0.235361
N92	N	1.674213	0.204376	0.097972
N93	N	2.007546	0.537709	0.431306
C94	C	1.409786	-0.183577	-0.287397
C95	C	1.743119	0.149756	0.045937
C96	C	2.076452	0.483090	0.379270
C97	C	1.409800	-0.183573	-0.391500
C98	C	1.743133	0.149760	-0.058166
C99	C	2.076466	0.483093	0.275167
C100	C	1.340901	-0.128954	-0.443566
C101	C	1.674234	0.204379	-0.110232
C102	C	2.007568	0.537713	0.223101
C103	C	1.271992	-0.074328	-0.391523
C104	C	1.605325	0.259005	-0.058190
C105	C	1.938659	0.592338	0.275144
C106	C	1.271985	-0.074328	-0.287422
C107	C	1.605318	0.259005	0.045912
C108	C	1.938652	0.592339	0.379245
C109	C	1.272010	-0.074334	-0.608503
C110	C	1.605343	0.258999	-0.275170
C111	C	1.938677	0.592332	0.058164
C112	C	1.272015	-0.074336	-0.712612
C113	C	1.605349	0.258998	-0.379278
C114	C	1.938682	0.592331	-0.045945
C115	C	1.409825	-0.183580	-0.712581
C116	C	1.743158	0.149754	-0.379248
C117	C	2.076492	0.483087	-0.045915
C118	C	1.409818	-0.183579	-0.608480
C119	C	1.743151	0.149754	-0.275147
C120	C	2.076484	0.483087	0.058187
C121	C	1.340907	-0.128955	-0.556444
C122	C	1.674240	0.204379	-0.223111
C123	C	2.007574	0.537712	0.110222
N124	N	1.340921	-0.128955	0.235353
N125	N	1.674255	0.204378	0.568686
N126	N	2.007588	0.537711	0.902020
H127	H	1.346396	0.142504	0.163564
H128	H	1.679729	0.475838	0.496897
H129	H	2.013063	0.809171	0.830231
H130	H	1.342335	0.311772	0.163564
H131	H	1.675669	0.645105	0.496897
H132	H	2.009002	0.978439	0.830230
H133	H	1.346320	0.142509	-0.163569
H134	H	1.679654	0.475842	0.169765
H135	H	2.012987	0.809176	0.503098
H136	H	1.335392	0.599580	-0.163561
H137	H	1.668726	0.932913	0.169773
H138	H	2.002059	1.266246	0.503106
H139	H	1.342278	0.311794	-0.163561
H140	H	1.675611	0.645127	0.169773
H141	H	2.008945	0.978461	0.503106
H142	H	1.339505	0.430290	0.163569
H143	H	1.672839	0.763624	0.496902
H144	H	2.006172	1.096957	0.830236
H145	H	1.339426	0.430299	-0.163568
H146	H	1.672759	0.763632	0.169765
H147	H	2.006092	1.096966	0.503099
H148	H	1.465916	-0.228059	-0.566091
H149	H	1.799249	0.105274	-0.232757
H150	H	2.132582	0.438607	0.100576
H151	H	1.215897	-0.029852	-0.566139
H152	H	1.549231	0.303481	-0.232806
H153	H	1.882564	0.636815	0.100528
H154	H	1.335444	0.599569	0.163571
H155	H	1.668778	0.932903	0.496904
H156	H	2.002111	1.266236	0.830237
H157	H	1.465884	-0.228060	-0.245012
H158	H	1.799218	0.105274	0.088321
H159	H	2.132551	0.438607	0.421655
H160	H	1.465930	-0.228061	-0.754954
H161	H	1.799263	0.105273	-0.421620
H162	H	2.132597	0.438606	-0.088287
H163	H	1.215911	-0.029861	-0.755001
H164	H	1.549244	0.303472	-0.421668
H165	H	1.882577	0.636805	-0.088334
H166	H	1.465912	-0.228048	-0.433862
H167	H	1.799245	0.105285	-0.100529
H168	H	2.132579	0.438619	0.232804
H169	H	1.215899	-0.029852	-0.433923
H170	H	1.549233	0.303481	-0.100590
H171	H	1.882566	0.636815	0.232743
H172	H	1.215874	-0.029851	-0.245056
H173	H	1.549208	0.303482	0.088278
H174	H	1.882541	0.636815	0.421611
