data_functionalizedCrystal
_audit_creation_method	'MofGen! by Chris Wilmer'
_symmetry_space_group_name_H-M	'P1'
_symmetry_Int_Tables_number	1
_symmetry_cell_setting	triclinic
loop_
_symmetry_equiv_pos_as_xyz
  x,y,z
_cell_length_a	12.759401
_cell_length_b	18.050590
_cell_length_c	12.759393
_cell_angle_alpha	90.034679
_cell_angle_beta	90.019676
_cell_angle_gamma	90.018979
loop_
_atom_site_label
_atom_site_type_symbol
_atom_site_fract_x
_atom_site_fract_y
_atom_site_fract_z
Zn1	Zn	1.606238	-0.295615	0.593954
Zn2	Zn	1.606117	-0.419823	0.418261
Zn3	Zn	1.430537	-0.295652	0.418293
Zn4	Zn	1.430517	-0.419769	0.593903
O5	O	1.518352	-0.357715	0.506103
O6	O	1.753243	-0.312099	0.570656
O7	O	1.582784	-0.403390	0.271245
O8	O	1.453903	-0.191723	0.441630
O9	O	1.753155	-0.403354	0.441576
O10	O	1.582990	-0.191695	0.570687
O11	O	1.453786	-0.312162	0.271268
O12	O	1.283513	-0.312109	0.441580
O13	O	1.453869	-0.403261	0.740931
O14	O	1.283499	-0.403297	0.570599
O15	O	1.582971	-0.312046	0.740968
O16	O	1.582765	-0.523740	0.441526
O17	O	1.453752	-0.523700	0.570568
C18	C	1.245385	-0.357702	0.506088
C19	C	1.128608	-0.357714	0.506107
C20	C	1.073793	-0.310284	0.573423
C21	C	0.964069	-0.310291	0.573429
C22	C	0.963985	-0.405166	0.438802
C23	C	1.073707	-0.405155	0.438790
C24	C	1.518272	-0.550667	0.506061
C25	C	1.518333	-0.633213	0.506078
C26	C	1.588636	-0.832658	0.436003
C27	C	1.614306	-0.881983	0.531889
C28	C	1.518393	-0.784343	0.506120
C29	C	1.492831	-0.882100	0.410277
C30	C	1.518452	-0.930328	0.506152
C31	C	1.544111	-0.832581	0.602057
C32	C	1.422592	-0.832693	0.480380
C33	C	1.448224	-0.881996	0.576332
C34	C	1.518361	-0.700245	0.506100
C35	C	1.518484	-1.014425	0.506183
C36	C	1.792386	-0.357728	0.506118
C37	C	1.909162	-0.357734	0.506125
C38	C	1.518431	-0.357643	0.780136
C39	C	1.518465	-0.357613	0.896913
C40	C	1.518462	-0.164009	0.506168
C41	C	1.518509	-0.081463	0.506196
C42	C	1.518335	-0.357732	0.233135
C43	C	1.518505	-0.357553	0.116359
C44	C	1.585693	-0.310110	0.951796
C45	C	1.585711	-0.310078	1.061521
C46	C	1.451269	-0.405059	1.061468
C47	C	1.451247	-0.405086	0.951746
H48	H	0.919271	-0.443791	0.383996
H49	H	1.640453	-0.271395	1.106202
Br50	Br	1.148299	-0.245899	0.664777
H51	H	0.919444	-0.271667	0.628243
H52	H	1.640423	-0.271452	0.907155
H53	H	1.396545	-0.443711	1.106127
H54	H	1.118339	-0.443779	0.383968
H55	H	1.388847	-0.903523	0.635711
H56	H	1.648059	-0.810994	0.376768
H57	H	1.695348	-0.903636	0.553681
Br58	Br	1.287546	-0.796581	0.444017
Br59	Br	1.580360	-0.796488	0.737211
H60	H	1.471186	-0.903850	0.329210
H61	H	1.396494	-0.443769	0.907059
