data_functionalizedCrystal
_audit_creation_method	'MofGen! by Chris Wilmer'
_symmetry_space_group_name_H-M	'P1'
_symmetry_Int_Tables_number	1
_symmetry_cell_setting	triclinic
loop_
_symmetry_equiv_pos_as_xyz
  x,y,z
_cell_length_a	29.839131
_cell_length_b	29.839135
_cell_length_c	12.759393
_cell_angle_alpha	89.974022
_cell_angle_beta	89.963184
_cell_angle_gamma	90.043950
loop_
_atom_site_label
_atom_site_type_symbol
_atom_site_fract_x
_atom_site_fract_y
_atom_site_fract_z
Zn1	Zn	-0.178801	0.686766	-0.594115
Zn2	Zn	-0.253938	0.686685	-0.418416
Zn3	Zn	-0.178826	0.611635	-0.418435
Zn4	Zn	-0.253908	0.611597	-0.594038
O5	O	-0.216369	0.649171	-0.506251
O6	O	-0.188770	0.749622	-0.570833
O7	O	-0.243998	0.676711	-0.271397
O8	O	-0.115956	0.621652	-0.441780
O9	O	-0.243973	0.749563	-0.441747
O10	O	-0.115937	0.676850	-0.570851
O11	O	-0.188813	0.621573	-0.271411
O12	O	-0.188784	0.548763	-0.441705
O13	O	-0.243922	0.621586	-0.741069
O14	O	-0.243946	0.548735	-0.570719
O15	O	-0.188741	0.676813	-0.741126
O16	O	-0.316801	0.676674	-0.441672
O17	O	-0.316779	0.621507	-0.570701
C18	C	-0.216365	0.532448	-0.506206
C19	C	-0.216374	0.482514	-0.506212
C20	C	-0.333091	0.649090	-0.506199
C21	C	-0.383026	0.649096	-0.506212
C22	C	-0.187668	0.172899	-0.573565
C23	C	-0.187671	-0.014775	-0.573595
O24	O	-0.163254	-0.039015	-0.630811
N25	N	-0.216369	-0.038271	-0.506289
C26	C	-0.245066	-0.014847	-0.438967
O27	O	-0.269472	-0.039139	-0.381713
C28	C	-0.245061	0.172825	-0.438933
C29	C	-0.216364	0.196320	-0.506250
C30	C	-0.158973	0.196393	-0.640876
C31	C	-0.158975	0.243309	-0.640871
C32	C	-0.187670	0.266729	-0.573557
C33	C	-0.216365	0.243235	-0.506246
C34	C	-0.273755	0.196248	-0.371606
C35	C	-0.273750	0.243169	-0.371601
C36	C	-0.245054	0.266664	-0.438919
C37	C	-0.245062	0.313571	-0.438927
N38	N	-0.216364	0.337068	-0.506232
C39	C	-0.187668	0.313647	-0.573547
C40	C	-0.245068	-0.113378	-0.438991
C41	C	-0.245070	-0.160296	-0.439001
C42	C	-0.187674	-0.160220	-0.573628
C43	C	-0.187675	-0.113301	-0.573622
C44	C	-0.216370	-0.089881	-0.506297
C45	C	-0.187673	0.412173	-0.573534
C46	C	-0.187679	0.459093	-0.573527
C47	C	-0.245073	0.459013	-0.438897
C48	C	-0.245069	0.412097	-0.438907
C49	C	-0.216366	0.388679	-0.506229
O50	O	-0.269463	0.337841	-0.381732
O51	O	-0.163259	0.337947	-0.630776
C52	C	-0.187667	0.125983	-0.573569
C53	C	-0.216361	0.102489	-0.506258
C54	C	-0.245057	0.125910	-0.438943
C55	C	-0.216363	0.055571	-0.506268
C56	C	-0.187668	0.032150	-0.573583
C57	C	-0.158970	0.055647	-0.640888
C58	C	-0.158971	0.102562	-0.640884
C59	C	-0.273755	0.102413	-0.371638
C60	C	-0.273752	0.055497	-0.371648
C61	C	-0.245056	0.032076	-0.438963
C62	C	-0.692668	0.677948	-0.439164
C63	C	-0.880341	0.678004	-0.439205
O64	O	-0.904605	0.702471	-0.382158
N65	N	-0.903811	0.649264	-0.506330
C66	C	-0.880359	0.620510	-0.573455
O67	O	-0.904628	0.596070	-0.630558
C68	C	-0.692687	0.620457	-0.573419
C69	C	-0.669220	0.649196	-0.506281
C70	C	-0.669200	0.706685	-0.372033
C71	C	-0.622285	0.706669	-0.372019
C72	C	-0.598837	0.677916	-0.439137
C73	C	-0.622304	0.649180	-0.506268
C74	C	-0.669237	0.591706	-0.640548
C75	C	-0.622316	0.591696	-0.640535
C76	C	-0.598848	0.620435	-0.573398
C77	C	-0.551941	0.620412	-0.573372
N78	N	-0.528471	0.649151	-0.506246
C79	C	-0.551919	0.677904	-0.439129
C80	C	-0.978890	0.620539	-0.573468
C81	C	-1.025808	0.620552	-0.573476
C82	C	-1.025786	0.678046	-0.439227
C83	C	-0.978867	0.678031	-0.439214
C84	C	-0.955420	0.649279	-0.506342
C85	C	-0.453393	0.677868	-0.439105
C86	C	-0.406474	0.677848	-0.439094
C87	C	-0.406499	0.620356	-0.573347
C88	C	-0.453415	0.620374	-0.573354
C89	C	-0.476861	0.649134	-0.506230
O90	O	-0.527648	0.595961	-0.630397
O91	O	-0.527642	0.702348	-0.382051
C92	C	-0.739583	0.677964	-0.439178
C93	C	-0.763051	0.649228	-0.506309
C94	C	-0.739603	0.620475	-0.573426
C95	C	-0.809968	0.649240	-0.506317
C96	C	-0.833417	0.677993	-0.439199
C97	C	-0.809947	0.706732	-0.372074
C98	C	-0.763031	0.706717	-0.372060
C99	C	-0.763072	0.591735	-0.640552
C100	C	-0.809988	0.591753	-0.640559
C101	C	-0.833436	0.620506	-0.573441
C102	C	-0.099190	0.649264	-0.506326
C103	C	-0.049256	0.649304	-0.506358
C104	C	-0.216325	0.649204	-0.780284
C105	C	-0.216307	0.649219	-0.897061
C106	C	-0.216372	0.766349	-0.506297
C107	C	-0.216374	0.816283	-0.506316
C108	C	-0.187570	0.677977	-0.951954
C109	C	-0.187550	0.677985	-1.061679
C110	C	-0.245009	0.620474	-1.061606
C111	C	-0.245026	0.620464	-0.951884
C112	C	-0.134546	0.694093	-1.211674
C113	C	-0.105812	0.722859	-1.266571
C114	C	-0.098923	0.766697	-1.230990
C115	C	-0.120773	0.781778	-1.140514
C116	C	-0.149509	0.753015	-1.085623
C117	C	-0.156390	0.709171	-1.121202
C118	C	-0.298032	0.604361	-0.801887
C119	C	-0.326771	0.575600	-0.746994
C120	C	-0.333665	0.531761	-0.782572
C121	C	-0.311823	0.516681	-0.873052
C122	C	-0.283084	0.545442	-0.927945
C123	C	-0.276189	0.589281	-0.892359
C124	C	-0.216379	0.649163	-0.233284
C125	C	-0.216271	0.649236	-0.116507
H126	H	-0.164310	0.478220	-0.628348
H127	H	-0.167301	0.765295	-1.011962
H128	H	-0.603181	0.730071	-0.317354
H129	H	-0.115164	0.817478	-1.111557
H130	H	-0.135606	0.262434	-0.695686
F131	F	-0.157124	0.387256	-0.645185
F132	F	-0.953941	0.589935	-0.644919
H133	H	-0.268437	0.478091	-0.384093
F134	F	-0.275623	0.387092	-0.367288
F135	F	-0.259837	0.529391	-1.024242
H136	H	-0.743928	0.730118	-0.317391
F137	F	-0.128428	0.171474	-0.712527
H138	H	-0.829046	0.730142	-0.317421
F139	F	-0.082559	0.706806	-1.362859
F140	F	-0.381501	0.708437	-0.367634
F141	F	-0.128428	0.127561	-0.712533
H142	H	-0.164306	-0.094175	-0.628436
H143	H	-0.297117	0.262236	-0.316774
F144	F	-0.275574	0.589875	-1.119962
F145	F	-0.068343	0.797311	-1.289421
H146	H	-0.164309	-0.179297	-0.628439
H147	H	-0.268443	-0.179421	-0.384197
H148	H	-0.268436	-0.094313	-0.384164
H149	H	-0.135606	0.036569	-0.695701
F150	F	-0.834958	0.561162	-0.712018
F151	F	-0.350021	0.591652	-0.650703
F152	F	-0.141871	0.647432	-1.249540
F153	F	-1.050778	0.589959	-0.644921
H154	H	-0.743985	0.568322	-0.695208
F155	F	-0.290684	0.651016	-0.763995
H156	H	-0.688287	0.730101	-0.317377
F157	F	-0.304295	0.127333	-0.299979
F158	F	-0.319161	0.470022	-0.910923
F159	F	-0.953896	0.708618	-0.367759
F160	F	-0.478339	0.708477	-0.367663
F161	F	-0.304297	0.030498	-0.299995
F162	F	-0.694202	0.561122	-0.712015
F163	F	-0.597364	0.561095	-0.711987
F164	F	-0.478391	0.589779	-0.644789
H165	H	-0.357071	0.508345	-0.737873
F166	F	-0.157003	0.708579	-0.893611
H167	H	-0.297123	0.177127	-0.316788
H168	H	-1.044885	0.701458	-0.384577
H169	H	-0.387401	0.596945	-0.627990
