data_functionalizedCrystal
_audit_creation_method	'MofGen! by Chris Wilmer'
_symmetry_space_group_name_H-M	'P1'
_symmetry_Int_Tables_number	1
_symmetry_cell_setting	triclinic
loop_
_symmetry_equiv_pos_as_xyz
  x,y,z
_cell_length_a	21.395364
_cell_length_b	18.050589
_cell_length_c	21.395355
_cell_angle_alpha	89.987098
_cell_angle_beta	89.975448
_cell_angle_gamma	90.043172
loop_
_atom_site_label
_atom_site_type_symbol
_atom_site_fract_x
_atom_site_fract_y
_atom_site_fract_z
Zn1	Zn	0.957870	-0.295449	-0.354286
Zn2	Zn	1.457870	0.204551	0.145714
Zn3	Zn	0.957777	-0.419621	-0.249519
Zn4	Zn	1.457777	0.080379	0.250481
Zn5	Zn	0.853085	-0.295482	-0.249523
Zn6	Zn	1.353085	0.204518	0.250477
Zn7	Zn	0.853059	-0.419634	-0.354259
Zn8	Zn	1.353059	0.080366	0.145741
O9	O	0.905448	-0.357547	-0.301897
O10	O	1.405448	0.142453	0.198103
O11	O	1.045536	-0.311902	-0.340398
O12	O	1.545536	0.188098	0.159602
O13	O	0.943862	-0.403162	-0.161841
O14	O	1.443862	0.096838	0.338159
O15	O	0.867035	-0.191553	-0.263433
O16	O	1.367035	0.308447	0.236567
O17	O	1.045467	-0.403130	-0.263426
O18	O	1.545467	0.096870	0.236574
O19	O	0.944020	-0.191529	-0.340402
O20	O	1.444020	0.308471	0.159598
O21	O	0.866945	-0.311957	-0.161844
O22	O	1.366945	0.188043	0.338156
O23	O	0.765404	-0.311970	-0.263406
O24	O	1.265404	0.188030	0.236594
O25	O	0.866990	-0.403153	-0.441940
O26	O	1.366990	0.096847	0.058060
O27	O	0.765384	-0.403184	-0.340356
O28	O	1.265384	0.096816	0.159644
O29	O	0.943995	-0.311915	-0.441960
O30	O	1.443995	0.188085	0.058040
O31	O	0.943836	-0.523547	-0.263400
O32	O	1.443836	-0.023547	0.236600
O33	O	0.866900	-0.523557	-0.340352
O34	O	1.366900	-0.023557	0.159648
C35	C	0.742660	-0.357583	-0.301879
C36	C	1.242660	0.142417	0.198121
C37	C	0.673019	-0.357616	-0.301886
C38	C	1.173019	0.142384	0.198114
C39	C	0.640364	-0.310191	-0.342028
C40	C	1.140364	0.189809	0.157972
C41	C	0.574928	-0.310171	-0.342030
C42	C	1.074928	0.189829	0.157970
C43	C	0.542151	-0.357590	-0.301898
C44	C	1.042151	0.142410	0.198102
C45	C	0.574814	-0.405018	-0.261749
C46	C	1.074814	0.094982	0.238251
C47	C	0.640248	-0.405031	-0.261743
C48	C	1.140248	0.094969	0.238257
C49	C	0.438429	-0.424470	-0.296866
C50	C	0.938429	0.075530	0.203134
C51	C	0.372996	-0.424458	-0.296876
C52	C	0.872996	0.075542	0.203124
C53	C	0.340330	-0.357549	-0.301912
C54	C	0.840330	0.142451	0.198088
C55	C	0.373105	-0.290650	-0.306951
C56	C	0.873105	0.209350	0.193049
C57	C	0.438539	-0.290663	-0.306945
C58	C	0.938539	0.209337	0.193055
C59	C	0.471198	-0.357581	-0.301899
C60	C	0.971198	0.142419	0.198101
C61	C	0.236722	-0.310099	-0.342058
C62	C	0.736722	0.189901	0.157942
C63	C	0.171285	-0.310078	-0.342056
C64	C	0.671285	0.189922	0.157944
C65	C	0.171172	-0.404931	-0.261778
C66	C	0.671172	0.095069	0.238222
C67	C	0.236607	-0.404945	-0.261776
C68	C	0.736607	0.095055	0.238224
C69	C	0.269379	-0.357530	-0.301920
C70	C	0.769379	0.142470	0.198080
C71	C	0.905372	-0.550499	-0.301886
C72	C	1.405372	-0.050499	0.198114
C73	C	0.905397	-0.633045	-0.301903
C74	C	1.405397	-0.133045	0.198097
C75	C	0.863600	-0.832527	-0.343735
C76	C	1.363600	-0.332527	0.156265
C77	C	0.848322	-0.881960	-0.286561
C78	C	1.348322	-0.381960	0.213439
C79	C	0.905459	-0.784175	-0.301911
C80	C	1.405459	-0.284175	0.198089
C81	C	0.920768	-0.881824	-0.359090
C82	C	1.420768	-0.381824	0.140910
C83	C	0.905517	-0.930160	-0.301924
C84	C	1.405517	-0.430160	0.198076
C85	C	0.890150	-0.832520	-0.244707
C86	C	1.390150	-0.332520	0.255293
C87	C	0.962622	-0.832380	-0.317275
C88	C	1.462622	-0.332380	0.182725
C89	C	0.947366	-0.881790	-0.260062
C90	C	1.447366	-0.381790	0.239938
C91	C	0.905423	-0.700077	-0.301904
C92	C	1.405423	-0.200077	0.198096
C93	C	0.905552	-1.014256	-0.301924
C94	C	1.405552	-0.514256	0.198076
C95	C	1.068871	-0.357511	-0.301915
C96	C	1.568871	0.142489	0.198085
C97	C	1.138512	-0.357496	-0.301922
C98	C	1.638512	0.142504	0.198078
C99	C	0.905500	-0.357532	-0.465320
C100	C	1.405500	0.142468	0.034680
C101	C	0.905522	-0.357525	-0.534961
C102	C	1.405522	0.142475	-0.034961
C103	C	0.905541	-0.163841	-0.301921
C104	C	1.405541	0.336159	0.198079
C105	C	0.905580	-0.081295	-0.301931
C106	C	1.405580	0.418705	0.198069
C107	C	0.945616	-0.310015	-0.567686
C108	C	1.445616	0.189985	-0.067686
C109	C	0.945616	-0.309983	-0.633121
C110	C	1.445616	0.190017	-0.133121
C111	C	0.905527	-0.357475	-0.665830
C112	C	1.405527	0.142525	-0.165830
C113	C	0.865425	-0.404988	-0.633097
C114	C	1.365425	0.095012	-0.133097
C115	C	0.865422	-0.405013	-0.567663
C116	C	1.365422	0.094987	-0.067663
C117	C	0.900553	-0.424345	-0.769501
C118	C	1.400553	0.075655	-0.269501
C119	C	0.900560	-0.424321	-0.834934
C120	C	1.400560	0.075679	-0.334934
C121	C	0.905531	-0.357396	-0.867650
C122	C	1.405531	0.142604	-0.367650
C123	C	0.910508	-0.290493	-0.834926
C124	C	1.410508	0.209507	-0.334926
C125	C	0.910505	-0.290518	-0.769492
C126	C	1.410505	0.209482	-0.269492
C127	C	0.905525	-0.357452	-0.736782
C128	C	1.405525	0.142548	-0.236782
C129	C	0.945626	-0.309848	-0.971327
C130	C	1.445626	0.190152	-0.471327
C131	C	0.945621	-0.309814	-1.036764
C132	C	1.445621	0.190186	-0.536764
C133	C	0.865433	-0.404825	-1.036739
C134	C	1.365433	0.095175	-0.536739
C135	C	0.865435	-0.404852	-0.971304
C136	C	1.365435	0.095148	-0.471304
C137	C	0.905535	-0.357364	-0.938602
C138	C	1.405535	0.142636	-0.438602
C139	C	0.905432	-0.357508	-0.139109
C140	C	1.405432	0.142492	0.360891
C141	C	0.905531	-0.357305	-0.069468
C142	C	1.405531	0.142695	0.430532
H143	H	0.548335	-0.271549	-0.374717
H144	H	1.048335	0.228451	0.125283
C145	C	0.895085	-0.497915	-0.870924
C146	C	1.395085	0.002085	-0.370924
N147	N	0.890960	-0.553348	-0.898030
N148	N	1.390960	-0.053348	-0.398030
C149	C	0.938230	-0.911082	-0.424410
C150	C	1.438230	-0.411082	0.075590
N151	N	0.951378	-0.933115	-0.473611
N152	N	1.451378	-0.433115	0.026389
H153	H	0.346510	-0.236166	-0.311051
H154	H	0.846510	0.263834	0.188949
C155	C	0.783048	-0.911380	-0.269008
C156	C	1.283048	-0.411380	0.230992
N157	N	0.733883	-0.933538	-0.255791
N158	N	1.233883	-0.433538	0.244209
H159	H	0.465222	-0.236191	-0.311046
H160	H	0.965222	0.263809	0.188954
C161	C	0.872610	-0.803386	-0.179369
C162	C	1.372610	-0.303386	0.320631
N163	N	0.859396	-0.781440	-0.130159
N164	N	1.359396	-0.281440	0.369841
C165	C	0.989719	-0.257767	-0.531717
C166	C	1.489719	0.242233	-0.031717
N167	N	1.022935	-0.218410	-0.504625
N168	N	1.522935	0.281590	-0.004625
H169	H	0.982789	-0.903285	-0.224658
H170	H	1.482789	-0.403285	0.275342
H171	H	0.263406	-0.271486	-0.374741
H172	H	0.763406	0.228514	0.125259
C173	C	1.027873	-0.802925	-0.334858
C174	C	1.527873	-0.302925	0.165142
N175	N	1.077018	-0.780733	-0.348110
N176	N	1.577018	-0.280733	0.151890
C177	C	0.821314	-0.457281	-0.531665
C178	C	1.321314	0.042719	-0.031665
N179	N	0.788093	-0.496652	-0.504550
N180	N	1.288093	0.003348	-0.004550
C181	C	0.135365	-0.257903	-0.386216
C182	C	0.635365	0.242097	0.113784
N183	N	0.108309	-0.218604	-0.419479
N184	N	0.608309	0.281396	0.080521
C185	C	0.989728	-0.257721	-0.669125
C186	C	1.489728	0.242279	-0.169125
N187	N	1.022955	-0.218359	-0.696242
N188	N	1.522955	0.281641	-0.196242
H189	H	0.914556	-0.236044	-0.742851
H190	H	1.414556	0.263956	-0.242851
C191	C	0.915974	-0.216869	-0.870910
C192	C	1.415974	0.283131	-0.370910
N193	N	0.920092	-0.161418	-0.898015
N194	N	1.420092	0.338582	-0.398015
H195	H	0.263196	-0.443567	-0.229091
H196	H	0.763196	0.056433	0.270909
H197	H	0.978275	-0.271176	-0.944700
H198	H	1.478275	0.228824	-0.444700
C199	C	0.474354	-0.498081	-0.291329
C200	C	0.974354	0.001919	0.208671
N201	N	0.501413	-0.553523	-0.287160
N202	N	1.001413	-0.053523	0.212840
C203	C	0.989729	-0.257546	-1.072761
C204	C	1.489729	0.242454	-0.572761
N205	N	1.022953	-0.218176	-1.099874
N206	N	1.522953	0.281824	-0.599874
H207	H	0.832786	-0.443486	-1.063369
H208	H	1.332786	0.056514	-0.563369
H209	H	0.832790	-0.443544	-0.944659
H210	H	1.332790	0.056456	-0.444659
C211	C	0.135120	-0.457091	-0.217631
C212	C	0.635120	0.042909	0.282369
N213	N	0.107963	-0.496379	-0.184377
N214	N	0.607963	0.003621	0.315623
H215	H	0.346315	-0.478932	-0.292776
H216	H	0.846315	0.021068	0.207224
H217	H	0.828150	-0.810895	-0.379053
H218	H	1.328150	-0.310895	0.120947
C219	C	0.895097	-0.497974	-0.733519
C220	C	1.395097	0.002026	-0.233519
N221	N	0.890992	-0.553430	-0.706418
N222	N	1.390992	-0.053430	-0.206418
H223	H	0.548122	-0.443626	-0.229072
H224	H	1.048122	0.056374	0.270928
H225	H	0.832782	-0.443653	-0.659733
H226	H	1.332782	0.056347	-0.159733
H227	H	0.666835	-0.443652	-0.229054
H228	H	1.166835	0.056348	0.270946
H229	H	0.667042	-0.271581	-0.374715
H230	H	1.167042	0.228419	0.125285
