data_functionalizedCrystal
_audit_creation_method	'MofGen! by Chris Wilmer'
_symmetry_space_group_name_H-M	'P1'
_symmetry_Int_Tables_number	1
_symmetry_cell_setting	triclinic
loop_
_symmetry_equiv_pos_as_xyz
  x,y,z
_cell_length_a	18.215407
_cell_length_b	18.215404
_cell_length_c	18.215399
_cell_angle_alpha	90.027515
_cell_angle_beta	89.983101
_cell_angle_gamma	89.978718
loop_
_atom_site_label
_atom_site_type_symbol
_atom_site_fract_x
_atom_site_fract_y
_atom_site_fract_z
Zn1	Zn	1.125077	0.293042	-0.416060
Zn2	Zn	1.124988	0.416113	-0.292995
Zn3	Zn	1.002010	0.293059	-0.293014
Zn4	Zn	1.001978	0.416066	-0.416026
O5	O	1.063513	0.354570	-0.354524
O6	O	1.228050	0.309380	-0.399742
O7	O	1.108651	0.399817	-0.190013
O8	O	1.018386	0.190073	-0.309359
O9	O	1.227984	0.399800	-0.309326
O10	O	1.108803	0.190060	-0.399760
O11	O	1.018299	0.309410	-0.190027
O12	O	0.899021	0.309364	-0.309326
O13	O	1.018332	0.399719	-0.519015
O14	O	0.898998	0.399736	-0.399702
O15	O	1.108772	0.309334	-0.519040
O16	O	1.108620	0.519091	-0.309293
O17	O	1.018245	0.519056	-0.399684
C18	C	0.872307	0.354547	-0.354513
C19	C	0.790508	0.354555	-0.354525
C20	C	0.525458	0.401704	-0.401518
C21	C	0.602316	0.401698	-0.401515
C22	C	0.602310	0.307452	-0.307542
C23	C	0.525453	0.307463	-0.307543
C24	C	0.487029	0.354588	-0.354535
C25	C	0.640745	0.354571	-0.354531
C26	C	0.724078	0.354564	-0.354527
C27	C	0.403690	0.354596	-0.354538
C28	C	1.063439	0.545776	-0.354499
C29	C	1.063475	0.627575	-0.354513
C30	C	1.063558	0.354519	-0.546477
C31	C	1.063577	0.354498	-0.628276
C32	C	1.255466	0.354593	-0.354536
C33	C	1.337265	0.354603	-0.354541
C34	C	1.110647	0.815763	-0.307543
C35	C	1.110681	0.892621	-0.307565
C36	C	1.016492	0.892625	-0.401611
C37	C	1.016462	0.815768	-0.401592
C38	C	1.063539	0.777339	-0.354554
C39	C	1.063603	0.931055	-0.354595
C40	C	1.063640	1.014388	-0.354619
C41	C	1.063503	0.694000	-0.354531
C42	C	1.063613	1.162617	-0.354579
C43	C	1.063667	1.080818	-0.354636
C44	C	1.110687	0.307390	-0.816484
C45	C	1.110695	0.307369	-0.893343
C46	C	1.016520	0.401491	-0.893306
C47	C	1.016508	0.401509	-0.816448
C48	C	1.063596	0.354459	-0.778040
C49	C	1.063616	0.354420	-0.931756
C50	C	1.063625	0.354397	-1.015089
C51	C	1.063586	0.354481	-0.694701
C52	C	1.063511	0.354567	-0.163318
C53	C	1.063635	0.354382	-0.081519
H54	H	0.633605	0.269084	-0.269284
O55	O	0.965740	0.452240	-0.934735
H56	H	0.907985	0.439609	-0.919982
H57	H	1.149043	0.923903	-0.269284
H58	H	1.148980	0.784475	-0.269242
O59	O	0.483996	0.256640	-0.256868
H60	H	0.523625	0.223861	-0.224200
O61	O	0.965704	0.934072	-0.452330
H62	H	0.973630	0.993972	-0.444438
H63	H	0.978101	0.784481	-0.439878
H64	H	1.149026	0.269077	-0.785214
H65	H	0.978156	0.439837	-0.785146
O66	O	1.161483	0.256603	-0.934816
H67	H	1.219236	0.269238	-0.920080
O68	O	0.484011	0.452586	-0.452142
H69	H	0.523648	0.485371	-0.484788
H70	H	0.633602	0.440065	-0.439773
