data_functionalizedCrystal
_audit_creation_method	'MofGen! by Chris Wilmer'
_symmetry_space_group_name_H-M	'P1'
_symmetry_Int_Tables_number	1
_symmetry_cell_setting	triclinic
loop_
_symmetry_equiv_pos_as_xyz
  x,y,z
_cell_length_a	11.804365
_cell_length_b	10.723024
_cell_length_c	10.723024
_cell_angle_alpha	95.532131
_cell_angle_beta	78.053832
_cell_angle_gamma	78.037866
loop_
_atom_site_label
_atom_site_type_symbol
_atom_site_fract_x
_atom_site_fract_y
_atom_site_fract_z
O1	O	0.099016	-1.682181	0.150049
O2	O	0.099020	-1.319030	0.166801
O3	O	0.099013	-1.508981	-0.023150
O4	O	0.099022	-1.492230	0.340000
O5	O	-0.099041	-1.458974	0.026806
O6	O	-0.099034	-1.269022	0.216757
O7	O	-0.099038	-1.632174	0.200005
Cu8	Cu	-0.117120	-1.446032	0.212943
Cu9	Cu	0.117102	-1.505171	0.153864
O10	O	-0.099032	-1.442223	0.389956
C11	C	-0.000007	-1.247527	0.190560
C12	C	-0.000005	-1.108973	0.186912
N13	N	-0.281859	-1.404446	0.254495
C14	C	-0.000012	-1.482758	-0.044672
C15	C	-0.000008	-1.479112	-0.183227
C16	C	-0.655816	-1.646632	0.012496
C17	C	-0.531156	-1.678090	-0.018944
C18	C	-0.468825	-1.609681	0.049413
C19	C	-0.531168	-1.509809	0.149215
C20	C	-0.655841	-1.478354	0.180664
C21	C	-0.468850	-1.441404	0.217582
C22	C	-0.531193	-1.341532	0.317384
C23	C	-0.655853	-1.310081	0.348827
C24	C	-0.718184	-1.378490	0.280470
C25	C	-0.344177	-1.472859	0.186132
C26	C	-0.344202	-1.304582	0.354301
C27	C	-0.468863	-1.273123	0.385740
N28	N	0.281841	-1.546768	0.112302
C29	C	-0.000009	-1.703678	0.176246
C30	C	-0.000003	-1.842233	0.179892
C31	C	-0.000002	-1.033991	0.293199
C32	C	-0.000000	-0.890788	0.289431
C33	C	-0.000007	-1.585400	-0.258210
C34	C	-0.000003	-1.581633	-0.401414
C35	C	-0.000003	-1.468446	0.411478
C36	C	0.000000	-1.472094	0.550031
H37	H	-0.367321	-1.635300	0.023810
H38	H	-0.480401	-1.759406	-0.100200
H39	H	-0.706613	-1.228769	0.430101
H40	H	-0.519638	-1.191805	0.467002
C41	C	-0.000015	-1.712103	-0.201721
C42	C	-0.102862	-1.779371	-0.205034
C43	C	-0.102872	-1.906078	-0.148547
C44	C	-0.000033	-1.965517	-0.088748
C45	C	0.102822	-1.898249	-0.085432
C46	C	0.102831	-1.771542	-0.141919
H47	H	-0.178996	-1.735371	-0.249303
H48	H	-0.179012	-1.955873	-0.151002
H49	H	-0.000040	-2.059313	-0.046933
H50	H	0.178956	-1.942249	-0.041163
H51	H	0.178972	-1.721746	-0.139464
C52	C	-0.275652	-1.229321	0.429500
C53	C	-0.138524	-1.263915	0.394906
C54	C	-0.069964	-1.188666	0.470100
C55	C	-0.138532	-1.078823	0.579889
C56	C	-0.275667	-1.044224	0.614488
C57	C	-0.344227	-1.119473	0.539294
H58	H	-0.087759	-1.345233	0.313629
H59	H	0.031553	-1.214279	0.444486
H60	H	-0.087780	-1.023119	0.635552
H61	H	-0.326432	-0.962906	0.695765
H62	H	-0.445744	-1.093860	0.564908
H63	H	0.000002	-0.906660	0.088895
H64	H	-0.293429	-1.554175	0.104874
H65	H	-0.706574	-1.702328	-0.043145
H66	H	-0.819693	-1.352874	0.306064
H67	H	-0.000006	-1.075812	0.386986
H68	H	0.000007	-0.826357	0.380419
H69	H	0.000001	-1.385328	-0.225052
H70	H	0.000023	-1.067158	0.093119
H71	H	-0.000008	-1.672622	-0.465846
H72	H	-0.000008	-1.381097	-0.385542
