data_functionalizedCrystal
_audit_creation_method	'MofGen! by Chris Wilmer'
_symmetry_space_group_name_H-M	'P1'
_symmetry_Int_Tables_number	1
_symmetry_cell_setting	triclinic
loop_
_symmetry_equiv_pos_as_xyz
  x,y,z
_cell_length_a	12.837943
_cell_length_b	19.288864
_cell_length_c	18.366186
_cell_angle_alpha	89.971967
_cell_angle_beta	89.992268
_cell_angle_gamma	88.982594
loop_
_atom_site_label
_atom_site_type_symbol
_atom_site_fract_x
_atom_site_fract_y
_atom_site_fract_z
O1	O	1.374618	0.180513	-0.060609
O2	O	1.874618	0.680513	0.439391
O3	O	1.072854	0.171596	-0.060610
O4	O	1.572854	0.671596	0.439390
O5	O	1.232455	0.075520	-0.060564
O6	O	1.732455	0.575520	0.439436
O7	O	1.215016	0.276590	-0.060654
O8	O	1.715016	0.776590	0.439346
O9	O	1.232428	0.075513	0.060535
O10	O	1.732428	0.575513	0.560535
O11	O	1.072827	0.171589	0.060490
O12	O	1.572827	0.671589	0.560490
O13	O	1.374591	0.180506	0.060490
O14	O	1.874591	0.680506	0.560490
Zn15	Zn	1.223704	0.176047	0.079717
Zn16	Zn	1.723704	0.676047	0.579717
Zn17	Zn	1.223740	0.176056	-0.079836
Zn18	Zn	1.723740	0.676056	0.420164
O19	O	1.214989	0.276583	0.060445
O20	O	1.714989	0.776583	0.560445
C21	C	1.034234	0.168581	-0.000059
C22	C	1.534234	0.668581	0.499941
C23	C	0.919198	0.159596	-0.000057
C24	C	1.419198	0.659596	0.499943
C25	C	0.677736	0.267602	-0.000095
C26	C	1.177736	0.767602	0.499905
C27	C	0.569649	0.259164	-0.000093
C28	C	1.069649	0.759164	0.499907
C29	C	0.594937	0.134283	-0.000045
C30	C	1.094937	0.634283	0.499955
C31	C	0.703023	0.142721	-0.000047
C32	C	1.203023	0.642721	0.499953
C33	C	0.744419	0.209383	-0.000073
C34	C	1.244419	0.709383	0.499927
C35	C	0.852507	0.217820	-0.000081
C36	C	1.352507	0.717820	0.499919
C37	C	0.877793	0.092940	-0.000028
C38	C	1.377793	0.592940	0.499972
C39	C	0.769706	0.084501	-0.000025
C40	C	1.269706	0.584501	0.499975
C41	C	1.231881	0.049602	-0.000005
C42	C	1.731881	0.549602	0.499995
C43	C	1.230196	-0.027617	0.000025
C44	C	1.730196	0.472383	0.500025
C45	C	1.413211	0.183522	-0.000062
C46	C	1.913211	0.683522	0.499938
C47	C	1.528246	0.192506	-0.000068
C48	C	2.028246	0.692506	0.499932
C49	C	1.215564	0.302501	-0.000116
C50	C	1.715564	0.802501	0.499884
C51	C	1.217248	0.379720	-0.000151
C52	C	1.717248	0.879720	0.499849
N53	N	1.223688	0.176040	0.188608
N54	N	1.723688	0.676040	0.688608
C55	C	1.123601	0.418021	-0.000136
C56	C	1.623601	0.918021	0.499864
C57	C	1.125184	0.490576	-0.000120
C58	C	1.625184	0.990576	0.499880
C59	C	1.220418	0.524827	-0.000103
C60	C	1.720418	1.024827	0.499897
C61	C	1.314078	0.486516	-0.000122
C62	C	1.814078	0.986516	0.499878
C63	C	1.312493	0.413963	-0.000146
C64	C	1.812493	0.913963	0.499854
C65	C	1.295274	0.638187	0.042362
C66	C	1.795274	1.138187	0.542362
C67	C	1.296855	0.710739	0.042390
C68	C	1.796855	1.210739	0.542390
C69	C	1.225312	0.748607	-0.000033
C70	C	1.725312	1.248607	0.499967
C71	C	1.152169	0.713913	-0.042476
C72	C	1.652169	1.213913	0.457524
C73	C	1.150584	0.641360	-0.042499
C74	C	1.650584	1.141360	0.457501
C75	C	1.222148	0.603499	-0.000078
C76	C	1.722148	1.103499	0.499922
C77	C	1.133374	0.865581	-0.000002
C78	C	1.633374	1.365581	0.499998
C79	C	1.134960	0.938138	0.000010
C80	C	1.634960	1.438138	0.500010
C81	C	1.323857	0.934076	0.000015
C82	C	1.823857	1.434076	0.500015
C83	C	1.322268	0.861521	-0.000004
C84	C	1.822268	1.361521	0.499996
C85	C	1.227024	0.827278	-0.000009
C86	C	1.727024	1.327278	0.499991
N87	N	1.223765	0.176057	-0.188728
N88	N	1.723765	0.676057	0.311272
C89	C	1.294382	0.133523	0.226729
C90	C	1.794382	0.633523	0.726729
C91	C	1.294389	0.133520	0.302957
C92	C	1.794389	0.633520	0.802957
C93	C	1.223711	0.176048	0.341061
C94	C	1.723711	0.676048	0.841061
C95	C	1.153003	0.218568	0.302931
C96	C	1.653003	0.718568	0.802931
C97	C	1.152991	0.218565	0.226705
C98	C	1.652991	0.718565	0.726705
C99	C	1.209838	0.238388	0.461793
C100	C	1.709838	0.738388	0.961793
C101	C	1.209857	0.238393	0.538018
C102	C	1.709857	0.738393	1.038018
C103	C	1.223740	0.176058	0.576169
C104	C	1.723740	0.676058	1.076169
C105	C	1.237626	0.113717	0.538085
C106	C	1.737626	0.613717	1.038085
C107	C	1.237615	0.113714	0.461858
C108	C	1.737615	0.613714	0.961858
C109	C	1.223715	0.176056	0.423716
C110	C	1.723715	0.676056	0.923716
C111	C	1.294446	0.133534	0.696944
C112	C	1.794446	0.633534	1.196944
C113	C	1.294445	0.133530	0.773173
C114	C	1.794445	0.633530	1.273173
C115	C	1.153064	0.218585	0.773147
C116	C	1.653064	0.718585	1.273147
C117	C	1.153060	0.218582	0.696919
C118	C	1.653060	0.718582	1.196919
C119	C	1.223756	0.176058	0.658822
C120	C	1.723756	0.676058	1.158822
H121	H	0.932098	0.045533	-0.000015
H122	H	1.432098	0.545533	0.499985
F123	F	1.371431	0.597892	0.087513
F124	F	1.871431	1.097892	0.587513
F125	F	1.077778	0.263827	0.343485
F126	F	1.577778	0.763827	0.843485
F127	F	1.252410	0.047371	0.578681
F128	F	1.752410	0.547371	1.078681
F129	F	1.077821	0.263839	0.656345
F130	F	1.577821	0.763839	1.156345
F131	F	0.896561	0.288766	-0.000112
F132	F	1.396561	0.788766	0.499888
H133	H	0.515359	0.306572	-0.000108
H134	H	1.015359	0.806572	0.499892
F135	F	1.035283	0.978901	0.000017
F136	F	1.535283	1.478901	0.500017
F137	F	1.195085	0.304742	0.578543
F138	F	1.695085	0.804742	1.078543
F139	F	1.252385	0.047367	0.421329
F140	F	1.752385	0.547367	0.921329
F141	F	1.072747	0.604439	-0.087671
F142	F	1.572747	1.104439	0.412329
H143	H	1.352008	0.098906	0.665924
H144	H	1.852008	0.598906	1.165924
H145	H	1.401399	0.961962	-0.000024
H146	H	1.901399	1.461962	0.499976
F147	F	1.421941	0.820756	-0.000014
F148	F	1.921941	1.320756	0.499986
H149	H	1.352010	0.098903	0.804212
H150	H	1.852010	0.598903	1.304212
F151	F	1.022233	0.381582	-0.000148
F152	F	1.522233	0.881582	0.499852
F153	F	1.374656	0.747656	0.087596
F154	F	1.874656	1.247656	0.587596
H155	H	1.095512	0.253209	0.804171
H156	H	1.595512	0.753209	1.304171
H157	H	0.711440	0.321880	-0.000118
H158	H	1.211440	0.821880	0.499882
F159	F	1.415433	0.522969	-0.000108
F160	F	1.915433	1.022969	0.499892
F161	F	1.195136	0.304745	0.421198
F162	F	1.695136	0.804745	0.921198
F163	F	1.369636	0.088264	0.343534
F164	F	1.869636	0.588264	0.843534
H165	H	1.388754	0.382778	-0.000158
H166	H	1.888754	0.882778	0.499842
H167	H	1.351945	0.098895	0.195713
H168	H	1.851945	0.598895	0.695713
F169	F	1.077746	0.263820	0.186133
F170	F	1.577746	0.763820	0.686133
H171	H	0.735987	0.030227	0.000005
H172	H	1.235987	0.530227	0.500005
H173	H	0.561214	0.080010	0.000037
H174	H	1.061214	0.580010	0.500037
H175	H	1.048923	0.521768	-0.000107
H176	H	1.548923	1.021768	0.499893
H177	H	1.093906	0.744744	-0.077016
H178	H	1.593906	1.244744	0.422984
F179	F	1.032008	0.829135	-0.000011
F180	F	1.532008	1.329135	0.499989
