data_functionalizedCrystal
_audit_creation_method	'MofGen! by Chris Wilmer'
_symmetry_space_group_name_H-M	'P1'
_symmetry_Int_Tables_number	1
_symmetry_cell_setting	triclinic
loop_
_symmetry_equiv_pos_as_xyz
  x,y,z
_cell_length_a	8.559649
_cell_length_b	14.044220
_cell_length_c	7.088929
_cell_angle_alpha	83.206932
_cell_angle_beta	95.325015
_cell_angle_gamma	81.483771
loop_
_atom_site_label
_atom_site_type_symbol
_atom_site_fract_x
_atom_site_fract_y
_atom_site_fract_z
O1	O	2.100735	-0.021003	-0.158955
O2	O	1.642435	0.027448	-0.158968
O3	O	1.864708	-0.134262	-0.158943
O4	O	1.878463	0.140708	-0.158981
O5	O	1.894406	-0.155917	0.159035
O6	O	1.672134	0.005793	0.159010
O7	O	2.130433	-0.042657	0.159023
Cu8	Cu	1.903995	-0.020409	0.188051
Cu9	Cu	1.868874	0.005200	-0.187996
O10	O	1.908161	0.119053	0.158998
C11	C	1.598278	0.020292	0.000019
C12	C	1.422455	0.031222	0.000015
C13	C	1.873535	-0.179966	0.000047
C14	C	1.855571	-0.283884	0.000048
C15	C	1.822727	-0.474153	0.000020
C16	C	1.950133	-0.541060	0.000018
C17	C	1.931858	-0.646933	0.000002
C18	C	1.841000	-0.368270	0.000036
C19	C	2.174590	-0.035501	0.000031
C20	C	2.350412	-0.046430	0.000023
C21	C	1.899334	0.164757	0.000004
C22	C	1.917296	0.268676	-0.000011
N23	N	1.928709	-0.038422	0.452541
N24	N	1.844171	0.023205	-0.452487
H25	H	1.423242	-0.121272	0.000024
H26	H	2.072921	-0.518820	-0.000107
O27	O	1.676358	-0.500839	0.000108
C28	C	1.524455	-0.632231	-0.000001
C29	C	1.690309	-0.602130	-0.000067
H30	H	1.535674	-0.714123	-0.000184
H31	H	1.469860	-0.611547	0.133113
H32	H	1.445022	-0.593284	-0.133034
H33	H	1.769864	-0.641060	0.132876
H34	H	1.744775	-0.622793	-0.133269
O35	O	1.739820	0.099506	0.450197
C36	C	1.664991	0.273537	0.388663
C37	C	1.783305	0.187214	0.498971
H38	H	1.700086	0.344469	0.428086
H39	H	1.667012	0.272142	0.228431
H40	H	1.540201	0.267895	0.427909
H41	H	1.908150	0.192799	0.459885
H42	H	1.781144	0.188637	0.659176
O43	O	2.033142	-0.114726	0.549745
C44	C	2.107845	-0.288761	0.611463
C45	C	1.989489	-0.202438	0.501226
H46	H	2.072576	-0.359698	0.572306
H47	H	2.232660	-0.283252	0.572155
H48	H	2.105859	-0.287235	0.771661
H49	H	1.991334	-0.203910	0.341003
H50	H	1.864729	-0.207979	0.540693
H51	H	1.349615	0.106070	-0.000005
