data_functionalizedCrystal
_audit_creation_method	'MofGen! by Chris Wilmer'
_symmetry_space_group_name_H-M	'P1'
_symmetry_Int_Tables_number	1
_symmetry_cell_setting	triclinic
loop_
_symmetry_equiv_pos_as_xyz
  x,y,z
_cell_length_a	14.971486
_cell_length_b	9.065215
_cell_length_c	13.448316
_cell_angle_alpha	90.006351
_cell_angle_beta	89.996448
_cell_angle_gamma	84.314413
loop_
_atom_site_label
_atom_site_type_symbol
_atom_site_fract_x
_atom_site_fract_y
_atom_site_fract_z
O1	O	1.188372	0.192264	0.082575
O2	O	0.928143	0.215288	0.082602
O3	O	1.063638	-0.010975	0.082584
O4	O	1.052877	0.418528	0.082593
O5	O	1.063635	-0.010995	-0.082800
O6	O	0.928140	0.215269	-0.082782
O7	O	1.188369	0.192245	-0.082809
Cu8	Cu	1.058254	0.203755	-0.097896
Cu9	Cu	1.058258	0.203778	0.097690
O10	O	1.052874	0.418509	-0.082790
C11	C	0.894809	0.214249	-0.000086
C12	C	0.795489	0.211163	-0.000076
C13	C	0.739254	0.344087	-0.000075
C14	C	0.645933	0.341179	-0.000089
C15	C	0.608849	0.205346	-0.000099
C16	C	0.665092	0.072412	-0.000103
C17	C	0.758411	0.075321	-0.000096
C18	C	0.470584	0.066357	-0.000117
C19	C	0.377258	0.063446	-0.000123
C20	C	0.358106	0.332214	-0.000111
C21	C	0.451425	0.335124	-0.000103
C22	C	0.507661	0.202189	-0.000106
C23	C	1.062603	-0.065951	-0.000107
C24	C	1.059512	-0.229731	-0.000104
C25	C	1.221703	0.193284	-0.000118
C26	C	1.321023	0.196370	-0.000122
C27	C	1.053909	0.473484	-0.000097
C28	C	1.057000	0.637265	-0.000094
N29	N	1.058261	0.203783	0.235254
N30	N	1.058258	0.203738	-0.235460
C31	C	1.118373	0.103792	0.287286
C32	C	1.118377	0.103787	0.391389
C33	C	1.058263	0.203769	0.443458
C34	C	0.998149	0.303772	0.391419
C35	C	0.998150	0.303782	0.287317
C36	C	0.998149	0.303741	0.608399
C37	C	0.998146	0.303730	0.712507
C38	C	1.118375	0.103747	0.712471
C39	C	1.118377	0.103757	0.608369
C40	C	1.058261	0.203758	0.556337
H41	H	0.769440	0.454698	-0.000066
O42	O	0.303572	0.461445	-0.000246
C43	C	0.320545	0.543891	-0.085903
H44	H	0.391029	0.507796	-0.114454
H45	H	0.314970	0.666926	-0.066630
H46	H	0.269361	0.523622	-0.145890
O47	O	0.939877	0.400956	0.442106
C48	C	0.988396	0.492291	0.502316
H49	H	1.057965	0.433927	0.517901
H50	H	0.951229	0.515404	0.575525
H51	H	0.995226	0.601394	0.462212
H52	H	0.347068	-0.047161	-0.000132
H53	H	1.167321	0.022338	0.565975
O54	O	1.176806	0.006866	0.236604
C55	C	1.232540	0.086216	0.176412
H56	H	1.197723	0.201479	0.160825
H57	H	1.246264	0.024706	0.103202
H58	H	1.298699	0.096627	0.216532
O59	O	0.487338	0.467167	0.000045
C60	C	0.458710	0.548191	0.085714
H61	H	0.393675	0.507864	0.114260
H62	H	0.446753	0.671026	0.066458
H63	H	0.512551	0.531205	0.145697
H64	H	0.949199	0.385178	0.566038
O65	O	0.591435	0.470438	-0.000042
C66	C	0.644177	0.590950	-0.000052
H67	H	0.713500	0.553628	0.031267
H68	H	0.610507	0.684099	0.047965
H69	H	0.651171	0.632574	-0.079391
O70	O	0.525085	-0.062912	-0.000070
C71	C	0.472345	-0.183428	-0.000099
H72	H	0.403010	-0.146099	0.031201
H73	H	0.505999	-0.276560	0.047924
H74	H	0.465381	-0.225077	-0.079442
O75	O	1.176672	0.006205	0.441702
C76	C	1.160938	-0.139763	0.415962
H77	H	1.089275	-0.140558	0.387471
H78	H	1.170749	-0.214105	0.484248
H79	H	1.210066	-0.182661	0.355357
H80	H	0.804198	-0.032919	-0.000096
H81	H	0.634891	-0.038186	-0.000125
O82	O	1.176539	0.006187	0.762981
C83	C	1.127813	-0.085116	0.822977
H84	H	1.058358	-0.026417	0.838719
H85	H	1.164965	-0.108829	0.896120
H86	H	1.120715	-0.193928	0.782607
O87	O	0.939851	0.401060	0.763049
C88	C	0.955393	0.547224	0.737620
H89	H	1.026994	0.548356	0.708992
H90	H	0.945631	0.621202	0.806097
H91	H	0.906125	0.590305	0.677210
H92	H	0.949202	0.385207	0.244954
