data_functionalizedCrystal
_audit_creation_method	'MofGen! by Chris Wilmer'
_symmetry_space_group_name_H-M	'P1'
_symmetry_Int_Tables_number	1
_symmetry_cell_setting	triclinic
loop_
_symmetry_equiv_pos_as_xyz
  x,y,z
_cell_length_a	8.497374
_cell_length_b	17.077402
_cell_length_c	17.077404
_cell_angle_alpha	89.976892
_cell_angle_beta	89.996537
_cell_angle_gamma	90.012222
loop_
_atom_site_label
_atom_site_type_symbol
_atom_site_fract_x
_atom_site_fract_y
_atom_site_fract_z
Zn1	Zn	0.891988	-0.312640	-1.199930
Zn2	Zn	0.628173	-0.443874	-1.199874
Zn3	Zn	0.628207	-0.312627	-1.068699
Zn4	Zn	0.891897	-0.443868	-1.068630
O5	O	0.760066	-0.378252	-1.134283
O6	O	0.857016	-0.330056	-1.309770
O7	O	0.407415	-0.426461	-1.182479
O8	O	0.663251	-0.202782	-1.086159
O9	O	0.663193	-0.426474	-1.309729
O10	O	0.857049	-0.202791	-1.182574
O11	O	0.407440	-0.330034	-1.086105
O12	O	0.663162	-0.330028	-0.958843
O13	O	1.112671	-0.426463	-1.086042
O14	O	0.856894	-0.426450	-0.958792
O15	O	1.112738	-0.330050	-1.182508
O16	O	0.663104	-0.553720	-1.182412
O17	O	0.856861	-0.553716	-1.085988
C18	C	0.760003	-0.582200	-1.134208
C19	C	0.760029	-0.669450	-1.134247
C20	C	0.760023	-0.378238	-0.930336
C21	C	0.760042	-0.378251	-0.843086
C22	C	0.659248	-0.710416	-1.184506
C23	C	0.659289	-0.792397	-1.184545
C24	C	0.760103	-0.833409	-1.134319
C25	C	0.860895	-0.792437	-1.084058
C26	C	0.860861	-0.710458	-1.084024
C27	C	0.860955	-0.963307	-1.084130
C28	C	0.860986	-1.045291	-1.084163
C29	C	0.659382	-1.045246	-1.184651
C30	C	0.659349	-0.963267	-1.184618
C31	C	0.760139	-0.922300	-1.134355
C32	C	1.171547	-0.378253	-1.134278
C33	C	1.350191	-0.378262	-1.134279
C34	C	0.760111	-0.378267	-1.339028
C35	C	0.760130	-0.378273	-1.426277
C36	C	0.760164	-0.173508	-1.134381
C37	C	0.760206	-0.086258	-1.134422
C38	C	0.860756	-0.428533	-0.802090
C39	C	0.860781	-0.428535	-0.720109
C40	C	0.760083	-0.378257	-0.679126
C41	C	0.659364	-0.327969	-0.720128
C42	C	0.659348	-0.327964	-0.802107
C43	C	0.659402	-0.327985	-0.549258
C44	C	0.659416	-0.327991	-0.467273
C45	C	0.860835	-0.428556	-0.467260
C46	C	0.860819	-0.428551	-0.549239
C47	C	0.760098	-0.378263	-0.590235
H48	H	0.577222	-0.825748	-1.225471
H49	H	0.577345	-0.287015	-0.835485
H50	H	0.942807	-0.469495	-0.582606
H51	H	0.577437	-0.287041	-0.433907
H52	H	0.577251	-0.929875	-1.225511
O53	O	0.561330	-0.279225	-0.589050
C54	C	0.293108	-0.240896	-0.614093
C55	C	0.403999	-0.296168	-0.568992
H56	H	0.165885	-0.254564	-0.597880
H57	H	0.310258	-0.249535	-0.679733
H58	H	0.321108	-0.177625	-0.598013
H59	H	0.376068	-0.359460	-0.585006
H60	H	0.386829	-0.287461	-0.503362
O61	O	0.958779	-0.477273	-0.680255
C62	C	1.171704	-0.488027	-0.587688
C63	C	1.060838	-0.432738	-0.632783
H64	H	1.254224	-0.452043	-0.549283
H65	H	1.243773	-0.523948	-0.631030
H66	H	1.099100	-0.529032	-0.549322
H67	H	1.133320	-0.391686	-0.671150
H68	H	0.988763	-0.396872	-0.589398
H69	H	0.942850	-0.469499	-0.433878
O70	O	0.561792	-1.085157	-1.233537
C71	C	0.472811	-1.211430	-1.278287
C72	C	0.583330	-1.166324	-1.222851
H73	H	0.490162	-1.277062	-1.269654
H74	H	0.500845	-1.195247	-1.341541
H75	H	0.345509	-1.195366	-1.264667
H76	H	0.710668	-1.182364	-1.236400
H77	H	0.555160	-1.182512	-1.159613
H78	H	0.577147	-0.677029	-1.225403
O79	O	0.959080	-1.085011	-1.035357
C80	C	1.159011	-1.076410	-0.935668
C81	C	1.048022	-1.031331	-0.990910
H82	H	1.230926	-1.033030	-0.899707
H83	H	1.241670	-1.114722	-0.971662
H84	H	1.086510	-1.114862	-0.894699
H85	H	1.120395	-0.992836	-1.031890
H86	H	0.965359	-0.993069	-0.954868
H87	H	0.943034	-0.929955	-1.043203
O88	O	0.958978	-0.832152	-1.035244
C89	C	1.158873	-0.823539	-0.935538
C90	C	1.047900	-0.778466	-0.990794
H91	H	1.230772	-0.780153	-0.899574
H92	H	1.241548	-0.861852	-0.971520
H93	H	1.086360	-0.861988	-0.894572
H94	H	1.120286	-0.739974	-1.031771
H95	H	0.965221	-0.740203	-0.954763
O96	O	0.958925	-0.670623	-1.035314
C97	C	1.171795	-0.577994	-1.024633
C98	C	1.060853	-0.623071	-1.079883
H99	H	1.254210	-0.539525	-1.060644
H100	H	1.243974	-0.621349	-0.988752
H101	H	1.099245	-0.539695	-0.983588
H102	H	1.133281	-0.661372	-1.120975
H103	H	0.988669	-0.579674	-1.115709
O104	O	0.958725	-0.477399	-0.841776
C105	C	1.158451	-0.577173	-0.833101
C106	C	1.047599	-0.521862	-0.788063
H107	H	1.230311	-0.613147	-0.789693
H108	H	1.241168	-0.541233	-0.871478
H109	H	1.085846	-0.618127	-0.871484
H110	H	1.120077	-0.480897	-0.749637
H111	H	0.964878	-0.557850	-0.749735
H112	H	0.577381	-0.287029	-0.686753
