data_functionalizedCrystal
_audit_creation_method	'MofGen! by Chris Wilmer'
_symmetry_space_group_name_H-M	'P1'
_symmetry_Int_Tables_number	1
_symmetry_cell_setting	triclinic
loop_
_symmetry_equiv_pos_as_xyz
  x,y,z
_cell_length_a	10.654549
_cell_length_b	16.776229
_cell_length_c	10.654550
_cell_angle_alpha	89.993527
_cell_angle_beta	95.515146
_cell_angle_gamma	90.006104
loop_
_atom_site_label
_atom_site_type_symbol
_atom_site_fract_x
_atom_site_fract_y
_atom_site_fract_z
O1	O	1.667846	0.066270	-0.176400
O2	O	1.302367	0.066275	-0.193206
O3	O	1.493510	0.066267	-0.002064
O4	O	1.476704	0.066278	-0.367542
O5	O	1.493484	-0.066309	-0.002052
O6	O	1.302342	-0.066301	-0.193194
O7	O	1.667820	-0.066307	-0.176388
Zn8	Zn	1.485077	-0.087353	-0.184789
Zn9	Zn	1.485111	0.087322	-0.184805
O10	O	1.476678	-0.066299	-0.367530
C11	C	1.255557	-0.000012	-0.191966
C12	C	1.116113	-0.000010	-0.188275
C13	C	0.905599	-0.000010	-0.297338
C14	C	1.036619	-0.000006	-0.300816
C15	C	1.064581	-0.000012	-0.072247
C16	C	0.933563	-0.000011	-0.068770
N17	N	1.485063	-0.206565	-0.184777
C18	C	1.569727	-0.248285	-0.100175
C19	C	1.569734	-0.331737	-0.100174
C20	C	1.485082	-0.373468	-0.184783
C21	C	1.400409	-0.331741	-0.269389
C22	C	1.400397	-0.248290	-0.269383
C23	C	1.400454	-0.668288	-0.269414
C24	C	1.400476	-0.751745	-0.269416
C25	C	1.569792	-0.751735	-0.100205
C26	C	1.569780	-0.668285	-0.100199
C27	C	1.485103	-0.626566	-0.184801
C28	C	1.485094	-0.536077	-0.184799
C29	C	1.485095	-0.463954	-0.184791
C30	C	1.714631	-0.000018	-0.177628
C31	C	1.854074	-0.000014	-0.181319
C32	C	1.492263	-0.000021	0.044740
C33	C	1.488571	-0.000019	0.184183
N34	N	1.485135	0.206533	-0.184807
C35	C	1.477925	-0.000009	-0.414334
C36	C	1.481617	-0.000005	-0.553777
C37	C	1.601113	-0.000021	0.263669
C38	C	1.597636	-0.000011	0.394690
C39	C	1.369067	-0.000002	0.366727
C40	C	1.372544	-0.000006	0.235708
H41	H	0.891612	-0.000011	0.025712
H42	H	1.331537	-0.785720	-0.338317
F43	F	1.659841	-0.376140	-0.010129
H44	H	1.078563	-0.000002	-0.395290
F45	F	1.724598	-0.000034	0.208837
H46	H	1.129316	-0.000011	0.019386
H47	H	1.274601	0.000008	0.408694
H48	H	1.638666	-0.214314	-0.031282
F49	F	0.821005	-0.000012	-0.417123
F50	F	1.252756	0.000002	0.151108
H51	H	1.638715	-0.634311	-0.031307
H52	H	1.331510	-0.634327	-0.338302
F53	F	1.659910	-0.796142	-0.010159
F54	F	1.310308	-0.376154	-0.359432
F55	F	1.310281	-0.203889	-0.359426
F56	F	1.717419	-0.000011	0.479280
