data_functionalizedCrystal
_audit_creation_method	'MofGen! by Chris Wilmer'
_symmetry_space_group_name_H-M	'P1'
_symmetry_Int_Tables_number	1
_symmetry_cell_setting	triclinic
loop_
_symmetry_equiv_pos_as_xyz
  x,y,z
_cell_length_a	19.805407
_cell_length_b	21.295417
_cell_length_c	19.805399
_cell_angle_alpha	89.969157
_cell_angle_beta	89.980427
_cell_angle_gamma	90.030507
loop_
_atom_site_label
_atom_site_type_symbol
_atom_site_fract_x
_atom_site_fract_y
_atom_site_fract_z
Zn1	Zn	1.034716	-0.250624	-0.382704
Zn2	Zn	1.034623	-0.355893	-0.269510
Zn3	Zn	0.921531	-0.250641	-0.269529
Zn4	Zn	0.921486	-0.355859	-0.382656
O5	O	0.978089	-0.303254	-0.326100
O6	O	1.129421	-0.264595	-0.367701
O7	O	1.019601	-0.341952	-0.174796
O8	O	0.936603	-0.162549	-0.284570
O9	O	1.129352	-0.341935	-0.284537
O10	O	1.019760	-0.162537	-0.367719
O11	O	0.936513	-0.264624	-0.174810
O12	O	0.826809	-0.264592	-0.284523
O13	O	0.936527	-0.341878	-0.477379
O14	O	0.826776	-0.341895	-0.367638
O15	O	1.019717	-0.264562	-0.477415
O16	O	1.019558	-0.443977	-0.284491
O17	O	0.936437	-0.443953	-0.367619
C18	C	0.802233	-0.303242	-0.326078
C19	C	0.727001	-0.303252	-0.326085
C20	C	0.691658	-0.343564	-0.369292
C21	C	0.620969	-0.343566	-0.369302
C22	C	0.585626	-0.303257	-0.326100
C23	C	0.620974	-0.262940	-0.282890
C24	C	0.691661	-0.262936	-0.282885
C25	C	0.335901	-0.262954	-0.282913
C26	C	0.265209	-0.262962	-0.282920
C27	C	0.265209	-0.343583	-0.369330
C28	C	0.335896	-0.343579	-0.369324
C29	C	0.371238	-0.303261	-0.326117
C30	C	0.447887	-0.303259	-0.326109
C31	C	0.508979	-0.303261	-0.326105
C32	C	0.978001	-0.466806	-0.326062
C33	C	0.978024	-0.536774	-0.326069
C34	C	1.021344	-0.569632	-0.282828
C35	C	1.021376	-0.635375	-0.282844
C36	C	0.978076	-0.668256	-0.326092
C37	C	0.934753	-0.635390	-0.369341
C38	C	0.934728	-0.569649	-0.369330
N39	N	0.918865	-0.771522	-0.331245
N40	N	0.918892	-0.833974	-0.331252
C41	C	0.978152	-0.866331	-0.326131
N42	N	1.037386	-0.833878	-0.320989
N43	N	1.037358	-0.771421	-0.320979
C44	C	0.978099	-0.739542	-0.326110
C45	C	1.021509	-0.970475	-0.282905
C46	C	1.021542	-1.036219	-0.282925
C47	C	0.934914	-1.036233	-0.369419
C48	C	0.934887	-0.970490	-0.369402
C49	C	0.978184	-0.937615	-0.326142
C50	C	1.154632	-0.303267	-0.326122
C51	C	1.229864	-0.303272	-0.326132
C52	C	0.978127	-0.303214	-0.502643
C53	C	0.978143	-0.303198	-0.577875
C54	C	0.978197	-0.139064	-0.326152
C55	C	0.978243	-0.069096	-0.326175
C56	C	1.021461	-0.262937	-0.613238
C57	C	1.021468	-0.262919	-0.683927
C58	C	0.978160	-0.303165	-0.719250
C59	C	0.934838	-0.343427	-0.683882
C60	C	0.934828	-0.343442	-0.613195
C61	C	0.934876	-0.343368	-0.968955
C62	C	0.934891	-0.343352	-1.039647
C63	C	1.021516	-0.262846	-1.039687
C64	C	1.021506	-0.262860	-0.969000
C65	C	0.978182	-0.303120	-0.933638
C66	C	0.978174	-0.303138	-0.856989
C67	C	0.978171	-0.303150	-0.795897
C68	C	0.978090	-0.303248	-0.150244
C69	C	0.978205	-0.303088	-0.075012
H70	H	0.364668	-0.230129	-0.247726
H71	H	0.364669	-0.376405	-0.404501
H72	H	0.899608	-0.376159	-0.940172
H73	H	1.056774	-0.230090	-0.940243
C74	C	0.684550	-0.423252	-0.454714
C75	C	0.730504	-0.387872	-0.416784
H76	H	0.708533	-0.450601	-0.484038
H77	H	0.656958	-0.447297	-0.425179
H78	H	0.657002	-0.395850	-0.480656
H79	H	0.758049	-0.415274	-0.390837
H80	H	0.758108	-0.363825	-0.446323
C81	C	0.541521	-0.352439	-0.460344
C82	C	0.582125	-0.387883	-0.416796
H83	H	0.517546	-0.379802	-0.489669
H84	H	0.510355	-0.328440	-0.434620
H85	H	0.569130	-0.325045	-0.486284
H86	H	0.554515	-0.415273	-0.390852
H87	H	0.613295	-0.411892	-0.442522
C88	C	0.896390	-0.379155	-0.792221
C89	C	0.887232	-0.387666	-0.722708
H90	H	0.867003	-0.406472	-0.816188
H91	H	0.886513	-0.336862	-0.803815
H92	H	0.941865	-0.388371	-0.803803
H93	H	0.841758	-0.378446	-0.711125
H94	H	0.897105	-0.429969	-0.711109
H95	H	0.899661	-1.063004	-0.404636
H96	H	0.592192	-0.230118	-0.247718
H97	H	1.056601	-0.542868	-0.247605
H98	H	0.236425	-0.376411	-0.404513
H99	H	1.056791	-0.230062	-1.068488
C100	C	0.272305	-0.183253	-0.197512
C101	C	0.226357	-0.218647	-0.235434
H102	H	0.248318	-0.155894	-0.168202
H103	H	0.299850	-0.210641	-0.171561
H104	H	0.299901	-0.159212	-0.227057
H105	H	0.198764	-0.242692	-0.205889
H106	H	0.198801	-0.191255	-0.261387
C107	C	0.684566	-0.183253	-0.197460
C108	C	0.730514	-0.218629	-0.235383
H109	H	0.708552	-0.155902	-0.168132
H110	H	0.657023	-0.159210	-0.226999
H111	H	0.656968	-0.210658	-0.171522
H112	H	0.758109	-0.191225	-0.261326
H113	H	0.758068	-0.242674	-0.205841
H114	H	1.056654	-0.662134	-0.247632
C115	C	1.112517	-0.254157	-0.763457
C116	C	1.069076	-0.218661	-0.722806
H117	H	1.141902	-0.226830	-0.787464
H118	H	1.138392	-0.281583	-0.735882
H119	H	1.086715	-0.278123	-0.794603
H120	H	1.094877	-0.194698	-0.691657
H121	H	1.043198	-0.191225	-0.750384
H122	H	0.899451	-0.542895	-0.404542
C123	C	0.849219	-0.423037	-0.620250
C124	C	0.887223	-0.387708	-0.574320
H125	H	0.819833	-0.450369	-0.596250
H126	H	0.823343	-0.395605	-0.647819
H127	H	0.878707	-0.447103	-0.647824
H128	H	0.857735	-0.363638	-0.546749
H129	H	0.913101	-0.415143	-0.546740
H130	H	0.899621	-0.376126	-1.068406
C131	C	1.030907	-0.178280	-0.533776
C132	C	1.069065	-0.218695	-0.574413
H133	H	1.060296	-0.150968	-0.509806
H134	H	1.001441	-0.154198	-0.561355
H135	H	1.005113	-0.202268	-0.502597
H136	H	1.094856	-0.194708	-0.605595
H137	H	1.098543	-0.242779	-0.546831
H138	H	0.899499	-0.662166	-0.404556
H139	H	1.056767	-0.943707	-0.247681
H140	H	1.056822	-1.062971	-0.247714
H141	H	0.899609	-0.943735	-0.404610
