data_functionalizedCrystal
_audit_creation_method	'MofGen! by Chris Wilmer'
_symmetry_space_group_name_H-M	'P1'
_symmetry_Int_Tables_number	1
_symmetry_cell_setting	triclinic
loop_
_symmetry_equiv_pos_as_xyz
  x,y,z
_cell_length_a	23.532407
_cell_length_b	27.731996
_cell_length_c	22.610064
_cell_angle_alpha	89.998076
_cell_angle_beta	89.994501
_cell_angle_gamma	82.735067
loop_
_atom_site_label
_atom_site_type_symbol
_atom_site_fract_x
_atom_site_fract_y
_atom_site_fract_z
O1	O	0.755125	0.058674	-0.049155
O2	O	1.088459	0.392007	0.284178
O3	O	1.421792	0.725341	0.617512
O4	O	0.589242	0.067164	-0.049165
O5	O	0.922575	0.400498	0.284168
O6	O	1.255909	0.733831	0.617501
O7	O	0.677351	-0.007471	-0.049147
O8	O	1.010684	0.325862	0.284186
O9	O	1.344018	0.659195	0.617520
O10	O	0.667016	0.133310	-0.049173
O11	O	1.000349	0.466643	0.284160
O12	O	1.333683	0.799976	0.617494
O13	O	0.677335	-0.007461	0.049222
O14	O	1.010669	0.325873	0.382556
O15	O	1.344002	0.659206	0.715889
O16	O	0.589226	0.067175	0.049204
O17	O	0.922560	0.400509	0.382537
O18	O	1.255893	0.733842	0.715871
O19	O	0.755110	0.058685	0.049214
O20	O	1.088443	0.392018	0.382548
O21	O	1.421776	0.725351	0.715881
Zn22	Zn	0.672165	0.062932	0.064827
Zn23	Zn	1.005499	0.396265	0.398161
Zn24	Zn	1.338832	0.729598	0.731494
Zn25	Zn	0.672186	0.062917	-0.064778
Zn26	Zn	1.005519	0.396251	0.268555
Zn27	Zn	1.338853	0.729584	0.601888
O28	O	0.667001	0.133321	0.049196
O29	O	1.000334	0.466654	0.382529
O30	O	1.333667	0.799987	0.715863
C31	C	0.568019	0.066954	0.000018
C32	C	0.901352	0.400287	0.333352
C33	C	1.234685	0.733620	0.666685
C34	C	0.504803	0.066303	0.000015
C35	C	0.838136	0.399637	0.333348
C36	C	1.171470	0.732970	0.666681
C37	C	0.238746	0.019455	0.000040
C38	C	0.572079	0.352788	0.333373
C39	C	0.905413	0.686122	0.666706
C40	C	0.298145	0.020059	0.000039
C41	C	0.631478	0.353392	0.333373
C42	C	0.964811	0.686725	0.666706
O43	O	0.334977	-0.017106	0.000067
O44	O	0.668310	0.316228	0.333400
O45	O	1.001644	0.649561	0.666733
N46	N	0.320666	0.064430	0.000027
N47	N	0.654000	0.397763	0.333360
N48	N	0.987333	0.731096	0.666694
C49	C	0.283786	0.108200	0.000021
C50	C	0.617119	0.441533	0.333354
C51	C	0.950452	0.774866	0.666688
O52	O	0.308396	0.145996	0.000011
O53	O	0.641730	0.479329	0.333344
O54	O	0.975063	0.812663	0.666678
C55	C	0.224388	0.107595	0.000026
C56	C	0.557721	0.440929	0.333359
C57	C	0.891055	0.774262	0.666692
C58	C	0.201870	0.063221	0.000032
C59	C	0.535203	0.396555	0.333365
C60	C	0.868537	0.729888	0.666698
C61	C	0.216227	-0.024915	0.000047
C62	C	0.549561	0.308418	0.333380
C63	C	0.882894	0.641751	0.666713
C64	C	0.156832	-0.025519	0.000046
C65	C	0.490166	0.307814	0.333379
C66	C	0.823499	0.641148	0.666712
C67	C	0.119956	0.018248	0.000038
C68	C	0.453290	0.351581	0.333371
C69	C	0.786623	0.684914	0.666705
C70	C	0.142475	0.062618	0.000031
C71	C	0.475809	0.395951	0.333364
C72	C	0.809142	0.729284	0.666698
C73	C	0.187509	0.151365	0.000024
C74	C	0.520842	0.484698	0.333357
C75	C	0.854175	0.818031	0.666690
C76	C	0.128108	0.150757	0.000029
C77	C	0.461441	0.484090	0.333362
C78	C	0.794774	0.817423	0.666695
C79	C	0.105589	0.106383	0.000035
C80	C	0.438923	0.439716	0.333368
C81	C	0.772256	0.773049	0.666702
C82	C	0.046205	0.105781	0.000022
C83	C	0.379538	0.439114	0.333356
C84	C	0.712871	0.772447	0.666689
N85	N	0.023683	0.061410	0.000035
N86	N	0.357016	0.394743	0.333368
N87	N	0.690350	0.728076	0.666701
C88	C	0.060559	0.017643	0.000042
C89	C	0.393892	0.350977	0.333376
C90	C	0.727226	0.684310	0.666709
C91	C	0.408525	0.109465	0.000013
C92	C	0.741859	0.442799	0.333346
C93	C	1.075192	0.776132	0.666679
C94	C	0.467922	0.110070	0.000004
C95	C	0.801255	0.443404	0.333337
C96	C	1.134588	0.776737	0.666671
C97	C	0.482277	0.021929	0.000023
C98	C	0.815610	0.355263	0.333357
C99	C	1.148943	0.688596	0.666690
C100	C	0.422879	0.021325	0.000028
C101	C	0.756212	0.354658	0.333361
C102	C	1.089546	0.687991	0.666694
C103	C	0.386004	0.065095	0.000025
C104	C	0.719337	0.398428	0.333358
C105	C	1.052670	0.731761	0.666692
C106	C	-0.064175	0.016379	0.000040
C107	C	0.269158	0.349712	0.333374
C108	C	0.602492	0.683045	0.666707
C109	C	-0.123576	0.015779	0.000037
C110	C	0.209758	0.349112	0.333370
C111	C	0.543091	0.682446	0.666704
C112	C	-0.137925	0.103920	0.000021
C113	C	0.195408	0.437253	0.333354
C114	C	0.528741	0.770587	0.666687
C115	C	-0.078530	0.104520	0.000021
C116	C	0.254803	0.437853	0.333354
C117	C	0.588137	0.771187	0.666687
C118	C	-0.041656	0.060745	0.000033
C119	C	0.291678	0.394079	0.333366
C120	C	0.625011	0.727412	0.666699
O121	O	0.009338	0.142926	-0.000003
O122	O	0.342671	0.476259	0.333331
O123	O	0.676005	0.809592	0.666664
O124	O	0.035940	-0.020147	0.000060
O125	O	0.369273	0.313186	0.333393
O126	O	0.702607	0.646520	0.666727
C127	C	0.677131	-0.025474	0.000040
C128	C	1.010464	0.307860	0.333373
C129	C	1.343798	0.641193	0.666706
C130	C	0.676491	-0.079131	0.000046
C131	C	1.009825	0.254202	0.333379
C132	C	1.343158	0.587536	0.666712
C133	C	0.672477	-0.411859	-0.053605
C134	C	1.005810	-0.078526	0.279729
C135	C	1.339143	0.254807	0.613062
C136	C	0.670048	-0.613521	-0.053615
C137	C	1.003382	-0.280188	0.279718
C138	C	1.336715	0.053145	0.613052
O139	O	0.669717	-0.639598	-0.099218
O140	O	1.003051	-0.306264	0.234115
O141	O	1.336384	0.027069	0.567449
N142	N	0.669738	-0.638733	0.000005
N143	N	1.003072	-0.305400	0.333339
N144	N	1.336405	0.027934	0.666672
C145	C	0.670032	-0.613526	0.053632
C146	C	1.003365	-0.280192	0.386966
C147	C	1.336698	0.053141	0.720299
O148	O	0.669706	-0.639596	0.099240
O149	O	1.003040	-0.306263	0.432573
O150	O	1.336373	0.027070	0.765906
C151	C	0.672456	-0.411864	0.053642
C152	C	1.005789	-0.078531	0.386976
C153	C	1.339122	0.254803	0.720309
C154	C	0.672772	-0.386656	0.000018
C155	C	1.006105	-0.053322	0.333352
C156	C	1.339438	0.280011	0.666685
C157	C	0.672792	-0.386651	-0.107224
C158	C	1.006125	-0.053318	0.226109
C159	C	1.339459	0.280016	0.559442
C160	C	0.673402	-0.336239	-0.107221
C161	C	1.006735	-0.002905	0.226112
C162	C	1.340069	0.330428	0.559446
C163	C	0.673697	-0.311035	-0.053598
C164	C	1.007030	0.022298	0.279735
C165	C	1.340364	0.355631	0.613068
C166	C	0.673382	-0.336244	0.000021
C167	C	1.006715	-0.002910	0.333355
C168	C	1.340048	0.330423	0.666688
C169	C	0.672745	-0.386657	0.107269
C170	C	1.006078	-0.053324	0.440602
C171	C	1.339412	0.280009	0.773935
C172	C	0.673350	-0.336238	0.107266
C173	C	1.006683	-0.002905	0.440600
C174	C	1.340016	0.330428	0.773933
C175	C	0.673665	-0.311030	0.053642
C176	C	1.006999	0.022303	0.386976
C177	C	1.340332	0.355637	0.720309
C178	C	0.674287	-0.260628	0.053647
C179	C	1.007620	0.072705	0.386981
C180	C	1.340954	0.406039	0.720314
N181	N	0.674597	-0.235416	0.000027
N182	N	1.007930	0.097917	0.333360
N183	N	1.341264	0.431250	0.666694
C184	C	0.674302	-0.260620	-0.053596
C185	C	1.007635	0.072713	0.279737
C186	C	1.340969	0.406047	0.613071
C187	C	0.668760	-0.719401	0.053623
C188	C	1.002093	-0.386068	0.386957
C189	C	1.335427	-0.052734	0.720290
C190	C	0.668155	-0.769816	0.053621
C191	C	1.001488	-0.436483	0.386954
C192	C	1.334822	-0.103150	0.720288
C193	C	0.668171	-0.769808	-0.053627
C194	C	1.001504	-0.436475	0.279707
C195	C	1.334837	-0.103142	0.613040
C196	C	0.668780	-0.719393	-0.053624
C197	C	1.002113	-0.386059	0.279710
C198	C	1.335447	-0.052726	0.613043
C199	C	0.669070	-0.694189	0.000003
C200	C	1.002403	-0.360856	0.333336
C201	C	1.335737	-0.027523	0.666670
C202	C	0.675584	-0.154751	-0.053585
C203	C	1.008917	0.178582	0.279748
C204	C	1.342251	0.511916	0.613082
C205	C	0.676196	-0.104335	-0.053577
C206	C	1.009530	0.228999	0.279756
C207	C	1.342863	0.562332	0.613089
C208	C	0.676178	-0.104347	0.053670
C209	C	1.009511	0.228987	0.387003
C210	C	1.342844	0.562320	0.720337
C211	C	0.675568	-0.154759	0.053663
C212	C	1.008901	0.178575	0.386996
C213	C	1.342235	0.511908	0.720329
C214	C	0.675269	-0.179959	0.000030
C215	C	1.008603	0.153374	0.333363
C216	C	1.341936	0.486707	0.666697
O217	O	0.674612	-0.234520	0.099227
O218	O	1.007945	0.098813	0.432560
O219	O	1.341279	0.432147	0.765893
O220	O	0.674615	-0.234539	-0.099196
O221	O	1.007948	0.098794	0.234137
O222	O	1.341281	0.432128	0.567470
C223	C	0.671867	-0.462272	-0.053608
C224	C	1.005200	-0.128938	0.279726
C225	C	1.338533	0.204395	0.613059
C226	C	0.671551	-0.487480	0.000012
C227	C	1.004885	-0.154147	0.333345
C228	C	1.338218	0.179187	0.666679
C229	C	0.671846	-0.462276	0.053635
C230	C	1.005180	-0.128943	0.386968
C231	C	1.338513	0.204390	0.720301
C232	C	0.670946	-0.537895	0.000010
C233	C	1.004280	-0.204562	0.333343
C234	C	1.337613	0.128771	0.666676
C235	C	0.670651	-0.563099	-0.053613
C236	C	1.003985	-0.229766	0.279720
C237	C	1.337318	0.103568	0.613053
C238	C	0.670961	-0.537887	-0.107234
C239	C	1.004295	-0.204554	0.226100
C240	C	1.337628	0.128779	0.559433
C241	C	0.671572	-0.487475	-0.107231
C242	C	1.004905	-0.154142	0.226103
C243	C	1.338238	0.179192	0.559436
C244	C	0.671536	-0.487488	0.107255
C245	C	1.004870	-0.154155	0.440589
C246	C	1.338203	0.179179	0.773922
C247	C	0.670927	-0.537900	0.107248
C248	C	1.004260	-0.204567	0.440581
C249	C	1.337593	0.128766	0.773914
C250	C	0.670632	-0.563104	0.053625
C251	C	1.003965	-0.229771	0.386958
C252	C	1.337298	0.103563	0.720292
C253	C	0.776333	0.058896	0.000030
C254	C	1.109666	0.392229	0.333363
C255	C	1.443000	0.725562	0.666696
C256	C	0.839548	0.059546	0.000029
C257	C	1.172882	0.392879	0.333362
C258	C	1.506215	0.726212	0.666696
C259	C	0.667221	0.151323	0.000008
C260	C	1.000554	0.484656	0.333341
C261	C	1.333887	0.817990	0.666675
C262	C	0.667860	0.204980	-0.000002
C263	C	1.001193	0.538313	0.333332
C264	C	1.334527	0.871647	0.666665
N265	N	0.672156	0.062941	0.153280
N266	N	1.005489	0.396275	0.486613
N267	N	1.338822	0.729608	0.819946
N268	N	0.672200	0.062904	-0.153231
N269	N	1.005534	0.396237	0.180103
N270	N	1.338867	0.729571	0.513436
C271	C	0.711202	0.029874	0.561929
C272	C	1.044536	0.363207	0.895263
C273	C	1.377869	0.696540	1.228596
C274	C	0.711205	0.029870	0.623849
C275	C	1.044539	0.363204	0.957183
C276	C	1.377872	0.696537	1.290516
O277	O	0.744380	0.001762	0.655875
O278	O	1.077713	0.335096	0.989208
O279	O	1.411047	0.668429	1.322542
N280	N	0.672186	0.062907	0.654817
N281	N	1.005519	0.396241	0.988150
N282	N	1.338852	0.729574	1.321484
C283	C	0.633157	0.095947	0.623862
C284	C	0.966490	0.429280	0.957195
C285	C	1.299823	0.762614	1.290528
O286	O	0.599967	0.124047	0.655888
O287	O	0.933301	0.457380	0.989221
O288	O	1.266634	0.790714	1.322554
C289	C	0.633151	0.095948	0.561943
C290	C	0.966485	0.429281	0.895276
C291	C	1.299818	0.762614	1.228609
C292	C	0.672178	0.062912	0.530978
C293	C	1.005511	0.396245	0.864312
C294	C	1.338844	0.729578	1.197645
C295	C	0.750225	-0.003160	0.530965
C296	C	1.083558	0.330173	0.864298
C297	C	1.416892	0.663507	1.197631
C298	C	0.750223	-0.003156	0.469049
C299	C	1.083556	0.330177	0.802382
C300	C	1.416889	0.663511	1.135716
C301	C	0.711198	0.029882	0.438098
C302	C	1.044531	0.363216	0.771431
C303	C	1.377864	0.696549	1.104765
C304	C	0.672175	0.062916	0.469063
C305	C	1.005508	0.396249	0.802396
C306	C	1.338842	0.729583	1.135729
C307	C	0.594120	0.128985	0.530989
C308	C	0.927453	0.462318	0.864322
C309	C	1.260787	0.795651	1.197655
C310	C	0.594118	0.128982	0.469066
C311	C	0.927451	0.462316	0.802399
C312	C	1.260785	0.795649	1.135732
C313	C	0.633144	0.095946	0.438101
C314	C	0.966477	0.429280	0.771434
C315	C	1.299811	0.762613	1.104768
C316	C	0.633148	0.095958	0.376196
C317	C	0.966481	0.429292	0.709529
C318	C	1.299815	0.762625	1.042863
N319	N	0.672168	0.062921	0.345228
N320	N	1.005501	0.396254	0.678562
N321	N	1.338834	0.729588	1.011895
C322	C	0.711192	0.029883	0.376179
C323	C	1.044526	0.363216	0.709513
C324	C	1.377859	0.696550	1.042846
C325	C	0.633170	0.095942	0.753895
C326	C	0.966503	0.429275	1.087229
C327	C	1.299836	0.762609	1.420562
C328	C	0.633177	0.095944	0.815813
C329	C	0.966511	0.429277	1.149146
C330	C	1.299844	0.762611	1.482479
C331	C	0.711225	0.029866	0.815796
C332	C	1.044559	0.363200	1.149130
C333	C	1.377892	0.696533	1.482463
C334	C	0.711220	0.029867	0.753877
C335	C	1.044554	0.363201	1.087211
C336	C	1.377887	0.696534	1.420544
C337	C	0.672189	0.062905	0.722927
C338	C	1.005523	0.396238	1.056261
C339	C	1.338856	0.729572	1.389594
C340	C	0.711185	0.029895	0.246152
C341	C	1.044518	0.363228	0.579485
C342	C	1.377852	0.696561	0.912819
C343	C	0.711181	0.029903	0.184231
C344	C	1.044514	0.363237	0.517564
C345	C	1.377847	0.696570	0.850898
C346	C	0.633131	0.095979	0.184253
C347	C	0.966464	0.429312	0.517586
C348	C	1.299797	0.762645	0.850920
C349	C	0.633137	0.095972	0.246169
C350	C	0.966470	0.429306	0.579502
C351	C	1.299803	0.762639	0.912835
C352	C	0.672166	0.062926	0.277117
C353	C	1.005499	0.396259	0.610450
C354	C	1.338833	0.729593	0.943783
O355	O	0.599989	0.124051	0.344131
O356	O	0.933322	0.457384	0.677464
O357	O	1.266655	0.790717	1.010798
O358	O	0.744371	0.001783	0.344146
O359	O	1.077705	0.335117	0.677479
O360	O	1.411038	0.668450	1.010812
H361	H	0.378504	0.145110	0.000006
H362	H	0.711837	0.478444	0.333339
H363	H	1.045170	0.811777	0.666673
H364	H	0.675338	-0.175263	-0.097258
H365	H	1.008671	0.158070	0.236076
H366	H	1.342004	0.491404	0.569409
H367	H	0.781999	-0.030058	0.443841
H368	H	1.115333	0.303275	0.777175
H369	H	1.448666	0.636609	1.110508
Cl370	Cl	0.081753	0.205785	0.000027
Cl371	Cl	0.415086	0.539118	0.333361
Cl372	Cl	0.748420	0.872452	0.666694
Cl373	Cl	0.667769	-0.801502	0.121037
Cl374	Cl	1.001102	-0.468169	0.454370
Cl375	Cl	1.334436	-0.134835	0.787704
Cl376	Cl	0.760284	-0.011668	0.854719
Cl377	Cl	1.093617	0.321665	1.188052
Cl378	Cl	1.426951	0.654999	1.521386
Cl379	Cl	0.676595	-0.072647	-0.120995
Cl380	Cl	1.009928	0.260686	0.212338
Cl381	Cl	1.343262	0.594019	0.545671
H382	H	0.601359	0.122879	0.159043
H383	H	0.934692	0.456213	0.492376
H384	H	1.268025	0.789546	0.825710
Cl385	Cl	0.799291	-0.044699	0.569865
Cl386	Cl	1.132625	0.288634	0.903198
Cl387	Cl	1.465958	0.621968	1.236531
Cl388	Cl	0.545046	0.170518	0.430162
Cl389	Cl	0.878380	0.503851	0.763495
Cl390	Cl	1.211713	0.837184	1.096828
Cl391	Cl	0.669122	-0.687724	0.121047
Cl392	Cl	1.002455	-0.354390	0.454380
Cl393	Cl	1.335789	-0.021057	0.787714
H394	H	-0.060195	0.140653	0.000015
H395	H	0.273138	0.473986	0.333348
H396	H	0.606472	0.807319	0.666682
H397	H	0.512312	-0.013708	0.000030
H398	H	0.845646	0.319625	0.333363
H399	H	1.178979	0.652959	0.666696
Cl400	Cl	-0.151880	-0.040009	0.000041
Cl401	Cl	0.181454	0.293324	0.333374
Cl402	Cl	0.514787	0.626657	0.666708
H403	H	0.601405	0.122850	0.841020
H404	H	0.934738	0.456183	1.174353
H405	H	1.268071	0.789517	1.507687
Cl406	Cl	0.675182	-0.186451	0.121076
Cl407	Cl	1.008515	0.146882	0.454410
Cl408	Cl	1.341849	0.480215	0.787743
H409	H	-0.167960	0.139553	0.000011
H410	H	0.165373	0.472887	0.333345
H411	H	0.498706	0.806220	0.666678
H412	H	0.676420	-0.083817	0.097329
H413	H	1.009754	0.249516	0.430662
H414	H	1.343087	0.582850	0.763995
Cl415	Cl	0.669175	-0.687707	-0.121039
Cl416	Cl	1.002508	-0.354374	0.212294
Cl417	Cl	1.335842	-0.021041	0.545628
Cl418	Cl	0.262576	-0.079944	0.000057
Cl419	Cl	0.595909	0.253389	0.333390
Cl420	Cl	0.929243	0.586722	0.666723
H421	H	0.742998	0.002966	0.728670
H422	H	1.076332	0.336300	1.062003
H423	H	1.409665	0.669633	1.395336
Cl424	Cl	0.584102	0.137483	0.714992
Cl425	Cl	0.917435	0.470817	1.048326
Cl426	Cl	1.250769	0.804150	1.381659
H427	H	0.670674	-0.558421	0.150918
H428	H	1.004007	-0.225088	0.484252
H429	H	1.337341	0.108246	0.817585
Cl430	Cl	0.671903	-0.455811	0.174674
Cl431	Cl	1.005236	-0.122477	0.508007
Cl432	Cl	1.338569	0.210856	0.841341
Cl433	Cl	0.672422	-0.418326	-0.174645
Cl434	Cl	1.005755	-0.084993	0.158688
Cl435	Cl	1.339089	0.248340	0.492021
Cl436	Cl	0.394577	-0.034461	0.000039
Cl437	Cl	0.727910	0.298872	0.333372
Cl438	Cl	1.061244	0.632205	0.666705
H439	H	0.486250	0.146204	-0.000010
H440	H	0.819584	0.479537	0.333324
H441	H	1.152917	0.812871	0.666657
Cl442	Cl	0.670593	-0.569582	-0.174645
Cl443	Cl	1.003927	-0.236248	0.158689
Cl444	Cl	1.337260	0.097085	0.492022
Cl445	Cl	0.760246	-0.011630	0.145307
Cl446	Cl	1.093580	0.321703	0.478641
Cl447	Cl	1.426913	0.655037	0.811974
H448	H	0.673577	-0.315720	0.150937
H449	H	1.006911	0.017614	0.484270
H450	H	1.340244	0.350947	0.817603
Cl451	Cl	0.672344	-0.418335	0.174686
Cl452	Cl	1.005678	-0.085002	0.508020
Cl453	Cl	1.339011	0.248332	0.841353
Cl454	Cl	0.671967	-0.455792	-0.174648
Cl455	Cl	1.005301	-0.122459	0.158686
Cl456	Cl	1.338634	0.210875	0.492019
Cl457	Cl	0.673794	-0.304555	-0.174638
Cl458	Cl	1.007127	0.028778	0.158695
Cl459	Cl	1.340460	0.362112	0.492029
Cl460	Cl	0.667797	-0.801502	-0.121038
Cl461	Cl	1.001130	-0.468168	0.212295
Cl462	Cl	1.334463	-0.134835	0.545629
Cl463	Cl	0.760252	-0.011649	0.285048
Cl464	Cl	1.093585	0.321684	0.618381
Cl465	Cl	1.426919	0.655018	0.951715
H466	H	0.562341	0.155885	0.556191
H467	H	0.895675	0.489219	0.889525
H468	H	1.229008	0.822552	1.222858
H469	H	-0.034158	-0.019267	0.000050
H470	H	0.299175	0.314067	0.333383
H471	H	0.632508	0.647400	0.666716
Cl472	Cl	0.128533	-0.081306	0.000048
Cl473	Cl	0.461867	0.252027	0.333382
Cl474	Cl	0.795200	0.585360	0.666715
H475	H	0.205832	0.187499	0.000016
H476	H	0.539165	0.520832	0.333349
H477	H	0.872499	0.854165	0.666683
Cl478	Cl	0.584080	0.137510	0.285094
Cl479	Cl	0.917413	0.470843	0.618427
Cl480	Cl	1.250746	0.804176	0.951760
