data_functionalizedCrystal
_audit_creation_method	'MofGen! by Chris Wilmer'
_symmetry_space_group_name_H-M	'P1'
_symmetry_Int_Tables_number	1
_symmetry_cell_setting	triclinic
loop_
_symmetry_equiv_pos_as_xyz
  x,y,z
_cell_length_a	16.625546
_cell_length_b	17.640112
_cell_length_c	17.640618
_cell_angle_alpha	87.865353
_cell_angle_beta	78.766403
_cell_angle_gamma	78.752230
loop_
_atom_site_label
_atom_site_type_symbol
_atom_site_fract_x
_atom_site_fract_y
_atom_site_fract_z
Zn1	Zn	-0.023164	-1.247794	-0.195083
Zn2	Zn	0.476836	-0.747794	0.304917
Zn3	Zn	-0.189520	-1.222013	-0.068092
Zn4	Zn	0.310480	-0.722013	0.431908
Zn5	Zn	-0.075616	-1.095118	-0.093725
Zn6	Zn	0.424384	-0.595118	0.406275
Zn7	Zn	-0.178904	-1.120767	-0.220678
Zn8	Zn	0.321096	-0.620767	0.279322
O9	O	-0.116801	-1.171423	-0.144395
O10	O	0.383199	-0.671423	0.355605
O11	O	-0.027723	-1.350642	-0.156799
O12	O	0.472277	-0.850642	0.343201
O13	O	-0.200805	-1.183657	0.034783
O14	O	0.299195	-0.683657	0.534783
O15	O	0.044189	-1.115426	-0.107187
O16	O	0.544189	-0.615426	0.392813
O17	O	-0.149944	-1.331701	-0.063499
O18	O	0.350056	-0.831701	0.436501
O19	O	0.082726	-1.227596	-0.181654
O20	O	0.582726	-0.727596	0.318346
O21	O	-0.117120	-1.090427	0.015951
O22	O	0.382880	-0.590427	0.515951
O23	O	-0.106825	-0.992252	-0.132005
O24	O	0.393175	-0.492252	0.367995
O25	O	-0.131850	-1.159141	-0.323559
O26	O	0.368150	-0.659141	0.176441
O27	O	-0.182710	-1.011097	-0.225276
O28	O	0.317290	-0.511097	0.274724
O29	O	-0.017429	-1.252467	-0.304754
O30	O	0.482571	-0.752467	0.195246
O31	O	-0.300959	-1.208528	-0.088317
O32	O	0.199041	-0.708528	0.411683
O33	O	-0.293159	-1.134142	-0.200421
O34	O	0.206841	-0.634142	0.299579
C35	C	-0.149308	-0.974121	-0.184200
C36	C	0.350692	-0.474121	0.315800
C37	C	-0.163230	-0.889717	-0.201247
C38	C	0.336770	-0.389717	0.298753
C39	C	-0.326311	-1.171345	-0.144377
C40	C	0.173689	-0.671345	0.355623
C41	C	-0.415923	-1.171386	-0.144381
C42	C	0.084077	-0.671386	0.355619
C43	C	-0.067604	-1.211541	-0.342483
C44	C	0.432396	-0.711541	0.157517
C45	C	-0.046639	-1.228636	-0.426897
C46	C	0.453361	-0.728636	0.073103
C47	C	-0.744057	-1.171534	-0.144434
C48	C	-0.244057	-0.671534	0.355566
C49	C	-0.652760	-1.171491	-0.144422
C50	C	-0.152760	-0.671491	0.355578
C51	C	-0.579993	-1.171459	-0.144407
C52	C	-0.079993	-0.671459	0.355593
C53	C	-0.488690	-1.171417	-0.144396
C54	C	0.011310	-0.671417	0.355604
C55	C	0.093536	-1.171526	-0.144424
C56	C	0.593536	-0.671526	0.355576
C57	C	0.183168	-1.171569	-0.144437
C58	C	0.683168	-0.671569	0.355563
C59	C	-0.084167	-1.369496	-0.104435
C60	C	0.415833	-0.869496	0.395565
C61	C	-0.070260	-1.453903	-0.087406
C62	C	0.429740	-0.953903	0.412594
C63	C	-0.011024	-0.563040	-0.014898
C64	C	0.488976	-0.063040	0.485102
C65	C	-0.024119	-0.483733	-0.030926
C66	C	0.475881	0.016267	0.469074
C67	C	-0.103322	-0.503376	-0.127882
C68	C	0.396678	-0.003376	0.372118
C69	C	-0.090229	-0.582687	-0.111865
C70	C	0.409771	-0.082687	0.388135
C71	C	-0.044081	-0.612512	-0.055371
C72	C	0.455919	-0.112512	0.444629
C73	C	-0.123286	-0.632159	-0.152338
C74	C	0.376714	-0.132159	0.347662
C75	C	-0.110199	-0.711463	-0.136319
C76	C	0.389801	-0.211463	0.363681
C77	C	-0.064054	-0.741295	-0.079826
C78	C	0.435946	-0.241295	0.420174
C79	C	-0.030993	-0.691816	-0.039352
C80	C	0.469007	-0.191816	0.460648
C81	C	-0.169440	-0.602331	-0.208828
C82	C	0.330560	-0.102331	0.291172
C83	C	-0.202497	-0.651804	-0.249301
C84	C	0.297503	-0.151804	0.250699
C85	C	-0.189405	-0.731110	-0.233285
C86	C	0.310595	-0.231110	0.266715
C87	C	-0.143260	-0.760941	-0.176793
C88	C	0.356740	-0.260941	0.323207
C89	C	-0.222466	-0.780588	-0.273760
C90	C	0.277534	-0.280588	0.226240
C91	C	-0.209379	-0.859892	-0.257740
C92	C	0.290621	-0.359892	0.242260
C93	C	-0.130173	-0.840245	-0.160773
C94	C	0.369827	-0.340245	0.339227
C95	C	0.042478	-1.301317	-0.536086
C96	C	0.542478	-0.801317	-0.036086
C97	C	0.022771	-1.285247	-0.456768
C98	C	0.522771	-0.785247	0.043232
C99	C	-0.096368	-1.188069	-0.476340
C100	C	0.403632	-0.688069	0.023660
C101	C	-0.076669	-1.204128	-0.555662
C102	C	0.423331	-0.704128	-0.055662
C103	C	-0.007246	-1.260753	-0.585528
C104	C	0.492754	-0.760753	-0.085528
C105	C	-0.126393	-1.163564	-0.605105
C106	C	0.373607	-0.663564	-0.105105
C107	C	-0.106697	-1.179625	-0.684419
C108	C	0.393303	-0.679625	-0.184419
C109	C	-0.037279	-1.236249	-0.714292
C110	C	0.462721	-0.736249	-0.214292
C111	C	0.012449	-1.276814	-0.664843
C112	C	0.512449	-0.776814	-0.164843
C113	C	-0.195819	-1.106943	-0.575236
C114	C	0.304181	-0.606943	-0.075236
C115	C	-0.245543	-1.066379	-0.624679
C116	C	0.254457	-0.566379	-0.124679
C117	C	-0.225844	-1.082435	-0.703996
C118	C	0.274156	-0.582435	-0.203996
C119	C	-0.156426	-1.139060	-0.733868
C120	C	0.343574	-0.639060	-0.233868
C121	C	-0.275572	-1.041871	-0.753444
C122	C	0.224428	-0.541871	-0.253444
C123	C	-0.255877	-1.057931	-0.832759
C124	C	0.244123	-0.557931	-0.332759
C125	C	-0.136730	-1.155120	-0.813183
C126	C	0.363270	-0.655120	-0.313183
C127	C	-0.165741	-1.131505	0.052932
C128	C	0.334259	-0.631505	0.552932
C129	C	-0.186454	-1.114556	0.137375
C130	C	0.313546	-0.614556	0.637375
H131	H	-0.092579	-0.864533	-0.114782
H132	H	0.407421	-0.364533	0.385218
H133	H	-0.211856	-1.093872	-0.510652
H134	H	0.288144	-0.593872	-0.010652
H135	H	-0.236296	-0.900174	-0.290699
H136	H	0.263704	-0.400174	0.209301
H137	H	-0.332101	-0.995772	-0.729114
H138	H	0.167899	-0.495772	-0.229114
H139	H	-0.302069	-1.020277	-0.600350
H140	H	0.197931	-0.520277	-0.100350
H141	H	-0.180095	-0.537756	-0.221868
H142	H	0.319905	-0.037756	0.278132
O143	O	0.071184	-1.324578	-0.408784
O144	O	0.571184	-0.824578	0.091216
C145	C	0.153644	-1.311970	-0.431530
C146	C	0.653644	-0.811970	0.068470
H147	H	0.153144	-1.255722	-0.465574
H148	H	0.653144	-0.755722	0.034426
H149	H	0.181603	-1.307970	-0.378053
H150	H	0.681603	-0.807970	0.121947
H151	H	0.192863	-1.362021	-0.469355
H152	H	0.692863	-0.862021	0.030645
H153	H	0.068989	-1.322915	-0.689163
H154	H	0.568989	-0.822915	-0.189163
O155	O	0.109993	-1.356220	-0.565163
O156	O	0.609993	-0.856220	-0.065163
C157	C	0.166333	-1.322303	-0.619790
C158	C	0.666333	-0.822303	-0.119790
H159	H	0.155528	-1.257657	-0.607949
H160	H	0.655528	-0.757657	-0.107949
H161	H	0.233144	-1.349985	-0.615169
H162	H	0.733144	-0.849985	-0.115169
H163	H	0.155885	-1.331842	-0.680422
H164	H	0.655885	-0.831842	-0.180422
H165	H	-0.296367	-1.024900	-0.873017
H166	H	0.203633	-0.524900	-0.373017
H167	H	-0.240074	-0.627508	-0.295296
H168	H	0.259926	-0.127508	0.204704
H169	H	-0.080191	-1.201221	-0.837503
H170	H	0.419809	-0.701221	-0.337503
O171	O	-0.051489	-0.818328	-0.064254
O172	O	0.448511	-0.318328	0.435746
C173	C	-0.129240	-0.840826	-0.039250
C174	C	0.370760	-0.340826	0.460750
H175	H	-0.180044	-0.797738	-0.061385
H176	H	0.319956	-0.297738	0.438615
H177	H	-0.126368	-0.900824	-0.062755
H178	H	0.373632	-0.400824	0.437245
H179	H	-0.144179	-0.842110	0.026607
H180	H	0.355821	-0.342110	0.526607
H181	H	-0.140899	-0.479080	-0.173877
H182	H	0.359101	0.020920	0.326123
H183	H	0.006601	-0.716104	0.006640
H184	H	0.506601	-0.216104	0.506640
O185	O	0.033685	-0.591967	0.040083
O186	O	0.533685	-0.091967	0.540083
C187	C	-0.005808	-0.557220	0.111884
C188	C	0.494192	-0.057220	0.611884
H189	H	-0.074792	-0.534600	0.111417
H190	H	0.425208	-0.034600	0.611417
H191	H	0.000479	-0.601773	0.159923
H192	H	0.500479	-0.101773	0.659923
H193	H	0.024952	-0.507191	0.122371
H194	H	0.524952	-0.007191	0.622371
O195	O	0.007867	-0.435620	0.008451
O196	O	0.507867	0.064380	0.508451
C197	C	-0.057722	-0.379756	0.048292
C198	C	0.442278	0.120244	0.548292
H199	H	-0.118472	-0.402668	0.057933
H200	H	0.381528	0.097332	0.557933
H201	H	-0.043104	-0.367008	0.106496
H202	H	0.456896	0.132992	0.606496
H203	H	-0.064627	-0.324421	0.012664
H204	H	0.435373	0.175579	0.512664
O205	O	-0.267165	-0.751589	-0.328721
O206	O	0.232835	-0.251589	0.171279
C207	C	-0.216713	-0.715662	-0.387097
C208	C	0.283287	-0.215662	0.112903
H209	H	-0.148078	-0.740544	-0.387067
H210	H	0.351922	-0.240544	0.112933
H211	H	-0.231615	-0.726590	-0.445675
H212	H	0.268385	-0.226590	0.054325
H213	H	-0.229648	-0.650800	-0.375753
H214	H	0.270352	-0.150800	0.124247
H215	H	-0.152895	-1.141967	-0.452012
H216	H	0.347105	-0.641967	0.047988
O217	O	-0.018290	-1.251857	-0.791337
O218	O	0.481710	-0.751857	-0.291337
C219	C	-0.085775	-1.276704	-0.813888
C220	C	0.414225	-0.776704	-0.313888
H221	H	-0.145714	-1.254448	-0.770794
H222	H	0.354286	-0.754448	-0.270794
H223	H	-0.092570	-1.253191	-0.873859
H224	H	0.407430	-0.753191	-0.373859
H225	H	-0.073610	-1.342563	-0.815247
H226	H	0.426390	-0.842563	-0.315247
