data_functionalizedCrystal
_audit_creation_method	'MofGen! by Chris Wilmer'
_symmetry_space_group_name_H-M	'P1'
_symmetry_Int_Tables_number	1
_symmetry_cell_setting	triclinic
loop_
_symmetry_equiv_pos_as_xyz
  x,y,z
_cell_length_a	15.995343
_cell_length_b	15.995350
_cell_length_c	14.185569
_cell_angle_alpha	76.847063
_cell_angle_beta	103.158392
_cell_angle_gamma	83.490779
loop_
_atom_site_label
_atom_site_type_symbol
_atom_site_fract_x
_atom_site_fract_y
_atom_site_fract_z
O1	O	1.092020	0.126856	-0.083313
O2	O	0.848239	0.140196	-0.083337
O3	O	0.976793	0.011638	-0.083324
O4	O	0.963465	0.255414	-0.083327
O5	O	1.014770	-0.026335	0.083515
O6	O	0.886215	0.102223	0.083502
O7	O	1.129996	0.088883	0.083525
Cu8	Cu	1.011573	0.092085	0.098747
Cu9	Cu	0.966662	0.136993	-0.098559
O10	O	1.001441	0.217441	0.083512
C11	C	0.836031	0.120660	0.000079
C12	C	0.743078	0.119013	0.000070
C13	C	0.995230	-0.038543	0.000094
C14	C	0.993577	-0.131492	0.000088
C15	C	0.572895	0.116016	0.000084
C16	C	0.549550	0.023219	0.000084
C17	C	0.452959	0.021385	0.000469
C18	C	0.405338	0.113065	0.000096
C19	C	0.456072	0.138083	0.095179
C20	C	0.552882	0.139167	0.095252
C21	C	0.509605	0.183710	-0.094481
C22	C	0.412827	0.180567	-0.095725
C23	C	0.310642	0.111401	0.000106
C24	C	0.667592	0.117681	0.000080
C25	C	0.987645	-0.469240	0.000091
C26	C	0.896006	-0.421716	-0.000292
C27	C	0.897744	-0.325112	0.000084
C28	C	0.990587	-0.301679	0.000089
C29	C	1.057431	-0.364443	0.095364
C30	C	1.055149	-0.461097	0.095444
C31	C	1.013855	-0.418273	-0.094283
C32	C	1.013546	-0.321041	-0.095542
C33	C	0.992256	-0.206982	0.000091
C34	C	0.985981	-0.563939	0.000095
C35	C	1.142203	0.108419	0.000107
C36	C	1.235155	0.110068	0.000109
C37	C	0.983004	0.267622	0.000092
C38	C	0.984656	0.360573	0.000091
N39	N	1.043167	0.060499	0.237521
N40	N	0.935074	0.168572	-0.237333
C41	C	0.842250	0.261336	0.605150
C42	C	0.866188	0.237416	0.710174
C43	C	0.980046	0.123620	0.710147
C44	C	0.956115	0.147528	0.605121
C45	C	0.887217	0.216387	0.552631
C46	C	1.001082	0.102579	0.552602
C47	C	0.977155	0.126489	0.447585
C48	C	0.908262	0.195347	0.395087
C49	C	0.863290	0.240297	0.447614
C50	C	1.069984	0.033724	0.605094
C51	C	1.114951	-0.011225	0.552574
C52	C	1.091021	0.012680	0.447555
C53	C	1.022127	0.081539	0.395058
C54	C	1.135992	-0.032269	0.395028
C55	C	1.112065	-0.008360	0.290011
C56	C	0.998200	0.105448	0.290041
H57	H	0.418428	0.000370	-0.067676
H58	H	0.875040	-0.456772	0.067644
H59	H	0.568381	0.206292	0.099317
C60	C	0.449122	-0.048798	0.093091
C61	C	0.401276	-0.125305	0.079688
C62	C	0.397439	-0.195489	0.172315
C63	C	0.441447	-0.189167	0.278346
C64	C	0.489296	-0.112657	0.291753
C65	C	0.493133	-0.042473	0.199126
H66	H	0.368695	-0.129988	0.001193
H67	H	0.362017	-0.252127	0.162390
H68	H	0.438606	-0.241121	0.346915
H69	H	0.521877	-0.107974	0.370248
H70	H	0.528555	0.014165	0.209051
C71	C	0.870554	-0.308595	0.092563
C72	C	0.924098	-0.360524	0.198656
C73	C	0.896930	-0.344057	0.291171
C74	C	0.816218	-0.275661	0.277594
C75	C	0.762669	-0.223726	0.171497
C76	C	0.789837	-0.240193	0.078982
H77	H	0.983851	-0.411160	0.208711
H78	H	0.936571	-0.382503	0.369712
H79	H	0.796106	-0.263471	0.346080
H80	H	0.702917	-0.173091	0.161442
H81	H	0.750197	-0.201748	0.000441
H82	H	0.452149	0.089902	0.166209
H83	H	0.843861	-0.424696	-0.068617
C84	C	1.032553	-0.507720	0.191644
C85	C	1.092245	-0.512093	0.295125
C86	C	1.069645	-0.558710	0.391326
C87	C	0.987353	-0.600955	0.384045
C88	C	0.927656	-0.596584	0.280559
C89	C	0.950256	-0.549966	0.184358
H90	H	1.153167	-0.480820	0.300519
H91	H	1.113837	-0.561946	0.467933
H92	H	0.970623	-0.635464	0.455258
H93	H	0.866734	-0.627857	0.275165
H94	H	0.906064	-0.546731	0.107751
C95	C	1.161527	-0.057805	0.232235
C96	C	1.237307	-0.133549	0.289973
C97	C	1.286773	-0.182993	0.232197
C98	C	1.260458	-0.156693	0.116682
C99	C	1.184674	-0.080945	0.058937
C100	C	1.135208	-0.031501	0.116713
H101	H	1.256790	-0.153021	0.375490
H102	H	1.342874	-0.239066	0.274944
H103	H	1.297076	-0.193294	0.073913
H104	H	1.165191	-0.061473	-0.026579
H105	H	1.079107	0.024572	0.073966
H106	H	0.424970	0.204750	0.098447
H107	H	0.786140	0.317402	0.562411
H108	H	0.378257	0.162598	-0.166068
H109	H	1.089465	0.014262	0.690605
C110	C	1.104846	-0.460987	-0.095147
C111	C	1.116368	-0.497407	-0.183847
C112	C	1.207357	-0.540130	-0.184700
C113	C	1.286824	-0.546431	-0.096853
C114	C	1.275304	-0.510010	-0.008146
C115	C	1.184315	-0.467288	-0.007294
H116	H	1.057539	-0.492744	-0.248883
H117	H	1.215884	-0.567091	-0.250367
H118	H	1.354179	-0.578057	-0.097484
H119	H	1.334132	-0.514674	0.056889
H120	H	1.175788	-0.440326	0.058373
C121	C	1.147283	-0.506011	0.101311
C122	C	1.223837	-0.510290	0.191592
C123	C	1.315970	-0.555203	0.197469
C124	C	1.331549	-0.595837	0.113065
C125	C	1.254992	-0.591559	0.022777
C126	C	1.162859	-0.546646	0.016900
H127	H	1.212307	-0.480209	0.254079
H128	H	1.372642	-0.558369	0.264306
H129	H	1.399751	-0.629085	0.117416
H130	H	1.266522	-0.621640	-0.039709
H131	H	1.106187	-0.543480	-0.049937
H132	H	0.521465	0.170841	-0.166573
H133	H	1.126447	-0.351127	0.098911
C134	C	0.528259	0.276266	-0.095737
C135	C	0.600543	0.290402	-0.011416
C136	C	0.619207	0.382952	-0.012664
C137	C	0.565588	0.461366	-0.098233
C138	C	0.493299	0.447232	-0.182560
C139	C	0.474635	0.354682	-0.181312
H140	H	0.640240	0.232354	0.051933
H141	H	0.672720	0.393415	0.049761
H142	H	0.579404	0.529876	-0.099157
H143	H	0.453603	0.505280	-0.245909
H144	H	0.421122	0.344219	-0.243737
H145	H	1.079942	-0.304372	-0.101291
H146	H	1.042205	-0.352197	0.166261
H147	H	1.192095	-0.088330	0.437780
C148	C	0.951213	-0.423810	-0.191841
C149	C	0.875455	-0.474694	-0.187056
C150	C	0.812805	-0.480232	-0.284608
C151	C	0.825914	-0.434886	-0.386945
C152	C	0.901675	-0.383999	-0.391735
C153	C	0.964325	-0.378460	-0.294183
H154	H	0.865748	-0.508265	-0.111296
H155	H	0.756721	-0.517903	-0.281062
H156	H	0.779536	-0.438986	-0.459159
H157	H	0.911382	-0.350428	-0.467495
H158	H	1.020409	-0.340789	-0.297729
H159	H	0.942091	0.161514	0.247301
C160	C	0.947299	-0.262485	-0.190737
C161	C	0.849709	-0.268046	-0.208216
C162	C	0.783444	-0.209484	-0.303394
C163	C	0.814769	-0.145361	-0.381094
C164	C	0.912364	-0.139797	-0.363617
C165	C	0.978630	-0.198360	-0.268438
H166	H	0.826516	-0.315516	-0.150696
H167	H	0.711197	-0.213602	-0.316332
H168	H	0.765716	-0.102009	-0.451551
H169	H	0.935558	-0.092327	-0.421136
H170	H	1.050876	-0.194241	-0.255501
C171	C	0.816715	0.286864	0.767943
C172	C	0.740933	0.362604	0.710196
C173	C	0.691462	0.412054	0.767963
C174	C	0.717773	0.385764	0.883478
C175	C	0.793559	0.310020	0.941232
C176	C	0.843030	0.260570	0.883464
H177	H	0.721452	0.382069	0.624679
H178	H	0.635360	0.468125	0.725209
H179	H	0.681152	0.422369	0.926240
H180	H	0.813039	0.290555	1.026748
H181	H	0.899131	0.204499	0.926218
C182	C	0.611013	0.074082	0.191631
C183	C	0.605993	0.086154	0.294966
C184	C	0.664119	0.021064	0.391346
C185	C	0.727265	-0.056097	0.384390
C186	C	0.732288	-0.068173	0.281051
C187	C	0.674161	-0.003083	0.184672
H188	H	0.559246	0.143276	0.300119
H189	H	0.660401	0.030004	0.467844
H190	H	0.770294	-0.104280	0.455736
H191	H	0.779035	-0.125295	0.275899
H192	H	0.677880	-0.012023	0.108173
C193	C	1.055831	0.047874	0.767889
C194	C	1.039565	-0.032616	0.840088
C195	C	1.115348	-0.108365	0.897826
C196	C	1.207397	-0.103623	0.883365
C197	C	1.223666	-0.023129	0.811163
C198	C	1.147883	0.052620	0.753425
H199	H	0.971422	-0.036129	0.850796
H200	H	1.103304	-0.167952	0.951275
H201	H	1.263496	-0.159697	0.926107
H202	H	1.291810	-0.019616	0.800456
H203	H	1.159927	0.112206	0.699976
C204	C	1.190735	-0.086970	0.610316
C205	C	1.174470	-0.167461	0.682515
C206	C	1.250253	-0.243209	0.740253
C207	C	1.342302	-0.238467	0.725792
C208	C	1.358571	-0.157973	0.653590
C209	C	1.282788	-0.082225	0.595852
H210	H	1.106326	-0.170974	0.693222
H211	H	1.238209	-0.302796	0.793702
H212	H	1.398401	-0.294541	0.768533
H213	H	1.426714	-0.154460	0.642882
H214	H	1.294832	-0.022638	0.542403
C215	C	0.828782	-0.265713	-0.092175
C216	C	0.856695	-0.198421	-0.170077
C217	C	0.787725	-0.139028	-0.262337
C218	C	0.690841	-0.146927	-0.276695
C219	C	0.662923	-0.214222	-0.198790
C220	C	0.731893	-0.273615	-0.106530
H221	H	0.928419	-0.192571	-0.159451
H222	H	0.808392	-0.089212	-0.320007
H223	H	0.639785	-0.102961	-0.344991
H224	H	0.591199	-0.220072	-0.209416
H225	H	0.711226	-0.323431	-0.048860
H226	H	0.562039	0.002767	-0.068090
H227	H	0.807181	0.296363	0.404874
H228	H	0.378496	0.248774	-0.101761
H229	H	0.594031	-0.027661	0.068169
H230	H	0.888784	0.214816	0.309575
