data_functionalizedCrystal
_audit_creation_method	'MofGen! by Chris Wilmer'
_symmetry_space_group_name_H-M	'P1'
_symmetry_Int_Tables_number	1
_symmetry_cell_setting	triclinic
loop_
_symmetry_equiv_pos_as_xyz
  x,y,z
_cell_length_a	18.215407
_cell_length_b	16.625539
_cell_length_c	18.215405
_cell_angle_alpha	90.031772
_cell_angle_beta	89.980602
_cell_angle_gamma	89.981287
loop_
_atom_site_label
_atom_site_type_symbol
_atom_site_fract_x
_atom_site_fract_y
_atom_site_fract_z
Zn1	Zn	1.125078	-0.455850	0.293091
Zn2	Zn	1.375078	-0.205850	0.543091
Zn3	Zn	1.625078	0.044150	0.793091
Zn4	Zn	1.875078	0.294150	1.043091
Zn5	Zn	1.124985	-0.321009	0.416165
Zn6	Zn	1.374985	-0.071009	0.666165
Zn7	Zn	1.624985	0.178991	0.916165
Zn8	Zn	1.874985	0.428991	1.166165
Zn9	Zn	1.002009	-0.321035	0.293105
Zn10	Zn	1.252009	-0.071035	0.543105
Zn11	Zn	1.502009	0.178965	0.793105
Zn12	Zn	1.752009	0.428965	1.043105
Zn13	Zn	1.001977	-0.455803	0.416108
Zn14	Zn	1.251977	-0.205803	0.666108
Zn15	Zn	1.501977	0.044197	0.916108
Zn16	Zn	1.751977	0.294197	1.166108
O17	O	1.063512	-0.388424	0.354617
O18	O	1.313512	-0.138424	0.604617
O19	O	1.563512	0.111576	0.854617
O20	O	1.813512	0.361576	1.104617
O21	O	1.228050	-0.437972	0.309434
O22	O	1.478050	-0.187972	0.559434
O23	O	1.728050	0.062028	0.809434
O24	O	1.978050	0.312028	1.059434
O25	O	1.108646	-0.208180	0.399870
O26	O	1.358646	0.041820	0.649870
O27	O	1.608646	0.291820	0.899870
O28	O	1.858646	0.541820	1.149870
O29	O	1.018387	-0.338949	0.190119
O30	O	1.268387	-0.088949	0.440119
O31	O	1.518387	0.161051	0.690119
O32	O	1.768387	0.411051	0.940119
O33	O	1.227982	-0.338905	0.399856
O34	O	1.477982	-0.088905	0.649856
O35	O	1.727982	0.161095	0.899856
O36	O	1.977982	0.411095	1.149856
O37	O	1.108806	-0.437997	0.190108
O38	O	1.358806	-0.187997	0.440108
O39	O	1.608806	0.062003	0.690108
O40	O	1.858806	0.312003	0.940108
O41	O	1.018296	-0.208199	0.309458
O42	O	1.268296	0.041801	0.559458
O43	O	1.518296	0.291801	0.809458
O44	O	1.768296	0.541801	1.059458
O45	O	0.899021	-0.338903	0.309404
O46	O	1.149021	-0.088903	0.559404
O47	O	1.399021	0.161097	0.809404
O48	O	1.649021	0.411097	1.059404
O49	O	1.018332	-0.568642	0.399760
O50	O	1.268332	-0.318642	0.649760
O51	O	1.518332	-0.068642	0.899760
O52	O	1.768332	0.181358	1.149760
O53	O	0.898997	-0.437917	0.399774
O54	O	1.148997	-0.187917	0.649774
O55	O	1.398997	0.062083	0.899774
O56	O	1.648997	0.312083	1.149774
O57	O	1.108774	-0.568676	0.309380
O58	O	1.358774	-0.318676	0.559380
O59	O	1.608774	-0.068676	0.809380
O60	O	1.858774	0.181324	1.059380
O61	O	1.108615	-0.338859	0.519141
O62	O	1.358615	-0.088859	0.769141
O63	O	1.608615	0.161141	1.019141
O64	O	1.858615	0.411141	1.269141
O65	O	1.018242	-0.437892	0.519100
O66	O	1.268242	-0.187892	0.769100
O67	O	1.518242	0.062108	1.019100
O68	O	1.768242	0.312108	1.269100
C69	C	0.872306	-0.388408	0.354585
C70	C	1.122306	-0.138408	0.604585
C71	C	1.372306	0.111592	0.854585
C72	C	1.622306	0.361592	1.104585
C73	C	0.790507	-0.388421	0.354589
C74	C	1.040507	-0.138421	0.604589
C75	C	1.290507	0.111579	0.854589
C76	C	1.540507	0.361579	1.104589
C77	C	0.525480	-0.440091	0.307625
C78	C	0.775480	-0.190091	0.557625
C79	C	1.025480	0.059909	0.807625
C80	C	1.275480	0.309909	1.057625
C81	C	0.602338	-0.440088	0.307613
C82	C	0.852338	-0.190088	0.557613
C83	C	1.102338	0.059912	0.807613
C84	C	1.352338	0.309912	1.057613
C85	C	0.602286	-0.336775	0.401633
C86	C	0.852286	-0.086775	0.651633
C87	C	1.102286	0.163225	0.901633
C88	C	1.352286	0.413225	1.151633
C89	C	0.525429	-0.336783	0.401648
C90	C	0.775429	-0.086783	0.651648
C91	C	1.025429	0.163217	0.901648
C92	C	1.275429	0.413217	1.151648
C93	C	0.487028	-0.388439	0.354640
C94	C	0.737028	-0.138439	0.604640
C95	C	0.987028	0.111561	0.854640
C96	C	1.237028	0.361561	1.104640
C97	C	0.640744	-0.388429	0.354613
C98	C	0.890744	-0.138429	0.604613
C99	C	1.140744	0.111571	0.854613
C100	C	1.390744	0.361571	1.104613
C101	C	0.724077	-0.388426	0.354600
C102	C	0.974077	-0.138426	0.604600
C103	C	1.224077	0.111574	0.854600
C104	C	1.474077	0.361574	1.104600
C105	C	0.403689	-0.388443	0.354653
C106	C	0.653689	-0.138443	0.604653
C107	C	0.903689	0.111557	0.854653
C108	C	1.153689	0.361557	1.104653
C109	C	1.063560	-0.598733	0.354562
C110	C	1.313560	-0.348733	0.604562
C111	C	1.563560	-0.098733	0.854562
C112	C	1.813560	0.151267	1.104562
C113	C	1.063581	-0.688354	0.354539
C114	C	1.313581	-0.438354	0.604539
C115	C	1.563581	-0.188354	0.854539
C116	C	1.813581	0.061646	1.104539
C117	C	1.063614	-1.016530	0.354456
C118	C	1.313614	-0.766530	0.604456
C119	C	1.563614	-0.516530	0.854456
C120	C	1.813614	-0.266530	1.104456
C121	C	1.063603	-0.925222	0.354482
C122	C	1.313603	-0.675222	0.604482
C123	C	1.563603	-0.425222	0.854482
C124	C	1.813603	-0.175222	1.104482
C125	C	1.063598	-0.852445	0.354498
C126	C	1.313598	-0.602445	0.604498
C127	C	1.563598	-0.352445	0.854498
C128	C	1.813598	-0.102445	1.104498
C129	C	1.063586	-0.761131	0.354522
C130	C	1.313586	-0.511131	0.604522
C131	C	1.563586	-0.261131	0.854522
C132	C	1.813586	-0.011131	1.104522
C133	C	1.255465	-0.388441	0.354650
C134	C	1.505465	-0.138441	0.604650
C135	C	1.755465	0.111559	0.854650
C136	C	2.005465	0.361559	1.104650
C137	C	1.337264	-0.388447	0.354664
C138	C	1.587264	-0.138447	0.604664
C139	C	1.837264	0.111553	0.854664
C140	C	2.087264	0.361553	1.104664
C141	C	1.063435	-0.388385	0.545823
C142	C	1.313435	-0.138385	0.795823
C143	C	1.563435	0.111615	1.045823
C144	C	1.813435	0.361615	1.295823
C145	C	1.063469	-0.388396	0.627622
C146	C	1.313469	-0.138396	0.877622
C147	C	1.563469	0.111604	1.127622
C148	C	1.813469	0.361604	1.377622
C149	C	1.063507	-0.178933	0.354619
C150	C	1.313507	0.071067	0.604619
C151	C	1.563507	0.321067	0.854619
C152	C	1.813507	0.571067	1.104619
C153	C	1.063629	-0.089313	0.354435
C154	C	1.313629	0.160687	0.604435
C155	C	1.563629	0.410687	0.854435
C156	C	1.813629	0.660687	1.104435
C157	C	1.063610	-0.388481	0.162664
C158	C	1.313610	-0.138481	0.412664
C159	C	1.563610	0.111519	0.662664
C160	C	1.813610	0.361519	0.912664
C161	C	1.063652	-0.388505	0.080865
C162	C	1.313652	-0.138505	0.330865
C163	C	1.563652	0.111495	0.580865
C164	C	1.813652	0.361495	0.830865
C165	C	1.110637	-0.336924	0.815813
C166	C	1.360637	-0.086924	1.065813
C167	C	1.610637	0.163076	1.315813
C168	C	1.860637	0.413076	1.565813
C169	C	1.110670	-0.336944	0.892672
C170	C	1.360670	-0.086944	1.142672
C171	C	1.610670	0.163056	1.392672
C172	C	1.860670	0.413056	1.642672
C173	C	1.016482	-0.439982	0.892669
C174	C	1.266482	-0.189982	1.142669
C175	C	1.516482	0.060018	1.392669
C176	C	1.766482	0.310018	1.642669
C177	C	1.016453	-0.439966	0.815812
C178	C	1.266453	-0.189966	1.065812
C179	C	1.516453	0.060034	1.315812
C180	C	1.766453	0.310034	1.565812
C181	C	1.063530	-0.388433	0.777386
C182	C	1.313530	-0.138433	1.027386
C183	C	1.563530	0.111567	1.277386
C184	C	1.813530	0.361567	1.527386
C185	C	1.063591	-0.388468	0.931102
C186	C	1.313591	-0.138468	1.181102
C187	C	1.563591	0.111532	1.431102
C188	C	1.813591	0.361532	1.681102
C189	C	1.063627	-0.388490	1.014435
C190	C	1.313627	-0.138490	1.264435
C191	C	1.563627	0.111510	1.514435
C192	C	1.813627	0.361510	1.764435
C193	C	1.063496	-0.388412	0.694047
C194	C	1.313496	-0.138412	0.944047
C195	C	1.563496	0.111588	1.194047
C196	C	1.813496	0.361588	1.444047
H197	H	0.633562	-0.294717	0.439904
H198	H	0.883562	-0.044717	0.689904
H199	H	1.133562	0.205283	0.939904
H200	H	1.383562	0.455283	1.189904
H201	H	1.148970	-0.294964	0.784529
H202	H	1.398970	-0.044964	1.034529
H203	H	1.648970	0.205036	1.284529
H204	H	1.898970	0.455036	1.534529
H205	H	0.978153	-0.481938	0.923964
H206	H	1.228153	-0.231938	1.173964
H207	H	1.478153	0.018062	1.423964
H208	H	1.728153	0.268062	1.673964
H209	H	0.633643	-0.482149	0.269330
H210	H	0.883643	-0.232149	0.519330
H211	H	1.133643	0.017851	0.769330
H212	H	1.383643	0.267851	1.019330
O213	O	1.161473	-0.281385	0.934122
O214	O	1.411473	-0.031385	1.184122
O215	O	1.661473	0.218615	1.434122
O216	O	1.911473	0.468615	1.684122
H217	H	1.194197	-0.245546	0.894487
H218	H	1.444197	0.004454	1.144487
H219	H	1.694197	0.254454	1.394487
H220	H	1.944197	0.504454	1.644487
O221	O	0.484065	-0.495811	0.256928
O222	O	0.734065	-0.245811	0.506928
O223	O	0.984065	0.004189	0.756928
O224	O	1.234065	0.254189	1.006928
H225	H	0.449047	-0.459797	0.219447
H226	H	0.699047	-0.209797	0.469447
H227	H	0.949047	0.040203	0.719447
H228	H	1.199047	0.290203	0.969447
H229	H	0.978093	-0.481914	0.784522
H230	H	1.228093	-0.231914	1.034522
H231	H	1.478093	0.018086	1.284522
H232	H	1.728093	0.268086	1.534522
H233	H	0.494120	-0.294721	0.439937
H234	H	0.744120	-0.044721	0.689937
H235	H	0.994120	0.205279	0.939937
H236	H	1.244120	0.455279	1.189937
