data_functionalizedCrystal
_audit_creation_method	'MofGen! by Chris Wilmer'
_symmetry_space_group_name_H-M	'P1'
_symmetry_Int_Tables_number	1
_symmetry_cell_setting	triclinic
loop_
_symmetry_equiv_pos_as_xyz
  x,y,z
_cell_length_a	10.686220
_cell_length_b	21.295417
_cell_length_c	10.685880
_cell_angle_alpha	94.332822
_cell_angle_beta	89.641569
_cell_angle_gamma	94.412682
loop_
_atom_site_label
_atom_site_type_symbol
_atom_site_fract_x
_atom_site_fract_y
_atom_site_fract_z
Zn1	Zn	1.972145	-0.196503	-0.562327
Zn2	Zn	2.472145	0.303497	-0.062327
Zn3	Zn	1.955873	-0.294391	-0.352551
Zn4	Zn	2.455873	0.205609	0.147449
Zn5	Zn	1.746274	-0.197786	-0.368649
Zn6	Zn	2.246274	0.302214	0.131351
Zn7	Zn	1.762281	-0.310391	-0.578319
Zn8	Zn	2.262281	0.189609	-0.078319
O9	O	1.859143	-0.249768	-0.465462
O10	O	2.359143	0.250232	0.034538
O11	O	2.145533	-0.202255	-0.521070
O12	O	2.645533	0.297745	-0.021070
O13	O	1.914560	-0.275417	-0.179147
O14	O	2.414560	0.224583	0.320853
O15	O	1.776347	-0.109524	-0.394385
O16	O	2.276347	0.390476	0.105615
O17	O	2.133578	-0.274173	-0.366949
O18	O	2.633578	0.225827	0.133051
O19	O	1.942294	-0.108581	-0.536679
O20	O	2.442294	0.391419	-0.036679
O21	O	1.760569	-0.204442	-0.190974
O22	O	2.260569	0.295558	0.309026
O23	O	1.572851	-0.219957	-0.409892
O24	O	2.072851	0.280043	0.090108
O25	O	1.803629	-0.301443	-0.751738
O26	O	2.303629	0.198557	-0.251738
O27	O	1.584611	-0.302687	-0.563936
O28	O	2.084611	0.197313	-0.063936
O29	O	1.957816	-0.217770	-0.739988
O30	O	2.457816	0.282230	-0.239988
O31	O	1.930082	-0.384605	-0.382456
O32	O	2.430082	0.115395	0.117544
O33	O	1.787851	-0.396361	-0.548327
O34	O	2.287851	0.103639	-0.048327
C35	C	1.533214	-0.263198	-0.490397
C36	C	2.033214	0.236802	0.009603
C37	C	1.393782	-0.268960	-0.501094
C38	C	1.893782	0.231040	-0.001094
C39	C	1.858974	-0.413324	-0.465405
C40	C	2.358974	0.086676	0.034595
C41	C	1.859019	-0.483291	-0.465414
C42	C	2.359019	0.016709	0.034586
C43	C	1.933156	-0.510015	-0.379121
C44	C	2.433156	-0.010015	0.120879
C45	C	1.933217	-0.575756	-0.379145
C46	C	2.433217	-0.075756	0.120855
C47	C	1.859118	-0.614771	-0.465450
C48	C	2.359118	-0.114771	0.034550
C49	C	1.784976	-0.588039	-0.551758
C50	C	2.284976	-0.088039	-0.051758
C51	C	1.784927	-0.522299	-0.551740
C52	C	2.284927	-0.022299	-0.051740
N53	N	1.750111	-0.722899	-0.483408
N54	N	2.250111	-0.222899	0.016592
N55	N	1.750161	-0.785349	-0.483418
N56	N	2.250161	-0.285349	0.016582
C57	C	1.859264	-0.812842	-0.465511
C58	C	2.359264	-0.312842	0.034489
N59	N	1.968315	-0.775525	-0.447569
N60	N	2.468315	-0.275525	0.052431
N61	N	1.968263	-0.713069	-0.447553
N62	N	2.468263	-0.213069	0.052447
C63	C	1.859163	-0.686055	-0.465479
C64	C	2.359163	-0.186055	0.034521
C65	C	1.933473	-0.910850	-0.379239
C66	C	2.433473	-0.410850	0.120761
C67	C	1.933537	-0.976593	-0.379272
C68	C	2.433537	-0.476593	0.120728
C69	C	1.785284	-0.988874	-0.551879
C70	C	2.285284	-0.488874	-0.051879
C71	C	1.785232	-0.923133	-0.551852
C72	C	2.285232	-0.423133	-0.051852
C73	C	1.859324	-0.884125	-0.465526
C74	C	2.359324	-0.384125	0.034474
C75	C	2.186346	-0.236286	-0.440429
C76	C	2.686346	0.263714	0.059571
C77	C	2.325780	-0.230541	-0.429762
C78	C	2.825780	0.269459	0.070238
C79	C	1.884323	-0.261248	-0.792651
C80	C	2.384323	0.238752	-0.292651
C81	C	1.895053	-0.266141	-0.932079
C82	C	2.395053	0.233859	-0.432079
C83	C	1.859350	-0.085573	-0.465544
C84	C	2.359350	0.414427	0.034456
C85	C	1.859438	-0.015603	-0.465578
C86	C	2.359438	0.484397	0.034422
C87	C	1.834134	-0.238284	-0.139540
C88	C	2.334134	0.261716	0.360460
C89	C	1.823647	-0.233204	-0.000093
C90	C	2.323647	0.266796	0.499907
H91	H	1.993490	-0.478256	-0.308832
H92	H	2.493490	0.021744	0.191168
H93	H	1.345325	-0.306265	-0.570346
H94	H	1.845325	0.193735	-0.070346
H95	H	1.993917	-0.998350	-0.309004
H96	H	2.493917	-0.498350	0.190996
H97	H	1.964406	-0.298085	-0.980522
H98	H	2.464406	0.201915	-0.480522
H99	H	1.724646	-0.619809	-0.622030
H100	H	2.224646	-0.119809	-0.122030
F101	F	1.389105	-0.181787	-0.339238
F102	F	1.889105	0.318213	0.160762
H103	H	1.993593	-0.597520	-0.308876
H104	H	2.493593	-0.097520	0.191124
H105	H	1.724957	-1.020639	-0.622155
H106	H	2.224957	-0.520639	-0.122155
F107	F	1.706016	-0.493856	-0.643588
F108	F	2.206016	0.006144	-0.143588
H109	H	1.993808	-0.879088	-0.308951
H110	H	2.493808	-0.379088	0.191049
H111	H	1.724857	-0.901373	-0.622115
H112	H	2.224857	-0.401373	-0.122115
F113	F	1.732994	-0.191457	-0.936786
F114	F	2.232994	0.308543	-0.436786
