data_functionalizedCrystal
_audit_creation_method	'MofGen! by Chris Wilmer'
_symmetry_space_group_name_H-M	'P1'
_symmetry_Int_Tables_number	1
_symmetry_cell_setting	triclinic
loop_
_symmetry_equiv_pos_as_xyz
  x,y,z
_cell_length_a	29.839126
_cell_length_b	15.297475
_cell_length_c	15.297327
_cell_angle_alpha	91.625546
_cell_angle_beta	80.345031
_cell_angle_gamma	99.683563
loop_
_atom_site_label
_atom_site_type_symbol
_atom_site_fract_x
_atom_site_fract_y
_atom_site_fract_z
Zn1	Zn	-0.414055	-1.278661	0.580903
Zn2	Zn	-0.349353	-1.253200	0.727347
Zn3	Zn	-0.324150	-1.132187	0.555522
Zn4	Zn	-0.409671	-1.106804	0.701935
O5	O	-0.374307	-1.192713	0.641426
O6	O	-0.417854	-1.397851	0.621586
O7	O	-0.283141	-1.237115	0.704567
O8	O	-0.327364	-1.172896	0.436327
O9	O	-0.370318	-1.379145	0.729177
O10	O	-0.393417	-1.280509	0.454975
O11	O	-0.264625	-1.148208	0.578328
O12	O	-0.323113	-1.006253	0.553687
O13	O	-0.473121	-1.129633	0.685866
O14	O	-0.385944	-0.987604	0.661256
O15	O	-0.476342	-1.255896	0.596945
O16	O	-0.366066	-1.212502	0.846537
O17	O	-0.410381	-1.104945	0.827867
C18	C	-0.351318	-0.965148	0.601960
C19	C	-0.341495	-0.867791	0.585097
C20	C	-0.390495	-1.153230	0.868985
C21	C	-0.397443	-1.136419	0.966349
C22	C	-0.491489	-1.192773	0.641402
C23	C	-0.541424	-1.192799	0.641392
C24	C	-0.841425	-1.146537	0.575575
C25	C	-1.029096	-1.146572	0.575518
O26	O	-1.045164	-1.107180	0.519638
N27	N	-1.062202	-1.192869	0.641235
C28	C	-1.048388	-1.239155	0.706974
O29	O	-1.080852	-1.278526	0.762873
C30	C	-0.860717	-1.239113	0.707033
C31	C	-0.827613	-1.192821	0.641307
C32	C	-0.808322	-1.100248	0.509855
C33	C	-0.761407	-1.100243	0.509867
C34	C	-0.747595	-1.146528	0.575599
C35	C	-0.780698	-1.192817	0.641319
C36	C	-0.846903	-1.285394	0.772775
C37	C	-0.799982	-1.285378	0.772785
C38	C	-0.766878	-1.239086	0.707059
C39	C	-0.719972	-1.239097	0.707063
N40	N	-0.686866	-1.192801	0.641346
C41	C	-0.700678	-1.146516	0.575614
C42	C	-1.146917	-1.239174	0.706937
C43	C	-1.193835	-1.239186	0.706921
C44	C	-1.174540	-1.146602	0.575467
C45	C	-1.127622	-1.146596	0.575479
C46	C	-1.113811	-1.192878	0.641220
C47	C	-0.602154	-1.146511	0.575644
C48	C	-0.555236	-1.146514	0.575660
C49	C	-0.574535	-1.239094	0.707117
C50	C	-0.621449	-1.239095	0.707099
C51	C	-0.635256	-1.192797	0.641358
O52	O	-0.703871	-1.278461	0.762920
O53	O	-0.668206	-1.107135	0.519734
C54	C	-0.888340	-1.146541	0.575563
C55	C	-0.921443	-1.192830	0.641283
C56	C	-0.907631	-1.239115	0.707015
C57	C	-0.968360	-1.192842	0.641267
C58	C	-0.982172	-1.146557	0.575535
C59	C	-0.949066	-1.100261	0.509819
C60	C	-0.902152	-1.100257	0.509831
C61	C	-0.940737	-1.285411	0.772732
C62	C	-0.987651	-1.285413	0.772714
C63	C	-1.001463	-1.239128	0.706981
C64	C	-0.257582	-1.192714	0.641396
C65	C	-0.207646	-1.192901	0.641189
C66	C	-0.397386	-1.421167	0.681048
C67	C	-0.407221	-1.518520	0.697932
C68	C	-0.444513	-0.554555	0.761954
C69	C	-0.453741	-0.646026	0.777804
C70	C	-0.425681	-0.701471	0.729628
C71	C	-0.388390	-0.665437	0.665601
C72	C	-0.379159	-0.573957	0.649754
C73	C	-0.360327	-0.720873	0.617428
C74	C	-0.323036	-0.684839	0.553401
C75	C	-0.313807	-0.593368	0.537557
C76	C	-0.341867	-0.537922	0.585732
C77	C	-0.369558	-0.812354	0.633275
C78	C	-0.304204	-0.831756	0.521075
C79	C	-0.294975	-0.740285	0.505225
C80	C	-0.358068	-1.232374	0.412984
C81	C	-0.351148	-1.249275	0.315635
C82	C	-0.324836	-1.313223	1.279594
C83	C	-0.318305	-1.329017	1.188115
C84	C	-0.338089	-1.280870	1.132669
C85	C	-0.364405	-1.216924	1.168711
C86	C	-0.370933	-1.201124	1.260198
C87	C	-0.384187	-1.168770	1.113273
C88	C	-0.410502	-1.104825	1.149315
C89	C	-0.417030	-1.089027	1.240793
C90	C	-0.397246	-1.137175	1.296239
C91	C	-0.377658	-1.184571	1.021786
C92	C	-0.423756	-1.072471	1.002390
C93	C	-0.430286	-1.056677	1.093869
H94	H	-0.528284	-1.108818	0.522134
H95	H	-0.356232	-1.236635	0.992450
O96	O	-0.434636	-0.790354	0.744858
C97	C	-0.453557	-0.936186	0.683674
C98	C	-0.443409	-0.835544	0.666300
H99	H	-0.460662	-0.972750	0.620178
H100	H	-0.422540	-0.957919	0.705995
H101	H	-0.485017	-0.952389	0.737741
H102	H	-0.411963	-0.819266	0.612220
H103	H	-0.474451	-0.813863	0.644029
O104	O	-0.821673	-1.055154	0.446016
C105	C	-0.817946	-0.913544	0.377674
C106	C	-0.802789	-0.964505	0.450006
H107	H	-0.802693	-0.840242	0.380887
H108	H	-0.805231	-0.941122	0.309703
H109	H	-0.857166	-0.921540	0.388925
H110	H	-0.763573	-0.956530	0.438839
H111	H	-0.815538	-0.936916	0.517952
H112	H	-1.185793	-1.108918	0.521943
H113	H	-0.264613	-0.710933	0.453094
H114	H	-0.648404	-1.276801	0.760610
O115	O	-0.403575	-1.121672	1.385076
C116	C	-0.392879	-1.015052	1.501899
C117	C	-0.385690	-1.032479	1.401269
H118	H	-0.378414	-0.942946	1.515023
H119	H	-0.431279	-1.028845	1.529855
H120	H	-0.374238	-1.060492	1.535323
H121	H	-0.404303	-0.987050	1.367770
H122	H	-0.347282	-1.018714	1.373379
O123	O	-0.615485	-1.101528	0.511695
C124	C	-0.591382	-1.009666	0.381336
C125	C	-0.576222	-1.060582	0.453697
H126	H	-0.559647	-0.976532	0.334436
H127	H	-0.614136	-1.057799	0.342439
H128	H	-0.611590	-0.956919	0.413608
H129	H	-0.555996	-1.113329	0.421497
H130	H	-0.553491	-1.012394	0.492587
O131	O	-0.442993	-1.025591	0.948662
C132	C	-0.489426	-0.912775	0.939076
C133	C	-0.467661	-0.965784	1.000029
H134	H	-0.509384	-0.864422	0.980584
H135	H	-0.461124	-0.874324	0.888382
H136	H	-0.513913	-0.960390	0.903138
H137	H	-0.443178	-0.918232	1.036027
H138	H	-0.495988	-1.004247	1.050669
O139	O	-0.305536	-1.359901	1.333382
C140	C	-0.235428	-1.397683	1.368727
C141	C	-0.257232	-1.344755	1.307769
H142	H	-0.196372	-1.385471	1.348030
H143	H	-0.244568	-1.375408	1.440317
H144	H	-0.249211	-1.471413	1.362927
H145	H	-0.243461	-1.271014	1.313493
H146	H	-0.248095	-1.367103	1.236206
O147	O	-0.489993	-0.680887	0.839998
C148	C	-0.553823	-0.651977	0.949651
C149	C	-0.512787	-0.612382	0.879224
H150	H	-0.572257	-0.596608	0.981399
H151	H	-0.578847	-0.701755	0.916968
H152	H	-0.540723	-0.686882	1.002772
H153	H	-0.525845	-0.577431	0.826082
H154	H	-0.487771	-0.562650	0.911971
H155	H	-0.296879	-1.381080	1.158773
O156	O	-1.095453	-1.101763	0.511567
C157	C	-1.032866	-1.110472	0.391320
C158	C	-1.069279	-1.161363	0.463651
H159	H	-1.011689	-1.158633	0.352572
H160	H	-1.050779	-1.077425	0.344279
H161	H	-1.009150	-1.057663	0.423608
H162	H	-1.093005	-1.214213	0.431439
H163	H	-1.051335	-1.194348	0.510684
H164	H	-0.283438	-0.564031	0.485430
O165	O	-1.133560	-1.284079	0.770912
C166	C	-1.134087	-1.300712	0.927270
C167	C	-1.149249	-1.249794	0.854914
H168	H	-1.146757	-1.273000	0.995200
H169	H	-1.149378	-1.374009	0.924199
H170	H	-1.094869	-1.292785	0.915963
H171	H	-1.188463	-1.257649	0.866172
H172	H	-1.133924	-1.176517	0.858003
O173	O	-0.869983	-1.055424	0.445917
C174	C	-0.807400	-1.064133	0.325663
C175	C	-0.843812	-1.115023	0.397996
H176	H	-0.786225	-1.112294	0.286911
H177	H	-0.825315	-1.031082	0.278626
H178	H	-0.783683	-1.011326	0.357950
H179	H	-0.867540	-1.167872	0.365785
H180	H	-0.825867	-1.148012	0.445025
H181	H	-0.334356	-0.463439	0.572829
H182	H	-0.467354	-0.509403	0.801176
H183	H	-0.281354	-0.876900	0.481848
H184	H	-0.332770	-1.293732	1.058183
H185	H	-0.438451	-1.036949	1.270133
O186	O	-0.455816	-0.994563	1.129025
C187	C	-0.486324	-0.920589	1.261373
C188	C	-0.457392	-0.990942	1.221674
H189	H	-0.487616	-0.917652	1.336287
H190	H	-0.469996	-0.853033	1.231276
H191	H	-0.522809	-0.939044	1.245944
H192	H	-0.420903	-0.972570	1.237090
H193	H	-0.473757	-1.058479	1.251772
O194	O	-0.561141	-1.284188	0.770901
C195	C	-0.564888	-1.425765	0.839324
C196	C	-0.580082	-1.374818	0.767030
H197	H	-0.580203	-1.499046	0.836231
H198	H	-0.525670	-1.417878	0.828054
H199	H	-0.577567	-1.398068	0.907257
H200	H	-0.567435	-1.402482	0.699067
H201	H	-0.619300	-1.382703	0.778378
H202	H	-0.734457	-1.062544	0.456349
O203	O	-0.927299	-1.330237	0.836657
C204	C	-0.883913	-1.321520	0.956941
C205	C	-0.899101	-1.270633	0.884595
H206	H	-0.861104	-1.273354	0.995707
H207	H	-0.915620	-1.354578	1.003963
H208	H	-0.863743	-1.374320	0.924664
H209	H	-0.919262	-1.217791	0.916795
H210	H	-0.867376	-1.237636	0.837581
O211	O	-1.225948	-1.284294	0.770740
C212	C	-1.258395	-1.425915	0.839059
C213	C	-1.222001	-1.374938	0.766754
H214	H	-1.255223	-1.499213	0.835848
H215	H	-1.252632	-1.398339	0.907041
H216	H	-1.294298	-1.417934	0.827776
H217	H	-1.186083	-1.382898	0.777953
H218	H	-1.227805	-1.402526	0.698797
H219	H	-0.873850	-1.323089	0.826296
H220	H	-0.960320	-1.062579	0.456294
O221	O	-0.786620	-1.330272	0.836762
C222	C	-0.787133	-1.346872	0.993119
C223	C	-0.802303	-1.295972	0.920760
H224	H	-0.799798	-1.319148	1.061047
H225	H	-0.802423	-1.420171	0.990065
H226	H	-0.747914	-1.338941	0.981801
H227	H	-0.841517	-1.303832	0.932030
H228	H	-0.786980	-1.222693	0.923832
H229	H	-1.014602	-1.323118	0.826236
H230	H	-0.399920	-0.841683	0.685407
