data_functionalizedCrystal
_audit_creation_method	'MofGen! by Chris Wilmer'
_symmetry_space_group_name_H-M	'P1'
_symmetry_Int_Tables_number	1
_symmetry_cell_setting	triclinic
loop_
_symmetry_equiv_pos_as_xyz
  x,y,z
_cell_length_a	10.686220
_cell_length_b	19.121063
_cell_length_c	10.685910
_cell_angle_alpha	91.760564
_cell_angle_beta	89.676032
_cell_angle_gamma	96.652836
loop_
_atom_site_label
_atom_site_type_symbol
_atom_site_fract_x
_atom_site_fract_y
_atom_site_fract_z
Zn1	Zn	1.959985	-0.171311	0.576420
Zn2	Zn	1.934832	-0.298318	0.377051
Zn3	Zn	1.732897	-0.189215	0.384198
Zn4	Zn	1.741287	-0.296959	0.602723
O5	O	1.842250	-0.238951	0.485098
O6	O	2.132685	-0.181235	0.535974
O7	O	1.894008	-0.291907	0.203109
O8	O	1.770036	-0.088596	0.401680
O9	O	2.114205	-0.274546	0.389499
O10	O	1.936876	-0.075442	0.542904
O11	O	1.745647	-0.211750	0.208360
O12	O	1.557974	-0.210432	0.427185
O13	O	1.784336	-0.272230	0.774123
O14	O	1.564138	-0.289590	0.587734
O15	O	1.945012	-0.179917	0.754799
O16	O	1.902143	-0.396381	0.415004
O17	O	1.759947	-0.395383	0.580803
C18	C	1.515412	-0.251807	0.511090
C19	C	1.375590	-0.257322	0.522240
C20	C	1.829262	-0.421353	0.500007
C21	C	1.823824	-0.499379	0.506417
C22	C	1.895372	-0.536527	0.423167
C23	C	1.890265	-0.609840	0.429203
C24	C	1.813604	-0.646004	0.518485
C25	C	1.742054	-0.608851	0.601743
C26	C	1.747168	-0.535539	0.595712
C27	C	1.794462	-0.867335	0.541016
C28	C	1.789351	-0.940652	0.547038
C29	C	1.937564	-0.941636	0.374499
C30	C	1.942665	-0.868323	0.368471
C31	C	1.871121	-0.831175	0.451734
C32	C	1.808380	-0.720942	0.524654
C33	C	1.876353	-0.756238	0.445569
C34	C	2.170365	-0.226045	0.459005
C35	C	2.310188	-0.220545	0.447886
C36	C	1.868416	-0.223924	0.811076
C37	C	1.879565	-0.217521	0.949988
C38	C	1.855326	-0.055834	0.470155
C39	C	1.860898	0.022200	0.463788
C40	C	1.816179	-0.253936	1.160390
C41	C	1.805035	-0.260343	1.021477
H42	H	1.324609	-0.293035	0.594427
H43	H	1.361163	-0.184839	0.375697
H44	H	1.957791	-0.507087	0.350460
C45	C	1.977302	-0.161374	1.010861
H46	H	2.022569	-0.135372	0.947385
H47	H	1.935411	-0.130357	1.063124
H48	H	2.034241	-0.183760	1.059615
C49	C	1.968961	-0.650700	0.337622
H50	H	2.015336	-0.618663	0.283575
H51	H	2.025587	-0.674900	0.383460
H52	H	1.914501	-0.683739	0.289308
H53	H	2.005089	-0.838879	0.295771
H54	H	1.995813	-0.971889	0.306712
H55	H	1.688909	-0.505293	0.663505
H56	H	1.732700	-0.301904	0.976409
H57	H	1.726941	-0.970094	0.619762
C58	C	1.715742	-0.826484	0.632581
H59	H	1.669340	-0.858525	0.686602
H60	H	1.770174	-0.793441	0.680905
H61	H	1.659118	-0.802289	0.586718
H62	H	1.679641	-0.638301	0.674443
H63	H	1.938776	-0.726791	0.372880
H64	H	1.745959	-0.750395	0.597345
