data_functionalizedCrystal
_audit_creation_method	'MofGen! by Chris Wilmer'
_symmetry_space_group_name_H-M	'P1'
_symmetry_Int_Tables_number	1
_symmetry_cell_setting	triclinic
loop_
_symmetry_equiv_pos_as_xyz
  x,y,z
_cell_length_a	16.625548
_cell_length_b	18.101395
_cell_length_c	16.625539
_cell_angle_alpha	89.974216
_cell_angle_beta	89.982945
_cell_angle_gamma	90.032172
loop_
_atom_site_label
_atom_site_type_symbol
_atom_site_fract_x
_atom_site_fract_y
_atom_site_fract_z
Zn1	Zn	1.232604	-0.294821	-0.455913
Zn2	Zn	1.482604	-0.044821	-0.205913
Zn3	Zn	1.732604	0.205179	0.044087
Zn4	Zn	1.982604	0.455179	0.294087
Zn5	Zn	1.232495	-0.418666	-0.321082
Zn6	Zn	1.482495	-0.168666	-0.071082
Zn7	Zn	1.732495	0.081334	0.178918
Zn8	Zn	1.982495	0.331334	0.428918
Zn9	Zn	1.097774	-0.294845	-0.321094
Zn10	Zn	1.347774	-0.044845	-0.071094
Zn11	Zn	1.597774	0.205155	0.178906
Zn12	Zn	1.847774	0.455155	0.428906
Zn13	Zn	1.097716	-0.418627	-0.455872
Zn14	Zn	1.347716	-0.168627	-0.205872
Zn15	Zn	1.597716	0.081373	0.044128
Zn16	Zn	1.847716	0.331373	0.294128
O17	O	1.165147	-0.356740	-0.388490
O18	O	1.415147	-0.106740	-0.138490
O19	O	1.665147	0.143260	0.111510
O20	O	1.915147	0.393260	0.361510
O21	O	1.345422	-0.311255	-0.438040
O22	O	1.595422	-0.061255	-0.188040
O23	O	1.845422	0.188745	0.061960
O24	O	2.095422	0.438745	0.311960
O25	O	1.214603	-0.402267	-0.208251
O26	O	1.464603	-0.152267	0.041749
O27	O	1.714603	0.097733	0.291749
O28	O	1.964603	0.347733	0.541749
O29	O	1.115730	-0.191209	-0.339000
O30	O	1.365730	0.058791	-0.089000
O31	O	1.615730	0.308791	0.161000
O32	O	1.865730	0.558791	0.411000
O33	O	1.345342	-0.402244	-0.338980
O34	O	1.595342	-0.152244	-0.088980
O35	O	1.845342	0.097756	0.161020
O36	O	2.095342	0.347756	0.411020
O37	O	1.214789	-0.191191	-0.438051
O38	O	1.464789	0.058809	-0.188051
O39	O	1.714789	0.308809	0.061949
O40	O	1.964789	0.558809	0.311949
O41	O	1.115624	-0.311296	-0.208260
O42	O	1.365624	-0.061296	0.041740
O43	O	1.615624	0.188704	0.291740
O44	O	1.865624	0.438704	0.541740
O45	O	0.984934	-0.311259	-0.338960
O46	O	1.234934	-0.061259	-0.088960
O47	O	1.484934	0.188741	0.161040
O48	O	1.734934	0.438741	0.411040
O49	O	1.115630	-0.402178	-0.568710
O50	O	1.365630	-0.152178	-0.318710
O51	O	1.615630	0.097822	-0.068710
O52	O	1.865630	0.347822	0.181290
O53	O	0.984891	-0.402201	-0.437981
O54	O	1.234891	-0.152201	-0.187981
O55	O	1.484891	0.097799	0.062019
O56	O	1.734891	0.347799	0.312019
O57	O	1.214732	-0.311218	-0.568740
O58	O	1.464732	-0.061218	-0.318740
O59	O	1.714732	0.188782	-0.068740
O60	O	1.964732	0.438782	0.181260
O61	O	1.214547	-0.522294	-0.338940
O62	O	1.464547	-0.272294	-0.088940
O63	O	1.714547	-0.022294	0.161060
O64	O	1.964547	0.227706	0.411060
O65	O	1.115525	-0.522265	-0.437969
O66	O	1.365525	-0.272265	-0.187969
O67	O	1.615525	-0.022265	0.062031
O68	O	1.865525	0.227735	0.312031
C69	C	0.955657	-0.356729	-0.388467
C70	C	1.205657	-0.106729	-0.138467
C71	C	1.455657	0.143271	0.111533
C72	C	1.705657	0.393271	0.361533
C73	C	0.866035	-0.356742	-0.388477
C74	C	1.116035	-0.106742	-0.138477
C75	C	1.366035	0.143258	0.111523
C76	C	1.616035	0.393258	0.361523
C77	C	0.537860	-0.356747	-0.388511
C78	C	0.787860	-0.106747	-0.138511
C79	C	1.037860	0.143253	0.111489
C80	C	1.287860	0.393253	0.361489
C81	C	0.629168	-0.356744	-0.388499
C82	C	0.879168	-0.106744	-0.138499
C83	C	1.129168	0.143256	0.111501
C84	C	1.379168	0.393256	0.361501
C85	C	0.701945	-0.356745	-0.388494
C86	C	0.951945	-0.106745	-0.138494
C87	C	1.201945	0.143255	0.111506
C88	C	1.451945	0.393255	0.361506
C89	C	0.793259	-0.356741	-0.388483
C90	C	1.043259	-0.106741	-0.138483
C91	C	1.293259	0.143259	0.111517
C92	C	1.543259	0.393259	0.361517
C93	C	1.165040	-0.549150	-0.388466
C94	C	1.415040	-0.299150	-0.138466
C95	C	1.665040	-0.049150	0.111534
C96	C	1.915040	0.200850	0.361534
C97	C	1.165067	-0.631464	-0.388483
C98	C	1.415067	-0.381464	-0.138483
C99	C	1.665067	-0.131464	0.111517
C100	C	1.915067	0.118536	0.361517
C101	C	1.165244	-0.930555	-0.388527
C102	C	1.415244	-0.680555	-0.138527
C103	C	1.665244	-0.430555	0.111473
C104	C	1.915244	-0.180555	0.361473
C105	C	1.103087	-0.899243	-0.450988
C106	C	1.353087	-0.649243	-0.200988
C107	C	1.603087	-0.399243	0.049012
C108	C	1.853087	-0.149243	0.299012
C109	C	1.102791	-0.813625	-0.450793
C110	C	1.352791	-0.563625	-0.200793
C111	C	1.602791	-0.313625	0.049207
C112	C	1.852791	-0.063625	0.299207
C113	C	1.165156	-0.782173	-0.388506
C114	C	1.415156	-0.532173	-0.138506
C115	C	1.665156	-0.282173	0.111494
C116	C	1.915156	-0.032173	0.361494
C117	C	1.142154	-0.813322	-0.303528
C118	C	1.392154	-0.563322	-0.053528
C119	C	1.642154	-0.313322	0.196472
C120	C	1.892154	-0.063322	0.446472
C121	C	1.141754	-0.898968	-0.303901
C122	C	1.391754	-0.648968	-0.053901
C123	C	1.641754	-0.398968	0.196099
C124	C	1.891754	-0.148968	0.446099
C125	C	1.250539	-0.898898	-0.410295
C126	C	1.500539	-0.648898	-0.160295
C127	C	1.750539	-0.398898	0.089705
C128	C	2.000539	-0.148898	0.339705
C129	C	1.250038	-0.813247	-0.412159
C130	C	1.500038	-0.563247	-0.162159
C131	C	1.750038	-0.313247	0.087841
C132	C	2.000038	-0.063247	0.337841
C133	C	1.165108	-0.698313	-0.388489
C134	C	1.415108	-0.448313	-0.138489
C135	C	1.665108	-0.198313	0.111511
C136	C	1.915108	0.051687	0.361511
C137	C	1.165290	-1.014415	-0.388538
C138	C	1.415290	-0.764415	-0.138538
C139	C	1.665290	-0.514415	0.111462
C140	C	1.915290	-0.264415	0.361462
C141	C	1.375456	-0.356751	-0.388513
C142	C	1.625456	-0.106751	-0.138513
C143	C	1.875456	0.143249	0.111487
C144	C	2.125456	0.393249	0.361487
C145	C	1.465077	-0.356756	-0.388523
C146	C	1.715077	-0.106756	-0.138523
C147	C	1.965077	0.143244	0.111477
C148	C	2.215077	0.393244	0.361477
C149	C	1.165187	-0.356691	-0.598799
C150	C	1.415187	-0.106691	-0.348799
C151	C	1.665187	0.143309	-0.098799
C152	C	1.915187	0.393309	0.151201
C153	C	1.165204	-0.356670	-0.688420
C154	C	1.415204	-0.106670	-0.438420
C155	C	1.665204	0.143330	-0.188420
C156	C	1.915204	0.393330	0.061580
C157	C	1.165278	-0.163578	-0.388531
C158	C	1.415278	0.086422	-0.138531
C159	C	1.665278	0.336422	0.111469
C160	C	1.915278	0.586422	0.361469
C161	C	1.165333	-0.081264	-0.388549
C162	C	1.415333	0.168736	-0.138549
C163	C	1.665333	0.418736	0.111451
C164	C	1.915333	0.668736	0.361451
C165	C	1.165217	-0.356654	-0.761203
C166	C	1.415217	-0.106654	-0.511203
C167	C	1.665217	0.143346	-0.261203
C168	C	1.915217	0.393346	-0.011203
C169	C	1.165236	-0.356626	-0.852511
C170	C	1.415236	-0.106626	-0.602511
C171	C	1.665236	0.143374	-0.352511
C172	C	1.915236	0.393374	-0.102511
C173	C	1.165255	-0.356600	-0.925288
C174	C	1.415255	-0.106600	-0.675288
C175	C	1.665255	0.143400	-0.425288
C176	C	1.915255	0.393400	-0.175288
C177	C	1.165275	-0.356573	-1.016602
C178	C	1.415275	-0.106573	-0.766602
C179	C	1.665275	0.143427	-0.516602
C180	C	1.915275	0.393427	-0.266602
C181	C	1.165154	-0.356735	-0.178999
C182	C	1.415154	-0.106735	0.071001
C183	C	1.665154	0.143265	0.321001
C184	C	1.915154	0.393265	0.571001
C185	C	1.165294	-0.356547	-0.089378
C186	C	1.415294	-0.106547	0.160622
C187	C	1.665294	0.143453	0.410622
C188	C	1.915294	0.393453	0.660622
H189	H	1.117182	-0.792562	-0.513803
H190	H	1.367182	-0.542562	-0.263803
H191	H	1.617182	-0.292562	-0.013803
H192	H	1.867182	-0.042562	0.236197
N193	N	1.121948	-0.926464	-0.534725
N194	N	1.371948	-0.676464	-0.284725
N195	N	1.621948	-0.426464	-0.034725
N196	N	1.871948	-0.176464	0.215275
H197	H	1.170966	-0.959359	-0.532988
H198	H	1.420966	-0.709359	-0.282988
H199	H	1.670966	-0.459359	-0.032988
H200	H	1.920966	-0.209359	0.217012
H201	H	1.074600	-0.955358	-0.556154
H202	H	1.324600	-0.705358	-0.306154
H203	H	1.574600	-0.455358	-0.056154
H204	H	1.824600	-0.205358	0.193846
H205	H	1.298798	-0.791833	-0.369981
H206	H	1.548798	-0.541833	-0.119981
H207	H	1.798798	-0.291833	0.130019
H208	H	2.048798	-0.041833	0.380019
N209	N	1.199104	-0.926427	-0.240151
N210	N	1.449104	-0.676427	0.009849
N211	N	1.699104	-0.426427	0.259849
N212	N	1.949104	-0.176427	0.509849
H213	H	1.255095	-0.907720	-0.252094
H214	H	1.505095	-0.657720	-0.002094
H215	H	1.755095	-0.407720	0.247906
H216	H	2.005095	-0.157720	0.497906
H217	H	1.181286	-0.907729	-0.185768
H218	H	1.431286	-0.657729	0.064232
H219	H	1.681286	-0.407729	0.314232
H220	H	1.931286	-0.157729	0.564232
N221	N	1.200231	-0.786343	-0.240195
N222	N	1.450231	-0.536343	0.009805
N223	N	1.700231	-0.286343	0.259805
N224	N	1.950231	-0.036343	0.509805
H225	H	1.242111	-0.753589	-0.266041
H226	H	1.492111	-0.503589	-0.016041
H227	H	1.742111	-0.253589	0.233959
H228	H	1.992111	-0.003589	0.483959
H229	H	1.169930	-0.757358	-0.198068
H230	H	1.419930	-0.507358	0.051932
H231	H	1.669930	-0.257358	0.301932
H232	H	1.919930	-0.007358	0.551932
N233	N	1.060441	-0.785000	-0.278655
N234	N	1.310441	-0.535000	-0.028655
N235	N	1.560441	-0.285000	0.221345
N236	N	1.810441	-0.035000	0.471345
H237	H	1.038206	-0.752000	-0.322303
H238	H	1.288206	-0.502000	-0.072303
H239	H	1.538206	-0.252000	0.177697
H240	H	1.788206	-0.002000	0.427697
H241	H	1.022876	-0.828133	-0.269922
H242	H	1.272876	-0.578133	-0.019922
H243	H	1.522876	-0.328133	0.230078
H244	H	1.772876	-0.078133	0.480078
N245	N	1.019847	-0.927832	-0.432135
N246	N	1.269847	-0.677832	-0.182135
N247	N	1.519847	-0.427832	0.067865
N248	N	1.769847	-0.177832	0.317865
H249	H	1.022225	-0.960978	-0.383310
H250	H	1.272225	-0.710978	-0.133310
H251	H	1.522225	-0.460978	0.116690
H252	H	1.772225	-0.210978	0.366690
H253	H	0.982831	-0.884826	-0.420935
H254	H	1.232831	-0.634826	-0.170935
H255	H	1.482831	-0.384826	0.079065
H256	H	1.732831	-0.134826	0.329065
N257	N	1.311889	-0.925719	-0.350044
N258	N	1.561889	-0.675719	-0.100044
N259	N	1.811889	-0.425719	0.149956
N260	N	2.061889	-0.175719	0.399956
H261	H	1.337236	-0.881943	-0.322185
H262	H	1.587236	-0.631943	-0.072185
H263	H	1.837236	-0.381943	0.177815
H264	H	2.087236	-0.131943	0.427815
H265	H	1.284556	-0.958227	-0.308892
H266	H	1.534556	-0.708227	-0.058892
H267	H	1.784556	-0.458227	0.191108
H268	H	2.034556	-0.208227	0.441108
H269	H	1.079403	-0.919011	-0.285461
H270	H	1.329403	-0.669011	-0.035461
H271	H	1.579403	-0.419011	0.214539
H272	H	1.829403	-0.169011	0.464539
H273	H	1.039568	-0.793203	-0.436373
H274	H	1.289568	-0.543203	-0.186373
H275	H	1.539568	-0.293203	0.063627
H276	H	1.789568	-0.043203	0.313627
N277	N	1.278326	-0.927439	-0.490975
N278	N	1.528326	-0.677439	-0.240975
N279	N	1.778326	-0.427439	0.009025
N280	N	2.028326	-0.177439	0.259025
H281	H	1.235899	-0.961185	-0.514233
H282	H	1.485899	-0.711185	-0.264233
H283	H	1.735899	-0.461185	-0.014233
H284	H	1.985899	-0.211185	0.235767
H285	H	1.287506	-0.884453	-0.528628
H286	H	1.537506	-0.634453	-0.278628
H287	H	1.787506	-0.384453	-0.028628
H288	H	2.037506	-0.134453	0.221372
N289	N	1.273023	-0.786278	-0.494997
N290	N	1.523023	-0.536278	-0.244997
N291	N	1.773023	-0.286278	0.005003
N292	N	2.023023	-0.036278	0.255003
H293	H	1.228645	-0.754064	-0.517117
H294	H	1.478645	-0.504064	-0.267117
H295	H	1.728645	-0.254064	-0.017117
H296	H	1.978645	-0.004064	0.232883
H297	H	1.324453	-0.756732	-0.491534
H298	H	1.574453	-0.506732	-0.241534
H299	H	1.824453	-0.256732	0.008466
H300	H	2.074453	-0.006732	0.258466
