data_functionalizedCrystal
_audit_creation_method	'MofGen! by Chris Wilmer'
_symmetry_space_group_name_H-M	'P1'
_symmetry_Int_Tables_number	1
_symmetry_cell_setting	triclinic
loop_
_symmetry_equiv_pos_as_xyz
  x,y,z
_cell_length_a	27.732048
_cell_length_b	27.732048
_cell_length_c	26.809956
_cell_angle_alpha	90.000636
_cell_angle_beta	90.003258
_cell_angle_gamma	82.642655
loop_
_atom_site_label
_atom_site_type_symbol
_atom_site_fract_x
_atom_site_fract_y
_atom_site_fract_z
O1	O	-0.640931	-0.057510	-0.041421
O2	O	-0.140931	0.442490	0.458579
O3	O	-0.500138	-0.066256	-0.041436
O4	O	-0.000138	0.433744	0.458564
O5	O	-0.574907	0.008514	-0.041419
O6	O	-0.074907	0.508514	0.458581
O7	O	-0.566162	-0.132280	-0.041439
O8	O	-0.066162	0.367720	0.458561
O9	O	-0.574893	0.008502	0.041541
O10	O	-0.074893	0.508502	0.541541
O11	O	-0.500123	-0.066267	0.041523
O12	O	-0.000123	0.433733	0.541523
O13	O	-0.640917	-0.057522	0.041539
O14	O	-0.140917	0.442478	0.541539
Zn15	Zn	-0.570518	-0.061896	0.054702
Zn16	Zn	-0.070518	0.438104	0.554702
Zn17	Zn	-0.570536	-0.061881	-0.054600
Zn18	Zn	-0.070536	0.438119	0.445400
O19	O	-0.566147	-0.132291	0.041521
O20	O	-0.066147	0.367709	0.541521
C21	C	-0.574716	0.026515	0.000062
C22	C	-0.074716	0.526515	0.500062
C23	C	-0.574164	0.080170	0.000066
C24	C	-0.074164	0.580170	0.500066
C25	C	-0.482124	-0.066078	0.000041
C26	C	0.017876	0.433922	0.500041
C27	C	-0.428469	-0.065525	0.000036
C28	C	0.071531	0.434475	0.500036
C29	C	-0.658931	-0.057699	0.000060
C30	C	-0.158931	0.442301	0.500060
C31	C	-0.712586	-0.058252	0.000062
C32	C	-0.212586	0.441748	0.500062
C33	C	-0.089654	-0.106229	0.000051
C34	C	0.410346	0.393771	0.500051
C35	C	0.112006	-0.104178	0.000056
C36	C	0.612006	0.395822	0.500056
O37	O	0.143262	-0.141398	0.000073
O38	O	0.643262	0.358602	0.500073
N39	N	0.131130	-0.059843	0.000062
N40	N	0.631130	0.440157	0.500062
C41	C	0.099835	-0.016017	0.000069
C42	C	0.599835	0.483983	0.500069
O43	O	0.120728	0.021740	0.000079
O44	O	0.620728	0.521740	0.500079
C45	C	-0.101824	-0.018068	0.000068
C46	C	0.398176	0.481932	0.500068
C47	C	-0.120944	-0.062407	0.000057
C48	C	0.379056	0.437593	0.500057
C49	C	-0.108775	-0.150563	0.000042
C50	C	0.391225	0.349437	0.500042
C51	C	-0.159187	-0.151076	0.000038
C52	C	0.340813	0.348924	0.500038
C53	C	-0.190477	-0.107253	0.000044
C54	C	0.309523	0.392747	0.500044
C55	C	-0.171356	-0.062919	0.000054
C56	C	0.328644	0.437081	0.500054
C57	C	-0.133117	0.025757	0.000079
C58	C	0.366883	0.525757	0.500079
C59	C	-0.183535	0.025240	0.000080
C60	C	0.316465	0.525240	0.500080
C61	C	-0.202655	-0.019098	0.000069
C62	C	0.297345	0.480902	0.500069
C63	C	-0.253059	-0.019609	0.000056
C64	C	0.246941	0.480391	0.500056
N65	N	-0.272183	-0.063944	0.000050
N66	N	0.227817	0.436056	0.500050
C67	C	-0.240892	-0.107766	0.000044
C68	C	0.259108	0.392234	0.500044
C69	C	0.205709	-0.014943	0.000069
C70	C	0.705709	0.485057	0.500069
C71	C	0.256124	-0.014430	0.000068
C72	C	0.756124	0.485570	0.500068
C73	C	0.268291	-0.102591	0.000056
C74	C	0.768291	0.397409	0.500056
C75	C	0.217876	-0.103104	0.000053
C76	C	0.717876	0.396896	0.500053
C77	C	0.186585	-0.059278	0.000063
C78	C	0.686585	0.440722	0.500063
C79	C	-0.346761	-0.108839	0.000036
C80	C	0.153239	0.391161	0.500036
C81	C	-0.397178	-0.109347	0.000030
C82	C	0.102822	0.390653	0.500030
C83	C	-0.409341	-0.021186	0.000044
C84	C	0.090659	0.478814	0.500044
C85	C	-0.358929	-0.020678	0.000048
C86	C	0.141071	0.479322	0.500048
C87	C	-0.327639	-0.064508	0.000045
C88	C	0.172361	0.435492	0.500045
O89	O	-0.284343	0.017592	0.000045
O90	O	0.215657	0.517592	0.500045
O91	O	-0.261794	-0.145518	0.000045
O92	O	0.238206	0.354482	0.500045
C93	C	-0.039242	-0.105716	0.000055
C94	C	0.460758	0.394284	0.500055
C95	C	-0.020120	-0.061382	0.000065
C96	C	0.479880	0.438618	0.500065
C97	C	-0.051411	-0.017560	0.000071
C98	C	0.448589	0.482440	0.500071
C99	C	0.030294	-0.060869	0.000065
C100	C	0.530294	0.439131	0.500065
C101	C	0.061585	-0.104691	0.000059
C102	C	0.561585	0.395309	0.500059
C103	C	0.042461	-0.149026	0.000053
C104	C	0.542461	0.350974	0.500053
C105	C	-0.007951	-0.149539	0.000049
C106	C	0.492049	0.350461	0.500049
C107	C	-0.032287	0.026775	0.000077
C108	C	0.467713	0.526775	0.500077
C109	C	0.018125	0.027284	0.000080
C110	C	0.518125	0.527284	0.500080
C111	C	0.049416	-0.016538	0.000074
C112	C	0.549416	0.483462	0.500074
C113	C	-0.566338	-0.150292	0.000039
C114	C	-0.066338	0.349708	0.500039
C115	C	-0.566891	-0.203947	0.000031
C116	C	-0.066891	0.296053	0.500031
N117	N	-0.570509	-0.061906	0.129298
N118	N	-0.070509	0.438094	0.629298
C119	C	-0.614867	0.418985	0.000045
C120	C	-0.114867	0.918985	0.500045
C121	C	-0.612816	0.620645	0.000038
C122	C	-0.112816	1.120645	0.500038
O123	O	-0.650037	0.651900	0.000021
O124	O	-0.150037	1.151900	0.500021
N125	N	-0.568481	0.639768	0.000034
N126	N	-0.068481	1.139768	0.500034
C127	C	-0.524656	0.608474	0.000028
C128	C	-0.024656	1.108474	0.500028
O129	O	-0.486899	0.629367	0.000019
O130	O	0.013101	1.129367	0.500019
C131	C	-0.526707	0.406815	0.000031
C132	C	-0.026707	0.906815	0.500031
C133	C	-0.571045	0.387694	0.000041
C134	C	-0.071045	0.887694	0.500041
C135	C	-0.659202	0.399864	0.000054
C136	C	-0.159202	0.899864	0.500054
C137	C	-0.659714	0.349452	0.000059
C138	C	-0.159714	0.849452	0.500059
C139	C	-0.615892	0.318161	0.000054
C140	C	-0.115892	0.818161	0.500054
C141	C	-0.571557	0.337282	0.000045
C142	C	-0.071557	0.837282	0.500045
C143	C	-0.482882	0.375521	0.000022
C144	C	0.017118	0.875521	0.500022
C145	C	-0.483399	0.325104	0.000021
C146	C	0.016601	0.825104	0.500021
C147	C	-0.527737	0.305983	0.000031
C148	C	-0.027737	0.805983	0.500031
C149	C	-0.528247	0.255580	0.000045
C150	C	-0.028247	0.755580	0.500045
N151	N	-0.572583	0.236456	0.000050
N152	N	-0.072583	0.736456	0.500050
C153	C	-0.616405	0.267747	0.000054
C154	C	-0.116405	0.767747	0.500054
C155	C	-0.523582	0.714348	0.000027
C156	C	-0.023582	1.214348	0.500027
C157	C	-0.523069	0.764762	0.000027
C158	C	-0.023069	1.264762	0.500027
C159	C	-0.611230	0.776930	0.000036
C160	C	-0.111230	1.276930	0.500036
C161	C	-0.611742	0.726514	0.000040
C162	C	-0.111742	1.226514	0.500040
C163	C	-0.567917	0.695224	0.000031
C164	C	-0.067917	1.195224	0.500031
C165	C	-0.617477	0.161878	0.000064
C166	C	-0.117477	0.661878	0.500064
C167	C	-0.617986	0.111461	0.000071
C168	C	-0.117986	0.611461	0.500071
C169	C	-0.529825	0.099298	0.000059
C170	C	-0.029825	0.599298	0.500059
C171	C	-0.529316	0.149710	0.000055
C172	C	-0.029316	0.649710	0.500055
C173	C	-0.573147	0.180999	0.000056
C174	C	-0.073147	0.680999	0.500056
O175	O	-0.491047	0.224296	0.000057
O176	O	0.008953	0.724296	0.500057
O177	O	-0.654156	0.246844	0.000053
O178	O	-0.154156	0.746844	0.500053
C179	C	-0.614355	0.469397	0.000041
C180	C	-0.114355	0.969397	0.500041
C181	C	-0.570021	0.488518	0.000032
C182	C	-0.070021	0.988518	0.500032
C183	C	-0.526198	0.457228	0.000027
C184	C	-0.026198	0.957228	0.500027
C185	C	-0.569508	0.538933	0.000032
C186	C	-0.069508	1.038933	0.500032
C187	C	-0.613330	0.570223	0.000036
C188	C	-0.113330	1.070223	0.500036
C189	C	-0.657665	0.551100	0.000041
C190	C	-0.157665	1.051100	0.500041
C191	C	-0.658177	0.500688	0.000045
C192	C	-0.158177	1.000688	0.500045
C193	C	-0.481863	0.476351	0.000023
C194	C	0.018137	0.976351	0.500023
C195	C	-0.481355	0.526764	0.000019
C196	C	0.018645	1.026764	0.500019
C197	C	-0.525177	0.558054	0.000023
C198	C	-0.025177	1.058054	0.500023
N199	N	-0.570549	-0.061867	-0.129196
N200	N	-0.070549	0.438133	0.370804
C201	C	-0.603640	-0.028781	0.473932
C202	C	-0.103640	0.471219	0.973932
C203	C	-0.603652	-0.028774	0.682810
C204	C	-0.103652	0.471226	1.182810
O205	O	-0.631801	-0.000613	0.709820
O206	O	-0.131801	0.499387	1.209820
N207	N	-0.570539	-0.061870	0.708925
N208	N	-0.070539	0.438130	1.208925
C209	C	-0.537419	-0.094969	0.682818
C210	C	-0.037419	0.405031	1.182818
O211	O	-0.509252	-0.123116	0.709824
O212	O	-0.009252	0.376884	1.209824
C213	C	-0.537406	-0.094974	0.473941
C214	C	-0.037406	0.405026	0.973941
C215	C	-0.570524	-0.061878	0.447829
C216	C	-0.070524	0.438122	0.947829
C217	C	-0.636755	0.004312	0.447819
C218	C	-0.136755	0.504312	0.947819
C219	C	-0.636754	0.004308	0.395603
C220	C	-0.136754	0.504308	0.895603
C221	C	-0.603637	-0.028789	0.369500
C222	C	-0.103637	0.471211	0.869500
C223	C	-0.570522	-0.061882	0.395612
C224	C	-0.070522	0.438118	0.895612
C225	C	-0.504284	-0.128070	0.447835
C226	C	-0.004284	0.371930	0.947835
C227	C	-0.504283	-0.128067	0.395613
C228	C	-0.004283	0.371933	0.895613
C229	C	-0.537401	-0.094972	0.369500
C230	C	-0.037401	0.405028	0.869500
C231	C	-0.537405	-0.094983	0.317293
C232	C	-0.037405	0.405017	0.817293
N233	N	-0.570517	-0.061887	0.291177
N234	N	-0.070517	0.438113	0.791177
C235	C	-0.603633	-0.028790	0.317281
C236	C	-0.103633	0.471210	0.817281
C237	C	-0.537429	-0.094965	0.792481
C238	C	-0.037429	0.405035	1.292481
C239	C	-0.537433	-0.094964	0.844700
C240	C	-0.037433	0.405036	1.344700
C241	C	-0.603665	-0.028768	0.844689
C242	C	-0.103665	0.471232	1.344689
C243	C	-0.603663	-0.028772	0.792469
C244	C	-0.103663	0.471228	1.292469
C245	C	-0.570542	-0.061868	0.766366
C246	C	-0.070542	0.438132	1.266366
C247	C	-0.603628	-0.028801	0.207623
C248	C	-0.103628	0.471199	0.707623
C249	C	-0.603625	-0.028809	0.155402
C250	C	-0.103625	0.471191	0.655402
C251	C	-0.537392	-0.095003	0.155418
C252	C	-0.037392	0.404997	0.655418
C253	C	-0.537396	-0.094997	0.207635
C254	C	-0.037396	0.405003	0.707635
C255	C	-0.570516	-0.061892	0.233735
C256	C	-0.070516	0.438108	0.733735
O257	O	-0.509266	-0.123126	0.290250
O258	O	-0.009266	0.376874	0.790250
O259	O	-0.631789	-0.000640	0.290266
O260	O	-0.131789	0.499360	0.790266
C261	C	-0.603642	-0.028777	0.526149
C262	C	-0.103642	0.471223	1.026149
C263	C	-0.570527	-0.061870	0.552261
C264	C	-0.070527	0.438130	1.052261
C265	C	-0.537410	-0.094968	0.526158
C266	C	-0.037410	0.405032	1.026158
C267	C	-0.570531	-0.061870	0.604480
C268	C	-0.070531	0.438130	1.104480
C269	C	-0.603647	-0.028773	0.630584
C270	C	-0.103647	0.471227	1.130584
C271	C	-0.636759	0.004324	0.604468
C272	C	-0.136759	0.504324	1.104468
C273	C	-0.636758	0.004320	0.552252
C274	C	-0.136758	0.504320	1.052252
C275	C	-0.504298	-0.128064	0.552273
C276	C	-0.004298	0.371936	1.052273
C277	C	-0.504303	-0.128058	0.604489
C278	C	-0.004303	0.371942	1.104489
C279	C	-0.537419	-0.094961	0.630593
C280	C	-0.037419	0.405039	1.130593
H281	H	-0.412743	-0.145454	0.000021
H282	H	0.087257	0.354546	0.500021
C283	C	-0.668070	0.225622	-0.042580
C284	C	-0.168070	0.725622	0.457420
C285	C	-0.665656	0.196265	0.000068
C286	C	-0.165656	0.696265	0.500068
H287	H	-0.697814	0.246849	-0.042576
H288	H	-0.197814	0.746849	0.457424
H289	H	-0.641600	0.244229	-0.042583
H290	H	-0.141600	0.744229	0.457417
H291	H	-0.666440	0.205695	-0.071506
H292	H	-0.166440	0.705695	0.428494
H293	H	-0.667282	0.216192	0.028993
H294	H	-0.167282	0.716192	0.528993
H295	H	-0.692133	0.177656	0.000075
H296	H	-0.192133	0.677656	0.500075
H297	H	-0.174750	-0.187180	0.000029
H298	H	0.325250	0.312820	0.500029
H299	H	-0.630630	-0.001820	0.865951
H300	H	-0.130630	0.498180	1.365951
C301	C	-0.101826	-0.237754	0.000021
C302	C	0.398174	0.262246	0.500021
C303	C	-0.074385	-0.198739	0.000031
C304	C	0.425615	0.301261	0.500031
H305	H	-0.080596	-0.267497	0.000008
H306	H	0.419404	0.232503	0.500008
H307	H	-0.121736	-0.236124	0.028951
H308	H	0.378264	0.263876	0.528951
H309	H	-0.121749	-0.236105	-0.028909
H310	H	0.378251	0.263895	0.471091
H311	H	-0.054464	-0.200386	0.028962
H312	H	0.445536	0.299614	0.528962
H313	H	-0.054466	-0.200370	-0.028902
H314	H	0.445534	0.299630	0.471098
C315	C	-0.665770	0.088205	0.620547
C316	C	-0.165770	0.588205	1.120547
C317	C	-0.673159	0.040707	0.633168
C318	C	-0.173159	0.540707	1.133168
H319	H	-0.688241	0.110666	0.638265
H320	H	-0.188241	0.610666	1.138265
H321	H	-0.633552	0.093225	0.629105
H322	H	-0.133552	0.593225	1.129105
H323	H	-0.670515	0.092937	0.585710
H324	H	-0.170515	0.592937	1.085710
H325	H	-0.668412	0.035974	0.668004
H326	H	-0.168412	0.535974	1.168004
H327	H	-0.705385	0.035685	0.624613
H328	H	-0.205385	0.535685	1.124613
H329	H	-0.694282	0.485125	0.000053
H330	H	-0.194282	0.985125	0.500053
H331	H	-0.663720	0.031258	0.374345
H332	H	-0.163720	0.531258	0.874345
C333	C	0.141956	0.035638	-0.042572
C334	C	0.641956	0.535638	0.457428
C335	C	0.171318	0.033234	0.000074
C336	C	0.671318	0.533234	0.500074
H337	H	0.120725	0.065380	-0.042568
H338	H	0.620725	0.565380	0.457432
H339	H	0.161875	0.034006	-0.071496
H340	H	0.661875	0.534006	0.428504
H341	H	0.123349	0.009162	-0.042568
H342	H	0.623349	0.509162	0.457432
H343	H	0.189928	0.059708	0.000068
H344	H	0.689928	0.559708	0.500068
H345	H	0.151396	0.034871	0.029005
H346	H	0.651396	0.534871	0.529005
C347	C	-0.432815	0.261351	0.042660
C348	C	0.067185	0.761351	0.542660
C349	C	-0.435224	0.290709	0.000013
C350	C	0.064776	0.790709	0.500013
H351	H	-0.403076	0.240117	0.042653
H352	H	0.096924	0.740117	0.542653
H353	H	-0.434440	0.281273	0.071583
H354	H	0.065560	0.781273	0.571583
H355	H	-0.459294	0.242747	0.042661
H356	H	0.040706	0.742747	0.542661
H357	H	-0.408747	0.309316	0.000014
H358	H	0.091253	0.809316	0.500014
H359	H	-0.433594	0.270785	-0.028918
H360	H	0.066406	0.770785	0.471082
C361	C	0.067756	0.079004	0.042739
C362	C	0.567756	0.579004	0.542739
C363	C	0.039141	0.076024	0.000090
C364	C	0.539141	0.576024	0.500090
H365	H	0.080731	0.109091	0.042745
H366	H	0.580731	0.609091	0.542745
H367	H	0.048341	0.076966	0.071661
H368	H	0.548341	0.576966	0.571661
H369	H	0.093608	0.052978	0.042730
H370	H	0.593608	0.552978	0.542730
H371	H	0.013287	0.102048	0.000101
H372	H	0.513287	0.602048	0.500101
H373	H	0.058557	0.078067	-0.028839
H374	H	0.558557	0.578067	0.471161
C375	C	-0.406062	0.531901	-0.042645
C376	C	0.093938	1.031901	0.457355
C377	C	-0.432614	0.547778	0.000007
C378	C	0.067386	1.047778	0.500007
H379	H	-0.375974	0.544876	-0.042656
H380	H	0.124026	1.044876	0.457344
H381	H	-0.400101	0.497402	-0.042637
H382	H	0.099899	0.997402	0.457363
H383	H	-0.424103	0.542665	-0.071568
H384	H	0.075897	1.042665	0.428432
H385	H	-0.414575	0.537010	0.028930
H386	H	0.085425	1.037010	0.528930
H387	H	-0.438573	0.582284	0.000004
H388	H	0.061427	1.082284	0.500004
H389	H	-0.477330	-0.155015	0.531024
H390	H	0.022670	0.344985	1.031024
C391	C	-0.744864	0.558077	0.000052
C392	C	-0.244864	1.058077	0.500052
C393	C	-0.705836	0.585501	0.000045
C394	C	-0.205836	1.085501	0.500045
H395	H	-0.774600	0.579317	0.000056
H396	H	-0.274600	1.079317	0.500056
H397	H	-0.743238	0.538160	-0.028874
H398	H	-0.243238	1.038160	0.471126
H399	H	-0.743227	0.538161	0.028985
H400	H	-0.243227	1.038161	0.528985
H401	H	-0.707471	0.605414	-0.028890
H402	H	-0.207471	1.105414	0.471110
H403	H	-0.707463	0.605426	0.028974
H404	H	-0.207463	1.105426	0.528974
H405	H	-0.057760	0.062462	0.000083
H406	H	0.442240	0.562462	0.500083
H407	H	-0.209009	0.060929	0.000089
H408	H	0.290991	0.560929	0.500089
H409	H	0.293777	-0.138273	0.000051
H410	H	0.793777	0.361727	0.500051
H411	H	-0.695819	0.333889	0.000065
H412	H	-0.195819	0.833889	0.500065
H413	H	0.271687	0.021674	0.000069
H414	H	0.771687	0.521674	0.500069
C415	C	0.234978	-0.190193	0.000042
C416	C	0.734978	0.309807	0.500042
C417	C	0.196861	-0.151841	0.000047
C418	C	0.696861	0.348159	0.500047
H419	H	0.222005	-0.220282	0.000042
H420	H	0.722005	0.279718	0.500042
H421	H	0.254383	-0.188154	-0.028887
H422	H	0.754383	0.311846	0.471113
H423	H	0.254392	-0.188157	0.028973
H424	H	0.754392	0.311843	0.528973
H425	H	0.177449	-0.153875	-0.028885
H426	H	0.677449	0.346125	0.471115
H427	H	0.177448	-0.153881	0.028979
H428	H	0.677448	0.346119	0.528979
H429	H	-0.446177	0.450879	0.000018
H430	H	0.053823	0.950879	0.500018
C431	C	-0.150229	0.112845	0.000110
C432	C	0.349771	0.612845	0.500110
C433	C	-0.112109	0.074495	0.000098
C434	C	0.387891	0.574495	0.500098
H435	H	-0.137259	0.142935	0.000126
H436	H	0.362741	0.642935	0.500126
H437	H	-0.169637	0.110817	-0.028821
H438	H	0.330363	0.610817	0.471179
H439	H	-0.169639	0.110793	0.029039
H440	H	0.330361	0.610793	0.529039
H441	H	-0.092701	0.076545	-0.028833
H442	H	0.407299	0.576545	0.471167
H443	H	-0.092693	0.076524	0.029032
H444	H	0.407307	0.576524	0.529032
C445	C	-0.705080	0.128560	0.000076
C446	C	-0.205080	0.628560	0.500076
C447	C	-0.666726	0.090444	0.000077
C448	C	-0.166726	0.590444	0.500077
H449	H	-0.735168	0.115585	0.000076
H450	H	-0.235168	0.615585	0.500076
H451	H	-0.703042	0.147970	0.029003
H452	H	-0.203042	0.647970	0.529003
H453	H	-0.703045	0.147969	-0.028857
H454	H	-0.203045	0.647969	0.471143
H455	H	-0.668759	0.071037	0.029012
H456	H	-0.168759	0.571037	0.529012
H457	H	-0.668765	0.071026	-0.028852
H458	H	-0.168765	0.571026	0.471148
H459	H	-0.343360	0.015426	0.000049
H460	H	0.156640	0.515426	0.500049
H461	H	-0.477317	-0.155019	0.469089
H462	H	0.022683	0.344981	0.969089
H463	H	-0.647846	0.710950	0.000047
H464	H	-0.147846	1.210950	0.500047
C465	C	-0.454854	0.073396	-0.042602
C466	C	0.045146	0.573396	0.457398
C467	C	-0.481657	0.064897	0.000050
C468	C	0.018343	0.564897	0.500050
H469	H	-0.425116	0.052159	-0.042608
H470	H	0.074884	0.552159	0.457392
H471	H	-0.473059	0.067636	-0.071522
H472	H	0.026941	0.567636	0.428478
H473	H	-0.448202	0.106157	-0.042598
H474	H	0.051798	0.606157	0.457402
H475	H	-0.488312	0.032136	0.000044
H476	H	0.011688	0.532136	0.500044
H477	H	-0.463447	0.070653	0.028977
H478	H	0.036553	0.570653	0.528977
C479	C	-0.471964	-0.160392	0.839454
C480	C	0.028036	0.339608	1.339454
C481	C	-0.501031	-0.131346	0.873400
C482	C	-0.001031	0.368654	1.373400
H483	H	-0.449487	-0.182850	0.857172
H484	H	0.050513	0.317150	1.357172
H485	H	-0.491953	-0.177641	0.819087
H486	H	0.008047	0.322359	1.319087
H487	H	-0.454732	-0.140382	0.819087
H488	H	0.045268	0.359618	1.319087
H489	H	-0.518266	-0.151356	0.893764
H490	H	-0.018266	0.348644	1.393764
H491	H	-0.481040	-0.114096	0.893776
H492	H	0.018960	0.385904	1.393776
C493	C	-0.669092	0.036627	0.160643
C494	C	-0.169092	0.536627	0.660643
C495	C	-0.640028	0.007574	0.126699
C496	C	-0.140028	0.507574	0.626699
H497	H	-0.691562	0.059089	0.142924
H498	H	-0.191562	0.559089	0.642924
H499	H	-0.686327	0.016626	0.181009
H500	H	-0.186327	0.516626	0.681009
H501	H	-0.649096	0.053875	0.181012
H502	H	-0.149096	0.553875	0.681012
H503	H	-0.660024	-0.009676	0.106333
H504	H	-0.160024	0.490324	0.606333
H505	H	-0.622792	0.027578	0.106326
H506	H	-0.122792	0.527578	0.606326
H507	H	-0.630630	-0.001822	0.771211
H508	H	-0.130630	0.498178	1.271211
C509	C	-0.614625	0.037074	0.266333
C510	C	-0.114625	0.537074	0.766333
C511	C	-0.640034	0.007587	0.236309
C512	C	-0.140034	0.507587	0.736309
H513	H	-0.637103	0.059538	0.284040
H514	H	-0.137103	0.559538	0.784040
H515	H	-0.594911	0.017368	0.289361
H516	H	-0.094911	0.517368	0.789361
H517	H	-0.594636	0.054320	0.245958
H518	H	-0.094636	0.554320	0.745958
H519	H	-0.660021	-0.009662	0.256684
H520	H	-0.160021	0.490338	0.756684
H521	H	-0.659757	0.027296	0.213278
H522	H	-0.159757	0.527296	0.713278
H523	H	-0.694889	0.425336	0.000056
H524	H	-0.194889	0.925336	0.500056
C525	C	-0.473108	0.029382	-0.042591
C526	C	0.026892	0.529382	0.457409
C527	C	-0.443744	0.026980	0.000053
C528	C	0.056256	0.526980	0.500053
H529	H	-0.494350	0.059117	-0.042580
H530	H	0.005650	0.559117	0.457420
H531	H	-0.453190	0.027763	-0.071516
H532	H	0.046810	0.527763	0.428484
H533	H	-0.491704	0.002898	-0.042593
H534	H	0.008296	0.502898	0.457407
H535	H	-0.425146	0.053463	0.000053
H536	H	0.074854	0.553463	0.500053
H537	H	-0.463664	0.028604	0.028985
H538	H	0.036336	0.528604	0.528985
H539	H	-0.663722	0.031266	0.469068
H540	H	-0.163722	0.531266	0.969068
C541	C	-0.526439	-0.160834	0.733767
C542	C	-0.026439	0.339166	1.233767
C543	C	-0.501024	-0.131354	0.763794
C544	C	-0.001024	0.368646	1.263794
H545	H	-0.503964	-0.183298	0.716057
H546	H	-0.003964	0.316702	1.216057
H547	H	-0.546430	-0.178076	0.754137
H548	H	-0.046430	0.321924	1.254137
H549	H	-0.546152	-0.141120	0.710738
H550	H	-0.046152	0.358880	1.210738
H551	H	-0.481313	-0.151067	0.786826
H552	H	0.018687	0.348933	1.286826
H553	H	-0.481024	-0.114111	0.743422
H554	H	0.018976	0.385889	1.243422
C555	C	-0.438814	-0.193498	0.400874
C556	C	0.061186	0.306502	0.900874
C557	C	-0.467877	-0.164452	0.366922
C558	C	0.032123	0.335548	0.866922
H559	H	-0.416342	-0.215962	0.383161
H560	H	0.083658	0.284038	0.883161
H561	H	-0.421581	-0.173493	0.421239
H562	H	0.078419	0.326507	0.921239
H563	H	-0.458810	-0.210744	0.421242
H564	H	0.041190	0.289256	0.921242
H565	H	-0.447881	-0.147203	0.346556
H566	H	0.052119	0.352797	0.846556
H567	H	-0.485111	-0.184460	0.346547
H568	H	0.014889	0.315540	0.846547
H569	H	-0.510430	-0.121952	0.134157
H570	H	-0.010430	0.378048	0.634157
C571	C	-0.471923	-0.160423	0.202398
C572	C	0.028077	0.339577	0.702398
C573	C	-0.500991	-0.131373	0.236341
C574	C	-0.000991	0.368627	0.736341
H575	H	-0.449443	-0.182875	0.220119
H576	H	0.050557	0.317125	0.720119
H577	H	-0.491912	-0.177679	0.182037
H578	H	0.008088	0.322321	0.682037
H579	H	-0.454695	-0.140415	0.182025
H580	H	0.045305	0.359585	0.682025
H581	H	-0.518222	-0.151381	0.256712
H582	H	-0.018222	0.348619	0.756712
H583	H	-0.481000	-0.114116	0.256711
H584	H	0.019000	0.385884	0.756711
H585	H	-0.663725	0.031269	0.530995
H586	H	-0.163725	0.531269	1.030995
C587	C	-0.477605	0.199345	-0.042602
C588	C	0.022395	0.699345	0.457398
C589	C	-0.480582	0.170734	0.000049
C590	C	0.019418	0.670734	0.500049
H591	H	-0.447519	0.212324	-0.042606
H592	H	0.052481	0.712324	0.457394
H593	H	-0.479639	0.179925	-0.071522
H594	H	0.020361	0.679925	0.428478
H595	H	-0.503634	0.225194	-0.042597
H596	H	-0.003634	0.725194	0.457403
H597	H	-0.454555	0.144883	0.000042
H598	H	0.045445	0.644883	0.500042
H599	H	-0.478543	0.190155	0.028977
H600	H	0.021457	0.690155	0.528977
H601	H	-0.646911	0.802415	0.000040
H602	H	-0.146911	1.302415	0.500040
H603	H	-0.477335	-0.155012	0.625747
H604	H	0.022665	0.344988	1.125747
H605	H	-0.321291	-0.144530	0.000035
H606	H	0.178709	0.355470	0.500035
H607	H	-0.023514	-0.185643	0.000042
H608	H	0.476486	0.314357	0.500042
H609	H	-0.486964	0.780325	0.000028
H610	H	0.013036	1.280325	0.500028
H611	H	-0.487892	0.688875	0.000020
H612	H	0.012108	1.188875	0.500020
C613	C	0.125149	-0.187377	0.000055
C614	C	0.625149	0.312623	0.500055
C615	C	0.076863	-0.197197	0.000049
C616	C	0.576863	0.302803	0.500049
H617	H	0.146387	-0.217114	0.000057
H618	H	0.646387	0.282886	0.500057
H619	H	0.130905	-0.169181	-0.028871
H620	H	0.630905	0.330819	0.471129
H621	H	0.130902	-0.169182	0.028989
H622	H	0.630902	0.330818	0.528989
H623	H	0.071108	-0.215389	-0.028887
H624	H	0.571108	0.284611	0.471113
H625	H	0.071104	-0.215400	0.028977
H626	H	0.571104	0.284600	0.528977
H627	H	-0.446777	0.391080	0.000011
H628	H	0.053223	0.891080	0.500011
