data_functionalizedCrystal
_audit_creation_method	'MofGen! by Chris Wilmer'
_symmetry_space_group_name_H-M	'P1'
_symmetry_Int_Tables_number	1
_symmetry_cell_setting	triclinic
loop_
_symmetry_equiv_pos_as_xyz
  x,y,z
_cell_length_a	13.262390
_cell_length_b	11.804783
_cell_length_c	8.559649
_cell_angle_alpha	75.357563
_cell_angle_beta	77.395171
_cell_angle_gamma	92.341250
loop_
_atom_site_label
_atom_site_type_symbol
_atom_site_fract_x
_atom_site_fract_y
_atom_site_fract_z
O1	O	1.288913	0.516446	0.064257
O2	O	0.997249	0.421988	0.115236
O3	O	1.168777	0.477537	-0.145106
O4	O	1.117385	0.460896	0.324599
O5	O	1.200210	0.289677	-0.090239
O6	O	1.028682	0.234127	0.170102
O7	O	1.320346	0.328585	0.119123
Cu8	Cu	1.177384	0.264203	0.149622
Cu9	Cu	1.140211	0.486370	0.084737
O10	O	1.148818	0.273036	0.379465
C11	C	0.975972	0.316077	0.144857
C12	C	0.865744	0.280379	0.151359
C13	C	0.486499	0.589382	0.050030
C14	C	0.590065	0.622924	0.043913
C15	C	0.658989	0.537291	0.070775
C16	C	0.624339	0.418110	0.103754
C17	C	0.520765	0.384565	0.109859
C18	C	0.693255	0.332473	0.130603
C19	C	0.658604	0.213292	0.163582
C20	C	0.555040	0.179753	0.169687
C21	C	0.486115	0.265386	0.142825
C22	C	0.796829	0.366018	0.124498
C23	C	0.831094	0.161201	0.184326
C24	C	0.727528	0.127659	0.190443
N25	N	1.203537	0.107945	0.195258
C26	C	1.051229	-0.315404	-0.070508
C27	C	1.031426	-0.197166	-0.105040
C28	C	1.074452	-0.120883	-0.029968
C29	C	1.137285	-0.162849	0.079640
C30	C	1.157097	-0.281097	0.114165
C31	C	1.180319	-0.086575	0.154706
C32	C	1.243152	-0.128542	0.264314
C33	C	1.262960	-0.246779	0.298833
C34	C	1.219934	-0.323062	0.223761
C35	C	1.160507	0.031673	0.120181
C36	C	1.266375	0.065980	0.304854
C37	C	1.286178	-0.052258	0.339385
C38	C	1.341623	0.434498	0.089501
C39	C	1.451850	0.470204	0.082997
C40	C	1.188388	0.384871	-0.177544
C41	C	1.199980	0.388631	-0.355941
N42	N	1.114067	0.642631	0.039088
C43	C	1.129207	0.365705	0.411903
C44	C	1.117614	0.361952	0.590298
H45	H	0.401781	0.238082	0.147810
O46	O	1.022823	0.331418	-0.302010
C47	C	0.953139	0.411432	-0.354755
H48	H	0.981718	0.454876	-0.493665
H49	H	0.948457	0.481741	-0.284129
C50	C	0.809638	0.291815	-0.149520
C51	C	0.844735	0.345165	-0.320134
H52	H	0.742768	0.250941	-0.128158
H53	H	0.856585	0.237910	-0.113980
H54	H	0.805745	0.350416	-0.090685
H55	H	0.848640	0.286564	-0.378964
H56	H	0.797786	0.399059	-0.355684
O57	O	1.099371	0.072526	0.013928
C58	C	1.012556	0.116469	0.097944
H59	H	1.031488	0.141288	0.209436
H60	H	0.943537	0.046045	0.142368
C61	C	0.962134	0.195591	-0.157836
C62	C	0.985389	0.226084	-0.020907
H63	H	0.945371	0.263203	-0.231149
H64	H	1.020620	0.165982	-0.214439
H65	H	0.904621	0.136902	-0.120794
H66	H	1.042909	0.284760	-0.057948
H67	H	0.926911	0.255705	0.035688
H68	H	0.526836	0.082709	0.196511
H69	H	1.279373	0.414334	-0.446398
H70	H	0.825030	0.463056	0.097649
O71	O	0.694024	0.011835	0.222557
C72	C	0.777064	-0.056561	0.244913
H73	H	0.837888	-0.005221	0.283047
H74	H	0.813577	-0.077932	0.123580
C75	C	0.661583	-0.234814	0.334883
C76	C	0.736284	-0.171760	0.381734
H77	H	0.636428	-0.305877	0.419275
H78	H	0.605637	-0.188735	0.319816
H79	H	0.692021	-0.252611	0.233771
H80	H	0.705842	-0.153951	0.482833
H81	H	0.792224	-0.217839	0.396822
O82	O	0.759547	0.570068	0.064853
C83	C	0.775358	0.693623	0.029946
H84	H	0.697987	0.729701	0.067770
H85	H	0.809513	0.732751	-0.108797
C86	C	0.946036	0.682683	0.081683
C87	C	0.851009	0.726994	0.128152
H88	H	0.992705	0.703270	0.142254
H89	H	0.935386	0.599442	0.105195
H90	H	0.974485	0.715295	-0.033937
H91	H	0.822556	0.694371	0.243765
H92	H	0.861656	0.810231	0.104662
O93	O	0.970275	-0.156324	-0.211273
C94	C	0.883464	-0.112392	-0.127229
H95	H	0.902412	-0.087561	-0.015755
H96	H	0.814452	-0.182827	-0.082774
C97	C	0.832992	-0.033297	-0.382973
C98	C	0.856267	-0.002790	-0.246066
H99	H	0.816212	0.034308	-0.456278
H100	H	0.891476	-0.062898	-0.439595
H101	H	0.775485	-0.091994	-0.345906
H102	H	0.913781	0.055896	-0.283133
H103	H	0.797793	0.026824	-0.189453
H104	H	1.058324	-0.024609	-0.058089
O105	O	0.623542	0.738735	0.011930
C106	C	0.540510	0.807127	-0.010511
H107	H	0.463721	0.750614	0.053873
H108	H	0.544455	0.841588	-0.148939
C109	C	0.642521	0.981034	-0.014082
C110	C	0.548209	0.911626	0.065008
H111	H	0.647272	1.045497	0.032494
H112	H	0.698463	0.934959	0.001030
H113	H	0.645798	1.009740	-0.129434
H114	H	0.544939	0.882910	0.180353
H115	H	0.492266	0.957699	0.049916
O116	O	1.239353	-0.437863	0.257262
C117	C	1.347174	-0.444583	0.209908
H118	H	1.390741	-0.358633	0.207422
H119	H	1.367759	-0.460028	0.080995
C120	C	1.324784	-0.652728	0.338738
C121	C	1.378294	-0.547166	0.335697
H122	H	1.343981	-0.716009	0.416324
H123	H	1.252143	-0.648202	0.370636
H124	H	1.341943	-0.665583	0.231302
H125	H	1.361125	-0.534306	0.443126
H126	H	1.450934	-0.551692	0.303820
H127	H	1.314133	-0.280940	0.388068
H128	H	0.430376	0.659092	0.028148
H129	H	0.887214	0.091471	0.206197
O130	O	1.347347	-0.092857	0.445704
C131	C	1.446891	-0.030160	0.383926
H132	H	1.441522	0.058616	0.296107
H133	H	1.501236	-0.082706	0.313877
C134	C	1.496063	-0.119649	0.637556
C135	C	1.489468	-0.010608	0.529707
H136	H	1.522330	-0.107592	0.727479
H137	H	1.429000	-0.161893	0.679176
H138	H	1.541349	-0.163426	0.579163
H139	H	1.444173	0.033161	0.588095
H140	H	1.556524	0.031644	0.488100
H141	H	1.301411	0.128091	0.365983
H142	H	1.016212	-0.377521	-0.131631
