data_functionalizedCrystal
_audit_creation_method	'MofGen! by Chris Wilmer'
_symmetry_space_group_name_H-M	'P1'
_symmetry_Int_Tables_number	1
_symmetry_cell_setting	triclinic
loop_
_symmetry_equiv_pos_as_xyz
  x,y,z
_cell_length_a	6.817900
_cell_length_b	15.300912
_cell_length_c	19.453030
_cell_angle_alpha	95.678738
_cell_angle_beta	101.707737
_cell_angle_gamma	104.173621
loop_
_atom_site_label
_atom_site_type_symbol
_atom_site_fract_x
_atom_site_fract_y
_atom_site_fract_z
V1	V	-4.010291	-0.125698	-0.219213
O2	O	-3.994584	0.005074	-0.214821
O3	O	-3.965319	-0.248309	-0.217925
O4	O	-3.953156	-0.124188	-0.314724
O5	O	-4.006831	-0.119905	-0.117352
V6	V	-4.494606	-0.110006	-0.207004
O7	O	-4.269811	-0.160119	-0.245995
O8	O	-4.685284	-0.075584	-0.180223
O9	O	-4.316371	0.012605	-0.208293
O10	O	-4.627710	-0.240778	-0.211396
O11	O	-4.615463	-0.115798	-0.308865
O12	O	-4.328534	-0.111516	-0.111494
C13	C	-3.811437	-0.278185	-0.214521
C14	C	-3.855895	-0.378424	-0.214104
C15	C	-3.795920	-0.119856	-0.337997
C16	C	-3.830513	-0.119433	-0.416078
C17	C	-4.229400	-0.814796	-0.215823
C18	C	-4.187608	-0.720610	-0.216210
C19	C	-3.984793	-0.668916	-0.212895
C20	C	-3.823756	-0.711410	-0.209185
C21	C	-3.865546	-0.805594	-0.208793
C22	C	-3.736665	-0.515103	-0.210004
C23	C	-3.694871	-0.420913	-0.210397
C24	C	-4.058726	-0.430119	-0.217420
C25	C	-4.100517	-0.524302	-0.217029
C26	C	-3.939477	-0.566791	-0.213321
C27	C	-3.888310	-0.201855	-0.462924
C28	C	-3.920837	-0.201467	-0.536292
C29	C	-3.895523	-0.118652	-0.562809
C30	C	-3.837728	-0.036219	-0.515953
C31	C	-3.805223	-0.036610	-0.442588
N32	N	-3.802031	-0.053721	-0.668192
N33	N	-3.832909	-0.053355	-0.737887
C34	C	-3.993461	-0.117469	-0.783854
N35	N	-4.121952	-0.181976	-0.757495
N36	N	-4.091065	-0.182344	-0.687794
C37	C	-3.930766	-0.118219	-0.642360
C38	C	-4.086533	-0.199476	-0.910254
C39	C	-4.119072	-0.199085	-0.983623
C40	C	-4.035941	-0.033834	-0.963282
C41	C	-4.003425	-0.034228	-0.889916
C42	C	-4.028715	-0.117052	-0.863406
C43	C	-4.133596	0.042477	-0.211695
C44	C	-4.068375	0.142715	-0.212116
C45	C	-4.149113	-0.115851	-0.088217
C46	C	-4.093759	-0.116269	-0.010135
H47	H	-4.394553	-0.856880	-0.218527
H48	H	-4.318736	-0.686021	-0.219231
Cl49	Cl	-3.805914	0.067892	-0.549288
H50	H	-4.166150	-0.266206	-1.021766
Cl51	Cl	-3.930682	0.069396	-0.831018
Cl52	Cl	-3.568780	-0.646421	-0.205007
Cl53	Cl	-4.355490	-0.589290	-0.221201
H54	H	-3.758159	0.030510	-0.404444
Cl55	Cl	-4.261177	-0.376706	-0.222084
Cl56	Cl	-3.534211	-0.568516	-0.205345
Cl57	Cl	-4.118329	-0.303595	-0.876925
H58	H	-3.529726	-0.378826	-0.207701
H59	H	-4.015342	0.033595	-0.984872
Cl60	Cl	-3.663105	-0.859009	-0.204132
H61	H	-3.967896	-0.268587	-0.574441
Cl62	Cl	-3.920136	-0.305976	-0.429602
