data_functionalizedCrystal
_audit_creation_method	'MofGen! by Chris Wilmer'
_symmetry_space_group_name_H-M	'P1'
_symmetry_Int_Tables_number	1
_symmetry_cell_setting	triclinic
loop_
_symmetry_equiv_pos_as_xyz
  x,y,z
_cell_length_a	12.759395
_cell_length_b	21.395361
_cell_length_c	21.395355
_cell_angle_alpha	89.978489
_cell_angle_beta	90.022159
_cell_angle_gamma	89.967755
loop_
_atom_site_label
_atom_site_type_symbol
_atom_site_fract_x
_atom_site_fract_y
_atom_site_fract_z
Zn1	Zn	1.606169	0.249485	0.354208
Zn2	Zn	1.606005	0.354245	0.249425
Zn3	Zn	1.430462	0.249488	0.249449
Zn4	Zn	1.430410	0.354232	0.354170
O5	O	1.518262	0.301863	0.301813
O6	O	1.753168	0.263386	0.340315
O7	O	1.582672	0.340356	0.161751
O8	O	1.453860	0.161810	0.263372
O9	O	1.753048	0.340353	0.263331
O10	O	1.582951	0.161808	0.340338
O11	O	1.453701	0.263391	0.161768
O12	O	1.283434	0.263378	0.263335
O13	O	1.453772	0.340330	0.441853
O14	O	1.283396	0.340333	0.340273
O15	O	1.582901	0.263373	0.441881
O16	O	1.582622	0.441921	0.263294
O17	O	1.453613	0.441912	0.340249
C18	C	1.245294	0.301855	0.301803
C19	C	1.128517	0.301867	0.301813
C20	C	1.518123	0.464650	0.301778
C21	C	1.518160	0.534292	0.301784
C22	C	1.518349	0.301850	0.465237
C23	C	1.518386	0.301845	0.534878
C24	C	1.128516	0.382129	0.381798
C25	C	1.073655	0.422266	0.421793
C26	C	0.963933	0.422273	0.421801
C27	C	0.909071	0.382139	0.381811
C28	C	0.963932	0.342003	0.341816
C29	C	1.073656	0.342001	0.341811
C30	C	0.963933	0.261738	0.261835
C31	C	1.073655	0.261733	0.261823
C32	C	0.909070	0.221604	0.221845
C33	C	0.963931	0.181470	0.181846
C34	C	1.073660	0.181465	0.181840
C35	C	1.128516	0.221597	0.221828
C36	C	1.792295	0.301871	0.301824
C37	C	1.909072	0.301874	0.301829
C38	C	1.518429	0.138439	0.301862
C39	C	1.518501	0.068798	0.301883
C40	C	1.585394	0.566989	0.261755
C41	C	1.585443	0.632424	0.261769
C42	C	1.518239	0.665160	0.301806
C43	C	1.450999	0.632455	0.341843
C44	C	1.450960	0.567020	0.341833
C45	C	1.423641	0.768877	0.306718
C46	C	1.423678	0.834310	0.306725
C47	C	1.518361	0.866981	0.301843
C48	C	1.613009	0.834211	0.296941
C49	C	1.612969	0.768777	0.296931
C50	C	1.518274	0.736112	0.301822
C51	C	1.585654	0.970631	0.261826
C52	C	1.585705	1.036067	0.261845
C53	C	1.451252	1.036096	0.341916
C54	C	1.451211	0.970661	0.341901
C55	C	1.518410	0.937932	0.301852
C56	C	1.518235	0.301830	0.139026
C57	C	1.518402	0.301659	0.069385
C58	C	1.585621	0.261772	0.567607
C59	C	1.585619	0.261745	0.633042
C60	C	1.518394	0.301802	0.665746
C61	C	1.451147	0.341878	0.633010
C62	C	1.451142	0.341899	0.567575
C63	C	1.510050	0.358217	0.769409
C64	C	1.510062	0.358197	0.834842
C65	C	1.518401	0.301736	0.867567
C66	C	1.526750	0.245293	0.834851
C67	C	1.526746	0.245314	0.769417
C68	C	1.518391	0.301783	0.736699
C69	C	1.585637	0.261630	0.971249
C70	C	1.585629	0.261602	1.036685
C71	C	1.451161	0.341741	1.036651
C72	C	1.451165	0.341763	0.971216
C73	C	1.518408	0.301709	0.938519
H74	H	1.217857	0.382132	0.381791
C75	C	1.377325	1.072095	0.385959
C76	C	1.257888	1.063166	0.380783
C77	C	1.183961	1.099168	0.424830
C78	C	1.229472	1.144099	0.474054
C79	C	1.348915	1.153031	0.479232
C80	C	1.422842	1.117029	0.435185
H81	H	1.224192	1.029903	0.344343
H82	H	1.095541	1.092556	0.420997
H83	H	1.174747	1.170750	0.506660
H84	H	1.382611	1.186293	0.515672
H85	H	1.511262	1.123641	0.439018
C86	C	1.377244	0.934689	0.385931
C87	C	1.303322	0.970693	0.429974
C88	C	1.229357	0.934721	0.474010
C89	C	1.229314	0.862746	0.474002
C90	C	1.303239	0.826739	0.429957
C91	C	1.377204	0.862710	0.385922
H92	H	1.303352	1.023977	0.429982
H93	H	1.174633	0.961377	0.506615
H94	H	1.174560	0.836118	0.506599
H95	H	1.303209	0.773455	0.429950
H96	H	1.431928	0.836055	0.353317
C97	C	1.500879	0.420282	0.870826
C98	C	1.500889	0.420262	0.942801
C99	C	1.491706	0.482348	0.978784
C100	C	1.482511	0.544454	0.942792
C101	C	1.482500	0.544475	0.870812
C102	C	1.491684	0.482389	0.834830
H103	H	1.507696	0.374286	0.969449
H104	H	1.491714	0.482332	1.032068
H105	H	1.475713	0.590413	0.969428
H106	H	1.475693	0.590452	0.844165
H107	H	1.491675	0.482406	0.781546
C108	C	1.659586	0.217666	0.669056
C109	C	1.742034	0.244814	0.714056
C110	C	1.816001	0.200737	0.750068
C111	C	1.807520	0.129511	0.741079
C112	C	1.725068	0.102358	0.696077
C113	C	1.651101	0.146436	0.660065
H114	H	1.748316	0.297544	0.720712
H115	H	1.877038	0.220837	0.783382
H116	H	1.862275	0.096882	0.767737
H117	H	1.718787	0.049629	0.689421
H118	H	1.590065	0.126335	0.626751
H119	H	1.640197	0.659052	0.229172
C120	C	1.377210	0.385804	1.072618
C121	C	1.377208	0.385783	1.144593
C122	C	1.303251	0.429846	1.180562
C123	C	1.229295	0.473930	1.144557
C124	C	1.229294	0.473953	1.072578
C125	C	1.303252	0.429890	1.036608
H126	H	1.431957	0.353148	1.171250
H127	H	1.303252	0.429828	1.233846
H128	H	1.174548	0.506548	1.171184
H129	H	1.174545	0.506589	1.045921
H130	H	1.303250	0.429908	0.983324
C131	C	1.377205	0.385946	0.668981
C132	C	1.303250	0.430031	0.632976
C133	C	1.229304	0.474100	0.668947
C134	C	1.229315	0.474085	0.740922
C135	C	1.303273	0.429998	0.776930
C136	C	1.377218	0.385929	0.740960
H137	H	1.303239	0.430044	0.579692
H138	H	1.174555	0.506736	0.642290
H139	H	1.174576	0.506708	0.767549
H140	H	1.303283	0.429985	0.830214
H141	H	1.431967	0.353293	0.767616
C142	C	1.717075	0.732729	0.291546
C143	C	1.717026	0.660754	0.291535
C144	C	1.821133	0.624707	0.286154
C145	C	1.925288	0.660634	0.280784
C146	C	1.925340	0.732613	0.280795
C147	C	1.821233	0.768661	0.286176
H148	H	1.639921	0.634155	0.295511
H149	H	1.821094	0.571423	0.286146
H150	H	2.002354	0.633949	0.276800
H151	H	2.002445	0.759212	0.276819
H152	H	1.821273	0.821944	0.286184
H153	H	1.396283	0.659112	0.374443
H154	H	1.640374	0.229155	0.540988
H155	H	1.396387	0.374531	0.540928
H156	H	1.118336	0.454941	0.454353
H157	H	0.919266	0.454952	0.454371
H158	H	0.819730	0.382143	0.381826
C159	C	1.535950	0.183181	0.870839
C160	C	1.535966	0.183152	0.942814
C161	C	1.545184	0.121044	0.978805
C162	C	1.554386	0.058963	0.942821
C163	C	1.554371	0.058989	0.870842
C164	C	1.545153	0.121098	0.834851
H165	H	1.529154	0.229110	0.969455
H166	H	1.545195	0.121025	1.032089
H167	H	1.561210	0.012986	0.969464
H168	H	1.561183	0.013031	0.844201
H169	H	1.545142	0.121117	0.781567
H170	H	0.819729	0.221610	0.221857
H171	H	1.533542	0.199357	0.742782
H172	H	1.502979	0.404183	0.742770
H173	H	0.919254	0.148793	0.149293
H174	H	1.396421	0.374399	0.944568
H175	H	1.118321	0.148776	0.149275
H176	H	1.217857	0.221598	0.221825
H177	H	1.640115	0.540343	0.229147
H178	H	1.690109	0.860810	0.292966
H179	H	1.346610	0.860986	0.310709
H180	H	1.640376	0.943982	0.229218
C181	C	1.659674	1.072037	0.217812
C182	C	1.733588	1.036033	0.173765
C183	C	1.807561	1.072004	0.129733
C184	C	1.807618	1.143979	0.129749
C185	C	1.733701	1.179987	0.173798
C186	C	1.659729	1.144016	0.217830
H187	H	1.733548	0.982749	0.173752
H188	H	1.862279	1.045348	0.097125
H189	H	1.862377	1.170607	0.097154
H190	H	1.733742	1.233271	0.173811
H191	H	1.605011	1.170672	0.250438
C192	C	1.319481	0.732942	0.312084
C193	C	1.215373	0.768983	0.317462
C194	C	1.111218	0.733049	0.322827
C195	C	1.111169	0.661074	0.322814
C196	C	1.215280	0.625029	0.317435
C197	C	1.319436	0.660963	0.312070
H198	H	1.215406	0.822267	0.317473
H199	H	1.034148	0.759733	0.326809
H200	H	1.034067	0.634474	0.326785
H201	H	1.215248	0.571745	0.317425
H202	H	1.396506	0.634279	0.308089
H203	H	1.640385	0.229012	0.944625
H204	H	1.396209	0.540398	0.374430
H205	H	1.640377	0.228966	1.063332
