data_functionalizedCrystal
_audit_creation_method	'MofGen! by Chris Wilmer'
_symmetry_space_group_name_H-M	'P1'
_symmetry_Int_Tables_number	1
_symmetry_cell_setting	triclinic
loop_
_symmetry_equiv_pos_as_xyz
  x,y,z
_cell_length_a	14.971506
_cell_length_b	14.971486
_cell_length_c	14.048226
_cell_angle_alpha	89.996181
_cell_angle_beta	90.005155
_cell_angle_gamma	96.381742
loop_
_atom_site_label
_atom_site_type_symbol
_atom_site_fract_x
_atom_site_fract_y
_atom_site_fract_z
O1	O	1.186934	-0.116647	0.079168
O2	O	1.686934	0.383353	0.579168
O3	O	0.926536	-0.130587	0.079168
O4	O	1.426536	0.369413	0.579168
O5	O	1.063715	0.006582	0.079161
O6	O	1.563715	0.506582	0.579161
O7	O	1.049756	-0.253817	0.079175
O8	O	1.549756	0.246183	0.579175
O9	O	1.063702	0.006584	-0.079160
O10	O	1.563702	0.506584	0.420840
O11	O	0.926523	-0.130586	-0.079153
O12	O	1.426523	0.369414	0.420847
O13	O	1.186921	-0.116646	-0.079154
O14	O	1.686921	0.383354	0.420846
Zn15	Zn	1.056720	-0.123616	-0.104290
Zn16	Zn	1.556720	0.376384	0.395710
Zn17	Zn	1.056737	-0.123617	0.104305
Zn18	Zn	1.556737	0.376383	0.604305
O19	O	1.049743	-0.253816	-0.079147
O20	O	1.549743	0.246184	0.420853
C21	C	0.893205	-0.129960	0.000008
C22	C	1.393205	0.370040	0.500008
C23	C	0.793909	-0.128082	0.000008
C24	C	1.293909	0.371918	0.500008
C25	C	1.063084	0.039908	0.000001
C26	C	1.563084	0.539908	0.500001
C27	C	1.061213	0.139205	0.000002
C28	C	1.561213	0.639205	0.500002
C29	C	0.355627	-0.201500	0.000021
C30	C	0.855627	0.298500	0.500021
C31	C	0.448927	-0.203258	0.000025
C32	C	0.948927	0.296742	0.500025
C33	C	0.506147	-0.122665	0.000017
C34	C	1.006147	0.377335	0.500017
C35	C	0.470062	-0.040310	0.000014
C36	C	0.970062	0.459690	0.500014
C37	C	0.376764	-0.038553	0.000017
C38	C	0.876764	0.461447	0.500017
C39	C	0.664525	-0.043977	0.000006
C40	C	1.164525	0.456023	0.500006
C41	C	0.757831	-0.045733	0.000002
C42	C	1.257831	0.454267	0.500002
C43	C	0.736689	-0.208681	0.000015
C44	C	1.236689	0.291319	0.500015
C45	C	0.643390	-0.206924	0.000018
C46	C	1.143390	0.293076	0.500018
C47	C	0.607312	-0.124569	0.000013
C48	C	1.107312	0.375431	0.500013
C49	C	1.220252	-0.117273	0.000009
C50	C	1.720252	0.382727	0.500009
C51	C	1.319548	-0.119151	0.000015
C52	C	1.819548	0.380849	0.500015
C53	C	1.050374	-0.287141	0.000016
C54	C	1.550374	0.212859	0.500016
C55	C	1.052244	-0.386438	0.000021
C56	C	1.552244	0.113562	0.500021
N57	N	1.056715	-0.123614	-0.246651
N58	N	1.556715	0.376386	0.253349
C59	C	1.141802	0.196424	0.000001
C60	C	1.641802	0.696424	0.500001
C61	C	1.140038	0.289724	0.000010
C62	C	1.640038	0.789724	0.500010
C63	C	1.057686	0.325802	0.000014
C64	C	1.557686	0.825802	0.500014
C65	C	0.977091	0.268575	0.000018
C66	C	1.477091	0.768575	0.500018
C67	C	0.978855	0.175278	0.000015
C68	C	1.478855	0.675278	0.500015
C69	C	0.973420	0.463038	0.000021
C70	C	1.473420	0.963038	0.500021
C71	C	0.971656	0.556342	0.000022
C72	C	1.471656	1.056342	0.500022
C73	C	1.134603	0.577485	0.000017
C74	C	1.634603	1.077485	0.500017
C75	C	1.136367	0.484187	0.000014
C76	C	1.636367	0.984187	0.500014
C77	C	1.055772	0.426966	0.000016
C78	C	1.555772	0.926966	0.500016
C79	C	1.111017	-0.177959	-0.296462
C80	C	1.611017	0.322041	0.203538
C81	C	1.111028	-0.177955	-0.396120
C82	C	1.611028	0.322045	0.103880
C83	C	1.056732	-0.123611	-0.445964
C84	C	1.556732	0.376389	0.054036
C85	C	1.002428	-0.069259	-0.396146
C86	C	1.502428	0.430741	0.103854
C87	C	1.002422	-0.069259	-0.296491
C88	C	1.502422	0.430741	0.203509
C89	C	1.002443	-0.069265	-0.603861
C90	C	1.502443	0.430735	-0.103861
C91	C	1.002448	-0.069267	-0.703523
C92	C	1.502448	0.430733	-0.203523
C93	C	1.111049	-0.177962	-0.703490
C94	C	1.611049	0.322038	-0.203490
C95	C	1.111043	-0.177962	-0.603834
C96	C	1.611043	0.322038	-0.103834
C97	C	1.056738	-0.123611	-0.554023
C98	C	1.556738	0.376389	-0.054023
N99	N	1.056750	-0.123612	0.246666
N100	N	1.556750	0.376388	0.746666
H101	H	0.309044	-0.267128	0.000021
H102	H	0.809044	0.232872	0.500021
H103	H	1.155251	-0.222218	-0.563253
H104	H	1.655251	0.277782	-0.063253
H105	H	0.478297	-0.270314	0.000039
H106	H	0.978297	0.229686	0.500039
F107	F	0.889445	0.306975	0.000032
F108	F	1.389445	0.806975	0.500032
F109	F	0.626131	0.043676	-0.000003
F110	F	1.126131	0.543676	0.499997
F111	F	0.884007	0.594738	0.000025
F112	F	1.384007	1.094738	0.500025
H113	H	1.155263	-0.222219	-0.744051
H114	H	1.655263	0.277781	-0.244051
F115	F	1.225812	0.350618	0.000008
F116	F	1.725812	0.850618	0.500008
F117	F	0.818727	0.040042	-0.000001
F118	F	1.318727	0.540042	0.499999
H119	H	1.155248	-0.222207	-0.436671
H120	H	1.655248	0.277793	0.063329
F121	F	0.530963	0.045463	0.000008
F122	F	1.030963	0.545463	0.500008
H123	H	1.155226	-0.222219	-0.255885
H124	H	1.655226	0.277781	0.244115
F125	F	0.893082	0.114380	0.000019
F126	F	1.393082	0.614380	0.500019
H127	H	0.958234	-0.025016	-0.744104
H128	H	1.458234	0.474984	-0.244104
H129	H	0.596803	-0.272550	0.000018
H130	H	1.096803	0.227450	0.500018
H131	H	1.200227	0.624078	0.000018
H132	H	1.700227	1.124078	0.500018
F133	F	0.775086	-0.296330	0.000012
F134	F	1.275086	0.203670	0.500012
H135	H	0.958223	-0.025006	-0.563307
H136	H	1.458223	0.474994	-0.063307
H137	H	0.958204	-0.025006	-0.255936
H138	H	1.458204	0.474994	0.244064
F139	F	0.338367	0.049093	0.000010
F140	F	0.838367	0.549093	0.500010
F141	F	1.229454	0.158036	-0.000012
F142	F	1.729454	0.658036	0.499988
H143	H	1.203426	0.454815	0.000004
H144	H	1.703426	0.954815	0.500004
H145	H	0.958224	-0.025006	-0.436738
H146	H	1.458224	0.474994	0.063262
H147	H	0.907791	0.416451	0.000025
H148	H	1.407791	0.916451	0.500025
