data_functionalizedCrystal
_audit_creation_method	'MofGen! by Chris Wilmer'
_symmetry_space_group_name_H-M	'P1'
_symmetry_Int_Tables_number	1
_symmetry_cell_setting	triclinic
loop_
_symmetry_equiv_pos_as_xyz
  x,y,z
_cell_length_a	38.066784
_cell_length_b	38.072482
_cell_length_c	38.067077
_cell_angle_alpha	89.996047
_cell_angle_beta	59.996434
_cell_angle_gamma	119.986318
loop_
_atom_site_label
_atom_site_type_symbol
_atom_site_fract_x
_atom_site_fract_y
_atom_site_fract_z
O1	O	0.309903	-0.240947	-0.010451
O2	O	0.237960	-0.189871	0.010400
O3	O	0.309890	-0.189876	-0.061534
O4	O	0.237972	-0.240943	0.061484
O5	O	0.251476	-0.248284	-0.061533
O6	O	0.179546	-0.248280	0.010402
O7	O	0.251489	-0.299356	-0.010450
Cu8	Cu	0.210184	-0.279151	-0.000024
Cu9	Cu	0.279265	-0.210076	-0.000025
O10	O	0.179558	-0.299351	0.061485
C11	C	0.057601	-0.088952	0.031609
C12	C	0.078531	-0.046686	0.031906
C13	C	-0.006012	-0.088955	0.031608
C14	C	0.015013	-0.046689	0.031904
C15	C	0.057582	-0.025358	0.031607
C16	C	0.015033	-0.110186	0.031906
C17	C	0.107995	-0.191961	0.020098
C18	C	0.131281	-0.212118	0.016843
C19	C	0.174804	-0.190386	0.015208
C20	C	0.200059	-0.212236	0.011671
C21	C	0.195039	-0.148497	0.016833
C22	C	0.171750	-0.128346	0.020093
C23	C	0.128226	-0.150080	0.021726
C24	C	0.172095	0.128003	0.020088
C25	C	0.195502	0.171433	0.016830
C26	C	0.175397	0.193220	0.015193
C27	C	0.200776	0.240310	0.011655
C28	C	0.131877	0.171572	0.016818
C29	C	0.108467	0.128142	0.020082
C30	C	0.128583	0.106360	0.021715
C31	C	-0.147868	-0.191972	0.020091
C32	C	-0.188045	-0.212130	0.016828
C33	C	-0.208209	-0.190401	0.015192
C34	C	-0.251770	-0.212254	0.011653
C35	C	-0.188194	-0.148514	0.016815
C36	C	-0.148018	-0.128358	0.020075
C37	C	-0.127860	-0.150093	0.021717
C38	C	0.102979	-0.128224	0.025257
C39	C	0.082852	-0.110804	0.028074
C40	C	-0.049573	-0.110810	0.028070
C41	C	-0.084296	-0.128232	0.025252
C42	C	0.082964	0.021732	0.028069
C43	C	0.103197	0.059268	0.025251
O44	O	-0.266024	-0.248301	0.010389
O45	O	-0.368170	-0.299372	-0.010471
O46	O	-0.368185	-0.299372	0.061467
O47	O	-0.266010	-0.248301	-0.061550
O48	O	-0.368203	-0.240962	0.061466
O49	O	-0.368188	-0.240963	-0.010472
O50	O	-0.266043	-0.189891	0.010387
Cu51	Cu	-0.317117	-0.210094	-0.000043
Cu52	Cu	-0.317095	-0.279170	-0.000041
O53	O	-0.266028	-0.189892	-0.061551
C54	C	0.432037	-0.088956	-0.406423
C55	C	0.474602	-0.046692	-0.427662
C56	C	0.432037	-0.088956	-0.342810
C57	C	0.474602	-0.046692	-0.364146
C58	C	0.495635	-0.025363	-0.406423
C59	C	0.411100	-0.110188	-0.364145
C60	C	0.317503	-0.191964	-0.445266
C61	C	0.294088	-0.212121	-0.465288
C62	C	0.314185	-0.190390	-0.507183
C63	C	0.288794	-0.212241	-0.528892
C64	C	0.357701	-0.148503	-0.529056
C65	C	0.381116	-0.128352	-0.509036
C66	C	0.361015	-0.150084	-0.467139
C67	C	0.637486	0.127991	-0.509464
C68	C	0.677662	0.171420	-0.529628
C69	C	0.697815	0.193208	-0.507893
C70	C	0.741370	0.240296	-0.529749
C71	C	0.677792	0.171561	-0.465993
C72	C	0.637623	0.128133	-0.445833
C73	C	0.617470	0.106350	-0.467573
C74	C	0.317503	-0.191964	-0.189407
C75	C	0.294084	-0.212119	-0.145962
C76	C	0.314181	-0.190389	-0.124170
C77	C	0.288790	-0.212239	-0.077065
C78	C	0.357693	-0.148504	-0.145822
C79	C	0.381109	-0.128350	-0.189264
C80	C	0.361011	-0.150086	-0.211055
C81	C	0.386406	-0.128228	-0.445432
C82	C	0.406646	-0.110808	-0.428130
C83	C	0.406646	-0.110808	-0.295706
C84	C	0.386406	-0.128228	-0.258160
C85	C	0.539191	0.021726	-0.428283
C86	C	0.573911	0.059260	-0.445708
C87	C	0.450076	-0.361017	-0.025326
C88	C	0.429048	-0.403283	-0.025624
C89	C	0.386462	-0.361015	-0.025322
C90	C	0.365530	-0.403280	-0.025620
C91	C	0.386478	-0.424611	-0.025325
C92	C	0.429033	-0.339783	-0.025621
C93	C	0.513653	-0.297281	-0.020166
C94	C	0.553835	-0.277126	-0.016909
C95	C	0.573994	-0.298858	-0.015277
C96	C	0.617560	-0.277008	-0.011744
C97	C	0.553980	-0.340745	-0.016904
C98	C	0.513802	-0.360898	-0.020163
C99	C	0.493638	-0.339166	-0.021791
C100	C	0.381497	-0.493345	-0.020165
C101	C	0.358225	-0.536777	-0.016908
C102	C	0.314704	-0.558558	-0.015271
C103	C	0.289467	-0.605650	-0.011737
C104	C	0.294451	-0.536911	-0.016896
C105	C	0.317723	-0.493482	-0.020156
C106	C	0.361245	-0.471701	-0.021789
C107	C	0.381451	-0.297275	-0.020158
C108	C	0.358159	-0.277119	-0.016892
C109	C	0.314638	-0.298849	-0.015255
C110	C	0.289385	-0.276995	-0.011718
C111	C	0.294401	-0.340733	-0.016881
C112	C	0.317688	-0.360891	-0.020145
C113	C	0.361213	-0.339160	-0.021783
O114	O	0.251566	0.378819	-0.010465
O115	O	0.179669	0.255838	0.010383
O116	O	0.251583	0.327744	-0.061550
O117	O	0.179651	0.306913	0.061468
O118	O	0.310011	0.327746	-0.061549
O119	O	0.238097	0.255840	0.010385
O120	O	0.309993	0.378821	-0.010464
Cu121	Cu	0.279380	0.317331	-0.000039
Cu122	Cu	0.210283	0.317328	-0.000041
O123	O	0.238079	0.306915	0.061470
O124	O	0.857772	0.378802	-0.558459
O125	O	0.755628	0.255823	-0.507376
O126	O	0.755611	0.327735	-0.507372
O127	O	0.857788	0.306890	-0.558464
O128	O	0.755613	0.327737	-0.565799
O129	O	0.755630	0.255825	-0.565804
O130	O	0.857773	0.378804	-0.616887
Cu131	Cu	0.806701	0.317314	-0.596680
Cu132	Cu	0.806700	0.317313	-0.527583
O133	O	0.857790	0.306891	-0.616891
O134	O	0.237968	-0.240947	-0.616608
O135	O	0.309890	-0.189876	-0.565526
O136	O	0.237957	-0.189873	-0.565521
O137	O	0.309900	-0.240950	-0.616613
O138	O	0.179545	-0.248281	-0.507094
O139	O	0.251477	-0.248284	-0.507099
O140	O	0.179555	-0.299354	-0.558181
Cu141	Cu	0.210183	-0.279152	-0.527305
Cu142	Cu	0.279262	-0.210078	-0.596402
O143	O	0.251488	-0.299358	-0.558186
C144	C	0.039442	-0.424594	0.321724
C145	C	0.060475	-0.403265	0.342963
C146	C	0.103041	-0.361001	0.258111
C147	C	0.123977	-0.339769	0.279446
C148	C	0.103040	-0.361001	0.321724
C149	C	0.060476	-0.403265	0.279446
C150	C	-0.024133	-0.493325	0.321558
C151	C	-0.064308	-0.536755	0.341581
C152	C	-0.084458	-0.558538	0.383472
C153	C	-0.128017	-0.605628	0.405185
C154	C	-0.064439	-0.536893	0.405347
C155	C	-0.024267	-0.493465	0.385325
C156	C	-0.004114	-0.471682	0.343430
C157	C	0.108036	-0.361167	0.385480
C158	C	0.131314	-0.341150	0.405642
C159	C	0.174830	-0.299272	0.383905
C160	C	0.200072	-0.277567	0.405762
C161	C	0.195072	-0.277405	0.342006
C162	C	0.171795	-0.297420	0.321847
C163	C	0.128279	-0.339302	0.343583
C164	C	0.108038	-0.361165	0.189357
C165	C	0.131320	-0.341149	0.145911
C166	C	0.174836	-0.299272	0.124122
C167	C	0.200079	-0.277566	0.077017
C168	C	0.195078	-0.277406	0.145772
C169	C	0.171800	-0.297421	0.189216
C170	C	0.128280	-0.339300	0.211007
C171	C	-0.613581	-0.361027	0.321701
C172	C	-0.634512	-0.403291	0.342939
C173	C	-0.549958	-0.361025	0.258089
C174	C	-0.570985	-0.403290	0.279424
C175	C	-0.613559	-0.424620	0.321700
C176	C	-0.571007	-0.339793	0.279424
C177	C	-0.618599	-0.297291	0.321535
C178	C	-0.641891	-0.277136	0.341559
C179	C	-0.685416	-0.298867	0.383449
C180	C	-0.710675	-0.277017	0.405161
C181	C	-0.705653	-0.340753	0.405322
C182	C	-0.682361	-0.360906	0.385301
C183	C	-0.638836	-0.339175	0.343407
C184	C	-0.682464	-0.493353	0.385454
C185	C	-0.705872	-0.536784	0.405615
C186	C	-0.685759	-0.558565	0.383878
C187	C	-0.711139	-0.605656	0.405734
C188	C	-0.642234	-0.536919	0.341981
C189	C	-0.618826	-0.493490	0.321822
C190	C	-0.638943	-0.471709	0.343559
C191	C	-0.486378	-0.297287	0.189337
C192	C	-0.446195	-0.277133	0.145892
C193	C	-0.426030	-0.298862	0.124103
C194	C	-0.382460	-0.277010	0.076999
C195	C	-0.446044	-0.340746	0.145752
C196	C	-0.486226	-0.360903	0.189196
C197	C	-0.506391	-0.339171	0.210986
C198	C	0.103129	0.292104	0.321703
C199	C	0.060556	0.291811	0.342941
C200	C	0.103128	0.292092	0.258091
C201	C	0.060555	0.291799	0.279425
C202	C	0.039517	0.292104	0.321701
C203	C	0.124070	0.291799	0.279427
C204	C	0.172046	0.297265	0.321540
C205	C	0.195465	0.300526	0.341564
C206	C	0.175363	0.302168	0.383454
C207	C	0.200755	0.305706	0.405167
C208	C	0.131839	0.300545	0.405326
C209	C	0.108420	0.297282	0.385304
C210	C	0.128525	0.295644	0.343411
C211	C	-0.024073	0.297276	0.385453
C212	C	-0.064259	0.300537	0.405613
C213	C	-0.084413	0.302168	0.383875
C214	C	-0.127983	0.305706	0.405730
C215	C	-0.064390	0.300533	0.341978
C216	C	-0.024208	0.297270	0.321820
C217	C	-0.004049	0.295644	0.343558
C218	C	0.172044	0.297240	0.189340
C219	C	0.195466	0.300495	0.145895
C220	C	0.175363	0.302125	0.124106
C221	C	0.200754	0.305651	0.077001
C222	C	0.131842	0.300504	0.145754
C223	C	0.108420	0.297251	0.189197
C224	C	0.128523	0.295619	0.210988
C225	C	0.057642	-0.025646	-0.406433
C226	C	0.078595	-0.046975	-0.427671
C227	C	-0.005959	-0.089241	-0.342821
C228	C	0.015089	-0.110473	-0.364156
C229	C	0.057663	-0.089240	-0.406433
C230	C	0.015068	-0.046976	-0.364156
C231	C	0.107958	0.127710	-0.445276
C232	C	0.131226	0.171139	-0.465297
C233	C	0.174754	0.192925	-0.507191
C234	C	0.199989	0.240016	-0.528899
C235	C	0.195012	0.171279	-0.529063
C236	C	0.171741	0.127852	-0.509043
C237	C	0.128212	0.106067	-0.467148
C238	C	0.172249	-0.128070	-0.509469
C239	C	0.195679	-0.148086	-0.529632
C240	C	0.175591	-0.189966	-0.507897
C241	C	0.200993	-0.211670	-0.529752
C242	C	0.132066	-0.211833	-0.465998
C243	C	0.108633	-0.191821	-0.445839
C244	C	0.128732	-0.149935	-0.467579
C245	C	-0.147856	-0.128076	-0.189421
C246	C	-0.188039	-0.148091	-0.145978
C247	C	-0.208186	-0.189973	-0.124185
C248	C	-0.251753	-0.211676	-0.077081
C249	C	-0.188148	-0.211836	-0.145836
C250	C	-0.147965	-0.191820	-0.189278
C251	C	-0.127825	-0.149939	-0.211068
C252	C	0.102985	0.058978	-0.445441
C253	C	0.082874	0.021443	-0.428139
C254	C	-0.049526	-0.110942	-0.295718
C255	C	-0.084255	-0.128240	-0.258173
C256	C	0.083070	-0.110940	-0.428291
C257	C	0.103322	-0.128237	-0.445715
O258	O	-0.761931	-0.744166	0.434449
O259	O	-0.690033	-0.621186	0.383365
O260	O	-0.761937	-0.693096	0.383357
O261	O	-0.690027	-0.672256	0.434457
O262	O	-0.820372	-0.693096	0.441782
O263	O	-0.748468	-0.621186	0.441790
O264	O	-0.820366	-0.744166	0.492873
Cu265	Cu	-0.789753	-0.682676	0.472666
Cu266	Cu	-0.720646	-0.682676	0.403572
O267	O	-0.748462	-0.672256	0.492881
C268	C	0.495508	0.348894	-0.406430
C269	C	0.474469	0.349186	-0.427669
C270	C	0.431896	0.348904	-0.342820
C271	C	0.410953	0.349196	-0.364156
C272	C	0.431894	0.348891	-0.406432
C273	C	0.474470	0.349199	-0.364154
C274	C	0.637397	0.337378	-0.445269
C275	C	0.677584	0.334120	-0.465289
C276	C	0.697741	0.332478	-0.507182
C277	C	0.741308	0.328937	-0.528889
C278	C	0.677712	0.334097	-0.529055
C279	C	0.637533	0.337361	-0.509037
C280	C	0.617375	0.339001	-0.467141
C281	C	0.381532	0.337354	-0.509471
C282	C	0.358253	0.334094	-0.529634
C283	C	0.314724	0.332460	-0.507901
C284	C	0.289477	0.328919	-0.529756
C285	C	0.294478	0.334093	-0.466002
C286	C	0.317760	0.337361	-0.445842
C287	C	0.361289	0.338989	-0.467581
C288	C	0.381540	0.337420	-0.189419
C289	C	0.358259	0.334167	-0.145976
C290	C	0.314730	0.332536	-0.124185
C291	C	0.289484	0.329007	-0.077080
C292	C	0.294482	0.334153	-0.145836
C293	C	0.317763	0.337405	-0.189278
C294	C	0.361295	0.339042	-0.211067
C295	C	0.573804	0.342536	-0.445436
C296	C	0.539075	0.345355	-0.428135
C297	C	0.406653	0.345377	-0.295717
C298	C	0.386534	0.342567	-0.258172
C299	C	0.406650	0.345350	-0.428291
C300	C	0.386529	0.342528	-0.445716
H301	H	0.115503	0.189310	0.015490
H302	H	-0.625859	-0.554661	0.324285
Br303	Br	-0.215549	-0.119016	0.014583
H304	H	0.188414	0.295909	0.207082
H305	H	0.497507	-0.395001	-0.021488
H306	H	-0.583387	-0.475867	0.287710
H307	H	-0.553368	-0.420412	0.262293
Br308	Br	-0.091476	-0.566125	0.311897
H309	H	0.376840	-0.144910	-0.347013
H310	H	0.259036	0.332823	-0.128091
Br311	Br	0.199392	0.098443	0.022307
Br312	Br	0.199524	-0.071229	-0.538973
H313	H	0.188226	-0.094241	0.021418
H314	H	0.374062	-0.130815	-0.563167
H315	H	0.158229	-0.305043	0.262315
Br316	Br	0.440603	0.339563	-0.538972
Br317	Br	-0.513392	-0.417748	0.218575
Br318	Br	0.235384	-0.566475	-0.014679
H319	H	0.621325	0.110511	-0.411719
H320	H	0.258650	-0.246220	-0.128334
Br321	Br	0.199330	0.295037	0.264686
H322	H	0.115474	0.301882	0.439438
Br323	Br	-0.418677	-0.370240	0.116180
H324	H	0.416537	-0.094246	-0.206890
H325	H	0.301273	0.338691	-0.411729
Br326	Br	0.503840	0.350013	-0.485577
Br327	Br	0.290252	-0.464100	-0.022377
H328	H	-0.002515	-0.145201	-0.347028
H329	H	-0.625412	-0.243033	0.323746
Br330	Br	0.049407	0.098764	0.022291
H331	H	-0.131469	-0.093979	-0.207164
H332	H	0.072980	0.295958	0.403115
H333	H	0.694130	0.332763	-0.563166
H334	H	0.446632	-0.305057	-0.026096
H335	H	-0.080852	-0.554635	0.439460
H336	H	-0.080558	0.301866	0.439726
Br337	Br	0.440563	-0.463786	-0.022384
Br338	Br	0.440522	-0.267781	-0.022384
H339	H	0.570400	-0.358438	-0.015574
H340	H	0.188274	-0.279613	0.287734
Br341	Br	0.199229	0.098477	-0.538727
Br342	Br	0.486291	-0.267785	-0.022378
Br343	Br	0.384959	-0.119003	-0.116243
H344	H	0.301132	-0.209663	-0.411153
H345	H	0.301207	-0.394996	-0.021467
Br346	Br	0.705146	0.201124	-0.436495
H347	H	-0.002563	-0.144914	0.032385
H348	H	0.301133	-0.209663	-0.207146
Br349	Br	0.003283	0.295068	0.414956
H350	H	0.492200	-0.029567	-0.347013
Br351	Br	-0.764726	-0.370245	0.462178
Br352	Br	0.003216	-0.463764	0.264701
H353	H	0.231118	-0.130279	-0.563744
H354	H	-0.007973	-0.475841	0.403138
Br355	Br	0.181173	0.291003	0.250876
Br356	Br	0.385625	-0.220277	-0.014684
Br357	Br	0.458406	-0.431825	-0.026433
Br358	Br	-0.513741	-0.267793	0.218910
H359	H	0.374720	-0.554396	-0.015586
H360	H	0.374741	0.332764	-0.563747
H361	H	0.042948	0.291336	0.377678
Br362	Br	-0.091749	0.302742	0.312478
H363	H	0.570126	-0.243024	-0.015583
Br364	Br	0.048972	-0.418000	0.218931
H365	H	0.072601	-0.395268	0.403183
Br366	Br	0.048886	0.098148	-0.388420
H367	H	0.042950	0.291319	0.262293
Br368	Br	0.048927	-0.221461	0.022317
H369	H	0.259038	0.332769	-0.448307
Br370	Br	0.103838	-0.370826	0.462502
H371	H	0.492205	-0.029570	-0.462400
Br372	Br	0.235329	-0.370228	-0.014655
Br373	Br	0.440171	-0.071512	-0.538720
H374	H	0.042864	-0.420388	0.377702
H375	H	0.301271	0.338720	-0.206903
H376	H	0.115705	-0.245936	-0.448303
H377	H	0.258657	-0.246223	-0.447476
H378	H	-0.002604	-0.029568	0.032385
Br379	Br	0.610357	0.339563	-0.538722
H380	H	-0.583156	-0.279592	0.287425
H381	H	-0.131726	-0.094253	0.021399
H382	H	0.230936	0.189056	0.015506
H383	H	0.492079	0.349679	-0.347025
Br384	Br	-0.014292	-0.018437	-0.335605
Br385	Br	0.385737	0.331966	-0.116593
Br386	Br	0.031142	-0.431805	0.250892
H387	H	0.114835	-0.358956	0.128288
Br388	Br	0.254132	-0.220565	0.312507
H389	H	0.188284	-0.279615	0.206843
Br390	Br	0.103734	0.200512	-0.435614
H391	H	0.230516	-0.243305	0.128027
H392	H	0.072984	0.295932	0.206822
H393	H	-0.007905	0.295939	0.287708
Br394	Br	0.135690	-0.018436	-0.485568
H395	H	0.114803	-0.246223	0.015520
Br396	Br	0.135612	-0.018146	0.032718
H397	H	-0.668770	-0.420414	0.377676
H398	H	-0.204557	-0.245941	-0.128091
Br399	Br	-0.215202	-0.268974	0.014621
H400	H	-0.204350	-0.130285	-0.128352
H401	H	0.376692	0.349673	-0.347024
H402	H	-0.553433	-0.305078	0.262286
Br403	Br	0.610138	0.098431	-0.538967
H404	H	0.230900	0.301813	0.128274
H405	H	-0.429901	-0.243028	0.128270
Br406	Br	-0.709818	-0.417746	0.414984
Br407	Br	-0.120508	-0.221467	0.022313
Br408	Br	0.254528	0.302726	0.311881
H409	H	0.416988	0.338756	-0.207159
H410	H	0.693959	0.189041	-0.563741
H411	H	0.230474	-0.130807	0.015505
Br412	Br	0.610045	0.339605	-0.388413
Br413	Br	0.308435	-0.431822	-0.026412
H414	H	-0.698846	-0.475620	0.403157
H415	H	0.115475	0.301835	0.128008
H416	H	-0.741309	-0.554402	0.439728
H417	H	0.230452	0.189021	-0.563173
H418	H	0.073194	-0.209628	-0.411727
Br419	Br	-0.120773	-0.221493	-0.218659
Br420	Br	0.704760	0.331920	-0.435604
