data_functionalizedCrystal
_audit_creation_method	'MofGen! by Chris Wilmer'
_symmetry_space_group_name_H-M	'P1'
_symmetry_Int_Tables_number	1
_symmetry_cell_setting	triclinic
loop_
_symmetry_equiv_pos_as_xyz
  x,y,z
_cell_length_a	18.050590
_cell_length_b	25.639240
_cell_length_c	18.050583
_cell_angle_alpha	89.958294
_cell_angle_beta	89.997453
_cell_angle_gamma	90.021926
loop_
_atom_site_label
_atom_site_type_symbol
_atom_site_fract_x
_atom_site_fract_y
_atom_site_fract_z
Zn1	Zn	1.135293	-0.208284	-0.419554
Zn2	Zn	1.635293	0.291716	0.080446
Zn3	Zn	1.135187	-0.295727	-0.295344
Zn4	Zn	1.635187	0.204273	0.204656
Zn5	Zn	1.011105	-0.208291	-0.295412
Zn6	Zn	1.511105	0.291709	0.204588
Zn7	Zn	1.011051	-0.295674	-0.419526
Zn8	Zn	1.511051	0.204326	0.080474
O9	O	1.073159	-0.251994	-0.357459
O10	O	1.573159	0.248006	0.142541
O11	O	1.239204	-0.219903	-0.403060
O12	O	1.739204	0.280097	0.096940
O13	O	1.118706	-0.284154	-0.191428
O14	O	1.618706	0.215846	0.308572
O15	O	1.027646	-0.135125	-0.311920
O16	O	1.527646	0.364875	0.188080
O17	O	1.239126	-0.284147	-0.311804
O18	O	1.739126	0.215853	0.188196
O19	O	1.118887	-0.135120	-0.403126
O20	O	1.618887	0.364880	0.096874
O21	O	1.027543	-0.219915	-0.191478
O22	O	1.527543	0.280085	0.308522
O23	O	0.907173	-0.219863	-0.311893
O24	O	1.407173	0.280137	0.188107
O25	O	1.027553	-0.284056	-0.523455
O26	O	1.527553	0.215944	-0.023455
O27	O	0.907133	-0.284063	-0.403079
O28	O	1.407133	0.215937	0.096921
O29	O	1.118834	-0.219852	-0.523475
O30	O	1.618834	0.280148	-0.023475
O31	O	1.118653	-0.368885	-0.311777
O32	O	1.618653	0.131115	0.188223
O33	O	1.027450	-0.368846	-0.403013
O34	O	1.527450	0.131154	0.096987
C35	C	0.880207	-0.251958	-0.357491
C36	C	1.380207	0.248042	0.142509
C37	C	0.797661	-0.251956	-0.357522
C38	C	1.297661	0.248044	0.142478
C39	C	0.598210	-0.286968	-0.406992
C40	C	1.098210	0.213032	0.093008
C41	C	0.548823	-0.239293	-0.425278
C42	C	1.048823	0.260707	0.074722
C43	C	0.646531	-0.251985	-0.357486
C44	C	1.146531	0.248015	0.142514
C45	C	0.548836	-0.299687	-0.339199
C46	C	1.048836	0.200313	0.160801
C47	C	0.500546	-0.252017	-0.357452
C48	C	1.000546	0.247983	0.142548
C49	C	0.598231	-0.204284	-0.375808
C50	C	1.098231	0.295716	0.124192
C51	C	0.598248	-0.264711	-0.289697
C52	C	1.098248	0.235289	0.210303
C53	C	0.548884	-0.217003	-0.307958
C54	C	1.048884	0.282997	0.192042
C55	C	0.730629	-0.251967	-0.357507
C56	C	1.230629	0.248033	0.142493
C57	C	0.416449	-0.252030	-0.357431
C58	C	0.916449	0.247970	0.142569
C59	C	1.073054	-0.387837	-0.357401
C60	C	1.573054	0.112163	0.142599
C61	C	1.073077	-0.445951	-0.357401
C62	C	1.573077	0.054049	0.142599
C63	C	1.120691	-0.806273	-0.405036
C64	C	1.620691	-0.306273	0.094964
C65	C	1.120713	-0.860877	-0.405051
C66	C	1.620713	-0.360877	0.094949
O67	O	1.161072	-0.889079	-0.445492
O68	O	1.661072	-0.389079	0.054508
N69	N	1.073262	-0.888233	-0.357531
N70	N	1.573262	-0.388233	0.142469
C71	C	1.025780	-0.860982	-0.309998
C72	C	1.525780	-0.360982	0.190002
O73	O	0.985421	-0.889265	-0.269580
O74	O	1.485421	-0.389265	0.230420
C75	C	1.025755	-0.806379	-0.309987
C76	C	1.525755	-0.306379	0.190013
C77	C	1.073215	-0.779025	-0.357505
C78	C	1.573215	-0.279025	0.142495
C79	C	1.168147	-0.778919	-0.452551
C80	C	1.668147	-0.278919	0.047449
C81	C	1.168126	-0.724319	-0.452534
C82	C	1.668126	-0.224319	0.047466
C83	C	1.120649	-0.697072	-0.405003
C84	C	1.620649	-0.197072	0.094997
C85	C	1.073194	-0.724425	-0.357489
C86	C	1.573194	-0.224425	0.142511
C87	C	0.978271	-0.779129	-0.262458
C88	C	1.478271	-0.279129	0.237542
C89	C	0.978249	-0.724522	-0.262452
C90	C	1.478249	-0.224522	0.237548
C91	C	1.025709	-0.697168	-0.309970
C92	C	1.525709	-0.197168	0.190030
C93	C	1.025696	-0.642577	-0.309941
C94	C	1.525696	-0.142577	0.190059
N95	N	1.073148	-0.615221	-0.357462
N96	N	1.573148	-0.115221	0.142538
C97	C	1.120624	-0.642468	-0.404993
C98	C	1.620624	-0.142468	0.095007
C99	C	1.025836	-0.975653	-0.310025
C100	C	1.525836	-0.475653	0.189975
C101	C	1.025864	-1.030255	-0.310031
C102	C	1.525864	-0.530255	0.189969
C103	C	1.120796	-1.030146	-0.405086
C104	C	1.620796	-0.530146	0.094914
C105	C	1.120771	-0.975543	-0.405075
C106	C	1.620771	-0.475543	0.094925
C107	C	1.073287	-0.948297	-0.357545
C108	C	1.573287	-0.448297	0.142455
C109	C	1.120577	-0.527803	-0.404954
C110	C	1.620577	-0.027803	0.095046
C111	C	1.120554	-0.473198	-0.404932
C112	C	1.620554	0.026802	0.095068
C113	C	1.025619	-0.473312	-0.309880
C114	C	1.525619	0.026688	0.190120
C115	C	1.025645	-0.527912	-0.309900
C116	C	1.525645	-0.027912	0.190100
C117	C	1.073126	-0.555157	-0.357443
C118	C	1.573126	-0.055157	0.142557
O119	O	0.985356	-0.614341	-0.269523
O120	O	1.485356	-0.114341	0.230477
O121	O	1.160970	-0.614179	-0.445411
O122	O	1.660970	-0.114179	0.054589
C123	C	1.266865	-0.252030	-0.357427
C124	C	1.766865	0.247970	0.142573
C125	C	1.349410	-0.252046	-0.357414
C126	C	1.849410	0.247954	0.142586
C127	C	1.073199	-0.251947	-0.551165
C128	C	1.573199	0.248053	-0.051165
C129	C	1.073217	-0.251927	-0.633711
C130	C	1.573217	0.248073	-0.133711
C131	C	1.073285	-0.115621	-0.357534
C132	C	1.573285	0.384379	0.142466
C133	C	1.073338	-0.057507	-0.357565
C134	C	1.573338	0.442493	0.142435
C135	C	1.122901	-0.216978	-0.882547
C136	C	1.622901	0.283022	-0.382547
C137	C	1.141018	-0.264687	-0.833117
C138	C	1.641018	0.235313	-0.333117
C139	C	1.073264	-0.251894	-0.930831
C140	C	1.573264	0.248106	-0.430831
C141	C	1.055159	-0.204204	-0.833179
C142	C	1.555159	0.295796	-0.333179
C143	C	1.073243	-0.251908	-0.784846
C144	C	1.573243	0.248092	-0.284846
C145	C	1.091416	-0.299629	-0.882488
C146	C	1.591416	0.200371	-0.382488
C147	C	1.005526	-0.239114	-0.882555
C148	C	1.505526	0.260886	-0.382555
C149	C	1.023617	-0.286856	-0.833147
C150	C	1.523617	0.213144	-0.333147
C151	C	1.073279	-0.251886	-1.014929
C152	C	1.573279	0.248114	-0.514929
C153	C	1.073228	-0.251922	-0.700749
C154	C	1.573228	0.248078	-0.200749
C155	C	1.073162	-0.252003	-0.164507
C156	C	1.573162	0.247997	0.335493
C157	C	1.073288	-0.251876	-0.081962
C158	C	1.573288	0.248124	0.418038
H159	H	0.527361	-0.187399	-0.266078
H160	H	1.027361	0.312601	0.233922
H161	H	1.198293	-0.275505	-0.811400
H162	H	1.698293	0.224495	-0.311400
N163	N	0.520055	-0.225046	-0.501189
N164	N	1.020055	0.274954	-0.001189
H165	H	0.563156	-0.218899	-0.535799
H166	H	1.063156	0.281101	-0.035799
H167	H	0.488456	-0.254460	-0.520842
H168	H	0.988456	0.245540	-0.020842
N169	N	0.974627	-0.946272	-0.258743
N170	N	1.474627	-0.446272	0.241257
H171	H	1.004819	-0.923625	-0.224341
H172	H	1.504819	-0.423625	0.275659
H173	H	0.940185	-0.923645	-0.288940
H174	H	1.440185	-0.423645	0.211060
N175	N	1.111786	-0.353075	-0.911047
N176	N	1.611786	0.146925	-0.411047
H177	H	1.074537	-0.379485	-0.892656
H178	H	1.574537	0.120515	-0.392656
H179	H	1.111702	-0.352690	-0.966997
H180	H	1.611702	0.147310	-0.466997
H181	H	0.987226	-1.052522	-0.271329
H182	H	1.487226	-0.552522	0.228671
N183	N	1.172003	-1.059529	-0.456368
N184	N	1.672003	-0.559529	0.043632
H185	H	1.206451	-1.082190	-0.426225
H186	H	1.706451	-0.582190	0.073775
H187	H	1.141753	-1.082144	-0.490760
H188	H	1.641753	-0.582144	0.009240
N189	N	0.927083	-0.808623	-0.211204
N190	N	1.427083	-0.308623	0.288796
H191	H	0.897005	-0.783068	-0.181100
H192	H	1.397005	-0.283068	0.318900
H193	H	0.892703	-0.831274	-0.241417
H194	H	1.392703	-0.331274	0.258583
H195	H	0.619838	-0.163945	-0.391325
H196	H	1.119838	0.336055	0.108675
N197	N	1.034875	-0.150777	-0.804488
N198	N	1.534875	0.349223	-0.304488
H199	H	1.034546	-0.151260	-0.748539
H200	H	1.534546	0.348740	-0.248539
H201	H	1.072428	-0.124456	-0.822510
H202	H	1.572428	0.375544	-0.322510
N203	N	0.627022	-0.278967	-0.213797
N204	N	1.127022	0.221033	0.286203
H205	H	0.609083	-0.315013	-0.200038
H206	H	1.109083	0.184987	0.299962
H207	H	0.682967	-0.278481	-0.214305
H208	H	1.182967	0.221519	0.285695
N209	N	0.927031	-0.695135	-0.211188
N210	N	1.427031	-0.195135	0.288812
H211	H	0.896973	-0.720752	-0.181091
H212	H	1.396973	-0.220752	0.318909
H213	H	0.957270	-0.672488	-0.176830
H214	H	1.457270	-0.172488	0.323170
N215	N	0.968004	-0.326017	-0.804584
N216	N	1.468004	0.173983	-0.304584
H217	H	0.943175	-0.343934	-0.847774
H218	H	1.443175	0.156066	-0.347774
H219	H	0.994229	-0.352811	-0.773035
H220	H	1.494229	0.147189	-0.273035
N221	N	0.520095	-0.353104	-0.318721
N222	N	1.020095	0.146896	0.181279
H223	H	0.538040	-0.379486	-0.356165
H224	H	1.038040	0.120514	0.143835
H225	H	0.538856	-0.362927	-0.267882
H226	H	1.038856	0.137073	0.232118
H227	H	1.159204	-0.450928	-0.443627
H228	H	1.659204	0.049072	0.056373
N229	N	1.171779	-0.557184	-0.456239
N230	N	1.671779	-0.057184	0.043761
H231	H	1.201833	-0.531563	-0.486335
H232	H	1.701833	-0.031563	0.013665
H233	H	1.206180	-0.579845	-0.426047
H234	H	1.706180	-0.079845	0.073953
N235	N	0.929679	-0.224769	-0.911343
N236	N	1.429679	0.275231	-0.411343
H237	H	0.916054	-0.188713	-0.893439
H238	H	1.416054	0.311287	-0.393439
H239	H	0.930188	-0.225238	-0.967288
H240	H	1.430188	0.274762	-0.467288
H241	H	1.206769	-0.702051	-0.491230
H242	H	1.706769	-0.202051	0.008770
H243	H	1.206808	-0.801098	-0.491261
H244	H	1.706808	-0.301098	0.008739
H245	H	0.987005	-0.550184	-0.271201
H246	H	1.487005	-0.050184	0.228799
N247	N	0.626901	-0.326091	-0.462500
N248	N	1.126901	0.173909	0.037500
H249	H	0.608920	-0.316419	-0.513682
H250	H	1.108920	0.183581	-0.013682
H251	H	0.682847	-0.326023	-0.461725
H252	H	1.182847	0.173977	0.038275
H253	H	0.986966	-0.451118	-0.271179
H254	H	1.486966	0.048882	0.228821
N255	N	1.171958	-0.946042	-0.456327
N256	N	1.671958	-0.446042	0.043673
H257	H	1.202036	-0.971594	-0.486435
H258	H	1.702036	-0.471594	0.013565
H259	H	1.141699	-0.923382	-0.490674
H260	H	1.641699	-0.423382	0.009326
H261	H	1.164919	-0.187481	-0.904237
H262	H	1.664919	0.312519	-0.404237
