data_functionalizedCrystal
_audit_creation_method	'MofGen! by Chris Wilmer'
_symmetry_space_group_name_H-M	'P1'
_symmetry_Int_Tables_number	1
_symmetry_cell_setting	triclinic
loop_
_symmetry_equiv_pos_as_xyz
  x,y,z
_cell_length_a	9.065218
_cell_length_b	10.654583
_cell_length_c	8.140239
_cell_angle_alpha	89.994355
_cell_angle_beta	90.003650
_cell_angle_gamma	95.242792
loop_
_atom_site_label
_atom_site_type_symbol
_atom_site_fract_x
_atom_site_fract_y
_atom_site_fract_z
O1	O	0.207471	-1.668630	0.136824
O2	O	0.227164	-1.303235	0.136779
O3	O	0.002635	-1.493485	0.136799
O4	O	0.432000	-1.478380	0.136804
O5	O	0.002623	-1.493485	-0.136428
O6	O	0.227152	-1.303235	-0.136448
O7	O	0.207459	-1.668630	-0.136403
Zn8	Zn	0.217304	-1.485933	-0.179807
Zn9	Zn	0.217320	-1.485933	0.180182
O10	O	0.431988	-1.478380	-0.136423
C11	C	0.225702	-1.256432	0.000159
C12	C	0.221345	-1.116974	0.000142
C13	C	0.219306	-1.051435	-0.148785
C14	C	0.215224	-0.920398	-0.148766
C15	C	0.215226	-0.920448	0.149121
C16	C	0.219298	-1.051484	0.149100
C17	C	0.219311	-1.051405	-0.320768
C18	C	0.215229	-0.920368	-0.320749
C19	C	-0.052350	-1.492034	0.000188
C20	C	-0.216170	-1.487693	0.000195
C21	C	0.486973	-1.479832	0.000191
C22	C	0.650793	-1.484172	0.000195
C23	C	0.208900	-0.715435	0.000203
C24	C	0.213192	-0.854900	0.000182
N25	N	0.217320	-1.485933	0.425864
N26	N	0.217303	-1.485930	0.574511
H27	H	0.213560	-0.867111	0.270397
C28	C	0.081564	-1.113362	-0.409965
H29	H	0.022142	-1.049922	-0.446622
H30	H	0.111718	-1.159881	-0.501659
H31	H	0.025834	-1.168494	-0.336618
C32	C	0.364663	-1.091945	-0.392873
H33	H	0.426571	-1.019323	-0.424976
H34	H	0.413953	-1.137233	-0.312264
H35	H	0.343133	-1.144276	-0.485893
C36	C	0.069871	-0.879809	-0.392858
H37	H	0.007966	-0.952422	-0.424992
H38	H	0.020579	-0.834551	-0.312236
H39	H	0.091398	-0.827444	-0.485857
H40	H	0.317192	-0.874486	-0.386776
H41	H	0.220935	-1.104842	0.270371
