data_functionalizedCrystal
_audit_creation_method	'MofGen! by Chris Wilmer'
_symmetry_space_group_name_H-M	'P1'
_symmetry_Int_Tables_number	1
_symmetry_cell_setting	triclinic
loop_
_symmetry_equiv_pos_as_xyz
  x,y,z
_cell_length_a	14.519709
_cell_length_b	17.699083
_cell_length_c	12.996460
_cell_angle_alpha	89.992964
_cell_angle_beta	90.000034
_cell_angle_gamma	83.481580
loop_
_atom_site_label
_atom_site_type_symbol
_atom_site_fract_x
_atom_site_fract_y
_atom_site_fract_z
O1	O	-1.223447	-0.099215	0.085435
O2	O	-0.954920	-0.110899	0.085467
O3	O	-1.096770	0.005111	0.085441
O4	O	-1.081597	-0.215224	0.085461
O5	O	-1.096756	0.005117	-0.085693
O6	O	-0.954906	-0.110892	-0.085667
O7	O	-1.223432	-0.099209	-0.085699
Cu8	Cu	-1.089168	-0.105050	-0.101309
Cu9	Cu	-1.089185	-0.105057	0.101077
O10	O	-1.081583	-0.215218	-0.085673
C11	C	-1.096219	0.033312	-0.000126
C12	C	-1.094588	0.117335	-0.000126
C13	C	-0.920556	-0.110351	-0.000096
C14	C	-0.818181	-0.108719	-0.000084
C15	C	-1.257797	-0.099756	-0.000134
C16	C	-1.360171	-0.101388	-0.000139
C17	C	-0.443311	-0.102712	-0.000132
C18	C	-0.547612	-0.104380	-0.000118
C19	C	-0.630743	-0.105716	-0.000107
C20	C	-0.735050	-0.107384	-0.000096
C21	C	-1.082134	-0.243420	-0.000104
C22	C	-1.083765	-0.327442	-0.000097
N23	N	-1.089162	-0.105044	-0.243656
C24	C	-1.177851	0.165718	-0.000138
C25	C	-1.176313	0.244665	-0.000128
C26	C	-1.091511	0.275229	-0.000115
C27	C	-1.008242	0.226840	-0.000101
C28	C	-1.009781	0.147894	-0.000103
C29	C	-1.002033	0.545221	-0.000092
C30	C	-1.000501	0.624173	-0.000093
C31	C	-1.168566	0.641992	-0.000117
C32	C	-1.170105	0.563046	-0.000119
C33	C	-1.086836	0.514664	-0.000099
C34	C	-1.088505	0.429060	-0.000108
C35	C	-1.089841	0.360831	-0.000114
C36	C	-1.089184	-0.105058	-0.663470
C37	C	-1.089175	-0.105057	-0.546665
C38	C	-1.089173	-0.105052	-0.453567
C39	C	-1.089164	-0.105049	-0.336754
N40	N	-1.089198	-0.105057	0.243424
H41	H	-1.244114	0.284056	-0.000140
O42	O	-0.909031	0.657140	-0.000081
H43	H	-0.904326	0.692685	0.069664
H44	H	-0.934231	0.505837	-0.000076
H45	H	-0.939195	0.251731	-0.000084
H46	H	-1.239159	0.538166	-0.000135
O47	O	-1.258380	0.694178	-0.000137
H48	H	-1.298987	0.683287	0.069599
H49	H	-0.941980	0.108501	-0.000093
H50	H	-1.246907	0.140840	-0.000155
