data_functionalizedCrystal
_audit_creation_method	'MofGen! by Chris Wilmer'
_symmetry_space_group_name_H-M	'P1'
_symmetry_Int_Tables_number	1
_symmetry_cell_setting	triclinic
loop_
_symmetry_equiv_pos_as_xyz
  x,y,z
_cell_length_a	10.908925
_cell_length_b	10.967829
_cell_length_c	7.088929
_cell_angle_alpha	71.681627
_cell_angle_beta	85.346403
_cell_angle_gamma	107.315254
loop_
_atom_site_label
_atom_site_type_symbol
_atom_site_fract_x
_atom_site_fract_y
_atom_site_fract_z
O1	O	-1.694021	-0.182681	-0.098952
O2	O	-1.318305	-0.082189	-0.132029
O3	O	-1.519889	-0.321973	-0.053039
O4	O	-1.492438	0.057102	-0.177943
O5	O	-1.546829	-0.354077	0.275512
O6	O	-1.345246	-0.114294	0.196522
O7	O	-1.720962	-0.214786	0.229599
Cu8	Cu	-1.535564	-0.167471	0.243060
Cu9	Cu	-1.503703	-0.129504	-0.145490
O10	O	-1.519379	0.024998	0.150609
C11	C	-1.283761	-0.088850	0.029156
C12	C	-1.140694	-0.060883	0.019954
C13	C	-1.533397	-0.385792	0.126972
C14	C	-1.533495	-0.528121	0.173858
C15	C	-0.945703	-0.134044	0.044037
C16	C	-1.093574	-0.162956	0.053579
C17	C	-1.519583	-0.574938	0.024560
C18	C	-1.519684	-0.722041	0.073014
C19	C	-0.755507	-0.208127	0.068424
C20	C	-0.898578	-0.236103	0.077657
C21	C	-1.505870	0.088818	-0.029407
C22	C	-1.505771	0.231147	-0.076305
N23	N	-1.557982	-0.194178	0.516346
N24	N	-1.481295	-0.102810	-0.418772
H25	H	-0.876575	-0.025264	0.008178
F26	F	-1.377411	0.020954	0.433741
H27	H	-1.162696	-0.271741	0.089416
F28	F	-1.050351	0.081313	-0.026915
H29	H	-1.507592	-0.506113	-0.139133
H30	H	-1.637474	-0.288863	0.629193
H31	H	-1.531663	-0.790858	0.236716
F32	F	-0.988925	-0.378287	0.124500
F33	F	-1.490062	-0.678894	-0.290285
H34	H	-1.545473	-0.596941	0.337549
