data_functionalizedCrystal
_audit_creation_method	'MofGen! by Chris Wilmer'
_symmetry_space_group_name_H-M	'P1'
_symmetry_Int_Tables_number	1
_symmetry_cell_setting	triclinic
loop_
_symmetry_equiv_pos_as_xyz
  x,y,z
_cell_length_a	23.532407
_cell_length_b	15.944493
_cell_length_c	15.021413
_cell_angle_alpha	89.993251
_cell_angle_beta	89.999348
_cell_angle_gamma	83.161861
loop_
_atom_site_label
_atom_site_type_symbol
_atom_site_fract_x
_atom_site_fract_y
_atom_site_fract_z
O1	O	0.073285	1.113942	-0.074030
O2	O	0.406618	1.447275	0.259304
O3	O	0.739952	1.780608	0.592637
O4	O	0.082375	0.869309	-0.074035
O5	O	0.415709	1.202642	0.259298
O6	O	0.749042	1.535975	0.592632
O7	O	-0.005074	0.999002	-0.074016
O8	O	0.328259	1.332335	0.259318
O9	O	0.661593	1.665669	0.592651
O10	O	0.160734	0.984248	-0.074049
O11	O	0.494068	1.317582	0.259285
O12	O	0.827401	1.650915	0.592618
O13	O	-0.005062	0.998981	0.074048
O14	O	0.328272	1.332315	0.407382
O15	O	0.661605	1.665648	0.740715
O16	O	0.082388	0.869288	0.074029
O17	O	0.415721	1.202621	0.407362
O18	O	0.749054	1.535955	0.740696
O19	O	0.073298	1.113921	0.074035
O20	O	0.406631	1.447254	0.407368
O21	O	0.739964	1.780588	0.740701
Zn22	Zn	0.077845	0.991601	0.097540
Zn23	Zn	0.411178	1.324935	0.430874
Zn24	Zn	0.744511	1.658268	0.764207
Zn25	Zn	0.077828	0.991628	-0.097541
Zn26	Zn	0.411161	1.324962	0.235793
Zn27	Zn	0.744495	1.658295	0.569126
O28	O	0.160747	0.984228	0.074015
O29	O	0.494080	1.317561	0.407349
O30	O	0.827413	1.650894	0.740682
C31	C	0.082010	0.838007	-0.000003
C32	C	0.415343	1.171340	0.333330
C33	C	0.748677	1.504673	0.666663
C34	C	0.080896	0.744768	-0.000005
C35	C	0.414229	1.078101	0.333329
C36	C	0.747563	1.411434	0.666662
C37	C	0.132371	0.508574	-0.000016
C38	C	0.465704	0.841907	0.333318
C39	C	0.799037	1.175241	0.666651
C40	C	0.104619	0.458239	0.072997
C41	C	0.437952	0.791573	0.406330
C42	C	0.771285	1.124906	0.739664
C43	C	0.078832	0.574064	-0.000003
C44	C	0.412165	0.907397	0.333331
C45	C	0.745499	1.240731	0.666664
C46	C	0.104594	0.458264	-0.072983
C47	C	0.437927	0.791598	0.260351
C48	C	0.771260	1.124931	0.593684
C49	C	0.076843	0.409171	-0.000004
C50	C	0.410176	0.742504	0.333329
C51	C	0.743509	1.075838	0.666662
C52	C	0.051095	0.524957	0.073070
C53	C	0.384428	0.858291	0.406404
C54	C	0.717761	1.191624	0.739737
C55	C	0.051077	0.524986	-0.072975
C56	C	0.384411	0.858319	0.260358
C57	C	0.717744	1.191652	0.593692
C58	C	0.023286	0.474684	0.000056
C59	C	0.356619	0.808018	0.333389
C60	C	0.689953	1.141351	0.666722
C61	C	0.079980	0.669054	-0.000001
C62	C	0.413313	1.002387	0.333332
C63	C	0.746647	1.335721	0.666666
C64	C	0.075691	0.314184	0.000000
C65	C	0.409024	0.647517	0.333333
C66	C	0.742357	0.980850	0.666667
C67	C	-0.026285	0.998616	0.000019
C68	C	0.307048	1.331949	0.333352
C69	C	0.640381	1.665283	0.666685
C70	C	-0.089506	0.997486	0.000025
C71	C	0.243827	1.330820	0.333359
C72	C	0.577160	1.664153	0.666692
C73	C	-0.488350	1.067151	-0.000022
C74	C	-0.155016	1.400485	0.333311
C75	C	0.178317	1.733818	0.666645
C76	C	-0.547754	1.066102	-0.000029
C77	C	-0.214420	1.399435	0.333305
C78	C	0.118913	1.732769	0.666638
O79	O	-0.584257	1.130682	-0.000060
O80	O	-0.250924	1.464015	0.333273
O81	O	0.082409	1.797349	0.666607
N82	N	-0.570668	0.988999	-0.000030
N83	N	-0.237334	1.322333	0.333304
N84	N	0.095999	1.655666	0.666637
C85	C	-0.534174	0.912941	-0.000033
C86	C	-0.200841	1.246274	0.333300
C87	C	0.132493	1.579608	0.666634
O88	O	-0.559119	0.847263	-0.000035
O89	O	-0.225785	1.180596	0.333298
O90	O	0.107548	1.513930	0.666631
C91	C	-0.474771	0.913991	-0.000033
C92	C	-0.141438	1.247325	0.333301
C93	C	0.191896	1.580658	0.666634
C94	C	-0.451861	0.991099	-0.000023
C95	C	-0.118527	1.324432	0.333311
C96	C	0.214806	1.657766	0.666644
C97	C	-0.465439	1.144253	-0.000013
C98	C	-0.132105	1.477586	0.333321
C99	C	0.201228	1.810919	0.666654
C100	C	-0.406038	1.145302	-0.000004
C101	C	-0.072705	1.478635	0.333329
C102	C	0.260628	1.811968	0.666662
C103	C	-0.369549	1.069249	-0.000005
C104	C	-0.036216	1.402583	0.333328
C105	C	0.297117	1.735916	0.666662
C106	C	-0.392460	0.992148	-0.000014
C107	C	-0.059127	1.325481	0.333319
C108	C	0.274206	1.658815	0.666653
C109	C	-0.438278	0.837934	-0.000042
C110	C	-0.104945	1.171267	0.333291
C111	C	0.228388	1.504601	0.666624
C112	C	-0.378872	0.838991	-0.000043
C113	C	-0.045539	1.172324	0.333291
C114	C	0.287795	1.505657	0.666624
C115	C	-0.355962	0.916098	-0.000033
C116	C	-0.022628	1.249432	0.333301
C117	C	0.310705	1.582765	0.666634
C118	C	-0.296571	0.917144	-0.000006
C119	C	0.036762	1.250478	0.333327
C120	C	0.370095	1.583811	0.666660
N121	N	-0.273657	0.994247	-0.000005
N122	N	0.059676	1.327580	0.333328
N123	N	0.393009	1.660914	0.666661
C124	C	-0.310146	1.070300	-0.000005
C125	C	0.023187	1.403633	0.333329
C126	C	0.356520	1.736966	0.666662
C127	C	-0.658925	0.910741	-0.000036
C128	C	-0.325591	1.244075	0.333298
C129	C	0.007742	1.577408	0.666631
C130	C	-0.718327	0.909690	-0.000030
C131	C	-0.384993	1.243024	0.333304
C132	C	-0.051660	1.576357	0.666637
C133	C	-0.731902	1.062852	-0.000027
C134	C	-0.398569	1.396185	0.333307
C135	C	-0.065236	1.729518	0.666640
C136	C	-0.672499	1.063902	-0.000026
C137	C	-0.339166	1.397235	0.333307
C138	C	-0.005833	1.730569	0.666640
C139	C	-0.636011	0.987844	-0.000034
C140	C	-0.302677	1.321177	0.333299
C141	C	0.030656	1.654511	0.666632
C142	C	-0.185401	1.072497	0.000014
C143	C	0.147932	1.405830	0.333347
C144	C	0.481265	1.739163	0.666681
C145	C	-0.125996	1.073539	0.000026
C146	C	0.207338	1.406872	0.333359
C147	C	0.540671	1.740206	0.666693
C148	C	-0.112425	0.920378	0.000019
C149	C	0.220908	1.253711	0.333352
C150	C	0.554242	1.587045	0.666685
C151	C	-0.171826	0.919335	0.000011
C152	C	0.161508	1.252669	0.333344
C153	C	0.494841	1.586002	0.666678
C154	C	-0.208313	0.995402	0.000006
C155	C	0.125020	1.328735	0.333339
C156	C	0.458354	1.662068	0.666672
O157	O	-0.260033	0.852598	0.000021
O158	O	0.073300	1.185932	0.333355
O159	O	0.406634	1.519265	0.666688
O160	O	-0.285193	1.135967	-0.000014
O161	O	0.048140	1.469300	0.333319
O162	O	0.381473	1.802634	0.666653
C163	C	0.181958	0.984614	-0.000021
C164	C	0.515291	1.317947	0.333312
C165	C	0.848625	1.651280	0.666646
C166	C	0.245179	0.985743	-0.000034
C167	C	0.578513	1.319077	0.333300
C168	C	0.911846	1.652410	0.666633
C169	C	0.073663	1.145223	0.000001
C170	C	0.406996	1.478556	0.333334
C171	C	0.740329	1.811890	0.666668
C172	C	0.074777	1.238462	-0.000003
C173	C	0.408110	1.571796	0.333330
C174	C	0.741443	1.905129	0.666663
N175	N	0.077855	0.991589	0.230678
N176	N	0.411189	1.324922	0.564011
N177	N	0.744522	1.658256	0.897345
N178	N	0.077813	0.991648	-0.230678
N179	N	0.411146	1.324981	0.102655
N180	N	0.744479	1.658314	0.435988
C181	C	0.118273	0.931610	0.470352
C182	C	0.451606	1.264943	0.803686
C183	C	0.784940	1.598276	1.137019
C184	C	0.129319	1.007419	0.529686
C185	C	0.462652	1.340752	0.863019
C186	C	0.795985	1.674086	1.196353
C187	C	0.077841	0.991610	0.412285
C188	C	0.411175	1.324944	0.745618
C189	C	0.744508	1.658277	1.078951
C190	C	0.066808	0.915822	0.529693
C191	C	0.400142	1.249155	0.863026
C192	C	0.733475	1.582488	1.196360
C193	C	0.077829	0.991625	0.587709
C194	C	0.411162	1.324958	0.921042
C195	C	0.744495	1.658291	1.254376
C196	C	0.088912	1.067458	0.470312
C197	C	0.422246	1.400791	0.803645
C198	C	0.755579	1.734125	1.136979
C199	C	0.026380	0.975811	0.470314
C200	C	0.359713	1.309144	0.803647
C201	C	0.693047	1.642477	1.136981
C202	C	0.037404	1.051675	0.529621
C203	C	0.370737	1.385008	0.862954
C204	C	0.704070	1.718342	1.196287
C205	C	0.077850	0.991601	0.311227
C206	C	0.411183	1.324934	0.644561
C207	C	0.744517	1.658268	0.977894
C208	C	0.077820	0.991643	0.688764
C209	C	0.411153	1.324976	1.022097
C210	C	0.744486	1.658309	1.355431
H211	H	0.028479	0.554131	-0.134695
H212	H	0.361812	0.887464	0.198639
H213	H	0.695146	1.220797	0.531972
H214	H	0.127209	0.429144	-0.134700
H215	H	0.460543	0.762477	0.198633
H216	H	0.793876	1.095810	0.531966
F217	F	0.101169	1.151260	0.436366
F218	F	0.434502	1.484593	0.769699
F219	F	0.767835	1.817926	1.103032
F220	F	-0.101617	1.155611	0.000036
F221	F	0.231717	1.488944	0.333370
F222	F	0.565050	1.822278	0.666703
F223	F	0.021567	0.562872	0.153833
F224	F	0.354900	0.896205	0.487166
F225	F	0.688233	1.229538	0.820500
F226	F	-0.620095	0.829785	-0.000036
F227	F	-0.286762	1.163118	0.333297
F228	F	0.046572	1.496451	0.666631
H229	H	0.152492	0.880920	0.444329
H230	H	0.485826	1.214253	0.777663
H231	H	0.819159	1.547586	1.110996
H232	H	-0.022867	0.459607	0.000107
H233	H	0.310467	0.792941	0.333440
H234	H	0.643800	1.126274	0.666774
H235	H	0.127234	0.429103	0.134714
H236	H	0.460567	0.762436	0.468047
H237	H	0.793901	1.095769	0.801380
F238	F	-0.007297	1.118075	0.563426
F239	F	0.326037	1.451408	0.896760
F240	F	0.659370	1.784741	1.230093
H241	H	-0.736975	0.846902	-0.000022
H242	H	-0.403641	1.180235	0.333311
H243	H	-0.070308	1.513568	0.666644
F244	F	-0.224226	1.153455	0.000008
F245	F	0.109107	1.486788	0.333341
F246	F	0.442441	1.820122	0.666675
H247	H	0.178488	0.523809	0.000043
H248	H	0.511822	0.857142	0.333377
H249	H	0.845155	1.190476	0.666710
F250	F	-0.030479	0.958296	0.436198
F251	F	0.302855	1.291630	0.769531
F252	F	0.636188	1.624963	1.102864
H253	H	0.057482	0.851722	0.555779
H254	H	0.390816	1.185056	0.889112
H255	H	0.724149	1.518389	1.222446
F256	F	0.186194	1.024904	0.563774
F257	F	0.519527	1.358238	0.897107
F258	F	0.852861	1.691571	1.230440
H259	H	-0.653850	1.126690	-0.000019
H260	H	-0.320517	1.460023	0.333314
H261	H	0.012817	1.793356	0.666648
F262	F	-0.381663	1.227371	-0.000013
F263	F	-0.048330	1.560704	0.333321
F264	F	0.285003	1.894038	0.666654
F265	F	-0.340041	0.758037	-0.000053
F266	F	-0.006708	1.091370	0.333280
F267	F	0.326626	1.424704	0.666614
F268	F	-0.196210	0.837269	0.000016
F269	F	0.137124	1.170603	0.333350
F270	F	0.470457	1.503936	0.666683
F271	F	-0.504265	1.225206	-0.000013
F272	F	-0.170932	1.558539	0.333321
F273	F	0.162402	1.891872	0.666654
H274	H	-0.456921	0.775145	-0.000056
H275	H	-0.123588	1.108478	0.333277
H276	H	0.209746	1.441811	0.666611
F277	F	-0.770747	1.143794	-0.000031
F278	F	-0.437414	1.477127	0.333303
F279	F	-0.104080	1.810461	0.666636
F280	F	-0.073581	0.839442	0.000018
F281	F	0.259753	1.172775	0.333351
F282	F	0.593086	1.506109	0.666685
