data_functionalizedCrystal
_audit_creation_method	'MofGen! by Chris Wilmer'
_symmetry_space_group_name_H-M	'P1'
_symmetry_Int_Tables_number	1
_symmetry_cell_setting	triclinic
loop_
_symmetry_equiv_pos_as_xyz
  x,y,z
_cell_length_a	15.995350
_cell_length_b	10.723024
_cell_length_c	15.072220
_cell_angle_alpha	90.006883
_cell_angle_beta	89.998756
_cell_angle_gamma	96.019878
loop_
_atom_site_label
_atom_site_type_symbol
_atom_site_fract_x
_atom_site_fract_y
_atom_site_fract_z
O1	O	1.111909	-0.160848	-0.073705
O2	O	0.868248	-0.180710	-0.073723
O3	O	0.995699	0.010869	-0.073710
O4	O	0.984458	-0.352427	-0.073718
O5	O	0.995688	0.010887	0.073855
O6	O	0.868237	-0.180692	0.073842
O7	O	1.111898	-0.160830	0.073860
Zn8	Zn	0.990066	-0.170758	0.097280
Zn9	Zn	0.990081	-0.170782	-0.097143
O10	O	0.984447	-0.352409	0.073847
C11	C	0.837043	-0.179880	0.000057
C12	C	0.744079	-0.177418	0.000050
N13	N	0.990062	-0.170741	0.229969
C14	C	0.994876	0.057367	0.000071
C15	C	0.992428	0.195890	0.000068
C16	C	0.406280	-0.168577	0.000069
C17	C	0.452931	-0.032138	0.000401
C18	C	0.549635	-0.034601	0.000062
C19	C	0.573866	-0.172962	0.000060
C20	C	0.533172	-0.240269	-0.084204
C21	C	0.436516	-0.236841	-0.084269
C22	C	0.436181	-0.239640	0.083540
C23	C	0.533126	-0.239608	0.084648
C24	C	0.668578	-0.175448	0.000052
C25	C	0.311568	-0.166096	0.000071
C26	C	1.143103	-0.161660	0.000078
C27	C	1.236068	-0.164122	0.000079
C28	C	0.985271	-0.398907	0.000064
C29	C	0.987718	-0.537430	0.000061
C30	C	1.063743	0.271783	0.000072
C31	C	1.061215	0.414954	0.000068
N32	N	0.990091	-0.170789	-0.229832
C33	C	0.990072	-0.170758	0.410967
C34	C	1.058284	-0.068283	0.448615
C35	C	1.058536	-0.068556	0.551440
C36	C	0.990081	-0.170772	0.589171
C37	C	1.009550	-0.301131	0.551824
C38	C	1.010035	-0.300522	0.448966
C39	C	0.902191	-0.144047	0.448880
C40	C	0.902768	-0.141097	0.551744
C41	C	0.990085	-0.170788	0.689884
C42	C	0.990070	-0.170750	0.310253
H43	H	0.577756	0.018305	0.060467
C44	C	1.148758	0.216374	0.000085
N45	N	1.212793	0.174642	0.000098
C46	C	0.394050	-0.375538	0.084311
N47	N	0.362313	-0.477891	0.084886
C48	C	1.143696	0.503048	0.000074
N49	N	1.205823	0.569405	0.000076
H50	H	0.577192	0.018648	-0.060445
C51	C	0.905234	0.374483	0.000056
N52	N	0.843107	0.308126	0.000050
H53	H	0.560156	-0.190474	0.146987
C54	C	1.042782	0.062327	0.585557
N55	N	1.030915	0.160912	0.611249
H56	H	0.417931	-0.187774	-0.147257
C57	C	0.882813	-0.011550	0.584733
N58	N	0.867783	0.086023	0.609590
C59	C	1.042789	0.063050	0.415218
N60	N	1.031116	0.161973	0.390059
C61	C	1.145884	-0.091100	0.413716
N62	N	1.211864	-0.108297	0.387436
H63	H	0.929501	0.236910	0.000057
C64	C	0.554679	-0.375910	0.091534
N65	N	0.570919	-0.478575	0.096717
H66	H	1.123744	-0.085677	0.576045
H67	H	1.074138	-0.323984	0.424973
H68	H	0.962123	-0.378910	0.424060
H69	H	1.072925	-0.325157	0.577583
H70	H	0.961206	-0.379248	0.576262
C71	C	0.877049	-0.018326	0.413853
N72	N	0.858122	0.076373	0.387472
C73	C	0.830938	-0.235369	0.586418
N74	N	0.776839	-0.306392	0.612527
C75	C	0.833606	-0.244989	0.415980
N76	N	0.781954	-0.321021	0.391193
H77	H	0.404844	-0.337013	-0.088094
C78	C	0.571141	-0.177129	-0.168925
N79	N	0.599737	-0.129563	-0.232735
C80	C	0.427470	0.041552	0.082037
N81	N	0.408286	0.097058	0.143527
C82	C	0.553047	-0.377594	-0.088446
N83	N	0.568019	-0.481027	-0.091639
C84	C	0.408095	-0.179361	0.169828
N85	N	0.386942	-0.133944	0.234815
H86	H	0.433030	0.022141	-0.059693
