data_functionalizedCrystal
_audit_creation_method	'MofGen! by Chris Wilmer'
_symmetry_space_group_name_H-M	'P1'
_symmetry_Int_Tables_number	1
_symmetry_cell_setting	triclinic
loop_
_symmetry_equiv_pos_as_xyz
  x,y,z
_cell_length_a	10.654550
_cell_length_b	11.804365
_cell_length_c	10.654550
_cell_angle_alpha	78.051847
_cell_angle_beta	84.484903
_cell_angle_gamma	101.967841
loop_
_atom_site_label
_atom_site_type_symbol
_atom_site_fract_x
_atom_site_fract_y
_atom_site_fract_z
O1	O	1.693018	0.099123	0.151237
O2	O	1.327534	0.099104	0.168048
O3	O	1.518678	0.099110	-0.023096
O4	O	1.501874	0.099118	0.342380
O5	O	1.468357	-0.098948	0.027174
O6	O	1.277213	-0.098953	0.218317
O7	O	1.642696	-0.098934	0.201506
Cu8	Cu	1.455360	-0.117028	0.214502
Cu9	Cu	1.514871	0.117198	0.155052
O10	O	1.451553	-0.098940	0.392650
C11	C	1.255575	0.000073	0.191949
C12	C	1.116130	0.000065	0.188259
N13	N	1.413512	-0.281770	0.256315
C14	C	1.036649	0.000085	0.300796
C15	C	0.905633	0.000106	0.297314
C16	C	0.933593	0.000092	0.068748
C17	C	1.064604	0.000063	0.072233
C18	C	1.020507	0.000098	0.432755
C19	C	0.889491	0.000119	0.429274
C20	C	1.657219	-0.655711	0.012797
C21	C	1.688875	-0.531049	-0.018840
C22	C	1.620037	-0.468723	0.049946
C23	C	1.519538	-0.531072	0.150374
C24	C	1.487885	-0.655747	0.182021
C25	C	1.450703	-0.468758	0.219170
C26	C	1.350204	-0.531107	0.319599
C27	C	1.318556	-0.655770	0.351240
C28	C	1.387394	-0.718096	0.282454
C29	C	1.482355	-0.344083	0.187523
C30	C	1.313021	-0.344119	0.356748
C31	C	1.281365	-0.468781	0.388385
C32	C	1.714656	0.000100	0.177604
C33	C	1.854103	0.000115	0.181292
C34	C	1.492284	0.000082	-0.044759
C35	C	1.488593	0.000086	-0.184204
N36	N	1.556728	0.281940	0.113229
C37	C	1.601135	0.000089	-0.263690
C38	C	1.597660	0.000097	-0.394713
C39	C	1.369091	0.000095	-0.366749
C40	C	1.372568	0.000096	-0.235731
C41	C	1.733097	0.000084	-0.279835
C42	C	1.729622	0.000093	-0.410857
C43	C	1.477947	0.000090	0.414313
C44	C	1.481640	0.000094	0.553755
H45	H	1.129309	0.000029	-0.019401
F46	F	0.878744	0.000088	-0.054728
H47	H	1.028778	-0.082792	0.505404
F48	F	1.653728	-0.336045	0.016271
H49	H	1.564182	-0.293330	0.105755
H50	H	1.077888	0.085609	0.453071
F51	F	1.795829	-0.464696	-0.125717
F52	F	1.245617	0.000108	-0.421600
H53	H	0.868820	0.083013	0.457956
H54	H	0.822095	-0.085387	0.490857
F55	F	1.730481	-0.722046	-0.060391
H56	H	1.361617	-0.819606	0.308208
F57	F	1.252793	0.000118	-0.151146
H58	H	1.236733	-0.706535	0.433024
H59	H	1.199537	-0.519562	0.470156
F60	F	1.239758	-0.277793	0.429964
H61	H	1.805771	0.082968	-0.271513
H62	H	1.753391	-0.085431	-0.222503
H63	H	1.791231	0.085610	-0.478206
H64	H	1.758286	-0.082790	-0.431581
