data_functionalizedCrystal
_audit_creation_method	'MofGen! by Chris Wilmer'
_symmetry_space_group_name_H-M	'P1'
_symmetry_Int_Tables_number	1
_symmetry_cell_setting	triclinic
loop_
_symmetry_equiv_pos_as_xyz
  x,y,z
_cell_length_a	8.497366
_cell_length_b	12.759399
_cell_length_c	12.759401
_cell_angle_alpha	90.016641
_cell_angle_beta	90.032627
_cell_angle_gamma	90.050214
loop_
_atom_site_label
_atom_site_type_symbol
_atom_site_fract_x
_atom_site_fract_y
_atom_site_fract_z
Zn1	Zn	-0.891959	0.417973	-1.606385
Zn2	Zn	-0.628161	0.593747	-1.606239
Zn3	Zn	-0.628186	0.418088	-1.430647
Zn4	Zn	-0.891893	0.593615	-1.430674
O5	O	-0.760050	0.505856	-1.518486
O6	O	-0.856983	0.441297	-1.753386
O7	O	-0.407402	0.570549	-1.582874
O8	O	-0.663214	0.271051	-1.454009
O9	O	-0.663172	0.570438	-1.753279
O10	O	-0.857007	0.270967	-1.583123
O11	O	-0.407420	0.441493	-1.453868
O12	O	-0.663150	0.441364	-1.283630
O13	O	-1.112664	0.570212	-1.454054
O14	O	-0.856894	0.570323	-1.283649
O15	O	-1.112713	0.441168	-1.583148
O16	O	-0.663108	0.740751	-1.582899
O17	O	-0.856870	0.740653	-1.453913
C18	C	-0.760014	0.778823	-1.518422
C19	C	-0.760051	0.895600	-1.518490
C20	C	-0.760018	0.505843	-1.245519
C21	C	-0.760042	0.505862	-1.128742
C22	C	-0.171530	0.505760	-1.518548
C23	C	-0.350174	0.505980	-1.518408
C24	C	-0.760082	0.505869	-1.792519
C25	C	-0.760096	0.505875	-1.909296
C26	C	-0.760120	0.231822	-1.518579
C27	C	-0.760150	0.115046	-1.518619
C28	C	-0.659274	0.950477	-1.585730
C29	C	-0.659327	1.060201	-1.585798
C30	C	-0.860939	1.060160	-1.451376
C31	C	-0.860893	0.950438	-1.451315
C32	C	-0.603187	1.210089	-1.709799
C33	C	-0.502384	1.264971	-1.777029
C34	C	-0.348458	1.229465	-1.793171
C35	C	-0.295302	1.139079	-1.742067
C36	C	-0.396096	1.084203	-1.674828
C37	C	-0.550045	1.119708	-1.658707
C38	C	-0.917016	0.800548	-1.327312
C39	C	-1.017803	0.745670	-1.260068
C40	C	-1.171732	0.781174	-1.243915
C41	C	-1.224882	0.871563	-1.295001
C42	C	-1.124095	0.926441	-1.362246
C43	C	-0.970168	0.890930	-1.378400
C44	C	-0.860766	0.573114	-1.073918
C45	C	-0.860798	0.573118	-0.964194
C46	C	-0.659367	0.438616	-0.964128
C47	C	-0.659345	0.438608	-1.073850
C48	C	-1.046783	0.610774	-0.814323
C49	C	-1.147493	0.678042	-0.759495
C50	C	-1.171438	0.780568	-0.795095
C51	C	-1.094651	0.815846	-0.885521
C52	C	-0.993929	0.748584	-0.940344
C53	C	-0.970013	0.646044	-0.904745
C54	C	-0.473358	0.400962	-1.223723
C55	C	-0.372627	0.333704	-1.278547
C56	C	-0.348665	0.231177	-1.242949
C57	C	-0.425425	0.195902	-1.152519
C58	C	-0.526156	0.263160	-1.097695
C59	C	-0.550120	0.365686	-1.133301
H60	H	-0.577165	0.905830	-1.640430
O61	O	-0.919084	0.782844	-1.028080
C62	C	-0.670361	0.815115	-1.112812
C63	C	-0.754917	0.776316	-1.013372
H64	H	-0.537619	0.809830	-1.100962
H65	H	-0.704622	0.899976	-1.128861
H66	H	-0.706263	0.764189	-1.182267
H67	H	-0.719059	0.827164	-0.943855
H68	H	-0.720654	0.691439	-0.997415
H69	H	-0.545679	1.338563	-1.818639
H70	H	-0.943038	1.104823	-1.396683
O71	O	-0.600663	0.228712	-1.009898
C72	C	-0.642345	0.084953	-0.890642
C73	C	-0.557897	0.123820	-0.990096
H74	H	-0.607775	0.000151	-0.874588
H75	H	-0.775115	0.090028	-0.902457
H76	H	-0.606577	0.135944	-0.821204
H77	H	-0.593537	0.072860	-1.059581
H78	H	-0.425144	0.118768	-0.978192
H79	H	-0.266628	0.176420	-1.287593
H80	H	-0.728531	1.239000	-1.696672
H81	H	-1.167386	1.000038	-1.403847
O82	O	-1.221925	0.643880	-0.671558
C83	C	-1.262087	0.668210	-0.486208
C84	C	-1.177662	0.706980	-0.585708
H85	H	-1.226357	0.719222	-0.416777
H86	H	-1.227680	0.583388	-0.470093
H87	H	-1.394830	0.673359	-0.498113
H88	H	-1.044903	0.701901	-0.573878
H89	H	-1.212198	0.791784	-0.601792
H90	H	-1.350225	0.900471	-1.281850
H91	H	-1.114143	0.899337	-0.914493
O92	O	-0.297777	0.367962	-1.366289
C93	C	-0.049033	0.400234	-1.450992
C94	C	-0.133614	0.361448	-1.351556
H95	H	0.083706	0.394960	-1.439123
H96	H	-0.083301	0.485089	-1.467062
H97	H	-0.084905	0.349293	-1.520442
H98	H	-0.097786	0.412312	-1.282044
H99	H	-0.099343	0.276577	-1.335578
O100	O	-1.023697	0.511107	-0.779893
C101	C	-1.044904	0.326862	-0.819010
C102	C	-1.071166	0.439682	-0.858127
H103	H	-1.083239	0.269085	-0.882251
H104	H	-1.117119	0.313127	-0.744995
H105	H	-0.914788	0.314858	-0.800844
H106	H	-1.201240	0.451765	-0.876353
H107	H	-0.998850	0.453364	-0.932106
H108	H	-0.577381	0.383862	-0.919422
O109	O	-0.344237	0.996499	-1.625140
C110	C	-0.155469	0.922477	-1.505228
C111	C	-0.214015	1.021883	-1.561444
H112	H	-0.050198	0.942970	-1.453700
H113	H	-0.118954	0.861535	-1.565856
H114	H	-0.254004	0.889343	-1.454455
H115	H	-0.115554	1.055108	-1.612215
H116	H	-0.250579	1.082758	-1.500762
O117	O	-0.145867	1.104416	-1.757763
C118	C	0.019284	0.963272	-1.817913
C119	C	-0.150032	1.002392	-1.800167
H120	H	0.015972	0.880791	-1.852220
H121	H	0.085048	0.962047	-1.740021
H122	H	0.082185	1.018061	-1.874710
H123	H	-0.213067	0.947639	-1.743408
H124	H	-0.215678	1.003644	-1.878102
H125	H	-1.253441	0.835337	-0.750446
O126	O	-1.269455	0.727718	-1.178590
C127	C	-1.300440	0.579936	-1.062860
C128	C	-1.189616	0.640355	-1.136825
H129	H	-1.235924	0.509302	-1.029056
H130	H	-1.408181	0.552167	-1.108377
H131	H	-1.339237	0.633663	-0.996328
H132	H	-1.150699	0.586690	-1.203371
H133	H	-1.081956	0.668137	-1.091234
O134	O	-0.402035	0.096260	-1.118101
C135	C	-0.270186	-0.068404	-1.146671
C136	C	-0.296573	0.044406	-1.185777
H137	H	-0.184895	-0.110354	-1.201356
H138	H	-0.387240	-0.112116	-1.145506
H139	H	-0.218804	-0.066230	-1.064144
H140	H	-0.347905	0.042329	-1.268317
H141	H	-0.179480	0.088073	-1.186865
H142	H	-0.974519	0.672066	-1.218477
H143	H	-0.791678	0.771626	-1.340467
H144	H	-0.942764	0.627874	-1.118608
H145	H	-0.266385	1.274157	-1.847914
H146	H	-0.492874	0.484446	-1.252723
