data_functionalizedCrystal
_audit_creation_method	'MofGen! by Chris Wilmer'
_symmetry_space_group_name_H-M	'P1'
_symmetry_Int_Tables_number	1
_symmetry_cell_setting	triclinic
loop_
_symmetry_equiv_pos_as_xyz
  x,y,z
_cell_length_a	14.044220
_cell_length_b	14.044220
_cell_length_c	10.868271
_cell_angle_alpha	89.993930
_cell_angle_beta	90.000690
_cell_angle_gamma	93.188878
loop_
_atom_site_label
_atom_site_type_symbol
_atom_site_fract_x
_atom_site_fract_y
_atom_site_fract_z
O1	O	1.277168	0.230168	-0.102196
O2	O	1.610501	0.563501	0.231137
O3	O	1.943834	0.896835	0.564470
O4	O	1.000496	0.221862	-0.102227
O5	O	1.333830	0.555196	0.231106
O6	O	1.667163	0.888529	0.564439
O7	O	1.134679	0.087679	-0.102200
O8	O	1.468012	0.421013	0.231133
O9	O	1.801346	0.754346	0.564467
O10	O	1.142985	0.364351	-0.102223
O11	O	1.476318	0.697684	0.231110
O12	O	1.809651	1.031018	0.564443
O13	O	1.134667	0.087673	0.102445
O14	O	1.468000	0.421006	0.435778
O15	O	1.801333	0.754339	0.769111
O16	O	1.000484	0.221856	0.102417
O17	O	1.333817	0.555189	0.435751
O18	O	1.667150	0.888522	0.769084
O19	O	1.277155	0.230161	0.102448
O20	O	1.610489	0.563495	0.435782
O21	O	1.943822	0.896828	0.769115
Zn22	Zn	1.138817	0.226007	0.134925
Zn23	Zn	1.472151	0.559341	0.468258
Zn24	Zn	1.805484	0.892674	0.801591
Zn25	Zn	1.138834	0.226016	-0.134704
Zn26	Zn	1.472167	0.559350	0.198630
Zn27	Zn	1.805501	0.892683	0.531963
O28	O	1.142972	0.364344	0.102421
O29	O	1.476306	0.697678	0.435755
O30	O	1.809639	1.031011	0.769088
C31	C	0.964868	0.218223	0.000091
C32	C	1.298201	0.551557	0.333425
C33	C	1.631535	0.884890	0.666758
C34	C	0.858725	0.207379	0.000080
C35	C	1.192059	0.540712	0.333413
C36	C	1.525392	0.874045	0.666746
C37	C	0.664388	0.187553	0.000106
C38	C	0.997721	0.520886	0.333439
C39	C	1.331054	0.854219	0.666772
C40	C	0.613258	0.264467	0.000105
C41	C	0.946591	0.597800	0.333438
C42	C	1.279924	0.931134	0.666771
C43	C	0.505122	0.253435	0.000119
C44	C	0.838455	0.586769	0.333452
C45	C	1.171788	0.920102	0.666786
C46	C	0.772534	0.198583	0.000091
C47	C	1.105867	0.531916	0.333425
C48	C	1.439200	0.865249	0.666758
C49	C	1.131037	0.052054	0.000122
C50	C	1.464371	0.385388	0.333456
C51	C	1.797704	0.718721	0.666789
C52	C	1.120193	-0.054088	0.000123
C53	C	1.453526	0.279245	0.333456
C54	C	1.786859	0.612578	0.666789
C55	C	1.100366	-0.248426	0.000103
C56	C	1.433700	0.084907	0.333436
C57	C	1.767033	0.418241	0.666769
C58	C	1.177281	-0.299556	0.000108
C59	C	1.510614	0.033777	0.333441
C60	C	1.843947	0.367111	0.666774
C61	C	1.166249	-0.407692	0.000097
C62	C	1.499583	-0.074359	0.333430
C63	C	1.832916	0.258974	0.666763
C64	C	1.111397	-0.140280	0.000114
C65	C	1.444730	0.193053	0.333447
C66	C	1.778063	0.526387	0.666780
C67	C	1.312783	0.233800	0.000127
C68	C	1.646117	0.567134	0.333461
C69	C	1.979450	0.900467	0.666794
C70	C	1.418926	0.244645	0.000131
C71	C	1.752259	0.577978	0.333464
C72	C	2.085593	0.911312	0.666797
C73	C	1.146614	0.399969	0.000096
C74	C	1.479948	0.733303	0.333429
C75	C	1.813281	1.066636	0.666763
C76	C	1.157459	0.506112	0.000088
C77	C	1.490792	0.839446	0.333421
C78	C	1.824125	1.172779	0.666754
N79	N	1.138813	0.226001	0.318939
N80	N	1.472146	0.559335	0.652272
N81	N	1.805480	0.892668	0.985605
N82	N	1.138845	0.226015	-0.318718
N83	N	1.472179	0.559349	0.014616
N84	N	1.805512	0.892682	0.347949
C85	C	1.138829	0.226014	0.569945
C86	C	1.472162	0.559347	0.903278
C87	C	1.805495	0.892681	1.236611
C88	C	1.138817	0.226010	0.430267
C89	C	1.472151	0.559343	0.763601
C90	C	1.805484	0.892676	1.096934
H91	H	0.626951	0.113425	0.000119
H92	H	0.960284	0.446758	0.333452
H93	H	1.293617	0.780092	0.666785
C94	C	1.277433	-0.248979	0.000136
C95	C	1.610766	0.084354	0.333470
C96	C	1.944099	0.417687	0.666803
N97	N	1.352864	-0.210881	0.000164
N98	N	1.686197	0.122453	0.333498
N99	N	2.019531	0.455786	0.666831
H100	H	1.026239	-0.285863	0.000091
H101	H	1.359572	0.047470	0.333425
H102	H	1.692906	0.380804	0.666758
H103	H	0.650697	0.338600	0.000092
H104	H	0.984030	0.671934	0.333426
H105	H	1.317364	1.005267	0.666759
