data_functionalizedCrystal
_audit_creation_method	'MofGen! by Chris Wilmer'
_symmetry_space_group_name_H-M	'P1'
_symmetry_Int_Tables_number	1
_symmetry_cell_setting	triclinic
loop_
_symmetry_equiv_pos_as_xyz
  x,y,z
_cell_length_a	21.395364
_cell_length_b	16.625546
_cell_length_c	21.395356
_cell_angle_alpha	89.972354
_cell_angle_beta	89.976411
_cell_angle_gamma	90.037419
loop_
_atom_site_label
_atom_site_type_symbol
_atom_site_fract_x
_atom_site_fract_y
_atom_site_fract_z
Zn1	Zn	0.957889	-0.320700	-0.354262
Zn2	Zn	1.291222	0.012633	-0.020928
Zn3	Zn	1.624556	0.345966	0.312405
Zn4	Zn	0.957808	-0.455537	-0.249484
Zn5	Zn	1.291142	-0.122204	0.083849
Zn6	Zn	1.624475	0.211130	0.417182
Zn7	Zn	0.853106	-0.320757	-0.249498
Zn8	Zn	1.186439	0.012576	0.083835
Zn9	Zn	1.519773	0.345909	0.417168
Zn10	Zn	0.853088	-0.455530	-0.354224
Zn11	Zn	1.186422	-0.122197	-0.020891
Zn12	Zn	1.519755	0.211137	0.312442
O13	O	0.905473	-0.388131	-0.301867
O14	O	1.238806	-0.054798	0.031466
O15	O	1.572140	0.278536	0.364799
O16	O	1.045556	-0.338566	-0.340372
O17	O	1.378890	-0.005233	-0.007039
O18	O	1.712223	0.328101	0.326294
O19	O	0.943893	-0.437685	-0.161808
O20	O	1.277226	-0.104352	0.171525
O21	O	1.610560	0.228982	0.504858
O22	O	0.867047	-0.207917	-0.263417
O23	O	1.200380	0.125416	0.069916
O24	O	1.533713	0.458749	0.403250
O25	O	1.045497	-0.437630	-0.263393
O26	O	1.378830	-0.104297	0.069940
O27	O	1.712164	0.229037	0.403274
O28	O	0.944031	-0.207876	-0.340386
O29	O	1.277364	0.125458	-0.007053
O30	O	1.610697	0.458791	0.326281
O31	O	0.866968	-0.338663	-0.161819
O32	O	1.200302	-0.005330	0.171515
O33	O	1.533635	0.328004	0.504848
O34	O	0.765426	-0.338656	-0.263381
O35	O	1.098759	-0.005323	0.069952
O36	O	1.432092	0.328011	0.403286
O37	O	0.867017	-0.437618	-0.441907
O38	O	1.200350	-0.104284	-0.108574
O39	O	1.533684	0.229049	0.224759
O40	O	0.765413	-0.437673	-0.340323
O41	O	1.098746	-0.104339	-0.006989
O42	O	1.432079	0.228994	0.326344
O43	O	0.944014	-0.338559	-0.441935
O44	O	1.277347	-0.005226	-0.108601
O45	O	1.610680	0.328108	0.224732
O46	O	0.943876	-0.568369	-0.263357
O47	O	1.277209	-0.235035	0.069977
O48	O	1.610543	0.098298	0.403310
O49	O	0.866939	-0.568363	-0.340309
O50	O	1.200272	-0.235030	-0.006976
O51	O	1.533605	0.098303	0.326358
C52	C	0.742685	-0.388170	-0.301850
C53	C	1.076019	-0.054837	0.031484
C54	C	1.409352	0.278496	0.364817
C55	C	0.673044	-0.388207	-0.301857
C56	C	1.006377	-0.054873	0.031476
C57	C	1.339711	0.278460	0.364810
C58	C	0.640384	-0.336708	-0.342002
C59	C	0.973718	-0.003375	-0.008669
C60	C	1.307051	0.329958	0.324665
C61	C	0.574949	-0.336687	-0.342005
C62	C	0.908282	-0.003354	-0.008671
C63	C	1.241615	0.329980	0.324662
C64	C	0.542176	-0.388178	-0.301868
C65	C	0.875509	-0.054845	0.031465
C66	C	1.208842	0.278489	0.364798
C67	C	0.574844	-0.439680	-0.261715
C68	C	0.908177	-0.106347	0.071618
C69	C	1.241510	0.226987	0.404951
C70	C	0.640278	-0.439694	-0.261710
C71	C	0.973611	-0.106361	0.071624
C72	C	1.306944	0.226973	0.404957
C73	C	0.438460	-0.460792	-0.296831
C74	C	0.771793	-0.127459	0.036503
C75	C	1.105126	0.205875	0.369836
C76	C	0.373027	-0.460779	-0.296841
C77	C	0.706360	-0.127446	0.036492
C78	C	1.039693	0.205888	0.369826
C79	C	0.340355	-0.388134	-0.301882
C80	C	0.673688	-0.054800	0.031451
C81	C	1.007022	0.278533	0.364784
C82	C	0.373124	-0.315499	-0.306927
C83	C	0.706458	0.017834	0.026407
C84	C	1.039791	0.351168	0.359740
C85	C	0.438559	-0.315513	-0.306921
C86	C	0.771892	0.017820	0.026412
C87	C	1.105225	0.351153	0.359746
C88	C	0.471223	-0.388168	-0.301870
C89	C	0.804557	-0.054835	0.031464
C90	C	1.137890	0.278499	0.364797
C91	C	0.236743	-0.336608	-0.342032
C92	C	0.570076	-0.003275	-0.008699
C93	C	0.903409	0.330059	0.324634
C94	C	0.171306	-0.336585	-0.342030
C95	C	0.504639	-0.003252	-0.008697
C96	C	0.837973	0.330082	0.324636
C97	C	0.171202	-0.439585	-0.261744
C98	C	0.504535	-0.106252	0.071589
C99	C	0.837869	0.227081	0.404922
C100	C	0.236637	-0.439601	-0.261743
C101	C	0.569971	-0.106268	0.071590
C102	C	0.903304	0.227066	0.404924
C103	C	0.269404	-0.388113	-0.301890
C104	C	0.602737	-0.054780	0.031443
C105	C	0.936070	0.278553	0.364776
C106	C	0.905414	-0.597622	-0.301841
C107	C	1.238747	-0.264289	0.031492
C108	C	1.572080	0.069045	0.364826
C109	C	0.905446	-0.687243	-0.301851
C110	C	1.238779	-0.353910	0.031483
C111	C	1.572112	-0.020576	0.364816
C112	C	0.905555	-1.015419	-0.301916
C113	C	1.238888	-0.682085	0.031417
C114	C	1.572222	-0.348752	0.364751
C115	C	0.905523	-0.924110	-0.301900
C116	C	1.238856	-0.590777	0.031434
C117	C	1.572189	-0.257444	0.364767
C118	C	0.905500	-0.851334	-0.301883
C119	C	1.238833	-0.518000	0.031450
C120	C	1.572166	-0.184667	0.364784
C121	C	0.905468	-0.760020	-0.301867
C122	C	1.238802	-0.426686	0.031466
C123	C	1.572135	-0.093353	0.364799
C124	C	1.068896	-0.388092	-0.301885
C125	C	1.402230	-0.054759	0.031448
C126	C	1.735563	0.278574	0.364781
C127	C	1.138538	-0.388076	-0.301893
C128	C	1.471871	-0.054742	0.031440
C129	C	1.805204	0.278591	0.364774
C130	C	0.905522	-0.388081	-0.465291
C131	C	1.238856	-0.054748	-0.131957
C132	C	1.572189	0.278586	0.201376
C133	C	0.905543	-0.388060	-0.534932
C134	C	1.238877	-0.054727	-0.201598
C135	C	1.572210	0.278607	0.131735
C136	C	0.905550	-0.177822	-0.301907
C137	C	1.238883	0.155511	0.031426
C138	C	1.572216	0.488844	0.364759
C139	C	0.905582	-0.088201	-0.301924
C140	C	1.238916	0.245132	0.031409
C141	C	1.572249	0.578466	0.364742
C142	C	0.865499	-0.336493	-0.567640
C143	C	1.198833	-0.003160	-0.234307
C144	C	1.532166	0.330173	0.099026
C145	C	0.865497	-0.336478	-0.633076
C146	C	1.198831	-0.003145	-0.299743
C147	C	1.532164	0.330188	0.033591
C148	C	0.905550	-0.388022	-0.665800
C149	C	1.238884	-0.054688	-0.332467
C150	C	1.572217	0.278645	0.000866
C151	C	0.945597	-0.439598	-0.633084
C152	C	1.278930	-0.106265	-0.299750
C153	C	1.612264	0.227069	0.033583
C154	C	0.945593	-0.439617	-0.567649
C155	C	1.278927	-0.106284	-0.234316
C156	C	1.612260	0.227049	0.099017
C157	C	0.962003	-0.394342	-0.769487
C158	C	1.295336	-0.061008	-0.436153
C159	C	1.628670	0.272325	-0.102820
C160	C	0.962007	-0.394317	-0.834920
C161	C	1.295341	-0.060984	-0.501586
C162	C	1.628674	0.272350	-0.168253
C163	C	0.905560	-0.387967	-0.867621
C164	C	1.238894	-0.054634	-0.534288
C165	C	1.572227	0.278700	-0.200954
C166	C	0.849107	-0.381625	-0.834882
C167	C	1.182441	-0.048292	-0.501548
C168	C	1.515774	0.285042	-0.168215
C169	C	0.849104	-0.381644	-0.769447
C170	C	1.182437	-0.048311	-0.436114
C171	C	1.515771	0.285022	-0.102781
C172	C	0.905558	-0.388007	-0.736753
C173	C	1.238891	-0.054673	-0.403419
C174	C	1.572225	0.278660	-0.070086
C175	C	0.865511	-0.336381	-0.971282
C176	C	1.198844	-0.003048	-0.637949
C177	C	1.532178	0.330285	-0.304616
C178	C	0.865508	-0.336372	-1.036719
C179	C	1.198841	-0.003039	-0.703386
C180	C	1.532174	0.330294	-0.370052
C181	C	0.945613	-0.439488	-1.036725
C182	C	1.278946	-0.106154	-0.703392
C183	C	1.612280	0.227179	-0.370059
C184	C	0.945611	-0.439501	-0.971290
C185	C	1.278944	-0.106168	-0.637957
C186	C	1.612277	0.227165	-0.304623
C187	C	0.905560	-0.387944	-0.938572
C188	C	1.238894	-0.054611	-0.605239
C189	C	1.572227	0.278723	-0.271906
C190	C	0.905460	-0.388123	-0.139080
C191	C	1.238793	-0.054789	0.194254
C192	C	1.572127	0.278544	0.527587
C193	C	0.905560	-0.387917	-0.069439
C194	C	1.238894	-0.054584	0.263895
C195	C	1.572227	0.278750	0.597228
H196	H	0.346351	-0.519922	-0.292736
H197	H	0.679684	-0.186589	0.040597
H198	H	1.013018	0.146744	0.373930
H199	H	0.978226	-0.481454	-1.063369
H200	H	1.311559	-0.148120	-0.730036
H201	H	1.644893	0.185213	-0.396702
H202	H	0.667059	-0.294783	-0.374693
H203	H	1.000392	0.038551	-0.041359
H204	H	1.333725	0.371884	0.291974
H205	H	0.263229	-0.481540	-0.229055
H206	H	0.596563	-0.148206	0.104278
H207	H	0.929896	0.185127	0.437612
H208	H	0.548352	-0.294747	-0.374695
H209	H	0.881685	0.038586	-0.041361
H210	H	1.215019	0.371920	0.291972
H211	H	0.548156	-0.481604	-0.229036
H212	H	0.881489	-0.148270	0.104298
H213	H	1.214822	0.185063	0.437631
H214	H	0.263422	-0.294679	-0.374719
H215	H	0.596756	0.038655	-0.041385
H216	H	0.930089	0.371988	0.291948
H217	H	0.144715	-0.294644	-0.374720
H218	H	0.478049	0.038689	-0.041387
H219	H	0.811382	0.372022	0.291946
H220	H	0.978220	-0.481491	-0.944658
H221	H	1.311554	-0.148157	-0.611325
H222	H	1.644887	0.185176	-0.277992
H223	H	0.666869	-0.481632	-0.229018
H224	H	1.000202	-0.148298	0.104316
H225	H	1.333536	0.185035	0.437649
H226	H	0.832899	-0.294401	-0.944642
H227	H	1.166233	0.038932	-0.611309
H228	H	1.499566	0.372266	-0.277976
H229	H	0.144519	-0.481510	-0.229065
H230	H	0.477852	-0.148177	0.104269
H231	H	0.811186	0.185156	0.437602
H232	H	1.007973	-0.399506	-0.742866
H233	H	1.341306	-0.066172	-0.409533
H234	H	1.674639	0.267161	-0.076200
H235	H	1.007975	-0.399477	-0.861571
H236	H	1.341308	-0.066144	-0.528238
H237	H	1.674642	0.267190	-0.194904
H238	H	0.465055	-0.519953	-0.292725
H239	H	0.798389	-0.186619	0.040608
H240	H	1.131722	0.146714	0.373942
H241	H	0.832885	-0.294514	-0.541006
H242	H	1.166218	0.038819	-0.207672
H243	H	1.499552	0.372153	0.125661
H244	H	0.832890	-0.294483	-0.659713
H245	H	1.166223	0.038851	-0.326379
H246	H	1.499556	0.372184	0.006954
H247	H	0.465237	-0.256372	-0.311026
H248	H	0.798570	0.076962	0.022307
H249	H	1.131903	0.410295	0.355640
H250	H	0.978208	-0.481565	-0.659732
H251	H	1.311541	-0.148232	-0.326399
H252	H	1.644875	0.185102	0.006935
H253	H	0.803138	-0.376482	-0.742794
H254	H	1.136471	-0.043149	-0.409460
H255	H	1.469805	0.290185	-0.076127
H256	H	0.803143	-0.376449	-0.861506
H257	H	1.136477	-0.043116	-0.528172
H258	H	1.469810	0.290218	-0.194839
H259	H	0.832895	-0.294383	-1.063349
H260	H	1.166228	0.038950	-0.730016
H261	H	1.499561	0.372284	-0.396683
H262	H	0.346525	-0.256344	-0.311032
H263	H	0.679858	0.076989	0.022301
H264	H	1.013191	0.410322	0.355635
H265	H	0.978205	-0.481608	-0.541018
H266	H	1.311538	-0.148275	-0.207685
H267	H	1.644871	0.185058	0.125648
