data_functionalizedCrystal
_audit_creation_method	'MofGen! by Chris Wilmer'
_symmetry_space_group_name_H-M	'P1'
_symmetry_Int_Tables_number	1
_symmetry_cell_setting	triclinic
loop_
_symmetry_equiv_pos_as_xyz
  x,y,z
_cell_length_a	23.532407
_cell_length_b	22.610064
_cell_length_c	23.532407
_cell_angle_alpha	89.999397
_cell_angle_beta	97.151322
_cell_angle_gamma	90.002839
loop_
_atom_site_label
_atom_site_type_symbol
_atom_site_fract_x
_atom_site_fract_y
_atom_site_fract_z
O1	O	0.755263	0.049117	-0.069127
O2	O	1.255263	0.549117	0.430873
O3	O	0.589400	0.049135	-0.079130
O4	O	1.089400	0.549135	0.420870
O5	O	0.677333	0.049114	0.008803
O6	O	1.177333	0.549114	0.508803
O7	O	0.667330	0.049137	-0.157060
O8	O	1.167330	0.549137	0.342940
O9	O	0.677318	-0.049255	0.008790
O10	O	1.177318	0.450745	0.508790
O11	O	0.589385	-0.049234	-0.079143
O12	O	1.089385	0.450766	0.420857
O13	O	0.755248	-0.049252	-0.069140
O14	O	1.255248	0.450748	0.430860
Zn15	Zn	0.672314	-0.064862	-0.074144
Zn16	Zn	1.172314	0.435138	0.425856
Zn17	Zn	0.672334	0.064744	-0.074127
Zn18	Zn	1.172334	0.564744	0.425873
O19	O	0.667315	-0.049232	-0.157073
O20	O	1.167315	0.450768	0.342927
C21	C	0.568176	-0.000048	-0.078882
C22	C	1.068176	0.499952	0.421118
C23	C	0.504959	-0.000041	-0.078116
C24	C	1.004959	0.499959	0.421884
C25	C	0.105856	-0.000061	-0.125350
C26	C	0.605856	0.499939	0.374650
C27	C	0.046456	-0.000065	-0.124638
C28	C	0.546456	0.499935	0.375362
O29	O	0.009711	-0.000081	-0.168424
O30	O	0.509711	0.499919	0.331576
N31	N	0.023830	-0.000071	-0.072362
N32	N	0.523830	0.499929	0.427638
C33	C	0.060607	-0.000080	-0.020794
C34	C	0.560607	0.499920	0.479206
O35	O	0.035908	-0.000086	0.023737
O36	O	0.535908	0.499914	0.523737
C37	C	0.120006	-0.000080	-0.021506
C38	C	0.620006	0.499920	0.478494
C39	C	0.142629	-0.000068	-0.073785
C40	C	0.642629	0.499932	0.426215
C41	C	0.128479	-0.000050	-0.177625
C42	C	0.628479	0.499950	0.322375
C43	C	0.187876	-0.000045	-0.178336
C44	C	0.687876	0.499955	0.321664
C45	C	0.224649	-0.000052	-0.126772
C46	C	0.724649	0.499948	0.373228
C47	C	0.202025	-0.000063	-0.074497
C48	C	0.702025	0.499937	0.425503
C49	C	0.156783	-0.000093	0.030062
C50	C	0.656783	0.499907	0.530062
C51	C	0.216185	-0.000094	0.029345
C52	C	0.716185	0.499906	0.529345
C53	C	0.238808	-0.000082	-0.022934
C54	C	0.738808	0.499918	0.477066
C55	C	0.298194	-0.000065	-0.023643
C56	C	0.798194	0.499935	0.476357
N57	N	0.320820	-0.000059	-0.075920
N58	N	0.820820	0.499941	0.424080
C59	C	0.284048	-0.000052	-0.127484
C60	C	0.784048	0.499948	0.372516
C61	C	-0.064135	-0.000080	-0.019302
C62	C	0.435865	0.499920	0.480698
C63	C	-0.123533	-0.000075	-0.018589
C64	C	0.376467	0.499925	0.481411
C65	C	-0.137680	-0.000061	-0.122434
C66	C	0.362320	0.499939	0.377566
C67	C	-0.078281	-0.000062	-0.123146
C68	C	0.421719	0.499938	0.376854
C69	C	-0.041509	-0.000074	-0.071578
C70	C	0.458491	0.499926	0.428422
C71	C	0.408784	-0.000042	-0.128974
C72	C	0.908784	0.499958	0.371026
C73	C	0.468186	-0.000034	-0.129680
C74	C	0.968186	0.499966	0.370320
C75	C	0.482329	-0.000051	-0.025836
C76	C	0.982329	0.499949	0.474164
C77	C	0.422932	-0.000055	-0.025129
C78	C	0.922932	0.499945	0.474871
C79	C	0.386160	-0.000052	-0.076702
C80	C	0.886160	0.499948	0.423298
O81	O	0.334974	-0.000052	0.020119
O82	O	0.834974	0.499948	0.520119
O83	O	0.308755	-0.000054	-0.172007
O84	O	0.808755	0.499946	0.327993
N85	N	0.672304	-0.153314	-0.074155
N86	N	1.172304	0.346686	0.425845
C87	C	0.711273	-0.561965	-0.035196
C88	C	1.211273	-0.061965	0.464804
C89	C	0.711276	-0.623884	-0.035192
C90	C	1.211276	-0.123884	0.464808
O91	O	0.744384	-0.655911	-0.002076
O92	O	1.244384	-0.155911	0.497924
N93	N	0.672334	-0.654851	-0.074115
N94	N	1.172334	-0.154851	0.425885
C95	C	0.633383	-0.623895	-0.113041
C96	C	1.133383	-0.123895	0.386959
O97	O	0.600259	-0.655920	-0.146147
O98	O	1.100259	-0.155920	0.353853
C99	C	0.633377	-0.561976	-0.113042
C100	C	1.133377	-0.061976	0.386958
C101	C	0.672326	-0.531013	-0.074120
C102	C	1.172326	-0.031013	0.425880
C103	C	0.750218	-0.531001	0.003724
C104	C	1.250218	-0.031001	0.503724
C105	C	0.750215	-0.469085	0.003719
C106	C	1.250215	0.030915	0.503719
C107	C	0.711268	-0.438133	-0.035206
C108	C	1.211268	0.061867	0.464794
C109	C	0.672323	-0.469097	-0.074125
C110	C	1.172323	0.030903	0.425875
C111	C	0.594424	-0.531021	-0.151965
C112	C	1.094424	-0.031021	0.348035
C113	C	0.594422	-0.469098	-0.151962
C114	C	1.094422	0.030902	0.348038
C115	C	0.633370	-0.438134	-0.113040
C116	C	1.133370	0.061866	0.386960
C117	C	0.633374	-0.376229	-0.113054
C118	C	1.133374	0.123771	0.386946
N119	N	0.672316	-0.345262	-0.074131
N120	N	1.172316	0.154738	0.425869
C121	C	0.711263	-0.376214	-0.035207
C122	C	1.211263	0.123786	0.464793
C123	C	0.633396	-0.753928	-0.113035
C124	C	1.133396	-0.253928	0.386965
C125	C	0.633403	-0.815846	-0.113037
C126	C	1.133403	-0.315846	0.386963
C127	C	0.711296	-0.815831	-0.035187
C128	C	1.211296	-0.315831	0.464813
C129	C	0.711291	-0.753913	-0.035188
C130	C	1.211291	-0.253913	0.464812
C131	C	0.672338	-0.722962	-0.074112
C132	C	1.172338	-0.222962	0.425888
C133	C	0.711255	-0.246187	-0.035220
C134	C	1.211255	0.253813	0.464780
C135	C	0.711251	-0.184266	-0.035230
C136	C	1.211251	0.315734	0.464770
C137	C	0.633357	-0.184286	-0.113078
C138	C	1.133357	0.315714	0.386922
C139	C	0.633363	-0.246202	-0.113071
C140	C	1.133363	0.253798	0.386929
C141	C	0.672314	-0.277151	-0.074137
C142	C	1.172314	0.222849	0.425863
O143	O	0.600281	-0.344163	-0.146152
O144	O	1.100281	0.155837	0.353848
O145	O	0.744376	-0.344182	-0.002101
O146	O	1.244376	0.155818	0.497899
C147	C	0.776472	-0.000069	-0.069388
C148	C	1.276472	0.499931	0.430612
C149	C	0.839689	-0.000071	-0.070154
C150	C	1.339689	0.499929	0.429846
C151	C	0.677071	-0.000072	0.030013
C152	C	1.177071	0.499928	0.530013
C153	C	0.676305	-0.000076	0.093230
C154	C	1.176305	0.499924	0.593230
N155	N	0.672349	0.153196	-0.074111
N156	N	1.172349	0.653196	0.425889
C157	C	0.667577	-0.000045	-0.178283
C158	C	1.167577	0.499955	0.321717
C159	C	0.668343	-0.000036	-0.241500
C160	C	1.168343	0.499964	0.258500
C161	C	0.723539	-0.000049	0.492333
C162	C	1.223539	0.499951	0.992333
C163	C	0.722827	-0.000044	0.551733
C164	C	1.222827	0.499956	1.051733
O165	O	0.766613	-0.000027	0.588478
O166	O	1.266613	0.499973	1.088478
N167	N	0.670551	-0.000039	0.574359
N168	N	1.170551	0.499961	1.074359
C169	C	0.618983	-0.000032	0.537582
C170	C	1.118983	0.499968	1.037582
O171	O	0.574452	-0.000027	0.562281
O172	O	1.074452	0.499973	1.062281
C173	C	0.619695	-0.000033	0.478182
C174	C	1.119695	0.499967	0.978182
C175	C	0.671974	-0.000044	0.455560
C176	C	1.171974	0.499956	0.955560
C177	C	0.775814	-0.000060	0.469710
C178	C	1.275814	0.499940	0.969710
C179	C	0.776525	-0.000065	0.410313
C180	C	1.276525	0.499935	0.910313
C181	C	0.724961	-0.000060	0.373540
C182	C	1.224961	0.499940	0.873540
C183	C	0.672685	-0.000050	0.396164
C184	C	1.172685	0.499950	0.896164
C185	C	0.568127	-0.000022	0.441406
C186	C	1.068127	0.499978	0.941406
C187	C	0.568844	-0.000021	0.382004
C188	C	1.068844	0.499979	0.882004
C189	C	0.621123	-0.000033	0.359381
C190	C	1.121123	0.499967	0.859381
C191	C	0.621832	-0.000050	0.299995
C192	C	1.121832	0.499950	0.799995
N193	N	0.674109	-0.000056	0.277368
N194	N	1.174109	0.499944	0.777368
C195	C	0.725673	-0.000061	0.314141
C196	C	1.225673	0.499939	0.814141
C197	C	0.617491	-0.000031	0.662324
C198	C	1.117491	0.499969	1.162324
C199	C	0.616778	-0.000034	0.721722
C200	C	1.116778	0.499966	1.221722
C201	C	0.720623	-0.000045	0.735869
C202	C	1.220623	0.499955	1.235869
C203	C	0.721335	-0.000046	0.676470
C204	C	1.221335	0.499954	1.176470
C205	C	0.669767	-0.000036	0.639698
C206	C	1.169767	0.499964	1.139698
C207	C	0.727163	-0.000073	0.189405
C208	C	1.227163	0.499927	0.689405
C209	C	0.727869	-0.000081	0.130003
C210	C	1.227869	0.499919	0.630003
C211	C	0.624025	-0.000067	0.115860
C212	C	1.124025	0.499933	0.615860
C213	C	0.623318	-0.000062	0.175257
C214	C	1.123318	0.499938	0.675257
C215	C	0.674891	-0.000063	0.212029
C216	C	1.174891	0.499937	0.712029
O217	O	0.578070	-0.000065	0.263215
O218	O	1.078070	0.499935	0.763215
O219	O	0.770196	-0.000058	0.289433
O220	O	1.270196	0.499942	0.789433
H221	H	0.098544	-0.000046	-0.219617
H222	H	0.598544	0.499954	0.280383
C223	C	0.591044	-0.720295	-0.155215
C224	C	1.091044	-0.220295	0.344785
C225	C	0.556337	-0.684761	-0.125064
C226	C	1.056337	-0.184761	0.374936
C227	C	0.517312	-0.653780	-0.163900
C228	C	1.017312	-0.153780	0.336100
H229	H	0.611326	-0.696091	-0.178836
H230	H	1.111326	-0.196091	0.321164
H231	H	0.567823	-0.747591	-0.178387
H232	H	1.067823	-0.247591	0.321613
H233	H	0.579555	-0.657469	-0.101901
H234	H	1.079555	-0.157469	0.398099
H235	H	0.536042	-0.708950	-0.101445
H236	H	1.036042	-0.208950	0.398555
H237	H	0.494091	-0.681075	-0.187072
H238	H	0.994091	-0.181075	0.312928
H239	H	0.537600	-0.629579	-0.187519
H240	H	1.037600	-0.129579	0.312481
H241	H	0.493756	-0.629671	-0.143448
H242	H	0.993756	-0.129671	0.356552
H243	H	-0.141947	-0.000076	0.023982
H244	H	0.358053	0.499924	0.523982
H245	H	-0.034198	-0.000084	0.022693
H246	H	0.465802	0.499916	0.522693
H247	H	0.404512	-0.000056	0.017441
H248	H	0.904512	0.499944	0.517441
H249	H	0.781933	-0.556197	0.035423
H250	H	1.281933	-0.056197	0.535423
C251	C	0.776653	0.000048	0.775734
C252	C	1.276653	0.500048	1.275734
C253	C	0.808163	0.050646	0.765543
C254	C	1.308163	0.550646	1.265543
C255	C	0.859781	0.050748	0.802250
C256	C	1.359781	0.550748	1.302250
H257	H	0.768820	0.000082	0.814369
H258	H	1.268820	0.500082	1.314369
H259	H	0.798133	-0.034240	0.768903
H260	H	1.298133	0.465760	1.268903
H261	H	0.786688	0.084925	0.772378
H262	H	1.286688	0.584925	1.272378
H263	H	0.816012	0.050622	0.726916
H264	H	1.316012	0.550622	1.226916
H265	H	0.881261	0.016460	0.795420
H266	H	1.381261	0.516460	1.295420
H267	H	0.851942	0.050781	0.840883
H268	H	1.351942	0.550781	1.340883
H269	H	0.881169	0.085075	0.795337
H270	H	1.381169	0.585075	1.295337
C271	C	0.256204	-0.000134	0.085275
C272	C	0.756204	0.499866	0.585275
C273	C	0.313067	-0.000143	0.073469
C274	C	0.813067	0.499857	0.573469
C275	C	0.349945	-0.000185	0.124976
C276	C	0.849945	0.499815	0.624976
H277	H	0.249449	0.034156	0.106772
H278	H	0.749449	0.534156	0.606772
H279	H	0.249407	-0.034456	0.106723
H280	H	0.749407	0.465544	0.606723
H281	H	0.319860	0.034176	0.052030
H282	H	0.819860	0.534176	0.552030
H283	H	0.319840	-0.034430	0.051980
H284	H	0.819840	0.465570	0.551980
H285	H	0.343149	-0.034507	0.146423
H286	H	0.843149	0.465493	0.646423
H287	H	0.343186	0.034105	0.146469
H288	H	0.843186	0.534105	0.646469
H289	H	0.388531	-0.000197	0.116972
H290	H	0.888531	0.499803	0.616972
H291	H	0.580748	-0.000069	0.193677
H292	H	1.080748	0.499931	0.693677
C293	C	0.591053	-0.279902	-0.155239
C294	C	1.091053	0.220098	0.344761
C295	C	0.556376	-0.315457	-0.125070
C296	C	1.056376	0.184543	0.374930
C297	C	0.517396	-0.346512	-0.163892
C298	C	1.017396	0.153488	0.336108
H299	H	0.567802	-0.252668	-0.178440
H300	H	1.067802	0.247332	0.321560
H301	H	0.611388	-0.304094	-0.178832
H302	H	1.111388	0.195906	0.321168
H303	H	0.536043	-0.291267	-0.101487
H304	H	1.036043	0.208733	0.398513
H305	H	0.579612	-0.342702	-0.101870
H306	H	1.079612	0.157298	0.398130
H307	H	0.537730	-0.370704	-0.187484
H308	H	1.037730	0.129296	0.312516
H309	H	0.494149	-0.319274	-0.187091
H310	H	0.994149	0.180726	0.312909
H311	H	0.493866	-0.370644	-0.143428
H312	H	0.993866	0.129356	0.356572
C313	C	0.753575	-0.279857	0.006958
C314	C	1.253575	0.220143	0.506958
C315	C	0.788259	-0.315413	-0.023198
C316	C	1.288259	0.184587	0.476802
C317	C	0.827247	-0.346443	0.015635
C318	C	1.327247	0.153557	0.515635
H319	H	0.776821	-0.252608	0.030149
H320	H	1.276821	0.247392	0.530149
H321	H	0.733246	-0.304046	0.030561
H322	H	1.233246	0.195954	0.530561
H323	H	0.808586	-0.291226	-0.046791
H324	H	1.308586	0.208774	0.453209
H325	H	0.765029	-0.342673	-0.046386
H326	H	1.265029	0.157327	0.453614
H327	H	0.806918	-0.370632	0.039238
H328	H	1.306918	0.129368	0.539238
H329	H	0.850489	-0.319189	0.038824
H330	H	1.350489	0.180811	0.538824
H331	H	0.850781	-0.370575	-0.004820
H332	H	1.350781	0.129425	0.495180
C333	C	0.783217	-0.000107	0.229227
C334	C	1.283217	0.499893	0.729227
C335	C	0.829144	-0.000134	0.196691
C336	C	1.329144	0.499866	0.696691
C337	C	0.880790	-0.000177	0.233355
C338	C	1.380790	0.499823	0.733355
H339	H	0.785192	0.034188	0.252706
H340	H	1.285192	0.534188	0.752706
H341	H	0.785126	-0.034424	0.252686
H342	H	1.285126	0.465576	0.752686
H343	H	0.827237	0.034179	0.173242
H344	H	1.327237	0.534179	0.673242
H345	H	0.827189	-0.034426	0.173214
H346	H	1.327189	0.465574	0.673214
H347	H	0.882698	-0.034494	0.256814
H348	H	1.382698	0.465506	0.756814
H349	H	0.882758	0.034118	0.256832
H350	H	1.382758	0.534118	0.756832
H351	H	0.911957	-0.000201	0.211285
H352	H	1.411957	0.499799	0.711285
H353	H	0.770443	-0.000092	0.111587
H354	H	1.270443	0.499908	0.611587
C355	C	0.552224	-0.564661	-0.194285
C356	C	1.052224	-0.064661	0.305715
C357	C	0.582350	-0.600197	-0.229012
C358	C	1.082350	-0.100197	0.270988
C359	C	0.543491	-0.631188	-0.268010
C360	C	1.043491	-0.131188	0.231990
H361	H	0.528621	-0.588863	-0.173981
H362	H	1.028621	-0.088863	0.326019
H363	H	0.529036	-0.537371	-0.217494
H364	H	1.029036	-0.037371	0.282506
H365	H	0.605528	-0.627484	-0.205806
H366	H	1.105528	-0.127484	0.294194
H367	H	0.605950	-0.576009	-0.249329
H368	H	1.105950	-0.076009	0.250671
H369	H	0.520303	-0.603898	-0.291219
H370	H	1.020303	-0.103898	0.208781
H371	H	0.519890	-0.655387	-0.247701
H372	H	1.019890	-0.155387	0.252299
H373	H	0.563925	-0.655299	-0.291580
H374	H	1.063925	-0.155299	0.208420
C375	C	0.559958	0.000001	0.746169
C376	C	1.059958	0.500001	1.246169
C377	C	0.514957	0.000019	0.701244
C378	C	1.014957	0.500019	1.201244
C379	C	0.462605	0.000063	0.723740
C380	C	0.962605	0.500063	1.223740
H381	H	0.557432	-0.034290	0.769040
H382	H	1.057432	0.465710	1.269040
H383	H	0.557494	0.034321	0.769027
H384	H	1.057494	0.534321	1.269027
H385	H	0.517420	-0.034298	0.678396
H386	H	1.017420	0.465702	1.178396
H387	H	0.517464	0.034308	0.678370
H388	H	1.017464	0.534308	1.178370
H389	H	0.460141	0.034383	0.746598
H390	H	0.960141	0.534383	1.246598
H391	H	0.460085	-0.034229	0.746611
H392	H	0.960085	0.465771	1.246611
H393	H	0.432065	0.000081	0.693263
H394	H	0.932065	0.500081	1.193263
C395	C	0.132343	-0.000143	0.086883
C396	C	0.632343	0.499857	0.586883
C397	C	0.177271	-0.000170	0.131881
C398	C	0.677271	0.499830	0.631881
C399	C	0.154780	-0.000226	0.184236
C400	C	0.654780	0.499774	0.684236
H401	H	0.109475	0.034148	0.089417
H402	H	0.609475	0.534148	0.589417
H403	H	0.109483	-0.034464	0.089344
H404	H	0.609483	0.465536	0.589344
H405	H	0.200121	0.034147	0.129421
H406	H	0.700121	0.534147	0.629421
H407	H	0.200142	-0.034458	0.129366
H408	H	0.700142	0.465542	0.629366
H409	H	0.131921	-0.034547	0.186697
H410	H	0.631921	0.465453	0.686697
H411	H	0.131912	0.034065	0.186763
H412	H	0.631912	0.534065	0.686763
H413	H	0.185260	-0.000250	0.214773
H414	H	0.685260	0.499750	0.714773
C415	C	0.512792	-0.000041	0.342174
C416	C	1.012792	0.499959	0.842174
C417	C	0.466861	-0.000045	0.374706
C418	C	0.966861	0.499955	0.874706
C419	C	0.415219	-0.000072	0.338036
C420	C	0.915219	0.499928	0.838036
H421	H	0.510836	0.034252	0.318694
H422	H	1.010836	0.534252	0.818694
H423	H	0.510870	-0.034360	0.318718
H424	H	1.010870	0.465640	0.818718
H425	H	0.468782	0.034270	0.398152
H426	H	0.968782	0.534270	0.898152
H427	H	0.468798	-0.034336	0.398185
H428	H	0.968798	0.465664	0.898185
H429	H	0.413297	-0.034391	0.314580
H430	H	0.913297	0.465609	0.814580
H431	H	0.413269	0.034221	0.314557
H432	H	0.913269	0.534221	0.814557
H433	H	0.384049	-0.000080	0.360103
H434	H	0.884049	0.499920	0.860103
H435	H	0.601648	-0.159075	-0.144772
H436	H	1.101648	0.340925	0.355228
H437	H	0.819097	-0.000072	0.391900
H438	H	1.319097	0.499928	0.891900
H439	H	0.525555	-0.000009	0.459814
H440	H	1.025555	0.499991	0.959814
C441	C	0.368962	-0.000003	-0.185028
C442	C	0.868962	0.499997	0.314972
C443	C	0.401498	0.000025	-0.230955
C444	C	0.901498	0.500025	0.269045
C445	C	0.364834	0.000073	-0.282601
C446	C	0.864834	0.500073	0.217399
H447	H	0.345480	-0.034297	-0.187003
H448	H	0.845480	0.465703	0.312997
H449	H	0.345506	0.034314	-0.186936
H450	H	0.845506	0.534314	0.313064
H451	H	0.424944	-0.034289	-0.229048
H452	H	0.924944	0.465711	0.270952
H453	H	0.424978	0.034316	-0.229000
H454	H	0.924978	0.534316	0.271000
H455	H	0.341378	0.034391	-0.284509
H456	H	0.841378	0.534391	0.215491
H457	H	0.341354	-0.034221	-0.284569
H458	H	0.841354	0.465779	0.215431
H459	H	0.386904	0.000098	-0.313768
H460	H	0.886904	0.500098	0.186232
C461	C	0.212321	-0.000070	-0.235157
C462	C	0.712321	0.499930	0.264843
C463	C	0.167395	-0.000083	-0.280156
C464	C	0.667395	0.499917	0.219844
C465	C	0.189887	-0.000117	-0.332510
C466	C	0.689887	0.499883	0.167490
H467	H	0.235192	0.034223	-0.237678
H468	H	0.735192	0.534223	0.262322
H469	H	0.235179	-0.034388	-0.237629
H470	H	0.735179	0.465612	0.262371
H471	H	0.144547	0.034231	-0.277685
H472	H	0.644547	0.534231	0.222315
H473	H	0.144520	-0.034374	-0.277654
H474	H	0.644520	0.465626	0.222346
H475	H	0.212744	-0.034435	-0.334982
H476	H	0.712744	0.465565	0.165018
H477	H	0.212757	0.034177	-0.335025
H478	H	0.712757	0.534177	0.164975
H479	H	0.159408	-0.000132	-0.363048
H480	H	0.659408	0.499868	0.136952
C481	C	0.522234	0.000063	0.030163
C482	C	1.022234	0.500063	0.530163
C483	C	0.512073	0.050672	0.061667
C484	C	1.012073	0.550672	0.561667
C485	C	0.548830	0.050798	0.113253
C486	C	1.048830	0.550798	0.613253
H487	H	0.515443	-0.034205	0.051676
H488	H	1.015443	0.465795	0.551676
H489	H	0.560857	0.000098	0.022270
H490	H	1.060857	0.500098	0.522270
H491	H	0.473459	0.050632	0.069562
H492	H	0.973459	0.550632	0.569562
H493	H	0.518868	0.084949	0.040172
H494	H	1.018868	0.584949	0.540172
H495	H	0.587453	0.050832	0.105359
H496	H	1.087453	0.550832	0.605359
H497	H	0.542035	0.016527	0.134761
H498	H	1.042035	0.516527	0.634761
H499	H	0.541944	0.085137	0.134632
H500	H	1.041944	0.585137	0.634632
H501	H	0.781929	-0.443878	0.035414
H502	H	1.281929	0.056122	0.535414
H503	H	0.742969	-0.159057	-0.003535
H504	H	1.242969	0.340943	0.496465
C505	C	0.591029	-0.849428	-0.155235
C506	C	1.091029	-0.349428	0.344765
C507	C	0.535121	-0.834378	-0.146272
C508	C	1.035121	-0.334378	0.353728
C509	C	0.496067	-0.865306	-0.185127
C510	C	0.996067	-0.365306	0.314873
H511	H	0.596919	-0.839306	-0.193240
H512	H	1.096919	-0.339306	0.306760
H513	H	0.596565	-0.890745	-0.149660
H514	H	1.096565	-0.390745	0.350340
H515	H	0.529587	-0.793071	-0.151852
H516	H	1.029587	-0.293071	0.348148
H517	H	0.529212	-0.844502	-0.108275
H518	H	1.029212	-0.344502	0.391725
H519	H	0.501604	-0.906622	-0.179552
H520	H	1.001604	-0.406622	0.320448
H521	H	0.501963	-0.855180	-0.223129
H522	H	1.001963	-0.355180	0.276871
H523	H	0.458129	-0.855102	-0.179048
H524	H	0.958129	-0.355102	0.320952
H525	H	0.743005	-0.728706	-0.003494
H526	H	1.243005	-0.228706	0.496506
C527	C	0.778080	-0.000174	0.651880
C528	C	1.278080	0.499826	1.151880
C529	C	0.781526	-0.050788	0.618202
C530	C	1.281526	0.449212	1.118202
C531	C	0.833796	-0.050928	0.595551
C532	C	1.333796	0.449072	1.095551
H533	H	0.780580	0.034091	0.628966
H534	H	1.280580	0.534091	1.128966
H535	H	0.808701	-0.000209	0.682277
H536	H	1.308701	0.499791	1.182277
H537	H	0.750913	-0.050747	0.587809
H538	H	1.250913	0.449253	1.087809
H539	H	0.779036	-0.085061	0.641104
H540	H	1.279036	0.414939	1.141104
H541	H	0.864417	-0.050964	0.625948
H542	H	1.364417	0.449036	1.125948
H543	H	0.836292	-0.016662	0.572640
H544	H	1.336292	0.483338	1.072640
H545	H	0.836144	-0.085272	0.572703
H546	H	1.336144	0.414728	1.072703
C547	C	0.753488	-0.849475	0.007144
C548	C	1.253488	-0.349475	0.507144
C549	C	0.723347	-0.885012	0.041861
C550	C	1.223347	-0.385012	0.541861
C551	C	0.762192	-0.916007	0.080865
C552	C	1.262192	-0.416007	0.580865
H553	H	0.777093	-0.873677	-0.013154
H554	H	1.277093	-0.373677	0.486846
H555	H	0.776675	-0.822187	0.030360
H556	H	1.276675	-0.322187	0.530360
H557	H	0.700170	-0.912296	0.018647
H558	H	1.200170	-0.412296	0.518647
H559	H	0.699744	-0.860824	0.062172
H560	H	1.199744	-0.360824	0.562172
H561	H	0.785379	-0.888720	0.104081
H562	H	1.285379	-0.388720	0.604081
H563	H	0.785796	-0.940206	0.060562
H564	H	1.285796	-0.440206	0.560562
H565	H	0.741747	-0.940119	0.104428
H566	H	1.241747	-0.440119	0.604428
H567	H	0.562700	-0.443901	-0.183658
H568	H	1.062700	0.056099	0.316342
C569	C	0.831865	-0.000098	0.509534
C570	C	1.331865	0.499902	1.009534
C571	C	0.877790	-0.000122	0.476996
C572	C	1.377790	0.499878	0.976996
C573	C	0.929437	-0.000171	0.513658
C574	C	1.429437	0.499829	1.013658
H575	H	0.833842	0.034194	0.533016
H576	H	1.333842	0.534194	1.033016
H577	H	0.833773	-0.034417	0.532990
H578	H	1.333773	0.465583	1.032990
H579	H	0.875883	0.034194	0.453550
H580	H	1.375883	0.534194	0.953550
H581	H	0.875833	-0.034412	0.453515
H582	H	1.375833	0.465588	0.953515
H583	H	0.931345	-0.034490	0.537113
H584	H	1.431345	0.465510	1.037113
H585	H	0.931408	0.034122	0.537138
H586	H	1.431408	0.534122	1.037138
H587	H	0.960603	-0.000193	0.491586
H588	H	1.460603	0.499807	0.991586
C589	C	0.561542	-0.000121	0.622335
C590	C	1.061542	0.499879	1.122335
C591	C	0.558912	-0.050723	0.587811
C592	C	1.058912	0.449277	1.087811
C593	C	0.507385	-0.050821	0.550964
C594	C	1.007385	0.449179	1.050964
H595	H	0.530262	-0.000149	0.644249
H596	H	1.030262	0.499851	1.144249
H597	H	0.559657	0.034164	0.598834
H598	H	1.059657	0.534164	1.098834
H599	H	0.560791	-0.084999	0.611308
H600	H	1.060791	0.415001	1.111308
H601	H	0.590180	-0.050706	0.565884
H602	H	1.090180	0.449294	1.065884
H603	H	0.505500	-0.016536	0.527464
H604	H	1.005500	0.483464	1.027464
H605	H	0.476109	-0.050847	0.572883
H606	H	0.976109	0.449153	1.072883
H607	H	0.505597	-0.085151	0.527532
H608	H	1.005597	0.414849	1.027532
H609	H	0.486602	-0.000024	-0.172255
H610	H	0.986602	0.499976	0.327745
H611	H	-0.059867	-0.000055	-0.165717
H612	H	0.440133	0.499945	0.334283
H613	H	0.582043	-0.000065	0.085909
H614	H	1.082043	0.499935	0.585909
H615	H	-0.167632	-0.000059	-0.164421
H616	H	0.332368	0.499941	0.335579
