data_functionalizedCrystal
_audit_creation_method	'MofGen! by Chris Wilmer'
_symmetry_space_group_name_H-M	'P1'
_symmetry_Int_Tables_number	1
_symmetry_cell_setting	triclinic
loop_
_symmetry_equiv_pos_as_xyz
  x,y,z
_cell_length_a	9.065218
_cell_length_b	7.540329
_cell_length_c	23.532407
_cell_angle_alpha	89.991770
_cell_angle_beta	83.932281
_cell_angle_gamma	89.996962
loop_
_atom_site_label
_atom_site_type_symbol
_atom_site_fract_x
_atom_site_fract_y
_atom_site_fract_z
O1	O	1.956284	-0.147508	0.083497
O2	O	1.526662	-0.147513	0.090346
O3	O	1.754428	-0.147478	0.004085
O4	O	1.728517	-0.147543	0.169758
O5	O	1.754415	0.147487	0.004084
O6	O	1.526648	0.147453	0.090345
O7	O	1.956270	0.147457	0.083496
Cu8	Cu	1.741458	0.174387	0.086921
Cu9	Cu	1.741474	-0.174443	0.086922
O10	O	1.728504	0.147422	0.169757
C11	C	1.471701	-0.000030	0.089687
C12	C	1.307955	-0.000030	0.087719
C13	C	1.753761	0.000009	-0.017136
C14	C	1.751778	0.000023	-0.080368
C15	C	2.011231	-0.000030	0.084155
C16	C	2.174977	-0.000041	0.086123
N17	N	1.741458	0.419736	0.086919
N18	N	1.741486	-0.419792	0.086919
C19	C	1.874123	-0.000073	-0.478573
C20	C	1.872280	-0.000087	-0.537986
O21	O	1.985695	-0.000151	-0.573898
N22	N	1.736873	-0.000087	-0.561607
C23	C	1.603300	-0.000091	-0.525810
O24	O	1.487956	-0.000094	-0.551356
C25	C	1.605144	-0.000090	-0.466397
C26	C	1.740560	-0.000072	-0.442780
C27	C	2.009527	-0.000057	-0.454955
C28	C	2.011370	-0.000040	-0.395546
C29	C	1.877807	-0.000040	-0.359753
C30	C	1.742402	-0.000056	-0.383371
C31	C	1.471573	-0.000108	-0.430601
C32	C	1.473429	-0.000108	-0.371185
C33	C	1.608845	-0.000090	-0.347568
C34	C	1.610682	-0.000038	-0.288169
N35	N	1.746089	-0.000038	-0.264548
C36	C	1.879651	-0.000039	-0.300341
C37	C	1.599437	-0.000096	-0.650581
C38	C	1.597591	-0.000084	-0.709992
C39	C	1.866571	-0.000083	-0.722165
C40	C	1.868416	-0.000082	-0.662752
C41	C	1.734844	-0.000096	-0.626960
C42	C	1.883510	-0.000002	-0.175576
C43	C	1.885340	0.000022	-0.116160
C44	C	1.616360	0.000011	-0.103993
C45	C	1.614529	-0.000003	-0.163403
C46	C	1.748116	-0.000016	-0.199194
O47	O	1.497326	0.000019	-0.252222
O48	O	1.994976	-0.000059	-0.274786
C49	C	1.729170	-0.000069	0.190979
C50	C	1.731154	-0.000094	0.254210
H51	H	1.992289	-0.000019	-0.204710
H52	H	2.121639	-0.000033	-0.376323
O53	O	1.486488	0.000077	-0.069300
C54	C	1.366564	0.000006	-0.102880
H55	H	1.404650	0.055862	-0.147020
H56	H	1.325043	-0.141513	-0.107320
C57	C	1.193430	0.047047	-0.019726
C58	C	1.240205	0.115663	-0.073937
H59	H	1.115482	0.118382	-0.001872
H60	H	1.274224	0.047088	0.002898
H61	H	1.158839	-0.070885	-0.023433
H62	H	1.274812	0.233583	-0.070228
H63	H	1.159414	0.115645	-0.096560
O64	O	1.996455	-0.000021	-0.756858
C65	C	2.116378	-0.000064	-0.723278
H66	H	2.078283	0.055792	-0.679144
H67	H	2.157926	-0.141576	-0.718823
C68	C	2.289504	0.046992	-0.806437
C69	C	2.242717	0.115610	-0.752233
H70	H	2.367439	0.118338	-0.824299
H71	H	2.208710	0.047015	-0.829061
H72	H	2.324117	-0.070933	-0.802717
H73	H	2.208088	0.233523	-0.755954
H74	H	2.323508	0.115610	-0.729610
H75	H	2.118297	-0.000064	-0.484092
H76	H	1.504263	0.000031	-0.182633
H77	H	1.487322	-0.000068	-0.729215
H78	H	1.995617	0.000041	-0.096935
H79	H	1.978683	-0.000069	-0.643528
H80	H	1.490659	-0.000092	-0.621442
H81	H	1.361303	-0.000133	-0.449820
H82	H	1.364656	-0.000122	-0.342046
