data_functionalizedCrystal
_audit_creation_method	'MofGen! by Chris Wilmer'
_symmetry_space_group_name_H-M	'P1'
_symmetry_Int_Tables_number	1
_symmetry_cell_setting	triclinic
loop_
_symmetry_equiv_pos_as_xyz
  x,y,z
_cell_length_a	14.971486
_cell_length_b	15.944551
_cell_length_c	13.448316
_cell_angle_alpha	89.992444
_cell_angle_beta	89.998199
_cell_angle_gamma	83.556434
loop_
_atom_site_label
_atom_site_type_symbol
_atom_site_fract_x
_atom_site_fract_y
_atom_site_fract_z
O1	O	1.186829	0.109463	-0.082580
O2	O	0.926415	0.122572	-0.082607
O3	O	1.063733	-0.006250	-0.082584
O4	O	1.049511	0.238286	-0.082603
O5	O	1.063716	-0.006258	0.082800
O6	O	0.926398	0.122564	0.082777
O7	O	1.186812	0.109456	0.082804
Cu8	Cu	1.056603	0.116009	0.097891
Cu9	Cu	1.056624	0.116018	-0.097694
O10	O	1.049494	0.238278	0.082781
C11	C	0.893082	0.121982	0.000081
C12	C	0.793787	0.120225	0.000071
C13	C	1.063134	-0.037549	0.000108
C14	C	1.061364	-0.130797	0.000109
C15	C	0.736480	0.195904	0.000067
C16	C	0.643182	0.194249	0.000082
C17	C	0.607194	0.116913	0.000094
C18	C	0.664508	0.041227	0.000102
C19	C	0.757804	0.042884	0.000094
C20	C	0.470049	0.037780	0.000116
C21	C	0.376747	0.036123	0.000122
C22	C	0.355428	0.189145	0.000104
C23	C	0.448724	0.190801	0.000096
C24	C	0.506032	0.115116	0.000101
C25	C	0.972017	-0.345738	0.000086
C26	C	1.013498	-0.406720	0.081634
C27	C	1.058162	-0.301526	0.000101
C28	C	1.013536	-0.406696	-0.081421
C29	C	1.055062	-0.466441	0.000089
C30	C	1.099667	-0.361279	0.081717
C31	C	1.099692	-0.361248	-0.081412
C32	C	1.141236	-0.422212	0.000156
C33	C	1.059945	-0.206522	0.000109
C34	C	1.053286	-0.561444	0.000088
C35	C	1.220145	0.110046	0.000113
C36	C	1.319440	0.111802	0.000117
C37	C	1.050093	0.269576	0.000087
C38	C	1.051863	0.362824	0.000080
N39	N	1.056595	0.116002	0.235456
N40	N	1.056639	0.116019	-0.235258
C41	C	1.117419	0.058983	0.287506
C42	C	1.117425	0.058982	0.391610
C43	C	1.056610	0.116005	0.443660
C44	C	0.995780	0.173027	0.391602
C45	C	0.995771	0.173023	0.287501
C46	C	0.995805	0.173033	0.608582
C47	C	0.995815	0.173038	0.712691
C48	C	1.117459	0.058992	0.712691
C49	C	1.117449	0.058988	0.608590
C50	C	1.056620	0.116011	0.556539
H51	H	0.765774	0.258881	0.000056
H52	H	0.977096	-0.426804	-0.150369
O53	O	1.176355	0.003521	0.236862
C54	C	1.128417	-0.048387	0.176715
H55	H	1.058446	-0.015011	0.161098
H56	H	1.165742	-0.061675	0.103518
H57	H	1.122299	-0.110449	0.216890
H58	H	0.900512	-0.312499	0.000160
H59	H	1.166951	0.012552	0.433989
O60	O	0.970085	-0.430910	0.163841
C61	C	0.969721	-0.519297	0.163129
H62	H	1.027521	-0.549144	0.115132
H63	H	0.978100	-0.544508	0.242303
H64	H	0.903250	-0.535710	0.131378
O65	O	0.936684	0.228507	0.558173
C66	C	0.882997	0.278827	0.626434
H67	H	0.919672	0.279833	0.700637
H68	H	0.869354	0.345887	0.596344
H69	H	0.816553	0.251454	0.637519
O70	O	0.936656	0.228495	0.237090
C71	C	0.882967	0.278813	0.305351
H72	H	0.919643	0.279824	0.379552
H73	H	0.869317	0.345871	0.275258
H74	H	0.816526	0.251434	0.316440
H75	H	0.596526	0.255875	0.000077
H76	H	0.308763	0.250771	0.000103
H77	H	0.946260	0.219453	0.433988
H78	H	0.478022	0.253775	0.000076
H79	H	1.166973	0.012560	0.566210
H80	H	0.347448	-0.026851	0.000133
O81	O	0.525592	-0.035819	0.000072
C82	C	0.473824	-0.104434	0.000103
H83	H	0.404190	-0.083181	-0.031198
H84	H	0.508233	-0.157459	-0.047918
H85	H	0.467188	-0.128145	0.079447
O86	O	0.629656	-0.033949	-0.000020
C87	C	0.658921	-0.080076	-0.085684
H88	H	0.723628	-0.057118	-0.114244
H89	H	0.671865	-0.150013	-0.066416
H90	H	0.604934	-0.070397	-0.145661
H91	H	1.166987	0.012562	0.755077
O92	O	1.226559	-0.461819	0.000144
C93	C	1.223985	-0.549940	-0.000660
H94	H	1.156939	-0.564804	-0.032415
H95	H	1.281160	-0.580942	-0.048705
H96	H	1.231775	-0.575330	0.078486
H97	H	1.136065	-0.341257	0.150735
H98	H	0.804463	-0.018742	0.000097
H99	H	1.136104	-0.341080	-0.150351
O100	O	0.936701	0.228306	0.763370
C101	C	0.881529	0.183222	0.823588
H102	H	0.917165	0.117551	0.839178
H103	H	0.867390	0.218253	0.896793
H104	H	0.815419	0.177405	0.783488
