data_functionalizedCrystal
_audit_creation_method	'MofGen! by Chris Wilmer'
_symmetry_space_group_name_H-M	'P1'
_symmetry_Int_Tables_number	1
_symmetry_cell_setting	triclinic
loop_
_symmetry_equiv_pos_as_xyz
  x,y,z
_cell_length_a	9.065215
_cell_length_b	11.792241
_cell_length_c	10.868271
_cell_angle_alpha	90.005281
_cell_angle_beta	90.003765
_cell_angle_gamma	84.604057
loop_
_atom_site_label
_atom_site_type_symbol
_atom_site_fract_x
_atom_site_fract_y
_atom_site_fract_z
O1	O	1.958844	0.166417	0.102309
O2	O	2.458844	0.666417	0.602309
O3	O	1.529430	0.180071	0.102314
O4	O	2.029430	0.680071	0.602314
O5	O	1.754558	0.008131	0.102303
O6	O	2.254558	0.508131	0.602303
O7	O	1.733716	0.338357	0.102320
O8	O	2.233716	0.838357	0.602320
O9	O	1.754539	0.008124	-0.102342
O10	O	2.254539	0.508124	0.397658
O11	O	1.529412	0.180064	-0.102330
O12	O	2.029412	0.680064	0.397670
O13	O	1.958825	0.166410	-0.102336
O14	O	2.458825	0.666410	0.397664
Zn15	Zn	1.744116	0.173236	-0.134825
Zn16	Zn	2.244116	0.673236	0.365175
Zn17	Zn	1.744140	0.173245	0.134803
Zn18	Zn	2.244140	0.673245	0.634803
O19	O	1.733698	0.338350	-0.102324
O20	O	2.233698	0.838350	0.397676
C21	C	1.474447	0.178756	-0.000007
C22	C	1.974447	0.678756	0.499993
C23	C	1.310640	0.174835	-0.000005
C24	C	1.810640	0.674835	0.499995
C25	C	1.753239	-0.034171	-0.000019
C26	C	2.253239	0.465829	0.499981
C27	C	1.749321	-0.160206	-0.000018
C28	C	2.249321	0.339794	0.499982
C29	C	1.742116	-0.390958	0.000003
C30	C	2.242116	0.109042	0.500003
C31	C	1.746119	-0.262551	-0.000009
C32	C	2.246119	0.237449	0.499991
C33	C	2.013809	0.167725	-0.000012
C34	C	2.513809	0.667725	0.499988
C35	C	2.177615	0.171646	-0.000005
C36	C	2.677615	0.671646	0.499995
C37	C	1.735016	0.380652	0.000000
C38	C	2.235016	0.880652	0.500000
C39	C	1.738935	0.506687	0.000007
C40	C	2.238935	1.006687	0.500007
N41	N	1.744110	0.173229	-0.318839
N42	N	2.244110	0.673229	0.181161
C43	C	1.744132	0.173243	-0.569845
C44	C	2.244132	0.673243	-0.069845
C45	C	1.744115	0.173238	-0.430168
C46	C	2.244115	0.673238	0.069832
N47	N	1.744158	0.173243	0.318817
N48	N	2.244158	0.673243	0.818817
