data_functionalizedCrystal
_audit_creation_method	'MofGen! by Chris Wilmer'
_symmetry_space_group_name_H-M	'P1'
_symmetry_Int_Tables_number	1
_symmetry_cell_setting	triclinic
loop_
_symmetry_equiv_pos_as_xyz
  x,y,z
_cell_length_a	14.908571
_cell_length_b	18.101395
_cell_length_c	14.908308
_cell_angle_alpha	86.733684
_cell_angle_beta	89.824947
_cell_angle_gamma	86.727274
loop_
_atom_site_label
_atom_site_type_symbol
_atom_site_fract_x
_atom_site_fract_y
_atom_site_fract_z
Zn1	Zn	1.345208	-0.386468	0.587575
Zn2	Zn	1.353762	-0.503604	0.437213
Zn3	Zn	1.203527	-0.372244	0.428573
Zn4	Zn	1.194790	-0.502724	0.578865
O5	O	1.274322	-0.441260	0.508057
O6	O	1.472167	-0.408328	0.574890
O7	O	1.341069	-0.480594	0.310243
O8	O	1.222397	-0.270503	0.449694
O9	O	1.478452	-0.494387	0.464420
O10	O	1.326490	-0.280953	0.566512
O11	O	1.230692	-0.384085	0.303895
O12	O	1.076543	-0.383231	0.441249
O13	O	1.207507	-0.492887	0.705845
O14	O	1.070124	-0.479094	0.551667
O15	O	1.318019	-0.407474	0.712244
O16	O	1.332598	-0.607115	0.455974
O17	O	1.215801	-0.606469	0.560045
C18	C	1.040709	-0.429524	0.494576
C19	C	0.940767	-0.424523	0.488830
C20	C	1.274203	-0.633663	0.508023
C21	C	1.274233	-0.715980	0.508044
C22	C	0.746339	-0.515086	0.592857
C23	C	0.652434	-0.510389	0.587462
C24	C	0.659052	-0.410428	0.472648
C25	C	0.752956	-0.415125	0.478044
C26	C	0.796596	-0.467457	0.538149
C27	C	0.890503	-0.472157	0.543540
C28	C	0.897118	-0.372193	0.428731
C29	C	0.803213	-0.367496	0.423336
C30	C	1.274427	-1.015083	0.508104
C31	C	1.201093	-0.983397	0.573764
C32	C	1.200777	-0.897753	0.573527
C33	C	1.274331	-0.866694	0.508075
C34	C	1.254147	-0.892332	0.411835
C35	C	1.253677	-0.977973	0.412227
C36	C	1.368144	-0.989281	0.537857
C37	C	1.367465	-0.903695	0.539903
C38	C	1.274278	-0.782831	0.508053
C39	C	1.274478	-1.098945	0.508119
C40	C	1.508847	-0.453042	0.521591
C41	C	1.608787	-0.458063	0.527358
C42	C	1.260834	-0.451669	0.742582
C43	C	1.255087	-0.456105	0.842522
C44	C	1.274464	-0.248107	0.508111
C45	C	1.274525	-0.165797	0.508134
C46	C	1.287808	-0.430840	0.274447
C47	C	1.293730	-0.426205	0.174517
C48	C	1.359359	-0.375483	1.036986
C49	C	1.353962	-0.379648	1.130890
C50	C	1.238890	-0.468597	1.124234
C51	C	1.244288	-0.464432	1.030330
C52	C	1.304525	-0.417874	0.986710
C53	C	1.309927	-0.413713	0.892805
C54	C	1.194851	-0.502657	0.886151
C55	C	1.189453	-0.506822	0.980054
H56	H	0.926033	-0.514769	0.592479
H57	H	1.306121	-0.872037	0.361340
H58	H	0.781872	-0.557700	0.641793
H59	H	0.611518	-0.549172	0.632012
H60	H	0.938048	-0.333411	0.384182
N61	N	0.611977	-0.354014	0.407793
H62	H	0.544863	-0.358276	0.412669
H63	H	0.632078	-0.363464	0.344509
N64	N	0.756143	-0.311070	0.358492
H65	H	0.689029	-0.315326	0.363368
H66	H	0.776241	-0.320509	0.295203
N67	N	1.216656	-0.875061	0.667823
H68	H	1.223926	-0.920732	0.709918
H69	H	1.163705	-0.842598	0.687520
N70	N	1.124485	-0.557041	1.027092
H71	H	1.061190	-0.541590	1.007040
H72	H	1.129452	-0.553234	1.094199
N73	N	1.216739	-1.015841	0.668352
H74	H	1.168953	-0.994783	0.709391
H75	H	1.277883	-1.002977	0.689608
N76	N	1.374903	-0.363506	0.845758
H77	H	1.370010	-0.367304	0.778641
H78	H	1.438163	-0.378993	0.865882
N79	N	1.424346	-0.325284	0.989942
H80	H	1.468228	-0.355756	0.953388
H81	H	1.458204	-0.299082	1.036103
N82	N	1.109481	-1.006390	0.547394
H83	H	1.115275	-1.037242	0.493100
H84	H	1.068923	-0.960756	0.532527
N85	N	1.108623	-0.865054	0.546840
H86	H	1.062667	-0.883732	0.591242
H87	H	1.093504	-0.880314	0.484801
N88	N	1.387763	-0.882112	0.633748
H89	H	1.445314	-0.855237	0.633250
H90	H	1.394678	-0.928153	0.675260
N91	N	1.163153	-0.998695	0.379681
H92	H	1.123928	-0.952220	0.365217
H93	H	1.133696	-1.030218	0.428137
N94	N	1.321744	-1.005462	0.344825
H95	H	1.351920	-0.961944	0.314987
H96	H	1.290420	-1.032736	0.297849
N97	N	1.135709	-0.548388	0.831926
H98	H	1.148269	-0.538688	0.765819
H99	H	1.070555	-0.534370	0.844634
N100	N	1.164623	-0.858198	0.378860
H101	H	1.115619	-0.874302	0.421333
H102	H	1.152316	-0.875037	0.316876
N103	N	1.393952	-1.023390	0.629606
H104	H	1.347195	-1.007747	0.674980
H105	H	1.454295	-1.006080	0.647285
H106	H	1.398611	-0.345127	1.171821
H107	H	1.424553	-0.882912	0.496001
N108	N	1.440431	-1.016534	0.474603
H109	H	1.412661	-1.045453	0.426904
H110	H	1.486547	-1.049588	0.509427
N111	N	1.173888	-0.518777	1.171286
H112	H	1.178780	-0.514970	1.238402
H113	H	1.188757	-0.571650	1.155690
