data_functionalizedCrystal
_audit_creation_method	'MofGen! by Chris Wilmer'
_symmetry_space_group_name_H-M	'P1'
_symmetry_Int_Tables_number	1
_symmetry_cell_setting	triclinic
loop_
_symmetry_equiv_pos_as_xyz
  x,y,z
_cell_length_a	10.654550
_cell_length_b	9.130313
_cell_length_c	10.654560
_cell_angle_alpha	89.998592
_cell_angle_beta	95.512905
_cell_angle_gamma	89.996111
loop_
_atom_site_label
_atom_site_type_symbol
_atom_site_fract_x
_atom_site_fract_y
_atom_site_fract_z
O1	O	1.667841	-0.121914	-0.176391
O2	O	1.302363	-0.121889	-0.193197
O3	O	1.493498	-0.121899	-0.002055
O4	O	1.476706	-0.121904	-0.367532
O5	O	1.493495	0.121700	-0.002064
O6	O	1.302360	0.121709	-0.193205
O7	O	1.667838	0.121685	-0.176399
Cu8	Cu	1.485099	0.143940	-0.184803
Cu9	Cu	1.485103	-0.144144	-0.184793
O10	O	1.476703	0.121695	-0.367540
C11	C	1.255564	-0.000087	-0.191967
C12	C	1.116120	-0.000078	-0.188275
N13	N	1.485106	0.346562	-0.184809
C14	C	1.036639	-0.000101	-0.300816
C15	C	0.905618	-0.000126	-0.297339
C16	C	0.933573	-0.000112	-0.068771
C17	C	1.064591	-0.000076	-0.072249
C18	C	1.088168	-0.000103	-0.416842
C19	C	1.008686	-0.000128	-0.529392
C20	C	0.877665	-0.000153	-0.525916
C21	C	0.826126	-0.000154	-0.409889
C22	C	1.569762	0.423210	-0.100202
C23	C	1.569758	0.576547	-0.100189
C24	C	1.400438	0.576575	-0.269402
C25	C	1.400436	0.423241	-0.269407
C26	C	1.654431	0.346532	-0.015603
C27	C	1.739095	0.423180	0.069010
C28	C	1.739091	0.576517	0.069023
C29	C	1.654423	0.653206	-0.015577
C30	C	1.714638	-0.000120	-0.177629
C31	C	1.854081	-0.000139	-0.181321
C32	C	1.492261	-0.000102	0.044738
C33	C	1.488564	-0.000108	0.184181
N34	N	1.485103	0.653233	-0.184790
C35	C	1.477940	-0.000106	-0.414334
C36	C	1.481638	-0.000109	-0.553777
C37	C	1.483371	0.132678	0.380715
C38	C	1.486830	0.132679	0.249692
C39	C	1.486826	-0.132906	0.249698
C40	C	1.483359	-0.132905	0.380718
C41	C	1.481650	0.265475	0.446221
C42	C	1.483385	0.398272	0.380713
C43	C	1.486844	0.398273	0.249690
C44	C	1.488567	0.265476	0.184175
H45	H	1.050657	-0.000115	-0.623857
H46	H	1.654444	0.221677	-0.015609
H47	H	1.481970	0.506390	0.434062
H48	H	0.812953	-0.000158	-0.617560
H49	H	1.808019	0.638922	0.137926
O50	O	1.654414	0.818592	-0.015571
H51	H	1.727510	0.859011	0.057472
O52	O	1.150335	-0.000050	0.049128
H53	H	1.131934	-0.099347	0.104601
H54	H	1.331505	0.639025	-0.338281
O55	O	1.830383	0.340479	0.160286
H56	H	1.816164	0.220979	0.146068
O57	O	1.309139	0.340553	-0.360667
H58	H	1.250278	0.419630	-0.419507
H59	H	1.478837	0.265489	0.552907
H60	H	1.488241	0.506403	0.196354
H61	H	1.491361	0.265488	0.077484
O62	O	1.488689	-0.276132	0.179046
H63	H	1.575723	-0.282499	0.129807
O64	O	1.229483	-0.000062	-0.420587
H65	H	1.251965	-0.000054	-0.520171
O66	O	0.684811	-0.000167	-0.406127
H67	H	0.644247	-0.099466	-0.454530
O68	O	0.877994	-0.000125	0.056367
H69	H	0.773535	-0.000167	0.039878
O70	O	1.481490	-0.276120	0.451388
H71	H	1.483288	-0.368462	0.383831
