data_functionalizedCrystal
_audit_creation_method	'MofGen! by Chris Wilmer'
_symmetry_space_group_name_H-M	'P1'
_symmetry_Int_Tables_number	1
_symmetry_cell_setting	triclinic
loop_
_symmetry_equiv_pos_as_xyz
  x,y,z
_cell_length_a	25.639239
_cell_length_b	19.077367
_cell_length_c	19.076919
_cell_angle_alpha	94.478002
_cell_angle_beta	87.731593
_cell_angle_gamma	87.662623
loop_
_atom_site_label
_atom_site_type_symbol
_atom_site_fract_x
_atom_site_fract_y
_atom_site_fract_z
Zn1	Zn	-0.187102	-1.061613	0.355414
Zn2	Zn	-0.270880	-1.066240	0.237531
Zn3	Zn	-0.187115	-0.948468	0.242266
Zn4	Zn	-0.278166	-0.943666	0.360095
O5	O	-0.230816	-1.004997	0.298827
O6	O	-0.195161	-1.160876	0.335836
O7	O	-0.256725	-1.054563	0.139512
O8	O	-0.113947	-0.963550	0.257298
O9	O	-0.256712	-1.164275	0.249227
O10	O	-0.113937	-1.046677	0.340428
O11	O	-0.195183	-0.968037	0.142991
O12	O	-0.202248	-0.849182	0.261837
O13	O	-0.269131	-0.955366	0.458121
O14	O	-0.269143	-0.845654	0.348406
O15	O	-0.202226	-1.042021	0.454682
O16	O	-0.345014	-1.049907	0.253766
O17	O	-0.350367	-0.959853	0.343814
C18	C	-0.236488	-0.821839	0.306143
C19	C	-0.238927	-0.743483	0.309290
C20	C	-0.205197	-0.708484	0.265771
C21	C	-0.207493	-0.634860	0.268728
C22	C	-0.243519	-0.596236	0.315208
C23	C	-0.277253	-0.631240	0.358729
C24	C	-0.274958	-0.704863	0.355768
C25	C	-0.254123	-0.375853	0.328885
C26	C	-0.256414	-0.302225	0.331844
C27	C	-0.186655	-0.305850	0.241841
C28	C	-0.184362	-0.379474	0.238887
C29	C	-0.218098	-0.414472	0.282406
N30	N	-0.245866	-0.520980	0.318233
N31	N	-0.215753	-0.489726	0.279377
C32	C	-0.366661	-1.004879	0.298799
C33	C	-0.424775	-1.004893	0.298808
C34	C	-0.782334	-1.052003	0.252011
C35	C	-0.836938	-1.052030	0.252019
O36	O	-0.862794	-1.091962	0.212200
N37	N	-0.867053	-1.005119	0.298868
C38	C	-0.842561	-0.958183	0.345717
O39	O	-0.873189	-0.918284	0.385567
C40	C	-0.787958	-0.958160	0.345712
C41	C	-0.757846	-1.005069	0.298855
C42	C	-0.752223	-1.098908	0.205158
C43	C	-0.697623	-1.098880	0.205149
C44	C	-0.673135	-1.051947	0.251993
C45	C	-0.703246	-1.005041	0.298845
C46	C	-0.763467	-0.911228	0.392563
C47	C	-0.708860	-0.911209	0.392554
C48	C	-0.678748	-0.958118	0.345697
C49	C	-0.624158	-0.958079	0.345680
N50	N	-0.594043	-1.004990	0.298831
C51	C	-0.618532	-1.051924	0.251987
C52	C	-0.957230	-0.958235	0.345726
C53	C	-1.011832	-0.958254	0.345728
C54	C	-1.006206	-1.052102	0.252031
C55	C	-0.951603	-1.052079	0.252026
C56	C	-0.927116	-1.005146	0.298877
C57	C	-0.503868	-1.051861	0.251971
C58	C	-0.449264	-1.051827	0.251965
C59	C	-0.454895	-0.957982	0.345664
C60	C	-0.509494	-0.958013	0.345669
C61	C	-0.533980	-1.004958	0.298820
O62	O	-0.598266	-0.918169	0.385481
O63	O	-0.587897	-1.091822	0.212150
C64	C	-0.094440	-1.005133	0.298869
C65	C	-0.036325	-1.005191	0.298887
C66	C	-0.236490	-0.997642	0.482695
C67	C	-0.238907	-0.994508	0.561049
C68	C	-0.225119	-0.188870	0.291475
C69	C	-0.222684	-0.267226	0.288324
C70	C	-0.225125	-1.012364	0.115672
C71	C	-0.222556	-1.015634	0.037313
C72	C	-0.205211	-1.038149	0.596070
C73	C	-0.207481	-1.035196	0.669692
C74	C	-0.243450	-0.988604	0.708292
C75	C	-0.277148	-0.944957	0.673265
C76	C	-0.274875	-0.947907	0.599645
C77	C	-0.253981	-0.974938	0.928666
C78	C	-0.256252	-0.971993	1.002291
C79	C	-0.186585	-1.062231	0.998714
C80	C	-0.184317	-1.065180	0.925092
C81	C	-0.218013	-1.021531	0.890072
N82	N	-0.245773	-0.985585	0.783545
N83	N	-0.215688	-1.024547	0.814820
H84	H	-0.281594	-0.404339	0.364320
N85	N	-0.147577	-1.112784	0.885676
N86	N	-0.117495	-1.151750	0.916955
H87	H	-0.091549	-1.185375	0.889118
N88	N	-0.173062	-1.079768	0.705475
N89	N	-0.141778	-1.053355	0.747553
H90	H	-0.117467	-1.084835	0.772825
N91	N	-0.932228	-0.910284	0.393589
N92	N	-0.959127	-0.868407	0.435412
H93	H	-0.941472	-0.834542	0.469217
N94	N	-0.292994	-0.924392	1.041719
N95	N	-0.326820	-0.947499	1.081799
H96	H	-0.352768	-0.913880	1.109642
N97	N	-0.528865	-1.099817	0.204111
N98	N	-0.501965	-1.141688	0.162283
H99	H	-0.519619	-1.175554	0.128478
N100	N	-0.152172	-1.106811	1.034497
N101	N	-0.154205	-1.104174	1.100229
H102	H	-0.129899	-1.135659	1.125502
H103	H	-0.281426	-0.939406	0.900161
N104	N	-0.313878	-0.897352	0.712698
N105	N	-0.298132	-0.850808	0.755576
H106	H	-0.324072	-0.817186	0.783427
N107	N	-0.794224	-0.863321	0.440429
N108	N	-0.842976	-0.863341	0.440442
H109	H	-0.864699	-0.829505	0.474251
N110	N	-0.309295	-0.903319	0.563880
N111	N	-0.341407	-0.861719	0.598349
H112	H	-0.365716	-0.830224	0.573092
H113	H	-0.285750	-0.270779	0.369698
H114	H	-0.175857	-0.739927	0.227927
N115	N	-0.666862	-1.146796	0.157292
N116	N	-0.635721	-1.190692	0.180322
H117	H	-0.613996	-1.224532	0.146519
H118	H	-0.306588	-0.599787	0.396571
N119	N	-0.429866	-0.910041	0.393501
N120	N	-0.381113	-0.910029	0.393481
H121	H	-0.363435	-0.876173	0.427268
H122	H	-0.180029	-0.606368	0.233285
H123	H	-0.175923	-1.076092	0.564648
H124	H	-0.534013	-0.919818	0.383826
N125	N	-0.147559	-0.418922	0.191411
N126	N	-0.099722	-0.410541	0.196532
H127	H	-0.073728	-0.438400	0.163002
N128	N	-0.152200	-0.270089	0.197397
N129	N	-0.154251	-0.204355	0.200045
H130	H	-0.129916	-0.179098	0.168653
H131	H	-0.424748	-1.090026	0.213805
N132	N	-0.309421	-0.740605	0.400222
N133	N	-0.341585	-0.706113	0.441718
H134	H	-0.365928	-0.731355	0.473113
N135	N	-0.777223	-1.146862	0.157303
N136	N	-0.750321	-1.188736	0.115480
H137	H	-0.767973	-1.222605	0.081676
H138	H	-1.036345	-0.920050	0.383878
N139	N	-0.920855	-1.099998	0.204157
N140	N	-0.942733	-1.141894	0.162334
H141	H	-0.921019	-1.175740	0.128525
H142	H	-1.026154	-1.090321	0.213891
H143	H	-0.688926	-0.872991	0.430708
