data_functionalizedCrystal
_audit_creation_method	'MofGen! by Chris Wilmer'
_symmetry_space_group_name_H-M	'P1'
_symmetry_Int_Tables_number	1
_symmetry_cell_setting	triclinic
loop_
_symmetry_equiv_pos_as_xyz
  x,y,z
_cell_length_a	10.540510
_cell_length_b	10.489711
_cell_length_c	8.965430
_cell_angle_alpha	89.995655
_cell_angle_beta	89.996613
_cell_angle_gamma	84.520160
loop_
_atom_site_label
_atom_site_type_symbol
_atom_site_fract_x
_atom_site_fract_y
_atom_site_fract_z
O1	O	1.685909	0.179593	-0.124035
O2	O	1.316491	0.196570	-0.124035
O3	O	1.509625	0.002479	-0.124039
O4	O	1.492774	0.373683	-0.124031
O5	O	1.509615	0.002460	0.124040
O6	O	1.316480	0.196551	0.124044
O7	O	1.685898	0.179574	0.124044
Cu8	Cu	1.501188	0.188060	0.146695
Cu9	Cu	1.501201	0.188083	-0.146687
O10	O	1.492763	0.373664	0.124048
C11	C	1.269182	0.195295	0.000004
C12	C	1.128232	0.191510	0.000004
C13	C	0.910778	0.326344	-0.000563
C14	C	1.057374	0.330382	0.000005
C15	C	1.083465	0.120410	0.141664
C16	C	0.936704	0.117356	0.141774
C17	C	0.936910	0.114486	-0.140339
C18	C	1.083251	0.121073	-0.142202
C19	C	1.508355	-0.045063	-0.000004
C20	C	1.504571	-0.186693	-0.000017
C21	C	1.620717	-0.369106	-0.000002
C22	C	1.562695	-0.276958	0.122313
C23	C	1.562675	-0.276963	-0.122273
C24	C	1.439745	-0.346881	0.122428
C25	C	1.439741	-0.346896	-0.122268
C26	C	1.381631	-0.254775	0.000076
C27	C	1.733207	0.180848	0.000001
C28	C	1.874157	0.184633	-0.000008
C29	C	1.494033	0.421206	0.000009
C30	C	1.497817	0.562836	0.000012
N31	N	1.501188	0.188044	0.353044
C32	C	1.589807	0.097576	0.549713
C33	C	1.616500	0.212719	0.450238
C34	C	1.474552	0.072910	0.450311
C35	C	1.527962	0.303289	0.549678
C36	C	1.385963	0.163404	0.549761
C37	C	1.412608	0.278631	0.450331
N38	N	1.501211	0.188087	0.646964
H39	H	0.913707	0.013489	0.148207
H40	H	1.664791	0.021138	0.593347
N41	N	1.146245	-0.015006	0.148670
H42	H	1.078714	-0.077130	0.147270
H43	H	1.204451	-0.031489	0.059857
N44	N	1.745580	0.240373	0.392328
H45	H	1.812457	0.171973	0.428469
H46	H	1.744256	0.241006	0.279690
N47	N	1.247709	-0.189219	0.000163
H48	H	1.234695	-0.133374	0.091693
H49	H	1.234219	-0.134587	-0.092287
N50	N	1.557961	0.432321	0.607235
H51	H	1.557820	0.431530	0.719886
H52	H	1.644694	0.451085	0.570046
H53	H	0.894367	0.158288	-0.247710
N54	N	1.148234	-0.013229	-0.153543
H55	H	1.198240	-0.022558	-0.249661
H56	H	1.207952	-0.030305	-0.066199
H57	H	1.614693	-0.245991	0.225721
N58	N	1.370929	-0.387666	0.259575
H59	H	1.280890	-0.344977	0.260002
H60	H	1.368886	-0.483726	0.258689
N61	N	1.096275	0.404082	-0.134482
H62	H	1.156683	0.346806	-0.198241
H63	H	1.018066	0.434228	-0.194569
N64	N	1.370918	-0.387981	-0.259239
H65	H	1.342989	-0.310369	-0.321985
H66	H	1.430048	-0.449642	-0.319325
N67	N	1.754507	-0.434986	0.000148
H68	H	1.801441	-0.408500	-0.091286
H69	H	1.800657	-0.409714	0.092692
N70	N	1.313328	0.380091	0.392908
H71	H	1.333618	0.466987	0.429259
H72	H	1.313379	0.378929	0.280266
H73	H	1.288540	0.142500	0.593508
H74	H	1.452013	-0.024475	0.406661
H75	H	1.614703	-0.246008	-0.225679
H76	H	0.867268	0.380128	0.100456
N77	N	0.855217	0.398034	-0.135129
H78	H	0.805762	0.339352	-0.197039
H79	H	0.796388	0.474154	-0.101207
N80	N	1.095009	0.404488	0.134738
H81	H	1.016324	0.434648	0.193999
H82	H	1.155000	0.347398	0.199187
H83	H	1.114316	0.169772	0.247090
N84	N	1.121188	0.189575	-0.281025
H85	H	1.080065	0.280574	-0.280133
H86	H	1.216924	0.190120	-0.283740
H87	H	0.896484	0.165931	0.247669
H88	H	0.914755	0.010221	-0.141299
