data_functionalizedCrystal
_audit_creation_method	'MofGen! by Chris Wilmer'
_symmetry_space_group_name_H-M	'P1'
_symmetry_Int_Tables_number	1
_symmetry_cell_setting	triclinic
loop_
_symmetry_equiv_pos_as_xyz
  x,y,z
_cell_length_a	12.837943
_cell_length_b	10.540539
_cell_length_c	11.892095
_cell_angle_alpha	93.930600
_cell_angle_beta	85.689438
_cell_angle_gamma	89.677216
loop_
_atom_site_label
_atom_site_type_symbol
_atom_site_fract_x
_atom_site_fract_y
_atom_site_fract_z
O1	O	1.384471	0.322967	-0.093973
O2	O	1.884471	0.822967	0.406027
O3	O	1.082545	0.306651	-0.093980
O4	O	1.582545	0.806651	0.406020
O5	O	1.240396	0.130859	-0.093975
O6	O	1.740396	0.630859	0.406025
O7	O	1.226620	0.498759	-0.093978
O8	O	1.726620	0.998759	0.406022
O9	O	1.227234	0.145491	0.094032
O10	O	1.727234	0.645491	0.594032
O11	O	1.069383	0.321283	0.094027
O12	O	1.569383	0.821283	0.594027
O13	O	1.371309	0.337599	0.094034
O14	O	1.871309	0.837599	0.594034
Zn15	Zn	1.218257	0.331764	0.123881
Zn16	Zn	1.718257	0.831764	0.623881
Zn17	Zn	1.235597	0.312486	-0.123827
Zn18	Zn	1.735597	0.812486	0.376173
O19	O	1.213458	0.513391	0.094029
O20	O	1.713458	1.013391	0.594029
C21	C	1.037303	0.308455	0.000023
C22	C	1.537303	0.808455	0.500023
C23	C	0.922104	0.292017	0.000020
C24	C	1.422104	0.792017	0.500020
C25	C	1.232782	0.090759	0.000027
C26	C	1.732782	0.590759	0.500027
C27	C	1.229692	-0.050529	0.000020
C28	C	1.729692	0.449471	0.500020
C29	C	0.682608	0.489636	0.000034
C30	C	1.182608	0.989636	0.500034
C31	C	0.574368	0.474197	0.000032
C32	C	1.074368	0.974197	0.500032
C33	C	0.597382	0.245700	0.000022
C34	C	1.097382	0.745700	0.500022
C35	C	0.705621	0.261139	0.000024
C36	C	1.205621	0.761139	0.500024
C37	C	0.748231	0.383111	0.000028
C38	C	1.248231	0.883111	0.500028
C39	C	0.856473	0.398549	0.000022
C40	C	1.356473	0.898549	0.500022
C41	C	0.879484	0.170054	0.000020
C42	C	1.379484	0.670054	0.500020
C43	C	0.771244	0.154614	0.000018
C44	C	1.271244	0.654614	0.500018
C45	C	1.111279	-0.247002	-0.000404
C46	C	1.611279	0.252998	0.499596
C47	C	1.114382	-0.100007	0.000019
C48	C	1.614382	0.399993	0.500019
C49	C	1.277668	-0.097735	0.107383
C50	C	1.777668	0.402265	0.607383
C51	C	1.273726	-0.244704	0.107473
C52	C	1.773726	0.255296	0.607473
C53	C	1.291038	-0.261604	-0.106326
C54	C	1.791038	0.238396	0.393674
C55	C	1.292200	-0.114616	-0.107745
C56	C	1.792200	0.385384	0.392255
C57	C	1.416551	0.335795	0.000029
C58	C	1.916551	0.835795	0.500029
C59	C	1.531751	0.352232	0.000025
C60	C	2.031751	0.852232	0.500025
C61	C	1.221072	0.553491	0.000025
C62	C	1.721072	1.053491	0.500025
C63	C	1.224163	0.694779	0.000024
C64	C	1.724163	1.194779	0.500024
N65	N	1.206429	0.344921	0.292934
N66	N	1.706429	0.844921	0.792934
N67	N	1.247433	0.299320	-0.292880
N68	N	1.747433	0.799320	0.207120
C69	C	1.329731	0.207693	0.529586
C70	C	1.829731	0.707693	1.029586
C71	C	1.321471	0.216900	0.647928
C72	C	1.821471	0.716900	1.147928
C73	C	1.181647	0.372535	0.647961
C74	C	1.681647	0.872535	1.147961
C75	C	1.189906	0.363328	0.529620
C76	C	1.689906	0.863328	1.029620
C77	C	1.263952	0.280906	0.470436
C78	C	1.763952	0.780906	0.970436
C79	C	1.272215	0.271706	0.352093
C80	C	1.772215	0.771706	0.852093
C81	C	1.132387	0.427334	0.352128
C82	C	1.632387	0.927334	0.852128
C83	C	1.124127	0.436540	0.470470
C84	C	1.624127	0.936540	0.970470
H85	H	0.891163	0.497865	0.000027
H86	H	1.391163	0.997865	0.500027
H87	H	1.362068	-0.065766	0.111377
H88	H	1.862068	0.434234	0.611377
H89	H	1.227097	-0.271164	0.187727
H90	H	1.727097	0.228836	0.687727
H91	H	1.390028	0.140591	0.481398
H92	H	1.890028	0.640591	0.981398
H93	H	0.562663	0.146403	0.000112
H94	H	1.062663	0.646403	0.500112
H95	H	1.078828	0.486952	0.303955
H96	H	1.578828	0.986952	0.803955
H97	H	1.071118	-0.286599	-0.077396
H98	H	1.571118	0.213401	0.422604
H99	H	1.233527	-0.053152	0.187277
H100	H	1.733527	0.446848	0.687277
H101	H	0.717301	0.588951	0.000036
H102	H	1.217301	1.088951	0.500036
H103	H	1.121354	0.439632	0.696164
H104	H	1.621354	0.939632	1.196164
H105	H	1.375034	0.157281	0.696085
H106	H	1.875034	0.657281	1.196085
H107	H	0.520940	0.560941	0.000040
H108	H	1.020940	1.060941	0.500040
H109	H	1.060554	-0.276235	0.076154
H110	H	1.560554	0.223765	0.576154
H111	H	0.736536	0.055309	0.000028
H112	H	1.236536	0.555309	0.500028
H113	H	0.932927	0.083313	0.000008
H114	H	1.432927	0.583313	0.500008
H115	H	1.065016	-0.057082	0.077107
H116	H	1.565016	0.442918	0.577107
H117	H	1.376723	-0.081663	-0.114226
H118	H	1.876723	0.418337	0.385774
H119	H	1.356314	-0.283183	0.112346
H120	H	1.856314	0.216817	0.612346
H121	H	1.063838	0.503644	0.518671
H122	H	1.563838	1.003644	1.018671
H123	H	1.076106	-0.068190	-0.076943
H124	H	1.576106	0.431810	0.423057
H125	H	1.332509	0.204598	0.303907
H126	H	1.832509	0.704598	0.803907
H127	H	1.259415	-0.303591	-0.187700
H128	H	1.759415	0.196409	0.312300
H129	H	1.257157	-0.084400	-0.187169
H130	H	1.757157	0.415600	0.312831
H131	H	1.374376	-0.299736	-0.107046
H132	H	1.874376	0.200264	0.392954
