data_functionalizedCrystal
_audit_creation_method	'MofGen! by Chris Wilmer'
_symmetry_space_group_name_H-M	'P1'
_symmetry_Int_Tables_number	1
_symmetry_cell_setting	triclinic
loop_
_symmetry_equiv_pos_as_xyz
  x,y,z
_cell_length_a	11.792241
_cell_length_b	12.811438
_cell_length_c	11.295483
_cell_angle_alpha	91.289945
_cell_angle_beta	94.123059
_cell_angle_gamma	84.119405
loop_
_atom_site_label
_atom_site_type_symbol
_atom_site_fract_x
_atom_site_fract_y
_atom_site_fract_z
O1	O	0.156822	1.389903	0.051094
O2	O	0.656822	1.889903	0.551094
O3	O	0.170924	1.086741	0.018348
O4	O	0.670924	1.586741	0.518348
O5	O	-0.001250	1.245678	0.035524
O6	O	0.498750	1.745678	0.535524
O7	O	0.328996	1.230966	0.033918
O8	O	0.828996	1.730966	0.533918
O9	O	0.013849	1.231718	0.232066
O10	O	0.513849	1.731718	0.732066
O11	O	0.186023	1.072781	0.214890
O12	O	0.686023	1.572781	0.714890
O13	O	0.171921	1.375943	0.247636
O14	O	0.671921	1.875943	0.747636
Cu15	Cu	0.180351	1.223087	0.249209
Cu16	Cu	0.680351	1.723087	0.749209
Cu17	Cu	0.162495	1.239597	0.016775
Cu18	Cu	0.662495	1.739597	0.516775
O19	O	0.344095	1.217006	0.230460
O20	O	0.844095	1.717006	0.730460
C21	C	0.177220	1.040949	0.112426
C22	C	0.677220	1.540949	0.612426
C23	C	0.173469	0.925303	0.099935
C24	C	0.673469	1.425303	0.599935
C25	C	0.159952	0.769911	-0.024792
C26	C	0.659952	1.269911	0.475208
C27	C	0.163475	0.878571	-0.013066
C28	C	0.663475	1.378571	0.486934
C29	C	0.179936	0.863366	0.201217
C30	C	0.679936	1.363366	0.701217
C31	C	0.176414	0.754706	0.189490
C32	C	0.676414	1.254706	0.689490
C33	C	0.166423	0.707982	0.076482
C34	C	0.666423	1.207982	0.576482
C35	C	0.162908	0.599318	0.064756
C36	C	0.662908	1.099318	0.564756
C37	C	0.179361	0.584116	0.279038
C38	C	0.679361	1.084116	0.779038
C39	C	0.182884	0.692777	0.290764
C40	C	0.682884	1.192777	0.790764
C41	C	-0.035997	1.237774	0.133694
C42	C	0.464003	1.737774	0.633694
C43	C	-0.162029	1.235008	0.133394
C44	C	0.337971	1.735008	0.633394
C45	C	-0.392775	1.229922	0.132825
C46	C	0.107225	1.729922	0.632825
C47	C	-0.264371	1.232748	0.133141
C48	C	0.235629	1.732748	0.633141
C49	C	0.378842	1.224910	0.132286
C50	C	0.878842	1.724910	0.632286
C51	C	0.504873	1.227677	0.132579
C52	C	1.004873	1.727677	0.632579
C53	C	0.165626	1.421735	0.153554
C54	C	0.665626	1.921735	0.653554
C55	C	0.169376	1.537382	0.166038
C56	C	0.669376	2.037382	0.666038
N57	N	0.192909	1.211483	0.412691
N58	N	0.692909	1.711483	0.912691
N59	N	0.149927	1.251209	-0.146707
N60	N	0.649927	1.751209	0.353293
C61	C	0.059461	1.334742	0.675301
C62	C	0.559461	1.834742	1.175301
C63	C	0.068960	1.325980	0.799017
C64	C	0.568960	1.825980	1.299017
C65	C	0.221399	1.185193	0.783843
C66	C	0.721399	1.685193	1.283843
C67	C	0.211900	1.193955	0.660126
C68	C	0.711900	1.693955	1.160126
C69	C	0.130930	1.268733	0.605860
C70	C	0.630930	1.768733	1.105860
C71	C	0.121438	1.277499	0.482141
C72	C	0.621438	1.777499	0.982141
C73	C	0.273870	1.136708	0.466969
C74	C	0.773870	1.636708	0.966969
C75	C	0.283369	1.127946	0.590685
C76	C	0.783369	1.627946	1.090685
H77	H	0.188057	0.901430	0.293223
H78	H	0.688057	1.401430	0.793223
C79	C	0.193880	0.744178	0.415063
C80	C	0.693880	1.244178	0.915063
H81	H	0.195059	0.817762	0.407544
H82	H	0.695059	1.317762	0.907544
H83	H	0.130646	0.730814	0.457991
H84	H	0.630646	1.230814	0.957991
H85	H	0.262742	0.715677	0.456332
H86	H	0.762742	1.215677	0.956332
C87	C	0.156366	0.946689	-0.124467
C88	C	0.656366	1.446689	0.375533
H89	H	0.149920	0.903295	-0.193446
H90	H	0.649920	1.403295	0.306554
H91	H	0.091356	0.996966	-0.123530
H92	H	0.591356	1.496966	0.376470
H93	H	0.223454	0.981819	-0.125164
H94	H	0.723454	1.481819	0.374836
H95	H	0.184636	0.533681	0.361503
H96	H	0.684636	1.033681	0.861503
C97	C	0.372433	1.045702	0.650386
C98	C	0.872433	1.545702	1.150386
H99	H	0.367861	1.049941	0.734013
H100	H	0.867861	1.549941	1.234013
H101	H	0.357612	0.977550	0.622612
H102	H	0.857612	1.477550	1.122612
H103	H	0.446787	1.058892	0.631375
H104	H	0.946787	1.558892	1.131375
H105	H	0.055511	1.338389	0.437959
H106	H	0.555511	1.838389	0.937959
C107	C	0.352502	1.064107	0.390583
C108	C	0.852502	1.564107	0.890583
H109	H	0.335252	1.080033	0.309128
H110	H	0.835252	1.580033	0.809128
H111	H	0.429961	1.074422	0.412134
H112	H	0.929961	1.574422	0.912134
H113	H	0.340790	0.993076	0.403348
H114	H	0.840790	1.493076	0.903348
H115	H	0.151830	0.731866	-0.116808
H116	H	0.651830	1.231866	0.383192
C117	C	0.151925	0.547922	-0.059546
C118	C	0.651925	1.047922	0.440454
H119	H	0.148567	0.600373	-0.118180
H120	H	0.648567	1.100373	0.381820
H121	H	0.216255	0.498283	-0.069395
H122	H	0.716255	0.998283	0.430605
H123	H	0.084157	0.513418	-0.067756
H124	H	0.584157	1.013418	0.432244
H125	H	-0.006461	1.395636	0.631117
H126	H	0.493539	1.895636	1.131117
C127	C	-0.009653	1.398592	0.875399
C128	C	0.490347	1.898592	1.375399
H129	H	-0.059228	1.444384	0.825357
H130	H	0.440772	1.944384	1.325357
H131	H	-0.053707	1.357439	0.919598
H132	H	0.446293	1.857439	1.419598
H133	H	0.035482	1.438769	0.928354
H134	H	0.535482	1.938769	1.428354
C135	C	0.310453	1.102944	0.843550
C136	C	0.810453	1.602944	1.343550
H137	H	0.305873	1.107186	0.927177
H138	H	0.805873	1.607186	1.427177
H139	H	0.295626	1.034794	0.815776
H140	H	0.795626	1.534794	1.315776
H141	H	0.384812	1.116126	0.824547
H142	H	0.884812	1.616126	1.324547
