data_functionalizedCrystal
_audit_creation_method	'MofGen! by Chris Wilmer'
_symmetry_space_group_name_H-M	'P1'
_symmetry_Int_Tables_number	1
_symmetry_cell_setting	triclinic
loop_
_symmetry_equiv_pos_as_xyz
  x,y,z
_cell_length_a	6.394989
_cell_length_b	8.559649
_cell_length_c	7.088929
_cell_angle_alpha	95.325015
_cell_angle_beta	83.598222
_cell_angle_gamma	78.138188
loop_
_atom_site_label
_atom_site_type_symbol
_atom_site_fract_x
_atom_site_fract_y
_atom_site_fract_z
O1	O	-0.046611	2.102790	-0.158959
O2	O	0.453389	2.602790	0.341041
O3	O	0.060915	1.639750	-0.158964
O4	O	0.560915	2.139750	0.341036
O5	O	-0.297966	1.877842	-0.158963
O6	O	0.202034	2.377842	0.341037
O7	O	0.312270	1.864698	-0.158960
O8	O	0.812270	2.364698	0.341040
O9	O	-0.346024	1.909659	0.159012
O10	O	0.153976	2.409659	0.659012
O11	O	0.012857	1.671567	0.159011
O12	O	0.512857	2.171567	0.659011
O13	O	-0.094668	2.134606	0.159017
O14	O	0.405332	2.634606	0.659017
Cu15	Cu	-0.045294	1.905992	0.188047
Cu16	Cu	0.454706	2.405992	0.688047
Cu17	Cu	0.011540	1.868365	-0.187995
Cu18	Cu	0.511540	2.368365	0.312005
O19	O	0.264213	1.896514	0.159016
O20	O	0.764213	2.396514	0.659016
C21	C	0.045035	1.596293	0.000022
C22	C	0.545035	2.096293	0.500022
C23	C	0.069290	1.419401	0.000020
C24	C	0.569290	1.919401	0.500020
C25	C	0.365647	1.883204	0.000020
C26	C	0.865647	2.383204	0.500020
C27	C	0.600609	1.891147	0.000014
C28	C	1.100609	2.391147	0.500014
C29	C	-0.078788	2.178063	0.000026
C30	C	0.421212	2.678063	0.500026
C31	C	-0.103041	2.354954	0.000016
C32	C	0.396959	2.854954	0.500016
N33	N	-0.085270	1.932468	0.452536
N34	N	0.414730	2.432468	0.952536
N35	N	0.051498	1.841901	-0.452483
N36	N	0.551498	2.341901	0.047517
H37	H	0.235400	1.339239	0.000010
H38	H	0.735400	1.839239	0.500010
H39	H	-0.269137	1.435105	0.000005
H40	H	0.230863	1.935105	0.500005
H41	H	-0.227000	2.026349	0.534192
H42	H	0.273000	2.526349	1.034192
H43	H	0.193231	1.748038	0.465870
H44	H	0.693231	2.248038	0.965870
