data_functionalizedCrystal
_audit_creation_method	'MofGen! by Chris Wilmer'
_symmetry_space_group_name_H-M	'P1'
_symmetry_Int_Tables_number	1
_symmetry_cell_setting	triclinic
loop_
_symmetry_equiv_pos_as_xyz
  x,y,z
_cell_length_a	21.395362
_cell_length_b	19.121063
_cell_length_c	19.121264
_cell_angle_alpha	90.118627
_cell_angle_beta	87.584759
_cell_angle_gamma	92.485681
loop_
_atom_site_label
_atom_site_type_symbol
_atom_site_fract_x
_atom_site_fract_y
_atom_site_fract_z
Zn1	Zn	0.932244	-0.262025	0.408637
Zn2	Zn	1.432244	0.237975	0.908637
Zn3	Zn	0.931803	-0.384234	0.296393
Zn4	Zn	1.431803	0.115766	0.796393
Zn5	Zn	0.831761	-0.267045	0.291376
Zn6	Zn	1.331761	0.232955	0.791376
Zn7	Zn	0.822784	-0.379266	0.413550
Zn8	Zn	1.322784	0.120734	0.913550
O9	O	0.879648	-0.323142	0.352489
O10	O	1.379648	0.176858	0.852489
O11	O	1.019863	-0.278215	0.393790
O12	O	1.519863	0.221785	0.893790
O13	O	0.922104	-0.372868	0.197623
O14	O	1.422104	0.127132	0.697623
O15	O	0.849032	-0.168269	0.302775
O16	O	1.349032	0.331731	0.802775
O17	O	1.019538	-0.368001	0.311325
O18	O	1.519538	0.131999	0.811325
O19	O	0.922856	-0.164581	0.388926
O20	O	1.422856	0.335419	0.888926
O21	O	0.848604	-0.286770	0.193937
O22	O	1.348604	0.213230	0.693937
O23	O	0.742893	-0.281952	0.307540
O24	O	1.242893	0.218048	0.807540
O25	O	0.833732	-0.359534	0.511003
O26	O	1.333732	0.140466	1.011003
O27	O	0.736298	-0.364401	0.397300
O28	O	1.236298	0.135599	0.897300
O29	O	0.914152	-0.273398	0.507393
O30	O	1.414152	0.226602	1.007393
O31	O	0.913400	-0.481685	0.316090
O32	O	1.413400	0.018315	0.816090
O33	O	0.833304	-0.478035	0.402165
O34	O	1.333304	0.021965	0.902165
C35	C	0.716862	-0.323183	0.352409
C36	C	1.216862	0.176817	0.852409
C37	C	0.647220	-0.323216	0.352392
C38	C	1.147220	0.176784	0.852392
C39	C	0.611089	-0.366210	0.399066
C40	C	1.111089	0.133790	0.899066
C41	C	0.545653	-0.366191	0.399097
C42	C	1.045653	0.133809	0.899097
C43	C	0.516351	-0.323187	0.352441
C44	C	1.016351	0.176813	0.852441
C45	C	0.552490	-0.280185	0.305764
C46	C	1.052490	0.219815	0.805764
C47	C	0.617925	-0.280200	0.305740
C48	C	1.117925	0.219800	0.805740
C49	C	0.415166	-0.320223	0.289087
C50	C	0.915166	0.179777	0.789087
C51	C	0.349733	-0.320214	0.289111
C52	C	0.849733	0.179786	0.789111
C53	C	0.314529	-0.323138	0.352517
C54	C	0.814529	0.176862	0.852517
C55	C	0.344766	-0.326087	0.415902
C56	C	0.844766	0.173913	0.915902
C57	C	0.410201	-0.326102	0.415877
C58	C	0.910201	0.173898	0.915877
C59	C	0.445399	-0.323166	0.352463
C60	C	0.945399	0.176834	0.852463
C61	C	0.207445	-0.366114	0.399227
C62	C	0.707445	0.133886	0.899227
C63	C	0.142008	-0.366090	0.399259
C64	C	0.642008	0.133910	0.899259
C65	C	0.148846	-0.280088	0.305920
C66	C	0.648846	0.219912	0.805920
C67	C	0.214282	-0.280108	0.305895
C68	C	0.714282	0.219892	0.805895
C69	C	0.243577	-0.323124	0.352547
C70	C	0.743577	0.176876	0.852547
C71	C	0.872346	-0.505298	0.360220
C72	C	1.372346	-0.005298	0.860220
C73	C	0.869279	-0.583224	0.363551
C74	C	1.369279	-0.083224	0.863551
C75	C	0.909569	-0.621709	0.320338
C76	C	1.409569	-0.121709	0.820338
C77	C	0.906688	-0.694928	0.323475
C78	C	1.406688	-0.194928	0.823475
C79	C	0.863513	-0.729661	0.369821
C80	C	1.363513	-0.229661	0.869821
C81	C	0.823221	-0.691171	0.413038
C82	C	1.323221	-0.191171	0.913038
C83	C	0.826106	-0.617953	0.409905
C84	C	1.326106	-0.117953	0.909905
C85	C	0.852718	-0.950639	0.381526
C86	C	1.352718	-0.450639	0.881526
C87	C	0.849835	-1.023862	0.384655
C88	C	1.349835	-0.523862	0.884655
C89	C	0.933303	-1.027615	0.295092
C90	C	1.433303	-0.527615	0.795092
C91	C	0.936182	-0.954395	0.291959
C92	C	1.436182	-0.454395	0.791959
C93	C	0.895892	-0.915911	0.335179
C94	C	1.395892	-0.415911	0.835179
C95	C	0.860566	-0.804503	0.373027
C96	C	1.360566	-0.304503	0.873027
C97	C	0.898843	-0.841070	0.331977
C98	C	1.398843	-0.341070	0.831977
C99	C	1.043070	-0.323102	0.352569
C100	C	1.543070	0.176898	0.852569
C101	C	1.112710	-0.323085	0.352604
C102	C	1.612710	0.176915	0.852604
C103	C	0.872990	-0.315352	0.535347
C104	C	1.372990	0.184648	1.035347
C105	C	0.870153	-0.312032	0.613270
C106	C	1.370153	0.187968	1.113270
C107	C	0.886995	-0.140275	0.344743
C108	C	1.386995	0.359725	0.844743
C109	C	0.890126	-0.062348	0.341442
C110	C	1.390126	0.437652	0.841442
C111	C	0.907084	-0.355296	0.651800
C112	C	1.407084	0.144704	1.151800
C113	C	0.904418	-0.352169	0.725017
C114	C	1.404418	0.147831	1.225017
C115	C	0.864817	-0.305779	0.759702
C116	C	1.364817	0.194221	1.259702
C117	C	0.827884	-0.262509	0.721167
C118	C	1.327884	0.237491	1.221167
C119	C	0.830554	-0.265634	0.647951
C120	C	1.330554	0.234366	1.147951
C121	C	0.854846	-0.294098	0.980669
C122	C	1.354846	0.205902	1.480669
C123	C	0.852178	-0.290978	1.053890
C124	C	1.352178	0.209022	1.553890
C125	C	0.928713	-0.380636	1.057735
C126	C	1.428713	0.119364	1.557735
C127	C	0.931376	-0.383760	0.984518
C128	C	1.431376	0.116240	1.484518
C129	C	0.894446	-0.340488	0.945989
C130	C	1.394446	0.159512	1.445989
C131	C	0.862090	-0.302582	0.834541
C132	C	1.362090	0.197418	1.334541
C133	C	0.897177	-0.343682	0.871151
C134	C	1.397177	0.156318	1.371151
C135	C	0.886274	-0.330919	1.170343
C136	C	1.386274	0.169081	1.670343
C137	C	0.889110	-0.334242	1.092420
C138	C	1.389110	0.165758	1.592420
H139	H	0.434818	-0.328500	0.467487
H140	H	0.934818	0.171500	0.967487
H141	H	0.825411	-0.832791	0.410761
H142	H	1.325411	-0.332791	0.910761
H143	H	0.516230	-0.401201	0.437107
H144	H	1.016230	0.098799	0.937107
H145	H	0.966106	-1.058956	0.259906
H146	H	1.466106	-0.558956	0.759906
H147	H	0.443824	-0.317839	0.237451
H148	H	0.943824	0.182161	0.737451
H149	H	0.528628	-0.245170	0.267778
H150	H	1.028628	0.254830	0.767778
H151	H	0.243700	-0.245102	0.267884
H152	H	0.743700	0.254898	0.767884
H153	H	0.325119	-0.317817	0.237499
H154	H	0.825119	0.182183	0.737499
H155	H	0.944724	-0.593435	0.282595
H156	H	1.444724	-0.093435	0.782595
H157	H	0.814684	-1.052139	0.422408
H158	H	1.314684	-0.552139	0.922408
H159	H	0.788070	-0.719456	0.450778
H160	H	1.288070	-0.219456	0.950778
H161	H	0.795643	-0.224735	0.749413
H162	H	1.295643	0.275265	1.249413
H163	H	0.124989	-0.245070	0.267935
H164	H	0.624989	0.254930	0.767935
H165	H	0.647342	-0.245188	0.267732
H166	H	1.147342	0.254812	0.767732
H167	H	0.316105	-0.328467	0.467533
H168	H	0.816105	0.171533	0.967533
H169	H	0.829846	-0.264813	0.862790
H170	H	1.329846	0.235187	1.362790
H171	H	0.971338	-0.926117	0.254220
H172	H	1.471338	-0.426117	0.754220
H173	H	0.231299	-0.401136	0.437218
H174	H	0.731299	0.098864	0.937218
H175	H	0.819912	-0.919311	0.416716
H176	H	1.319912	-0.419311	0.916716
H177	H	0.634937	-0.401236	0.437056
H178	H	1.134937	0.098764	0.937056
H179	H	0.793298	-0.586618	0.445094
H180	H	1.293298	-0.086618	0.945094
H181	H	0.800482	-0.230401	0.616581
H182	H	1.300482	0.269599	1.116581
H183	H	0.929422	-0.381449	0.842907
H184	H	1.429422	0.118551	1.342907
H185	H	0.112591	-0.401099	0.437270
H186	H	0.612591	0.098901	0.937270
H187	H	0.939496	-0.726260	0.288286
H188	H	1.439496	-0.226260	0.788286
H189	H	0.933998	-0.812788	0.294244
H190	H	1.433998	-0.312788	0.794244
H191	H	0.939334	-0.393070	0.623564
H192	H	1.439334	0.106930	1.123564
H193	H	0.934492	-0.387399	0.756385
H194	H	1.434492	0.112601	1.256385
H195	H	0.963613	-0.421547	0.956283
H196	H	1.463613	0.078453	1.456283
H197	H	0.958781	-0.415864	1.089113
H198	H	1.458781	0.084136	1.589113
H199	H	0.819932	-0.253196	1.082128
H200	H	1.319932	0.246804	1.582128
H201	H	0.824772	-0.258865	0.949308
H202	H	1.324772	0.241135	1.449308
