data_functionalizedCrystal
_audit_creation_method	'MofGen! by Chris Wilmer'
_symmetry_space_group_name_H-M	'P1'
_symmetry_Int_Tables_number	1
_symmetry_cell_setting	triclinic
loop_
_symmetry_equiv_pos_as_xyz
  x,y,z
_cell_length_a	19.188925
_cell_length_b	17.666332
_cell_length_c	12.837942
_cell_angle_alpha	89.996283
_cell_angle_beta	88.985744
_cell_angle_gamma	89.993057
loop_
_atom_site_label
_atom_site_type_symbol
_atom_site_fract_x
_atom_site_fract_y
_atom_site_fract_z
O1	O	0.935021	-0.062964	0.129351
O2	O	0.732904	-0.062962	0.146773
O3	O	0.829481	-0.062959	-0.012820
O4	O	0.838444	-0.062968	0.288944
O5	O	0.829468	0.062938	-0.012824
O6	O	0.732891	0.062934	0.146770
O7	O	0.935008	0.062932	0.129347
Cu8	Cu	0.833949	0.074429	0.138058
Cu9	Cu	0.833964	-0.074459	0.138062
O10	O	0.838431	0.062929	0.288941
C11	C	0.706848	-0.000014	0.146208
C12	C	0.629227	-0.000013	0.144517
N13	N	0.833943	0.179148	0.138054
C14	C	0.073103	-0.000017	0.226840
C15	C	0.146036	-0.000021	0.228437
C16	C	0.184548	-0.000017	0.134793
C17	C	0.150121	-0.000028	0.039544
C18	C	0.077189	-0.000031	0.037949
N19	N	0.300571	0.042841	0.066997
N20	N	0.369852	0.042846	0.068519
C21	C	0.404286	-0.000008	0.139593
N22	N	0.366821	-0.042858	0.209104
N23	N	0.297533	-0.042860	0.207586
C24	C	0.263630	-0.000014	0.136512
C25	C	0.517787	-0.000007	0.236569
C26	C	0.590721	-0.000016	0.238163
C27	C	0.594804	-0.000015	0.049266
C28	C	0.521871	-0.000014	0.047675
C29	C	0.483367	-0.000006	0.141329
C30	C	0.876738	0.781200	0.067411
C31	C	0.876740	0.701952	0.067413
C32	C	0.833962	0.662330	0.138054
C33	C	0.791192	0.701961	0.208716
C34	C	0.791197	0.781207	0.208719
N35	N	0.773071	0.537917	0.151486
N36	N	0.773068	0.462637	0.151477
C37	C	0.833946	0.423566	0.138052
N38	N	0.894826	0.462619	0.124616
N39	N	0.894828	0.537906	0.124619
C40	C	0.833952	0.576401	0.138060
C41	C	0.876718	0.298014	0.067402
C42	C	0.876721	0.218765	0.067411
C43	C	0.791167	0.218776	0.208710
C44	C	0.791170	0.298023	0.208705
C45	C	0.833945	0.337638	0.138046
C46	C	0.961064	-0.000018	0.129912
C47	C	1.038685	-0.000024	0.131603
N48	N	0.833971	0.820822	0.138060
C49	C	0.826446	-0.000011	-0.051429
C50	C	0.817415	-0.000012	-0.166465
C51	C	0.925983	-0.000029	-0.407919
C52	C	0.917501	-0.000030	-0.516006
C53	C	0.791970	-0.000021	-0.490728
C54	C	0.800452	-0.000020	-0.382641
C55	C	0.867461	-0.000022	-0.341241
C56	C	0.875942	-0.000016	-0.233151
C57	C	0.750411	-0.000012	-0.207876
C58	C	0.741929	-0.000013	-0.315963
C59	C	0.841466	-0.000021	0.327549
C60	C	0.850497	-0.000025	0.442585
H61	H	0.041758	-0.000015	0.303100
N62	N	0.476250	-0.000015	0.337573
H63	H	0.445894	0.046655	0.341124
H64	H	0.509168	-0.000048	0.398092
H65	H	0.930504	-0.000015	-0.199445
N66	N	0.745030	0.340764	0.284889
H67	H	0.757954	0.326967	0.358413
H68	H	0.694716	0.326962	0.273037
N69	N	0.627848	-0.000023	0.340887
H70	H	0.592386	-0.000019	0.399970
H71	H	0.658017	0.046646	0.345661
H72	H	0.911550	0.186504	0.009884
H73	H	0.756363	0.669696	0.266235
N74	N	0.183171	-0.000015	0.331160
H75	H	0.147712	-0.000012	0.390246
H76	H	0.213334	0.046659	0.335922
H77	H	0.049166	-0.000037	-0.039607
H78	H	0.687373	-0.000014	-0.349687
H79	H	0.181481	-0.000027	-0.036702
H80	H	0.626159	-0.000017	-0.026981
N81	N	0.484742	-0.000015	-0.055045
H82	H	0.520204	-0.000012	-0.114128
H83	H	0.454565	0.046656	-0.059823
N84	N	0.980623	-0.000025	-0.587921
H85	H	0.965084	-0.000024	-0.662678
H86	H	1.009518	-0.046697	-0.574544
H87	H	0.737414	-0.000027	-0.524456
N88	N	0.998252	-0.000020	-0.363256
H89	H	1.034040	-0.000020	-0.421898
H90	H	1.004512	-0.046690	-0.318954
N91	N	0.687287	-0.000011	-0.135956
H92	H	0.643552	-0.000009	-0.178588
H93	H	0.688070	0.046663	-0.090568
N94	N	0.922896	0.823927	-0.008763
H95	H	0.949998	0.786796	-0.053507
H96	H	0.956389	0.856782	0.030831
H97	H	0.911567	0.669686	0.009881
H98	H	0.911550	0.330270	0.009870
H99	H	0.756370	0.813468	0.266251
N100	N	0.745032	0.176052	0.284911
H101	H	0.751519	0.119836	0.274193
H102	H	0.694720	0.189912	0.273128
