data_functionalizedCrystal
_audit_creation_method	'MofGen! by Chris Wilmer'
_symmetry_space_group_name_H-M	'P1'
_symmetry_Int_Tables_number	1
_symmetry_cell_setting	triclinic
loop_
_symmetry_equiv_pos_as_xyz
  x,y,z
_cell_length_a	17.019282
_cell_length_b	27.732046
_cell_length_c	26.809956
_cell_angle_alpha	89.998012
_cell_angle_beta	86.127595
_cell_angle_gamma	96.983222
loop_
_atom_site_label
_atom_site_type_symbol
_atom_site_fract_x
_atom_site_fract_y
_atom_site_fract_z
O1	O	1.045929	-0.061548	-0.003456
O2	O	0.816170	-0.069406	0.006418
O3	O	0.938186	0.004892	0.001163
O4	O	0.923913	-0.135846	0.001799
O5	O	0.938163	0.004881	-0.081795
O6	O	0.816147	-0.069418	-0.076540
O7	O	1.045906	-0.061559	-0.086415
Zn8	Zn	0.931023	-0.065490	-0.094649
Zn9	Zn	0.931053	-0.065475	0.014652
O10	O	0.923890	-0.135858	-0.081160
C11	C	0.786773	-0.069115	-0.033798
C12	C	0.699214	-0.068224	-0.030036
C13	C	0.658071	-0.067811	-0.073490
C14	C	0.575802	-0.066966	-0.069956
C15	C	0.534676	-0.066538	-0.022968
C16	C	0.575825	-0.066950	0.020490
C17	C	0.658094	-0.067792	0.016955
C18	C	0.286280	-0.063995	-0.010034
C19	C	0.204005	-0.063155	-0.006503
C20	C	0.203987	-0.063170	-0.096949
C21	C	0.286257	-0.064014	-0.100479
C22	C	0.327399	-0.064423	-0.057022
C23	C	0.450584	-0.065676	-0.019354
C24	C	0.411491	-0.065282	-0.060635
C25	C	0.937875	0.022894	-0.040305
C26	C	0.936974	0.076553	-0.040272
C27	C	1.003401	0.415112	-0.043109
C28	C	1.000056	0.616784	-0.042964
O29	O	1.060796	0.647806	-0.045553
N30	N	0.927706	0.636188	-0.039855
C31	C	0.856187	0.605169	-0.036780
O32	O	0.794572	0.626300	-0.034127
C33	C	0.859533	0.403497	-0.036922
C34	C	0.931888	0.384097	-0.040036
C35	C	1.075750	0.395711	-0.046222
C36	C	1.076585	0.345296	-0.046261
C37	C	1.005072	0.314281	-0.043188
C38	C	0.932723	0.333682	-0.040075
C39	C	0.788015	0.372480	-0.033843
C40	C	0.788858	0.322059	-0.033877
C41	C	0.861212	0.302659	-0.036991
C42	C	0.862045	0.252252	-0.037040
N43	N	0.934395	0.232849	-0.040149
C44	C	1.005909	0.263864	-0.043222
C45	C	0.854435	0.711050	-0.036706
C46	C	0.853599	0.761468	-0.036671
C47	C	0.997468	0.773080	-0.042854
C48	C	0.998304	0.722661	-0.042893
C49	C	0.926786	0.691647	-0.039815
C50	C	1.007658	0.157988	-0.043305
C51	C	1.008487	0.107567	-0.043346
C52	C	0.864618	0.095960	-0.037160
C53	C	0.863789	0.146376	-0.037122
C54	C	0.935315	0.177389	-0.040193
O55	O	0.801337	0.221202	-0.034447
O56	O	1.067515	0.242723	-0.045863
C57	C	1.002566	0.465527	-0.043070
C58	C	0.930217	0.484928	-0.039957
C59	C	0.858703	0.453913	-0.036884
C60	C	0.929380	0.535345	-0.039923
C61	C	1.000893	0.566360	-0.042996
C62	C	1.073243	0.546957	-0.046105
C63	C	1.074079	0.496542	-0.046144
C64	C	0.786353	0.473316	-0.033775
C65	C	0.785524	0.523732	-0.033737
C66	C	0.857037	0.554746	-0.036811
C67	C	1.075303	-0.061851	-0.046197
C68	C	1.162862	-0.062741	-0.049957
N69	N	0.931008	-0.065500	-0.169244
C70	C	0.924203	0.846140	-0.039697
C71	C	0.925112	0.792482	-0.039745
C72	C	0.985075	-0.032584	-0.516199
C73	C	0.985094	-0.032577	-0.725077
O74	O	1.031032	-0.004593	-0.754060
N75	N	0.931058	-0.065465	-0.748873
C76	C	0.877009	-0.098355	-0.720446
O77	O	0.831043	-0.126325	-0.745479
C78	C	0.876987	-0.098359	-0.511569
C79	C	0.931033	-0.065473	-0.487776
C80	C	1.039115	0.000300	-0.492406
C81	C	1.039113	0.000296	-0.440189
C82	C	0.985070	-0.032592	-0.411766
C83	C	0.931030	-0.065477	-0.435559
C84	C	0.822936	-0.131247	-0.483142
C85	C	0.822934	-0.131244	-0.430920
C86	C	0.876979	-0.098357	-0.407127
C87	C	0.876985	-0.098369	-0.354920
N88	N	0.931022	-0.065481	-0.331124
C89	C	0.985064	-0.032593	-0.359547
C90	C	0.877026	-0.098351	-0.830110
C91	C	0.877032	-0.098350	-0.882330
C92	C	0.985116	-0.032571	-0.886957
C93	C	0.985113	-0.032575	-0.834737
C94	C	0.931062	-0.065463	-0.806314
C95	C	0.985055	-0.032604	-0.249889
C96	C	0.985050	-0.032612	-0.197667
C97	C	0.876964	-0.098389	-0.193044
C98	C	0.876972	-0.098382	-0.245261
C99	C	0.931020	-0.065486	-0.273682
O100	O	0.831066	-0.126334	-0.325906
O101	O	1.031012	-0.004620	-0.334505
C102	C	0.985077	-0.032580	-0.568415
C103	C	0.931037	-0.065465	-0.592209
C104	C	0.876995	-0.098353	-0.563785
C105	C	0.931044	-0.065464	-0.644428
C106	C	0.985086	-0.032576	-0.672851
C107	C	1.039122	0.000312	-0.649055
C108	C	1.039120	0.000308	-0.596838
C109	C	0.822959	-0.131241	-0.587581
C110	C	0.822966	-0.131235	-0.639798
C111	C	0.877008	-0.098346	-0.668221
N112	N	0.931074	-0.065462	0.089247
H113	H	1.067409	0.091775	-0.045883
Cl114	Cl	0.809097	-0.139702	-0.912235
H115	H	0.833010	-0.125133	-0.806972
H116	H	1.132998	0.480751	-0.048679
Cl117	Cl	0.754989	-0.172591	-0.513043
Cl118	Cl	0.696441	0.434333	-0.029910
H119	H	1.083119	0.027077	-0.420820
H120	H	1.029120	-0.005795	-0.815368
H121	H	1.029066	-0.005816	-0.273023
H122	H	1.065901	0.183233	-0.045803
Cl123	Cl	0.694554	0.548113	-0.029824
Cl124	Cl	1.107064	0.041651	-0.528130
Cl125	Cl	0.152305	-0.062619	0.052573
H126	H	0.778950	-0.158022	-0.564443
H127	H	1.083128	0.027088	-0.577470
H128	H	0.778917	-0.158025	-0.407780
Cl129	Cl	1.167551	0.320915	-0.050162
H130	H	0.804871	0.162172	-0.034600
Cl131	Cl	1.163145	0.585956	-0.049971
Cl132	Cl	0.398881	-0.065117	0.039715
H133	H	0.691548	-0.068163	-0.111753
Cl134	Cl	1.053053	0.008774	-0.922699
Cl135	Cl	0.524080	-0.066455	-0.124587
H136	H	1.133988	0.420959	-0.048724
H137	H	0.542335	-0.066599	0.058749
Cl138	Cl	1.089267	0.698278	-0.046807
Cl139	Cl	1.107063	0.041656	-0.684797
Cl140	Cl	1.087370	0.812079	-0.046716
H141	H	0.794680	0.777258	-0.034145
H142	H	0.691591	-0.068129	0.052340
H143	H	0.832971	-0.125166	-0.264634
H144	H	0.319736	-0.064360	-0.138742
H145	H	1.029063	-0.005831	-0.178297
Cl146	Cl	0.463193	-0.065818	-0.119705
H147	H	0.170480	-0.062835	-0.132329
H148	H	0.832966	-0.125167	-0.169894
H149	H	0.729096	0.388266	-0.031304
H150	H	0.319769	-0.064327	0.025352
H151	H	0.796193	0.685802	-0.034200
Cl152	Cl	0.698943	0.283072	-0.030007
Cl153	Cl	0.755020	-0.172584	-0.669703
H154	H	0.806394	0.070699	-0.034659
