data_functionalizedCrystal
_audit_creation_method	'MofGen! by Chris Wilmer'
_symmetry_space_group_name_H-M	'P1'
_symmetry_Int_Tables_number	1
_symmetry_cell_setting	triclinic
loop_
_symmetry_equiv_pos_as_xyz
  x,y,z
_cell_length_a	12.645331
_cell_length_b	25.639240
_cell_length_c	12.645324
_cell_angle_alpha	89.954155
_cell_angle_beta	89.984958
_cell_angle_gamma	90.031994
loop_
_atom_site_label
_atom_site_type_symbol
_atom_site_fract_x
_atom_site_fract_y
_atom_site_fract_z
Zn1	Zn	1.620613	-0.208122	-0.599146
Zn2	Zn	2.120613	0.291878	-0.099146
Zn3	Zn	1.620450	-0.295572	-0.421842
Zn4	Zn	2.120450	0.204428	0.078158
Zn5	Zn	1.443330	-0.208151	-0.421911
Zn6	Zn	1.943330	0.291849	0.078089
Zn7	Zn	1.443263	-0.295527	-0.599079
Zn8	Zn	1.943263	0.204473	-0.099079
O9	O	1.531914	-0.251843	-0.510494
O10	O	2.031914	0.248157	-0.010494
O11	O	1.768939	-0.219729	-0.575625
O12	O	2.268939	0.280271	-0.075625
O13	O	1.596915	-0.284005	-0.273504
O14	O	2.096915	0.215995	0.226496
O15	O	1.466943	-0.134982	-0.445479
O16	O	1.966943	0.365018	0.054521
O17	O	1.768819	-0.283978	-0.445360
O18	O	2.268819	0.216022	0.054640
O19	O	1.597192	-0.134961	-0.575692
O20	O	2.097192	0.365039	-0.075692
O21	O	1.466785	-0.219778	-0.273555
O22	O	1.966785	0.280222	0.226445
O23	O	1.294974	-0.219735	-0.445414
O24	O	1.794974	0.280265	0.054586
O25	O	1.466829	-0.283903	-0.747435
O26	O	1.966829	0.216097	-0.247435
O27	O	1.294924	-0.283930	-0.575578
O28	O	1.794924	0.216070	-0.075578
O29	O	1.597127	-0.219686	-0.747484
O30	O	2.097127	0.280314	-0.247484
O31	O	1.596850	-0.368731	-0.445295
O32	O	2.096850	0.131269	0.054705
O33	O	1.466671	-0.368699	-0.575511
O34	O	1.966671	0.131301	-0.075511
C35	C	1.256484	-0.251831	-0.510497
C36	C	1.756484	0.248169	-0.010497
C37	C	1.138654	-0.251839	-0.510523
C38	C	1.638654	0.248161	-0.010523
C39	C	0.971094	-0.292445	-0.591982
C40	C	1.471094	0.207555	-0.091982
C41	C	1.093655	-0.292314	-0.592323
C42	C	1.593655	0.207686	-0.092323
C43	C	1.094205	-0.196769	-0.541072
C44	C	1.594205	0.303231	-0.041072
C45	C	0.971607	-0.197016	-0.541646
C46	C	1.471607	0.302984	-0.041646
C47	C	0.971402	-0.265859	-0.398257
C48	C	1.471402	0.234141	0.101743
C49	C	1.094008	-0.267063	-0.398862
C50	C	1.594008	0.232937	0.101138
C51	C	1.531764	-0.387686	-0.510411
C52	C	2.031764	0.112314	-0.010411
C53	C	1.531797	-0.445800	-0.510411
C54	C	2.031797	0.054200	-0.010411
C55	C	1.599768	-0.806113	-0.578419
C56	C	2.099768	-0.306113	-0.078419
C57	C	1.599800	-0.860718	-0.578440
C58	C	2.099800	-0.360718	-0.078440
O59	O	1.657413	-0.888912	-0.636177
O60	O	2.157413	-0.388912	-0.136177
N61	N	1.532061	-0.888082	-0.510597
N62	N	2.032061	-0.388082	-0.010597
C63	C	1.464279	-0.860839	-0.442735
C64	C	1.964279	-0.360839	0.057265
O65	O	1.406664	-0.889129	-0.385031
O66	O	1.906664	-0.389129	0.114969
C67	C	1.464243	-0.806236	-0.442720
C68	C	1.964243	-0.306236	0.057280
C69	C	1.531994	-0.778874	-0.510560
C70	C	2.031994	-0.278874	-0.010560
C71	C	1.667513	-0.778752	-0.646254
C72	C	2.167513	-0.278752	-0.146254
C73	C	1.667482	-0.724151	-0.646231
C74	C	2.167482	-0.224151	-0.146231
C75	C	1.599708	-0.696912	-0.578372
C76	C	2.099708	-0.196912	-0.078372
C77	C	1.531964	-0.724274	-0.510537
C78	C	2.031964	-0.224274	-0.010537
C79	C	1.396457	-0.778994	-0.374864
C80	C	1.896457	-0.278994	0.125136
C81	C	1.396426	-0.724387	-0.374855
C82	C	1.896426	-0.224387	0.125145
C83	C	1.464177	-0.697026	-0.442695
C84	C	1.964177	-0.197026	0.057305
C85	C	1.464159	-0.642435	-0.442655
C86	C	1.964159	-0.142435	0.057345
N87	N	1.531898	-0.615070	-0.510498
N88	N	2.031898	-0.115070	-0.010498
C89	C	1.599672	-0.642309	-0.578357
C90	C	2.099672	-0.142309	-0.078357
C91	C	1.464358	-0.975510	-0.442774
C92	C	1.964358	-0.475510	0.057226
C93	C	1.464398	-1.030112	-0.442783
C94	C	1.964398	-0.530112	0.057217
C95	C	1.599918	-1.029987	-0.578490
C96	C	2.099918	-0.529987	-0.078490
C97	C	1.599882	-0.975383	-0.578475
C98	C	2.099882	-0.475383	-0.078475
C99	C	1.532097	-0.948146	-0.510617
C100	C	2.032097	-0.448146	-0.010617
C101	C	1.599604	-0.527644	-0.578302
C102	C	2.099604	-0.027644	-0.078302
C103	C	1.599571	-0.473039	-0.578270
C104	C	2.099571	0.026961	-0.078270
C105	C	1.464048	-0.473169	-0.442567
C106	C	1.964048	0.026831	0.057433
C107	C	1.464085	-0.527769	-0.442595
C108	C	1.964085	-0.027769	0.057405
C109	C	1.531867	-0.555006	-0.510471
C110	C	2.031867	-0.055006	-0.010471
O111	O	1.406572	-0.614205	-0.384950
O112	O	1.906572	-0.114205	0.115050
O113	O	1.657267	-0.614013	-0.636060
O114	O	2.157267	-0.114013	-0.136060
C115	C	1.808419	-0.251855	-0.510492
C116	C	2.308419	0.248145	-0.010492
C117	C	1.926249	-0.251861	-0.510491
C118	C	2.426249	0.248139	-0.010491
C119	C	1.531989	-0.251786	-0.787000
C120	C	2.031989	0.248214	-0.287000
C121	C	1.532020	-0.251762	-0.904830
C122	C	2.032020	0.248238	-0.404830
C123	C	1.532093	-0.115470	-0.510601
C124	C	2.032093	0.384530	-0.010601
C125	C	1.532169	-0.057356	-0.510646
C126	C	2.032169	0.442644	-0.010646
C127	C	1.614009	-0.211355	-0.949743
C128	C	2.114009	0.288645	-0.449743
C129	C	1.614361	-0.211461	-1.072303
C130	C	2.114361	0.288539	-0.572303
C131	C	1.561947	-0.306888	-1.072680
C132	C	2.061947	0.193112	-0.572680
C133	C	1.562511	-0.306668	-0.950082
C134	C	2.062511	0.193332	-0.450082
C135	C	1.419963	-0.237497	-0.950021
C136	C	1.919963	0.262503	-0.450021
C137	C	1.420595	-0.236268	-1.072629
C138	C	1.920595	0.263732	-0.572629
C139	C	1.531900	-0.251862	-0.235065
C140	C	2.031900	0.248138	0.264935
C141	C	1.532074	-0.251738	-0.117235
C142	C	2.032074	0.248262	0.382765
H143	H	1.124640	-0.239648	-0.334885
H144	H	1.624640	0.260352	0.165115
H145	H	1.655050	-0.953109	-0.633716
H146	H	2.155050	-0.453109	-0.133716
H147	H	1.408925	-0.550048	-0.387346
H148	H	1.908925	-0.050048	0.112654
Br149	Br	1.374473	-0.171620	-0.898552
Br150	Br	1.874473	0.328380	-0.398552
H151	H	0.941581	-0.333418	-0.573044
H152	H	1.441581	0.166582	-0.073044
Br153	Br	1.372360	-0.938550	-0.350667
Br154	Br	1.872360	-0.438550	0.149333
H155	H	1.696572	-0.220697	-0.918933
H156	H	2.196572	0.279303	-0.418933
Br157	Br	1.752776	-0.227226	-1.121193
Br158	Br	2.252776	0.272774	-0.621193
H159	H	1.123355	-0.165708	-0.483574
H160	H	1.623355	0.334292	0.016426
Br161	Br	1.372075	-0.436191	-0.350476
Br162	Br	1.872075	0.063809	0.149524
H163	H	0.942402	-0.236297	-0.337539
H164	H	1.442402	0.263703	0.162461
Br165	Br	1.142422	-0.334611	-0.360465
Br166	Br	1.642422	0.165389	0.139535
H167	H	1.654746	-0.450762	-0.633513
H168	H	2.154746	0.049238	-0.133513
H169	H	0.943037	-0.185144	-0.623695
H170	H	1.443037	0.314856	-0.123695
H171	H	1.341287	-0.801263	-0.319621
H172	H	1.841287	-0.301263	0.180379
Br173	Br	1.582854	-0.143361	-1.122527
Br174	Br	2.082854	0.356639	-0.622527
Br175	Br	1.318152	-0.286538	-0.901584
Br176	Br	1.818152	0.213462	-0.401584
H177	H	1.654791	-0.549813	-0.633581
H178	H	2.154791	-0.049813	-0.133581
Br179	Br	1.583270	-0.142999	-0.900697
Br180	Br	2.083270	0.357001	-0.400697
H181	H	1.644412	-0.318733	-0.921481
H182	H	2.144412	0.181267	-0.421481
H183	H	1.722648	-0.701876	-0.701475
H184	H	2.222648	-0.201876	-0.201475
Br185	Br	0.919754	-0.277218	-0.729780
Br186	Br	1.419754	0.222782	-0.229780
H187	H	0.941943	-0.165693	-0.485015
H188	H	1.441943	0.334307	0.014985
Br189	Br	1.142588	-0.276874	-0.730931
Br190	Br	1.642588	0.223126	-0.230931
Br191	Br	1.691900	-1.066964	-0.670584
Br192	Br	2.191900	-0.566964	-0.170584
Br193	Br	1.304424	-0.687425	-0.282759
Br194	Br	1.804424	-0.187425	0.217241
Br195	Br	1.467274	-0.358572	-0.900545
Br196	Br	1.967274	0.141428	-0.400545
Br197	Br	1.759499	-0.815708	-0.738367
Br198	Br	2.259499	-0.315708	-0.238367
H199	H	1.504074	-0.337810	-1.101778
H200	H	2.004074	0.162190	-0.601778
H201	H	1.124935	-0.184680	-0.622232
H202	H	1.624935	0.315320	-0.122232
H203	H	1.642948	-0.319162	-1.103404
H204	H	2.142948	0.180838	-0.603404
Br205	Br	1.383026	-0.168623	-1.121175
Br206	Br	1.883026	0.331377	-0.621175
H207	H	1.356289	-0.263531	-1.103212
H208	H	1.856289	0.236469	-0.603212
H209	H	1.123705	-0.333152	-0.573174
H210	H	1.623705	0.166848	-0.073174
H211	H	0.940460	-0.305331	-0.370495
H212	H	1.440460	0.194669	0.129505
H213	H	1.409240	-1.052386	-0.387529
H214	H	1.909240	-0.552386	0.112471
