data_functionalizedCrystal
_audit_creation_method	'MofGen! by Chris Wilmer'
_symmetry_space_group_name_H-M	'P1'
_symmetry_Int_Tables_number	1
_symmetry_cell_setting	triclinic
loop_
_symmetry_equiv_pos_as_xyz
  x,y,z
_cell_length_a	11.792241
_cell_length_b	27.732048
_cell_length_c	10.868271
_cell_angle_alpha	89.989927
_cell_angle_beta	89.999893
_cell_angle_gamma	83.418036
loop_
_atom_site_label
_atom_site_type_symbol
_atom_site_fract_x
_atom_site_fract_y
_atom_site_fract_z
O1	O	1.504789	0.066248	-0.102217
O2	O	1.174230	0.073076	-0.102248
O3	O	1.349776	-0.000675	-0.102208
O4	O	1.329243	0.139999	-0.102257
O5	O	1.349762	-0.000678	0.102437
O6	O	1.174215	0.073073	0.102397
O7	O	1.504775	0.066245	0.102427
Zn8	Zn	1.339493	0.069659	0.134904
Zn9	Zn	1.339512	0.069662	-0.134724
O10	O	1.329229	0.139996	0.102388
C11	C	1.131945	0.072645	0.000071
C12	C	1.005973	0.071362	0.000061
C13	C	0.775336	0.069001	0.000097
C14	C	0.903679	0.070313	0.000077
C15	C	1.349338	-0.018686	0.000118
C16	C	1.348040	-0.072348	0.000128
C17	C	1.443606	-0.410609	0.000073
C18	C	1.438790	-0.612297	0.000055
O19	O	1.526178	-0.643045	0.000010
N20	N	1.334698	-0.632024	0.000047
C21	C	1.231803	-0.601327	0.000035
O22	O	1.143157	-0.622734	0.000015
C23	C	1.236620	-0.399640	0.000044
C24	C	1.340718	-0.379915	0.000065
C25	C	1.547695	-0.390884	0.000093
C26	C	1.548898	-0.340465	0.000104
C27	C	1.446011	-0.309771	0.000095
C28	C	1.341921	-0.329496	0.000076
C29	C	1.133726	-0.368943	0.000023
C30	C	1.134940	-0.318519	0.000022
C31	C	1.239038	-0.298794	0.000043
C32	C	1.240237	-0.248384	0.000079
N33	N	1.344328	-0.228656	0.000087
C34	C	1.447215	-0.259350	0.000095
C35	C	1.229282	-0.707215	0.000033
C36	C	1.228077	-0.757637	0.000033
C37	C	1.435065	-0.768603	0.000051
C38	C	1.436268	-0.718181	0.000060
C39	C	1.333374	-0.687488	0.000041
C40	C	1.449733	-0.153466	0.000120
C41	C	1.450927	-0.103042	0.000136
C42	C	1.243941	-0.092080	0.000111
C43	C	1.242746	-0.142500	0.000102
C44	C	1.345652	-0.173192	0.000102
O45	O	1.152896	-0.217607	0.000111
O46	O	1.535849	-0.237933	0.000088
C47	C	1.442403	-0.461028	0.000062
C48	C	1.338313	-0.480753	0.000043
C49	C	1.235426	-0.450060	0.000034
C50	C	1.337108	-0.531175	0.000043
C51	C	1.439996	-0.561868	0.000051
C52	C	1.544087	-0.542141	0.000059
C53	C	1.545290	-0.491722	0.000070
C54	C	1.131334	-0.469787	0.000026
C55	C	1.130140	-0.520207	0.000016
C56	C	1.233027	-0.550900	0.000024
C57	C	1.547059	0.066676	0.000106
C58	C	1.673032	0.067959	0.000108
C59	C	1.329667	0.158007	0.000059
C60	C	1.330965	0.211669	0.000041
N61	N	1.339488	0.069656	0.318918
N62	N	1.339525	0.069662	-0.318738
C63	C	1.339506	0.069661	0.569924
C64	C	1.339492	0.069660	0.430246
H65	H	1.535700	-0.086985	0.000156
H66	H	1.533529	-0.178450	0.000115
H67	H	1.518839	-0.793603	0.000058
C68	C	1.125252	-0.029004	-0.105109
C69	C	1.130850	-0.058335	0.000093
H70	H	1.055431	-0.008173	-0.105129
H71	H	1.187418	-0.010046	-0.105084
H72	H	1.129092	-0.048903	-0.176464
H73	H	1.127019	-0.038436	0.071448
H74	H	1.068667	-0.077295	0.000080
C75	C	1.752405	-0.396645	0.000133
C76	C	1.660803	-0.424617	0.000112
H77	H	1.822237	-0.417470	0.000160
H78	H	1.748573	-0.376750	-0.071231
H79	H	1.748537	-0.376752	0.071497
H80	H	1.664666	-0.444509	-0.071257
H81	H	1.664637	-0.444521	0.071484
C82	C	1.640740	-0.734097	0.000069
C83	C	1.550695	-0.696502	0.000064
H84	H	1.711384	-0.720714	0.000060
H85	H	1.635959	-0.753536	0.071433
H86	H	1.635952	-0.753532	-0.071296
H87	H	1.555478	-0.677069	0.071434
H88	H	1.555478	-0.677055	-0.071307
H89	H	1.051148	-0.293530	0.000005
H90	H	1.630058	-0.475667	0.000087
H91	H	1.627862	-0.567140	0.000071
C92	C	1.110525	-0.644150	-0.105183
C93	C	1.116167	-0.673482	0.000019
H94	H	1.040688	-0.623329	-0.105189
H95	H	1.172671	-0.625181	-0.105170
H96	H	1.114372	-0.664049	-0.176538
H97	H	1.112329	-0.653584	0.071375
H98	H	1.054004	-0.692453	0.000017
H99	H	1.047549	-0.444801	0.000016
C100	C	0.925659	-0.504289	-0.000024
C101	C	1.015703	-0.541884	-0.000011
H102	H	0.855014	-0.517672	-0.000057
H103	H	0.930424	-0.484862	0.071345
H104	H	0.930462	-0.484842	-0.071384
H105	H	1.010905	-0.561329	0.071354
H106	H	1.010935	-0.561320	-0.071387
H107	H	1.143310	-0.773692	0.000037
C108	C	1.670349	-0.290125	-0.105092
C109	C	1.663327	-0.318788	0.000107
H110	H	1.740995	-0.276744	-0.105087
H111	H	1.665571	-0.309562	-0.176441
H112	H	1.609250	-0.264625	-0.105078
H113	H	1.724422	-0.344291	0.000089
H114	H	1.668117	-0.299350	0.071475
H115	H	1.048958	-0.384994	-0.000001
H116	H	1.157981	-0.158560	0.000119
