data_functionalizedCrystal
_audit_creation_method	'MofGen! by Chris Wilmer'
_symmetry_space_group_name_H-M	'P1'
_symmetry_Int_Tables_number	1
_symmetry_cell_setting	triclinic
loop_
_symmetry_equiv_pos_as_xyz
  x,y,z
_cell_length_a	19.077068
_cell_length_b	18.215407
_cell_length_c	18.215399
_cell_angle_alpha	90.014769
_cell_angle_beta	92.265636
_cell_angle_gamma	87.677405
loop_
_atom_site_label
_atom_site_type_symbol
_atom_site_fract_x
_atom_site_fract_y
_atom_site_fract_z
Zn1	Zn	-0.280273	-1.113262	-0.427832
Zn2	Zn	0.219727	-0.613262	0.072168
Zn3	Zn	-0.397979	-1.108227	-0.309703
Zn4	Zn	0.102021	-0.608227	0.190297
Zn5	Zn	-0.280291	-0.990201	-0.304784
Zn6	Zn	0.219709	-0.490201	0.195216
Zn7	Zn	-0.397925	-0.985213	-0.432730
Zn8	Zn	0.102075	-0.485213	0.067270
O9	O	-0.339117	-1.049226	-0.368762
O10	O	0.160883	-0.549226	0.131238
O11	O	-0.295902	-1.215578	-0.412170
O12	O	0.204098	-0.715578	0.087830
O13	O	-0.382398	-1.092550	-0.206067
O14	O	0.117602	-0.592550	0.293933
O15	O	-0.181798	-1.010720	-0.316999
O16	O	0.318202	-0.510720	0.183001
O17	O	-0.382380	-1.211878	-0.325381
O18	O	0.117620	-0.711878	0.174619
O19	O	-0.181785	-1.101133	-0.407401
O20	O	0.318215	-0.601133	0.092599
O21	O	-0.295933	-1.005837	-0.202454
O22	O	0.204067	-0.505837	0.297546
O23	O	-0.295880	-0.886555	-0.321748
O24	O	0.204120	-0.386555	0.178252
O25	O	-0.382288	-1.002219	-0.535063
O26	O	0.117712	-0.502219	-0.035063
O27	O	-0.382305	-0.882891	-0.415749
O28	O	0.117695	-0.382891	0.084251
O29	O	-0.295850	-1.096296	-0.531464
O30	O	0.204150	-0.596296	-0.031464
O31	O	-0.496462	-1.087714	-0.330131
O32	O	0.003538	-0.587714	0.169869
O33	O	-0.496423	-0.997336	-0.420518
O34	O	0.003577	-0.497336	0.079482
C35	C	-0.339089	-0.858021	-0.368747
C36	C	0.160911	-0.358021	0.131253
C37	C	-0.339095	-0.776221	-0.368758
C38	C	0.160905	-0.276221	0.131242
C39	C	-0.294152	-0.589949	-0.414026
C40	C	0.205848	-0.089949	0.085974
C41	C	-0.294156	-0.513090	-0.414028
C42	C	0.205844	-0.013090	0.085972
C43	C	-0.384071	-0.509255	-0.323504
C44	C	0.115929	-0.009255	0.176496
C45	C	-0.384063	-0.586112	-0.323498
C46	C	0.115937	-0.086112	0.176502
C47	C	-0.339105	-0.626457	-0.368764
C48	C	0.160895	-0.126457	0.131236
C49	C	-0.339116	-0.472741	-0.368771
C50	C	0.160884	0.027259	0.131229
C51	C	-0.339121	-0.389407	-0.368773
C52	C	0.160879	0.110593	0.131227
C53	C	-0.339099	-0.709797	-0.368761
C54	C	0.160901	-0.209797	0.131239
C55	C	-0.521980	-1.041457	-0.376406
C56	C	-0.021980	-0.541457	0.123594
C57	C	-0.600210	-1.038201	-0.379700
C58	C	-0.100210	-0.538201	0.120300
C59	C	-0.636960	-1.083763	-0.334227
C60	C	-0.136960	-0.583763	0.165773
C61	C	-0.710465	-1.080705	-0.337330
C62	C	-0.210465	-0.580705	0.162670
C63	C	-0.747219	-1.032080	-0.385903
C64	C	-0.247219	-0.532080	0.114097
C65	C	-0.710464	-0.986517	-0.431381
C66	C	-0.210464	-0.486517	0.068619
C67	C	-0.636960	-0.989579	-0.428281
C68	C	-0.136960	-0.489579	0.071719
C69	C	-0.967051	-1.017875	-0.400220
C70	C	-0.467051	-0.517875	0.099780
C71	C	-1.040560	-1.014815	-0.403315
C72	C	-0.540560	-0.514815	0.096685
C73	C	-1.040556	-1.109004	-0.309264
C74	C	-0.540556	-0.609004	0.190736
C75	C	-0.967051	-1.112059	-0.306166
C76	C	-0.467051	-0.612059	0.193834
C77	C	-0.930303	-1.066498	-0.351646
C78	C	-0.430303	-0.566498	0.148354
N79	N	-0.822352	-1.028952	-0.389075
N80	N	-0.322352	-0.528952	0.110925
N81	N	-0.855170	-1.069631	-0.348478
N82	N	-0.355170	-0.569631	0.151522
C83	C	-0.155540	-1.057045	-0.361105
C84	C	0.344460	-0.557045	0.138895
C85	C	-0.077310	-1.060377	-0.357842
C86	C	0.422690	-0.560377	0.142158
C87	C	-0.339061	-1.049263	-0.560713
C88	C	0.160939	-0.549263	-0.060713
C89	C	-0.339037	-1.049279	-0.642511
C90	C	0.160963	-0.549279	-0.142511
C91	C	-0.339137	-0.241178	-0.368776
C92	C	0.160863	0.258822	0.131224
C93	C	-0.339127	-0.322977	-0.368776
C94	C	0.160873	0.177023	0.131224
C95	C	-0.293984	-1.004168	-0.828823
C96	C	0.206016	-0.504168	-0.328823
C97	C	-0.293970	-1.004181	-0.905681
C98	C	0.206030	-0.504181	-0.405681
C99	C	-0.384005	-1.094481	-0.909433
C100	C	0.115995	-0.594481	-0.409433
C101	C	-0.384023	-1.094463	-0.832576
C102	C	0.115977	-0.594463	-0.332576
C103	C	-0.339008	-1.049308	-0.792273
C104	C	0.160992	-0.549308	-0.292273
C105	C	-0.338977	-1.049339	-0.945988
C106	C	0.161023	-0.549339	-0.445988
C107	C	-0.338962	-1.049354	-1.029321
C108	C	0.161038	-0.549354	-0.529321
C109	C	-0.339024	-1.049292	-0.708935
C110	C	0.160976	-0.549292	-0.208935
C111	C	-0.339122	-1.049233	-0.177556
C112	C	0.160878	-0.549233	0.322444
C113	C	-0.338948	-1.049368	-0.095750
C114	C	0.161052	-0.549368	0.404250
H115	H	-0.607039	-1.123355	-0.294671
H116	H	-0.107039	-0.623355	0.205329
H117	H	-0.420669	-0.615838	-0.286636
H118	H	0.079331	-0.115838	0.213364
C119	C	-0.260028	-0.490910	-0.537278
C120	C	0.239972	0.009090	-0.037278
C121	C	-0.244747	-0.472959	-0.463785
C122	C	0.255253	0.027041	0.036215
H123	H	-0.229525	-0.466131	-0.567996
H124	H	0.270475	0.033869	-0.067996
H125	H	-0.253589	-0.542452	-0.543747
H126	H	0.246411	-0.042452	-0.043747
H127	H	-0.307333	-0.476310	-0.549935
H128	H	0.192667	0.023690	-0.049935
H129	H	-0.197444	-0.487565	-0.451127
H130	H	0.302556	0.012435	0.048873
H131	H	-0.251180	-0.421407	-0.457313
H132	H	0.248820	0.078593	0.042687
H133	H	-0.257330	-0.967400	-0.796010
H134	H	0.242670	-0.467400	-0.296010
C135	C	-0.424012	-0.389733	-0.283322
C136	C	0.075988	0.110267	0.216678
C137	C	-0.433493	-0.464904	-0.273757
C138	C	0.066507	0.035096	0.226243
H139	H	-0.454529	-0.362355	-0.252614
H140	H	0.045471	0.137645	0.247386
H141	H	-0.376718	-0.379138	-0.270652
H142	H	0.123282	0.120862	0.229348
H143	H	-0.434371	-0.376724	-0.333189
H144	H	0.065629	0.123276	0.166811
H145	H	-0.423129	-0.477914	-0.223891
H146	H	0.076871	0.022086	0.276109
H147	H	-0.480798	-0.475504	-0.286423
H148	H	0.019202	0.024496	0.213577
H149	H	-0.420689	-1.131223	-0.802817
H150	H	0.079311	-0.631223	-0.302817
H151	H	-0.740383	-1.117805	-0.300301
H152	H	-0.240383	-0.617805	0.199699
C153	C	-0.423954	-1.134607	-1.028916
C154	C	0.076046	-0.634607	-0.528916
C155	C	-0.433479	-1.144119	-0.953737
C156	C	0.066521	-0.644119	-0.453737
H157	H	-0.454494	-1.165257	-1.056264
H158	H	0.045506	-0.665257	-0.556264
H159	H	-0.434248	-1.084731	-1.041935
H160	H	0.065752	-0.584731	-0.541935
H161	H	-0.376660	-1.147394	-1.039534
H162	H	0.123340	-0.647394	-0.539534
H163	H	-0.480771	-1.131327	-0.943118
H164	H	0.019229	-0.631327	-0.443118
H165	H	-0.423189	-1.194006	-0.940713
H166	H	0.076811	-0.694006	-0.440713
C167	C	-0.854375	-1.158568	-0.259650
C168	C	-0.354375	-0.658568	0.240350
C169	C	-0.926652	-1.165506	-0.252771
C170	C	-0.426652	-0.665506	0.247229
H171	H	-0.829436	-1.191560	-0.226680
H172	H	-0.329436	-0.691560	0.273320
H173	H	-0.842289	-1.169816	-0.308590
H174	H	-0.342289	-0.669816	0.191410
H175	H	-0.842382	-1.109624	-0.248332
H176	H	-0.342382	-0.609624	0.251668
H177	H	-0.938646	-1.214450	-0.264095
H178	H	-0.438646	-0.714450	0.235905
H179	H	-0.938743	-1.154264	-0.203821
H180	H	-0.438743	-0.654264	0.296179
H181	H	-1.070485	-1.146098	-0.272238
H182	H	-0.570485	-0.646098	0.227762
C183	C	-0.284478	-0.676819	-0.512630
C184	C	0.215522	-0.176819	-0.012630
C185	C	-0.244732	-0.634298	-0.463776
C186	C	0.255268	-0.134298	0.036224
H187	H	-0.253965	-0.704193	-0.543346
H188	H	0.246035	-0.204193	-0.043346
H189	H	-0.311243	-0.709561	-0.485673
H190	H	0.188757	-0.209561	0.014327
H191	H	-0.315176	-0.645537	-0.542012
H192	H	0.184824	-0.145537	-0.042012
H193	H	-0.214038	-0.665580	-0.434391
H194	H	0.285962	-0.165580	0.065609
H195	H	-0.217956	-0.601552	-0.490736
H196	H	0.282044	-0.101552	0.009264
H197	H	-1.070483	-0.975228	-0.442881
H198	H	-0.570483	-0.475228	0.057119
C199	C	-0.974449	-0.924449	-0.493475
C200	C	-0.474449	-0.424449	0.006525
C201	C	-0.926664	-0.967781	-0.450197
C202	C	-0.426664	-0.467781	0.049803
H203	H	-0.949512	-0.893516	-0.524324
H204	H	-0.449512	-0.393516	-0.024324
H205	H	-1.003070	-0.955300	-0.522866
H206	H	-0.503070	-0.455300	-0.022866
H207	H	-1.003165	-0.895134	-0.462583
H208	H	-0.503165	-0.395134	0.037417
H209	H	-0.897951	-0.997100	-0.481089
H210	H	-0.397951	-0.497100	0.018911
H211	H	-0.898031	-0.936926	-0.420803
H212	H	-0.398031	-0.436926	0.079197
C213	C	-0.823140	-0.939994	-0.477887
C214	C	-0.323140	-0.439994	0.022113
C215	C	-0.750862	-0.933066	-0.484772
C216	C	-0.250862	-0.433066	0.015228
H217	H	-0.848077	-0.906989	-0.510845
H218	H	-0.348077	-0.406989	-0.010845
H219	H	-0.835142	-0.988927	-0.489211
H220	H	-0.335142	-0.488927	0.010789
H221	H	-0.835219	-0.928751	-0.428937
H222	H	-0.335219	-0.428751	0.071063
H223	H	-0.738782	-0.944314	-0.533721
H224	H	-0.238782	-0.444314	-0.033721
H225	H	-0.738856	-0.884121	-0.473454
H226	H	-0.238856	-0.384121	0.026546
H227	H	-0.607039	-0.952479	-0.465311
H228	H	-0.107039	-0.452479	0.034689
H229	H	-0.257308	-0.967423	-0.935436
H230	H	0.242692	-0.467423	-0.435436
