data_functionalizedCrystal
_audit_creation_method	'MofGen! by Chris Wilmer'
_symmetry_space_group_name_H-M	'P1'
_symmetry_Int_Tables_number	1
_symmetry_cell_setting	triclinic
loop_
_symmetry_equiv_pos_as_xyz
  x,y,z
_cell_length_a	16.992694
_cell_length_b	10.654550
_cell_length_c	9.730223
_cell_angle_alpha	90.004253
_cell_angle_beta	89.997618
_cell_angle_gamma	87.576577
loop_
_atom_site_label
_atom_site_type_symbol
_atom_site_fract_x
_atom_site_fract_y
_atom_site_fract_z
O1	O	-1.041839	-0.266431	-0.114117
O2	O	-0.813538	-0.263508	-0.114158
O3	O	-0.932937	-0.082684	-0.114128
O4	O	-0.922439	-0.447255	-0.114147
O5	O	-0.932930	-0.082678	0.114452
O6	O	-0.813530	-0.263502	0.114422
O7	O	-1.041831	-0.266425	0.114463
Zn8	Zn	-0.927679	-0.264963	0.150734
Zn9	Zn	-0.927689	-0.264971	-0.150429
O10	O	-0.922431	-0.447249	0.114433
C11	C	-0.784301	-0.259745	0.000127
C12	C	-0.697196	-0.248526	0.000112
C13	C	-1.071068	-0.270188	0.000175
C14	C	-1.158173	-0.281408	0.000181
C15	C	-0.647544	-0.356776	0.000107
C16	C	-0.565700	-0.346227	0.000127
C17	C	-0.533509	-0.227426	0.000141
C18	C	-0.583167	-0.119167	0.000150
C19	C	-0.665010	-0.129718	0.000140
C20	C	-0.289674	-0.183699	0.000180
C21	C	-0.207825	-0.173157	0.000186
C22	C	-0.190363	-0.400218	0.000165
C23	C	-0.272208	-0.410758	0.000147
C24	C	-0.321859	-0.302499	0.000163
N25	N	-0.449852	-0.216640	0.000157
N26	N	-0.405515	-0.313286	0.000157
C27	C	-0.932163	-0.035816	0.000161
C28	C	-0.929856	0.103826	0.000159
C29	C	-0.923206	-0.494117	0.000141
C30	C	-0.925512	-0.633759	0.000134
N31	N	-0.927678	-0.264957	0.356271
C32	C	-1.000157	0.177237	0.000171
C33	C	-0.997985	0.308445	0.000154
C34	C	-0.855206	0.292820	0.000118
C35	C	-0.857379	0.161614	0.000126
N36	N	-0.927697	-0.264967	-0.355966
C37	C	-0.980566	-0.184926	0.428210
C38	C	-0.980574	-0.184927	0.572093
C39	C	-0.874803	-0.345002	0.572085
C40	C	-0.874792	-0.344993	0.428205
H41	H	-0.673747	-0.453517	0.000095
H42	H	-1.059173	0.130190	0.000195
H43	H	-1.023628	-0.119754	0.369645
H44	H	-0.181619	-0.076410	0.000196
H45	H	-0.149929	-0.488356	0.000155
Cl46	Cl	-1.086368	0.400728	0.000166
H47	H	-1.023640	-0.119757	0.630662
Cl48	Cl	-0.352081	-0.047600	0.000199
H49	H	-0.831745	-0.410167	0.630668
H50	H	-0.796197	0.339888	0.000094
Cl51	Cl	-0.503283	-0.482321	0.000112
H52	H	-0.298411	-0.507498	0.000120
Cl53	Cl	-0.542699	0.030184	0.000176
Cl54	Cl	-0.727430	0.006375	0.000152
H55	H	-0.800128	0.101841	0.000112
Cl56	Cl	-0.808295	-0.445605	0.337758
