data_functionalizedCrystal
_audit_creation_method	'MofGen! by Chris Wilmer'
_symmetry_space_group_name_H-M	'P1'
_symmetry_Int_Tables_number	1
_symmetry_cell_setting	triclinic
loop_
_symmetry_equiv_pos_as_xyz
  x,y,z
_cell_length_a	16.992694
_cell_length_b	15.995292
_cell_length_c	16.053802
_cell_angle_alpha	92.568169
_cell_angle_beta	87.249047
_cell_angle_gamma	87.068419
loop_
_atom_site_label
_atom_site_type_symbol
_atom_site_fract_x
_atom_site_fract_y
_atom_site_fract_z
O1	O	1.043660	0.174247	-0.069315
O2	O	0.815376	0.172298	-0.069340
O3	O	0.935782	0.051800	-0.069328
O4	O	0.923254	0.294744	-0.069327
O5	O	0.929154	0.058404	0.069530
O6	O	0.808749	0.178901	0.069519
O7	O	1.037032	0.180850	0.069543
Zn8	Zn	0.921838	0.180924	0.091578
Zn9	Zn	0.930570	0.172224	-0.091374
O10	O	0.916626	0.301347	0.069532
C11	C	0.782850	0.173093	0.000086
C12	C	0.695808	0.165617	0.000077
C13	C	0.645554	0.237753	0.000078
C14	C	0.563768	0.230724	0.000089
C15	C	0.532238	0.151557	0.000094
C16	C	0.582499	0.079415	0.000095
C17	C	0.664283	0.086446	0.000090
C18	C	0.288645	0.122419	0.000116
C19	C	0.206855	0.115394	0.000119
C20	C	0.188129	0.266703	0.000114
C21	C	0.269916	0.273726	0.000104
C22	C	0.320169	0.201585	0.000110
N23	N	0.448641	0.144370	0.000103
N24	N	0.403765	0.208773	0.000107
C25	C	0.931958	0.023872	0.000099
C26	C	0.930430	-0.069183	0.000093
C27	C	0.924810	-0.407298	0.000100
C28	C	1.011701	-0.378155	0.000419
C29	C	1.013368	-0.281384	0.000104
C30	C	0.927599	-0.239555	0.000097
C31	C	0.887934	-0.275335	-0.079200
C32	C	0.886891	-0.372198	-0.079264
C33	C	0.877580	-0.364665	0.078644
C34	C	0.880751	-0.267907	0.079689
C35	C	0.929170	-0.144754	0.000092
C36	C	0.923236	-0.502099	0.000099
C37	C	1.069558	0.180054	0.000116
C38	C	1.156601	0.187531	0.000120
C39	C	0.920450	0.329275	0.000103
C40	C	0.921979	0.422331	0.000104
N41	N	0.915885	0.186861	0.216438
N42	N	0.936530	0.166280	-0.216234
C43	C	0.967136	0.135610	0.260136
C44	C	0.962979	0.139772	0.347543
C45	C	0.907573	0.195190	0.391249
C46	C	0.856316	0.246443	0.347544
C47	C	0.860470	0.242276	0.260139
C48	C	0.889427	0.213366	0.652657
C49	C	0.885278	0.217531	0.740067
C50	C	0.991941	0.110859	0.740061
C51	C	0.996093	0.106700	0.652654
C52	C	0.944833	0.157950	0.608957
N53	N	0.903324	0.199447	0.480592
N54	N	0.949079	0.153688	0.519615
H55	H	0.295581	0.338192	0.000091
C56	C	0.801050	-0.397856	-0.084142
H57	H	0.799831	-0.457173	-0.084208
H58	H	0.779926	-0.378544	-0.133964
H59	H	0.770437	-0.373686	-0.037250
H60	H	0.705200	0.027704	0.000088
C61	C	0.132849	0.346052	0.000119
H62	H	0.079625	0.330530	0.000130
H63	H	0.144707	0.375989	-0.048303
H64	H	0.140103	0.380587	0.048549
H65	H	0.847691	0.255098	0.617085
H66	H	0.522853	0.289465	0.000089
H67	H	1.044683	-0.257378	0.056946
C68	C	1.060351	-0.417958	-0.075967
H69	H	1.112769	-0.400026	-0.075293
H70	H	1.037112	-0.401135	-0.125622
H71	H	1.061195	-0.477275	-0.074102
H72	H	1.042484	-0.401206	0.057287
C73	C	0.919680	-0.236171	0.158944
H74	H	0.891069	-0.253517	0.206879
H75	H	0.919452	-0.176723	0.160388
H76	H	0.972533	-0.258698	0.158464
H77	H	1.033673	0.069132	0.775647
C78	C	1.063269	-0.257077	-0.076815
H79	H	1.082594	-0.306376	-0.107996
H80	H	1.106425	-0.226464	-0.059135
H81	H	1.031565	-0.223407	-0.110782
C82	C	0.795372	0.307403	0.395618
H83	H	0.800243	0.302551	0.453932
H84	H	0.743727	0.294095	0.381304
H85	H	0.804561	0.363180	0.381283
C86	C	0.932496	-0.249309	-0.158918
H87	H	0.908043	-0.271260	-0.206573
H88	H	0.985726	-0.270700	-0.159626
H89	H	0.931198	-0.189906	-0.159741
C90	C	1.019353	0.083396	0.395612
H91	H	1.008939	0.093805	0.453927
H92	H	1.072359	0.095341	0.381283
H93	H	1.011528	0.026254	0.381291
C94	C	0.910481	-0.396511	0.159839
H95	H	0.953335	-0.436109	0.146593
H96	H	0.870174	-0.422400	0.190798
H97	H	0.928252	-0.350668	0.192210
H98	H	0.556821	0.014957	0.000111
H99	H	0.919811	-0.399820	-0.138535
C100	C	1.057035	0.045736	0.604584
H101	H	1.086959	0.015802	0.643128
H102	H	1.091285	0.076433	0.570477
H103	H	1.030452	0.007348	0.570497
H104	H	0.840158	0.262662	0.775649
H105	H	0.818735	0.284009	0.224560
C106	C	0.795868	-0.228730	0.086157
H107	H	0.768976	-0.246929	0.134779
H108	H	0.769006	-0.245707	0.038205
H109	H	0.797254	-0.169380	0.089487
H110	H	0.181188	0.050924	0.000122
C111	C	0.680229	0.324837	0.000072
H112	H	0.638582	0.366791	0.000082
H113	H	0.714047	0.328424	-0.048352
H114	H	0.709438	0.333027	0.048500
H115	H	0.813585	-0.382911	0.079173
H116	H	0.824960	-0.247831	-0.082153
H117	H	0.329552	0.063676	0.000121
H118	H	1.012257	0.090487	0.224557
