data_functionalizedCrystal
_audit_creation_method	'MofGen! by Chris Wilmer'
_symmetry_space_group_name_H-M	'P1'
_symmetry_Int_Tables_number	1
_symmetry_cell_setting	triclinic
loop_
_symmetry_equiv_pos_as_xyz
  x,y,z
_cell_length_a	6.817900
_cell_length_b	17.078472
_cell_length_c	17.329378
_cell_angle_alpha	92.626107
_cell_angle_beta	103.025558
_cell_angle_gamma	99.306020
loop_
_atom_site_label
_atom_site_type_symbol
_atom_site_fract_x
_atom_site_fract_y
_atom_site_fract_z
V1	V	-3.992526	-0.093556	-0.244962
O2	O	-4.002123	0.021183	-0.240380
O3	O	-3.923665	-0.201555	-0.243208
O4	O	-3.938598	-0.084794	-0.351834
O5	O	-3.987087	-0.096385	-0.131003
V6	V	-4.479522	-0.080697	-0.231341
O7	O	-4.246167	-0.121763	-0.274840
O8	O	-4.676078	-0.052490	-0.201462
O9	O	-4.325176	0.027302	-0.233094
O10	O	-4.587322	-0.195436	-0.235923
O11	O	-4.602358	-0.077867	-0.345300
O12	O	-4.310243	-0.089458	-0.124469
C13	C	-3.763867	-0.228111	-0.239324
C14	C	-3.788816	-0.316354	-0.238602
C15	C	-3.782915	-0.079171	-0.377885
C16	C	-3.819971	-0.072722	-0.465253
C17	C	-3.981662	-0.361593	-0.242181
C18	C	-4.005094	-0.444507	-0.241508
C19	C	-3.835674	-0.482181	-0.237251
C20	C	-3.642813	-0.436936	-0.233674
C21	C	-3.619386	-0.354024	-0.234353
C22	C	-3.886317	-0.729746	-0.234806
C23	C	-3.909758	-0.812664	-0.234125
C24	C	-4.272040	-0.820230	-0.241960
C25	C	-4.248593	-0.737315	-0.242633
C26	C	-4.055737	-0.692078	-0.239061
N27	N	-3.859619	-0.566932	-0.236560
N28	N	-4.031797	-0.607329	-0.239758
C29	C	-3.863175	-0.141607	-0.517470
C30	C	-3.898002	-0.135546	-0.599561
C31	C	-3.889608	-0.060600	-0.629434
C32	C	-3.846406	0.008289	-0.577211
C33	C	-3.811594	0.002227	-0.495121
C34	C	-3.993438	-0.038701	-0.876732
C35	C	-4.028247	-0.032645	-0.958828
C36	C	-4.079845	-0.176481	-0.981173
C37	C	-4.045019	-0.182535	-0.899081
C38	C	-4.001830	-0.113646	-0.846865
C39	C	-3.925200	-0.054404	-0.713344
C40	C	-3.966254	-0.119844	-0.762957
C41	C	-4.148315	0.053854	-0.236977
C42	C	-4.102605	0.142097	-0.237703
C43	C	-4.129268	-0.095084	-0.098413
C44	C	-4.071452	-0.101529	-0.011045
H45	H	-4.119624	-0.330925	-0.245640
H46	H	-3.973095	-0.180865	-0.738631
H47	H	-3.869999	-0.202636	-0.493154
H48	H	-4.051864	-0.243564	-0.874765
H49	H	-4.115014	-0.232566	-1.023695
H50	H	-4.021452	0.028388	-0.983147
H51	H	-4.429057	-0.857070	-0.244868
H52	H	-3.729283	-0.692924	-0.231892
H53	H	-3.958273	0.017394	-0.834227
H54	H	-3.504872	-0.467617	-0.230213
H55	H	-3.771794	-0.843337	-0.230676
H56	H	-3.839586	0.069311	-0.601540
H57	H	-3.776417	0.058321	-0.452606
H58	H	-3.933189	-0.191640	-0.642074
H59	H	-3.918364	0.006618	-0.737675
H60	H	-4.162128	-0.481337	-0.244423
H61	H	-3.462353	-0.317192	-0.231442
H62	H	-4.386560	-0.706648	-0.246105
