data_functionalizedCrystal
_audit_creation_method	'MofGen! by Chris Wilmer'
_symmetry_space_group_name_H-M	'P1'
_symmetry_Int_Tables_number	1
_symmetry_cell_setting	triclinic
loop_
_symmetry_equiv_pos_as_xyz
  x,y,z
_cell_length_a	16.109302
_cell_length_b	14.853559
_cell_length_c	14.586319
_cell_angle_alpha	89.998399
_cell_angle_beta	89.994552
_cell_angle_gamma	83.546617
loop_
_atom_site_label
_atom_site_type_symbol
_atom_site_fract_x
_atom_site_fract_y
_atom_site_fract_z
O1	O	1.103290	0.115884	-0.076277
O2	O	0.861248	0.130305	-0.076269
O3	O	0.988738	-0.008146	-0.076272
O4	O	0.975800	0.254336	-0.076274
O5	O	0.988729	-0.008148	0.076208
O6	O	0.861239	0.130303	0.076212
O7	O	1.103281	0.115882	0.076204
Cu8	Cu	0.982259	0.123092	0.090130
Cu9	Cu	0.982270	0.123095	-0.090196
O10	O	0.975791	0.254333	0.076207
C11	C	0.830268	0.129720	-0.000028
C12	C	0.737970	0.127968	-0.000025
C13	C	0.525619	0.123917	0.083083
C14	C	0.438896	0.122261	0.083080
C15	C	0.438917	0.122268	-0.083163
C16	C	0.525638	0.123917	-0.083159
C17	C	0.568986	0.124746	-0.000033
C18	C	0.395543	0.121441	-0.000040
C19	C	0.301514	0.119646	-0.000044
C20	C	0.663021	0.126539	-0.000029
C21	C	0.988149	-0.041735	-0.000034
C22	C	0.986396	-0.141816	-0.000039
C23	C	0.978964	-0.564978	-0.083156
C24	C	0.978954	-0.564975	0.083085
C25	C	0.980608	-0.470945	0.083085
C26	C	0.981439	-0.423926	-0.000036
C27	C	0.980615	-0.470939	-0.083158
C28	C	0.981423	-0.423924	0.166206
C29	C	0.983076	-0.329888	0.166210
C30	C	0.983913	-0.282868	0.083088
C31	C	0.983090	-0.329887	-0.000038
C32	C	0.983921	-0.282868	-0.083159
C33	C	0.983104	-0.329886	-0.166285
C34	C	0.981452	-0.423919	-0.166280
C35	C	0.985565	-0.188835	0.083082
C36	C	0.985572	-0.188829	-0.083161
C37	C	1.134261	0.116467	-0.000040
C38	C	1.226559	0.118219	-0.000048
C39	C	0.976380	0.287922	-0.000034
C40	C	0.978133	0.388004	-0.000035
N41	N	0.982258	0.123090	0.216962
N42	N	0.982278	0.123090	-0.217028
C43	C	1.038729	0.061804	0.451967
C44	C	1.038732	0.061802	0.547948
C45	C	0.925800	0.184378	0.547961
C46	C	0.925795	0.184376	0.451981
C47	C	0.982264	0.123090	0.403987
C48	C	0.982272	0.123090	0.595948
C49	C	0.982274	0.123088	0.700015
C50	C	0.982261	0.123090	0.299913
H51	H	0.560910	0.124592	0.150770
C52	C	1.100835	-0.005615	0.399176
H53	H	1.134458	-0.042120	0.441502
H54	H	1.135478	0.026821	0.361725
H55	H	1.070877	-0.043156	0.361745
C56	C	0.573345	0.124833	-0.174591
H57	H	0.535108	0.124116	-0.224098
H58	H	0.613459	0.072935	-0.178046
H59	H	0.600892	0.178025	-0.178039
H60	H	0.980787	-0.462209	-0.233957
C61	C	0.986485	-0.137116	-0.174596
H62	H	0.985757	-0.178586	-0.224097
H63	H	1.035572	-0.107319	-0.178054
H64	H	0.938676	-0.093545	-0.178051
H65	H	0.978302	-0.603264	-0.150835
C66	C	0.984017	-0.278164	-0.257715
H67	H	0.983290	-0.319627	-0.307222
H68	H	1.033103	-0.248365	-0.261167
H69	H	0.936207	-0.234594	-0.261165
H70	H	1.084710	0.011897	0.587011
H71	H	0.403590	0.121586	0.150761
C72	C	0.978044	-0.616693	0.174510
H73	H	0.976947	-0.679430	0.162606
H74	H	0.929871	-0.594392	0.208670
H75	H	1.026767	-0.608176	0.208654
C76	C	0.863697	0.251796	0.600757
H77	H	0.871793	0.243028	0.664791
H78	H	0.808199	0.241991	0.585041
H79	H	0.872800	0.311969	0.585019
C80	C	0.391229	0.121368	-0.174594
H81	H	0.333368	0.120277	-0.162694
H82	H	0.411725	0.069100	-0.208751
H83	H	0.399165	0.174191	-0.208739
H84	H	0.980742	-0.462213	0.233878
C85	C	0.983985	-0.278178	0.257643
H86	H	0.983260	-0.319650	0.307145
H87	H	0.936189	-0.234598	0.261105
H88	H	1.033084	-0.248395	0.261092
C89	C	0.986461	-0.137119	0.174509
H90	H	0.985731	-0.178590	0.224012
H91	H	0.938662	-0.093542	0.177961
H92	H	1.035558	-0.107332	0.177966
C93	C	0.863682	0.251795	0.399199
H94	H	0.830060	0.288304	0.441528
H95	H	0.829037	0.219352	0.361765
H96	H	0.893635	0.289333	0.361751
