data_functionalizedCrystal
_audit_creation_method	'MofGen! by Chris Wilmer'
_symmetry_space_group_name_H-M	'P1'
_symmetry_Int_Tables_number	1
_symmetry_cell_setting	triclinic
loop_
_symmetry_equiv_pos_as_xyz
  x,y,z
_cell_length_a	14.519709
_cell_length_b	19.188930
_cell_length_c	13.596369
_cell_angle_alpha	89.988893
_cell_angle_beta	90.000291
_cell_angle_gamma	83.412464
loop_
_atom_site_label
_atom_site_type_symbol
_atom_site_fract_x
_atom_site_fract_y
_atom_site_fract_z
O1	O	1.223300	0.091524	-0.081675
O2	O	1.723300	0.591524	0.418325
O3	O	0.954756	0.102302	-0.081706
O4	O	1.454756	0.602302	0.418294
O5	O	1.096778	-0.004715	-0.081670
O6	O	1.596778	0.495285	0.418330
O7	O	1.081278	0.198542	-0.081711
O8	O	1.581278	0.698542	0.418289
O9	O	1.096763	-0.004720	0.081912
O10	O	1.596763	0.495280	0.581912
O11	O	0.954742	0.102297	0.081877
O12	O	1.454742	0.602297	0.581877
O13	O	1.223286	0.091519	0.081908
O14	O	1.723286	0.591519	0.581908
Zn15	Zn	1.089012	0.096907	0.107865
Zn16	Zn	1.589012	0.596907	0.607865
Zn17	Zn	1.089030	0.096914	-0.107663
Zn18	Zn	1.589030	0.596914	0.392337
O19	O	1.081264	0.198536	0.081872
O20	O	1.581264	0.698536	0.581872
C21	C	0.920392	0.101797	0.000081
C22	C	1.420392	0.601797	0.500081
C23	C	0.818020	0.100292	0.000070
C24	C	1.318020	0.600292	0.500070
C25	C	1.096269	-0.030730	0.000124
C26	C	1.596269	0.469270	0.500124
C27	C	1.094762	-0.108240	0.000132
C28	C	1.594762	0.391760	0.500132
C29	C	0.443159	0.094751	0.000116
C30	C	0.943159	0.594751	0.500116
C31	C	0.547457	0.096290	0.000103
C32	C	1.047457	0.596290	0.500103
C33	C	0.630586	0.097521	0.000092
C34	C	1.130586	0.597521	0.500092
C35	C	0.734891	0.099060	0.000081
C36	C	1.234891	0.599060	0.500081
C37	C	1.178095	-0.152867	0.000146
C38	C	1.678095	0.347133	0.500146
C39	C	1.176680	-0.225696	0.000131
C40	C	1.676680	0.274304	0.500131
C41	C	1.091926	-0.253895	0.000120
C42	C	1.591926	0.246105	0.500120
C43	C	1.008582	-0.209257	0.000100
C44	C	1.508582	0.290743	0.500100
C45	C	1.009999	-0.136430	0.000106
C46	C	1.509999	0.363570	0.500106
N47	N	1.027137	-0.362132	0.055783
N48	N	1.527137	0.137868	0.555783
N49	N	1.025796	-0.431316	0.055779
N50	N	1.525796	0.068684	0.555779
C51	C	1.087649	-0.473318	0.000100
C52	C	1.587649	0.026682	0.500100
N53	N	1.150908	-0.443526	-0.055564
N54	N	1.650908	0.056474	0.444436
N55	N	1.152252	-0.374336	-0.055556
N56	N	1.652252	0.125664	0.444444
C57	C	1.090379	-0.332863	0.000113
C58	C	1.590379	0.167137	0.500113
C59	C	1.169454	-0.596916	0.000095
C60	C	1.669454	-0.096916	0.500095
C61	C	1.168035	-0.669745	0.000073
C62	C	1.668035	-0.169745	0.500073
C63	C	0.999934	-0.653305	0.000053
C64	C	1.499934	-0.153305	0.500053
C65	C	1.001355	-0.580477	0.000065
C66	C	1.501355	-0.080477	0.500065
C67	C	1.086118	-0.552287	0.000091
C68	C	1.586118	-0.052287	0.500091
C69	C	1.257649	0.092024	0.000118
C70	C	1.757649	0.592024	0.500118
C71	C	1.360021	0.093529	0.000123
C72	C	1.860021	0.593529	0.500123
C73	C	1.081773	0.224551	0.000076
C74	C	1.581773	0.724551	0.500076
C75	C	1.083280	0.302061	0.000061
C76	C	1.583280	0.802061	0.500061
N77	N	1.089006	0.096901	0.254956
N78	N	1.589006	0.596901	0.754956
N79	N	1.089043	0.096914	-0.254755
N80	N	1.589043	0.596914	0.245245
C81	C	1.089029	0.096915	0.656247
C82	C	1.589029	0.596915	1.156247
C83	C	1.089020	0.096914	0.544596
C84	C	1.589020	0.596914	1.044596
C85	C	1.089018	0.096909	0.455605
C86	C	1.589018	0.596909	0.955605
C87	C	1.089008	0.096906	0.343947
C88	C	1.589008	0.596906	0.843947
H89	H	1.247116	-0.129920	0.000164
H90	H	1.747116	0.370080	0.500164
H91	H	0.942137	-0.100094	0.000095
H92	H	1.442137	0.399906	0.500095
H93	H	1.244542	-0.262039	0.000138
H94	H	1.744542	0.237961	0.500138
O95	O	0.926229	-0.236613	-0.000084
O96	O	1.426229	0.263387	0.499916
C97	C	0.875445	-0.213791	-0.084800
C98	C	1.375445	0.286209	0.415200
H99	H	0.925019	-0.198571	-0.144006
H100	H	1.425019	0.301429	0.355994
H101	H	0.836393	-0.257953	-0.113246
H102	H	1.336393	0.242047	0.386754
H103	H	0.823859	-0.166397	-0.065653
H104	H	1.323859	0.333603	0.434347
H105	H	0.930926	-0.676263	0.000039
H106	H	1.430926	-0.176263	0.500039
H107	H	1.238472	-0.573962	0.000112
H108	H	1.738472	-0.073962	0.500112
O109	O	1.249075	-0.712999	0.000130
O110	O	1.749075	-0.212999	0.500130
C111	C	1.324186	-0.672497	0.000131
C112	C	1.824186	-0.172497	0.500131
H113	H	1.300552	-0.618180	0.031103
H114	H	1.800552	-0.118180	0.531103
H115	H	1.382550	-0.699297	0.047634
H116	H	1.882550	-0.199297	0.547634
H117	H	1.350194	-0.667263	-0.078340
H118	H	1.850194	-0.167263	0.421660
O119	O	0.920319	-0.537222	0.000107
O120	O	1.420319	-0.037222	0.500107
C121	C	0.845207	-0.577724	0.000070
C122	C	1.345207	-0.077724	0.500070
H123	H	0.868833	-0.632053	0.031036
H124	H	1.368833	-0.132053	0.531036
H125	H	0.786831	-0.550942	0.047558
H126	H	1.286831	-0.050942	0.547558
H127	H	0.819219	-0.582927	-0.078413
H128	H	1.319219	-0.082927	0.421587
