data_functionalizedCrystal
_audit_creation_method	'MofGen! by Chris Wilmer'
_symmetry_space_group_name_H-M	'P1'
_symmetry_Int_Tables_number	1
_symmetry_cell_setting	triclinic
loop_
_symmetry_equiv_pos_as_xyz
  x,y,z
_cell_length_a	11.169417
_cell_length_b	11.169416
_cell_length_c	11.169409
_cell_angle_alpha	90.029517
_cell_angle_beta	89.980176
_cell_angle_gamma	89.994884
loop_
_atom_site_label
_atom_site_type_symbol
_atom_site_fract_x
_atom_site_fract_y
_atom_site_fract_z
Zn1	Zn	-1.835013	-0.477682	0.678566
Zn2	Zn	-1.335013	0.022318	1.178566
Zn3	Zn	-1.834924	-0.678422	0.477893
Zn4	Zn	-1.334924	-0.178422	0.977893
Zn5	Zn	-1.634299	-0.477755	0.477901
Zn6	Zn	-1.134299	0.022245	0.977901
Zn7	Zn	-1.634328	-0.678325	0.678538
Zn8	Zn	-1.134328	-0.178325	1.178538
O9	O	-1.734641	-0.578046	0.578224
O10	O	-1.234641	-0.078046	1.078224
O11	O	-2.002951	-0.504321	0.651955
O12	O	-1.502951	-0.004321	1.151955
O13	O	-1.808261	-0.651875	0.309944
O14	O	-1.308261	-0.151875	0.809944
O15	O	-1.660950	-0.309796	0.504534
O16	O	-1.160950	0.190204	1.004534
O17	O	-2.002885	-0.651804	0.504522
O18	O	-1.502885	-0.151804	1.004522
O19	O	-1.808413	-0.309742	0.651963
O20	O	-1.308413	0.190258	1.151963
O21	O	-1.660863	-0.504445	0.309950
O22	O	-1.160863	-0.004445	0.809950
O23	O	-1.466353	-0.504351	0.504507
O24	O	-0.966353	-0.004351	1.004507
O25	O	-1.660999	-0.651637	0.846492
O26	O	-1.160999	-0.151637	1.346492
O27	O	-1.466374	-0.651708	0.651914
O28	O	-0.966374	-0.151708	1.151914
O29	O	-1.808441	-0.504226	0.846512
O30	O	-1.308441	-0.004226	1.346512
O31	O	-1.808289	-0.846359	0.504494
O32	O	-1.308289	-0.346359	1.004494
O33	O	-1.660912	-0.846287	0.651907
O34	O	-1.160912	-0.346287	1.151907
C35	C	-1.422816	-0.578028	0.578209
C36	C	-0.922816	-0.078028	1.078209
C37	C	-1.289416	-0.578049	0.578231
C38	C	-0.789416	-0.078049	1.078231
C39	C	-1.734627	-0.889871	0.578223
C40	C	-1.234627	-0.389871	1.078223
C41	C	-1.734730	-1.023271	0.578262
C42	C	-1.234730	-0.523271	1.078262
C43	C	-1.734733	-0.577913	0.891267
C44	C	-1.234733	-0.077913	1.391267
C45	C	-1.734772	-0.577856	1.024667
C46	C	-1.234772	-0.077856	1.524667
C47	C	-2.047683	-0.578065	0.578241
C48	C	-1.547683	-0.078065	1.078241
C49	C	-2.181083	-0.578073	0.578248
C50	C	-1.681083	-0.078073	1.078248
C51	C	-1.734688	-0.265004	0.578252
C52	C	-1.234688	0.234996	1.078252
C53	C	-1.734708	-0.131604	0.578264
C54	C	-1.234708	0.368396	1.078264
C55	C	-1.734618	-0.578092	0.266400
C56	C	-1.234618	-0.078092	0.766400
C57	C	-1.734811	-0.577811	0.133000
C58	C	-1.234811	-0.077811	0.633000
