data_functionalizedCrystal
_audit_creation_method	'MofGen! by Chris Wilmer'
_symmetry_space_group_name_H-M	'P1'
_symmetry_Int_Tables_number	1
_symmetry_cell_setting	triclinic
loop_
_symmetry_equiv_pos_as_xyz
  x,y,z
_cell_length_a	10.686220
_cell_length_b	12.827892
_cell_length_c	10.686551
_cell_angle_alpha	85.594922
_cell_angle_beta	90.308082
_cell_angle_gamma	94.396976
loop_
_atom_site_label
_atom_site_type_symbol
_atom_site_fract_x
_atom_site_fract_y
_atom_site_fract_z
Zn1	Zn	1.972286	-0.254771	-0.562389
Zn2	Zn	2.472286	0.245229	-0.062389
Zn3	Zn	1.956055	-0.443915	-0.352633
Zn4	Zn	2.456055	0.056085	0.147367
Zn5	Zn	1.746404	-0.281503	-0.368707
Zn6	Zn	2.246404	0.218497	0.131293
Zn7	Zn	1.762485	-0.441797	-0.578411
Zn8	Zn	2.262485	0.058203	-0.078411
O9	O	1.859307	-0.355496	-0.465535
O10	O	2.359307	0.144504	0.034465
O11	O	2.145674	-0.269560	-0.521133
O12	O	2.645674	0.230440	-0.021133
O13	O	1.914721	-0.434445	-0.179220
O14	O	2.414721	0.065555	0.320780
O15	O	1.776430	-0.131715	-0.394421
O16	O	2.276430	0.368285	0.105579
O17	O	2.133750	-0.408523	-0.367026
O18	O	2.633750	0.091477	0.132974
O19	O	1.942384	-0.112075	-0.536719
O20	O	2.442384	0.387925	-0.036719
O21	O	1.760692	-0.315121	-0.191029
O22	O	2.260692	0.184879	0.308971
O23	O	1.572995	-0.313068	-0.409957
O24	O	2.072995	0.186932	0.090043
O25	O	1.803838	-0.404914	-0.751831
O26	O	2.303838	0.095086	-0.251831
O27	O	1.584810	-0.430835	-0.564025
O28	O	2.084810	0.069165	-0.064025
O29	O	1.957978	-0.267506	-0.740060
O30	O	2.457978	0.232494	-0.240060
O31	O	1.930315	-0.589876	-0.382561
O32	O	2.430315	-0.089876	0.117439
O33	O	1.788100	-0.588320	-0.548439
O34	O	2.288100	-0.088320	-0.048439
C35	C	1.533386	-0.374623	-0.490474
C36	C	2.033386	0.125377	0.009526
C37	C	1.393958	-0.382829	-0.501173
C38	C	1.893958	0.117171	-0.001173
C39	C	1.859227	-0.627013	-0.465519
C40	C	2.359227	-0.127013	0.034481
C41	C	1.859311	-0.743159	-0.465545
C42	C	2.359311	-0.243159	0.034455
C43	C	1.929780	-0.795668	-0.383541
C44	C	2.429780	-0.295668	0.116459
C45	C	1.929868	-0.915711	-0.383567
C46	C	2.429868	-0.415711	0.116433
C47	C	2.186501	-0.336296	-0.440499
C48	C	2.686501	0.163704	0.059501
C49	C	2.325931	-0.328114	-0.429830
C50	C	2.825931	0.171886	0.070170
C51	C	1.884512	-0.332992	-0.792735
C52	C	2.384512	0.167008	-0.292735
C53	C	1.895253	-0.323402	-0.932168
C54	C	2.395253	0.176598	-0.432168
C55	C	1.859424	-0.082916	-0.465576
C56	C	2.359424	0.417084	0.034424
C57	C	1.859474	0.033241	-0.465594
C58	C	2.359474	0.533241	0.034406
C59	C	1.834273	-0.377834	-0.139602
C60	C	2.334273	0.122166	0.360398
C61	C	1.823775	-0.387115	-0.000151
C62	C	2.323775	0.112885	0.499849
H63	H	1.374357	-0.274993	-0.360564
H64	H	1.874357	0.225007	0.139436
O65	O	1.335994	-0.446128	-0.583785
O66	O	1.835994	0.053872	-0.083785
C67	C	1.205015	-0.440527	-0.576421
C68	C	1.705015	0.059473	-0.076421
H69	H	1.184090	-0.363676	-0.536847
H70	H	1.684090	0.136324	-0.036847
H71	H	1.162385	-0.444177	-0.674151
H72	H	1.662385	0.055823	-0.174151
H73	H	1.162656	-0.509196	-0.512312
H74	H	1.662656	-0.009196	-0.012312
O75	O	2.001868	-0.743315	-0.299874
O76	O	2.501868	-0.243315	0.200126
C77	C	2.129035	-0.760596	-0.317773
C78	C	2.629035	-0.260596	0.182227
H79	H	2.143066	-0.783368	-0.417487
H80	H	2.643066	-0.283368	0.082513
H81	H	2.190065	-0.685832	-0.302336
H82	H	2.690065	-0.185832	0.197664
H83	H	2.156805	-0.826561	-0.247970
H84	H	2.656805	-0.326561	0.252030
H85	H	1.964676	-0.261517	-0.980641
H86	H	2.464676	0.238483	-0.480641
H87	H	1.990196	-0.960865	-0.313357
H88	H	2.490196	-0.460865	0.186643
O89	O	1.787569	-0.913004	-0.549529
O90	O	2.287569	-0.413004	-0.049529
C91	C	1.824534	-0.929311	-0.672525
C92	C	2.324534	-0.429311	-0.172525
H93	H	1.872935	-1.005530	-0.671584
H94	H	2.372935	-0.505530	-0.171584
H95	H	1.738284	-0.934436	-0.735641
H96	H	2.238284	-0.434436	-0.235641
H97	H	1.892271	-0.861153	-0.709808
H98	H	2.392271	-0.361153	-0.209808
O99	O	1.787379	-0.795373	-0.549450
O100	O	2.287379	-0.295373	-0.049450
C101	C	1.721814	-0.723246	-0.625671
C102	C	2.221814	-0.223246	-0.125671
H103	H	1.773391	-0.642060	-0.626198
H104	H	2.273391	-0.142060	-0.126198
H105	H	1.716020	-0.748834	-0.725498
H106	H	2.216020	-0.248834	-0.225498
H107	H	1.623014	-0.720522	-0.586952
H108	H	2.123014	-0.220522	-0.086952
O109	O	1.741128	-0.460996	-0.942185
O110	O	2.241128	0.039004	-0.442185
C111	C	1.806757	-0.529468	-0.860940
C112	C	2.306757	-0.029468	-0.360940
H113	H	1.900354	-0.488355	-0.834175
H114	H	2.400354	0.011645	-0.334175
H115	H	1.748642	-0.552737	-0.772651
H116	H	2.248642	-0.052737	-0.272651
H117	H	1.824344	-0.602678	-0.910295
H118	H	2.324344	-0.102678	-0.410295
