data_functionalizedCrystal
_audit_creation_method	'MofGen! by Chris Wilmer'
_symmetry_space_group_name_H-M	'P1'
_symmetry_Int_Tables_number	1
_symmetry_cell_setting	triclinic
loop_
_symmetry_equiv_pos_as_xyz
  x,y,z
_cell_length_a	19.288864
_cell_length_b	19.188930
_cell_length_c	17.766277
_cell_angle_alpha	89.988508
_cell_angle_beta	89.976791
_cell_angle_gamma	83.140512
loop_
_atom_site_label
_atom_site_type_symbol
_atom_site_fract_x
_atom_site_fract_y
_atom_site_fract_z
O1	O	0.921360	0.087099	-0.062844
O2	O	0.719100	0.098849	-0.062794
O3	O	0.826066	-0.008682	-0.062806
O4	O	0.814393	0.194630	-0.062832
O5	O	0.826048	-0.008688	0.062383
O6	O	0.719081	0.098843	0.062395
O7	O	0.921341	0.087094	0.062345
Cu8	Cu	0.820209	0.092968	0.073800
Cu9	Cu	0.820231	0.092974	-0.074250
O10	O	0.814374	0.194625	0.062356
C11	C	0.693214	0.098468	-0.000193
C12	C	0.616110	0.097333	-0.000173
C13	C	0.571419	0.160427	-0.000193
C14	C	0.498972	0.159361	-0.000201
C15	C	0.471219	0.095197	-0.000204
C16	C	0.515921	0.032095	-0.000180
C17	C	0.588366	0.033163	-0.000164
C18	C	0.362960	0.044759	-0.044082
C19	C	0.290515	0.043694	-0.044103
C20	C	0.247773	0.091900	-0.000249
C21	C	0.277483	0.141184	0.043614
C22	C	0.349929	0.142252	0.043630
C23	C	0.392665	0.094032	-0.000221
C24	C	0.124526	0.153843	-0.000277
C25	C	0.052078	0.152774	-0.000281
C26	C	0.069028	0.025506	-0.000267
C27	C	0.141475	0.026576	-0.000256
C28	C	0.169219	0.090747	-0.000265
C29	C	0.825679	-0.034696	-0.000209
C30	C	0.824544	-0.112200	-0.000202
C31	C	0.887309	-0.157129	-0.000214
C32	C	0.886243	-0.229953	-0.000226
C33	C	0.822408	-0.257844	-0.000211
C34	C	0.759636	-0.212906	-0.000203
C35	C	0.760704	-0.140084	-0.000199
N36	N	0.773608	-0.365848	0.042405
N37	N	0.772598	-0.435026	0.042403
C38	C	0.819187	-0.477253	-0.000225
N39	N	0.866835	-0.447689	-0.042841
N40	N	0.867847	-0.378504	-0.042836
C41	C	0.821243	-0.336807	-0.000216
C42	C	0.880800	-0.601146	-0.000251
C43	C	0.879731	-0.673971	-0.000268
C44	C	0.753122	-0.656922	-0.000237
C45	C	0.754193	-0.584099	-0.000228
C46	C	0.818034	-0.556216	-0.000231
C47	C	0.947227	0.087475	-0.000258
C48	C	1.024330	0.088609	-0.000283
C49	C	0.814762	0.220638	-0.000242
C50	C	0.815896	0.298143	-0.000253
N51	N	0.820199	0.092963	0.177931
N52	N	0.820247	0.092974	-0.178380
C53	C	0.867579	0.045372	0.217312
C54	C	0.867583	0.045368	0.296114
C55	C	0.820213	0.092969	0.335531
C56	C	0.772824	0.140564	0.296140
C57	C	0.772817	0.140561	0.217340
C58	C	0.810919	0.156585	0.460362
C59	C	0.810931	0.156589	0.539161
C60	C	0.820232	0.092977	0.578578
C61	C	0.829535	0.029359	0.539185
C62	C	0.829528	0.029356	0.460385
C63	C	0.820216	0.092977	0.420977
C64	C	0.867619	0.045378	0.703405
C65	C	0.867618	0.045374	0.782208
C66	C	0.772863	0.140575	0.782233
C67	C	0.772861	0.140573	0.703431
C68	C	0.820242	0.092976	0.664022
H69	H	0.493320	-0.020148	-0.000193
N70	N	0.380290	0.192575	0.088441
N71	N	0.444975	0.193515	0.088450
H72	H	0.466419	0.229054	0.120101
H73	H	0.147116	0.206094	-0.000273
H74	H	0.701147	-0.679631	-0.000228
H75	H	0.709591	-0.103502	-0.000189
H76	H	0.906198	0.006619	0.671317
N77	N	0.634012	-0.031296	-0.000140
N78	N	0.609229	-0.088583	-0.000136
H79	H	0.641466	-0.134109	-0.000119
H80	H	0.939293	-0.134431	-0.000220
H81	H	0.462577	0.210742	-0.000215
N82	N	0.946014	-0.572669	-0.000253
N83	N	1.002052	-0.612797	-0.000268
H84	H	1.048110	-0.592688	-0.000268
N85	N	0.943854	-0.719857	-0.000290
N86	N	1.000845	-0.694948	-0.000296
H87	H	1.046134	-0.727355	-0.000313
H88	H	0.734234	0.179316	0.185275
H89	H	0.906199	0.006616	0.814274
H90	H	0.015690	0.204155	-0.000293
H91	H	0.734254	0.179319	0.328238
N92	N	0.724473	0.189187	0.822498
N93	N	0.724482	0.189181	0.892855
H94	H	0.690303	0.223512	0.921297
N95	N	0.690073	-0.538211	-0.000213
N96	N	0.633082	-0.563120	-0.000202
H97	H	0.587793	-0.530712	-0.000194
N98	N	0.801417	0.221565	0.420098
N99	N	0.750916	0.234402	0.376150
H100	H	0.744205	0.280293	0.347714
N101	N	0.694436	-0.241405	-0.000194
N102	N	0.693491	-0.306425	-0.000197
H103	H	0.647442	-0.326552	-0.000195
N104	N	0.916039	-0.003193	0.177070
N105	N	0.958379	-0.045644	0.212248
H106	H	0.992627	-0.079921	0.183826
N107	N	0.950364	-0.275847	-0.000239
N108	N	1.007358	-0.250942	-0.000244
H109	H	1.052645	-0.283352	-0.000252
N110	N	0.233821	0.190443	0.088387
N111	N	0.169138	0.189492	0.088360
H112	H	0.138297	0.224286	0.119971
N113	N	0.040692	-0.040038	-0.000251
N114	N	0.002134	-0.054833	0.052519
H115	H	-0.017881	-0.101126	0.052536
N116	N	0.801434	0.221562	0.579411
N117	N	0.847784	0.237125	0.623354
H118	H	0.841075	0.283013	0.651781
N119	N	0.599746	0.225980	-0.000204
N120	N	0.559829	0.282310	-0.000223
H121	H	0.579835	0.328608	-0.000231
N122	N	0.724458	0.189193	0.663211
N123	N	0.682164	0.231688	0.698410
H124	H	0.647975	0.266026	0.670006
H125	H	0.177864	-0.024802	-0.000244
N126	N	0.406620	-0.004495	-0.088867
N127	N	0.407085	-0.068881	-0.077806
H128	H	0.437921	-0.103667	-0.109431
N129	N	0.915985	-0.003254	0.336341
N130	N	0.958282	-0.045749	0.301145
H131	H	0.992467	-0.080089	0.329553
H132	H	0.837101	-0.022444	0.428315
N133	N	0.260181	-0.006644	-0.088919
N134	N	0.298349	-0.049687	-0.128064
H135	H	0.276928	-0.085239	-0.159718
H136	H	0.837108	-0.022440	0.571277
