data_functionalizedCrystal
_audit_creation_method	'MofGen! by Chris Wilmer'
_symmetry_space_group_name_H-M	'P1'
_symmetry_Int_Tables_number	1
_symmetry_cell_setting	triclinic
loop_
_symmetry_equiv_pos_as_xyz
  x,y,z
_cell_length_a	14.185568
_cell_length_b	17.699083
_cell_length_c	17.699083
_cell_angle_alpha	83.283015
_cell_angle_beta	76.904141
_cell_angle_gamma	103.146802
loop_
_atom_site_label
_atom_site_type_symbol
_atom_site_fract_x
_atom_site_fract_y
_atom_site_fract_z
O1	O	-0.083275	-1.021263	-0.078572
O2	O	-0.083308	-0.800891	-0.091018
O3	O	-0.083281	-0.917301	0.025392
O4	O	-0.083301	-0.904853	-0.194982
O5	O	0.083545	-0.882860	-0.008940
O6	O	0.083519	-0.766450	-0.125350
O7	O	0.083552	-0.986822	-0.112904
Cu8	Cu	0.098768	-0.873491	-0.122262
Cu9	Cu	-0.098524	-0.914222	-0.081660
O10	O	0.083526	-0.870412	-0.229314
C11	C	0.000101	-0.755474	-0.107737
C12	C	0.000089	-0.671459	-0.106395
N13	N	-0.237288	-0.942870	-0.053097
C14	C	0.000132	-0.899634	0.036423
C15	C	0.000132	-0.898296	0.120441
C16	C	-0.604979	-0.760645	-0.234666
C17	C	-0.709996	-0.782365	-0.213050
C18	C	-0.709934	-0.885639	-0.110180
C19	C	-0.604915	-0.863930	-0.131790
C20	C	-0.552446	-0.801432	-0.194033
C21	C	-0.552382	-0.904717	-0.091157
C22	C	-0.447372	-0.883006	-0.112762
C23	C	-0.394896	-0.820509	-0.175002
C24	C	-0.447437	-0.779721	-0.215639
C25	C	-0.604853	-0.967211	-0.028910
C26	C	-0.552319	-1.007998	0.011723
C27	C	-0.447308	-0.986291	-0.009886
C28	C	-0.394831	-0.923794	-0.072125
C29	C	-0.394767	-1.027079	0.030751
C30	C	-0.289757	-1.005368	0.009146
C31	C	-0.289822	-0.902083	-0.093731
N32	N	0.237533	-0.844849	-0.150818
C33	C	0.000141	-1.032239	-0.096185
C34	C	0.000146	-1.116256	-0.097524
C35	C	0.000083	-0.622839	-0.174728
C36	C	0.000096	-0.543893	-0.173468
C37	C	0.000108	-0.513570	-0.103874
C38	C	0.000117	-0.562195	-0.035537
C39	C	0.000111	-0.641138	-0.036799
C40	C	0.000142	-0.243827	-0.030447
C41	C	0.000145	-0.164878	-0.029190
C42	C	0.000128	-0.146582	-0.167116
C43	C	0.000122	-0.225525	-0.168378
C44	C	0.000136	-0.274142	-0.100043
C45	C	0.000123	-0.359744	-0.101410
C46	C	0.000113	-0.427971	-0.102505
C47	C	0.000110	-0.888079	-0.240344
C48	C	0.000103	-0.889419	-0.324361
C49	C	0.000144	-0.966627	0.169060
C50	C	0.000135	-0.965366	0.248005
C51	C	0.000121	-0.895773	0.278329
C52	C	0.000107	-0.827437	0.229705
C53	C	0.000108	-0.828700	0.150762
C54	C	0.000098	-0.822344	0.548069
C55	C	0.000099	-0.821086	0.627017
C56	C	0.000124	-0.959010	0.645312
C57	C	0.000126	-0.960273	0.566370
C58	C	0.000106	-0.891939	0.517754
C59	C	0.000114	-0.893307	0.432153
C60	C	0.000121	-0.894403	0.363927
H61	H	-0.247100	-0.851196	-0.144421
Br62	Br	0.000144	-1.054725	0.525221
Br63	Br	-0.747368	-0.996667	0.000415
Br64	Br	0.000084	-0.735963	0.084780
H65	H	0.000156	-0.140193	0.027485
Br66	Br	0.000150	-1.058106	0.313986
H67	H	-0.562257	-0.709758	-0.285356
Br68	Br	-0.623535	-1.093066	0.095939
Br69	Br	0.000177	-1.061078	0.127912
Br70	Br	0.000151	-1.051752	0.711296
Br71	Br	-0.376223	-0.694910	-0.300124
H72	H	-0.437501	-1.077960	0.081436
H73	H	0.000115	-0.680725	0.018844
Br74	Br	0.000164	-0.309797	0.062293
Br75	Br	-0.252381	-0.791038	-0.204320
H76	H	-0.246984	-1.038581	0.042235
Br77	Br	0.000143	-0.521041	0.058911
H78	H	0.000082	-0.766702	0.508495
H79	H	0.000089	-0.770774	0.254401
Br80	Br	0.000082	-0.726630	0.668170
H81	H	-0.752764	-0.749145	-0.246144
H82	H	-0.752666	-0.936524	-0.059499
H83	H	0.000073	-0.647522	-0.231399
H84	H	0.000108	-0.250210	-0.225048
Br85	Br	0.000085	-0.477912	-0.266208
H86	H	0.000121	-0.106987	-0.222759
