data_functionalizedCrystal
_audit_creation_method	'MofGen! by Chris Wilmer'
_symmetry_space_group_name_H-M	'P1'
_symmetry_Int_Tables_number	1
_symmetry_cell_setting	triclinic
loop_
_symmetry_equiv_pos_as_xyz
  x,y,z
_cell_length_a	12.759395
_cell_length_b	13.897448
_cell_length_c	12.759387
_cell_angle_alpha	89.967288
_cell_angle_beta	89.979491
_cell_angle_gamma	90.019229
loop_
_atom_site_label
_atom_site_type_symbol
_atom_site_fract_x
_atom_site_fract_y
_atom_site_fract_z
Zn1	Zn	1.606247	-0.383924	-0.593991
Zn2	Zn	1.606128	-0.545252	-0.418306
Zn3	Zn	1.430545	-0.383977	-0.418328
Zn4	Zn	1.430528	-0.545184	-0.593945
O5	O	1.518362	-0.464584	-0.506142
O6	O	1.753252	-0.405332	-0.570696
O7	O	1.582794	-0.523909	-0.271287
O8	O	1.453909	-0.248988	-0.441659
O9	O	1.753165	-0.523858	-0.441621
O10	O	1.582996	-0.248950	-0.570718
O11	O	1.453794	-0.405421	-0.271304
O12	O	1.283522	-0.405355	-0.441614
O13	O	1.453880	-0.523741	-0.740972
O14	O	1.283509	-0.523792	-0.570639
O15	O	1.582980	-0.405265	-0.741006
O16	O	1.582778	-0.680225	-0.441576
O17	O	1.453765	-0.680174	-0.570617
C18	C	1.245395	-0.464573	-0.506124
C19	C	1.128618	-0.464591	-0.506142
C20	C	1.518285	-0.715199	-0.506112
C21	C	1.518349	-0.822413	-0.506134
C22	C	1.128644	-0.588119	-0.640278
C23	C	1.073796	-0.649891	-0.707349
C24	C	0.964074	-0.649903	-0.707362
C25	C	0.909198	-0.588134	-0.640299
C26	C	0.964046	-0.526362	-0.573227
C27	C	1.073770	-0.526359	-0.573220
C28	C	0.964020	-0.402830	-0.439098
C29	C	1.073742	-0.402822	-0.439078
C30	C	0.909144	-0.341061	-0.372035
C31	C	0.963992	-0.279293	-0.304957
C32	C	1.073720	-0.279284	-0.304946
C33	C	1.128590	-0.341050	-0.372007
C34	C	1.518459	-1.018708	-0.506200
C35	C	1.518395	-0.909475	-0.506167
C36	C	1.792395	-0.464597	-0.506161
C37	C	1.909172	-0.464602	-0.506169
C38	C	1.518441	-0.464490	-0.780176
C39	C	1.518475	-0.464449	-0.896953
C40	C	1.518468	-0.212991	-0.506196
C41	C	1.518513	-0.105777	-0.506219
C42	C	1.652916	-0.341088	-0.897008
C43	C	1.720151	-0.279393	-0.951896
C44	C	1.720176	-0.279358	-1.061618
C45	C	1.652958	-0.341022	-1.116454
C46	C	1.585723	-0.402718	-1.061565
C47	C	1.585707	-0.402748	-0.951841
C48	C	1.451278	-0.526072	-1.061510
C49	C	1.451256	-0.526114	-0.951789
C50	C	1.384059	-0.587737	-1.116346
C51	C	1.316828	-0.649438	-1.061458
C52	C	1.316806	-0.649472	-0.951729
C53	C	1.384021	-0.587809	-0.896900
C54	C	1.518344	-0.464609	-0.233175
C55	C	1.518513	-0.464377	-0.116399
H56	H	1.118488	-0.700181	-0.761952
H57	H	1.774918	-0.229114	-1.106308
H58	H	0.919303	-0.229001	-0.250364
C59	C	1.285870	-0.496391	-0.667217
C60	C	1.249251	-0.588117	-0.640257
H61	H	1.360329	-0.496393	-0.667198
H62	H	1.261094	-0.479803	-0.735048
H63	H	1.261034	-0.450770	-0.617676
H64	H	1.274081	-0.633737	-0.689802
H65	H	1.274038	-0.604717	-0.572416
C66	C	1.257166	-0.704151	-1.229630
C67	C	1.242950	-0.717215	-1.121733
H68	H	1.211560	-0.746000	-1.266842
H69	H	1.241821	-0.639340	-1.247612
H70	H	1.327757	-0.718268	-1.247610
H71	H	1.172361	-0.703091	-1.103751
H72	H	1.258287	-0.782041	-1.103743
C73	C	1.062663	-0.157181	-0.172355
C74	C	1.134005	-0.211386	-0.231211
H75	H	1.099880	-0.115270	-0.126829
H76	H	1.019907	-0.120341	-0.218211
H77	H	1.019831	-0.199175	-0.132096
H78	H	1.176833	-0.169392	-0.271477
H79	H	1.176780	-0.248230	-0.185350
C80	C	1.285725	-0.432770	-0.345026
C81	C	1.249197	-0.341044	-0.371994
H82	H	1.360184	-0.432766	-0.345027
H83	H	1.260872	-0.449359	-0.277201
H84	H	1.260905	-0.478391	-0.394573
H85	H	1.274012	-0.295424	-0.322442
H86	H	1.274061	-0.324444	-0.439829
H87	H	1.384014	-0.587834	-0.807559
C88	C	1.726090	-0.273982	-0.739861
C89	C	1.652895	-0.341130	-0.776400
H90	H	1.726072	-0.274004	-0.665402
H91	H	1.793873	-0.290670	-0.764689
H92	H	1.707954	-0.211727	-0.764698
H93	H	1.671036	-0.403386	-0.751569
H94	H	1.585098	-0.324447	-0.751561
H95	H	0.919417	-0.700198	-0.761982
C96	C	1.183928	-0.771418	-0.962706
C97	C	1.242910	-0.717302	-0.891400
H98	H	1.138316	-0.813301	-0.925462
H99	H	1.143764	-0.729373	-1.005495
H100	H	1.229707	-0.808295	-1.005510
H101	H	1.197131	-0.680420	-0.848601
H102	H	1.283077	-0.759353	-0.848593
H103	H	0.819857	-0.588141	-0.640324
C104	C	0.751998	-0.249354	-0.399024
C105	C	0.788536	-0.341075	-0.372050
H106	H	0.677539	-0.249368	-0.399036
H107	H	0.776803	-0.203734	-0.349483
H108	H	0.776860	-0.232763	-0.466856
H109	H	0.763681	-0.357663	-0.304214
H110	H	0.763720	-0.386710	-0.421593
C111	C	1.771415	-0.116077	-0.918151
C112	C	1.794036	-0.211616	-0.891615
H113	H	1.817024	-0.074236	-0.880931
H114	H	1.781056	-0.107232	-0.991343
H115	H	1.700826	-0.101967	-0.900156
H116	H	1.864623	-0.225728	-0.909617
H117	H	1.784404	-0.220466	-0.818407
H118	H	1.652975	-0.340980	-1.205795
H119	H	1.384081	-0.587700	-1.205687
