data_functionalizedCrystal
_audit_creation_method	'MofGen! by Chris Wilmer'
_symmetry_space_group_name_H-M	'P1'
_symmetry_Int_Tables_number	1
_symmetry_cell_setting	triclinic
loop_
_symmetry_equiv_pos_as_xyz
  x,y,z
_cell_length_a	15.944551
_cell_length_b	10.654541
_cell_length_c	9.130307
_cell_angle_alpha	90.000178
_cell_angle_beta	89.995755
_cell_angle_gamma	96.008667
loop_
_atom_site_label
_atom_site_type_symbol
_atom_site_fract_x
_atom_site_fract_y
_atom_site_fract_z
O1	O	0.117965	-1.666312	-0.121758
O2	O	0.129208	-1.300688	-0.121771
O3	O	0.001369	-1.493485	-0.121751
O4	O	0.245804	-1.473516	-0.121778
O5	O	0.001368	-1.493478	0.121848
O6	O	0.129206	-1.300682	0.121828
O7	O	0.117964	-1.666306	0.121841
Cu8	Cu	0.123585	-1.483493	0.144077
Cu9	Cu	0.123587	-1.483501	-0.144007
O10	O	0.245802	-1.473509	0.121821
C11	C	0.128382	-1.253897	0.000027
C12	C	0.125914	-1.114486	0.000022
C13	C	-0.029930	-1.492652	0.000049
C14	C	-0.123190	-1.490167	0.000049
C15	C	0.118790	-1.713097	0.000040
C16	C	0.121258	-1.852508	0.000035
C17	C	-0.338772	-1.364722	0.000025
C18	C	-0.399453	-1.422972	0.120136
C19	C	-0.293942	-1.485671	0.000038
C20	C	-0.399435	-1.423006	-0.120034
C21	C	-0.458880	-1.481319	0.000021
C22	C	-0.353395	-1.543954	0.120248
C23	C	-0.353371	-1.543971	-0.120029
C24	C	-0.414034	-1.602309	0.000111
C25	C	-0.198925	-1.488175	0.000049
C26	C	-0.553896	-1.478825	0.000020
C27	C	0.277102	-1.474342	0.000018
C28	C	0.370362	-1.476827	0.000008
N29	N	0.123584	-1.483497	0.346700
C30	C	0.278779	-1.084537	-0.000013
C31	C	0.354048	-1.004069	-0.000036
C32	C	0.351724	-0.873081	-0.000038
C33	C	0.274122	-0.822560	-0.000011
C34	C	0.198852	-0.903028	0.000012
C35	C	0.201185	-1.034017	0.000009
C36	C	0.045989	-0.932976	0.000058
C37	C	0.048311	-1.063965	0.000049
C38	C	-0.031613	-0.882455	0.000085
C39	C	-0.106885	-0.962924	0.000098
C40	C	-0.104557	-1.093919	0.000097
C41	C	-0.026958	-1.144433	0.000072
N42	N	0.123582	-1.483507	-0.346630
C43	C	0.010416	-1.654288	0.346708
C44	C	-0.046165	-1.739692	0.423378
C45	C	-0.046166	-1.739704	0.576712
C46	C	0.010420	-1.654301	0.653378
C47	C	0.067001	-1.568898	0.576707
C48	C	0.066997	-1.568897	0.423370
C49	C	0.180163	-1.398103	0.576699
C50	C	0.180169	-1.398094	0.423366
C51	C	0.236748	-1.312700	0.653366
C52	C	0.293335	-1.227301	0.576695
C53	C	0.293334	-1.227292	0.423352
C54	C	0.236750	-1.312691	0.346695
H55	H	-0.306045	-1.264329	0.000141
O56	O	-0.107192	-1.831813	0.659418
H57	H	-0.071443	-1.892831	0.729273
H58	H	0.339399	-1.157766	0.639126
H59	H	-0.332944	-1.595086	-0.221575
O60	O	0.271617	-0.681279	0.000012
H61	H	0.205014	-0.659667	0.000044
O62	O	-0.185741	-1.180711	0.000124
H63	H	-0.240087	-1.123568	0.000135
H64	H	-0.025055	-1.251088	0.000055
O65	O	0.432903	-0.786278	-0.000066
H66	H	0.487256	-0.843408	-0.000091
O67	O	-0.426480	-1.355211	0.254643
H68	H	-0.496061	-1.354787	0.253945
H69	H	0.010418	-1.654297	0.221855
O70	O	0.437747	-1.058555	-0.000068
H71	H	0.426723	-1.163157	-0.000078
H72	H	-0.333109	-1.595064	0.221904
O73	O	-0.034128	-0.741177	0.000088
H74	H	0.031247	-0.693707	0.000054
H75	H	0.236747	-1.312696	0.221843
O76	O	-0.190578	-0.908439	0.000132
H77	H	-0.179548	-0.803837	0.000130
H78	H	-0.419808	-1.371837	-0.221585
H79	H	-0.446611	-1.702790	0.000183
O80	O	0.354360	-1.135158	0.340681
H81	H	0.318611	-1.074121	0.270850
H82	H	-0.092238	-1.809224	0.360943
H83	H	0.280679	-1.191193	-0.000044
H84	H	0.010409	-1.654307	0.778230
O85	O	0.236758	-1.312713	0.818747
H86	H	0.187916	-1.386457	0.859185
