data_functionalizedCrystal
_audit_creation_method	'MofGen! by Chris Wilmer'
_symmetry_space_group_name_H-M	'P1'
_symmetry_Int_Tables_number	1
_symmetry_cell_setting	triclinic
loop_
_symmetry_equiv_pos_as_xyz
  x,y,z
_cell_length_a	16.109318
_cell_length_b	16.176319
_cell_length_c	16.109301
_cell_angle_alpha	90.008225
_cell_angle_beta	83.465022
_cell_angle_gamma	90.003834
loop_
_atom_site_label
_atom_site_type_symbol
_atom_site_fract_x
_atom_site_fract_y
_atom_site_fract_z
O1	O	1.103126	0.068680	0.106938
O2	O	0.861066	0.068697	0.120222
O3	O	0.988746	0.068680	-0.007451
O4	O	0.975447	0.068698	0.234611
O5	O	0.988728	-0.068813	-0.007459
O6	O	0.861049	-0.068796	0.120214
O7	O	1.103109	-0.068813	0.106930
Cu8	Cu	0.982077	-0.081358	0.113571
Cu9	Cu	0.982098	0.081243	0.113581
O10	O	0.975429	-0.068795	0.234602
C11	C	0.830083	-0.000047	0.119677
C12	C	0.737788	-0.000041	0.118057
C13	C	0.438724	0.074892	0.112826
C14	C	0.525445	0.074897	0.114343
C15	C	0.525445	-0.075006	0.114323
C16	C	0.438726	-0.075010	0.112800
C17	C	0.395367	-0.000059	0.112056
C18	C	0.568807	-0.000049	0.115096
C19	C	0.662835	-0.000044	0.116742
C20	C	0.301334	-0.000064	0.110409
N21	N	0.982068	-0.195724	0.113564
C22	C	1.038622	-0.238996	0.057053
C23	C	1.038626	-0.325543	0.057053
C24	C	0.982080	-0.368816	0.113567
C25	C	0.925521	-0.325538	0.170080
C26	C	0.925513	-0.238993	0.170076
C27	C	0.925549	-0.674567	0.170095
C28	C	0.925563	-0.761118	0.170096
C29	C	1.038662	-0.761116	0.057072
C30	C	1.038655	-0.674571	0.057068
C31	C	0.982093	-0.631301	0.113578
C32	C	0.982088	-0.537456	0.113577
C33	C	0.982088	-0.462659	0.113572
C34	C	1.134092	-0.000066	0.107474
C35	C	1.226387	-0.000067	0.109095
C36	C	0.988198	-0.000067	-0.038430
C37	C	0.986583	-0.000068	-0.130725
N38	N	0.982113	0.195608	0.113581
C39	C	1.058590	-0.000060	-0.352993
C40	C	1.057066	-0.000053	-0.439713
C41	C	0.905579	-0.000046	-0.419848
C42	C	0.907104	-0.000047	-0.333130
C43	C	0.983612	-0.000058	-0.299704
C44	C	0.980563	-0.000050	-0.473144
C45	C	0.978910	-0.000043	-0.567170
C46	C	0.985265	-0.000064	-0.205672
C47	C	0.975976	-0.000047	0.265581
C48	C	0.977592	-0.000040	0.357877
H49	H	0.403424	-0.136047	0.112172
H50	H	0.879496	-0.639343	0.216109
O51	O	0.396548	0.147674	0.112243
C52	C	0.336938	0.152152	0.183314
H53	H	0.356476	0.109624	0.234066
H54	H	0.332788	0.218442	0.207457
H55	H	0.273348	0.132012	0.165888
H56	H	0.846043	-0.000043	-0.289740
O57	O	0.567428	0.147778	0.115130
C58	C	0.510562	0.213926	0.114124
H59	H	0.445298	0.191948	0.139342
H60	H	0.530329	0.266346	0.154911
H61	H	0.510076	0.236972	0.047306
O62	O	1.132855	0.000048	-0.320423
C63	C	1.138281	0.071267	-0.270862
H64	H	1.072749	0.095006	-0.249244
H65	H	1.171410	0.055252	-0.214088
H66	H	1.175073	0.121131	-0.309178
H67	H	0.560758	-0.136028	0.114931
O68	O	1.093470	-0.197019	0.002024
C69	C	1.079974	-0.218229	-0.080270
H70	H	1.013408	-0.242017	-0.080677
H71	H	1.089551	-0.161337	-0.122019
H72	H	1.126050	-0.268480	-0.104660
O73	O	0.870545	-0.803028	0.225024
C74	C	0.820631	-0.746279	0.274912
H75	H	0.819698	-0.684591	0.240824
H76	H	0.754238	-0.771298	0.287562
H77	H	0.847594	-0.737059	0.336691
H78	H	1.084676	-0.360774	0.011037
O79	O	1.093614	-0.632664	0.002090
C80	C	1.143545	-0.689417	-0.047777
H81	H	1.109468	-0.751116	-0.048726
H82	H	1.156245	-0.664421	-0.114171
H83	H	1.205297	-0.698604	-0.020759
O84	O	0.870671	-0.367700	0.224947
C85	C	0.882791	-0.453367	0.212822
H86	H	0.948899	-0.465182	0.181774
H87	H	0.873525	-0.486246	0.275784
H88	H	0.835752	-0.477944	0.171106
O89	O	0.870548	-0.197084	0.225053
C90	C	0.820627	-0.253834	0.274922
H91	H	0.854717	-0.315521	0.275879
H92	H	0.807918	-0.228816	0.341313
H93	H	0.758879	-0.263055	0.247901
H94	H	1.084716	-0.796356	0.011056
H95	H	0.843288	-0.000038	-0.447074
O96	O	1.129977	-0.000094	-0.491359
C97	C	1.197827	-0.000082	-0.443257
H98	H	1.176705	-0.026114	-0.378534
H99	H	1.250356	-0.040002	-0.475265
H100	H	1.221287	0.065878	-0.437075
