data_functionalizedCrystal
_audit_creation_method	'MofGen! by Chris Wilmer'
_symmetry_space_group_name_H-M	'P1'
_symmetry_Int_Tables_number	1
_symmetry_cell_setting	triclinic
loop_
_symmetry_equiv_pos_as_xyz
  x,y,z
_cell_length_a	19.288840
_cell_length_b	23.532407
_cell_length_c	18.366186
_cell_angle_alpha	90.012254
_cell_angle_beta	89.983729
_cell_angle_gamma	97.012658
loop_
_atom_site_label
_atom_site_type_symbol
_atom_site_fract_x
_atom_site_fract_y
_atom_site_fract_z
O1	O	0.921145	-0.070977	-0.060681
O2	O	0.718852	-0.080576	-0.060657
O3	O	0.826099	0.007143	-0.060654
O4	O	0.813898	-0.158696	-0.060684
O5	O	0.826081	0.007147	0.060446
O6	O	0.718834	-0.080572	0.060443
O7	O	0.921127	-0.070973	0.060419
Zn8	Zn	0.819978	-0.075772	0.079658
Zn9	Zn	0.820001	-0.075777	-0.079896
O10	O	0.813880	-0.158692	0.060416
C11	C	0.692967	-0.080267	-0.000104
C12	C	0.615866	-0.079347	-0.000094
C13	C	0.579673	-0.078908	-0.066107
C14	C	0.507229	-0.078037	-0.066116
C15	C	0.470982	-0.077594	-0.000108
C16	C	0.507182	-0.078037	0.065914
C17	C	0.579624	-0.078914	0.065921
C18	C	0.361754	-0.042846	0.050460
C19	C	0.289314	-0.041966	0.050450
C20	C	0.247547	-0.074894	-0.000126
C21	C	0.278229	-0.108694	-0.050705
C22	C	0.350671	-0.109570	-0.050698
C23	C	0.392431	-0.076644	-0.000108
C24	C	0.132802	-0.073510	-0.066153
C25	C	0.060356	-0.072643	-0.066159
C26	C	0.060311	-0.072638	0.065872
C27	C	0.132755	-0.073511	0.065877
C28	C	0.168997	-0.073944	-0.000138
C29	C	0.825779	0.028362	-0.000101
C30	C	0.824845	0.091581	-0.000094
C31	C	0.882453	0.490568	-0.000129
C32	C	0.881585	0.549970	-0.000132
O33	O	0.934988	0.586608	-0.000164
N34	N	0.817827	0.572724	-0.000123
C35	C	0.754932	0.536072	-0.000118
O36	O	0.700622	0.560880	-0.000112
C37	C	0.755801	0.476671	-0.000120
C38	C	0.819563	0.453921	-0.000121
C39	C	0.946209	0.467818	-0.000131
C40	C	0.947077	0.408420	-0.000126
C41	C	0.884187	0.371773	-0.000119
C42	C	0.820430	0.394523	-0.000116
C43	C	0.692907	0.440021	-0.000120
C44	C	0.693781	0.380616	-0.000122
C45	C	0.757543	0.357866	-0.000124
C46	C	0.758408	0.298478	-0.000104
N47	N	0.822166	0.275725	-0.000113
C48	C	0.885056	0.312372	-0.000120
C49	C	0.753113	0.660818	-0.000116
C50	C	0.752244	0.720218	-0.000110
C51	C	0.878897	0.734112	-0.000125
C52	C	0.879765	0.674711	-0.000126
C53	C	0.816871	0.638065	-0.000125
C54	C	0.886873	0.187631	-0.000109
C55	C	0.887735	0.128228	-0.000101
C56	C	0.761082	0.114339	-0.000090
C57	C	0.760220	0.173737	-0.000094
C58	C	0.823121	0.210383	-0.000106
O59	O	0.705034	0.261806	-0.000075
O60	O	0.939358	0.287555	-0.000136
C61	C	0.947012	-0.071282	-0.000136
C62	C	1.024113	-0.072202	-0.000151
N63	N	0.819966	-0.075767	0.188549
C64	C	0.814200	0.820089	-0.000131
C65	C	0.815134	0.756870	-0.000121
N66	N	0.820018	-0.075777	-0.188787
C67	C	0.867471	-0.036945	0.226651
C68	C	0.867475	-0.036942	0.302879
C69	C	0.819982	-0.075772	0.341002
C70	C	0.772469	-0.114598	0.302891
C71	C	0.772461	-0.114596	0.226664
C72	C	0.810523	-0.127664	0.461753
C73	C	0.810536	-0.127667	0.537978
C74	C	0.820002	-0.075779	0.576109
C75	C	0.829469	-0.023886	0.538006
C76	C	0.829462	-0.023884	0.461779
C77	C	0.819985	-0.075779	0.423656
C78	C	0.867513	-0.036950	0.696866
C79	C	0.867513	-0.036947	0.773095
C80	C	0.772510	-0.114608	0.773106
C81	C	0.772507	-0.114606	0.696878
C82	C	0.820012	-0.075778	0.658763
H83	H	0.375650	-0.137093	-0.091880
N84	N	0.696847	0.076897	-0.000104
N85	N	0.654367	0.078866	-0.051157
H86	H	0.609000	0.052420	-0.051175
H87	H	0.609092	-0.079272	0.119678
H88	H	0.708300	0.192261	-0.000072
N89	N	0.943140	0.771552	-0.000122
N90	N	0.956774	0.806257	0.050924
H91	H	1.002144	0.832699	0.050929
H92	H	0.733777	-0.146211	0.195641
H93	H	0.733827	-0.146222	0.665853
H94	H	0.162224	-0.073865	0.119632
H95	H	0.931686	0.656193	-0.000128
H96	H	0.939659	0.109708	-0.000100
N97	N	0.257988	-0.007433	0.102111
N98	N	0.295284	0.021959	0.147270
H99	H	0.273162	0.046351	0.183757
N100	N	0.839130	0.029126	0.576934
N101	N	0.847577	0.075452	0.542906
H102	H	0.854401	0.112891	0.570400
H103	H	0.395756	-0.016031	0.091649
H104	H	0.906193	-0.005332	0.665831
H105	H	0.244223	-0.135509	-0.091887
H106	H	0.733798	-0.146213	0.333934
N107	N	1.012203	0.385176	-0.000142
N108	N	1.012982	0.332141	-0.000144
H109	H	1.058980	0.315728	-0.000157
N110	N	0.169816	-0.073954	-0.133588
N111	N	0.137488	-0.073566	-0.192527
H112	H	0.163627	-0.073878	-0.240154
H113	H	0.997425	0.497651	-0.000140
N114	N	0.951123	0.225058	-0.000101
N115	N	0.964763	0.259759	0.050948
H116	H	1.010140	0.286192	0.050960
H117	H	0.906150	-0.005327	0.195619
N118	N	0.023295	-0.072202	0.133301
N119	N	-0.023816	-0.111855	0.148017
H120	H	-0.049962	-0.111552	0.195641
N121	N	0.023393	-0.072202	-0.133601
N122	N	0.055763	-0.072592	-0.192533
H123	H	0.029658	-0.072282	-0.240165
H124	H	0.700323	0.738735	-0.000096
N125	N	0.470260	-0.077588	-0.133556
N126	N	0.502627	-0.077976	-0.192490
H127	H	0.476520	-0.077657	-0.240121
N128	N	0.470149	-0.077591	0.133333
N129	N	0.405469	-0.076809	0.133319
H130	H	0.379313	-0.076497	0.180936
N131	N	0.688858	0.623395	-0.000112
N132	N	0.631940	0.643724	-0.000106
H133	H	0.586559	0.617297	-0.000105
N134	N	0.916004	0.002722	0.341798
N135	N	0.958411	0.037388	0.307758
H136	H	0.992686	0.065401	0.335242
H137	H	0.640985	0.458533	-0.000123
N138	N	0.629528	0.343192	-0.000130
N139	N	0.572608	0.363517	-0.000132
H140	H	0.527228	0.337088	-0.000138
N141	N	0.839132	0.029124	0.422869
N142	N	0.847585	0.075451	0.456915
H143	H	0.854412	0.112889	0.429435
H144	H	0.906194	-0.005330	0.804118
N145	N	0.723994	-0.154264	0.812049
N146	N	0.724002	-0.154258	0.880108
H147	H	0.689734	-0.182264	0.907616
H148	H	0.802831	-0.169922	0.568996
N149	N	0.800872	-0.180673	0.422813
N150	N	0.842968	-0.216517	0.431300
H151	H	0.836157	-0.253953	0.403798
N152	N	0.616681	-0.079351	-0.133544
N153	N	0.584352	-0.078959	-0.192481
H154	H	0.610489	-0.079273	-0.240109
