data_functionalizedCrystal
_audit_creation_method	'MofGen! by Chris Wilmer'
_symmetry_space_group_name_H-M	'P1'
_symmetry_Int_Tables_number	1
_symmetry_cell_setting	triclinic
loop_
_symmetry_equiv_pos_as_xyz
  x,y,z
_cell_length_a	19.077241
_cell_length_b	19.077396
_cell_length_c	19.077271
_cell_angle_alpha	94.526463
_cell_angle_beta	89.928553
_cell_angle_gamma	89.927536
loop_
_atom_site_label
_atom_site_type_symbol
_atom_site_fract_x
_atom_site_fract_y
_atom_site_fract_z
Zn1	Zn	-1.067464	0.220067	-0.432117
Zn2	Zn	-0.817464	0.470067	-0.182117
Zn3	Zn	-0.567464	0.720067	0.067883
Zn4	Zn	-0.317464	0.970067	0.317883
Zn5	Zn	-1.077196	0.342286	-0.309912
Zn6	Zn	-0.827196	0.592286	-0.059912
Zn7	Zn	-0.577196	0.842286	0.190088
Zn8	Zn	-0.327196	1.092286	0.440088
Zn9	Zn	-0.955073	0.229517	-0.309529
Zn10	Zn	-0.705073	0.479517	-0.059529
Zn11	Zn	-0.455073	0.729517	0.190471
Zn12	Zn	-0.205073	0.979517	0.440471
Zn13	Zn	-0.955030	0.342613	-0.422637
Zn14	Zn	-0.705030	0.592613	-0.172637
Zn15	Zn	-0.455030	0.842613	0.077363
Zn16	Zn	-0.205030	1.092613	0.327363
O17	O	-1.013691	0.283621	-0.368549
O18	O	-0.763691	0.533621	-0.118549
O19	O	-0.513691	0.783621	0.131451
O20	O	-0.263691	1.033621	0.381451
O21	O	-1.166918	0.232187	-0.420034
O22	O	-0.916918	0.482187	-0.170034
O23	O	-0.666918	0.732187	0.079966
O24	O	-0.416918	0.982187	0.329966
O25	O	-1.065087	0.331145	-0.211382
O26	O	-0.815087	0.581145	0.038618
O27	O	-0.565087	0.831145	0.288618
O28	O	-0.315087	1.081145	0.538618
O29	O	-0.965927	0.129784	-0.329598
O30	O	-0.715927	0.379784	-0.079598
O31	O	-0.465927	0.629784	0.170402
O32	O	-0.215927	0.879784	0.420402
O33	O	-1.174068	0.321981	-0.330250
O34	O	-0.924068	0.571981	-0.080250
O35	O	-0.674068	0.821981	0.169750
O36	O	-0.424068	1.071981	0.419750
O37	O	-1.048500	0.122840	-0.419663
O38	O	-0.798500	0.372840	-0.169663
O39	O	-0.548500	0.622840	0.080337
O40	O	-0.298500	0.872840	0.330337
O41	O	-0.975363	0.248295	-0.211101
O42	O	-0.725363	0.498295	0.038899
O43	O	-0.475363	0.748295	0.288899
O44	O	-0.225363	0.998295	0.538899
O45	O	-0.856904	0.248612	-0.320406
O46	O	-0.606904	0.498612	-0.070406
O47	O	-0.356904	0.748612	0.179594
O48	O	-0.106904	0.998612	0.429594
O49	O	-0.965854	0.322538	-0.522374
O50	O	-0.715854	0.572538	-0.272374
O51	O	-0.465854	0.822538	-0.022374
O52	O	-0.215854	1.072538	0.227626
O53	O	-0.856873	0.331702	-0.403505
O54	O	-0.606873	0.581702	-0.153505
O55	O	-0.356873	0.831702	0.096495
O56	O	-0.106873	1.081702	0.346495
O57	O	-1.048459	0.232504	-0.529339
O58	O	-0.798459	0.482504	-0.279339
O59	O	-0.548459	0.732504	-0.029339
O60	O	-0.298459	0.982504	0.220661
O61	O	-1.065046	0.440809	-0.321058
O62	O	-0.815046	0.690809	-0.071058
O63	O	-0.565046	0.940809	0.178942
O64	O	-0.315046	1.190809	0.428942
O65	O	-0.975291	0.441049	-0.403876
O66	O	-0.725291	0.691049	-0.153876
O67	O	-0.475291	0.941049	0.096124
O68	O	-0.225291	1.191049	0.346124
C69	C	-0.831436	0.291219	-0.360886
C70	C	-0.581436	0.541219	-0.110886
C71	C	-0.331436	0.791219	0.139114
C72	C	-0.081436	1.041219	0.389114
C73	C	-0.753466	0.294485	-0.357623
C74	C	-0.503466	0.544485	-0.107623
C75	C	-0.253466	0.794485	0.142377
C76	C	-0.003466	1.044485	0.392377
C77	C	-0.713114	0.249338	-0.402902
C78	C	-0.463114	0.499338	-0.152902
C79	C	-0.213114	0.749338	0.097098
C80	C	0.036886	0.999338	0.347098
C81	C	-0.639853	0.252405	-0.399831
C82	C	-0.389853	0.502405	-0.149831
C83	C	-0.139853	0.752405	0.100169
C84	C	0.110147	1.002405	0.350169
C85	C	-0.606946	0.300622	-0.351484
C86	C	-0.356946	0.550622	-0.101484
C87	C	-0.106946	0.800622	0.148516
C88	C	0.143054	1.050622	0.398516
C89	C	-0.647304	0.345771	-0.306200
C90	C	-0.397304	0.595771	-0.056200
C91	C	-0.147304	0.845771	0.193800
C92	C	0.102696	1.095771	0.443800
C93	C	-0.720563	0.342701	-0.309268
C94	C	-0.470563	0.592701	-0.059268
C95	C	-0.220563	0.842701	0.190732
C96	C	0.029437	1.092701	0.440732
C97	C	-0.388244	0.314807	-0.337284
C98	C	-0.138244	0.564807	-0.087284
C99	C	0.111756	0.814807	0.162716
C100	C	0.361756	1.064807	0.412716
C101	C	-0.314980	0.317876	-0.334220
C102	C	-0.064980	0.567876	-0.084220
C103	C	0.185020	0.817876	0.165780
C104	C	0.435020	1.067876	0.415780
C105	C	-0.307534	0.224508	-0.427851
C106	C	-0.057534	0.474508	-0.177851
C107	C	0.192466	0.724508	0.072149
C108	C	0.442466	0.974508	0.322149
C109	C	-0.380795	0.221444	-0.430918
C110	C	-0.130795	0.471444	-0.180918
C111	C	0.119205	0.721444	0.069082
C112	C	0.369205	0.971444	0.319082
C113	C	-0.421146	0.266591	-0.385632
C114	C	-0.171146	0.516591	-0.135632
C115	C	0.078854	0.766591	0.114368
C116	C	0.328854	1.016591	0.364368
N117	N	-0.532062	0.303759	-0.348345
N118	N	-0.282062	0.553759	-0.098345
N119	N	-0.032062	0.803759	0.151655
N120	N	0.217938	1.053759	0.401655
N121	N	-0.496029	0.263450	-0.388768
N122	N	-0.246029	0.513450	-0.138768
N123	N	0.003971	0.763450	0.111232
N124	N	0.253971	1.013450	0.361232
C125	C	-1.021238	0.466462	-0.361496
C126	C	-0.771238	0.716462	-0.111496
C127	C	-0.521238	0.966462	0.138504
C128	C	-0.271238	1.216462	0.388504
C129	C	-1.024530	0.544679	-0.358505
C130	C	-0.774530	0.794679	-0.108505
C131	C	-0.524530	1.044679	0.141495
C132	C	-0.274530	1.294679	0.391495
C133	C	-0.196658	0.275990	-0.376237
C134	C	0.053342	0.525990	-0.126237
C135	C	0.303342	0.775990	0.123763
C136	C	0.553342	1.025990	0.373763
C137	C	-0.274627	0.272728	-0.379499
C138	C	-0.024627	0.522728	-0.129499
C139	C	0.225373	0.772728	0.120501
C140	C	0.475373	1.022728	0.370501
C141	C	-1.048095	0.984941	-0.337025
C142	C	-0.798095	1.234941	-0.087025
C143	C	-0.548095	1.484941	0.162975
C144	C	-0.298095	1.734941	0.412975
C145	C	-1.044996	0.911448	-0.339837
C146	C	-0.794996	1.161448	-0.089837
C147	C	-0.544996	1.411448	0.160163
C148	C	-0.294996	1.661448	0.410163
C149	C	-0.996686	0.874858	-0.384326
C150	C	-0.746686	1.124858	-0.134326
C151	C	-0.496686	1.374858	0.115674
C152	C	-0.246686	1.624858	0.365674
C153	C	-0.951467	0.911764	-0.426002
C154	C	-0.701467	1.161764	-0.176002
C155	C	-0.451467	1.411764	0.073998
C156	C	-0.201467	1.661764	0.323998
C157	C	-0.954563	0.985256	-0.423186
C158	C	-0.704563	1.235256	-0.173186
C159	C	-0.454563	1.485256	0.076814
C160	C	-0.204563	1.735256	0.326814
C161	C	-0.982408	0.655077	-0.397364
C162	C	-0.732408	0.905077	-0.147364
C163	C	-0.482408	1.155077	0.102636
C164	C	-0.232408	1.405077	0.352636
C165	C	-0.979316	0.581580	-0.400178
C166	C	-0.729316	0.831580	-0.150178
C167	C	-0.479316	1.081580	0.099822
C168	C	-0.229316	1.331580	0.349822
C169	C	-1.072845	0.581270	-0.314012
C170	C	-0.822845	0.831270	-0.064012
C171	C	-0.572845	1.081270	0.185988
C172	C	-0.322845	1.331270	0.435988
C173	C	-1.075940	0.654763	-0.311204
C174	C	-0.825940	0.904763	-0.061204
C175	C	-0.575940	1.154763	0.188796
C176	C	-0.325940	1.404763	0.438796
C177	C	-1.030718	0.691663	-0.352876
C178	C	-0.780718	0.941663	-0.102876
C179	C	-0.530718	1.191663	0.147124
C180	C	-0.280718	1.441663	0.397124
N181	N	-0.993518	0.799736	-0.387203
N182	N	-0.743518	1.049736	-0.137203
N183	N	-0.493518	1.299736	0.112797
N184	N	-0.243518	1.549736	0.362797
N185	N	-1.033883	0.766784	-0.349995
N186	N	-0.783883	1.016784	-0.099995
N187	N	-0.533883	1.266784	0.150005
N188	N	-0.283883	1.516784	0.400005
C189	C	-1.006066	0.276504	-0.552105
C190	C	-0.756066	0.526504	-0.302105
C191	C	-0.506066	0.776504	-0.052105
C192	C	-0.256066	1.026504	0.197895
C193	C	-1.002817	0.273471	-0.630326
C194	C	-0.752817	0.523471	-0.380326
C195	C	-0.502817	0.773471	-0.130326
C196	C	-0.252817	1.023471	0.119674
C197	C	-1.006125	1.100063	-0.375653
C198	C	-0.756125	1.350063	-0.125653
C199	C	-0.506125	1.600063	0.124347
C200	C	-0.256125	1.850063	0.374347
C201	C	-1.002882	1.021842	-0.378699
C202	C	-0.752882	1.271842	-0.128699
C203	C	-0.502882	1.521842	0.121301
C204	C	-0.252882	1.771842	0.371301
C205	C	-0.979515	0.251774	-1.070611
C206	C	-0.729515	0.501774	-0.820611
C207	C	-0.479515	0.751774	-0.570611
C208	C	-0.229515	1.001774	-0.320611
C209	C	-0.982572	0.254621	-0.997114
C210	C	-0.732572	0.504621	-0.747114
C211	C	-0.482572	0.754621	-0.497114
C212	C	-0.232572	1.004621	-0.247114
C213	C	-1.030810	0.299184	-0.960511
C214	C	-0.780810	0.549184	-0.710511
C215	C	-0.530810	0.799184	-0.460511
C216	C	-0.280810	1.049184	-0.210511
C217	C	-1.076001	0.340898	-0.997409
C218	C	-0.826001	0.590898	-0.747409
C219	C	-0.576001	0.840898	-0.497409
C220	C	-0.326001	1.090898	-0.247409
C221	C	-1.072947	0.338047	-1.070904
C222	C	-0.822947	0.588047	-0.820904
C223	C	-0.572947	0.838047	-0.570904
C224	C	-0.322947	1.088047	-0.320904
C225	C	-1.044954	0.312333	-0.740719
C226	C	-0.794954	0.562333	-0.490719
C227	C	-0.544954	0.812333	-0.240719
C228	C	-0.294954	1.062333	0.009281
C229	C	-1.048002	0.315183	-0.667218
C230	C	-0.798002	0.565183	-0.417218
C231	C	-0.548002	0.815183	-0.167218
C232	C	-0.298002	1.065183	0.082782
C233	C	-0.954574	0.228905	-0.666929
C234	C	-0.704574	0.478905	-0.416929
C235	C	-0.454574	0.728905	-0.166929
C236	C	-0.204574	0.978905	0.083071
C237	C	-0.951522	0.226061	-0.740426
C238	C	-0.701522	0.476061	-0.490426
C239	C	-0.451522	0.726061	-0.240426
C240	C	-0.201522	0.976061	0.009574
C241	C	-0.996715	0.267772	-0.777317
C242	C	-0.746715	0.517772	-0.527317
C243	C	-0.496715	0.767772	-0.277317
C244	C	-0.246715	1.017772	-0.027317
N245	N	-1.033934	0.302097	-0.885386
N246	N	-0.783934	0.552097	-0.635386
N247	N	-0.533934	0.802097	-0.385386
N248	N	-0.283934	1.052097	-0.135386
N249	N	-0.993594	0.264855	-0.852441
N250	N	-0.743594	0.514855	-0.602441
N251	N	-0.493594	0.764855	-0.352441
N252	N	-0.243594	1.014855	-0.102441
C253	C	-1.021324	0.290657	-0.185710
C254	C	-0.771324	0.540657	0.064290
C255	C	-0.521324	0.790657	0.314290
C256	C	-0.271324	1.040657	0.564290
C257	C	-1.024701	0.293486	-0.107503
C258	C	-0.774701	0.543486	0.142497
C259	C	-0.524701	0.793486	0.392497
C260	C	-0.274701	1.043486	0.642497
H261	H	-0.274673	0.187751	-0.464720
H262	H	-0.024673	0.437751	-0.214720
H263	H	0.225327	0.687751	0.035280
H264	H	0.475327	0.937751	0.285280
Br265	Br	-0.913749	0.531921	-0.460563
Br266	Br	-0.663749	0.781921	-0.210563
Br267	Br	-0.413749	1.031921	0.039437
Br268	Br	-0.163749	1.281921	0.289437
H269	H	-0.945580	0.685113	-0.431291
H270	H	-0.695580	0.935113	-0.181291
H271	H	-0.445580	1.185113	0.068709
H272	H	-0.195580	1.435113	0.318709
Br273	Br	-0.885900	0.862106	-0.486380
Br274	Br	-0.635900	1.112106	-0.236380
Br275	Br	-0.385900	1.362106	0.013620
Br276	Br	-0.135900	1.612106	0.263620
Br277	Br	-0.893253	0.172291	-0.616859
Br278	Br	-0.643253	0.422291	-0.366859
Br279	Br	-0.393253	0.672291	-0.116859
Br280	Br	-0.143253	0.922291	0.133141
H281	H	-1.087300	0.351458	-0.637419
H282	H	-0.837300	0.601458	-0.387419
H283	H	-0.587300	0.851458	-0.137419
H284	H	-0.337300	1.101458	0.112581
H285	H	-1.115278	0.684550	-0.274974
H286	H	-0.865278	0.934550	-0.024974
H287	H	-0.615278	1.184550	0.225026
H288	H	-0.365278	1.434550	0.475026
H289	H	-0.421089	0.351570	-0.300409
H290	H	-0.171089	0.601570	-0.050409
H291	H	0.078911	0.851570	0.199591
H292	H	0.328911	1.101570	0.449591
H293	H	-1.081812	0.881404	-0.305902
H294	H	-0.831812	1.131404	-0.055902
H295	H	-0.581812	1.381404	0.194098
H296	H	-0.331812	1.631404	0.444098
H297	H	-1.081751	0.346299	-0.770747
H298	H	-0.831751	0.596299	-0.520747
H299	H	-0.581751	0.846299	-0.270747
H300	H	-0.331751	1.096299	-0.020747
Br301	Br	-1.141476	0.401369	-0.947735
Br302	Br	-0.891476	0.651369	-0.697735
Br303	Br	-0.641476	0.901369	-0.447735
Br304	Br	-0.391476	1.151369	-0.197735
H305	H	-0.753417	0.379464	-0.272397
H306	H	-0.503417	0.629464	-0.022397
H307	H	-0.253417	0.879464	0.227603
H308	H	-0.003417	1.129464	0.477603
H309	H	-0.917749	1.015300	-0.457125
H310	H	-0.667749	1.265300	-0.207125
H311	H	-0.417749	1.515300	0.042875
H312	H	-0.167749	1.765300	0.292875
Br313	Br	-0.914044	0.191294	-1.120279
Br314	Br	-0.664044	0.441294	-0.870279
Br315	Br	-0.414044	0.691294	-0.620279
Br316	Br	-0.164044	0.941294	-0.370279
Br317	Br	-1.134279	0.394652	-1.120974
Br318	Br	-0.884279	0.644652	-0.870974
Br319	Br	-0.634279	0.894652	-0.620974
Br320	Br	-0.384279	1.144652	-0.370974
Br321	Br	-0.425450	0.156010	-0.496541
Br322	Br	-0.175450	0.406010	-0.246541
Br323	Br	0.074550	0.656010	0.003459
Br324	Br	0.324550	0.906010	0.253459
Br325	Br	-0.886007	0.165630	-0.790092
Br326	Br	-0.636007	0.415630	-0.540092
Br327	Br	-0.386007	0.665630	-0.290092
Br328	Br	-0.136007	0.915630	-0.040092
Br329	Br	-0.757766	0.183902	-0.468525
Br330	Br	-0.507766	0.433902	-0.218525
Br331	Br	-0.257766	0.683902	0.031475
Br332	Br	-0.007766	0.933902	0.281475
H333	H	-0.620505	0.385028	-0.266831
H334	H	-0.370505	0.635028	-0.016831
H335	H	-0.120505	0.885028	0.233169
H336	H	0.129495	1.135028	0.483169
Br337	Br	-1.113668	1.034592	-0.276649
Br338	Br	-0.863668	1.284592	-0.026649
Br339	Br	-0.613668	1.534592	0.223351
Br340	Br	-0.363668	1.784592	0.473351
H341	H	-0.607002	0.215642	-0.436703
H342	H	-0.357002	0.465642	-0.186703
H343	H	-0.107002	0.715642	0.063297
H344	H	0.142998	0.965642	0.313297
Br345	Br	-1.134212	0.531188	-0.257459
Br346	Br	-0.884212	0.781188	-0.007459
Br347	Br	-0.634212	1.031188	0.242541
Br348	Br	-0.384212	1.281188	0.492541
H349	H	-0.945776	0.220656	-0.967080
H350	H	-0.695776	0.470656	-0.717080
H351	H	-0.445776	0.720656	-0.467080
H352	H	-0.195776	0.970656	-0.217080
H353	H	-0.288189	0.357144	-0.294850
H354	H	-0.038189	0.607144	-0.044850
H355	H	0.211811	0.857144	0.205150
H356	H	0.461811	1.107144	0.455150
