data_functionalizedCrystal
_audit_creation_method	'MofGen! by Chris Wilmer'
_symmetry_space_group_name_H-M	'P1'
_symmetry_Int_Tables_number	1
_symmetry_cell_setting	triclinic
loop_
_symmetry_equiv_pos_as_xyz
  x,y,z
_cell_length_a	16.959455
_cell_length_b	16.959454
_cell_length_c	16.959447
_cell_angle_alpha	89.974219
_cell_angle_beta	90.014701
_cell_angle_gamma	89.977637
loop_
_atom_site_label
_atom_site_type_symbol
_atom_site_fract_x
_atom_site_fract_y
_atom_site_fract_z
Zn1	Zn	1.208368	0.314678	0.446942
Zn2	Zn	1.708368	0.814678	0.946942
Zn3	Zn	1.208284	0.446870	0.314774
Zn4	Zn	1.708284	0.946870	0.814774
Zn5	Zn	1.076197	0.314709	0.314778
Zn6	Zn	1.576197	0.814709	0.814778
Zn7	Zn	1.076155	0.446817	0.446911
Zn8	Zn	1.576155	0.946817	0.946911
O9	O	1.142251	0.380769	0.380851
O10	O	1.642251	0.880769	0.880851
O11	O	1.318968	0.332223	0.429420
O12	O	1.818968	0.832223	0.929420
O13	O	1.190745	0.429374	0.204163
O14	O	1.690745	0.929374	0.704163
O15	O	1.093782	0.204094	0.332325
O16	O	1.593782	0.704094	0.832325
O17	O	1.318906	0.429344	0.332317
O18	O	1.818906	0.929344	0.832317
O19	O	1.190888	0.204071	0.429425
O20	O	1.690888	0.704071	0.929425
O21	O	1.093701	0.332275	0.204167
O22	O	1.593701	0.832275	0.704167
O23	O	0.965580	0.332223	0.332295
O24	O	1.465580	0.832223	0.832295
O25	O	1.093711	0.429253	0.557526
O26	O	1.593711	0.929253	1.057526
O27	O	0.965549	0.429283	0.429373
O28	O	1.465549	0.929283	0.929373
O29	O	1.190847	0.332171	0.557549
O30	O	1.690847	0.832171	1.057549
O31	O	1.190704	0.557474	0.332287
O32	O	1.690704	1.057474	0.832287
O33	O	1.093629	0.557435	0.429368
O34	O	1.593629	1.057435	0.929368
C35	C	0.936885	0.380751	0.380832
C36	C	1.436885	0.880751	0.880832
C37	C	0.849028	0.380763	0.380842
C38	C	1.349028	0.880763	0.880842
C39	C	0.807720	0.431258	0.330213
C40	C	1.307720	0.931258	0.830213
C41	C	0.807782	0.330275	0.431477
C42	C	1.307782	0.830275	0.931477
C43	C	0.725237	0.330281	0.431487
C44	C	1.225237	0.830281	0.931487
C45	C	0.683929	0.380775	0.380858
C46	C	1.183929	0.880775	0.880858
C47	C	0.725166	0.431264	0.330219
C48	C	1.225166	0.931264	0.830219
C49	C	0.683992	0.279788	0.482119
C50	C	1.183992	0.779788	0.982119
C51	C	0.601442	0.279792	0.482130
C52	C	1.101442	0.779792	0.982130
C53	C	0.560132	0.330291	0.431504
C54	C	1.060132	0.830291	0.931504
C55	C	0.601375	0.380782	0.380864
C56	C	1.101375	0.880782	0.880864
C57	C	0.560067	0.431276	0.330235
C58	C	1.060067	0.931276	0.830235
C59	C	0.601308	0.481772	0.279598
C60	C	1.101308	0.981772	0.779598
C61	C	0.683857	0.481763	0.279593
C62	C	1.183857	0.981763	0.779593
C63	C	0.477584	0.330299	0.431509
C64	C	0.977584	0.830299	0.931509
C65	C	0.477513	0.431282	0.330241
C66	C	0.977513	0.931282	0.830241
C67	C	1.142174	0.586135	0.380841
C68	C	1.642174	1.086135	0.880841
C69	C	1.142214	0.673991	0.380863
C70	C	1.642214	1.173991	0.880863
C71	C	1.091744	1.045476	0.431407
C72	C	1.591744	1.545476	0.931407
C73	C	1.192911	1.045457	0.330398
C74	C	1.692911	1.545457	0.830398
C75	C	1.192888	0.962911	0.330389
C76	C	1.692888	1.462911	0.830389
C77	C	1.142291	0.921644	0.380889
C78	C	1.642291	1.421644	0.880889
C79	C	1.091717	0.962923	0.431398
C80	C	1.591717	1.462923	0.931398
C81	C	1.243455	0.921627	0.279876
C82	C	1.743455	1.421627	0.779876
C83	C	1.243433	0.839076	0.279865
C84	C	1.743433	1.339076	0.779865
C85	C	1.192839	0.797807	0.330369
C86	C	1.692839	1.297807	0.830369
C87	C	1.142264	0.839091	0.380881
C88	C	1.642264	1.339091	0.880881
C89	C	1.091667	0.797824	0.431381
C90	C	1.591667	1.297824	0.931381
C91	C	1.041096	0.839106	0.481897
C92	C	1.541096	1.339106	0.981897
C93	C	1.041124	0.921654	0.481903
C94	C	1.541124	1.421654	0.981903
C95	C	1.192811	0.715259	0.330363
C96	C	1.692811	1.215259	0.830363
C97	C	1.091640	0.715270	0.431372
C98	C	1.591640	1.215270	0.931372
C99	C	1.348419	0.380786	0.380871
C100	C	1.848419	0.880786	0.880871
C101	C	1.436276	0.380794	0.380880
C102	C	1.936276	0.880794	0.880880
C103	C	1.142284	0.380703	0.587019
C104	C	1.642284	0.880703	1.087019
C105	C	1.142298	0.380675	0.674876
C106	C	1.642298	0.880675	1.174876
C107	C	1.142337	1.174600	0.380883
C108	C	1.642337	1.674600	0.880883
C109	C	1.142341	1.086744	0.380907
C110	C	1.642341	1.586744	0.880907
C111	C	1.142264	0.380777	0.175485
C112	C	1.642264	0.880777	0.675485
C113	C	1.142403	0.380582	0.087629
C114	C	1.642403	0.880582	0.587629
C115	C	1.091818	0.431138	1.046343
C116	C	1.591818	0.931138	1.546343
C117	C	1.192967	0.330046	1.046361
C118	C	1.692967	0.830046	1.546361
C119	C	1.192946	0.330062	0.963815
C120	C	1.692946	0.830062	1.463815
C121	C	1.142361	0.380619	0.922529
C122	C	1.642361	0.880619	1.422529
C123	C	1.091797	0.431158	0.963789
C124	C	1.591797	0.931158	1.463789
C125	C	1.243515	0.279530	0.922549
C126	C	1.743515	0.779530	1.422549
C127	C	1.243496	0.279545	0.839998
C128	C	1.743496	0.779545	1.339998
C129	C	1.192906	0.330098	0.798711
C130	C	1.692906	0.830098	1.298711
C131	C	1.142340	0.380639	0.839976
C132	C	1.642340	0.880639	1.339976
C133	C	1.091755	0.431195	0.798690
C134	C	1.591755	0.931195	1.298690
C135	C	1.041183	0.481732	0.839953
C136	C	1.541183	0.981732	1.339953
C137	C	1.041207	0.481711	0.922502
C138	C	1.541207	0.981711	1.422502
C139	C	1.192883	0.330119	0.716162
C140	C	1.692883	0.830119	1.216162
C141	C	1.091734	0.431215	0.716136
C142	C	1.591734	0.931215	1.216136
H143	H	0.567665	0.522881	0.238373
H144	H	1.067665	1.022881	0.738373
H145	H	0.444008	0.289181	0.472731
H146	H	0.944008	0.789181	0.972731
H147	H	1.050533	0.472377	0.682527
H148	H	1.550533	0.972377	1.182527
C149	C	0.985491	0.967071	0.537456
C150	C	1.485491	1.467071	1.037456
N151	N	0.943585	1.001282	0.579295
N152	N	1.443585	1.501282	1.079295
C153	C	1.299057	0.793673	0.224292
C154	C	1.799057	1.293673	0.724292
N155	N	1.340953	0.759475	0.182433
N156	N	1.840953	1.259475	0.682433
C157	C	1.248437	0.669852	0.274800
C158	C	1.748437	1.169852	0.774800
N159	N	1.290340	0.635653	0.232950
N160	N	1.790340	1.135653	0.732950
C161	C	0.985440	0.793701	0.537444
C162	C	1.485440	1.293701	1.037444
N163	N	0.943522	0.759499	0.579282
N164	N	1.443522	1.259499	1.079282
C165	C	1.299117	0.223945	0.794616
C166	C	1.799117	0.723945	1.294616
N167	N	1.341007	0.182063	0.760433
N168	N	1.841007	0.682063	1.260433
H169	H	1.050641	0.472282	1.079943
H170	H	1.550641	0.972282	1.579943
H171	H	1.234155	0.288890	1.079981
H172	H	1.734155	0.788890	1.579981
H173	H	1.050441	0.681675	0.472498
H174	H	1.550441	1.181675	0.972498
H175	H	1.000000	0.522898	0.806327
H176	H	1.500000	1.022898	1.306327
C177	C	1.299146	0.223914	0.967968
C178	C	1.799146	0.723914	1.467968
N179	N	1.341044	0.182016	1.002182
N180	N	1.841044	0.682016	1.502182
H181	H	1.050572	1.079092	0.472538
H182	H	1.550572	1.579092	0.972538
H183	H	1.234100	1.079062	0.289279
H184	H	1.734100	1.579062	0.789279
H185	H	1.284642	0.955232	0.238756
H186	H	1.784642	1.455232	0.738756
H187	H	1.000037	0.522858	0.956106
H188	H	1.500037	1.022858	1.456106
H189	H	0.443886	0.472405	0.289015
H190	H	0.943886	0.972405	0.789015
C191	C	0.729228	0.537293	0.223888
C192	C	1.229228	1.037293	0.723888
N193	N	0.763406	0.579114	0.181927
N194	N	1.263406	1.079114	0.681927
H195	H	1.234059	0.288975	0.682569
H196	H	1.734059	0.788975	1.182569
H197	H	0.841302	0.472372	0.288988
H198	H	1.341302	0.972372	0.788988
H199	H	0.717632	0.238675	0.523335
H200	H	1.217632	0.738675	1.023335
C201	C	0.556084	0.224252	0.537836
C202	C	1.056084	0.724252	1.037836
N203	N	0.521919	0.182421	0.579798
N204	N	1.021919	0.682421	1.079798
C205	C	0.853224	0.274729	0.487162
C206	C	1.353224	0.774729	0.987162
N207	N	0.887454	0.232891	0.529106
N208	N	1.387454	0.732891	1.029106
