data_functionalizedCrystal
_audit_creation_method	'MofGen! by Chris Wilmer'
_symmetry_space_group_name_H-M	'P1'
_symmetry_Int_Tables_number	1
_symmetry_cell_setting	triclinic
loop_
_symmetry_equiv_pos_as_xyz
  x,y,z
_cell_length_a	9.065218
_cell_length_b	9.065218
_cell_length_c	9.730223
_cell_angle_alpha	90.000469
_cell_angle_beta	89.999690
_cell_angle_gamma	85.015885
loop_
_atom_site_label
_atom_site_type_symbol
_atom_site_fract_x
_atom_site_fract_y
_atom_site_fract_z
O1	O	1.960393	0.216350	-0.114287
O2	O	1.531108	0.234097	-0.114289
O3	O	1.754624	0.010581	-0.114285
O4	O	1.736877	0.439866	-0.114291
O5	O	1.754621	0.010587	0.114295
O6	O	1.531106	0.234103	0.114291
O7	O	1.960390	0.216356	0.114293
Zn8	Zn	1.745748	0.225230	0.150584
Zn9	Zn	1.745751	0.225223	-0.150580
O10	O	1.736875	0.439872	0.114289
C11	C	1.476120	0.232394	0.000001
C12	C	1.312277	0.227294	0.000000
C13	C	1.752917	-0.044403	0.000003
C14	C	1.747817	-0.208245	-0.000004
C15	C	2.015378	0.218059	-0.000000
C16	C	2.179221	0.223158	-0.000008
C17	C	1.738582	0.494855	-0.000002
C18	C	1.743681	0.658698	-0.000004
N19	N	1.745756	0.225234	0.356120
N20	N	1.745754	0.225207	-0.356116
C21	C	1.844755	0.126296	0.428048
C22	C	1.844751	0.126278	0.571931
C23	C	1.646745	0.324150	0.571946
C24	C	1.646743	0.324160	0.428066
C25	C	1.959076	0.012060	0.428040
C26	C	1.959072	0.012042	0.571923
H27	H	1.566118	0.404710	0.369503
O28	O	1.550715	0.420192	0.642049
C29	C	1.571912	0.398940	0.784467
H30	H	1.688486	0.345430	0.804116
H31	H	1.487415	0.323759	0.825287
C32	C	1.408556	0.615291	0.834217
C33	C	1.551739	0.549580	0.858352
H34	H	1.396106	0.708211	0.879796
H35	H	1.394270	0.629607	0.738269
H36	H	1.338158	0.552625	0.868234
H37	H	1.622134	0.612237	0.824320
H38	H	1.566037	0.535278	0.954297
H39	H	2.072575	0.037850	0.610974
H40	H	1.933357	-0.101467	0.388988
H41	H	1.922726	-0.095296	0.616540
H42	H	2.066369	0.048495	0.383414
