data_functionalizedCrystal
_audit_creation_method	'MofGen! by Chris Wilmer'
_symmetry_space_group_name_H-M	'P1'
_symmetry_Int_Tables_number	1
_symmetry_cell_setting	triclinic
loop_
_symmetry_equiv_pos_as_xyz
  x,y,z
_cell_length_a	10.686220
_cell_length_b	16.625545
_cell_length_c	10.686551
_cell_angle_alpha	85.592418
_cell_angle_beta	89.691918
_cell_angle_gamma	85.594161
loop_
_atom_site_label
_atom_site_type_symbol
_atom_site_fract_x
_atom_site_fract_y
_atom_site_fract_z
Zn1	Zn	1.972238	0.196578	0.562376
Zn2	Zn	2.305571	0.529911	0.895709
Zn3	Zn	2.638905	0.863245	1.229042
Zn4	Zn	1.955972	0.342520	0.352610
Zn5	Zn	2.289305	0.675853	0.685943
Zn6	Zn	2.622639	1.009187	1.019276
Zn7	Zn	1.746351	0.217205	0.368692
Zn8	Zn	2.079685	0.550538	0.702026
Zn9	Zn	2.413018	0.883871	1.035359
Zn10	Zn	1.762403	0.340886	0.578387
Zn11	Zn	2.095736	0.674219	0.911721
Zn12	Zn	2.429069	1.007553	1.245054
O13	O	1.859241	0.274297	0.465516
O14	O	2.192574	0.607630	0.798850
O15	O	2.525908	0.940964	1.132183
O16	O	2.145624	0.207989	0.521118
O17	O	2.478958	0.541323	0.854452
O18	O	2.812291	0.874656	1.187785
O19	O	1.914641	0.335213	0.179197
O20	O	2.247974	0.668546	0.512530
O21	O	2.581307	1.001879	0.845864
O22	O	1.776406	0.101630	0.394415
O23	O	2.109739	0.434963	0.727748
O24	O	2.443072	0.768297	1.061081
O25	O	2.133674	0.315212	0.367004
O26	O	2.467007	0.648545	0.700337
O27	O	2.800340	0.981879	1.033671
O28	O	1.942364	0.086476	0.536713
O29	O	2.275697	0.419809	0.870046
O30	O	2.609030	0.753143	1.203380
O31	O	1.760633	0.243144	0.191013
O32	O	2.093966	0.576477	0.524346
O33	O	2.427300	0.909811	0.857680
O34	O	1.572937	0.241560	0.409940
O35	O	1.906270	0.574893	0.743274
O36	O	2.239603	0.908226	1.076607
O37	O	1.803763	0.312427	0.751809
O38	O	2.137096	0.645760	1.085143
O39	O	2.470429	0.979094	1.418476
O40	O	1.584730	0.332428	0.564002
O41	O	1.918063	0.665761	0.897336
O42	O	2.251396	0.999094	1.230669
O43	O	1.957928	0.206405	0.740046
O44	O	2.291261	0.539738	1.073379
O45	O	2.624595	0.873071	1.406712
O46	O	1.930205	0.455142	0.382530
O47	O	2.263538	0.788475	0.715863
O48	O	2.596871	1.121808	1.049197
O49	O	1.787990	0.453941	0.548408
O50	O	2.121323	0.787274	0.881741
O51	O	2.454657	1.120608	1.215074
C52	C	1.533317	0.289055	0.490455
C53	C	1.866650	0.622388	0.823788
C54	C	2.199983	0.955722	1.157121
C55	C	1.393887	0.295387	0.501153
C56	C	1.727220	0.628720	0.834487
C57	C	2.060554	0.962053	1.167820
C58	C	1.859110	0.483796	0.465486
C59	C	2.192444	0.817129	0.798819
C60	C	2.525777	1.150463	1.132153
C61	C	1.859172	0.573413	0.465506
C62	C	2.192506	0.906746	0.798839
C63	C	2.525839	1.240080	1.132173
C64	C	1.859389	0.901571	0.465640
C65	C	2.192722	1.234905	0.798974
C66	C	2.526055	1.568238	1.132307
C67	C	1.859325	0.810268	0.465607
C68	C	2.192658	1.143601	0.798940
C69	C	2.525991	1.476934	1.132273
C70	C	1.859279	0.737495	0.465573
C71	C	2.192613	1.070828	0.798906
C72	C	2.525946	1.404162	1.132239
C73	C	1.859218	0.646186	0.465540
C74	C	2.192551	0.979519	0.798873
C75	C	2.525884	1.312852	1.132207
C76	C	2.186438	0.259482	0.440481
C77	C	2.519772	0.592815	0.773815
C78	C	2.853105	0.926149	1.107148
C79	C	2.325870	0.253169	0.429813
C80	C	2.659203	0.586502	0.763146
C81	C	2.992537	0.919835	1.096479
C82	C	1.884450	0.256933	0.792717
C83	C	2.217783	0.590266	1.126051
C84	C	2.551117	0.923600	1.459384
C85	C	1.895193	0.249533	0.932151
C86	C	2.228526	0.582867	1.265484
C87	C	2.561859	0.916200	1.598818
C88	C	1.859399	1.063977	0.465587
C89	C	2.192732	1.397310	0.798921
C90	C	2.526066	1.730644	1.132254
C91	C	1.859442	0.974350	0.465657
C92	C	2.192775	1.307684	0.798991
C93	C	2.526109	1.641017	1.132324
C94	C	1.834202	0.291532	0.139583
C95	C	2.167535	0.624866	0.472916
C96	C	2.500869	0.958199	0.806249
C97	C	1.823703	0.298694	0.000131
C98	C	2.157036	0.632027	0.333464
C99	C	2.490369	0.965361	0.666798
H100	H	1.345445	0.336382	0.570413
H101	H	1.678778	0.669716	0.903747
H102	H	2.012111	1.003049	1.237080
H103	H	1.754282	0.346446	0.951661
H104	H	2.087615	0.679779	1.284994
H105	H	2.420949	1.013112	1.618327
H106	H	1.964627	0.201784	0.980627
H107	H	2.297960	0.535117	1.313960
H108	H	2.631294	0.868450	1.647294
H109	H	1.374306	0.212181	0.360549
H110	H	1.707639	0.545515	0.693883
H111	H	2.040972	0.878848	1.027216
