data_functionalizedCrystal
_audit_creation_method	'MofGen! by Chris Wilmer'
_symmetry_space_group_name_H-M	'P1'
_symmetry_Int_Tables_number	1
_symmetry_cell_setting	triclinic
loop_
_symmetry_equiv_pos_as_xyz
  x,y,z
_cell_length_a	10.654550
_cell_length_b	15.944551
_cell_length_c	9.130313
_cell_angle_alpha	89.994529
_cell_angle_beta	89.999724
_cell_angle_gamma	83.991834
loop_
_atom_site_label
_atom_site_type_symbol
_atom_site_fract_x
_atom_site_fract_y
_atom_site_fract_z
O1	O	1.666313	0.117977	-0.121694
O2	O	1.300689	0.129217	-0.121721
O3	O	1.493485	0.001379	-0.121693
O4	O	1.473517	0.245814	-0.121721
O5	O	1.493472	0.001376	0.121906
O6	O	1.300676	0.129213	0.121878
O7	O	1.666300	0.117973	0.121905
Cu8	Cu	1.483487	0.123592	0.144134
Cu9	Cu	1.483502	0.123597	-0.143950
O10	O	1.473503	0.245810	0.121878
C11	C	1.253895	0.128389	0.000075
C12	C	1.114484	0.125920	0.000065
C13	C	1.492650	-0.029921	0.000106
C14	C	1.490165	-0.123182	0.000107
C15	C	1.034024	0.201189	0.000061
C16	C	0.903034	0.198863	0.000087
C17	C	0.932975	0.045995	0.000115
C18	C	1.063963	0.048321	0.000100
C19	C	1.364720	-0.338764	0.000077
C20	C	1.422966	-0.399446	0.120191
C21	C	1.485668	-0.293933	0.000095
C22	C	1.423007	-0.399426	-0.119979
C23	C	1.481317	-0.458871	0.000078
C24	C	1.543947	-0.353387	0.120308
C25	C	1.543972	-0.353360	-0.119969
C26	C	1.602306	-0.414024	0.000173
C27	C	1.488172	-0.198917	0.000107
C28	C	1.478822	-0.553887	0.000077
C29	C	1.713094	0.118800	0.000106
C30	C	1.852505	0.121269	0.000106
C31	C	1.474339	0.277110	0.000075
C32	C	1.476824	0.370371	0.000065
N33	N	1.483485	0.123589	0.346757
N34	N	1.483514	0.123594	-0.346572
C35	C	1.568884	0.067007	0.423421
C36	C	1.568896	0.067007	0.576758
C37	C	1.398106	0.180179	0.576753
C38	C	1.398089	0.180174	0.423419
H39	H	1.075154	0.264375	0.000044
O40	O	0.824750	0.271924	-0.000122
C41	C	0.659531	0.358039	-0.126372
C42	C	0.748093	0.275254	-0.126302
H43	H	0.597550	0.360767	-0.228393
H44	H	0.597380	0.360789	-0.024488
H45	H	0.718174	0.413882	-0.126329
H46	H	0.689550	0.219365	-0.126397
H47	H	0.810249	0.272578	-0.228177
O48	O	1.722195	-0.452859	0.000516
C49	C	1.921347	-0.473387	0.127417
C50	C	1.785601	-0.429368	0.127220
H51	H	1.972659	-0.454397	0.229831
H52	H	1.918662	-0.544676	0.126541
H53	H	1.973246	-0.453631	0.025950
H54	H	1.733624	-0.449056	0.228670
H55	H	1.788378	-0.358088	0.128021
O56	O	1.651976	0.012014	0.651001
C57	C	1.821326	-0.100270	0.634814
C58	C	1.727324	-0.038018	0.550553
H59	H	1.882252	-0.140748	0.553638
H60	H	1.884150	-0.063654	0.706545
H61	H	1.767097	-0.142534	0.706657
H62	H	1.781451	0.004261	0.478630
H63	H	1.664501	-0.074686	0.478914
H64	H	1.328580	0.226250	0.639186
H65	H	1.328541	0.226250	0.360995
O66	O	1.361817	-0.423888	0.241171
C67	C	1.187862	-0.492784	0.335304
C68	C	1.257019	-0.465174	0.198181
H69	H	1.103104	-0.526153	0.300596
H70	H	1.254942	-0.537656	0.403185
H71	H	1.154295	-0.434920	0.403658
H72	H	1.290591	-0.522987	0.129715
H73	H	1.189893	-0.420273	0.130410
H74	H	1.129477	-0.012976	0.000108
O75	O	1.244896	-0.299816	0.000009
C76	C	1.044973	-0.280008	-0.125365
C77	C	1.180624	-0.324185	-0.125461
H78	H	0.992978	-0.299680	-0.226812
H79	H	0.993544	-0.298831	-0.022914
H80	H	1.048004	-0.208752	-0.126341
H81	H	1.177709	-0.395449	-0.124537
H82	H	1.231998	-0.305293	-0.227904
O83	O	1.604834	-0.329048	0.241545
C84	C	1.675546	-0.213299	0.377519
C85	C	1.606546	-0.240748	0.240176
H86	H	1.676976	-0.141909	0.376443
H87	H	1.624331	-0.232608	0.479797
H88	H	1.776502	-0.245076	0.377944
H89	H	1.505588	-0.208984	0.239610
H90	H	1.657859	-0.221454	0.137960
O91	O	0.883687	-0.029309	0.000072
C92	C	0.695163	-0.100643	0.000188
C93	C	0.750809	-0.015302	0.000208
H94	H	0.587724	-0.089348	0.000329
H95	H	0.728203	-0.137890	-0.101778
H96	H	0.728381	-0.137876	0.102114
H97	H	0.717616	0.021999	-0.101648
H98	H	0.717775	0.021881	0.102241
O99	O	1.605140	-0.328956	-0.240952
C100	C	1.780257	-0.261288	-0.335171
C101	C	1.711139	-0.288902	-0.198022
H102	H	1.865956	-0.228882	-0.300511
H103	H	1.812343	-0.318969	-0.404675
H104	H	1.713574	-0.215517	-0.401871
H105	H	1.777749	-0.334654	-0.131208
H106	H	1.679032	-0.231181	-0.128627
H107	H	1.371841	-0.419797	-0.221532
H108	H	1.638416	0.020930	0.361006
