data_functionalizedCrystal
_audit_creation_method	'MofGen! by Chris Wilmer'
_symmetry_space_group_name_H-M	'P1'
_symmetry_Int_Tables_number	1
_symmetry_cell_setting	triclinic
loop_
_symmetry_equiv_pos_as_xyz
  x,y,z
_cell_length_a	10.654562
_cell_length_b	14.044220
_cell_length_c	9.730223
_cell_angle_alpha	89.997406
_cell_angle_beta	89.996961
_cell_angle_gamma	88.839490
loop_
_atom_site_label
_atom_site_type_symbol
_atom_site_fract_x
_atom_site_fract_y
_atom_site_fract_z
O1	O	1.681218	0.133285	-0.114385
O2	O	1.317016	0.145966	-0.114369
O3	O	1.493651	0.001605	-0.114363
O4	O	1.504584	0.277647	-0.114391
O5	O	1.493649	0.001609	0.114217
O6	O	1.317015	0.145970	0.114211
O7	O	1.681217	0.133289	0.114195
Zn8	Zn	1.499115	0.139630	0.150495
Zn9	Zn	1.499118	0.139625	-0.150669
O10	O	1.504582	0.277650	0.114189
C11	C	1.270124	0.145034	-0.000077
C12	C	1.130401	0.142241	-0.000070
C13	C	1.064738	0.140940	0.124519
C14	C	0.933453	0.138323	0.124496
C15	C	0.933504	0.138312	-0.124715
C16	C	1.064788	0.140922	-0.124690
C17	C	1.130351	0.142259	0.249139
C18	C	1.064689	0.140959	0.373738
C19	C	0.933403	0.138342	0.373715
C20	C	0.867781	0.137025	0.249094
C21	C	1.488864	-0.033739	-0.000073
C22	C	1.474588	-0.139059	-0.000070
C23	C	1.448490	-0.331893	-0.000089
C24	C	1.549738	-0.388857	-0.000098
C25	C	1.535216	-0.496157	-0.000108
C26	C	1.463010	-0.224584	-0.000078
C27	C	1.728109	0.134221	-0.000101
C28	C	1.867832	0.137014	-0.000117
C29	C	1.509369	0.312994	-0.000105
C30	C	1.523645	0.418315	-0.000116
N31	N	1.499123	0.139633	0.356031
N32	N	1.499119	0.139615	-0.356205
C33	C	1.577361	0.075731	0.427960
C34	C	1.577356	0.075720	0.571843
C35	C	1.420873	0.203519	0.571856
C36	C	1.420872	0.203526	0.427976
C37	C	1.655612	0.011839	0.356015
C38	C	1.733857	-0.052067	0.427944
C39	C	1.733853	-0.052079	0.571827
C40	C	1.655603	0.011816	0.643781
H41	H	1.237250	0.144393	0.249172
C42	C	1.316667	-0.374867	-0.000072
H43	H	1.324079	-0.442393	-0.000064
H44	H	1.272289	-0.354366	-0.079771
H45	H	1.272314	-0.354374	0.079660
C46	C	1.819930	-0.122341	0.348801
H47	H	1.808739	-0.113176	0.252809
H48	H	1.799206	-0.185751	0.372370
H49	H	1.904958	-0.111433	0.372386
H50	H	1.647325	-0.357041	-0.000194
H51	H	1.357162	0.255559	0.369411
C52	C	0.861322	0.136876	-0.261784
H53	H	0.773730	0.135145	-0.243953
H54	H	0.886223	0.082086	-0.312978
H55	H	0.879469	0.192530	-0.312976
C56	C	1.655618	0.011854	0.197750
H57	H	1.597821	0.059068	0.165215
H58	H	1.631644	-0.048894	0.165187
H59	H	1.737400	0.025420	0.165209
H60	H	1.118127	0.142025	0.475199
H61	H	1.797554	-0.104119	0.630390
H62	H	1.655597	0.011794	0.760941
H63	H	0.879945	0.137276	0.475169
H64	H	0.760880	0.134892	0.249085
H65	H	1.118251	0.141986	-0.226141
H66	H	1.357166	0.255540	0.630451
