data_functionalizedCrystal
_audit_creation_method	'MofGen! by Chris Wilmer'
_symmetry_space_group_name_H-M	'P1'
_symmetry_Int_Tables_number	1
_symmetry_cell_setting	triclinic
loop_
_symmetry_equiv_pos_as_xyz
  x,y,z
_cell_length_a	10.268362
_cell_length_b	19.288864
_cell_length_c	19.288865
_cell_angle_alpha	83.136245
_cell_angle_beta	89.989489
_cell_angle_gamma	89.981569
loop_
_atom_site_label
_atom_site_type_symbol
_atom_site_fract_x
_atom_site_fract_y
_atom_site_fract_z
O1	O	0.108733	-0.921348	-0.086648
O2	O	0.108646	-0.719088	-0.098337
O3	O	0.108666	-0.826062	0.008638
O4	O	0.108712	-0.814374	-0.193623
O5	O	-0.107935	-0.826053	0.008642
O6	O	-0.107955	-0.719078	-0.098333
O7	O	-0.107868	-0.921339	-0.086644
Cu8	Cu	-0.127689	-0.820208	-0.092488
Cu9	Cu	0.128467	-0.820219	-0.092493
O10	O	-0.107888	-0.814364	-0.193619
C11	C	0.000334	-0.693207	-0.097959
C12	C	0.000299	-0.616103	-0.096830
N13	N	-0.307855	-0.820205	-0.092484
C14	C	0.000362	-0.825682	0.034516
C15	C	0.000350	-0.824553	0.111620
C16	C	-0.573525	-0.820215	-0.092492
C17	C	-0.425687	-0.820207	-0.092489
N18	N	0.308632	-0.820227	-0.092492
C19	C	0.000447	-0.947220	-0.087022
C20	C	0.000490	-1.024324	-0.088151
C21	C	0.000334	-0.571407	-0.159598
C22	C	0.000349	-0.498960	-0.158537
C23	C	0.000354	-0.471212	-0.094705
C24	C	0.000312	-0.515918	-0.031929
C25	C	0.000284	-0.588364	-0.032991
C26	C	0.076271	-0.362953	-0.044527
C27	C	0.076306	-0.290509	-0.043467
C28	C	0.000432	-0.247767	-0.091425
C29	C	-0.075461	-0.277476	-0.140455
C30	C	-0.075488	-0.349921	-0.141517
C31	C	0.000383	-0.392658	-0.093546
C32	C	0.000480	-0.124514	-0.153047
C33	C	0.000486	-0.052066	-0.151984
C34	C	0.000463	-0.069026	-0.025374
C35	C	0.000443	-0.141473	-0.026439
C36	C	0.000459	-0.169212	-0.090278
C37	C	0.000419	-0.814745	-0.219497
C38	C	0.000440	-0.815874	-0.296601
C39	C	0.000370	-0.887321	0.156316
C40	C	0.000390	-0.886260	0.228763
C41	C	0.000364	-0.822428	0.256511
C42	C	0.000350	-0.759652	0.211805
C43	C	0.000343	-0.760714	0.139359
C44	C	-0.075528	-0.772245	0.364800
C45	C	-0.075529	-0.771185	0.437244
C46	C	0.000391	-0.819148	0.479956
C47	C	0.076296	-0.868183	0.450217
C48	C	0.076289	-0.869245	0.377771
C49	C	0.000372	-0.821269	0.335065
C50	C	0.000436	-0.880770	0.603209
C51	C	0.000464	-0.879707	0.675657
C52	C	0.000411	-0.753097	0.658697
C53	C	0.000396	-0.754162	0.586250
C54	C	0.000402	-0.818000	0.558511
H55	H	0.000373	-0.462561	-0.209652
O56	O	0.000328	-0.601317	-0.228454
H57	H	0.088602	-0.633938	-0.231977
H58	H	-0.137359	-0.733186	0.330028
H59	H	-0.137328	-0.731255	0.461452
H60	H	0.138119	-0.907239	0.484992
H61	H	0.000396	-0.701123	0.681288
O62	O	0.000246	-0.636579	0.034711
H63	H	0.088530	-0.626769	0.065269
H64	H	0.000412	-0.937375	0.265162
H65	H	0.000332	-0.707679	0.234401
O66	O	0.000303	-0.693008	0.091150
H67	H	0.088582	-0.690462	0.057728
O68	O	0.000341	-0.686462	0.538034
H69	H	0.000310	-0.641896	0.569498
O70	O	0.158104	-0.409049	0.007210
H71	H	0.145323	-0.464416	-0.001759
O72	O	-0.157310	-0.231383	-0.192181
H73	H	-0.126060	-0.238098	-0.246063
H74	H	0.000488	-0.930822	0.712049
O75	O	-0.157391	-0.381973	-0.194368
H76	H	-0.210173	-0.340087	-0.227530
O77	O	0.000470	-0.154442	-0.221897
H78	H	0.000472	-0.111187	-0.265367
H79	H	0.138096	-0.909169	0.353560
H80	H	0.000507	-0.015674	-0.203099
H81	H	0.000334	-0.493322	0.020044
H82	H	0.000422	-0.177866	0.024674
O83	O	0.000469	-0.039111	0.043477
H84	H	0.000500	0.018774	0.033672
O85	O	0.158140	-0.258466	0.009418
H86	H	0.210868	-0.300358	0.042600
O87	O	0.000413	-0.956171	0.126395
H88	H	0.000450	-0.999640	0.169652
O89	O	0.000469	-0.949620	0.573281
H90	H	0.000511	-0.993090	0.616536
