data_functionalizedCrystal
_audit_creation_method	'MofGen! by Chris Wilmer'
_symmetry_space_group_name_H-M	'P1'
_symmetry_Int_Tables_number	1
_symmetry_cell_setting	triclinic
loop_
_symmetry_equiv_pos_as_xyz
  x,y,z
_cell_length_a	10.686220
_cell_length_b	25.639239
_cell_length_c	10.685910
_cell_angle_alpha	94.382842
_cell_angle_beta	89.675252
_cell_angle_gamma	94.420676
loop_
_atom_site_label
_atom_site_type_symbol
_atom_site_fract_x
_atom_site_fract_y
_atom_site_fract_z
Zn1	Zn	1.971974	-0.127587	0.562379
Zn2	Zn	1.955718	-0.222181	0.352600
Zn3	Zn	1.746142	-0.140923	0.368690
Zn4	Zn	1.762075	-0.221168	0.578384
O5	O	1.858977	-0.177965	0.465513
O6	O	2.145369	-0.134979	0.521120
O7	O	1.914446	-0.217407	0.179184
O8	O	1.776235	-0.065983	0.394419
O9	O	2.133426	-0.204476	0.366997
O10	O	1.942152	-0.056186	0.536721
O11	O	1.760472	-0.157707	0.191005
O12	O	1.572704	-0.156725	0.409938
O13	O	1.803389	-0.202749	0.751811
O14	O	1.584410	-0.215680	0.563999
O15	O	1.957601	-0.133996	0.740053
O16	O	1.929895	-0.295218	0.382516
O17	O	1.787626	-0.294473	0.548398
C18	C	1.533039	-0.187540	0.490452
C19	C	1.393603	-0.191648	0.501150
C20	C	1.858762	-0.313816	0.465472
C21	C	1.858788	-0.371929	0.465488
C22	C	1.933276	-0.732649	0.379259
C23	C	1.933326	-0.787251	0.379272
O24	O	1.996435	-0.815800	0.305912
N25	N	1.859204	-0.814195	0.465580
C26	C	1.785037	-0.786533	0.551888
O27	O	1.721996	-0.814464	0.625301
C28	C	1.784995	-0.731931	0.551880
C29	C	1.859112	-0.704991	0.465558
C30	C	2.007389	-0.705709	0.292946
C31	C	2.007337	-0.651110	0.292932
C32	C	1.933172	-0.623452	0.379231
C33	C	1.859060	-0.650392	0.465544
C34	C	1.710835	-0.704269	0.638192
C35	C	1.710800	-0.649664	0.638177
C36	C	1.784917	-0.622724	0.551856
C37	C	1.784844	-0.568136	0.551829
N38	N	1.858966	-0.541192	0.465522
C39	C	1.933130	-0.568850	0.379223
C40	C	1.785133	-0.901200	0.551900
C41	C	1.785167	-0.955801	0.551903
C42	C	1.933459	-0.956516	0.379289
C43	C	1.933417	-0.901914	0.379281
C44	C	1.859255	-0.874256	0.465593
C45	C	1.933015	-0.454190	0.379198
C46	C	1.932952	-0.399587	0.379189
C47	C	1.784666	-0.398876	0.551806
C48	C	1.784723	-0.453475	0.551813
C49	C	1.858907	-0.481130	0.465504
O50	O	1.721771	-0.539552	0.625155
O51	O	1.996173	-0.540912	0.305833
C52	C	2.186189	-0.168353	0.440478
C53	C	2.325627	-0.164257	0.429810
C54	C	1.884086	-0.166772	0.792723
C55	C	1.894786	-0.162002	0.932161
C56	C	1.859230	-0.041582	0.465580
C57	C	1.859337	0.016537	0.465608
C58	C	1.833956	-0.189126	1.139577
C59	C	1.823253	-0.193895	1.000140
H60	H	1.374101	-0.137664	0.360547
H61	H	1.345121	-0.218246	0.570410
H62	H	1.993307	-0.377654	0.308891
H63	H	1.650410	-0.627147	0.708467
C64	C	2.014955	-0.872284	0.284338
H65	H	2.059132	-0.896581	0.232952
H66	H	1.962807	-0.854290	0.233301
H67	H	2.073257	-0.847708	0.328195
H68	H	1.993852	-0.979045	0.309023
H69	H	1.993425	-0.476700	0.308920
H70	H	2.067693	-0.629179	0.222645
H71	H	2.067789	-0.728222	0.222670
H72	H	1.724375	-0.475410	0.622106
H73	H	1.724801	-0.977732	0.622184
C74	C	1.988585	-0.120188	0.997636
H75	H	1.983711	-0.122359	1.085908
H76	H	2.071234	-0.126089	0.969765
H77	H	1.968661	-0.086317	0.977650
H78	H	1.753825	-0.224852	0.951660
C79	C	1.703534	-0.870782	0.646835
H80	H	1.659393	-0.894652	0.698224
H81	H	1.755647	-0.846171	0.697870
H82	H	1.645201	-0.852763	0.602971
C83	C	1.629314	-0.733891	0.733156
H84	H	1.585159	-0.709590	0.784554
H85	H	1.571014	-0.758473	0.689328
H86	H	1.681487	-0.751877	0.784197
H87	H	1.724278	-0.376349	0.622067
