data_functionalizedCrystal
_audit_creation_method	'MofGen! by Chris Wilmer'
_symmetry_space_group_name_H-M	'P1'
_symmetry_Int_Tables_number	1
_symmetry_cell_setting	triclinic
loop_
_symmetry_equiv_pos_as_xyz
  x,y,z
_cell_length_a	6.817900
_cell_length_b	14.858565
_cell_length_c	12.200875
_cell_angle_alpha	93.921261
_cell_angle_beta	107.143593
_cell_angle_gamma	104.523916
loop_
_atom_site_label
_atom_site_type_symbol
_atom_site_fract_x
_atom_site_fract_y
_atom_site_fract_z
V1	V	-4.073571	-0.128881	-0.357981
V2	V	-3.573571	0.371119	0.142019
O3	O	-4.054796	0.005976	-0.350838
O4	O	-3.554796	0.505976	0.149162
O5	O	-4.029959	-0.255341	-0.355850
O6	O	-3.529959	0.244659	0.144150
O7	O	-4.043217	-0.126994	-0.513965
O8	O	-3.543217	0.373006	-0.013965
O9	O	-4.041446	-0.123259	-0.191628
O10	O	-3.541446	0.376741	0.308372
V11	V	-4.554240	-0.112740	-0.338046
V12	V	-4.054240	0.387260	0.161954
O13	O	-4.341090	-0.164290	-0.401712
O14	O	-3.841090	0.335710	0.098288
O15	O	-4.736919	-0.077331	-0.294315
O16	O	-4.236919	0.422669	0.205685
O17	O	-4.374646	0.013720	-0.340177
O18	O	-3.874646	0.513720	0.159823
O19	O	-4.690413	-0.247597	-0.345189
O20	O	-4.190413	0.252403	0.154811
O21	O	-4.703762	-0.118362	-0.504399
O22	O	-4.203762	0.381638	-0.004399
O23	O	-4.361388	-0.114627	-0.182062
O24	O	-3.861388	0.385373	0.317938
C25	C	-3.875541	-0.286166	-0.350284
C26	C	-3.375541	0.213834	0.149716
C27	C	-3.921290	-0.389549	-0.349581
C28	C	-3.421290	0.110451	0.150419
C29	C	-3.892452	-0.122446	-0.551974
C30	C	-3.392452	0.377554	-0.051974
C31	C	-3.948949	-0.121740	-0.679494
C32	C	-3.448949	0.378260	-0.179494
C33	C	-4.052348	-0.120448	-0.912965
C34	C	-3.552348	0.379552	-0.412965
C35	C	-3.994801	-0.121167	-0.783045
C36	C	-3.494801	0.378833	-0.283045
C37	C	-4.088740	-0.768119	-0.347022
C38	C	-3.588740	-0.268119	0.152978
C39	C	-4.042142	-0.662789	-0.347733
C40	C	-3.542142	-0.162789	0.152267
C41	C	-4.005016	-0.578837	-0.348300
C42	C	-3.505016	-0.078837	0.151700
C43	C	-3.958416	-0.473501	-0.349014
C44	C	-3.458416	0.026499	0.150986
C45	C	-4.192406	0.044540	-0.345740
C46	C	-3.692406	0.544540	0.154260
C47	C	-4.125896	0.147922	-0.346451
C48	C	-3.625896	0.647922	0.153549
C49	C	-4.175495	-0.119178	-0.144047
C50	C	-3.675495	0.380822	0.355953
C51	C	-4.098235	-0.119879	-0.016526
C52	C	-3.598235	0.380121	0.483474
