data_functionalizedCrystal
_audit_creation_method	'MofGen! by Chris Wilmer'
_symmetry_space_group_name_H-M	'P1'
_symmetry_Int_Tables_number	1
_symmetry_cell_setting	triclinic
loop_
_symmetry_equiv_pos_as_xyz
  x,y,z
_cell_length_a	17.019284
_cell_length_b	17.019372
_cell_length_c	12.996460
_cell_angle_alpha	93.870834
_cell_angle_beta	86.123548
_cell_angle_gamma	96.872923
loop_
_atom_site_label
_atom_site_type_symbol
_atom_site_fract_x
_atom_site_fract_y
_atom_site_fract_z
O1	O	-0.100470	1.046549	0.015994
O2	O	0.399530	1.546549	0.515994
O3	O	-0.113292	0.816872	-0.003204
O4	O	0.386708	1.316872	0.496796
O5	O	0.007959	0.938122	-0.003214
O6	O	0.507959	1.438122	0.496786
O7	O	-0.221721	0.925298	0.016003
O8	O	0.278279	1.425298	0.516003
O9	O	0.007965	0.938110	0.167918
O10	O	0.507965	1.438110	0.667918
O11	O	-0.113286	0.816859	0.167928
O12	O	0.386714	1.316859	0.667928
O13	O	-0.100464	1.046536	0.187126
O14	O	0.399536	1.546536	0.687126
Cu15	Cu	-0.106874	0.931696	0.193153
Cu16	Cu	0.393126	1.431696	0.693153
Cu17	Cu	-0.106882	0.931711	-0.009231
Cu18	Cu	0.393118	1.431711	0.490769
O19	O	-0.221715	0.925285	0.187135
O20	O	0.278285	1.425285	0.687135
C21	C	-0.112804	0.787477	0.079717
C22	C	0.387196	1.287477	0.579717
C23	C	-0.111349	0.699910	0.071834
C24	C	0.388651	1.199910	0.571834
C25	C	-0.103094	0.204651	0.022504
C26	C	0.396906	0.704651	0.522504
C27	C	-0.104461	0.286929	0.029924
C28	C	0.395539	0.786929	0.529924
C29	C	-0.105147	0.328053	0.126920
C30	C	0.394853	0.828053	0.626920
C31	C	-0.104458	0.286895	0.216500
C32	C	0.395542	0.786895	0.716500
C33	C	-0.103085	0.204618	0.209079
C34	C	0.396915	0.704618	0.709079
C35	C	-0.109287	0.576475	0.153994
C36	C	0.390713	1.076475	0.653994
C37	C	-0.110662	0.658757	0.161409
C38	C	0.389338	1.158757	0.661409
C39	C	-0.110664	0.658786	-0.025169
C40	C	0.389336	1.158786	0.474831
C41	C	-0.109296	0.576507	-0.032581
C42	C	0.390704	1.076507	0.467419
C43	C	-0.108602	0.535357	0.056999
C44	C	0.391398	1.035357	0.556999
C45	C	-0.106547	0.412155	0.134507
C46	C	0.393453	0.912155	0.634507
C47	C	-0.107197	0.451257	0.049411
C48	C	0.392803	0.951257	0.549411
C49	C	-0.251106	0.925776	0.104216
C50	C	0.248894	1.425776	0.604216
C51	C	-0.338675	0.927230	0.112105
C52	C	0.161325	1.427230	0.612105
C53	C	-0.379816	0.927921	0.022526
C54	C	0.120184	1.427921	0.522526
C55	C	-0.462094	0.929297	0.029938
C56	C	0.037906	1.429297	0.529938
C57	C	-0.503231	0.929976	0.126930
C58	C	-0.003231	1.429976	0.626930
C59	C	-0.462085	0.929288	0.216516
C60	C	0.037915	1.429288	0.716516
C61	C	-0.379807	0.927918	0.209103
C62	C	0.120193	1.427918	0.709103
C63	C	-0.751657	0.934119	0.153981
C64	C	-0.251657	1.434119	0.653981
C65	C	-0.833940	0.935487	0.161387
C66	C	-0.333940	1.435487	0.661387
C67	C	-0.833944	0.935497	-0.025192
C68	C	-0.333944	1.435497	0.474808
C69	C	-0.751665	0.934122	-0.032597
C70	C	-0.251665	1.434122	0.467403
C71	C	-0.710525	0.933438	0.056990
C72	C	-0.210525	1.433438	0.556990
C73	C	-0.587334	0.931381	0.134510
C74	C	-0.087334	1.431381	0.634510
C75	C	-0.626424	0.932039	0.049410
C76	C	-0.126424	1.432039	0.549410
C77	C	0.037350	0.937631	0.079703
C78	C	0.537350	1.437631	0.579703
C79	C	0.124919	0.936178	0.071808
C80	C	0.624919	1.436178	0.571808
C81	C	-0.100952	1.075930	0.104203
C82	C	0.399048	1.575930	0.604203
C83	C	-0.102407	1.163498	0.112078
C84	C	0.397593	1.663498	0.612078
N85	N	-0.106868	0.931692	0.335499
N86	N	0.393132	1.431692	0.835499
N87	N	-0.106882	0.931722	-0.151577
N88	N	0.393118	1.431722	0.348423
C89	C	-0.106883	0.931710	0.755316
C90	C	0.393117	1.431710	1.255316
C91	C	-0.106881	0.931703	0.638510
C92	C	0.393119	1.431703	1.138510
C93	C	-0.106876	0.931701	0.545411
C94	C	0.393124	1.431701	1.045411
C95	C	-0.106873	0.931693	0.428598
C96	C	0.393127	1.431693	0.928598
H97	H	-0.111228	0.692300	-0.098100
H98	H	0.388772	1.192300	0.401900
H99	H	-0.867449	0.936055	-0.098127
H100	H	-0.367449	1.436055	0.401873
Cl101	Cl	-0.108436	0.524751	0.266612
Cl102	Cl	0.391564	1.024751	0.766612
H103	H	-0.346328	0.927360	-0.056456
H104	H	0.153672	1.427360	0.443544
H105	H	-0.867435	0.936017	0.240372
H106	H	-0.367435	1.436017	0.740372
H107	H	-0.620837	0.931932	0.213481
H108	H	-0.120837	1.431932	0.713481
Cl109	Cl	-0.105321	0.338661	-0.082690
Cl110	Cl	0.394679	0.838661	0.417310
Cl111	Cl	-0.105318	0.338594	0.338438
Cl112	Cl	0.394682	0.838594	0.838438
H113	H	-0.495587	0.929860	-0.043006
H114	H	0.004413	1.429860	0.456994
H115	H	-0.102541	0.171173	-0.056480
H116	H	0.397459	0.671173	0.443520
Cl117	Cl	-0.699956	0.933269	-0.154534
Cl118	Cl	-0.199956	1.433269	0.345466
Cl119	Cl	-0.699949	0.933251	0.266604
Cl120	Cl	-0.199949	1.433251	0.766604
H121	H	-0.346311	0.927355	0.282048
H122	H	0.153689	1.427355	0.782048
Cl123	Cl	-0.108435	0.524815	-0.154523
Cl124	Cl	0.391565	1.024815	0.345477
Cl125	Cl	-0.111523	0.710455	0.283355
Cl126	Cl	0.388477	1.210455	0.783355
H127	H	-0.102534	0.171112	0.282021
H128	H	0.397466	0.671112	0.782021
H129	H	-0.107107	0.445647	0.213481
H130	H	0.392893	0.945647	0.713481
H131	H	-0.106635	0.417771	-0.029562
H132	H	0.393365	0.917771	0.470438
H133	H	-0.495585	0.929847	0.295490
H134	H	0.004415	1.429847	0.795490
H135	H	-0.592926	0.931490	-0.029560
H136	H	-0.092926	1.431490	0.470440
