data_functionalizedCrystal
_audit_creation_method	'MofGen! by Chris Wilmer'
_symmetry_space_group_name_H-M	'P1'
_symmetry_Int_Tables_number	1
_symmetry_cell_setting	triclinic
loop_
_symmetry_equiv_pos_as_xyz
  x,y,z
_cell_length_a	19.077105
_cell_length_b	17.637651
_cell_length_c	19.076919
_cell_angle_alpha	99.433464
_cell_angle_beta	89.923776
_cell_angle_gamma	98.499620
loop_
_atom_site_label
_atom_site_type_symbol
_atom_site_fract_x
_atom_site_fract_y
_atom_site_fract_z
Zn1	Zn	0.993412	-0.376382	0.369993
Zn2	Zn	1.326745	-0.043049	0.703326
Zn3	Zn	1.660079	0.290284	1.036660
Zn4	Zn	0.976496	-0.501474	0.229080
Zn5	Zn	1.309829	-0.168141	0.562413
Zn6	Zn	1.643163	0.165193	0.895747
Zn7	Zn	0.882426	-0.365960	0.249736
Zn8	Zn	1.215759	-0.032627	0.583070
Zn9	Zn	1.549092	0.300707	0.916403
Zn10	Zn	0.854398	-0.501005	0.341921
Zn11	Zn	1.187732	-0.167671	0.675254
Zn12	Zn	1.521065	0.165662	1.008587
O13	O	0.926683	-0.436205	0.297682
O14	O	1.260016	-0.102872	0.631016
O15	O	1.593350	0.230461	0.964349
O16	O	1.088714	-0.397534	0.354404
O17	O	1.422048	-0.064201	0.687738
O18	O	1.755381	0.269133	1.021071
O19	O	0.968667	-0.479332	0.134268
O20	O	1.302001	-0.145999	0.467602
O21	O	1.635334	0.187334	0.800935
O22	O	0.915957	-0.258475	0.286082
O23	O	1.249290	0.074859	0.619415
O24	O	1.582624	0.408192	0.952748
O25	O	1.076286	-0.489438	0.250876
O26	O	1.409620	-0.156105	0.584210
O27	O	1.742953	0.177228	0.917543
O28	O	0.997498	-0.266132	0.374434
O29	O	1.330832	0.067202	0.707767
O30	O	1.664165	0.400535	1.041100
O31	O	0.899554	-0.379771	0.149444
O32	O	1.232888	-0.046438	0.482778
O33	O	1.566221	0.286896	0.816111
O34	O	0.781161	-0.379316	0.258861
O35	O	1.114495	-0.045983	0.592194
O36	O	1.447828	0.287351	0.925528
O37	O	0.868189	-0.488639	0.443196
O38	O	1.201522	-0.155305	0.776530
O39	O	1.534856	0.178028	1.109863
O40	O	0.760570	-0.478533	0.326588
O41	O	1.093903	-0.145199	0.659922
O42	O	1.427237	0.188134	0.993255
O43	O	0.970321	-0.397079	0.463821
O44	O	1.303655	-0.063746	0.797154
O45	O	1.636988	0.269588	1.130488
O46	O	0.941491	-0.610280	0.223656
O47	O	1.274824	-0.276946	0.556989
O48	O	1.608157	0.056387	0.890322
O49	O	0.851786	-0.609935	0.306559
O50	O	1.185119	-0.276602	0.639892
O51	O	1.518453	0.056732	0.973226
C52	C	0.745573	-0.427743	0.291920
C53	C	1.078906	-0.094410	0.625254
C54	C	1.412240	0.238924	0.958587
C55	C	0.668089	-0.424142	0.289468
C56	C	1.001423	-0.090809	0.622802
C57	C	1.334756	0.242524	0.956135
C58	C	0.891780	-0.638337	0.259835
C59	C	1.225113	-0.305004	0.593169
C60	C	1.558446	0.028329	0.926502
C61	C	0.876910	-0.724814	0.243670
C62	C	1.210244	-0.391481	0.577003
C63	C	1.543577	-0.058147	0.910336
C64	C	0.620975	-0.474180	0.323494
C65	C	0.954309	-0.140846	0.656827
C66	C	1.287642	0.192487	0.990161
C67	C	0.548173	-0.470786	0.321195
C68	C	0.881506	-0.137453	0.654529
C69	C	1.214839	0.195880	0.987862
C70	C	0.522485	-0.417359	0.284866
C71	C	0.855818	-0.084026	0.618200
C72	C	1.189152	0.249308	0.951533
C73	C	0.569605	-0.367316	0.250840
C74	C	0.902939	-0.033983	0.584173
C75	C	1.236272	0.299350	0.917506
C76	C	0.642407	-0.370706	0.253143
C77	C	0.975740	-0.037373	0.586476
C78	C	1.309074	0.295960	0.919810
C79	C	0.305902	-0.401669	0.274209
C80	C	0.639235	-0.068336	0.607543
C81	C	0.972568	0.264998	0.940876
C82	C	0.233094	-0.398284	0.271907
C83	C	0.566427	-0.064951	0.605240
C84	C	0.899760	0.268382	0.938573
C85	C	0.211666	-0.501754	0.342264
C86	C	0.545000	-0.168420	0.675597
C87	C	0.878333	0.164913	1.008931
C88	C	0.284470	-0.505142	0.344561
C89	C	0.617803	-0.171809	0.677894
C90	C	0.951137	0.161524	1.011227
C91	C	0.331584	-0.455097	0.310537
C92	C	0.664917	-0.121764	0.643870
C93	C	0.998251	0.211570	0.977204
N94	N	0.448069	-0.413891	0.282514
N95	N	0.781403	-0.080557	0.615847
N96	N	1.114736	0.252776	0.949180
N97	N	0.405999	-0.458562	0.312894
N98	N	0.739332	-0.125229	0.646227
N99	N	1.072666	0.208105	0.979561
C100	C	1.040085	-1.028866	0.420726
C101	C	1.373418	-0.695532	0.754060
C102	C	1.706752	-0.362199	1.087393
C103	C	1.026091	-1.110122	0.405523
C104	C	1.359425	-0.776789	0.738857
C105	C	1.692758	-0.443456	1.072190
C106	C	0.941246	-1.102255	0.313438
C107	C	1.274579	-0.768922	0.646771
C108	C	1.607913	-0.435589	0.980105
C109	C	0.955235	-1.020996	0.328631
C110	C	1.288568	-0.687663	0.661964
C111	C	1.621902	-0.354330	0.995298
C112	C	1.004654	-0.984308	0.382276
C113	C	1.337988	-0.650975	0.715610
C114	C	1.671321	-0.317641	1.048943
C115	C	0.919805	-0.976439	0.290181
C116	C	1.253138	-0.643106	0.623515
C117	C	1.586471	-0.309772	0.956848
C118	C	0.933790	-0.895187	0.305376
C119	C	1.267123	-0.561854	0.638709
C120	C	1.600457	-0.228520	0.972042
C121	C	0.983205	-0.858493	0.359020
C122	C	1.316539	-0.525159	0.692353
C123	C	1.649872	-0.191826	1.025687
C124	C	1.018640	-0.903056	0.397471
C125	C	1.351973	-0.569723	0.730804
C126	C	1.685306	-0.236390	1.064138
C127	C	0.870382	-1.013129	0.236540
C128	C	1.203715	-0.679795	0.569873
C129	C	1.537048	-0.346462	0.903206
C130	C	0.834951	-0.968571	0.198090
C131	C	1.168285	-0.635238	0.531423
C132	C	1.501618	-0.301904	0.864756
C133	C	0.848940	-0.887318	0.213281
C134	C	1.182273	-0.553984	0.546614
C135	C	1.515607	-0.220651	0.879947
C136	C	0.898356	-0.850623	0.266925
C137	C	1.231689	-0.517290	0.600258
C138	C	1.565022	-0.183957	0.933592
C139	C	0.813506	-0.842754	0.174830
C140	C	1.146839	-0.509421	0.508163
C141	C	1.480172	-0.176087	0.841496
C142	C	0.827491	-0.761502	0.190024
C143	C	1.160824	-0.428169	0.523358
C144	C	1.494158	-0.094836	0.856691
C145	C	0.912341	-0.769372	0.282119
C146	C	1.245674	-0.436038	0.615453
C147	C	1.579007	-0.102705	0.948786
C148	C	1.108500	-0.444701	0.303467
C149	C	1.441833	-0.111368	0.636801
C150	C	1.775167	0.221966	0.970134
C151	C	1.185980	-0.448321	0.305933
C152	C	1.519313	-0.114988	0.639266
C153	C	1.852646	0.218345	0.972599
C154	C	0.918016	-0.443969	0.479510
C155	C	1.251349	-0.110636	0.812843
C156	C	1.584682	0.222698	1.146177
C157	C	0.914322	-0.447278	0.556994
C158	C	1.247656	-0.113944	0.890327
C159	C	1.580989	0.219389	1.223661
C160	C	0.961741	-0.233286	0.335693
C161	C	1.295074	0.100048	0.669027
C162	C	1.628408	0.433381	1.002360
C163	C	0.976681	-0.146813	0.351891
C164	C	1.310014	0.186520	0.685224
C165	C	1.643347	0.519853	1.018558
C166	C	0.935366	-0.428417	0.116574
C167	C	1.268700	-0.095084	0.449907
C168	C	1.602033	0.238249	0.783241
C169	C	0.939233	-0.424896	0.039136
C170	C	1.272566	-0.091563	0.372469
C171	C	1.605899	0.241771	0.705802
C172	C	0.965759	-0.401164	0.604135
C173	C	1.299093	-0.067831	0.937468
C174	C	1.632426	0.265503	1.270802
C175	C	0.962281	-0.404269	0.676940
C176	C	1.295614	-0.070936	1.010273
C177	C	1.628948	0.262397	1.343606
C178	C	0.907368	-0.453493	0.702601
C179	C	1.240701	-0.120159	1.035935
C180	C	1.574034	0.213174	1.369268
C181	C	0.855926	-0.499608	0.655455
C182	C	1.189259	-0.166275	0.988788
C183	C	1.522592	0.167058	1.322122
C184	C	0.859402	-0.496498	0.582652
C185	C	1.192735	-0.163165	0.915985
C186	C	1.526068	0.170168	1.249319
C187	C	0.891267	-0.467902	0.919187
C188	C	1.224600	-0.134568	1.252520
C189	C	1.557933	0.198765	1.585853
C190	C	0.887796	-0.471010	0.991995
C191	C	1.221129	-0.137676	1.325328
C192	C	1.554462	0.195657	1.658662
C193	C	0.994151	-0.375669	1.013475
C194	C	1.327484	-0.042336	1.346808
C195	C	1.660817	0.290997	1.680142
C196	C	0.997624	-0.372567	0.940669
C197	C	1.330958	-0.039234	1.274003
C198	C	1.664291	0.294100	1.607336
C199	C	0.946180	-0.418679	0.893530
C200	C	1.279514	-0.085346	1.226863
C201	C	1.612847	0.247987	1.560196
N202	N	0.903812	-0.456670	0.777019
N203	N	1.237145	-0.123337	1.110352
N204	N	1.570479	0.209997	1.443686
N205	N	0.949733	-0.415498	0.819114
N206	N	1.283067	-0.082164	1.152447
N207	N	1.616400	0.251169	1.485781
H208	H	0.641883	-0.517689	0.353075
H209	H	0.975217	-0.184355	0.686408
H210	H	1.308550	0.148978	1.019741
C211	C	1.058028	-0.318409	0.912449
C212	C	1.391361	0.014924	1.245782
C213	C	1.724694	0.348258	1.579116
N214	N	1.103524	-0.277616	0.891194
N215	N	1.436857	0.055718	1.224527
N216	N	1.770190	0.389051	1.557860
C217	C	1.018867	-0.353542	0.728792
C218	C	1.352200	-0.020208	1.062125
C219	C	1.685534	0.313125	1.395459
N220	N	1.061490	-0.315331	0.767847
N221	N	1.394824	0.018002	1.101181
N222	N	1.728157	0.351336	1.434514
H223	H	0.798639	-0.725223	0.158715
H224	H	1.131972	-0.391890	0.492048
H225	H	1.465306	-0.058556	0.825381
C226	C	0.966704	-0.729010	0.341133
C227	C	1.300037	-0.395677	0.674467
C228	C	1.633371	-0.062343	1.007800
N229	N	1.007646	-0.698610	0.385583
N230	N	1.340979	-0.365276	0.718916
N231	N	1.674312	-0.031943	1.052250
H232	H	0.843076	-0.511095	1.012885
H233	H	1.176410	-0.177762	1.346218
H234	H	1.509743	0.155571	1.679552
C235	C	0.357717	-0.346622	0.236777
C236	C	0.691051	-0.013289	0.570110
C237	C	1.024384	0.320045	0.903443
N238	N	0.396748	-0.305159	0.208579
N239	N	0.730081	0.028174	0.541913
N240	N	1.063414	0.361508	0.875246
H241	H	0.212184	-0.354768	0.242329
H242	H	0.545517	-0.021435	0.575662
H243	H	0.878850	0.311898	0.908996
C244	C	0.886932	-1.142622	0.254387
C245	C	1.220265	-0.809289	0.587721
C246	C	1.553599	-0.475955	0.921054
N247	N	0.846040	-1.173026	0.209893
N248	N	1.179374	-0.839692	0.543226
N249	N	1.512707	-0.506359	0.876559
C250	C	1.026168	-0.347013	0.575915
C251	C	1.359501	-0.013679	0.909248
C252	C	1.692835	0.319654	1.242582
N253	N	1.071668	-0.306222	0.554662
N254	N	1.405001	0.027112	0.887996
N255	N	1.738335	0.360445	1.221329
C256	C	1.050728	-0.324939	1.065335
C257	C	1.384062	0.008394	1.398669
C258	C	1.717395	0.341728	1.732002
N259	N	1.093342	-0.286723	1.104398
N260	N	1.426675	0.046611	1.437731
N261	N	1.760009	0.379944	1.771064
H262	H	0.994592	-0.792332	0.371390
H263	H	1.327925	-0.458999	0.704723
H264	H	1.661258	-0.125665	1.038057
H265	H	0.849385	-0.505462	0.880812
H266	H	1.182719	-0.172128	1.214145
H267	H	1.516052	0.161205	1.547478
H268	H	0.817510	-0.534041	0.544271
H269	H	1.150844	-0.200708	0.877604
H270	H	1.484177	0.132626	1.210938
H271	H	0.858990	-1.079289	0.224176
H272	H	1.192323	-0.745956	0.557510
H273	H	1.525656	-0.412623	0.890843
H274	H	0.680768	-0.329957	0.225440
H275	H	1.014101	0.003377	0.558773
H276	H	1.347435	0.336710	0.892106
H277	H	0.773264	-0.872638	0.131156
H278	H	1.106597	-0.539305	0.464490
H279	H	1.439930	-0.205971	0.797823
C280	C	1.073003	-0.862695	0.456485
C281	C	1.406336	-0.529361	0.789818
C282	C	1.739669	-0.196028	1.123152
N283	N	1.113945	-0.832294	0.500935
N284	N	1.447278	-0.498961	0.834268
N285	N	1.780611	-0.165628	1.167601
H286	H	0.811212	-0.539684	0.676355
H287	H	1.144545	-0.206351	1.009688
H288	H	1.477879	0.126982	1.343021
H289	H	0.509814	-0.511533	0.348902
H290	H	0.843148	-0.178199	0.682236
H291	H	1.176481	0.155134	1.015569
H292	H	0.305378	-0.548650	0.374142
H293	H	0.638712	-0.215317	0.707475
H294	H	0.972045	0.118016	1.040808
H295	H	0.794712	-0.998454	0.154413
H296	H	1.128046	-0.665121	0.487747
H297	H	1.461379	-0.331787	0.821080
C298	C	1.065072	-1.159134	0.447826
C299	C	1.398405	-0.825800	0.781159
C300	C	1.731738	-0.492467	1.114493
N301	N	1.094430	-1.196048	0.479689
N302	N	1.427763	-0.862715	0.813022
N303	N	1.761097	-0.529382	1.146355
H304	H	0.548685	-0.323811	0.221263
H305	H	0.882019	0.009522	0.554596
H306	H	1.215352	0.342855	0.887930
C307	C	0.159836	-0.556794	0.379694
C308	C	0.493170	-0.223461	0.713027
C309	C	0.826503	0.109872	1.046360
N310	N	0.120798	-0.598250	0.407890
N311	N	0.454131	-0.264917	0.741223
N312	N	0.787464	0.068416	1.074557
H313	H	1.080333	-0.998993	0.464405
H314	H	1.413666	-0.665660	0.797738
H315	H	1.746999	-0.332326	1.131072
