data_functionalizedCrystal
_audit_creation_method	'MofGen! by Chris Wilmer'
_symmetry_space_group_name_H-M	'P1'
_symmetry_Int_Tables_number	1
_symmetry_cell_setting	triclinic
loop_
_symmetry_equiv_pos_as_xyz
  x,y,z
_cell_length_a	18.101398
_cell_length_b	21.295417
_cell_length_c	18.101389
_cell_angle_alpha	90.022566
_cell_angle_beta	90.009745
_cell_angle_gamma	90.026064
loop_
_atom_site_label
_atom_site_type_symbol
_atom_site_fract_x
_atom_site_fract_y
_atom_site_fract_z
Zn1	Zn	1.132124	-0.250750	0.418529
Zn2	Zn	1.632124	0.249250	0.918529
Zn3	Zn	1.132021	-0.356003	0.294679
Zn4	Zn	1.632021	0.143997	0.794679
Zn5	Zn	1.008283	-0.250744	0.294722
Zn6	Zn	1.508283	0.249256	0.794722
Zn7	Zn	1.008235	-0.355977	0.418499
Zn8	Zn	1.508235	0.144023	0.918499
O9	O	1.070166	-0.303369	0.356607
O10	O	1.570166	0.196631	0.856607
O11	O	1.235743	-0.264726	0.402095
O12	O	1.735743	0.235274	0.902095
O13	O	1.115584	-0.342049	0.191052
O14	O	1.615584	0.157951	0.691052
O15	O	1.024774	-0.162655	0.311176
O16	O	1.524774	0.337345	0.811176
O17	O	1.235668	-0.342055	0.311102
O18	O	1.735668	0.157945	0.811102
O19	O	1.115759	-0.162660	0.402137
O20	O	1.615759	0.337340	0.902137
O21	O	1.024674	-0.264715	0.191083
O22	O	1.524674	0.235285	0.691083
O23	O	0.904644	-0.264690	0.311147
O24	O	1.404644	0.235310	0.811147
O25	O	1.024692	-0.342010	0.522136
O26	O	1.524692	0.157990	1.022136
O27	O	0.904608	-0.342004	0.402085
O28	O	1.404608	0.157996	0.902085
O29	O	1.115713	-0.264700	0.522158
O30	O	1.615713	0.235300	1.022158
O31	O	1.115538	-0.444089	0.311073
O32	O	1.615538	0.055911	0.811073
O33	O	1.024592	-0.444070	0.402043
O34	O	1.524592	0.055930	0.902043
C35	C	0.877755	-0.303344	0.356618
C36	C	1.377755	0.196656	0.856618
C37	C	0.795441	-0.303348	0.356640
C38	C	1.295441	0.196652	0.856640
C39	C	0.496350	-0.303385	0.356609
C40	C	0.996350	0.196615	0.856609
C41	C	0.527678	-0.352265	0.413542
C42	C	1.027678	0.147735	0.913542
C43	C	0.613296	-0.352112	0.413776
C44	C	1.113296	0.147888	0.913776
C45	C	0.644733	-0.303368	0.356624
C46	C	1.144733	0.196632	0.856624
C47	C	0.613677	-0.237068	0.377957
C48	C	1.113677	0.262932	0.877957
C49	C	0.528032	-0.237361	0.378362
C50	C	1.028032	0.262639	0.878362
C51	C	0.527898	-0.320222	0.278204
C52	C	1.027898	0.179778	0.778204
C53	C	0.613548	-0.321676	0.278623
C54	C	1.113548	0.178324	0.778623
C55	C	0.728592	-0.303353	0.356631
C56	C	1.228592	0.196647	0.856631
C57	C	0.412491	-0.303395	0.356603
C58	C	0.912491	0.196605	0.856603
C59	C	1.070069	-0.466920	0.356566
C60	C	1.570069	0.033080	0.856566
C61	C	1.070095	-0.536888	0.356573
C62	C	1.570095	-0.036888	0.856573
C63	C	1.117492	-0.569744	0.309254
C64	C	1.617492	-0.069744	0.809254
C65	C	1.117527	-0.635487	0.309270
C66	C	1.617527	-0.135487	0.809270
C67	C	1.070151	-0.668371	0.356599
C68	C	1.570151	-0.168371	0.856599
C69	C	1.022751	-0.635507	0.403928
C70	C	1.522751	-0.135507	0.903928
C71	C	1.022722	-0.569766	0.403915
C72	C	1.522722	-0.069766	0.903915
N73	N	1.005367	-0.771633	0.362248
N74	N	1.505367	-0.271633	0.862248
N75	N	1.005396	-0.834084	0.362256
N76	N	1.505396	-0.334084	0.862256
C77	C	1.070234	-0.866445	0.356641
C78	C	1.570234	-0.366445	0.856641
N79	N	1.135044	-0.833996	0.351004
N80	N	1.635044	-0.333996	0.851004
N81	N	1.135014	-0.771539	0.350993
N82	N	1.635014	-0.271539	0.850993
C83	C	1.070177	-0.739656	0.356618
C84	C	1.570177	-0.239656	0.856618
C85	C	1.117673	-0.970587	0.309337
C86	C	1.617673	-0.470587	0.809337
C87	C	1.117709	-1.036331	0.309359
C88	C	1.617709	-0.536331	0.809359
C89	C	1.022926	-1.036350	0.404013
C90	C	1.522926	-0.536350	0.904013
C91	C	1.022897	-0.970607	0.403995
C92	C	1.522897	-0.470607	0.903995
C93	C	1.070269	-0.937730	0.356653
C94	C	1.570269	-0.437730	0.856653
C95	C	1.263328	-0.303394	0.356597
C96	C	1.763328	0.196606	0.856597
C97	C	1.345642	-0.303405	0.356593
C98	C	1.845642	0.196595	0.856593
C99	C	1.070209	-0.303353	0.549769
C100	C	1.570209	0.196647	1.049769
C101	C	1.070227	-0.303346	0.632083
C102	C	1.570227	0.196654	1.132083
C103	C	1.070283	-0.139178	0.356665
C104	C	1.570283	0.360822	0.856665
C105	C	1.070334	-0.069210	0.356689
C106	C	1.570334	0.430790	0.856689
C107	C	1.070166	-0.303339	0.164197
C108	C	1.570166	0.196661	0.664197
C109	C	1.070291	-0.303168	0.081883
C110	C	1.570291	0.196832	0.581883
C111	C	1.070270	-0.303228	0.931174
C112	C	1.570270	0.196772	1.431174
C113	C	1.012805	-0.351714	0.899835
C114	C	1.512805	0.148286	1.399835
C115	C	1.012960	-0.351939	0.814217
C116	C	1.512960	0.148061	1.314217
C117	C	1.070248	-0.303286	0.782792
C118	C	1.570248	0.196714	1.282792
C119	C	1.148273	-0.321298	0.813876
C120	C	1.648273	0.178702	1.313876
C121	C	1.147953	-0.321617	0.899521
C122	C	1.647953	0.178383	1.399521
C123	C	1.050388	-0.236622	0.899609
C124	C	1.550388	0.263378	1.399609
C125	C	1.048652	-0.237006	0.813959
C126	C	1.548652	0.262994	1.313959
C127	C	1.070240	-0.303318	0.698932
C128	C	1.570240	0.196682	1.198932
C129	C	1.070283	-0.303197	1.015034
C130	C	1.570283	0.196803	1.515034
H131	H	0.507063	-0.401591	0.400320
H132	H	1.007063	0.098409	0.900320
Cl133	Cl	1.174749	-0.395674	0.780761
Cl134	Cl	1.674749	0.104326	1.280761
Cl135	Cl	1.033269	-0.428156	0.782576
Cl136	Cl	1.533269	0.071844	1.282576
H137	H	0.994480	-0.220212	0.921211
H138	H	1.494480	0.279788	1.421211
Cl139	Cl	0.959995	-0.216036	0.782603
Cl140	Cl	1.459995	0.283964	1.282603
H141	H	0.506167	-0.341268	0.471298
H142	H	1.006167	0.158732	0.971298
H143	H	0.634041	-0.199662	0.337784
H144	H	1.134041	0.300338	0.837784
Cl145	Cl	0.963304	-0.929300	0.463482
Cl146	Cl	1.463304	-0.429300	0.963482
H147	H	1.156067	-0.542977	0.270707
H148	H	1.656067	-0.042977	0.770707
Cl149	Cl	1.115007	-0.180847	0.930901
Cl150	Cl	1.615007	0.319153	1.430901
H151	H	0.984355	-1.063123	0.442552
H152	H	1.484355	-0.563123	0.942552
H153	H	0.633799	-0.340973	0.471868
H154	H	1.133799	0.159027	0.971868
Cl155	Cl	1.177225	-0.929252	0.249823
Cl156	Cl	1.677225	-0.429252	0.749823
H157	H	0.508071	-0.223080	0.435679
H158	H	1.008071	0.276920	0.935679
Cl159	Cl	0.923631	-0.334534	0.781765
Cl160	Cl	1.423631	0.165466	1.281765
H161	H	0.984178	-0.662285	0.442464
H162	H	1.484178	-0.162285	0.942464
Cl163	Cl	1.177305	-1.077636	0.249871
Cl164	Cl	1.677305	-0.577636	0.749871
Cl165	Cl	0.494518	-0.393581	0.248266
Cl166	Cl	0.994518	0.106419	0.748266
Cl167	Cl	1.177115	-0.676800	0.249777
Cl168	Cl	1.677115	-0.176800	0.749777
H169	H	0.954772	-0.340558	0.920437
H170	H	1.454772	0.159442	1.420437
H171	H	1.025801	-0.400784	0.921353
H172	H	1.525801	0.099216	1.421353
H173	H	0.633852	-0.370463	0.262534
H174	H	1.133852	0.129537	0.762534
Cl175	Cl	1.108565	-0.178269	0.780946
Cl176	Cl	1.608565	0.321731	1.280946
Cl177	Cl	1.173974	-0.396790	0.930364
Cl178	Cl	1.673974	0.103210	1.430364
Cl179	Cl	1.216156	-0.268489	0.782454
Cl180	Cl	1.716156	0.231511	1.282454
Cl181	Cl	0.645715	-0.428026	0.393164
Cl182	Cl	1.145715	0.071974	0.893164
H183	H	1.192220	-0.287834	0.920253
H184	H	1.692220	0.212166	1.420253
H185	H	0.507310	-0.199638	0.338796
H186	H	1.007310	0.300362	0.838796
H187	H	0.634947	-0.288659	0.233925
H188	H	1.134947	0.211341	0.733925
Cl189	Cl	0.646812	-0.214618	0.465490
Cl190	Cl	1.146812	0.285382	0.965490
Cl191	Cl	0.496618	-0.265255	0.212709
Cl192	Cl	0.996618	0.234745	0.712709
Cl193	Cl	0.963132	-0.528459	0.463407
Cl194	Cl	1.463132	-0.028459	0.963407
