data_functionalizedCrystal
_audit_creation_method	'MofGen! by Chris Wilmer'
_symmetry_space_group_name_H-M	'P1'
_symmetry_Int_Tables_number	1
_symmetry_cell_setting	triclinic
loop_
_symmetry_equiv_pos_as_xyz
  x,y,z
_cell_length_a	12.759401
_cell_length_b	16.625546
_cell_length_c	16.625539
_cell_angle_alpha	90.030397
_cell_angle_beta	90.017397
_cell_angle_gamma	90.022629
loop_
_atom_site_label
_atom_site_type_symbol
_atom_site_fract_x
_atom_site_fract_y
_atom_site_fract_z
Zn1	Zn	1.606187	-0.320997	0.455829
Zn2	Zn	2.106187	0.179003	0.955829
Zn3	Zn	1.606061	-0.455840	0.320992
Zn4	Zn	2.106061	0.044160	0.820992
Zn5	Zn	1.430493	-0.321025	0.321017
Zn6	Zn	1.930493	0.178975	0.821017
Zn7	Zn	1.430454	-0.455791	0.455789
Zn8	Zn	1.930454	0.044209	0.955789
O9	O	1.518299	-0.388413	0.388407
O10	O	2.018299	0.111587	0.888407
O11	O	1.753192	-0.338892	0.437949
O12	O	2.253192	0.161108	0.937949
O13	O	1.582735	-0.437989	0.208163
O14	O	2.082735	0.062011	0.708163
O15	O	1.453868	-0.208189	0.338928
O16	O	1.953868	0.291811	0.838928
O17	O	1.753099	-0.437961	0.338884
O18	O	2.253099	0.062039	0.838884
O19	O	1.582950	-0.208168	0.437974
O20	O	2.082950	0.291832	0.937974
O21	O	1.453745	-0.338941	0.208182
O22	O	1.953745	0.161059	0.708182
O23	O	1.283466	-0.338894	0.338889
O24	O	1.783466	0.161106	0.838889
O25	O	1.453802	-0.437878	0.568627
O26	O	1.953802	0.062122	1.068627
O27	O	1.283438	-0.437906	0.437905
O28	O	1.783438	0.062094	0.937905
O29	O	1.582913	-0.338845	0.568656
O30	O	2.082913	0.161155	1.068656
O31	O	1.582698	-0.568666	0.338845
O32	O	2.082698	-0.068666	0.838845
O33	O	1.453680	-0.568630	0.437880
O34	O	1.953680	-0.068630	0.937880
C35	C	1.245331	-0.388399	0.388396
C36	C	1.745331	0.111601	0.888396
C37	C	1.128555	-0.388412	0.388410
C38	C	1.628555	0.111588	0.888410
C39	C	1.073705	-0.440050	0.439883
C40	C	1.573705	0.059950	0.939883
C41	C	0.963981	-0.440060	0.439892
C42	C	1.463981	0.059940	0.939892
C43	C	0.963966	-0.336792	0.336949
C44	C	1.463966	0.163208	0.836949
C45	C	1.073688	-0.336778	0.336944
C46	C	1.573688	0.163222	0.836944
C47	C	1.073714	-0.499673	0.499314
C48	C	1.573714	0.000327	0.999314
C49	C	0.963990	-0.499684	0.499322
C50	C	1.463990	0.000316	0.999322
C51	C	1.518199	-0.597904	0.388373
C52	C	2.018199	-0.097904	0.888373
C53	C	1.518253	-0.687525	0.388386
C54	C	2.018253	-0.187525	0.888386
C55	C	1.518436	-1.015701	0.388470
C56	C	2.018436	-0.515701	0.888470
C57	C	1.518382	-0.924392	0.388448
C58	C	2.018382	-0.424392	0.888448
C59	C	1.518344	-0.851616	0.388427
C60	C	2.018344	-0.351616	0.888427
C61	C	1.518291	-0.760302	0.388407
C62	C	2.018291	-0.260302	0.888407
C63	C	1.792332	-0.388429	0.388418
C64	C	2.292332	0.111571	0.888418
C65	C	1.909109	-0.388435	0.388423
C66	C	2.409109	0.111565	0.888423
C67	C	1.518367	-0.388353	0.598716
C68	C	2.018367	0.111647	1.098716
C69	C	1.518396	-0.388328	0.688337
C70	C	2.018396	0.111672	1.188337
C71	C	1.518427	-0.178104	0.388458
C72	C	2.018427	0.321896	0.888458
C73	C	1.518482	-0.088483	0.388480
C74	C	2.018482	0.411517	0.888480
C75	C	1.518291	-0.388415	0.178916
C76	C	2.018291	0.111585	0.678916
C77	C	1.518466	-0.388213	0.089295
C78	C	2.018466	0.111787	0.589295
C79	C	1.518445	-0.388237	1.016513
C80	C	2.018445	0.111763	1.516513
C81	C	1.518428	-0.388265	0.925204
C82	C	2.018428	0.111735	1.425204
C83	C	1.518421	-0.388283	0.852428
C84	C	2.018421	0.111717	1.352428
C85	C	1.518403	-0.388310	0.761114
C86	C	2.018403	0.111690	1.261114
H87	H	0.919279	-0.294753	0.295048
H88	H	1.419279	0.205247	0.795048
H89	H	1.118342	-0.294724	0.295036
H90	H	1.618342	0.205276	0.795036
H91	H	0.934183	-0.562114	0.482485
H92	H	1.434183	-0.062114	0.982485
H93	H	1.103523	-0.483026	0.561791
H94	H	1.603523	0.016974	1.061791
H95	H	1.107718	-0.558959	0.476834
H96	H	1.607718	-0.058959	0.976834
N97	N	0.918946	-0.470096	0.577927
N98	N	1.418946	0.029904	1.077927
H99	H	0.977884	-0.455805	0.615907
H100	H	1.477884	0.044195	1.115907
H101	H	0.874336	-0.513754	0.602659
H102	H	1.374336	-0.013754	1.102659
