data_functionalizedCrystal
_audit_creation_method	'MofGen! by Chris Wilmer'
_symmetry_space_group_name_H-M	'P1'
_symmetry_Int_Tables_number	1
_symmetry_cell_setting	triclinic
loop_
_symmetry_equiv_pos_as_xyz
  x,y,z
_cell_length_a	6.817900
_cell_length_b	12.200722
_cell_length_c	12.200875
_cell_angle_alpha	93.008822
_cell_angle_beta	107.143593
_cell_angle_gamma	107.140920
loop_
_atom_site_label
_atom_site_type_symbol
_atom_site_fract_x
_atom_site_fract_y
_atom_site_fract_z
V1	V	-4.086871	-0.158974	-0.357783
V2	V	-3.836871	0.091026	-0.107783
V3	V	-3.586871	0.341026	0.142217
V4	V	-3.336871	0.591026	0.392217
O5	O	-4.054179	0.007371	-0.350847
O6	O	-3.804179	0.257371	-0.100847
O7	O	-3.554179	0.507371	0.149153
O8	O	-3.304179	0.757371	0.399153
O9	O	-4.056310	-0.314960	-0.355457
O10	O	-3.806310	-0.064960	-0.105457
O11	O	-3.556310	0.185040	0.144543
O12	O	-3.306310	0.435040	0.394543
O13	O	-4.056323	-0.156646	-0.513769
O14	O	-3.806323	0.093354	-0.263769
O15	O	-3.556323	0.343354	-0.013769
O16	O	-3.306323	0.593354	0.236231
O17	O	-4.054166	-0.152039	-0.191438
O18	O	-3.804166	0.097961	0.058562
O19	O	-3.554166	0.347961	0.308562
O20	O	-3.304166	0.597961	0.558562
V21	V	-4.565875	-0.139063	-0.337872
V22	V	-4.315875	0.110937	-0.087872
V23	V	-4.065875	0.360937	0.162128
V24	V	-3.815875	0.610937	0.412128
O25	O	-4.358044	-0.202649	-0.401459
O26	O	-4.108044	0.047351	-0.151459
O27	O	-3.858044	0.297351	0.098541
O28	O	-3.608044	0.547351	0.348541
O29	O	-4.744899	-0.095387	-0.294196
O30	O	-4.494899	0.154613	-0.044196
O31	O	-4.244899	0.404613	0.205804
O32	O	-3.994899	0.654613	0.455804
O33	O	-4.373230	0.016924	-0.340199
O34	O	-4.123230	0.266924	-0.090199
O35	O	-3.873230	0.516924	0.159801
O36	O	-3.623230	0.766924	0.409801
O37	O	-4.715964	-0.305408	-0.344808
O38	O	-4.465964	-0.055408	-0.094808
O39	O	-4.215964	0.194592	0.155192
O40	O	-3.965964	0.444592	0.405192
O41	O	-4.715977	-0.145998	-0.504217
O42	O	-4.465977	0.104002	-0.254217
O43	O	-4.215977	0.354002	-0.004217
O44	O	-3.965977	0.604002	0.245783
O45	O	-4.373217	-0.141391	-0.181886
O46	O	-4.123217	0.108609	0.068114
O47	O	-3.873217	0.358609	0.318114
O48	O	-3.623217	0.608609	0.568114
C49	C	-3.905073	-0.352982	-0.349844
C50	C	-3.655073	-0.102982	-0.099844
C51	C	-3.405073	0.147018	0.150156
C52	C	-3.155073	0.397018	0.400156
C53	C	-3.961491	-0.480504	-0.348981
C54	C	-3.711491	-0.230504	-0.098981
C55	C	-3.461491	0.019496	0.151019
C56	C	-3.211491	0.269496	0.401019
C57	C	-3.905088	-0.151036	-0.551786
C58	C	-3.655088	0.098964	-0.301786
C59	C	-3.405088	0.348964	-0.051786
C60	C	-3.155088	0.598964	0.198214
C61	C	-3.961513	-0.150165	-0.679306
C62	C	-3.711513	0.099835	-0.429306
C63	C	-3.461513	0.349835	-0.179306
C64	C	-3.211513	0.599835	0.070694
C65	C	-4.007301	-0.584064	-0.348270
C66	C	-3.757301	-0.334064	-0.098270
C67	C	-3.507301	-0.084064	0.151730
C68	C	-3.257301	0.165936	0.401730
C69	C	-4.064792	-0.713986	-0.347384
C70	C	-3.814792	-0.463986	-0.097384
C71	C	-3.564792	-0.213986	0.152616
C72	C	-3.314792	0.036014	0.402616
C73	C	-4.064778	-0.148571	-0.912780
C74	C	-3.814778	0.101429	-0.662780
C75	C	-3.564778	0.351429	-0.412780
C76	C	-3.314778	0.601429	-0.162780
C77	C	-4.007305	-0.149457	-0.782858
C78	C	-3.757305	0.100543	-0.532858
C79	C	-3.507305	0.350543	-0.282858
C80	C	-3.257305	0.600543	-0.032858
C81	C	-4.187809	0.054940	-0.345808
C82	C	-3.937809	0.304940	-0.095808
C83	C	-3.687809	0.554940	0.154192
C84	C	-3.437809	0.804940	0.404192
C85	C	-4.110630	0.182460	-0.346678
C86	C	-3.860630	0.432460	-0.096678
C87	C	-3.610630	0.682460	0.153322
C88	C	-3.360630	0.932460	0.403322
C89	C	-4.187793	-0.147005	-0.143863
C90	C	-3.937793	0.102995	0.106137
C91	C	-3.687793	0.352995	0.356137
C92	C	-3.437793	0.602995	0.606137
C93	C	-4.110606	-0.147870	-0.016342
C94	C	-3.860606	0.102130	0.233658
C95	C	-3.610606	0.352130	0.483658
C96	C	-3.360606	0.602130	0.733658
