data_functionalizedCrystal
_audit_creation_method	'MofGen! by Chris Wilmer'
_symmetry_space_group_name_H-M	'P1'
_symmetry_Int_Tables_number	1
_symmetry_cell_setting	triclinic
loop_
_symmetry_equiv_pos_as_xyz
  x,y,z
_cell_length_a	10.723024
_cell_length_b	10.723023
_cell_length_c	9.798715
_cell_angle_alpha	90.005564
_cell_angle_beta	89.999408
_cell_angle_gamma	95.532291
loop_
_atom_site_label
_atom_site_type_symbol
_atom_site_fract_x
_atom_site_fract_y
_atom_site_fract_z
O1	O	-1.657180	0.175031	0.113499
O2	O	-1.294028	0.191785	0.113499
O3	O	-1.483981	0.001832	0.113493
O4	O	-1.467227	0.364984	0.113504
O5	O	-1.483980	0.001818	-0.113489
O6	O	-1.294027	0.191770	-0.113483
O7	O	-1.657179	0.175017	-0.113483
Zn8	Zn	-1.475603	0.183392	-0.149522
Zn9	Zn	-1.475604	0.183410	0.149537
O10	O	-1.467226	0.364970	-0.113478
C11	C	-1.247528	0.190558	0.000008
C12	C	-1.108973	0.186911	0.000008
C13	C	-1.482762	-0.044675	0.000004
C14	C	-1.479114	-0.183229	0.000008
C15	C	-1.033991	0.293198	0.000011
C16	C	-0.890787	0.289431	0.000011
C17	C	-0.703679	0.176243	0.000008
C18	C	-0.842234	0.179891	0.000008
C19	C	-1.477489	-0.244988	0.117593
C20	C	-1.473719	-0.388191	0.117601
C21	C	-1.468445	0.411477	0.000015
C22	C	-1.472093	0.550031	0.000019
N23	N	-1.475605	0.183414	0.353637
N24	N	-1.475612	0.183378	-0.353621
C25	C	-1.555535	0.103480	0.421411
C26	C	-1.555539	0.103460	0.578574
H27	H	-0.826354	0.380421	0.000019
H28	H	-1.623966	0.035020	0.636857
H29	H	-1.478882	-0.191843	0.218257
H30	H	-1.477707	-0.236372	-0.100656
H31	H	-1.075812	0.386984	0.000007
C32	C	-1.383157	0.275851	0.432419
C33	C	-1.287380	0.226149	0.530674
C34	C	-1.194929	0.318590	0.609452
C35	C	-1.198255	0.460732	0.589975
C36	C	-1.294036	0.510440	0.491715
C37	C	-1.386487	0.418000	0.412937
H38	H	-1.284915	0.120921	0.545096
H39	H	-1.124026	0.281791	0.682190
H40	H	-1.129817	0.529161	0.648291
H41	H	-1.296501	0.615669	0.477293
H42	H	-1.457390	0.454799	0.340199
C43	C	-1.647984	0.011042	0.342632
C44	C	-1.647851	0.011191	0.185476
C45	C	-1.740304	-0.081251	0.106702
C46	C	-1.832890	-0.173842	0.185085
C47	C	-1.833026	-0.173995	0.342250
C48	C	-1.740573	-0.081553	0.421024
H49	H	-1.579311	0.079735	0.127444
H50	H	-1.740203	-0.081138	-0.009642
H51	H	-1.901329	-0.242273	0.126772
H52	H	-1.901567	-0.242539	0.400282
H53	H	-1.740675	-0.081666	0.537368
H54	H	-1.472327	-0.441302	0.218270
H55	H	-1.067152	0.093125	0.000039
C56	C	-0.929260	0.056955	0.000004
C57	C	-0.922950	-0.037227	-0.117865
C58	C	-1.009987	-0.160163	-0.117868
C59	C	-1.103334	-0.188917	-0.000004
C60	C	-1.109649	-0.094733	0.117874
C61	C	-1.022611	0.028203	0.117877
H62	H	-0.853845	-0.015944	-0.205123
H63	H	-1.005312	-0.229885	-0.205130
H64	H	-1.167764	-0.279922	-0.000006
H65	H	-1.178753	-0.116016	0.205132
H66	H	-1.027286	0.097924	0.205139
C67	C	-1.473981	-0.378239	-0.135993
C68	C	-1.368165	-0.275463	-0.169903
C69	C	-1.370053	-0.203723	-0.305915
C70	C	-1.477758	-0.234759	-0.408017
C71	C	-1.583582	-0.337540	-0.374110
C72	C	-1.581693	-0.409281	-0.238098
H73	H	-1.288428	-0.252484	-0.094318
H74	H	-1.291715	-0.127637	-0.331014
H75	H	-1.479156	-0.181653	-0.508702
H76	H	-1.663318	-0.360520	-0.449695
H77	H	-1.660032	-0.485366	-0.212999
H78	H	-1.407172	0.251812	0.588104
