data_functionalizedCrystal
_audit_creation_method	'MofGen! by Chris Wilmer'
_symmetry_space_group_name_H-M	'P1'
_symmetry_Int_Tables_number	1
_symmetry_cell_setting	triclinic
loop_
_symmetry_equiv_pos_as_xyz
  x,y,z
_cell_length_a	13.033293
_cell_length_b	12.759394
_cell_length_c	13.032268
_cell_angle_alpha	97.149444
_cell_angle_beta	89.079182
_cell_angle_gamma	97.184672
loop_
_atom_site_label
_atom_site_type_symbol
_atom_site_fract_x
_atom_site_fract_y
_atom_site_fract_z
Zn1	Zn	1.498477	-0.326863	-0.781488
Zn2	Zn	1.520227	-0.477844	-0.609518
Zn3	Zn	1.348337	-0.321315	-0.587664
Zn4	Zn	1.326480	-0.521641	-0.759559
O5	O	1.423380	-0.411916	-0.684557
O6	O	1.645280	-0.330884	-0.777000
O7	O	1.515675	-0.436429	-0.462710
O8	O	1.368299	-0.175028	-0.613407
O9	O	1.661260	-0.441809	-0.650654
O10	O	1.478606	-0.179104	-0.755809
O11	O	1.389389	-0.321428	-0.446654
O12	O	1.201520	-0.363896	-0.592142
O13	O	1.331046	-0.516454	-0.906376
O14	O	1.185461	-0.511074	-0.718433
O15	O	1.457412	-0.373352	-0.922488
O16	O	1.494481	-0.630676	-0.629389
O17	O	1.352136	-0.662854	-0.739624
C18	C	1.156174	-0.441637	-0.650537
C19	C	1.041859	-0.454380	-0.636007
C20	C	0.982975	-0.405291	-0.692140
C21	C	0.864824	-0.418461	-0.677124
C22	C	1.423322	-0.684887	-0.684524
C23	C	1.423386	-0.801659	-0.684557
C24	C	1.571697	-0.768103	-0.569881
C25	C	1.645877	-0.806184	-0.512558
C26	C	1.645934	-0.915903	-0.512594
C27	C	1.571804	-0.987545	-0.569961
C28	C	1.497624	-0.949463	-0.627283
C29	C	1.497573	-0.839740	-0.627239
C30	C	1.349320	-0.983020	-0.741963
C31	C	1.349257	-0.873301	-0.741923
C32	C	1.275190	-1.054662	-0.799330
C33	C	1.201003	-1.016581	-0.856648
C34	C	1.200949	-0.906854	-0.856609
C35	C	1.275076	-0.835220	-0.799246
C36	C	1.691630	-0.382080	-0.718711
C37	C	1.805942	-0.369365	-0.733265
C38	C	1.389364	-0.450407	-0.952789
C39	C	1.374869	-0.466810	-1.067094
C40	C	1.423464	-0.137879	-0.684616
C41	C	1.423500	-0.021101	-0.684641
C42	C	1.430930	-0.403319	-1.126026
C43	C	1.415949	-0.420271	-1.244166
C44	C	1.457323	-0.373491	-0.417376
C45	C	1.472018	-0.356771	-0.303097
H46	H	1.004802	-0.506154	-0.576832
H47	H	0.842994	-0.317579	-0.792438
H48	H	1.020033	-0.353510	-0.751310
H49	H	1.571646	-0.678762	-0.569831
H50	H	1.706235	-0.747844	-0.465853
H51	H	1.531103	-0.289853	-1.266094
O52	O	0.820458	-0.480235	-0.606602
C53	C	0.662254	-0.549597	-0.527267
C54	C	0.712363	-0.479628	-0.607182
H55	H	0.574854	-0.549111	-0.527694
H56	H	0.680960	-0.634614	-0.547833
H57	H	0.693873	-0.516801	-0.447049
H58	H	0.680773	-0.512329	-0.687428
H59	H	0.693663	-0.394620	-0.586526
H60	H	1.706342	-0.946907	-0.465923
O61	O	1.275128	-1.161277	-0.799522
C62	C	1.193795	-1.337141	-0.862465
C63	C	1.193765	-1.216427	-0.862356
H64	H	1.128007	-1.381764	-0.913244
H65	H	1.270688	-1.361128	-0.894065
H66	H	1.182673	-1.357894	-0.780094
H67	H	1.204847	-1.195585	-0.944697
H68	H	1.116871	-1.192504	-0.830697
H69	H	1.490012	-0.336409	-1.089018
O70	O	1.571982	-1.094091	-0.569854
C71	C	1.653486	-1.233133	-0.507048
C72	C	1.653389	-1.112442	-0.507056
H73	H	1.719310	-1.248009	-0.456299
H74	H	1.576627	-1.268841	-0.475467
H75	H	1.664633	-1.271904	-0.589445
H76	H	1.642283	-1.073581	-0.424690
H77	H	1.730250	-1.076813	-0.538696
O78	O	1.345534	-0.500079	-1.288474
C79	C	1.266334	-0.589673	-1.446614
C80	C	1.346127	-0.499267	-1.396572
H81	H	1.266772	-0.589033	-1.534017
H82	H	1.287018	-0.669414	-1.427913
H83	H	1.186080	-0.577456	-1.414941
H84	H	1.426410	-0.511383	-1.428216
H85	H	1.325355	-0.419559	-1.415267
H86	H	1.140657	-1.074919	-0.903357
O87	O	1.304458	-0.546614	-1.111406
C88	C	1.225258	-0.636208	-1.269546
C89	C	1.305051	-0.545802	-1.219504
H90	H	1.225696	-0.635568	-1.356949
H91	H	1.245941	-0.715949	-1.250845
H92	H	1.145004	-0.623990	-1.237873
H93	H	1.385333	-0.557918	-1.251149
H94	H	1.284279	-0.466094	-1.238200
H95	H	1.140546	-0.875857	-0.903293
H96	H	1.275033	-0.745879	-0.799201
