data_functionalizedCrystal
_audit_creation_method	'MofGen! by Chris Wilmer'
_symmetry_space_group_name_H-M	'P1'
_symmetry_Int_Tables_number	1
_symmetry_cell_setting	triclinic
loop_
_symmetry_equiv_pos_as_xyz
  x,y,z
_cell_length_a	10.723024
_cell_length_b	9.198806
_cell_length_c	9.065218
_cell_angle_alpha	90.001336
_cell_angle_beta	84.741877
_cell_angle_gamma	90.003648
loop_
_atom_site_label
_atom_site_type_symbol
_atom_site_fract_x
_atom_site_fract_y
_atom_site_fract_z
O1	O	1.658028	0.120877	0.206939
O2	O	1.294956	0.120881	0.226747
O3	O	1.483997	0.120876	0.002158
O4	O	1.468988	0.120882	0.431528
O5	O	1.483982	-0.120909	0.002157
O6	O	1.294941	-0.120904	0.226746
O7	O	1.658013	-0.120908	0.206938
Cu8	Cu	1.476476	-0.142983	0.216842
Cu9	Cu	1.476494	0.142956	0.216843
O10	O	1.468973	-0.120903	0.431527
C11	C	1.248443	-0.000011	0.225305
C12	C	1.109872	-0.000009	0.220992
C13	C	0.917570	-0.000008	0.087024
C14	C	1.060792	-0.000010	0.091479
N15	N	1.476472	-0.344097	0.216841
C16	C	1.555843	-0.416296	0.122126
C17	C	1.555863	-0.583709	0.122121
C18	C	1.704526	-0.000013	0.208380
C19	C	1.843098	-0.000006	0.212693
C20	C	1.482547	-0.000014	-0.052821
C21	C	1.478234	-0.000007	-0.216639
N22	N	1.476507	0.344070	0.216833
C23	C	1.470423	-0.000010	0.486506
C24	C	1.474736	-0.000007	0.650324
H25	H	1.124787	-0.000003	-0.016103
C26	C	1.647667	-0.667584	0.012569
N27	N	1.716814	-0.730764	-0.069950
H28	H	0.885371	-0.000013	0.323580
H29	H	1.623778	-0.354172	0.041035
H30	H	1.408529	-0.406223	0.297920
C31	C	0.860468	-0.000013	-0.062785
N32	N	0.817461	-0.000014	-0.175625
C33	C	1.384699	-0.572064	0.326388
N34	N	1.315547	-0.508885	0.408903
C35	C	1.023427	-0.000007	0.366343
N36	N	0.958308	-0.000009	0.475820
