data_functionalizedCrystal
_audit_creation_method	'MofGen! by Chris Wilmer'
_symmetry_space_group_name_H-M	'P1'
_symmetry_Int_Tables_number	1
_symmetry_cell_setting	triclinic
loop_
_symmetry_equiv_pos_as_xyz
  x,y,z
_cell_length_a	8.559649
_cell_length_b	19.188930
_cell_length_c	7.088929
_cell_angle_alpha	83.792352
_cell_angle_beta	95.325015
_cell_angle_gamma	76.461723
loop_
_atom_site_label
_atom_site_type_symbol
_atom_site_fract_x
_atom_site_fract_y
_atom_site_fract_z
O1	O	2.103838	-0.015637	-0.158953
O2	O	1.638380	0.020435	-0.158972
O3	O	1.884545	-0.099961	-0.158924
O4	O	1.857673	0.104759	-0.159000
O5	O	1.917443	-0.116083	0.159057
O6	O	1.671278	0.004313	0.159009
O7	O	2.136736	-0.031759	0.159029
Cu8	Cu	1.907011	-0.015195	0.188053
Cu9	Cu	1.868105	0.003871	-0.187997
O10	O	1.890571	0.088637	0.158981
C11	C	1.595280	0.015108	0.000017
C12	C	1.417842	0.023245	0.000011
C13	C	1.900125	-0.133987	0.000072
C14	C	1.897515	-0.211356	0.000088
C15	C	2.041955	-0.263833	0.000103
C16	C	2.039498	-0.336527	0.000073
C17	C	1.892597	-0.356742	0.000065
C18	C	1.748137	-0.304254	0.000039
C19	C	1.750596	-0.231561	0.000050
N20	N	1.791505	-0.464363	0.108275
N21	N	1.789179	-0.533419	0.108268
C22	C	1.885180	-0.575761	0.000026
N23	N	1.983621	-0.546442	-0.108185
N24	N	1.985952	-0.477380	-0.108170
C25	C	1.889915	-0.435564	0.000051
C26	C	2.026966	-0.707062	0.000005
C27	C	2.024502	-0.779756	-0.000037
C28	C	1.733139	-0.747483	-0.000052
C29	C	1.735605	-0.674789	-0.000028
C30	C	1.882524	-0.654585	0.000009
C31	C	2.179836	-0.026431	0.000036
C32	C	2.357272	-0.034568	0.000029
C33	C	1.874991	0.122664	-0.000019
C34	C	1.877599	0.200034	-0.000048
N35	N	1.934386	-0.028606	0.452547
N36	N	1.840742	0.017276	-0.452490
H37	H	1.333944	0.078971	-0.000020
H38	H	1.441159	-0.090289	0.000040
C39	C	2.329706	-0.303042	0.000125
C40	C	2.203445	-0.241624	0.000124
H41	H	2.429399	-0.289327	0.000124
H42	H	2.334154	-0.336350	0.111002
H43	H	2.311204	-0.325095	-0.110774
H44	H	2.221941	-0.219574	0.111030
H45	H	2.198999	-0.208304	-0.110765
H46	H	2.157122	-0.379261	0.000077
C47	C	1.740023	0.146342	0.485486
C48	C	1.709718	0.081465	0.437275
H49	H	1.659137	0.185970	0.417413
H50	H	1.738154	0.147256	0.618965
H51	H	1.843325	0.149804	0.452745
H52	H	1.606421	0.078001	0.470029
H53	H	1.711572	0.080551	0.303767
H54	H	2.031455	-0.076153	0.534222
H55	H	1.632971	-0.188832	0.000039
C56	C	1.615004	-0.401361	0.000045
C57	C	1.586661	-0.326472	0.000039
H58	H	1.515310	-0.415074	0.000050
H59	H	1.662976	-0.414270	-0.110832
H60	H	1.685931	-0.425525	0.110943
H61	H	1.515743	-0.302308	-0.110868
H62	H	1.538665	-0.313555	0.110927
C63	C	2.259131	-0.703874	-0.163470
C64	C	2.188445	-0.684840	0.000005
H65	H	2.358814	-0.690151	-0.163476
H66	H	2.278344	-0.754673	-0.163466
H67	H	2.188179	-0.679696	-0.274336
H68	H	2.259392	-0.709023	0.110873
H69	H	2.169239	-0.634032	0.000020
C70	C	2.173871	-0.871917	-0.163516
C71	C	2.183287	-0.837441	-0.000035
H72	H	2.271905	-0.907526	-0.163518
H73	H	2.086044	-0.894359	-0.163524
H74	H	2.157305	-0.837248	-0.274378
H75	H	2.199841	-0.872109	0.110828
H76	H	2.271139	-0.814999	-0.000009
C77	C	1.544443	-0.802206	-0.163539
C78	C	1.571659	-0.769694	-0.000068
H79	H	1.444752	-0.815923	-0.163546
H80	H	1.539985	-0.768887	-0.274396
H81	H	1.630126	-0.843865	-0.163519
H82	H	1.485981	-0.728031	-0.000095
H83	H	1.576103	-0.803015	0.110818
C84	C	1.471111	-0.616608	-0.163482
C85	C	1.576828	-0.617105	-0.000018
H86	H	1.373081	-0.580998	-0.163468
H87	H	1.519895	-0.605689	-0.274344
H88	H	1.448640	-0.662798	-0.163471
H89	H	1.599309	-0.570916	-0.000035
H90	H	1.528034	-0.628019	0.110873
