data_functionalizedCrystal
_audit_creation_method	'MofGen! by Chris Wilmer'
_symmetry_space_group_name_H-M	'P1'
_symmetry_Int_Tables_number	1
_symmetry_cell_setting	triclinic
loop_
_symmetry_equiv_pos_as_xyz
  x,y,z
_cell_length_a	15.297475
_cell_length_b	16.625546
_cell_length_c	16.625539
_cell_angle_alpha	90.028532
_cell_angle_beta	99.681806
_cell_angle_gamma	80.324704
loop_
_atom_site_label
_atom_site_type_symbol
_atom_site_fract_x
_atom_site_fract_y
_atom_site_fract_z
Zn1	Zn	1.379196	-0.534670	0.668844
Zn2	Zn	1.712530	-0.201337	1.002178
Zn3	Zn	2.045863	0.131997	1.335511
Zn4	Zn	1.379097	-0.669493	0.533991
Zn5	Zn	1.712430	-0.336160	0.867325
Zn6	Zn	2.045764	-0.002827	1.200658
Zn7	Zn	1.228337	-0.511324	0.510732
Zn8	Zn	1.561670	-0.177991	0.844066
Zn9	Zn	1.895004	0.155343	1.177399
Zn10	Zn	1.228295	-0.646088	0.645497
Zn11	Zn	1.561628	-0.312755	0.978831
Zn12	Zn	1.894961	0.020579	1.312164
O13	O	1.303731	-0.590394	0.589766
O14	O	1.637065	-0.257060	0.923100
O15	O	1.970398	0.076273	1.256433
O16	O	1.505429	-0.572121	0.670460
O17	O	1.838763	-0.238787	1.003794
O18	O	2.172096	0.094546	1.337127
O19	O	1.359075	-0.648537	0.418070
O20	O	1.692408	-0.315203	0.751403
O21	O	2.025741	0.018130	1.084736
O22	O	1.248408	-0.401598	0.531743
O23	O	1.581741	-0.068264	0.865076
O24	O	1.915075	0.265069	1.198410
O25	O	1.505357	-0.671175	0.571385
O26	O	1.838690	-0.337841	0.904718
O27	O	2.172023	-0.004508	1.238051
O28	O	1.359244	-0.418750	0.647907
O29	O	1.692577	-0.085417	0.981240
O30	O	2.025910	0.247917	1.314574
O31	O	1.248312	-0.532330	0.400981
O32	O	1.581645	-0.198997	0.734315
O33	O	1.914979	0.134336	1.067648
O34	O	1.102085	-0.509635	0.509104
O35	O	1.435418	-0.176301	0.842438
O36	O	1.768752	0.157032	1.175771
O37	O	1.248336	-0.631283	0.761430
O38	O	1.581669	-0.297950	1.094764
O39	O	1.915002	0.035384	1.428097
O40	O	1.102054	-0.608645	0.608116
O41	O	1.435387	-0.275312	0.941449
O42	O	1.768721	0.058021	1.274782
O43	O	1.359202	-0.549425	0.778583
O44	O	1.692536	-0.216092	1.111917
O45	O	2.025869	0.117242	1.445250
O46	O	1.359034	-0.779212	0.548746
O47	O	1.692367	-0.445879	0.882079
O48	O	2.025700	-0.112545	1.215413
O49	O	1.248240	-0.762016	0.630669
O50	O	1.581573	-0.428683	0.964002
O51	O	1.914906	-0.095349	1.297336
C52	C	1.069335	-0.554067	0.553553
C53	C	1.402668	-0.220734	0.886887
C54	C	1.736002	0.112599	1.220220
C55	C	0.969059	-0.538546	0.538080
C56	C	1.302393	-0.205213	0.871414
C57	C	1.635726	0.128120	1.204747
C58	C	0.686434	-0.701332	0.700356
C59	C	1.019767	-0.367998	1.033689
C60	C	1.353101	-0.034665	1.367023
C61	C	0.780648	-0.715921	0.714891
C62	C	1.113981	-0.382587	1.048225
C63	C	1.447315	-0.049254	1.381558
C64	C	0.827756	-0.671578	0.670690
C65	C	1.161089	-0.338245	1.004024
C66	C	1.494422	-0.004912	1.337357
C67	C	0.780640	-0.612645	0.611950
C68	C	1.113973	-0.279311	0.945284
C69	C	1.447306	0.054022	1.278617
C70	C	0.686417	-0.598059	0.597409
C71	C	1.019750	-0.264725	0.930742
C72	C	1.353083	0.068608	1.264076
C73	C	0.827738	-0.568305	0.567743
C74	C	1.161071	-0.234972	0.901077
C75	C	1.494405	0.098362	1.234410
C76	C	0.780622	-0.509372	0.509004
C77	C	1.113956	-0.176038	0.842337
C78	C	1.447289	0.157295	1.175670
C79	C	0.686408	-0.494788	0.494465
C80	C	1.019742	-0.161455	0.827799
C81	C	1.353075	0.171879	1.161132
C82	C	0.639301	-0.539130	0.538667
C83	C	0.972634	-0.205797	0.872000
C84	C	1.305967	0.127536	1.205333
C85	C	0.921961	-0.582891	0.582285
C86	C	1.255295	-0.249558	0.915618
C87	C	1.588628	0.083776	1.248951
C88	C	0.921944	-0.479618	0.479338
C89	C	1.255277	-0.146285	0.812671
C90	C	1.588610	0.187049	1.146004
C91	C	0.827730	-0.465029	0.464802
C92	C	1.161063	-0.131696	0.798136
C93	C	1.494396	0.201638	1.131469
C94	C	1.303646	-0.799871	0.589719
C95	C	1.636979	-0.466538	0.923053
C96	C	1.970313	-0.133205	1.256386
C97	C	1.303692	-0.889500	0.589739
C98	C	1.637025	-0.556166	0.923072
C99	C	1.970359	-0.222833	1.256406
C100	C	1.303849	-1.217700	0.589847
C101	C	1.637183	-0.884366	0.923181
C102	C	1.970516	-0.551033	1.256514
C103	C	1.303803	-1.126384	0.589819
C104	C	1.637136	-0.793051	0.923152
C105	C	1.970469	-0.459717	1.256486
C106	C	1.303770	-1.053602	0.589793
C107	C	1.637103	-0.720269	0.923126
C108	C	1.970437	-0.386936	1.256459
C109	C	1.303725	-0.962281	0.589765
C110	C	1.637058	-0.628948	0.923099
C111	C	1.970391	-0.295615	1.256432
C112	C	1.539043	-0.626863	0.626121
C113	C	1.872376	-0.293529	0.959455
C114	C	2.205709	0.039804	1.292788
C115	C	1.639318	-0.642403	0.641614
C116	C	1.972652	-0.309070	0.974947
C117	C	2.305985	0.024263	1.308280
C118	C	1.303775	-0.590347	0.800082
C119	C	1.637109	-0.257014	1.133415
C120	C	1.970442	0.076319	1.466749
C121	C	1.303794	-0.590328	0.889706
C122	C	1.637128	-0.256994	1.223040
C123	C	1.970461	0.076339	1.556373
C124	C	1.303842	-0.380102	0.589835
C125	C	1.637175	-0.046769	0.923168
C126	C	1.970508	0.286565	1.256502
C127	C	1.303889	-0.290488	0.589864
C128	C	1.637222	0.042845	0.923197
C129	C	1.970555	0.376179	1.256531
C130	C	1.303739	-0.590390	0.380277
C131	C	1.637072	-0.257057	0.713610
C132	C	1.970406	0.076277	1.046943
C133	C	1.303895	-0.590210	0.290680
C134	C	1.637228	-0.256876	0.624013
C135	C	1.970562	0.076457	0.957347
C136	C	1.303809	-0.590312	0.962491
C137	C	1.637142	-0.256979	1.295824
C138	C	1.970476	0.076355	1.629158
C139	C	1.303830	-0.590285	1.053803
C140	C	1.637163	-0.256952	1.387136
C141	C	1.970497	0.076381	1.720469
C142	C	1.303851	-0.590260	1.126582
C143	C	1.637185	-0.256927	1.459916
C144	C	1.970518	0.076406	1.793249
C145	C	1.303874	-0.590235	1.217900
C146	C	1.637207	-0.256901	1.551234
C147	C	1.970540	0.076432	1.884567
H148	H	0.960314	-0.630875	0.630112
H149	H	1.293647	-0.297542	0.963445
H150	H	1.626980	0.035792	1.296778
H151	H	0.789355	-0.417045	0.416976
H152	H	1.122688	-0.083712	0.750309
H153	H	1.456021	0.249622	1.083642
H154	H	0.960298	-0.443512	0.443344
H155	H	1.293632	-0.110179	0.776677
H156	H	1.626965	0.223155	1.110011
H157	H	0.648049	-0.446809	0.446627
H158	H	0.981382	-0.113475	0.779961
H159	H	1.314716	0.219858	1.113294
H160	H	0.904469	-0.683460	0.682529
H161	H	1.237802	-0.350126	1.015862
H162	H	1.571136	-0.016793	1.349195
H163	H	0.648071	-0.737434	0.736334
H164	H	0.981404	-0.404100	1.069667
H165	H	1.314737	-0.070767	1.403000
H166	H	0.562584	-0.527254	0.526837
H167	H	0.895917	-0.193920	0.860170
H168	H	1.229251	0.139413	1.193503
H169	H	0.819003	-0.763906	0.762716
H170	H	1.152336	-0.430573	1.096049
H171	H	1.485670	-0.097240	1.429382
