data_functionalizedCrystal
_audit_creation_method	'MofGen! by Chris Wilmer'
_symmetry_space_group_name_H-M	'P1'
_symmetry_Int_Tables_number	1
_symmetry_cell_setting	triclinic
loop_
_symmetry_equiv_pos_as_xyz
  x,y,z
_cell_length_a	15.995343
_cell_length_b	19.188924
_cell_length_c	15.072220
_cell_angle_alpha	89.996779
_cell_angle_beta	89.991823
_cell_angle_gamma	83.315574
loop_
_atom_site_label
_atom_site_type_symbol
_atom_site_fract_x
_atom_site_fract_y
_atom_site_fract_z
O1	O	1.110668	0.089966	-0.073698
O2	O	0.866851	0.101085	-0.073719
O3	O	0.995798	-0.006113	-0.073697
O4	O	0.981720	0.197164	-0.073720
O5	O	0.995766	-0.006107	0.073868
O6	O	0.866819	0.101091	0.073846
O7	O	1.110636	0.089972	0.073867
Zn8	Zn	0.988722	0.095532	0.097286
Zn9	Zn	0.988764	0.095524	-0.097138
O10	O	0.981688	0.197170	0.073845
C11	C	0.835642	0.100629	0.000060
C12	C	0.742696	0.099254	0.000053
C13	C	0.572519	0.096758	0.000065
C14	C	0.549459	0.019377	0.000073
C15	C	0.452786	0.017921	0.000413
C16	C	0.404968	0.094299	0.000076
C17	C	0.433898	0.133210	0.084171
C18	C	0.530687	0.134128	0.084236
C19	C	0.530629	0.135254	-0.083579
C20	C	0.434145	0.132398	-0.084679
C21	C	0.310275	0.092914	0.000085
C22	C	0.667211	0.098145	0.000061
C23	C	0.995327	-0.032122	0.000086
C24	C	0.993962	-0.109630	0.000088
C25	C	0.993342	-0.146034	-0.080350
C26	C	0.992047	-0.218860	-0.080357
C27	C	0.991388	-0.255281	0.000079
C28	C	0.992004	-0.218868	0.080528
C29	C	0.993291	-0.146043	0.080532
N30	N	1.037004	-0.374827	0.059950
N31	N	1.035783	-0.444008	0.059940
C32	C	0.987510	-0.474700	0.000070
N33	N	0.940514	-0.433598	-0.059803
N34	N	0.941738	-0.364411	-0.059796
C35	C	0.989993	-0.334248	0.000083
C36	C	0.985485	-0.590070	-0.080381
C37	C	0.984184	-0.662897	-0.080384
C38	C	0.984150	-0.662905	0.080502
C39	C	0.985442	-0.590078	0.080503
C40	C	0.986113	-0.553666	0.000059
C41	C	1.141845	0.090428	0.000086
C42	C	1.234791	0.091803	0.000088
C43	C	0.982159	0.223179	0.000060
C44	C	0.983525	0.300687	0.000052
N45	N	0.988700	0.095537	0.229975
N46	N	0.988793	0.095514	-0.229826
C47	C	0.988763	0.095522	0.589176
C48	C	0.919535	0.152689	0.551557
C49	C	0.919692	0.152897	0.448732
C50	C	0.988731	0.095529	0.410972
C51	C	1.076037	0.111439	0.448269
C52	C	1.075649	0.111845	0.551127
C53	C	0.971463	0.022276	0.551282
C54	C	0.969457	0.022764	0.448419
C55	C	0.988718	0.095532	0.310259
C56	C	0.988781	0.095520	0.689889
H57	H	0.557557	0.107500	0.147344
H58	H	0.930711	0.207252	0.424113
O59	O	1.031929	-0.036236	0.414387
H60	H	1.065646	-0.063381	0.471272
O61	O	1.145918	0.058798	0.584100
H62	H	1.180031	0.032972	0.526577
H63	H	0.993792	-0.116403	0.146037
H64	H	0.986026	-0.560421	-0.145883
O65	O	0.833279	0.140344	0.584351
H66	H	0.785559	0.181314	0.556920
H67	H	0.545050	0.190873	0.087826
O68	O	0.427751	-0.022443	-0.079404
H69	H	0.484742	-0.041097	-0.118595
H70	H	0.578539	-0.010125	0.060295
O71	O	0.983437	-0.702181	0.167258
H72	H	0.984082	-0.664628	0.223195
H73	H	0.401843	0.189422	0.087056
H74	H	0.985954	-0.560439	0.146005
H75	H	1.128771	0.070909	0.423809
H76	H	1.021951	-0.020266	0.575609
H77	H	1.090934	0.165263	0.575104
O78	O	0.994045	-0.106757	-0.167110
H79	H	0.993384	-0.144309	-0.223045
H80	H	0.413891	0.106517	0.146998
O81	O	0.833716	0.140357	0.415319
H82	H	0.791650	0.134091	0.472628
O83	O	0.548903	0.210702	-0.084682
H84	H	0.617992	0.212371	-0.087230
H85	H	0.991537	-0.248505	-0.145861
O86	O	0.991309	-0.258146	0.167287
H87	H	0.990324	-0.314905	0.153771
O88	O	0.983483	-0.702163	-0.167146
H89	H	0.984162	-0.664605	-0.223079
O90	O	0.428484	-0.022227	0.080739
H91	H	0.384505	0.012593	0.122711
O92	O	0.568204	0.102909	-0.168041
H93	H	0.517993	0.082738	-0.208103
O94	O	0.933922	0.224288	0.585763
H95	H	0.990165	0.219335	0.629439
H96	H	1.091694	0.164248	0.422496
H97	H	0.909197	0.006977	0.577269
O98	O	0.884383	0.006767	0.416147
H99	H	0.855940	0.050452	0.373608
H100	H	0.415706	0.104061	-0.146894
H101	H	0.577590	-0.010618	-0.060223
H102	H	0.400983	0.188127	-0.090024
