data_functionalizedCrystal
_audit_creation_method	'MofGen! by Chris Wilmer'
_symmetry_space_group_name_H-M	'P1'
_symmetry_Int_Tables_number	1
_symmetry_cell_setting	triclinic
loop_
_symmetry_equiv_pos_as_xyz
  x,y,z
_cell_length_a	13.897449
_cell_length_b	13.897448
_cell_length_c	15.298259
_cell_angle_alpha	80.288631
_cell_angle_beta	99.657443
_cell_angle_gamma	90.018519
loop_
_atom_site_label
_atom_site_type_symbol
_atom_site_fract_x
_atom_site_fract_y
_atom_site_fract_z
Zn1	Zn	1.380304	-0.289557	-0.510146
Zn2	Zn	1.408113	-0.478796	-0.359287
Zn3	Zn	1.246906	-0.317517	-0.359296
Zn4	Zn	1.218984	-0.450823	-0.510096
O5	O	1.313577	-0.384173	-0.434706
O6	O	1.518971	-0.314665	-0.490152
O7	O	1.410053	-0.480810	-0.233043
O8	O	1.264649	-0.178822	-0.379331
O9	O	1.539402	-0.453698	-0.379316
O10	O	1.362656	-0.158280	-0.490160
O11	O	1.291615	-0.362319	-0.233050
O12	O	1.108224	-0.335195	-0.379283
O13	O	1.217059	-0.406022	-0.636348
O14	O	1.087709	-0.433135	-0.490075
O15	O	1.335580	-0.287541	-0.636385
O16	O	1.382977	-0.610071	-0.379268
O17	O	1.244025	-0.589520	-0.490066
C18	C	1.062968	-0.384164	-0.434675
C19	C	0.955753	-0.384180	-0.434683
C20	C	1.313511	-0.634792	-0.434680
C21	C	1.313566	-0.742003	-0.434699
C22	C	0.868680	-0.384180	-0.434698
C23	C	0.759443	-0.384182	-0.434725
C24	C	1.313657	-0.938287	-0.434756
C25	C	1.313603	-0.829060	-0.434727
C26	C	1.565164	-0.384183	-0.434739
C27	C	1.672375	-0.384187	-0.434752
C28	C	1.270103	-0.340542	-0.670016
C29	C	1.251577	-0.321950	-0.770290
C30	C	1.313665	-0.132572	-0.434752
C31	C	1.313703	-0.025354	-0.434772
C32	C	1.446016	-0.516316	-1.052927
C33	C	1.463417	-0.533791	-0.958714
C34	C	1.410459	-0.480832	-0.911603
C35	C	1.340096	-0.410395	-0.958715
C36	C	1.322688	-0.392924	-1.052937
C37	C	1.287131	-0.357440	-0.911614
C38	C	1.216767	-0.287003	-0.958726
C39	C	1.199363	-0.269535	-1.052939
C40	C	1.252321	-0.322494	-1.100049
C41	C	1.304539	-0.374911	-0.817392
C42	C	1.181210	-0.251519	-0.817402
C43	C	1.163809	-0.234044	-0.911615
C44	C	1.356937	-0.427565	-0.200313
C45	C	1.375650	-0.445886	-0.100039
H46	H	1.361835	-0.432256	-0.779042
O47	O	1.129733	-0.200220	-0.771551
C48	C	1.019119	-0.206960	-0.665201
C49	C	1.077382	-0.265167	-0.717062
H50	H	0.976763	-0.259442	-0.621150
H51	H	1.071530	-0.164729	-0.621045
H52	H	0.965875	-0.153598	-0.715073
H53	H	1.130629	-0.318579	-0.667255
H54	H	1.024913	-0.307332	-0.761232
O55	O	1.531635	-0.602315	-0.912915
C56	C	1.564227	-0.752248	-0.806485
C57	C	1.486861	-0.674725	-0.858311
H58	H	1.528061	-0.810800	-0.762311
H59	H	1.599078	-0.787172	-0.856300
H60	H	1.622842	-0.716119	-0.762429
H61	H	1.428188	-0.710780	-0.902369
H62	H	1.452087	-0.639806	-0.808448
O63	O	1.497601	-0.567726	-1.098592
C64	C	1.656316	-0.609173	-1.127495
C65	C	1.598015	-0.550914	-1.075706
H66	H	1.737510	-0.595585	-1.109026
H67	H	1.642851	-0.690407	-1.108939
H68	H	1.631731	-0.584603	-1.202921
H69	H	1.622564	-0.575401	-1.000269
H70	H	1.611483	-0.469691	-1.094338
H71	H	1.424630	-0.495065	-0.834891
O72	O	1.131004	-0.201054	-1.098565
C73	C	1.010476	-0.080550	-1.088630
C74	C	1.087879	-0.158059	-1.036848
H75	H	0.975573	-0.045782	-1.038754
H76	H	1.046589	-0.021876	-1.132730
H77	H	0.951911	-0.116666	-1.132750
H78	H	1.146466	-0.122030	-0.992679
H79	H	1.051695	-0.216725	-0.992805
H80	H	1.106519	-0.176694	-0.949987
H81	H	1.238159	-0.308267	-1.176765
