data_functionalizedCrystal
_audit_creation_method	'MofGen! by Chris Wilmer'
_symmetry_space_group_name_H-M	'P1'
_symmetry_Int_Tables_number	1
_symmetry_cell_setting	triclinic
loop_
_symmetry_equiv_pos_as_xyz
  x,y,z
_cell_length_a	11.792241
_cell_length_b	12.811445
_cell_length_c	11.295483
_cell_angle_alpha	80.460739
_cell_angle_beta	85.871827
_cell_angle_gamma	95.880359
loop_
_atom_site_label
_atom_site_type_symbol
_atom_site_fract_x
_atom_site_fract_y
_atom_site_fract_z
O1	O	-0.133590	1.411384	-0.251417
O2	O	-0.152760	1.103536	-0.218176
O3	O	0.022072	1.264931	-0.235611
O4	O	-0.308422	1.249989	-0.233983
O5	O	0.006740	1.250755	-0.036028
O6	O	-0.168092	1.089360	-0.018594
O7	O	-0.148923	1.397208	-0.051835
Cu8	Cu	-0.159908	1.241990	-0.016991
Cu9	Cu	-0.141775	1.258755	-0.253020
O10	O	-0.323755	1.235813	-0.034401
C11	C	-0.159821	1.057037	-0.114129
C12	C	-0.158003	0.939603	-0.101450
C13	C	-0.137891	0.734385	-0.295229
C14	C	-0.136183	0.624046	-0.283321
C15	C	-0.152887	0.608584	-0.065725
C16	C	-0.154595	0.718923	-0.077633
C17	C	-0.147095	0.781820	-0.192389
C18	C	-0.148795	0.892161	-0.204297
C19	C	-0.165507	0.876697	0.013298
C20	C	-0.163799	0.766358	0.025207
C21	C	-0.358370	1.243839	-0.134291
C22	C	-0.484356	1.246648	-0.134589
C23	C	-0.715013	1.251816	-0.135177
C24	C	-0.586658	1.248945	-0.134851
C25	C	0.056687	1.256905	-0.135723
C26	C	0.182674	1.254097	-0.135432
C27	C	-0.141862	1.443708	-0.155884
C28	C	-0.143679	1.561142	-0.168572
N29	N	-0.172660	1.230206	0.149018
N30	N	-0.129014	1.270546	-0.419030
C31	C	-0.037151	1.355371	0.384787
C32	C	-0.046796	1.346473	0.510412
C33	C	-0.201589	1.203510	0.525895
C34	C	-0.191944	1.212407	0.400270
C35	C	-0.109723	1.288341	0.329720
C36	C	-0.100084	1.297243	0.204093
C37	C	-0.254872	1.154275	0.219579
C38	C	-0.264517	1.145378	0.345204
H39	H	-0.131779	0.785597	-0.388668
H40	H	0.012301	1.401054	0.555243
C41	C	-0.009654	1.380769	0.126483
H42	H	-0.014310	1.376480	0.043777
H43	H	0.064480	1.367396	0.148351
H44	H	-0.023360	1.449973	0.139430
C45	C	-0.292019	1.119989	0.603513
H46	H	-0.287368	1.124296	0.686216
H47	H	-0.278331	1.050785	0.590572
H48	H	-0.366158	1.133374	0.581648
C49	C	-0.334718	1.080551	0.159003
H50	H	-0.317201	1.096724	0.074080
H51	H	-0.412005	1.091025	0.178317
H52	H	-0.324193	1.008423	0.187228
C53	C	-0.354957	1.061861	0.422814
H54	H	-0.350314	1.066166	0.505519
H55	H	-0.341274	0.992656	0.409873
H56	H	-0.429090	1.075255	0.400939
H57	H	-0.172999	0.915330	0.097038
C58	C	-0.140554	0.961346	-0.330521
H59	H	-0.134841	0.917286	-0.390062
H60	H	-0.074703	1.012400	-0.340536
H61	H	-0.207056	0.997018	-0.338845
C62	C	0.053282	1.438895	0.307178
H63	H	0.095126	1.477541	0.357968
H64	H	0.016348	1.486625	0.253382
H65	H	0.104181	1.404042	0.262320
H66	H	-0.128692	0.585429	-0.367064
C67	C	-0.160736	0.539433	0.060487
H68	H	-0.158274	0.466941	0.052843
H69	H	-0.230513	0.546510	0.104364
H70	H	-0.098125	0.562192	0.102110
H71	H	-0.169909	0.715132	0.118638
