data_functionalizedCrystal
_audit_creation_method	'MofGen! by Chris Wilmer'
_symmetry_space_group_name_H-M	'P1'
_symmetry_Int_Tables_number	1
_symmetry_cell_setting	triclinic
loop_
_symmetry_equiv_pos_as_xyz
  x,y,z
_cell_length_a	12.837943
_cell_length_b	14.519709
_cell_length_c	11.295483
_cell_angle_alpha	94.101713
_cell_angle_beta	85.461227
_cell_angle_gamma	89.254542
loop_
_atom_site_label
_atom_site_type_symbol
_atom_site_fract_x
_atom_site_fract_y
_atom_site_fract_z
O1	O	1.382869	0.234188	-0.099009
O2	O	1.081042	0.222343	-0.099016
O3	O	1.239958	0.094719	-0.099002
O4	O	1.223954	0.361812	-0.099023
O5	O	1.226000	0.105910	0.099048
O6	O	1.067084	0.233533	0.099034
O7	O	1.368911	0.245379	0.099040
Cu8	Cu	1.216723	0.240478	0.117121
Cu9	Cu	1.233230	0.227244	-0.117096
O10	O	1.209996	0.373002	0.099026
C11	C	1.035435	0.223937	0.000008
C12	C	0.920336	0.212002	0.000006
C13	C	0.679643	0.355473	0.000011
C14	C	0.571497	0.344264	0.000010
C15	C	0.595894	0.178377	0.000011
C16	C	0.704041	0.189586	0.000012
C17	C	0.745911	0.278137	0.000011
C18	C	0.854060	0.289344	0.000003
C19	C	0.878455	0.123458	0.000013
C20	C	0.770308	0.112249	0.000011
C21	C	1.232233	0.065890	0.000023
C22	C	1.229997	-0.036684	0.000024
C23	C	1.221771	-0.412293	-0.000007
C24	C	1.224055	-0.307787	0.000002
C25	C	1.225884	-0.224492	0.000010
C26	C	1.228169	-0.119979	0.000016
C27	C	1.414518	0.243785	0.000014
C28	C	1.529618	0.255719	0.000008
C29	C	1.217721	0.401831	-0.000001
C30	C	1.219957	0.504405	-0.000010
N31	N	1.205121	0.249786	0.281856
N32	N	1.244841	0.217929	-0.281831
C33	C	1.328362	0.150873	0.531156
C34	C	1.319601	0.157915	0.655819
C35	C	1.178834	0.270905	0.655847
C36	C	1.187595	0.263863	0.531184
C37	C	1.262362	0.203847	0.468843
C38	C	1.271127	0.196811	0.344178
C39	C	1.130356	0.309795	0.344208
C40	C	1.121596	0.316837	0.468871
H41	H	0.561777	0.106288	0.000111
O42	O	1.106064	0.329081	0.716369
C43	C	0.923210	0.369364	0.754517
C44	C	1.005514	0.303405	0.685919
H45	H	0.841898	0.348641	0.729904
H46	H	0.928198	0.365276	0.854332
H47	H	0.938617	0.443056	0.730035
H48	H	0.990161	0.229685	0.710300
H49	H	1.000506	0.307574	0.586120
H50	H	1.060719	0.365699	0.519643
H51	H	0.736201	0.040154	0.000026
H52	H	0.932423	0.060485	0.000004
O53	O	0.507276	0.419484	-0.000047
C54	C	0.494490	0.585208	0.000022
C55	C	0.567341	0.500097	0.000057
H56	H	0.543021	0.650407	0.000132
H57	H	0.449111	0.579493	-0.082882
H58	H	0.437387	0.588734	0.082885
H59	H	0.624504	0.496519	-0.082749
H60	H	0.612645	0.505847	0.083017
H61	H	1.332009	0.147945	0.293421
H62	H	1.389247	0.102012	0.480398
H63	H	1.373343	0.114777	0.706551
H64	H	0.888149	0.361447	0.000004
O65	O	1.066186	0.361353	0.283860
C66	C	0.925601	0.474128	0.297048
C67	C	0.998216	0.415807	0.365539
H68	H	0.870613	0.518154	0.363056
H69	H	0.974495	0.520927	0.238709
H70	H	0.877885	0.426420	0.238662
H71	H	1.045946	0.463445	0.423990
H72	H	0.949261	0.368999	0.423804
O73	O	0.720390	0.441455	-0.000206
C74	C	0.835618	0.544564	-0.102779
C75	C	0.789536	0.447162	-0.102695
H76	H	0.891548	0.549204	-0.185619
H77	H	0.769724	0.597952	-0.102861
H78	H	0.879751	0.558625	-0.019857
H79	H	0.745413	0.433012	-0.185603
H80	H	0.855474	0.393826	-0.102551
