data_functionalizedCrystal
_audit_creation_method	'MofGen! by Chris Wilmer'
_symmetry_space_group_name_H-M	'P1'
_symmetry_Int_Tables_number	1
_symmetry_cell_setting	triclinic
loop_
_symmetry_equiv_pos_as_xyz
  x,y,z
_cell_length_a	25.639242
_cell_length_b	25.639234
_cell_length_c	12.759400
_cell_angle_alpha	89.981268
_cell_angle_beta	90.006948
_cell_angle_gamma	89.978465
loop_
_atom_site_label
_atom_site_type_symbol
_atom_site_fract_x
_atom_site_fract_y
_atom_site_fract_z
Zn1	Zn	0.799349	-0.295656	-0.418546
Zn2	Zn	0.799299	-0.208229	-0.594228
Zn3	Zn	0.711915	-0.208232	-0.418540
Zn4	Zn	0.711908	-0.295631	-0.594160
O5	O	0.755618	-0.251937	-0.506368
O6	O	0.872508	-0.284068	-0.441882
O7	O	0.787689	-0.135065	-0.570948
O8	O	0.723538	-0.219840	-0.271519
O9	O	0.872471	-0.219836	-0.570954
O10	O	0.787775	-0.284070	-0.271524
O11	O	0.723488	-0.135066	-0.441871
O12	O	0.638749	-0.219816	-0.441805
O13	O	0.723525	-0.368800	-0.570839
O14	O	0.638743	-0.284028	-0.570832
O15	O	0.787768	-0.368818	-0.441816
O16	O	0.787682	-0.219812	-0.741240
O17	O	0.723476	-0.284026	-0.741190
C18	C	0.619775	-0.251920	-0.506312
C19	C	0.561661	-0.251925	-0.506313
C20	C	0.310495	-0.285443	-0.439280
C21	C	0.365099	-0.285440	-0.439269
O22	O	0.393359	-0.313935	-0.382230
N23	N	0.392387	-0.251943	-0.506356
C24	C	0.365068	-0.218450	-0.573465
O25	O	0.393292	-0.189958	-0.630528
C26	C	0.310464	-0.218456	-0.573480
C27	C	0.283180	-0.251952	-0.506381
C28	C	0.283210	-0.318937	-0.372187
C29	C	0.228610	-0.318939	-0.372196
C30	C	0.201294	-0.285448	-0.439298
C31	C	0.228579	-0.251954	-0.506391
C32	C	0.283146	-0.184966	-0.640594
C33	C	0.228539	-0.184975	-0.640604
C34	C	0.201254	-0.218471	-0.573505
C35	C	0.146663	-0.218465	-0.573502
N36	N	0.119375	-0.251962	-0.506415
C37	C	0.146691	-0.285454	-0.439313
C38	C	0.479738	-0.218441	-0.573430
C39	C	0.534341	-0.218432	-0.573411
C40	C	0.534369	-0.285423	-0.439216
C41	C	0.479765	-0.285429	-0.439231
C42	C	0.452451	-0.251938	-0.506343
C43	C	0.032026	-0.285455	-0.439337
C44	C	-0.022580	-0.285453	-0.439349
C45	C	-0.022603	-0.218464	-0.573547
C46	C	0.031998	-0.218464	-0.573532
C47	C	0.059311	-0.251964	-0.506423
O48	O	0.118368	-0.189986	-0.630515
O49	O	0.118460	-0.313946	-0.382270
C50	C	0.755652	-0.388310	-0.506320
C51	C	0.755666	-0.446424	-0.506300
C52	C	0.722252	-0.806794	-0.438964
C53	C	0.722254	-0.861398	-0.438945
O54	O	0.693818	-0.889640	-0.381810
N55	N	0.755683	-0.888707	-0.506135
C56	C	0.789108	-0.861408	-0.573356
O57	O	0.817542	-0.889651	-0.630505
C58	C	0.789102	-0.806805	-0.573380
C59	C	0.755675	-0.779499	-0.506178
C60	C	0.688826	-0.779488	-0.371769
C61	C	0.688824	-0.724887	-0.371787
C62	C	0.722248	-0.697593	-0.439000
C63	C	0.755673	-0.724899	-0.506196
C64	C	0.822524	-0.779508	-0.640605
C65	C	0.822515	-0.724901	-0.640623
C66	C	0.789087	-0.697595	-0.573421
C67	C	0.789094	-0.643003	-0.573427
N68	N	0.755665	-0.615695	-0.506237
C69	C	0.722242	-0.642989	-0.439024
C70	C	0.789117	-0.976079	-0.573303
C71	C	0.789126	-1.030681	-0.573275
C72	C	0.722271	-1.030667	-0.438865
C73	C	0.722266	-0.976064	-0.438889
C74	C	0.755688	-0.948770	-0.506113
C75	C	0.722240	-0.528324	-0.439066
C76	C	0.722243	-0.473719	-0.439087
C77	C	0.789095	-0.473738	-0.573500
C78	C	0.789095	-0.528338	-0.573475
C79	C	0.755663	-0.555630	-0.506255
O80	O	0.817515	-0.614727	-0.630536
O81	O	0.693808	-0.614740	-0.381894
C82	C	0.891991	-0.251954	-0.506426
C83	C	0.950105	-0.251962	-0.506451
C84	C	0.755587	-0.251928	-0.779336
C85	C	0.755621	-0.251941	-0.896112
C86	C	0.755614	-0.116095	-0.506340
C87	C	0.755701	-0.057981	-0.506065
C88	C	0.789055	-0.285414	-0.950887
C89	C	0.789085	-0.285428	-1.060611
C90	C	0.722244	-0.218492	-1.060776
C91	C	0.722213	-0.218481	-0.951054
C92	C	0.807775	-0.347123	-1.210469
C93	C	0.841217	-0.380591	-1.265247
C94	C	0.892219	-0.388662	-1.229556
C95	C	0.909789	-0.363257	-1.139088
C96	C	0.876349	-0.329784	-1.084316
C97	C	0.825340	-0.321724	-1.120005
C98	C	0.703528	-0.156786	-0.801194
C99	C	0.670091	-0.123311	-0.746419
C100	C	0.619088	-0.115235	-0.782109
C101	C	0.601520	-0.140631	-0.872580
C102	C	0.634957	-0.174106	-0.927354
C103	C	0.685960	-0.182183	-0.891658
C104	C	0.755663	-0.251958	-0.232335
C105	C	0.755682	-0.251967	-0.115558
H106	H	0.206399	-0.346217	-0.317562
C107	C	0.615629	-0.202045	-1.026872
N108	N	0.601071	-0.223090	-1.101826
H109	H	0.816340	-0.953860	-0.628039
H110	H	0.695045	-0.191249	-1.105523
H111	H	0.457554	-0.312704	-0.384592
H112	H	0.556619	-0.312694	-0.384578
H113	H	0.559990	-0.134054	-0.901641
H114	H	0.816320	-0.550572	-0.628185
C115	C	0.564348	-0.181579	-0.647215
N116	N	0.586948	-0.153822	-0.702812
C117	C	0.449697	-0.181588	-0.647248
N118	N	0.427073	-0.153830	-0.702847
C119	C	-0.052660	-0.181626	-0.647357
N120	N	-0.075301	-0.153882	-0.702957
H121	H	0.766244	-0.340560	-1.239531
H122	H	0.591865	-0.087974	-0.737502
C123	C	0.689419	-0.095371	-0.646903
N124	N	0.703978	-0.074327	-0.571947
C125	C	0.965911	-0.372099	-1.099890
N126	N	1.008188	-0.378748	-1.070380
C127	C	0.821887	-0.408539	-1.364755
N128	N	0.807330	-0.429588	-1.439705
C129	C	0.825857	-0.443703	-0.647434
N130	N	0.853544	-0.421080	-0.703129
H131	H	0.745056	-0.163366	-0.772117
C132	C	0.859287	-0.694881	-0.714571
N133	N	0.886985	-0.672271	-0.770264
C134	C	-0.052590	-0.322304	-0.365535
N135	N	-0.075192	-0.350061	-0.309942
H136	H	0.816352	-1.052909	-0.627985
C137	C	0.685467	-0.443685	-0.365159
N138	N	0.657767	-0.421066	-0.309481
C139	C	0.313249	-0.355781	-0.298357
N140	N	0.335870	-0.383530	-0.242735
H141	H	0.695018	-0.550539	-0.384328
H142	H	0.305352	-0.157690	-0.695233
H143	H	0.919448	-0.415913	-1.274164
H144	H	0.206302	-0.157704	-0.695259
H145	H	0.695056	-1.052900	-0.384137
H146	H	0.054214	-0.191184	-0.628160
C147	C	0.062062	-0.322304	-0.365507
N148	N	0.084685	-0.350055	-0.309893
C149	C	0.652046	-0.694858	-0.297869
N150	N	0.624341	-0.672243	-0.242193
C151	C	0.859294	-0.809532	-0.714541
N152	N	0.886990	-0.832145	-0.770238
H153	H	0.661606	-0.801705	-0.317035
H154	H	0.816258	-0.312660	-0.906156
C155	C	0.895672	-0.301842	-0.984803
N156	N	0.910226	-0.280800	-0.909843
C157	C	0.685490	-0.946033	-0.364969
N158	N	0.657787	-0.923415	-0.309292
