data_functionalizedCrystal
_audit_creation_method	'MofGen! by Chris Wilmer'
_symmetry_space_group_name_H-M	'P1'
_symmetry_Int_Tables_number	1
_symmetry_cell_setting	triclinic
loop_
_symmetry_equiv_pos_as_xyz
  x,y,z
_cell_length_a	19.077105
_cell_length_b	12.759393
_cell_length_c	12.759399
_cell_angle_alpha	89.967969
_cell_angle_beta	87.711582
_cell_angle_gamma	87.680962
loop_
_atom_site_label
_atom_site_type_symbol
_atom_site_fract_x
_atom_site_fract_y
_atom_site_fract_z
Zn1	Zn	1.076054	-0.658525	-0.482833
Zn2	Zn	1.075982	-0.482840	-0.658547
Zn3	Zn	0.958351	-0.475804	-0.475818
Zn4	Zn	0.958342	-0.651425	-0.651400
O5	O	1.017182	-0.567148	-0.567150
O6	O	1.174536	-0.641136	-0.512068
O7	O	1.060352	-0.334884	-0.634363
O8	O	0.973998	-0.500070	-0.329729
O9	O	1.174483	-0.512061	-0.641165
O10	O	1.060474	-0.634314	-0.334883
O11	O	0.973929	-0.329715	-0.500113
O12	O	0.859858	-0.493185	-0.493183
O13	O	0.973983	-0.799389	-0.628984
O14	O	0.859852	-0.622212	-0.622182
O15	O	1.060465	-0.804606	-0.505138
O16	O	1.060343	-0.505176	-0.804618
O17	O	0.973914	-0.629034	-0.799367
C18	C	0.834317	-0.556165	-0.556146
C19	C	0.756087	-0.551491	-0.551465
C20	C	1.017139	-0.567122	-0.840114
C21	C	1.017185	-0.567150	-0.956894
C22	C	1.017231	-0.841185	-0.567046
C23	C	1.017252	-0.957963	-0.567002
C24	C	0.719349	-0.616368	-0.616529
C25	C	0.645843	-0.611981	-0.612116
C26	C	0.609076	-0.542712	-0.542643
C27	C	0.645819	-0.477833	-0.477571
C28	C	0.719324	-0.482226	-0.481979
C29	C	0.389239	-0.522388	-0.522240
C30	C	0.315730	-0.517998	-0.517839
C31	C	0.315759	-0.652148	-0.652384
C32	C	0.389265	-0.656530	-0.656790
C33	C	0.426001	-0.591655	-0.591715
N34	N	0.533941	-0.538224	-0.538133
N35	N	0.501135	-0.596148	-0.596220
C36	C	1.200761	-0.578175	-0.578196
C37	C	1.278992	-0.582874	-0.582904
C38	C	0.972268	-1.010134	-0.497087
C39	C	0.972284	-1.119859	-0.497055
C40	C	1.062276	-1.125233	-0.636858
C41	C	1.062255	-1.015509	-0.636894
C42	C	1.017174	-0.294181	-0.567179
C43	C	1.017289	-0.177411	-0.566935
C44	C	1.062240	-0.502736	-1.014458
C45	C	1.062285	-0.502774	-1.124185
C46	C	0.972214	-0.631642	-1.118773
C47	C	0.972173	-0.631609	-1.009048
C48	C	1.017245	-0.567199	-0.293120
C49	C	1.017271	-0.567221	-0.176345
H50	H	0.615934	-0.664809	-0.665100
C51	C	0.381907	-0.788697	-0.789333
C52	C	0.429677	-0.732675	-0.733155
H53	H	0.406857	-0.835707	-0.836475
H54	H	0.353218	-0.741139	-0.827743
H55	H	0.353256	-0.827252	-0.741877
H56	H	0.458324	-0.694114	-0.780611
H57	H	0.458377	-0.780240	-0.694742
C58	C	0.877627	-1.237547	-0.476723
C59	C	0.922831	-1.177199	-0.420204
H60	H	0.847091	-1.272938	-0.429276
H61	H	0.904430	-1.287525	-0.518323
H62	H	0.850694	-1.193098	-0.520889
H63	H	0.949768	-1.221649	-0.376043
H64	H	0.896025	-1.127216	-0.378586
H65	H	0.935566	-0.684120	-1.161251
C66	C	1.181503	-0.458933	-1.164925
C67	C	1.111832	-0.431967	-1.187420
H68	H	1.212098	-0.415214	-1.203948
H69	H	1.191777	-0.530147	-1.183468
H70	H	1.187886	-0.449707	-1.092100
H71	H	1.105449	-0.441200	-1.260243
H72	H	1.101555	-0.360736	-1.168883
H73	H	1.098916	-1.172100	-0.693761
C74	C	0.883137	-0.758991	-1.014711
C75	C	0.922643	-0.702416	-0.945765
H76	H	0.852560	-0.802698	-0.975640
H77	H	0.913803	-0.801067	-1.059276
H78	H	0.856246	-0.711571	-1.055965
H79	H	0.949538	-0.749835	-0.904517
H80	H	0.891973	-0.660335	-0.901182
C81	C	0.233003	-0.371780	-0.498072
C82	C	0.275303	-0.441883	-0.441449
H83	H	0.208046	-0.324797	-0.450910
H84	H	0.200617	-0.409791	-0.536203
H85	H	0.261662	-0.333198	-0.545494
H86	H	0.246644	-0.480471	-0.394033
H87	H	0.307693	-0.403868	-0.403300
H88	H	1.098888	-0.973031	-0.693832
C89	C	0.801994	-0.472810	-0.345594
C90	C	0.759706	-0.410908	-0.410458
H91	H	0.826919	-0.428780	-0.301432
H92	H	0.834408	-0.514681	-0.387599
H93	H	0.773331	-0.516939	-0.303747
H94	H	0.788370	-0.366784	-0.452311
H95	H	0.727288	-0.369019	-0.368449
H96	H	0.285840	-0.704967	-0.705363
C97	C	0.742032	-0.795537	-0.669266
C98	C	0.759761	-0.692513	-0.692894
H99	H	0.766983	-0.842548	-0.716407
H100	H	0.693003	-0.802199	-0.675957
H101	H	0.754096	-0.811739	-0.599414
H102	H	0.747692	-0.676309	-0.762744
H103	H	0.808801	-0.685848	-0.686213
C104	C	0.381817	-0.389349	-0.388808
C105	C	0.429614	-0.451076	-0.450711
H106	H	0.406746	-0.345320	-0.344651
H107	H	0.353166	-0.433484	-0.346966
H108	H	0.353131	-0.347367	-0.432829
H109	H	0.458297	-0.493064	-0.406690
H110	H	0.458277	-0.406936	-0.492557
C111	C	0.563114	-0.331595	-0.457842
C112	C	0.605406	-0.401694	-0.401201
H113	H	0.538170	-0.284585	-0.410693
H114	H	0.530718	-0.369604	-0.495954
H115	H	0.591778	-0.293041	-0.505282
H116	H	0.576741	-0.440253	-0.353766
H117	H	0.637806	-0.363680	-0.363072
C118	C	0.883309	-1.015847	-0.358908
C119	C	0.922793	-0.946877	-0.420276
H120	H	0.852760	-0.976794	-0.311495
H121	H	0.913990	-1.060489	-0.320551
H122	H	0.856389	-1.057020	-0.403064
H123	H	0.949717	-0.905709	-0.376121
H124	H	0.892108	-0.902217	-0.458636
C125	C	1.096578	-0.326925	-0.982852
C126	C	1.111721	-0.431891	-0.957129
H127	H	1.127131	-0.283191	-0.947466
H128	H	1.049294	-0.308654	-0.962096
H129	H	1.103052	-0.317742	-1.056441
H130	H	1.105242	-0.441075	-0.883541
H131	H	1.159017	-0.450168	-0.977879
