data_functionalizedCrystal
_audit_creation_method	'MofGen! by Chris Wilmer'
_symmetry_space_group_name_H-M	'P1'
_symmetry_Int_Tables_number	1
_symmetry_cell_setting	triclinic
loop_
_symmetry_equiv_pos_as_xyz
  x,y,z
_cell_length_a	10.489716
_cell_length_b	23.532357
_cell_length_c	8.965430
_cell_angle_alpha	89.994894
_cell_angle_beta	89.996523
_cell_angle_gamma	83.678714
loop_
_atom_site_label
_atom_site_type_symbol
_atom_site_fract_x
_atom_site_fract_y
_atom_site_fract_z
O1	O	1.691371	0.080275	-0.124048
O2	O	1.319917	0.087831	-0.124055
O3	O	1.516878	0.001194	-0.124021
O4	O	1.494409	0.166913	-0.124082
O5	O	1.516861	0.001199	0.124058
O6	O	1.319900	0.087837	0.124024
O7	O	1.691354	0.080281	0.124031
Cu8	Cu	1.505626	0.084060	0.146679
Cu9	Cu	1.505645	0.084053	-0.146703
O10	O	1.494393	0.166919	0.123997
C11	C	1.272395	0.087267	-0.000016
C12	C	1.130822	0.085568	-0.000018
C13	C	1.031360	0.138697	-0.000041
C14	C	0.954951	0.110625	0.122292
C15	C	0.954974	0.110607	-0.122294
C16	C	1.056277	0.057519	0.122416
C17	C	1.056305	0.057508	-0.122280
C18	C	0.979946	0.029397	0.000083
C19	C	1.516308	-0.020024	0.000024
C20	C	1.514618	-0.083254	0.000038
C21	C	1.504019	-0.475338	-0.135271
C22	C	1.502413	-0.534748	-0.135280
O23	O	1.501547	-0.565473	-0.250286
N24	N	1.501607	-0.564461	-0.000054
C25	C	1.502395	-0.534761	0.135190
O26	O	1.501561	-0.565489	0.250209
C27	C	1.503992	-0.475351	0.135197
C28	C	1.504811	-0.445642	-0.000038
C29	C	1.504836	-0.445628	-0.270495
C30	C	1.506445	-0.386222	-0.270486
C31	C	1.507236	-0.356526	-0.135253
C32	C	1.506419	-0.386236	-0.000029
C33	C	1.504771	-0.445651	0.270438
C34	C	1.506367	-0.386238	0.270434
C35	C	1.507185	-0.356528	0.135199
C36	C	1.508819	-0.297134	0.135213
N37	N	1.509625	-0.267421	-0.000013
C38	C	1.508833	-0.297117	-0.135246
C39	C	1.499039	-0.659524	0.135165
C40	C	1.497451	-0.718933	0.135159
C41	C	1.497467	-0.718916	-0.135311
C42	C	1.499064	-0.659507	-0.135304
C43	C	1.499845	-0.629811	-0.000061
C44	C	1.512213	-0.172360	-0.135217
C45	C	1.513827	-0.112950	-0.135195
C46	C	1.513804	-0.112972	0.135273
C47	C	1.512197	-0.172377	0.135253
C48	C	1.511397	-0.202070	-0.000004
O49	O	1.509681	-0.266371	0.250160
O50	O	1.509651	-0.266380	-0.250246
C51	C	1.738875	0.080846	-0.000011
C52	C	1.880449	0.082544	-0.000019
C53	C	1.494963	0.188136	-0.000051
C54	C	1.496653	0.251366	-0.000075
N55	N	1.505621	0.084064	0.353028
N56	N	1.505660	0.084044	-0.353052
C57	C	1.414505	0.124118	0.450318
C58	C	1.529616	0.135636	0.549729
C59	C	1.390559	0.072550	0.549745
C60	C	1.620789	0.095608	0.450250
C61	C	1.481657	0.032500	0.450257
C62	C	1.596851	0.043997	0.549623
H63	H	0.957072	-0.016851	0.000171
H64	H	1.337521	0.158021	0.406716
H65	H	1.511542	-0.196569	0.245372
F66	F	1.514649	-0.081356	0.279191
F67	F	0.897118	0.139942	0.257448
H68	H	1.100340	0.035106	0.225941
F69	F	1.455083	-0.024468	0.393098
H70	H	1.100562	0.035095	-0.225690
F71	F	1.556146	0.192621	0.606840
F72	F	1.061584	0.199100	0.000087
F73	F	0.897161	0.139932	-0.257457
H74	H	1.718131	0.105390	0.406731
H75	H	1.674005	0.010114	0.592952
F76	F	1.263354	0.059832	0.606872
H77	H	1.496818	-0.743105	-0.245425
F78	F	1.514701	-0.081334	-0.279137
H79	H	1.511555	-0.196529	-0.245356
F80	F	1.499880	-0.627926	0.279118
F81	F	1.507197	-0.354637	0.414381
H82	H	1.507107	-0.362038	-0.380608
F83	F	1.499932	-0.627893	-0.279237
F84	F	1.496603	-0.750547	0.279094
F85	F	1.503993	-0.477224	-0.414441
F86	F	1.503894	-0.477257	0.414376
