data_functionalizedCrystal
_audit_creation_method	'MofGen! by Chris Wilmer'
_symmetry_space_group_name_H-M	'P1'
_symmetry_Int_Tables_number	1
_symmetry_cell_setting	triclinic
loop_
_symmetry_equiv_pos_as_xyz
  x,y,z
_cell_length_a	6.817900
_cell_length_b	9.514072
_cell_length_c	16.256277
_cell_angle_alpha	91.317330
_cell_angle_beta	103.500353
_cell_angle_gamma	118.843421
loop_
_atom_site_label
_atom_site_type_symbol
_atom_site_fract_x
_atom_site_fract_y
_atom_site_fract_z
V1	V	-4.112011	-0.223505	-0.264541
O2	O	-4.010733	0.009405	-0.258823
O3	O	-4.146780	-0.441889	-0.263388
O4	O	-4.062543	-0.220653	-0.379617
O5	O	-4.095554	-0.213363	-0.141789
V6	V	-4.585001	-0.195577	-0.249779
O7	O	-4.396375	-0.284768	-0.296922
O8	O	-4.750834	-0.134315	-0.217398
O9	O	-4.327025	0.022806	-0.250932
O10	O	-4.803675	-0.428488	-0.255497
O11	O	-4.718855	-0.205720	-0.372531
O12	O	-4.411263	-0.198429	-0.134703
C13	C	-4.012048	-0.495108	-0.259384
C14	C	-4.121756	-0.673644	-0.259208
C15	C	-3.904593	-0.212898	-0.407644
C16	C	-3.945981	-0.212011	-0.501724
C17	C	-4.239286	-0.218208	-0.733563
C18	C	-4.080230	-0.080375	-0.776242
C19	C	-4.021642	-0.210342	-0.673965
C20	C	-4.254359	-0.346497	-0.798910
C21	C	-4.094746	-0.208737	-0.840343
C22	C	-3.861968	-0.072410	-0.715396
C23	C	-4.036201	-0.338654	-0.738070
C24	C	-3.876972	-0.200782	-0.780717
C25	C	-3.979533	-0.211265	-0.578119
C26	C	-4.136831	-0.207801	-0.936186
C27	C	-4.125102	0.076017	-0.254934
C28	C	-3.994633	0.254551	-0.255115
C29	C	-4.232556	-0.206190	-0.106671
C30	C	-4.170404	-0.207069	-0.012591
H31	H	-4.314554	-0.748770	-0.262608
N32	N	-4.474629	-0.499908	-0.846908
H33	H	-4.547317	-0.569689	-0.804674
H34	H	-4.435796	-0.561885	-0.885385
N35	N	-4.441450	-0.227773	-0.705917
H36	H	-4.457411	-0.130104	-0.719536
H37	H	-4.412458	-0.229413	-0.642210
N38	N	-3.739256	-0.645957	-0.250594
H39	H	-3.694428	-0.528232	-0.251326
H40	H	-3.709680	-0.687422	-0.301473
H41	H	-4.099217	0.028834	-0.793308
H42	H	-3.695727	0.043530	-0.679259
H43	H	-3.724013	-0.193364	-0.801409
H44	H	-4.017284	-0.447873	-0.720989
