data_functionalizedCrystal
_audit_creation_method	'MofGen! by Chris Wilmer'
_symmetry_space_group_name_H-M	'P1'
_symmetry_Int_Tables_number	1
_symmetry_cell_setting	triclinic
loop_
_symmetry_equiv_pos_as_xyz
  x,y,z
_cell_length_a	38.067023
_cell_length_b	38.077490
_cell_length_c	38.067077
_cell_angle_alpha	59.997704
_cell_angle_beta	89.998734
_cell_angle_gamma	60.000154
loop_
_atom_site_label
_atom_site_type_symbol
_atom_site_fract_x
_atom_site_fract_y
_atom_site_fract_z
O1	O	-0.299412	-0.251366	0.010448
O2	O	-0.248328	-0.179451	-0.010403
O3	O	-0.248326	-0.251365	0.061532
O4	O	-0.299414	-0.179451	-0.061486
O5	O	-0.189899	-0.309776	0.061532
O6	O	-0.189901	-0.237861	-0.010403
O7	O	-0.240985	-0.309777	0.010448
Zn8	Zn	-0.206167	-0.283093	0.000023
Zn9	Zn	-0.283146	-0.206135	0.000023
O10	O	-0.240987	-0.237862	-0.061487
C11	C	-0.128227	-0.039355	-0.025248
C12	C	-0.085950	-0.060389	-0.025544
C13	C	-0.128229	-0.102948	-0.025252
C14	C	-0.085951	-0.123885	-0.025548
C15	C	-0.064614	-0.102951	-0.025248
C16	C	-0.149467	-0.060386	-0.025548
C17	C	-0.191984	0.024217	-0.020086
C18	C	-0.212145	0.064391	-0.016827
C19	C	-0.190407	0.084538	-0.015189
C20	C	-0.212265	0.128095	-0.011653
C21	C	-0.148508	0.064518	-0.016815
C22	C	-0.128349	0.024348	-0.020076
C23	C	-0.150087	0.004198	-0.021710
C24	C	0.004140	-0.107949	-0.020081
C25	C	0.047584	-0.131226	-0.016822
C26	C	0.069372	-0.174739	-0.015188
C27	C	0.116478	-0.199981	-0.011652
C28	C	0.047720	-0.194979	-0.016818
C29	C	0.004278	-0.171702	-0.020080
C30	C	-0.017511	-0.128189	-0.021709
C31	C	-0.191986	-0.107941	-0.020095
C32	C	-0.212147	-0.131219	-0.016834
C33	C	-0.190411	-0.174732	-0.015200
C34	C	-0.212269	-0.199971	-0.011669
C35	C	-0.148514	-0.194974	-0.016824
C36	C	-0.128351	-0.171700	-0.020083
C37	C	-0.150089	-0.128183	-0.021719
C38	C	-0.463698	-0.431923	0.031681
C39	C	-0.442362	-0.474487	0.031979
C40	C	-0.400086	-0.431922	0.031678
C41	C	-0.378847	-0.474485	0.031976
C42	C	-0.400085	-0.495519	0.031681
C43	C	-0.442363	-0.410986	0.031977
C44	C	-0.617099	-0.317399	0.020167
C45	C	-0.660541	-0.293986	0.016912
C46	C	-0.682333	-0.314084	0.015279
C47	C	-0.729438	-0.288695	0.011741
C48	C	-0.660680	-0.357598	0.016905
C49	C	-0.617240	-0.381011	0.020166
C50	C	-0.595450	-0.360909	0.021797
C51	C	-0.361240	-0.637368	0.020169
C52	C	-0.341218	-0.677543	0.016913
C53	C	-0.299325	-0.697695	0.015276
C54	C	-0.277614	-0.741250	0.011740
C55	C	-0.277453	-0.677671	0.016899
C56	C	-0.297472	-0.637503	0.020162
C57	C	-0.339370	-0.617352	0.021794
C58	C	-0.361243	-0.317391	0.020154
C59	C	-0.341223	-0.293973	0.016891
C60	C	-0.299329	-0.314068	0.015255
C61	C	-0.277621	-0.288678	0.011714
C62	C	-0.277458	-0.357579	0.016879
C63	C	-0.297480	-0.380994	0.020141
C64	C	-0.339372	-0.360898	0.021783
C65	C	-0.548347	-0.386298	0.025329
C66	C	-0.510801	-0.406535	0.028146
C67	C	-0.378379	-0.406531	0.028139
C68	C	-0.361077	-0.386292	0.025320
C69	C	-0.378378	-0.539074	0.028145
C70	C	-0.361075	-0.573793	0.025328
C71	C	-0.400366	-0.057316	-0.406377
C72	C	-0.442644	-0.014753	-0.427617
C73	C	-0.400367	-0.057315	-0.342764
C74	C	-0.442645	-0.014752	-0.364100
C75	C	-0.463980	0.006280	-0.406378
C76	C	-0.379128	-0.078252	-0.364099
C77	C	-0.297324	-0.171843	-0.445218
C78	C	-0.277160	-0.195257	-0.465240
C79	C	-0.298897	-0.175161	-0.507135
C80	C	-0.277039	-0.200550	-0.528843
C81	C	-0.340797	-0.131647	-0.529008
C82	C	-0.360956	-0.108233	-0.508988
C83	C	-0.339217	-0.128333	-0.467092
C84	C	-0.617383	0.148127	-0.509421
C85	C	-0.660825	0.188302	-0.529585
C86	C	-0.682620	0.208455	-0.507851
C87	C	-0.729723	0.252009	-0.529707
C88	C	-0.660967	0.188432	-0.465950
C89	C	-0.617524	0.148265	-0.445790
C90	C	-0.595735	0.128112	-0.467530
C91	C	-0.297326	-0.171842	-0.189359
C92	C	-0.277164	-0.195259	-0.145915
C93	C	-0.298901	-0.175162	-0.124123
C94	C	-0.277044	-0.200551	-0.077017
C95	C	-0.340800	-0.131651	-0.145775
C96	C	-0.360960	-0.108238	-0.189218
C97	C	-0.339217	-0.128335	-0.211008
C98	C	-0.361081	-0.102944	-0.445385
C99	C	-0.378507	-0.082705	-0.428083
C100	C	-0.378507	-0.082704	-0.295660
C101	C	-0.361082	-0.102942	-0.258114
C102	C	-0.511083	0.049835	-0.428238
C103	C	-0.548630	0.084554	-0.445664
O104	O	0.255029	-0.309790	0.010469
O105	O	0.132012	-0.237874	-0.010380
O106	O	0.203941	-0.309792	0.061554
O107	O	0.183100	-0.237872	-0.061465
O108	O	0.203942	-0.251384	0.061558
O109	O	0.132013	-0.179466	-0.010377
O110	O	0.255030	-0.251382	0.010473
Zn111	Zn	0.193522	-0.206151	0.000049
Zn112	Zn	0.193520	-0.283106	0.000044
O113	O	0.183101	-0.179464	-0.061461
O114	O	-0.240980	0.244491	0.010471
O115	O	-0.189894	0.142351	-0.010378
O116	O	-0.189896	0.142345	0.061556
O117	O	-0.240977	0.244497	-0.061463
O118	O	-0.248324	0.142347	0.061552
O119	O	-0.248322	0.142354	-0.010382
O120	O	-0.299407	0.244493	0.010467
Zn121	Zn	-0.283141	0.193424	0.000042
Zn122	Zn	-0.206160	0.193421	0.000047
O123	O	-0.299405	0.244499	-0.061467
O124	O	-0.868274	0.368411	-0.558424
O125	O	-0.745257	0.266268	-0.507336
O126	O	-0.817186	0.266266	-0.507334
O127	O	-0.796344	0.368414	-0.558426
O128	O	-0.817185	0.266264	-0.565760
O129	O	-0.745255	0.266267	-0.565762
O130	O	-0.868272	0.368410	-0.616850
Zn131	Zn	-0.806764	0.317338	-0.600583
Zn132	Zn	-0.806765	0.317340	-0.523604
O133	O	-0.796342	0.368413	-0.616852
O134	O	-0.248325	-0.251366	-0.616562
O135	O	-0.299411	-0.179454	-0.565477
O136	O	-0.299410	-0.251368	-0.565474
O137	O	-0.248326	-0.179452	-0.616565
O138	O	-0.240982	-0.309779	-0.507046
O139	O	-0.240984	-0.237866	-0.507050
O140	O	-0.189898	-0.309777	-0.558134
Zn141	Zn	-0.206164	-0.283096	-0.523316
Zn142	Zn	-0.283145	-0.206136	-0.600296
O143	O	-0.189899	-0.237864	-0.558138
C144	C	-0.064616	-0.449882	0.321773
C145	C	-0.085952	-0.428850	0.343012
C146	C	-0.128230	-0.386287	0.258159
C147	C	-0.149469	-0.365351	0.279495
C148	C	-0.128229	-0.386287	0.321772
C149	C	-0.085952	-0.428850	0.279495
C150	C	0.004137	-0.513456	0.321608
C151	C	0.047581	-0.553630	0.341633
C152	C	0.069370	-0.573779	0.383524
C153	C	0.116475	-0.617338	0.405237
C154	C	0.047719	-0.553761	0.405398
C155	C	0.004276	-0.513590	0.385375
C156	C	-0.017513	-0.493437	0.343480
C157	C	-0.128064	-0.381291	0.385528
C158	C	-0.148088	-0.358015	0.405689
C159	C	-0.189980	-0.314501	0.383952
C160	C	-0.211692	-0.289261	0.405809
C161	C	-0.211854	-0.294260	0.342053
C162	C	-0.191832	-0.317536	0.321894
C163	C	-0.149937	-0.361050	0.343631
C164	C	-0.128065	-0.381291	0.189406
C165	C	-0.148087	-0.358011	0.145960
C166	C	-0.189978	-0.314497	0.124170
C167	C	-0.211691	-0.289256	0.077065
C168	C	-0.211851	-0.294255	0.145820
C169	C	-0.191830	-0.317532	0.189264
C170	C	-0.149937	-0.361049	0.211055
C171	C	0.218795	-0.386318	0.321799
C172	C	0.219090	-0.428881	0.343036
C173	C	0.218796	-0.386313	0.258183
C174	C	0.219092	-0.428876	0.279518
C175	C	0.218793	-0.449911	0.321795
C176	C	0.219094	-0.365380	0.279521
C177	C	0.213634	-0.317421	0.321636
C178	C	0.210376	-0.294010	0.341662
C179	C	0.208740	-0.314109	0.383554
C180	C	0.205205	-0.288726	0.405268
C181	C	0.210366	-0.357622	0.405427
C182	C	0.213626	-0.381034	0.385403
C183	C	0.215258	-0.360931	0.343507
C184	C	0.213628	-0.513486	0.385550
C185	C	0.210368	-0.553661	0.405710
C186	C	0.208734	-0.573807	0.383972
C187	C	0.205197	-0.617365	0.405828
C188	C	0.210362	-0.553786	0.342073
C189	C	0.213624	-0.513615	0.321915
C190	C	0.215255	-0.493465	0.343653
C191	C	0.213638	-0.317412	0.189431
C192	C	0.210375	-0.293992	0.145985
C193	C	0.208741	-0.314087	0.124194
C194	C	0.205208	-0.288698	0.077089
C195	C	0.210365	-0.357596	0.145843
C196	C	0.213625	-0.381016	0.189287
C197	C	0.215261	-0.360922	0.211080
C198	C	-0.128228	-0.102999	0.321786
C199	C	-0.085950	-0.123940	0.343026
C200	C	-0.128227	-0.039396	0.258176
C201	C	-0.085949	-0.060433	0.279514
C202	C	-0.064613	-0.103002	0.321790
C203	C	-0.149467	-0.060430	0.279509
C204	C	-0.191985	-0.107991	0.321615
C205	C	-0.212148	-0.131268	0.341636
C206	C	-0.190411	-0.174788	0.383526
C207	C	-0.212269	-0.200030	0.405235
C208	C	-0.148512	-0.195034	0.405402
C209	C	-0.128351	-0.171757	0.385383
C210	C	-0.150088	-0.128237	0.343489
C211	C	0.004140	-0.171911	0.385546
C212	C	0.047584	-0.195328	0.405709
C213	C	0.069374	-0.175229	0.383974
C214	C	0.116479	-0.200619	0.405833
C215	C	0.047722	-0.131710	0.342077
C216	C	0.004280	-0.108293	0.321916
C217	C	-0.017510	-0.128395	0.343651
C218	C	-0.191984	0.024189	0.189422
C219	C	-0.212144	0.064366	0.145977
C220	C	-0.190407	0.084517	0.124191
C221	C	-0.212265	0.128082	0.077087
C222	C	-0.148510	0.064494	0.145842
C223	C	-0.128348	0.024316	0.189286
C224	C	-0.150087	0.004165	0.211074
C225	C	0.161897	0.006009	-0.406354
C226	C	0.161600	-0.015021	-0.427594
C227	C	0.161894	-0.057588	-0.342741
C228	C	0.161597	-0.078522	-0.364078
C229	C	0.161896	-0.057584	-0.406356
C230	C	0.161598	-0.015025	-0.364076
C231	C	0.173418	0.147853	-0.445193
C232	C	0.176676	0.188028	-0.465214
C233	C	0.178312	0.208182	-0.507109
C234	C	0.181853	0.251736	-0.528817
C235	C	0.176687	0.188162	-0.528983
C236	C	0.173424	0.147995	-0.508964
C237	C	0.171789	0.127840	-0.467067
C238	C	0.173414	-0.107925	-0.509401
C239	C	0.176670	-0.131195	-0.529566
C240	C	0.178305	-0.174712	-0.507832
C241	C	0.181842	-0.199951	-0.529689
C242	C	0.176678	-0.194956	-0.465932
C243	C	0.173415	-0.171682	-0.445770
C244	C	0.171785	-0.128164	-0.467510
C245	C	0.173406	-0.107944	-0.189336
C246	C	0.176666	-0.131222	-0.145891
C247	C	0.178299	-0.174739	-0.124100
C248	C	0.181836	-0.199982	-0.076994
C249	C	0.176676	-0.194979	-0.145753
C250	C	0.173417	-0.171701	-0.189195
C251	C	0.171779	-0.128180	-0.210985
C252	C	0.168255	0.084282	-0.445361
C253	C	0.165436	0.049564	-0.428059
C254	C	0.165429	-0.082827	-0.295637
C255	C	0.168246	-0.102944	-0.258091
C256	C	0.165432	-0.082819	-0.428217
C257	C	0.168250	-0.102933	-0.445644
O258	O	0.183071	-0.237904	0.492984
O259	O	0.203929	-0.309818	0.441900
O260	O	0.131993	-0.237903	0.441891
O261	O	0.255007	-0.309819	0.492993
O262	O	0.132000	-0.179493	0.383466
O263	O	0.203936	-0.251408	0.383475
O264	O	0.183078	-0.179494	0.434559
Zn265	Zn	0.193508	-0.206177	0.399741
Zn266	Zn	0.193499	-0.283135	0.476718
O267	O	0.255014	-0.251409	0.434569
C268	C	-0.463698	0.568132	-0.406349
C269	C	-0.442362	0.589070	-0.427585
C270	C	-0.400084	0.504526	-0.342735
C271	C	-0.378845	0.525561	-0.364068
C272	C	-0.400084	0.568130	-0.406344
C273	C	-0.442362	0.525563	-0.364072
C274	C	-0.617102	0.618488	-0.445200
C275	C	-0.660545	0.641764	-0.465223
C276	C	-0.682337	0.685287	-0.507117
C277	C	-0.729443	0.710531	-0.528827
C278	C	-0.660684	0.705530	-0.528986
C279	C	-0.617243	0.682251	-0.508965
C280	C	-0.595452	0.638728	-0.467069
C281	C	-0.361238	0.682666	-0.509374
C282	C	-0.341215	0.706081	-0.529534
C283	C	-0.299321	0.685984	-0.507797
C284	C	-0.277610	0.711371	-0.529649
C285	C	-0.277449	0.642464	-0.465898
C286	C	-0.297468	0.619046	-0.445742
C287	C	-0.339367	0.639154	-0.467484
C288	C	-0.361239	0.362658	-0.189337
C289	C	-0.341219	0.322481	-0.145894
C290	C	-0.299323	0.302324	-0.124100
C291	C	-0.277614	0.258762	-0.076995
C292	C	-0.277452	0.322348	-0.145748
C293	C	-0.297475	0.362526	-0.189190
C294	C	-0.339368	0.382675	-0.210982
C295	C	-0.548348	0.613491	-0.445361
C296	C	-0.510802	0.593373	-0.428057
C297	C	-0.378377	0.460965	-0.295632
C298	C	-0.361074	0.426240	-0.258087
C299	C	-0.378376	0.593521	-0.428200
C300	C	-0.361073	0.613760	-0.445623
H301	H	-0.246258	0.080688	-0.015504
H302	H	-0.459498	0.507968	-0.346943
Br303	Br	-0.221516	-0.290072	0.265036
Br304	Br	0.076964	-0.254386	0.462566
Br305	Br	-0.071489	-0.199174	-0.022282
H306	H	-0.068823	-0.158191	0.377764
Br307	Br	-0.418098	-0.290116	0.022379
Br308	Br	-0.057405	-0.458189	0.250946
H309	H	-0.358490	-0.115286	-0.563120
H310	H	0.214967	-0.301052	0.287524
H311	H	-0.243338	0.305935	-0.128001
H312	H	-0.013351	-0.497292	0.403186
H313	H	-0.068822	-0.042784	-0.026023
Br314	Br	0.171216	-0.199171	-0.218578
Br315	Br	-0.470907	0.646156	-0.485482
Br316	Br	-0.588141	0.121098	-0.388931
Br317	Br	0.208141	-0.384867	0.116267
Br318	Br	0.215808	-0.440070	0.415075
Br319	Br	-0.071206	-0.440347	0.415031
H320	H	0.219561	-0.446480	0.377772
Br321	Br	-0.267819	-0.199122	-0.388361
Br322	Br	-0.418095	-0.610026	0.022391
H323	H	-0.094231	0.008010	0.206912
Br324	Br	-0.220301	-0.254308	-0.435554
Br325	Br	-0.370901	-0.704712	0.014708
Br326	Br	0.171204	-0.199152	-0.388911
Br327	Br	-0.221490	-0.048881	-0.022316
H328	H	0.177999	-0.114746	-0.128261
Br329	Br	-0.057397	-0.180974	-0.026337
H330	H	-0.395074	-0.072810	-0.206845
H331	H	0.161122	0.002585	-0.462332
Br332	Br	-0.370904	0.295310	-0.116515
H333	H	-0.599361	-0.301028	0.021496
Br334	Br	0.178885	-0.254035	-0.116182
Br335	Br	0.215842	-0.486142	0.415055
H336	H	-0.279661	-0.621204	0.021484
Br337	Br	-0.418094	0.390004	-0.218913
Br338	Br	0.077293	-0.254034	-0.014605
H339	H	-0.279669	-0.416421	0.021464
H340	H	-0.344108	0.507954	-0.346935
Br341	Br	-0.370899	0.765139	-0.586391
Br342	Br	0.171197	-0.048865	-0.538905
H343	H	-0.013352	-0.188180	-0.021410
Br344	Br	-0.207363	-0.031050	-0.026344
H345	H	0.177997	-0.114711	-0.563680
Br346	Br	-0.221512	-0.290059	0.218645
H347	H	0.209056	-0.258584	0.323852
H348	H	-0.130815	-0.230473	0.439514
Br349	Br	-0.417815	-0.049182	-0.538673
Br350	Br	-0.587812	0.120781	-0.538925
H351	H	-0.358500	-0.115288	-0.128030
Br352	Br	0.171215	0.120830	-0.538650
H353	H	0.178017	0.204576	-0.563095
H354	H	0.214945	-0.416443	0.206912
H355	H	-0.359035	-0.258543	0.015565
H356	H	-0.246261	-0.114733	-0.015512
Br357	Br	-0.118400	-0.385479	0.116579
H358	H	-0.209688	0.007815	-0.021420
H359	H	0.209043	-0.569957	0.439824
H360	H	0.161154	0.002555	-0.346935
H361	H	-0.094237	-0.188241	0.403196
H362	H	-0.678172	0.625279	-0.447413
H363	H	0.209032	-0.570197	0.324375
H364	H	-0.130811	0.080929	-0.015481
H365	H	-0.094236	0.008051	-0.021402
H366	H	-0.678451	0.204601	-0.563700
Br367	Br	-0.689924	-0.234934	0.014701
H368	H	0.178003	-0.230386	-0.448237
H369	H	-0.678711	0.204846	-0.448256
Br370	Br	0.208147	-0.384901	0.462284
H371	H	-0.678426	-0.373959	0.015578
Br372	Br	-0.025430	-0.199194	0.415044
H373	H	-0.013600	-0.072517	-0.021412
Br374	Br	-0.119009	-0.254036	-0.014602
Br375	Br	-0.320952	-0.503822	0.032769
Br376	Br	-0.220305	-0.254310	-0.116531
Br377	Br	-0.207352	-0.308240	0.250933
Br378	Br	0.171186	-0.048883	-0.218907
H379	H	0.065207	-0.114741	-0.015496
H380	H	-0.599613	-0.416440	0.021492
Br381	Br	-0.057407	-0.458194	0.400912
H382	H	-0.093954	-0.416726	0.207147
H383	H	-0.459493	-0.492089	0.032459
Br384	Br	-0.220596	-0.705023	0.014685
H385	H	0.172087	0.131448	-0.411080
H386	H	-0.246258	0.080666	0.128353
Br387	Br	-0.221489	-0.003156	0.218992
H388	H	0.214954	-0.497319	0.287802
Br389	Br	-0.587528	0.559413	-0.388349
Br390	Br	-0.470913	-0.353899	0.032768
H391	H	-0.013602	-0.497051	0.287496
H392	H	0.178001	0.204324	-0.447401
Br393	Br	-0.220602	-0.384853	0.014657
Br394	Br	0.077293	-0.581111	0.462256
Br395	Br	-0.587859	0.709721	-0.538645
H396	H	-0.245962	-0.258818	0.128074
Br397	Br	-0.690258	0.764592	-0.585841
Br398	Br	-0.418096	0.709953	-0.538880
Br399	Br	-0.220590	0.615180	-0.436398
H400	H	-0.459769	0.002854	-0.462356
H401	H	-0.279663	0.378826	-0.206814
Br402	Br	-0.118402	-0.385489	0.462550
H403	H	-0.068820	-0.042830	0.262384
Br404	Br	-0.321233	-0.135340	-0.335544
H405	H	0.065470	-0.115347	0.324383
H406	H	0.065205	-0.569926	0.323820
H407	H	-0.459773	0.002849	-0.346970
H408	H	-0.184204	-0.042827	0.262380
Br409	Br	-0.267821	-0.199120	-0.218930
Br410	Br	-0.268712	-0.235203	0.312553
Br411	Br	0.219885	-0.458211	0.250966
H412	H	0.219572	-0.331129	0.262394
H413	H	-0.209689	-0.072554	0.287504
Br414	Br	-0.269008	-0.103790	0.311949
H415	H	0.209054	-0.258566	0.128363
Br416	Br	-0.267784	0.559986	-0.388885
H417	H	0.214971	-0.301048	0.207173
Br418	Br	-0.025105	-0.049234	0.265059
Br419	Br	-0.119004	0.091838	0.116272
H420	H	0.161117	-0.112772	-0.346948
