data_functionalizedCrystal
_audit_creation_method	'MofGen! by Chris Wilmer'
_symmetry_space_group_name_H-M	'P1'
_symmetry_Int_Tables_number	1
_symmetry_cell_setting	triclinic
loop_
_symmetry_equiv_pos_as_xyz
  x,y,z
_cell_length_a	33.428889
_cell_length_b	33.428139
_cell_length_c	33.424847
_cell_angle_alpha	60.004234
_cell_angle_beta	60.008465
_cell_angle_gamma	59.994972
loop_
_atom_site_label
_atom_site_type_symbol
_atom_site_fract_x
_atom_site_fract_y
_atom_site_fract_z
O1	O	0.055565	-0.584504	0.488714
O2	O	0.555565	-0.084504	0.988714
O3	O	0.020982	-0.455083	0.393778
O4	O	0.520982	0.044917	0.893778
O5	O	0.102943	-0.536959	0.393689
O6	O	0.602943	-0.036959	0.893689
O7	O	-0.026396	-0.502628	0.488803
O8	O	0.473604	-0.002628	0.988803
O9	O	0.130140	-0.509767	0.420792
O10	O	0.630140	-0.009767	0.920792
O11	O	0.048179	-0.427891	0.420881
O12	O	0.548179	0.072109	0.920881
O13	O	0.082762	-0.557312	0.515817
O14	O	0.582762	-0.057312	1.015817
Cu15	Cu	0.067954	-0.490119	0.470823
Cu16	Cu	0.567954	0.009881	0.970823
Cu17	Cu	0.035790	-0.522276	0.438771
Cu18	Cu	0.535790	-0.022276	0.938771
O19	O	0.000801	-0.475436	0.515906
O20	O	0.500801	0.024564	1.015906
N21	N	0.090577	-0.467504	0.493370
N22	N	0.590577	0.032496	0.993370
N23	N	0.013171	-0.544895	0.416225
N24	N	0.513171	-0.044895	0.916225
C25	C	0.143377	-0.280390	0.546067
C26	C	0.643377	0.219610	1.046067
C27	C	0.143515	-0.414755	0.680369
C28	C	0.643515	0.085245	1.180369
C29	C	0.143392	-0.414735	0.546069
C30	C	0.643392	0.085265	1.046069
C31	C	0.277766	-0.414702	0.545966
C32	C	0.777766	0.085298	1.045966
C33	C	0.158177	-0.324719	0.560828
C34	C	0.658177	0.175281	1.060828
C35	C	0.158255	-0.399967	0.636038
C36	C	0.658255	0.100033	1.136038
C37	C	0.233434	-0.399936	0.560773
C38	C	0.733434	0.100064	1.060773
C39	C	0.158186	-0.399955	0.560829
C40	C	0.658186	0.100045	1.060829
C41	C	0.124540	-0.223964	0.527278
C42	C	0.624540	0.276036	1.027278
C43	C	0.124565	-0.433545	0.527281
C44	C	0.624565	0.066455	1.027281
C45	C	0.177014	-0.381145	0.579617
C46	C	0.677014	0.118855	1.079617
C47	C	0.359814	-0.400540	0.502735
C48	C	0.859814	0.099460	1.002735
C49	C	0.411105	-0.417624	0.485606
C50	C	0.911105	0.082376	0.985606
C51	C	0.411136	-0.500620	0.517255
C52	C	0.911136	-0.000620	1.017255
C53	C	0.359845	-0.483534	0.534385
C54	C	0.859845	0.016466	1.034385
C55	C	0.136887	-0.198305	0.476855
C56	C	0.636887	0.301695	0.976855
C57	C	0.119761	-0.147011	0.459777
C58	C	0.619761	0.352989	0.959777
C59	C	0.077945	-0.147038	0.543547
C60	C	0.577945	0.352962	1.043547
C61	C	0.095072	-0.198332	0.560625
C62	C	0.595072	0.301668	1.060625
C63	C	0.074134	-0.421169	0.539710
C64	C	0.574134	0.078831	1.039710
C65	C	0.057023	-0.438269	0.522625
C66	C	0.557023	0.061731	1.022625
C67	C	0.140770	-0.480120	0.480694
C68	C	0.640770	0.019880	0.980694
C69	C	0.157883	-0.463020	0.497773
C70	C	0.657883	0.036980	0.997773
C71	C	0.074339	-0.421208	0.762475
C72	C	0.574339	0.078792	1.262475
C73	C	0.057288	-0.438323	0.813768
C74	C	0.557288	0.061677	1.313768
C75	C	0.141075	-0.480183	0.813699
C76	C	0.641075	0.019817	1.313699
C77	C	0.158125	-0.463069	0.762404
C78	C	0.658125	0.036931	1.262404
C79	C	0.124756	-0.433580	0.736794
C80	C	0.624756	0.066420	1.236794
C81	C	0.334186	-0.433494	0.527123
C82	C	0.834186	0.066506	1.027123
C83	C	-0.173769	-0.597444	0.363037
C84	C	0.326231	-0.097444	0.863037
C85	C	-0.039302	-0.597595	0.228856
C86	C	0.460698	-0.097595	0.728856
C87	C	-0.039496	-0.597587	0.363300
C88	C	0.460504	-0.097587	0.863300
C89	C	-0.039512	-0.731889	0.363237
C90	C	0.460488	-0.231889	0.863237
C91	C	-0.129442	-0.612265	0.348329
C92	C	0.370558	-0.112265	0.848329
C93	C	-0.054138	-0.612351	0.273187
C94	C	0.445862	-0.112351	0.773187
C95	C	-0.054257	-0.687554	0.348440
C96	C	0.445743	-0.187554	0.848440
C97	C	-0.054247	-0.612346	0.348477
C98	C	0.445753	-0.112346	0.848477
C99	C	-0.230191	-0.578579	0.381758
C100	C	0.269809	-0.078579	0.881758
C101	C	-0.020722	-0.578803	0.382168
C102	C	0.479278	-0.078803	0.882168
C103	C	-0.073020	-0.631130	0.329609
C104	C	0.426980	-0.131130	0.829609
C105	C	-0.053713	-0.813916	0.406386
C106	C	0.446287	-0.313916	0.906386
C107	C	-0.036654	-0.865210	0.423504
C108	C	0.463346	-0.365210	0.923504
C109	C	0.046338	-0.865293	0.391984
C110	C	0.546338	-0.365293	0.891984
C111	C	0.029278	-0.813999	0.374865
C112	C	0.529278	-0.313999	0.874865
C113	C	-0.255900	-0.590938	0.432169
C114	C	0.244100	-0.090938	0.932169
C115	C	-0.307191	-0.573786	0.449185
C116	C	0.192809	-0.073786	0.949185
C117	C	-0.307060	-0.531922	0.365377
C118	C	0.192940	-0.031922	0.865377
C119	C	-0.255769	-0.549074	0.348360
C120	C	0.244231	-0.049074	0.848360
C121	C	-0.033081	-0.528377	0.369764
C122	C	0.466919	-0.028377	0.869764
C123	C	-0.016014	-0.511306	0.386922
C124	C	0.483986	-0.011306	0.886922
C125	C	0.025770	-0.595083	0.428877
C126	C	0.525770	-0.095083	0.928877
C127	C	0.008703	-0.612156	0.411725
C128	C	0.508703	-0.112156	0.911725
C129	C	-0.032755	-0.528393	0.146761
C130	C	0.467245	-0.028393	0.646761
C131	C	-0.015585	-0.511324	0.095468
C132	C	0.484415	-0.011324	0.595468
C133	C	0.026262	-0.595106	0.095516
C134	C	0.526262	-0.095106	0.595516
C135	C	0.009094	-0.612174	0.146811
C136	C	0.509094	-0.112174	0.646811
C137	C	-0.020417	-0.578816	0.172432
C138	C	0.479583	-0.078816	0.672432
C139	C	-0.020748	-0.788312	0.382068
C140	C	0.479252	-0.288312	0.882068
N141	N	0.436037	-0.467415	0.493101
N142	N	0.936037	0.032585	0.993101
O143	O	0.592642	-0.471896	0.376066
O144	O	1.092642	0.028104	0.876066
O145	O	0.592838	-0.567146	0.505347
O146	O	1.092838	-0.067146	1.005347
O147	O	0.592754	-0.566928	0.423360
O148	O	1.092754	-0.066928	0.923360
O149	O	0.592727	-0.472113	0.458053
O150	O	1.092727	0.027887	0.958053
O151	O	0.511269	-0.539835	0.450606
O152	O	1.011269	-0.039835	0.950606
O153	O	0.511353	-0.540052	0.532594
O154	O	1.011353	-0.040052	1.032594
O155	O	0.511157	-0.444802	0.403312
O156	O	1.011157	0.055198	0.903312
Cu157	Cu	0.503815	-0.489954	0.470441
Cu158	Cu	1.003815	0.010046	0.970441
Cu159	Cu	0.600180	-0.521995	0.438219
Cu160	Cu	1.100180	-0.021995	0.938219
O161	O	0.511242	-0.445020	0.485300
O162	O	1.011242	0.054980	0.985300
N163	N	0.667959	-0.544533	0.415554
N164	N	1.167959	-0.044533	0.915554
N165	N	0.090544	-0.122107	0.493359
N166	N	0.590544	0.377893	0.993359
O167	O	-0.026406	0.034587	0.488773
O168	O	0.473594	0.534587	0.988773
O169	O	0.102877	0.034627	0.393499
O170	O	0.602877	0.534627	0.893499
O171	O	0.020848	0.034591	0.393771
O172	O	0.520848	0.534591	0.893771
O173	O	0.055623	0.034623	0.488500
O174	O	0.555623	0.534623	0.988500
O175	O	0.048051	-0.046899	0.420925
O176	O	0.548051	0.453101	0.920925
O177	O	0.130080	-0.046864	0.420653
O178	O	0.630080	0.453136	0.920653
O179	O	0.000796	-0.046903	0.515927
O180	O	0.500796	0.453097	1.015927
Cu181	Cu	0.067922	-0.054324	0.470769
Cu182	Cu	0.567922	0.445676	0.970769
Cu183	Cu	0.035752	0.042048	0.438656
Cu184	Cu	0.535752	0.542048	0.938656
O185	O	0.082825	-0.046867	0.515655
O186	O	0.582825	0.453133	1.015655
N187	N	0.013123	0.109830	0.416068
N188	N	0.513123	0.609830	0.916068
N189	N	0.090892	-0.467554	0.838649
N190	N	0.590892	0.032446	1.338649
O191	O	0.086330	-0.584488	0.995334
O192	O	0.586330	-0.084488	1.495334
O193	O	-0.008902	-0.455160	0.995379
O194	O	0.491098	0.044840	1.495379
O195	O	-0.008679	-0.537172	0.995355
O196	O	0.491321	-0.037172	1.495355
O197	O	0.086107	-0.502475	0.995358
O198	O	0.586107	-0.002475	1.495358
O199	O	0.018452	-0.509990	0.913868
O200	O	0.518452	-0.009990	1.413868
O201	O	0.018230	-0.427978	0.913891
O202	O	0.518230	0.072022	1.413891
O203	O	0.113461	-0.557306	0.913847
O204	O	0.613461	-0.057306	1.413847
Cu205	Cu	0.068323	-0.490160	0.906429
Cu206	Cu	0.568323	0.009840	1.406429
Cu207	Cu	0.036237	-0.522306	1.002797
Cu208	Cu	0.536237	-0.022306	1.502797
O209	O	0.113239	-0.475293	0.913870
O210	O	0.613239	0.024707	1.413870
N211	N	0.013667	-0.544916	1.070577
N212	N	0.513667	-0.044916	1.570577
C213	C	0.031339	-0.425179	0.394250
C214	C	0.531339	0.074821	0.894250
C215	C	0.132837	-0.526572	0.394139
C216	C	0.632837	-0.026572	0.894139
C217	C	0.072405	-0.587216	0.515344
C218	C	0.572405	-0.087216	1.015344
C219	C	-0.029093	-0.485823	0.515455
C220	C	0.470907	0.014177	1.015455
C221	C	0.552119	-0.566716	0.535258
C222	C	1.052119	-0.066716	1.035258
C223	C	0.552016	-0.566447	0.433726
C224	C	1.052016	-0.066447	0.933726
C225	C	0.551873	-0.445232	0.373402
C226	C	1.051873	0.054768	0.873402
C227	C	0.551980	-0.445502	0.474933
C228	C	1.051980	0.054498	0.974933
C229	C	0.132731	-0.006013	0.393923
C230	C	0.632731	0.493987	0.893923
C231	C	0.031182	-0.006158	0.394293
C232	C	0.531182	0.493842	0.894293
C233	C	-0.029092	-0.006163	0.515469
C234	C	0.470908	0.493837	1.015469
C235	C	0.072491	-0.006119	0.515133
C236	C	0.572491	0.493881	1.015133
C237	C	-0.008451	-0.425276	0.954641
C238	C	0.491549	0.074724	1.454641
C239	C	-0.008170	-0.526833	0.954596
C240	C	0.491830	-0.026833	1.454596
C241	C	0.113010	-0.587190	0.954585
C242	C	0.613010	-0.087190	1.454585
C243	C	0.112735	-0.485627	0.954611
C244	C	0.612735	0.014373	1.454611
H245	H	0.047163	-0.397193	0.741627
H246	H	0.547163	0.102807	1.241627
H247	H	0.552029	-0.596233	0.426301
H248	H	1.052029	-0.096233	0.926301
H249	H	0.079796	-0.624394	0.545162
H250	H	0.579796	-0.124394	1.045162
H251	H	-0.038348	-0.388133	0.954654
H252	H	0.461652	0.111867	1.454654
C253	C	-0.079244	-0.006170	0.597753
C254	C	0.420756	0.493830	1.097753
C255	C	-0.079212	-0.006177	0.555849
C256	C	0.420788	0.493823	1.055849
H257	H	-0.110185	-0.006182	0.622682
H258	H	0.389815	0.493818	1.122682
H259	H	-0.073274	0.022253	0.590032
H260	H	0.426726	0.522253	1.090032
H261	H	-0.054298	-0.034582	0.608969
H262	H	0.445702	0.465418	1.108969
H263	H	-0.104156	0.022237	0.544631
H264	H	0.395844	0.522237	1.044631
H265	H	-0.085187	-0.034603	0.563570
H266	H	0.414813	0.465397	1.063570
C267	C	0.164150	-0.436205	0.912718
C268	C	0.664150	0.063795	1.412718
C269	C	0.152939	-0.475607	0.954602
C270	C	0.652939	0.024393	1.454602
H271	H	0.188973	-0.430022	0.912711
H272	H	0.688973	0.069978	1.412711
H273	H	0.135633	-0.407892	0.912734
H274	H	0.635633	0.092108	1.412734
H275	H	0.175456	-0.443984	0.884301
H276	H	0.675456	0.056016	1.384301
H277	H	0.141630	-0.467826	0.983019
H278	H	0.641630	0.032174	1.483019
H279	H	0.181463	-0.503926	0.954590
H280	H	0.681463	-0.003926	1.454590
C281	C	0.130365	-0.006109	0.537640
C282	C	0.630365	0.493891	1.037640
C283	C	0.082545	-0.006121	0.555316
C284	C	0.582545	0.493879	1.055316
H285	H	0.136573	-0.006115	0.562450
H286	H	0.636573	0.493885	1.062450
H287	H	0.133992	0.022314	0.509784
H288	H	0.633992	0.522314	1.009784
H289	H	0.152962	-0.034522	0.528706
H290	H	0.652962	0.465478	1.028706
H291	H	0.059948	0.022294	0.564247
H292	H	0.559948	0.522294	1.064247
H293	H	0.078914	-0.034546	0.583182
H294	H	0.578914	0.465454	1.083182
C295	C	0.176653	-0.531014	0.312793
C296	C	0.676653	-0.031014	0.812793
C297	C	0.182983	-0.536445	0.353817
C298	C	0.682983	-0.036445	0.853817
H299	H	0.207612	-0.537112	0.287902
H300	H	0.707612	-0.037112	0.787902
H301	H	0.156094	-0.498589	0.300922
H302	H	0.656094	0.001411	0.800922
H303	H	0.161967	-0.553663	0.321734
H304	H	0.661967	-0.053663	0.821734
H305	H	0.197665	-0.513793	0.344877
H306	H	0.697665	-0.013793	0.844877
H307	H	0.203550	-0.568874	0.365689
H308	H	0.703550	-0.068874	0.865689
H309	H	0.016234	-0.428240	0.834672
H310	H	0.516234	0.071760	1.334672
H311	H	0.056124	-0.793157	0.355062
H312	H	0.556124	-0.293157	0.855062
H313	H	-0.066242	-0.478508	0.545321
H314	H	0.433758	0.021492	1.045321
C315	C	0.009704	-0.048090	0.370826
C316	C	0.509704	0.451910	0.870826
C317	C	0.021145	-0.006183	0.354113
C318	C	0.521145	0.493817	0.854113
H319	H	0.003514	-0.048110	0.346018
H320	H	0.503514	0.451890	0.846018
H321	H	-0.018602	-0.048089	0.399341
H322	H	0.481398	0.451911	0.899341
H323	H	0.036445	-0.076494	0.378444
H324	H	0.536445	0.423506	0.878444
H325	H	-0.005598	0.022221	0.346497
H326	H	0.494402	0.522221	0.846497
H327	H	0.049454	-0.006179	0.325589
H328	H	0.549454	0.493821	0.825589
H329	H	-0.037935	-0.534246	0.954563
H330	H	0.462065	-0.034246	1.454563
C331	C	0.552213	-0.589636	0.615715
C332	C	1.052213	-0.089636	1.115715
C333	C	0.552194	-0.607086	0.585381
C334	C	1.052194	-0.107086	1.085381
H335	H	0.552262	-0.614561	0.646657
H336	H	1.052262	-0.114561	1.146657
H337	H	0.523782	-0.561812	0.620032
H338	H	1.023782	-0.061812	1.120032
H339	H	0.580613	-0.580707	0.601029
H340	H	1.080613	-0.080707	1.101029
H341	H	0.523791	-0.616012	0.600065
H342	H	1.023791	-0.116012	1.100065
H343	H	0.580628	-0.634919	0.581065
H344	H	1.080628	-0.134919	1.081065
C345	C	0.135931	-0.667670	0.954558
C346	C	0.635931	-0.167670	1.454558
C347	C	0.153375	-0.637329	0.954566
C348	C	0.653375	-0.137329	1.454566
H349	H	0.160850	-0.698625	0.954549
H350	H	0.660850	-0.198625	1.454549
H351	H	0.127020	-0.653006	0.926147
H352	H	0.627020	-0.153006	1.426147
H353	H	0.108096	-0.671963	0.982980
H354	H	0.608096	-0.171963	1.482980
H355	H	0.181207	-0.633033	0.926142
H356	H	0.681207	-0.133033	1.426142
H357	H	0.162292	-0.651996	0.982980
H358	H	0.662292	-0.151996	1.482980
H359	H	0.168250	-0.504186	0.834549
H360	H	0.668250	-0.004186	1.334549
C361	C	0.127736	-0.881165	0.333804
C362	C	0.627736	-0.381165	0.833804
C363	C	0.101327	-0.893530	0.384068
C364	C	0.601327	-0.393530	0.884068
H365	H	0.161684	-0.898602	0.328918
H366	H	0.661684	-0.398602	0.828918
H367	H	0.122295	-0.846957	0.320133
H368	H	0.622295	-0.346957	0.820133
H369	H	0.117145	-0.889561	0.318273
H370	H	0.617145	-0.389561	0.818273
H371	H	0.111916	-0.885131	0.399599
H372	H	0.611916	-0.385131	0.899599
H373	H	0.106772	-0.927746	0.397745
H374	H	0.606772	-0.427746	0.897745
H375	H	0.199181	-0.473148	0.741498
H376	H	0.699181	0.026852	1.241498
H377	H	0.015959	-0.428182	0.532734
H378	H	0.515959	0.071818	1.032734
C379	C	-0.010368	-0.381510	0.579433
C380	C	0.489632	0.118490	1.079433
C381	C	0.037510	-0.388765	0.572139
C382	C	0.537510	0.111235	1.072139
H383	H	-0.032977	-0.361502	0.599451
H384	H	0.467023	0.138498	1.099451
H385	H	-0.015279	-0.412255	0.595094
H386	H	0.484721	0.087745	1.095094
H387	H	-0.015318	-0.365844	0.548697
H388	H	0.484682	0.134156	1.048697
H389	H	0.042462	-0.404434	0.602874
H390	H	0.542462	0.095566	1.102874
H391	H	0.042424	-0.358015	0.556478
H392	H	0.542424	0.141985	1.056478
C393	C	0.551771	-0.422308	0.292948
C394	C	1.051771	0.077692	0.792948
C395	C	0.551791	-0.404858	0.323282
C396	C	1.051791	0.095142	0.823282
H397	H	0.551722	-0.397384	0.262006
H398	H	1.051722	0.102616	0.762006
H399	H	0.523375	-0.431238	0.307633
H400	H	1.023375	0.068762	0.807633
H401	H	0.580207	-0.450134	0.288629
H402	H	1.080207	0.049866	0.788629
H403	H	0.523354	-0.377034	0.327604
H404	H	1.023354	0.122966	0.827604
H405	H	0.580190	-0.395922	0.308594
H406	H	1.080190	0.104078	0.808594
C407	C	0.593883	-0.421956	0.496367
C408	C	1.093883	0.078044	0.996367
C409	C	0.551967	-0.405292	0.484952
C410	C	1.051967	0.094708	0.984952
H411	H	0.593873	-0.397133	0.502556
H412	H	1.093873	0.102867	1.002556
H413	H	0.622274	-0.429551	0.469620
H414	H	1.122274	0.070449	0.969620
H415	H	0.593926	-0.450482	0.524675
H416	H	1.093926	0.049518	1.024675
H417	H	0.551926	-0.376768	0.456642
H418	H	1.051926	0.123232	0.956642
H419	H	0.523569	-0.397690	0.511702
H420	H	1.023569	0.102310	1.011702
C421	C	0.225275	-0.519773	0.440962
C422	C	0.725275	-0.019773	0.940962
C423	C	0.177397	-0.512523	0.448260
C424	C	0.677397	-0.012523	0.948260
H425	H	0.247884	-0.539774	0.420936
H426	H	0.747884	-0.039774	0.920936
H427	H	0.230230	-0.535440	0.471691
H428	H	0.730230	-0.035440	0.971691
H429	H	0.230182	-0.489022	0.425301
H430	H	0.730182	0.010978	0.925301
H431	H	0.172489	-0.543274	0.463924
H432	H	0.672489	-0.043274	0.963924
H433	H	0.172440	-0.496857	0.417525
H434	H	0.672440	0.003143	0.917525
C435	C	0.225673	-0.433848	0.458462
C436	C	0.725673	0.066152	0.958462
C437	C	0.213317	-0.476618	0.484114
C438	C	0.713317	0.023382	0.984114
H439	H	0.259895	-0.442244	0.450028
H440	H	0.759895	0.057756	0.950028
H441	H	0.208278	-0.413853	0.478482
H442	H	0.708278	0.086147	0.978482
H443	H	0.217230	-0.416447	0.429476
H444	H	0.717230	0.083553	0.929476
H445	H	0.221756	-0.494017	0.513102
H446	H	0.721756	0.005983	1.013102
H447	H	0.230717	-0.496621	0.464093
H448	H	0.730717	0.003379	0.964093
C449	C	0.219680	-0.047479	0.369805
C450	C	0.719680	0.452521	0.869805
C451	C	0.182750	-0.005692	0.353446
C452	C	0.682750	0.494308	0.853446
H453	H	0.250560	-0.047279	0.344818
H454	H	0.750560	0.452721	0.844818
H455	H	0.213866	-0.075960	0.377427
H456	H	0.713866	0.424040	0.877427
H457	H	0.219664	-0.047532	0.398260
H458	H	0.719664	0.452468	0.898260
H459	H	0.182765	-0.005641	0.324993
H460	H	0.682765	0.494359	0.824993
H461	H	0.188566	0.022797	0.345818
H462	H	0.688566	0.522797	0.845818
C463	C	0.365036	-0.567289	0.563943
C464	C	0.865036	-0.067289	1.063943
C465	C	0.331677	-0.519761	0.561192
C466	C	0.831677	-0.019761	1.061192
H467	H	0.347645	-0.589653	0.580490
H468	H	0.847645	-0.089653	1.080490
H469	H	0.385061	-0.575864	0.581401
H470	H	0.885061	-0.075864	1.081401
H471	H	0.385019	-0.568583	0.531801
H472	H	0.885019	-0.068583	1.031801
H473	H	0.311696	-0.518465	0.593334
H474	H	0.811696	-0.018465	1.093334
H475	H	0.311644	-0.511183	0.543735
H476	H	0.811644	-0.011183	1.043735
H477	H	0.432025	-0.541365	0.523165
H478	H	0.932025	-0.041365	1.023165
C479	C	0.063128	-0.374792	0.311987
C480	C	0.563128	0.125208	0.811987
C481	C	0.021367	-0.374992	0.353993
C482	C	0.521367	0.125008	0.853993
H483	H	0.056972	-0.343807	0.287136
H484	H	0.556972	0.156193	0.787136
H485	H	0.070881	-0.399693	0.300716
H486	H	0.570881	0.100307	0.800716
H487	H	0.089852	-0.380733	0.319621
H488	H	0.589852	0.119267	0.819621
H489	H	-0.005356	-0.369054	0.346360
H490	H	0.494644	0.130946	0.846360
H491	H	0.013608	-0.350083	0.365266
H492	H	0.513608	0.149917	0.865266
C493	C	0.405927	-0.333869	0.456033
C494	C	0.905927	0.166131	0.956033
C495	C	0.439280	-0.381401	0.458793
C496	C	0.939280	0.118599	0.958793
H497	H	0.423323	-0.311507	0.439474
H498	H	0.923323	0.188493	0.939474
H499	H	0.385948	-0.332565	0.488167
H500	H	0.885948	0.167435	0.988167
H501	H	0.385897	-0.325297	0.438577
H502	H	0.885897	0.174703	0.938577
H503	H	0.459308	-0.389974	0.476252
H504	H	0.959308	0.110026	0.976252
H505	H	0.459268	-0.382706	0.426652
H506	H	0.959268	0.117294	0.926652
H507	H	0.160882	-0.219171	0.449698
H508	H	0.660882	0.280829	0.949698
C509	C	0.281174	-0.337492	0.514934
C510	C	0.781174	0.162508	1.014934
C511	C	0.331607	-0.345533	0.494753
C512	C	0.831607	0.154467	0.994753
H513	H	0.263763	-0.303533	0.510002
H514	H	0.763763	0.196467	1.010002
H515	H	0.272798	-0.355376	0.549038
H516	H	0.772798	0.144624	1.049038
H517	H	0.272759	-0.348106	0.499441
H518	H	0.772759	0.151894	0.999441
H519	H	0.340023	-0.334922	0.510249
H520	H	0.840023	0.165078	1.010249
H521	H	0.339987	-0.327642	0.460643
H522	H	0.839987	0.172358	0.960643
C523	C	0.115918	-0.131204	0.383142
C524	C	0.615918	0.368796	0.883142
C525	C	0.133328	-0.118801	0.404349
C526	C	0.633328	0.381199	0.904349
H527	H	0.124296	-0.113791	0.348923
H528	H	0.624296	0.386209	0.848923
H529	H	0.081319	-0.122810	0.397572
H530	H	0.581319	0.377190	0.897572
H531	H	0.130340	-0.165422	0.388544
H532	H	0.630340	0.334578	0.888544
H533	H	0.118904	-0.084583	0.398950
H534	H	0.618904	0.415417	0.898950
H535	H	0.167935	-0.127191	0.389914
H536	H	0.667935	0.372809	0.889914
C537	C	0.038342	-0.152217	0.628068
C538	C	0.538342	0.347783	1.128068
C539	C	0.045557	-0.118861	0.580202
C540	C	0.545557	0.381139	1.080202
H541	H	0.018343	-0.134821	0.650697
H542	H	0.518343	0.365179	1.150697
H543	H	0.069098	-0.172213	0.632966
H544	H	0.569098	0.327787	1.132966
H545	H	0.022684	-0.172233	0.633006
H546	H	0.522684	0.327767	1.133006
H547	H	0.061218	-0.098847	0.575263
H548	H	0.561218	0.401153	1.075263
H549	H	0.014795	-0.098857	0.575303
H550	H	0.514795	0.401143	1.075303
H551	H	0.085016	-0.219221	0.601683
H552	H	0.585016	0.280779	1.101683
H553	H	-0.056788	-0.501226	0.167618
H554	H	0.443212	-0.001226	0.667618
C555	C	-0.058692	-0.430226	0.100579
C556	C	0.441308	0.069774	0.600579
C557	C	-0.029160	-0.455895	0.067255
C558	C	0.470840	0.044105	0.567255
H559	H	-0.067073	-0.396006	0.083161
H560	H	0.432927	0.103994	0.583161
H561	H	-0.041329	-0.438646	0.120630
H562	H	0.458671	0.061354	0.620630
H563	H	-0.087706	-0.438611	0.120542
H564	H	0.412294	0.061389	0.620542
H565	H	-0.000145	-0.447513	0.047295
H566	H	0.499855	0.052487	0.547295
H567	H	-0.046523	-0.447471	0.047196
H568	H	0.453477	0.052529	0.547196
H569	H	0.050281	-0.622271	0.074658
H570	H	0.550281	-0.122271	0.574658
H571	H	0.019144	-0.653235	0.167709
H572	H	0.519144	-0.153235	0.667709
H573	H	-0.057039	-0.501216	0.345698
H574	H	0.442961	-0.001216	0.845698
H575	H	-0.026079	-0.470245	0.376824
H576	H	0.473921	0.029755	0.876824
H577	H	0.018765	-0.653217	0.421828
H578	H	0.518765	-0.153217	0.921828
C579	C	0.100881	-0.661277	0.435754
C580	C	0.600881	-0.161277	0.935754
C581	C	0.058120	-0.631749	0.461363
C582	C	0.558120	-0.131749	0.961363
H583	H	0.120850	-0.683913	0.455811
H584	H	0.620850	-0.183913	0.955811
H585	H	0.118314	-0.641291	0.406776
H586	H	0.618314	-0.141291	0.906776
H587	H	0.092479	-0.678658	0.427314
H588	H	0.592479	-0.178658	0.927314
H589	H	0.066522	-0.614365	0.469799
H590	H	0.566522	-0.114365	0.969799
H591	H	0.040684	-0.651738	0.490349
H592	H	0.540684	-0.151738	0.990349
C593	C	-0.096735	-0.880944	0.419061
C594	C	0.403265	-0.380944	0.919061
C595	C	-0.072889	-0.893358	0.450236
C596	C	0.427111	-0.393358	0.950236
H597	H	-0.119106	-0.898321	0.435569
H598	H	0.380894	-0.398321	0.935569
H599	H	-0.073223	-0.889374	0.390579
H600	H	0.426777	-0.389374	0.890579
H601	H	-0.114055	-0.846719	0.409900
H602	H	0.385945	-0.346719	0.909900
H603	H	-0.055566	-0.927584	0.459395
H604	H	0.444434	-0.427584	0.959395
H605	H	-0.096405	-0.884931	0.478727
H606	H	0.403595	-0.384931	0.978727
C607	C	-0.116721	-0.735248	0.394145
C608	C	0.383279	-0.235248	0.894145
C609	C	-0.108704	-0.785678	0.414301
C610	C	0.391296	-0.285678	0.914301
H611	H	-0.150670	-0.717818	0.399037
H612	H	0.349330	-0.217818	0.899037
H613	H	-0.098803	-0.726864	0.360050
H614	H	0.401197	-0.226864	0.860050
H615	H	-0.106134	-0.726860	0.409686
H616	H	0.393866	-0.226860	0.909686
H617	H	-0.119288	-0.794067	0.398758
H618	H	0.380712	-0.294067	0.898758
H619	H	-0.126629	-0.794066	0.448403
H620	H	0.373371	-0.294066	0.948403
C621	C	-0.240235	-0.666087	0.498357
C622	C	0.259765	-0.166087	0.998357
C623	C	-0.227787	-0.623369	0.468882
C624	C	0.272213	-0.123369	0.968882
H625	H	-0.222881	-0.686107	0.521024
H626	H	0.277119	-0.186107	1.021024
H627	H	-0.231805	-0.683491	0.478341
H628	H	0.268195	-0.183491	0.978341
H629	H	-0.274463	-0.657632	0.515702
H630	H	0.225537	-0.157632	1.015702
H631	H	-0.193560	-0.631823	0.451535
H632	H	0.306440	-0.131823	0.951535
H633	H	-0.236215	-0.605962	0.488900
H634	H	0.263785	-0.105962	0.988900
C635	C	-0.301780	-0.492274	0.280824
C636	C	0.198220	0.007726	0.780824
C637	C	-0.335179	-0.499493	0.328667
C638	C	0.164821	0.000507	0.828667
H639	H	-0.319139	-0.472250	0.258162
H640	H	0.180861	0.027750	0.758162
H641	H	-0.281785	-0.523028	0.275923
H642	H	0.218215	-0.023028	0.775923
H643	H	-0.281770	-0.476639	0.275940
H644	H	0.218230	0.023361	0.775940
H645	H	-0.355187	-0.515131	0.333552
H646	H	0.144813	-0.015131	0.833552
H647	H	-0.355183	-0.468733	0.333570
H648	H	0.144817	0.031267	0.833570
C649	C	-0.198021	-0.578263	0.280585
C650	C	0.301979	-0.078263	0.780585
C651	C	-0.227510	-0.535490	0.292947
C652	C	0.272490	-0.035490	0.792947
H653	H	-0.180573	-0.569874	0.246374
H654	H	0.319427	-0.069874	0.746374
H655	H	-0.218037	-0.595631	0.288952
H656	H	0.281963	-0.095631	0.788952
H657	H	-0.175446	-0.598287	0.298040
H658	H	0.324554	-0.098287	0.798040
H659	H	-0.250087	-0.515468	0.275495
H660	H	0.249913	-0.015468	0.775495
H661	H	-0.207492	-0.518114	0.284575
H662	H	0.292508	-0.018114	0.784575
C663	C	-0.364937	-0.544601	0.516965
C664	C	0.135063	-0.044601	1.016965
C665	C	-0.335451	-0.587372	0.504601
C666	C	0.164549	-0.087372	1.004601
H667	H	-0.382378	-0.552990	0.551177
H668	H	0.117622	-0.052990	1.051177
H669	H	-0.387513	-0.524578	0.499517
H670	H	0.112487	-0.024578	0.999517
H671	H	-0.344915	-0.527231	0.508592
H672	H	0.155085	-0.027231	1.008592
H673	H	-0.355473	-0.604740	0.512970
H674	H	0.144527	-0.104740	1.012970
H675	H	-0.312873	-0.607403	0.522055
H676	H	0.187127	-0.107403	1.022055
