data_functionalizedCrystal
_audit_creation_method	'MofGen! by Chris Wilmer'
_symmetry_space_group_name_H-M	'P1'
_symmetry_Int_Tables_number	1
_symmetry_cell_setting	triclinic
loop_
_symmetry_equiv_pos_as_xyz
  x,y,z
_cell_length_a	9.016244
_cell_length_b	8.559649
_cell_length_c	8.559649
_cell_angle_alpha	110.221336
_cell_angle_beta	90.000963
_cell_angle_gamma	89.993253
loop_
_atom_site_label
_atom_site_type_symbol
_atom_site_fract_x
_atom_site_fract_y
_atom_site_fract_z
O1	O	0.123317	-2.126890	-0.055043
O2	O	0.123323	-1.651405	0.028738
O3	O	0.123318	-1.931038	-0.250895
O4	O	0.123322	-1.847257	0.224590
O5	O	-0.123363	-1.931001	-0.250884
O6	O	-0.123358	-1.651368	0.028749
O7	O	-0.123364	-2.126853	-0.055032
Cu8	Cu	-0.145885	-1.889107	-0.013141
Cu9	Cu	0.145844	-1.889151	-0.013153
O10	O	-0.123359	-1.847220	0.224601
C11	C	-0.000017	-1.591077	0.035093
C12	C	-0.000014	-1.411378	0.053992
N13	N	-0.351071	-1.889088	-0.013135
C14	C	-0.000020	-1.937369	-0.311198
C15	C	-0.000012	-1.956268	-0.490898
C16	C	-0.586101	-1.739155	0.136060
C17	C	-0.414210	-1.739384	0.136515
C18	C	-0.413411	-2.053826	0.003067
C19	C	-0.585356	-2.052979	0.004095
C20	C	-0.585615	-1.876026	-0.179185
C21	C	-0.413661	-1.871984	-0.177566
N22	N	0.351030	-1.889184	-0.013174
C23	C	-0.000021	-2.187180	-0.061387
C24	C	-0.000014	-2.366879	-0.080286
C25	C	-0.000018	-1.840889	0.284904
C26	C	-0.000016	-1.821990	0.464604
H27	H	-0.372064	-1.616262	0.129926
O28	O	-0.643098	-1.721828	-0.206632
H29	H	-0.717474	-1.652841	-0.102241
O30	O	-0.640952	-1.575477	0.127898
H31	H	-0.604040	-1.562402	0.009323
O32	O	-0.638467	-2.072544	0.163623
H33	H	-0.706037	-1.962575	0.234833
H34	H	-0.000019	-1.692570	-0.436018
O35	O	-0.000032	-2.127720	-0.622529
H36	H	0.100507	-2.142926	-0.701242
H37	H	-0.000007	-1.466258	-0.209705
H38	H	-0.629293	-1.745183	0.259013
O39	O	-0.000020	-1.279733	0.225436
H40	H	0.100527	-1.294077	0.294081
O41	O	-0.359682	-1.747637	0.300272
H42	H	-0.401321	-1.863322	0.316016
O43	O	-0.640455	-2.203885	-0.135816
H44	H	-0.599222	-2.199480	-0.256404
O45	O	-0.359241	-2.204099	-0.138215
H46	H	-0.287132	-2.162865	-0.221673
H47	H	-0.370333	-2.069473	0.122005
H48	H	-0.372918	-1.750907	-0.190346
H49	H	-0.626270	-1.985677	-0.289995
O50	O	-0.356765	-2.009456	-0.329424
H51	H	-0.233861	-2.003791	-0.332614
