data_functionalizedCrystal
_audit_creation_method	'MofGen! by Chris Wilmer'
_symmetry_space_group_name_H-M	'P1'
_symmetry_Int_Tables_number	1
_symmetry_cell_setting	triclinic
loop_
_symmetry_equiv_pos_as_xyz
  x,y,z
_cell_length_a	16.120490
_cell_length_b	25.639239
_cell_length_c	16.120256
_cell_angle_alpha	92.870449
_cell_angle_beta	90.129807
_cell_angle_gamma	87.130891
loop_
_atom_site_label
_atom_site_type_symbol
_atom_site_fract_x
_atom_site_fract_y
_atom_site_fract_z
Zn1	Zn	1.247336	-0.264936	-0.534508
Zn2	Zn	1.580669	0.068398	-0.201175
Zn3	Zn	1.914003	0.401731	0.132159
Zn4	Zn	1.254252	-0.348165	-0.395440
Zn5	Zn	1.587586	-0.014831	-0.062107
Zn6	Zn	1.920919	0.318502	0.271226
Zn7	Zn	1.115329	-0.256093	-0.388429
Zn8	Zn	1.448663	0.077240	-0.055096
Zn9	Zn	1.781996	0.410573	0.278237
Zn10	Zn	1.108208	-0.347681	-0.527414
Zn11	Zn	1.441541	-0.014347	-0.194081
Zn12	Zn	1.774875	0.318986	0.139253
O13	O	1.181281	-0.304219	-0.461448
O14	O	1.514615	0.029115	-0.128115
O15	O	1.847948	0.362448	0.205219
O16	O	1.364619	-0.279879	-0.521963
O17	O	1.697952	0.053454	-0.188630
O18	O	2.031285	0.386788	0.144703
O19	O	1.241699	-0.332453	-0.278145
O20	O	1.575032	0.000880	0.055189
O21	O	1.908365	0.334213	0.388522
O22	O	1.132926	-0.184105	-0.407842
O23	O	1.466260	0.149229	-0.074508
O24	O	1.799593	0.482562	0.258825
O25	O	1.369700	-0.341027	-0.419791
O26	O	1.703033	-0.007694	-0.086458
O27	O	2.036367	0.325639	0.246876
O28	O	1.229911	-0.190601	-0.515165
O29	O	1.563244	0.142732	-0.181832
O30	O	1.896578	0.476065	0.151502
O31	O	1.139633	-0.264809	-0.272994
O32	O	1.472966	0.068525	0.060340
O33	O	1.806299	0.401858	0.393673
O34	O	0.998020	-0.264340	-0.400963
O35	O	1.331353	0.068994	-0.067630
O36	O	1.664686	0.402327	0.265704
O37	O	1.120789	-0.340202	-0.644721
O38	O	1.454122	-0.006869	-0.311387
O39	O	1.787455	0.326464	0.021946
O40	O	0.992787	-0.331628	-0.503074
O41	O	1.326121	0.001705	-0.169741
O42	O	1.659454	0.335038	0.163592
O43	O	1.223006	-0.279410	-0.649933
O44	O	1.556339	0.053924	-0.316599
O45	O	1.889672	0.387257	0.016734
O46	O	1.234793	-0.421262	-0.412912
O47	O	1.568127	-0.087929	-0.079579
O48	O	1.901460	0.245405	0.253754
O49	O	1.127495	-0.420906	-0.509873
O50	O	1.460828	-0.087573	-0.176539
O51	O	1.794162	0.245760	0.156794
C52	C	0.965231	-0.296972	-0.450489
C53	C	1.298565	0.036361	-0.117155
C54	C	1.631898	0.369694	0.216178
C55	C	0.872803	-0.293886	-0.445820
C56	C	1.206136	0.039448	-0.112487
C57	C	1.539470	0.372781	0.220847
C58	C	0.659830	-0.320226	-0.485667
C59	C	0.993163	0.013107	-0.152333
C60	C	1.326497	0.346441	0.181000
C61	C	0.703581	-0.288255	-0.437295
C62	C	1.036914	0.045079	-0.103961
C63	C	1.370247	0.378412	0.229372
C64	C	0.797745	-0.291389	-0.442040
C65	C	1.131078	0.041945	-0.108706
C66	C	1.464411	0.375278	0.224627
C67	C	0.565657	-0.317093	-0.480923
C68	C	0.898991	0.016240	-0.147590
C69	C	1.232324	0.349574	0.185744
C70	C	1.181144	-0.440055	-0.461403
C71	C	1.514477	-0.106722	-0.128069
C72	C	1.847810	0.226611	0.205264
C73	C	1.181159	-0.498170	-0.461415
C74	C	1.514493	-0.164837	-0.128082
C75	C	1.847826	0.168496	0.205252
C76	C	1.237286	-0.858718	-0.411058
C77	C	1.570619	-0.525385	-0.077725
C78	C	1.903952	-0.192051	0.255608
C79	C	1.237317	-0.913324	-0.411071
C80	C	1.570651	-0.579991	-0.077738
C81	C	1.903984	-0.246657	0.255596
O82	O	1.284895	-0.941712	-0.368207
O83	O	1.618229	-0.608378	-0.034874
O84	O	1.951562	-0.275045	0.298460
N85	N	1.181425	-0.940464	-0.461510
N86	N	1.514758	-0.607131	-0.128177
N87	N	1.848091	-0.273797	0.205156
C88	C	1.125503	-0.912996	-0.511947
C89	C	1.458836	-0.579663	-0.178613
C90	C	1.792169	-0.246330	0.154720
O91	O	1.077965	-0.941095	-0.554851
O92	O	1.411298	-0.607762	-0.221518
O93	O	1.744632	-0.274429	0.111816
C94	C	1.125476	-0.858392	-0.511938
C95	C	1.458809	-0.525058	-0.178604
C96	C	1.792142	-0.191725	0.154729
C97	C	1.181366	-0.831254	-0.461489
C98	C	1.514699	-0.497921	-0.128155
C99	C	1.848033	-0.164587	0.205178
C100	C	1.293172	-0.831580	-0.360614
C101	C	1.626506	-0.498247	-0.027281
C102	C	1.959839	-0.164914	0.306052
C103	C	1.293139	-0.776978	-0.360601
C104	C	1.626473	-0.443645	-0.027267
C105	C	1.959806	-0.110312	0.306066
C106	C	1.237220	-0.749514	-0.411031
C107	C	1.570553	-0.416181	-0.077698
C108	C	1.903887	-0.082847	0.255636
C109	C	1.181333	-0.776652	-0.461475
C110	C	1.514667	-0.443319	-0.128142
C111	C	1.848000	-0.109985	0.205192
C112	C	1.069558	-0.830925	-0.562378
C113	C	1.402891	-0.497592	-0.229044
C114	C	1.736225	-0.164259	0.104289
C115	C	1.069536	-0.776317	-0.562365
C116	C	1.402869	-0.442984	-0.229031
C117	C	1.736203	-0.109650	0.104302
C118	C	1.125427	-0.749179	-0.511916
C119	C	1.458760	-0.415846	-0.178583
C120	C	1.792093	-0.082513	0.154751
C121	C	1.125381	-0.694586	-0.511892
C122	C	1.458714	-0.361252	-0.178558
C123	C	1.792047	-0.027919	0.154775
N124	N	1.181273	-0.667445	-0.461452
N125	N	1.514607	-0.334112	-0.128119
N126	N	1.847940	-0.000779	0.205214
C127	C	1.237193	-0.694910	-0.411022
C128	C	1.570526	-0.361576	-0.077689
C129	C	1.903860	-0.028243	0.255645
C130	C	1.125565	-1.027669	-0.511963
C131	C	1.458898	-0.694336	-0.178629
C132	C	1.792231	-0.361003	0.154704
C133	C	1.125587	-1.082273	-0.511968
C134	C	1.458920	-0.748939	-0.178634
C135	C	1.792254	-0.415606	0.154699
C136	C	1.237403	-1.082596	-0.411093
C137	C	1.570736	-0.749263	-0.077760
C138	C	1.904070	-0.415930	0.255574
C139	C	1.237376	-1.027992	-0.411084
C140	C	1.570709	-0.694659	-0.077751
C141	C	1.904043	-0.361325	0.255582
C142	C	1.181457	-1.000529	-0.461523
C143	C	1.514790	-0.667196	-0.128190
C144	C	1.848124	-0.333862	0.205143
C145	C	1.237119	-0.580241	-0.410997
C146	C	1.570452	-0.246908	-0.077663
C147	C	1.903786	0.086425	0.255670
C148	C	1.237079	-0.525634	-0.410985
C149	C	1.570412	-0.192301	-0.077651
C150	C	1.903745	0.141032	0.255682
C151	C	1.125266	-0.525315	-0.511862
C152	C	1.458599	-0.191982	-0.178529
C153	C	1.791933	0.141351	0.154805
C154	C	1.125303	-0.579918	-0.511871
C155	C	1.458636	-0.246584	-0.178538
C156	C	1.791970	0.086749	0.154796
C157	C	1.181236	-0.607379	-0.461436
C158	C	1.514570	-0.274046	-0.128102
C159	C	1.847903	0.059287	0.205231
O160	O	1.077829	-0.666164	-0.554737
O161	O	1.411163	-0.332830	-0.221403
O162	O	1.744496	0.000503	0.111930
O163	O	1.284730	-0.666804	-0.368133
O164	O	1.618063	-0.333471	-0.034800
O165	O	1.951396	-0.000138	0.298534
C166	C	1.398175	-0.311493	-0.472451
C167	C	1.731509	0.021840	-0.139117
C168	C	2.064842	0.355173	0.194216
C169	C	1.490602	-0.314594	-0.477139
C170	C	1.823936	0.018740	-0.143806
C171	C	2.157269	0.352073	0.189527
C172	C	1.170331	-0.310738	-0.678343
C173	C	1.503665	0.022595	-0.345009
C174	C	1.836998	0.355928	-0.011676
C175	C	1.165665	-0.313517	-0.770770
C176	C	1.498998	0.019816	-0.437437
C177	C	1.832332	0.353150	-0.104103
C178	C	1.181442	-0.167853	-0.461513
C179	C	1.514775	0.165481	-0.128179
C180	C	1.848108	0.498814	0.205154
C181	C	1.181510	-0.109742	-0.461540
C182	C	1.514843	0.223592	-0.128207
C183	C	1.848177	0.556925	0.205126
C184	C	1.205614	-0.289716	-0.983756
C185	C	1.538947	0.043617	-0.650422
C186	C	1.872281	0.376951	-0.317089
C187	C	1.157118	-0.318567	-0.939990
C188	C	1.490451	0.014766	-0.606657
C189	C	1.823784	0.348100	-0.273323
C190	C	1.161875	-0.315756	-0.845827
C191	C	1.495208	0.017577	-0.512494
C192	C	1.828542	0.350910	-0.179161
C193	C	1.200858	-0.292526	-1.077927
C194	C	1.534191	0.040807	-0.744594
C195	C	1.867525	0.374141	-0.411260
C196	C	1.192237	-0.297688	-0.245400
C197	C	1.525570	0.035645	0.087934
C198	C	1.858903	0.368979	0.421267
C199	C	1.197064	-0.294768	-0.152981
C200	C	1.530398	0.038566	0.180353
C201	C	1.863731	0.371899	0.513686
H202	H	0.693091	-0.349949	-0.530639
H203	H	1.026425	-0.016616	-0.197305
H204	H	1.359758	0.316717	0.136028
Br205	Br	1.312934	-0.488808	-0.342512
Br206	Br	1.646267	-0.155474	-0.009179
Br207	Br	1.979600	0.177859	0.324155
H208	H	0.670317	-0.258529	-0.392319
H209	H	1.003651	0.074804	-0.058985
H210	H	1.336984	0.408137	0.274348
Br211	Br	1.049662	-0.990403	-0.580417
Br212	Br	1.382995	-0.657070	-0.247083
Br213	Br	1.716329	-0.323737	0.086250
H214	H	1.282667	-0.602594	-0.369929
H215	H	1.616000	-0.269261	-0.036596
H216	H	1.949334	0.064072	0.296737
H217	H	1.112022	-0.345375	-0.973239
H218	H	1.445355	-0.012041	-0.639906
H219	H	1.778688	0.321292	-0.306572
Br220	Br	1.369007	-0.740158	-0.292143
Br221	Br	1.702340	-0.406824	0.041190
Br222	Br	2.035673	-0.073491	0.374523
H223	H	1.338713	-0.853936	-0.319548
H224	H	1.672047	-0.520603	0.013786
H225	H	2.005380	-0.187269	0.347119
H226	H	1.282887	-1.005900	-0.370005
H227	H	1.616221	-0.672566	-0.036672
H228	H	1.949554	-0.339233	0.296662
H229	H	1.080068	-1.104363	-0.553040
H230	H	1.413401	-0.771030	-0.219707
H231	H	1.746734	-0.437696	0.113627
Br232	Br	1.313291	-1.119879	-0.342647
Br233	Br	1.646625	-0.786546	-0.009314
Br234	Br	1.979958	-0.453213	0.324019
Br235	Br	0.993710	-0.867742	-0.630858
Br236	Br	1.327043	-0.534408	-0.297525
Br237	Br	1.660376	-0.201075	0.035809
H238	H	1.024001	-0.753959	-0.603441
H239	H	1.357334	-0.420626	-0.270108
H240	H	1.690668	-0.087293	0.063226
Br241	Br	1.049432	-0.616747	-0.580316
Br242	Br	1.382765	-0.283414	-0.246983
Br243	Br	1.716099	0.049919	0.086350
Br244	Br	1.280753	-0.245023	-0.928340
Br245	Br	1.614086	0.088310	-0.595007
Br246	Br	1.947419	0.421644	-0.261674
H247	H	1.079734	-0.502945	-0.552919
H248	H	1.413068	-0.169612	-0.219586
H249	H	1.746401	0.163721	0.113747
