data_functionalizedCrystal
_audit_creation_method	'MofGen! by Chris Wilmer'
_symmetry_space_group_name_H-M	'P1'
_symmetry_Int_Tables_number	1
_symmetry_cell_setting	triclinic
loop_
_symmetry_equiv_pos_as_xyz
  x,y,z
_cell_length_a	20.875641
_cell_length_b	14.560438
_cell_length_c	14.560438
_cell_angle_alpha	60.004497
_cell_angle_beta	89.998505
_cell_angle_gamma	57.588807
loop_
_atom_site_label
_atom_site_type_symbol
_atom_site_fract_x
_atom_site_fract_y
_atom_site_fract_z
Zr1	Zr	0.641493	0.937820	-0.086747
O2	O	0.535174	1.140581	-0.238957
O3	O	0.674083	0.742805	-0.040099
O4	O	0.674088	0.934394	-0.231682
O5	O	0.535167	0.948995	0.103764
O6	O	0.783668	0.922880	-0.225928
O7	O	0.535169	0.948993	-0.047374
O8	O	0.783659	0.580163	0.116778
O9	O	0.535177	1.291711	-0.238942
O10	O	0.769763	0.811556	-0.015895
O11	O	0.687983	0.820151	0.092604
O12	O	0.687990	1.045721	-0.132960
O13	O	0.606210	1.054315	-0.024461
Zr14	Zr	0.816258	0.919460	0.163478
Zr15	Zr	0.816260	0.919457	-0.077571
Zr16	Zr	0.641490	0.937824	0.154302
Zr17	Zr	0.641497	1.178856	-0.086723
Zr18	Zr	0.816254	0.678425	0.163455
O19	O	0.783668	1.114475	0.116830
O20	O	0.783671	1.114471	-0.225910
O21	O	0.535170	1.140586	0.103783
O22	O	0.922576	0.716700	0.315688
O23	O	0.922580	0.716695	-0.027052
O24	O	0.674079	0.742810	0.302641
O25	O	0.922583	0.908286	-0.027033
O26	O	0.783662	0.922887	0.308413
O27	O	0.674082	0.934401	0.302659
O28	O	0.922581	0.908288	0.124105
O29	O	0.674094	1.277115	-0.231649
O30	O	0.783657	0.580166	0.308380
O31	O	0.922574	0.565569	0.315674
O32	O	0.922576	0.565567	0.124072
O33	O	0.535175	1.291714	-0.047341
O34	O	0.674092	1.277118	-0.040047
O35	O	0.769761	0.811559	0.209691
O36	O	0.851540	0.802965	0.101192
O37	O	0.769767	1.037130	-0.015873
O38	O	0.687987	1.045724	0.092626
C39	C	0.728870	0.627142	0.038336
C40	C	0.728868	0.524816	0.038327
C41	C	0.668512	0.470126	-0.048044
C42	C	0.668504	0.566303	-0.048081
C43	C	0.789241	0.387141	0.124783
C44	C	0.789246	0.290967	0.124824
C45	C	0.598807	0.573565	-0.147848
C46	C	0.598799	0.669742	-0.147886
C47	C	0.510267	0.951610	0.026888
C48	C	0.436074	0.959406	0.022992
C49	C	0.443900	0.840840	0.082263
C50	C	0.374185	0.848173	0.078600
C51	C	0.296644	0.974073	0.015659
C52	C	0.288819	1.092648	-0.043613
C53	C	0.358533	1.085314	-0.039943
C54	C	0.083566	1.009115	-0.001863
C55	C	0.013850	1.016441	-0.005532
C56	C	0.099221	0.771964	0.116684
C57	C	0.168933	0.764641	0.120343
C58	C	0.161102	0.883216	0.061075
N59	N	0.225382	0.981572	0.011911
N60	N	0.232363	0.875716	0.064831
C61	C	0.947483	0.905670	0.049843
C62	C	1.021676	0.897875	0.053739
C63	C	0.728878	0.928636	-0.263149
C64	C	0.728880	0.928635	-0.365481
C65	C	0.728880	1.230139	0.038395
C66	C	0.728882	1.332465	0.038405
C67	C	0.668502	0.934990	-0.512882
C68	C	0.668507	0.934980	-0.416725
C69	C	0.789255	0.922286	-0.410391
C70	C	0.789252	0.922286	-0.506541
C71	C	0.598787	0.942325	-0.516542
C72	C	0.598793	0.942315	-0.420385
C73	C	0.728872	0.928645	0.339880
C74	C	0.728871	0.928646	0.442212
C75	C	0.947478	0.604172	0.049814
C76	C	1.021670	0.494050	0.053700
C77	C	0.728867	0.627146	0.339851
C78	C	0.728864	0.524822	0.442173
C79	C	0.947475	0.604176	0.351329
C80	C	1.021665	0.494056	0.457546
C81	C	0.510276	1.253104	-0.274598
C82	C	0.436085	1.363225	-0.380815
C83	C	0.510272	1.253109	0.026917
C84	C	0.436081	1.363230	0.023031
C85	C	0.728883	1.230135	-0.263120
C86	C	0.728886	1.332459	-0.365442
C87	C	1.013824	0.446820	-0.005603
C88	C	1.083528	0.343364	-0.001975
C89	C	1.161078	0.287132	0.060963
C90	C	1.168922	0.334371	0.120268
C91	C	1.099218	0.437833	0.116633
C92	C	1.099201	0.437855	0.450792
C93	C	1.168918	0.334399	0.550585
C94	C	1.161097	0.287138	0.657132
C95	C	1.083552	0.343348	0.663883
C96	C	1.013837	0.446810	0.564091
C97	C	0.358549	1.419437	-0.374061
C98	C	0.288832	1.522924	-0.473854
C99	C	0.296654	1.570190	-0.580400
C100	C	0.374198	1.513973	-0.587152
C101	C	0.443913	1.410494	-0.487360
C102	C	0.443926	1.410470	0.082324
C103	C	0.374222	1.513954	0.078670
C104	C	0.296673	1.570189	0.015728
C105	C	0.288829	1.522945	-0.043573
C106	C	0.358532	1.419470	-0.039924
C107	C	0.771551	0.472260	0.551362
C108	C	0.771541	0.376121	0.647499
C109	C	0.686158	0.385110	0.525245
C110	C	0.686163	0.481254	0.429110
C111	C	0.820849	0.467065	0.621945
C112	C	0.820840	0.370926	0.718083
H113	H	0.507034	0.738318	0.133521
H114	H	0.610993	0.572256	-0.223663
N115	N	0.221461	1.681791	-0.688033
H116	H	0.187912	1.765090	-0.689820
H117	H	0.187974	1.651727	-0.689765
N118	N	0.350092	1.213197	-0.103884
H119	H	0.406022	1.189449	-0.092008
H120	H	0.319265	1.267860	-0.074586
N121	N	0.606743	0.821754	-0.490837
H122	H	0.610300	0.767942	-0.410011
H123	H	0.657696	0.763072	-0.500064
H124	H	0.543352	0.735239	-0.134001
N125	N	1.236257	0.175530	0.064893
H126	H	1.269814	0.205455	0.033147
H127	H	1.219448	0.154191	0.017789
H128	H	0.886110	0.274050	0.773699
N129	N	0.930188	0.507456	-0.073492
H130	H	0.899363	0.493952	-0.021112
H131	H	0.935879	0.461793	-0.110498
N132	N	1.075062	0.292406	-0.065926
H133	H	1.102070	0.306309	-0.123772
H134	H	1.015344	0.343743	-0.106265
H135	H	0.232067	0.662120	0.171574
N136	N	0.854353	0.142489	0.218070
H137	H	0.892592	0.130799	0.272805
H138	H	0.886019	0.095612	0.183339
H139	H	0.225699	1.568679	-0.468334
H140	H	0.838416	0.917107	-0.368655
H141	H	0.239922	1.654444	0.012766
N142	N	0.640115	0.338100	0.511164
H143	H	0.613075	0.385987	0.427403
H144	H	0.597197	0.359344	0.546237
H145	H	0.793433	0.559952	0.620532
H146	H	0.883962	0.424301	0.616527
H147	H	0.225679	1.568747	-0.094819
H148	H	1.232072	0.288572	0.171511
N149	N	1.107686	0.488764	0.180604
H150	H	1.167392	0.437432	0.221026
H151	H	1.080630	0.474862	0.238383
N152	N	1.252551	0.273765	0.543300
H153	H	1.259080	0.346436	0.501159
H154	H	1.259023	0.233170	0.501202
N155	N	0.350064	1.368523	-0.103879
H156	H	0.290359	1.419855	-0.144301
H157	H	0.377117	1.269169	-0.048409
H158	H	0.539270	0.590647	-0.142679
N159	N	0.640026	0.538091	0.311335
H160	H	0.612949	0.495940	0.317651
H161	H	0.679148	0.517338	0.270817
H162	H	0.838415	0.917103	-0.543094
N163	N	0.930214	0.507393	0.571399
H164	H	0.899394	0.493882	0.532523
H165	H	0.899438	0.607124	0.532548
N166	N	1.107649	0.488806	0.335882
H167	H	1.167351	0.437493	0.346763
H168	H	1.080584	0.588165	0.292005
H169	H	1.217870	0.202892	0.738380
H170	H	0.380624	1.552402	0.126965
N171	N	0.606756	0.752344	-0.256243
H172	H	0.610320	0.719828	-0.304568
H173	H	0.657706	0.741957	-0.236642
H174	H	0.380565	0.751624	0.126866
N175	N	0.107654	0.644090	0.180610
H176	H	0.138444	0.589376	0.264589
H177	H	0.138426	0.589476	0.151251
N178	N	1.075123	0.292366	0.778805
H179	H	1.131056	0.218292	0.840988
H180	H	1.044304	0.255771	0.786096
H181	H	-0.049289	1.118969	-0.056791
N182	N	0.075118	1.137000	-0.065806
H183	H	0.015417	1.217866	-0.106245
H184	H	0.102187	1.139265	-0.123569
N185	N	0.519921	1.070303	-0.449786
H186	H	0.484724	1.127434	-0.532267
H187	H	0.532176	1.122374	-0.437243
N188	N	0.382627	1.564958	-0.702073
H189	H	0.326694	1.639035	-0.764257
H190	H	0.413443	1.488298	-0.709379
H191	H	0.352165	1.380960	-0.287314
N192	N	0.205184	1.228437	-0.111489
H193	H	0.174359	1.236930	-0.172362
H194	H	0.210871	1.302359	-0.148403
N195	N	0.525353	1.073581	-0.621669
H196	H	0.524861	1.150267	-0.638602
H197	H	0.474010	1.089499	-0.608209
H198	H	0.610974	0.847763	-0.343295
H199	H	0.507044	1.364727	-0.492873
N200	N	0.854346	0.342387	0.217988
H201	H	0.845183	0.424200	0.204847
H202	H	0.909741	0.283392	0.217219
H203	H	0.788319	0.410473	0.767301
H204	H	0.507064	1.364691	0.133586
