data_functionalizedCrystal
_audit_creation_method	'MofGen! by Chris Wilmer'
_symmetry_space_group_name_H-M	'P1'
_symmetry_Int_Tables_number	1
_symmetry_cell_setting	triclinic
loop_
_symmetry_equiv_pos_as_xyz
  x,y,z
_cell_length_a	19.077409
_cell_length_b	19.077432
_cell_length_c	19.076919
_cell_angle_alpha	89.934943
_cell_angle_beta	85.523525
_cell_angle_gamma	90.120568
loop_
_atom_site_label
_atom_site_type_symbol
_atom_site_fract_x
_atom_site_fract_y
_atom_site_fract_z
Zn1	Zn	1.072168	-0.250959	0.344950
Zn2	Zn	1.081524	-0.363355	0.222369
Zn3	Zn	0.959025	-0.250982	0.231798
Zn4	Zn	0.959362	-0.373137	0.344522
O5	O	1.018020	-0.309608	0.285910
O6	O	1.171886	-0.261765	0.324923
O7	O	1.069048	-0.344365	0.125143
O8	O	0.969977	-0.152819	0.250934
O9	O	1.178759	-0.344342	0.234863
O10	O	1.053103	-0.152801	0.334066
O11	O	0.979049	-0.261805	0.132071
O12	O	0.860593	-0.271290	0.250518
O13	O	0.970552	-0.361014	0.443055
O14	O	0.860841	-0.361037	0.333335
O15	O	1.053430	-0.271250	0.443370
O16	O	1.069375	-0.462813	0.234447
O17	O	0.979623	-0.470000	0.324192
C18	C	0.835183	-0.317228	0.292904
C19	C	0.756965	-0.320505	0.295912
C20	C	0.316692	-0.343955	0.317521
C21	C	0.390187	-0.340880	0.314682
C22	C	0.426777	-0.292548	0.270221
C23	C	0.389868	-0.247292	0.228592
C24	C	0.316375	-0.250370	0.231428
C25	C	0.646563	-0.278327	0.257119
C26	C	0.720061	-0.275251	0.254287
C27	C	0.720375	-0.368841	0.340376
C28	C	0.646880	-0.371912	0.343212
C29	C	0.609978	-0.326658	0.301580
N30	N	0.501901	-0.289403	0.267319
N31	N	0.534856	-0.329807	0.304479
C32	C	1.025569	-0.491859	0.278264
C33	C	1.028863	-0.569824	0.275014
C34	C	0.983652	-0.610220	0.320177
C35	C	0.986749	-0.683477	0.317121
C36	C	1.035062	-0.716336	0.268905
C37	C	1.080275	-0.675936	0.223737
C38	C	1.077174	-0.602680	0.226790
C39	C	1.049349	-0.935023	0.254763
C40	C	1.052448	-1.008283	0.251714
C41	C	0.958921	-1.015819	0.345097
C42	C	0.955827	-0.942562	0.348149
C43	C	1.001037	-0.902168	0.302979
N44	N	1.038231	-0.791217	0.265781
N45	N	0.997865	-0.827289	0.306100
C46	C	1.201570	-0.301960	0.278889
C47	C	1.279789	-0.298701	0.275897
C48	C	1.010985	-0.317221	0.469460
C49	C	1.007987	-0.320464	0.547678
C50	C	1.010459	-0.126646	0.293600
C51	C	1.007237	-0.048679	0.296877
C52	C	1.025065	-0.301974	0.103074
C53	C	1.028191	-0.298526	0.024859
C54	C	1.049727	-0.275255	0.584590
C55	C	1.046902	-0.278301	0.658085
C56	C	1.002340	-0.326559	0.694666
C57	C	0.960595	-0.371771	0.657748
C58	C	0.963417	-0.368721	0.584255
C59	C	0.989269	-0.340688	0.914449
C60	C	0.986451	-0.343736	0.987947
C61	C	1.072757	-0.250265	0.988279
C62	C	1.075579	-0.247222	0.914784
C63	C	1.033831	-0.292431	0.877873
N64	N	0.999452	-0.329675	0.769789
N65	N	1.036716	-0.289311	0.802752
H66	H	0.419666	-0.207941	0.192388
N67	N	0.910154	-1.059383	0.393811
H68	H	0.938756	-1.089900	0.424089
H69	H	0.879960	-1.089947	0.365114
H70	H	0.916487	-0.915809	0.387411
N71	N	0.944236	-0.389457	0.874663
H72	H	0.975336	-0.419515	0.841709
H73	H	0.911615	-0.361000	0.846662
H74	H	1.111868	-0.207927	0.885005
N75	N	1.117781	-0.201505	1.028089
H76	H	1.109233	-0.210757	1.080197
H77	H	1.105250	-0.151331	1.017766
H78	H	0.420231	-0.377733	0.348575
N79	N	0.759525	-0.223120	0.206326
H80	H	0.792442	-0.248948	0.171302
H81	H	0.787537	-0.190582	0.235215
N82	N	1.104562	-1.043728	0.199709
H83	H	1.132732	-1.007023	0.171557
H84	H	1.078480	-1.074009	0.166950
N85	N	1.098121	-0.891460	0.206057
H86	H	1.129201	-0.923394	0.175056
H87	H	1.128273	-0.860859	0.234762
N88	N	1.125935	-0.559107	0.178078
H89	H	1.157013	-0.591038	0.147070
H90	H	1.156091	-0.528500	0.206773
H91	H	0.950161	-0.383035	1.017729
H92	H	0.949927	-0.716364	0.353891
H93	H	1.119609	-0.702696	0.184475
H94	H	0.944313	-0.583470	0.359443
H95	H	1.086017	-0.235960	0.554811
N96	N	1.091906	-0.229527	0.697899
H97	H	1.120563	-0.198492	0.663574
H98	H	1.124483	-0.257976	0.725958
H99	H	0.924309	-0.411061	0.687539
H100	H	0.929421	-0.405528	0.554203
H101	H	0.286329	-0.213517	0.197535
N102	N	0.277230	-0.396083	0.365478
H103	H	0.311764	-0.424286	0.391414
H104	H	0.249174	-0.428586	0.336593
N105	N	0.607421	-0.424055	0.391155
H106	H	0.617851	-0.414800	0.441415
H107	H	0.622735	-0.473136	0.377474
N108	N	0.760176	-0.417652	0.385272
H109	H	0.812286	-0.408372	0.376729
H110	H	0.749825	-0.467810	0.372624
N111	N	0.606766	-0.229519	0.212219
H112	H	0.641099	-0.198433	0.183626
H113	H	0.573836	-0.199570	0.243453
