data_functionalizedCrystal
_audit_creation_method	'MofGen! by Chris Wilmer'
_symmetry_space_group_name_H-M	'P1'
_symmetry_Int_Tables_number	1
_symmetry_cell_setting	triclinic
loop_
_symmetry_equiv_pos_as_xyz
  x,y,z
_cell_length_a	13.339070
_cell_length_b	15.995350
_cell_length_c	11.804365
_cell_angle_alpha	101.833003
_cell_angle_beta	74.875130
_cell_angle_gamma	99.560835
loop_
_atom_site_label
_atom_site_type_symbol
_atom_site_fract_x
_atom_site_fract_y
_atom_site_fract_z
O1	O	1.362724	0.407602	-0.099048
O2	O	1.068197	0.352506	-0.099044
O3	O	1.223511	0.260037	-0.099045
O4	O	1.207410	0.500071	-0.099047
O5	O	1.182623	0.284347	0.099011
O6	O	1.027308	0.376816	0.099012
O7	O	1.321836	0.431912	0.099008
Cu8	Cu	1.170839	0.406583	0.117094
Cu9	Cu	1.219194	0.377835	-0.117130
O10	O	1.166521	0.524381	0.099009
C11	C	1.010063	0.355354	-0.000015
C12	C	0.897761	0.327613	-0.000014
C13	C	0.532972	0.543314	-0.000035
C14	C	0.638486	0.569380	-0.000040
C15	C	0.703310	0.508941	-0.000033
C16	C	0.662610	0.422430	-0.000022
C17	C	0.557088	0.396360	-0.000026
C18	C	0.727425	0.361987	-0.000024
C19	C	0.686725	0.275476	-0.000013
C20	C	0.581213	0.249410	-0.000017
C21	C	0.516389	0.309850	-0.000024
C22	C	0.832947	0.388057	-0.000020
C23	C	0.857062	0.241103	-0.000012
C24	C	0.751549	0.215036	-0.000007
C25	C	1.202402	0.240842	-0.000019
C26	C	1.200408	0.147427	-0.000026
C27	C	1.193240	-0.191985	-0.000022
C28	C	1.082719	-0.170302	-0.000464
C29	C	1.084623	-0.073093	-0.000018
C30	C	1.196795	-0.023599	-0.000025
C31	C	1.228004	-0.038120	0.113072
C32	C	1.225206	-0.135389	0.113167
C33	C	1.273989	-0.162861	-0.112060
C34	C	1.274271	-0.066105	-0.113555
C35	C	1.198810	0.071567	-0.000022
C36	C	1.191227	-0.287149	-0.000016
C37	C	1.379970	0.429063	-0.000023
C38	C	1.492274	0.456804	-0.000032
C39	C	1.187631	0.543575	-0.000019
C40	C	1.189627	0.636989	-0.000020
N41	N	1.136835	0.426805	0.281835
N42	N	1.253205	0.357608	-0.281871
C43	C	1.334859	0.309033	0.655782
C44	C	1.360581	0.293731	0.531121
C45	C	1.304647	0.326998	0.468793
C46	C	1.222986	0.375570	0.531140
C47	C	1.197267	0.390878	0.655814
C48	C	1.167054	0.408844	0.468824
C49	C	1.085394	0.457415	0.531171
C50	C	1.059678	0.472721	0.655833
C51	C	1.115613	0.439454	0.718160
C52	C	1.192774	0.393535	0.344150
C53	C	1.055181	0.475380	0.344182
C54	C	1.029459	0.490682	0.468843
H55	H	0.430470	0.288631	-0.000019
O56	O	0.682388	0.662680	-0.000050
H57	H	0.713226	0.687976	0.080671
H58	H	1.251655	-0.058393	-0.197221
O59	O	1.046309	-0.221653	-0.107875
H60	H	1.106591	-0.263183	-0.162093
O61	O	0.971647	0.525154	0.723085
H62	H	0.937080	0.545724	0.658806
H63	H	1.024682	-0.045291	0.081194
O64	O	0.537307	0.156105	-0.000001
H65	H	0.600103	0.118457	0.000019
H66	H	0.480187	0.592513	-0.000050
O67	O	0.926962	0.175905	0.000007
H68	H	1.007168	0.208568	0.000024
O69	O	1.382231	-0.179955	-0.113093
H70	H	1.382416	-0.249794	-0.116500
O71	O	0.994841	0.511268	0.276978
H72	H	0.911044	0.485185	0.300938
H73	H	1.094667	0.451909	0.819670
O74	O	0.707648	0.121730	0.000005
H75	H	0.676825	0.096425	-0.080723
O76	O	1.331359	-0.152286	0.120003
H77	H	1.364063	-0.198611	0.040291
H78	H	1.259262	0.353989	0.293399
H79	H	1.058474	-0.064585	-0.081090
O80	O	1.002353	-0.196670	0.106376
H81	H	1.040784	-0.225149	0.159794
H82	H	1.167968	-0.152556	0.197713
H83	H	1.309546	-0.004333	0.117274
H84	H	1.172735	-0.008211	0.197240
O85	O	0.941398	0.543081	0.536104
H86	H	0.959224	0.608414	0.512165
H87	H	1.255521	-0.202324	-0.197781
O88	O	1.332376	0.310480	0.334336
H89	H	1.414727	0.337420	0.301435
O90	O	1.384500	-0.021707	-0.122616
H91	H	1.385793	0.031584	-0.045996
H92	H	1.427069	0.254186	0.480363
O93	O	1.395191	0.273161	0.723000
H94	H	1.340898	0.229524	0.779809
O95	O	0.876831	0.481362	-0.000009
H96	H	0.867455	0.501688	-0.080728
O97	O	0.817111	0.537051	-0.000019
H98	H	0.834520	0.607362	-0.000014
