data_functionalizedCrystal
_audit_creation_method	'MofGen! by Chris Wilmer'
_symmetry_space_group_name_H-M	'P1'
_symmetry_Int_Tables_number	1
_symmetry_cell_setting	triclinic
loop_
_symmetry_equiv_pos_as_xyz
  x,y,z
_cell_length_a	9.065215
_cell_length_b	13.339070
_cell_length_c	7.540329
_cell_angle_alpha	89.998761
_cell_angle_beta	89.997574
_cell_angle_gamma	100.321996
loop_
_atom_site_label
_atom_site_type_symbol
_atom_site_fract_x
_atom_site_fract_y
_atom_site_fract_z
O1	O	2.018450	0.148874	-0.147455
O2	O	1.593927	0.161089	-0.147462
O3	O	1.757467	0.007272	-0.147454
O4	O	1.854910	0.302691	-0.147463
O5	O	1.757453	0.007270	0.147511
O6	O	1.593913	0.161087	0.147503
O7	O	2.018435	0.148872	0.147510
Cu8	Cu	1.806173	0.154979	0.174439
Cu9	Cu	1.806190	0.154982	-0.174391
O10	O	1.854896	0.302689	0.147502
C11	C	1.538476	0.159915	0.000020
C12	C	1.373265	0.156407	0.000017
C13	C	1.741000	-0.030569	0.000026
C14	C	1.691936	-0.143320	0.000018
C15	C	2.073427	-0.504620	0.000026
C16	C	2.119529	-0.398685	0.000043
C17	C	2.012635	-0.334839	0.000036
C18	C	1.859631	-0.376937	0.000013
C19	C	1.813524	-0.482883	0.000009
C20	C	1.752732	-0.313101	0.000020
C21	C	1.599727	-0.355200	-0.000003
C22	C	1.553629	-0.461135	-0.000008
C23	C	1.660523	-0.524981	-0.000001
C24	C	1.798839	-0.207156	0.000024
C25	C	1.538935	-0.185419	0.000007
C26	C	1.492833	-0.291353	-0.000010
C27	C	2.073887	0.150046	0.000025
C28	C	2.239098	0.153554	0.000016
C29	C	1.871363	0.340530	0.000019
C30	C	1.920426	0.453281	0.000015
N31	N	1.806171	0.154977	0.419788
N32	N	1.806199	0.154976	-0.419739
H33	H	2.050181	-0.248583	0.000051
C34	C	1.421336	-0.115200	-0.000004
C35	C	1.417301	-0.039378	-0.153175
C36	C	1.299712	0.030848	-0.153180
C37	C	1.186159	0.025251	-0.000015
C38	C	1.190190	-0.050574	0.153167
C39	C	1.307779	-0.120799	0.153172
H40	H	1.501363	-0.035232	-0.266567
H41	H	1.296728	0.086978	-0.266576
H42	H	1.099113	0.077236	-0.000019
H43	H	1.106127	-0.054720	0.266559
H44	H	1.310762	-0.176930	0.266568
C45	C	2.190994	-0.574852	0.000042
C46	C	2.304519	-0.569263	0.153224
C47	C	2.422095	-0.639498	0.153246
C48	C	2.426147	-0.715320	0.000086
C49	C	2.312619	-0.720912	-0.153108
C50	C	2.195042	-0.650677	-0.153129
H51	H	2.301523	-0.513132	0.266613
H52	H	2.506137	-0.635358	0.266651
H53	H	2.513184	-0.767312	0.000102
H54	H	2.315614	-0.777043	-0.266496
H55	H	2.111001	-0.654817	-0.266534
H56	H	1.923415	-0.172890	0.000043
H57	H	2.244105	-0.364416	0.000065
H58	H	1.622994	-0.611243	-0.000022
H59	H	1.429043	-0.495408	-0.000014
H60	H	1.368254	-0.325645	-0.000028
