data_functionalizedCrystal
_audit_creation_method	'MofGen! by Chris Wilmer'
_symmetry_space_group_name_H-M	'P1'
_symmetry_Int_Tables_number	1
_symmetry_cell_setting	triclinic
loop_
_symmetry_equiv_pos_as_xyz
  x,y,z
_cell_length_a	14.971486
_cell_length_b	15.072220
_cell_length_c	14.971494
_cell_angle_alpha	89.999404
_cell_angle_beta	83.615843
_cell_angle_gamma	90.007545
loop_
_atom_site_label
_atom_site_type_symbol
_atom_site_fract_x
_atom_site_fract_y
_atom_site_fract_z
O1	O	1.186959	0.073677	0.116556
O2	O	1.686959	0.573677	0.616556
O3	O	0.926559	0.073701	0.130515
O4	O	1.426559	0.573701	0.630515
O5	O	1.063735	0.073686	-0.006664
O6	O	1.563735	0.573686	0.493336
O7	O	1.049784	0.073692	0.253735
O8	O	1.549784	0.573692	0.753735
O9	O	1.063701	-0.073879	-0.006656
O10	O	1.563701	0.426121	0.493344
O11	O	0.926526	-0.073864	0.130523
O12	O	1.426526	0.426136	0.630523
O13	O	1.186925	-0.073888	0.116564
O14	O	1.686925	0.426112	0.616564
Zn15	Zn	1.056720	-0.097305	0.123544
Zn16	Zn	1.556720	0.402695	0.623544
Zn17	Zn	1.056765	0.097118	0.123534
Zn18	Zn	1.556765	0.597118	0.623534
O19	O	1.049750	-0.073874	0.253743
O20	O	1.549750	0.426126	0.753743
C21	C	0.893218	-0.000079	0.129895
C22	C	1.393218	0.499921	0.629895
C23	C	0.793921	-0.000070	0.128024
C24	C	1.293921	0.499930	0.628024
N25	N	1.056696	-0.229994	0.123551
N26	N	1.556696	0.270006	0.623551
C27	C	0.736698	-0.000069	0.208613
C28	C	1.236698	0.499931	0.708613
C29	C	0.643398	-0.000082	0.206850
C30	C	1.143398	0.499918	0.706850
C31	C	0.607323	-0.000090	0.124497
C32	C	1.107323	0.499910	0.624497
C33	C	0.664554	-0.000093	0.043902
C34	C	1.164554	0.499907	0.543902
C35	C	0.757851	-0.000086	0.045666
C36	C	1.257851	0.499914	0.545666
C37	C	0.470091	-0.000105	0.040231
C38	C	0.970091	0.499895	0.540231
C39	C	0.376787	-0.000110	0.038466
C40	C	0.876787	0.499890	0.538466
C41	C	0.355638	-0.000102	0.201415
C42	C	0.855638	0.499898	0.701415
C43	C	0.448936	-0.000095	0.203179
C44	C	0.948936	0.499905	0.703179
C45	C	0.506159	-0.000096	0.122583
C46	C	1.006159	0.499904	0.622583
C47	C	1.056763	-0.589196	0.123531
C48	C	1.556763	-0.089196	0.623531
C49	C	0.983116	-0.551581	0.196686
C50	C	1.483116	-0.051581	0.696686
C51	C	0.983285	-0.448755	0.196954
C52	C	1.483285	0.051245	0.696954
C53	C	1.056729	-0.410992	0.123541
C54	C	1.556729	0.089008	0.623541
C55	C	1.150080	-0.448291	0.144025
C56	C	1.650080	0.051709	0.644025
C57	C	1.149667	-0.551149	0.144545
C58	C	1.649667	-0.051149	0.644545
C59	C	1.037891	-0.551296	0.029676
C60	C	1.537891	-0.051296	0.529676
C61	C	1.035750	-0.448432	0.030299
C62	C	1.535750	0.051568	0.530299
C63	C	1.056716	-0.310278	0.123545
C64	C	1.556716	0.189722	0.623545
C65	C	1.056782	-0.689909	0.123529
C66	C	1.556782	-0.189909	0.623529
C67	C	1.220267	-0.000107	0.117184
C68	C	1.720267	0.499893	0.617184
C69	C	1.319564	-0.000110	0.119055
C70	C	1.819564	0.499890	0.619055
C71	C	1.063093	-0.000095	-0.039985
C72	C	1.563093	0.499905	0.460015
C73	C	1.061219	-0.000091	-0.139281
C74	C	1.561219	0.499909	0.360719
N75	N	1.056796	0.229807	0.123521
N76	N	1.556796	0.729807	0.623521
C77	C	1.060359	0.080348	-0.185930
C78	C	1.560359	0.580348	0.314070
C79	C	1.058593	0.080350	-0.279229
C80	C	1.558593	0.580350	0.220771
C81	C	1.057693	-0.000089	-0.325879
C82	C	1.557693	0.499911	0.174121
C83	C	1.058550	-0.080534	-0.279223
C84	C	1.558550	0.419466	0.220777
C85	C	1.060310	-0.080534	-0.185925
C86	C	1.560310	0.419466	0.314075
C87	C	1.054884	-0.080528	-0.473686
C88	C	1.554884	0.419472	0.026314
C89	C	1.053126	-0.080528	-0.566991
C90	C	1.553126	0.419472	-0.066991
C91	C	1.053167	0.080356	-0.566991
C92	C	1.553167	0.580356	-0.066991
C93	C	1.054927	0.080356	-0.473692
C94	C	1.554927	0.580356	0.026308
C95	C	1.055786	-0.000090	-0.427043
C96	C	1.555786	0.499910	0.072957
C97	C	1.050392	-0.000091	0.287064
C98	C	1.550392	0.499909	0.787064
C99	C	1.052266	-0.000089	0.386360
C100	C	1.552266	0.499911	0.886360
H101	H	0.766062	-0.000063	0.275674
H102	H	1.266062	0.499937	0.775674
H103	H	0.995347	-0.424141	0.266600
H104	H	1.495347	0.075859	0.766600
H105	H	1.052466	0.145858	-0.604977
H106	H	1.552466	0.645858	-0.104977
C107	C	1.225952	-0.584764	0.075331
C108	C	1.725952	-0.084764	0.575331
N109	N	1.283420	-0.610079	0.023210
N110	N	1.783420	-0.110079	0.523210
H111	H	0.971293	-0.577280	0.010004
H112	H	1.471293	-0.077280	0.510004
H113	H	1.060997	-0.146036	-0.147943
H114	H	1.560997	0.353964	0.352057
H115	H	0.913899	-0.423538	0.184734
H116	H	1.413899	0.076462	0.684734
C117	C	1.225893	-0.415241	0.073966
C118	C	1.725893	0.084759	0.573966
N119	N	1.282995	-0.390346	0.021197
N120	N	1.782995	0.109654	0.521197
C121	C	1.055832	-0.169022	-0.422375
C122	C	1.555832	0.330978	0.077625
N123	N	1.056552	-0.235675	-0.383728
N124	N	1.556552	0.264325	0.116272
H125	H	0.967080	-0.424054	0.014756
H126	H	1.467080	0.075946	0.514756
C127	C	0.889076	-0.585044	0.180466
C128	C	1.389076	-0.085044	0.680466
N129	N	0.818243	-0.610261	0.168251
N130	N	1.318243	-0.110261	0.668251
H131	H	0.516681	-0.000108	-0.025399
H132	H	1.016681	0.499892	0.474601
H133	H	1.085899	-0.422729	-0.026697
H134	H	1.585899	0.077271	0.473303
H135	H	0.635174	-0.000111	-0.023152
H136	H	1.135174	0.499889	0.476848
H137	H	0.347418	-0.000117	-0.028593
H138	H	0.847418	0.499883	0.471407
H139	H	1.052385	-0.146028	-0.604969
H140	H	1.552385	0.353972	-0.104969
C141	C	1.172095	-0.583550	0.237025
C142	C	1.672095	-0.083550	0.737025
N143	N	1.188981	-0.607949	0.306686
N144	N	1.688981	-0.107949	0.806686
C145	C	1.110440	-0.584163	-0.043873
C146	C	1.610440	-0.084163	0.456127
N147	N	1.165085	-0.608924	-0.099263
N148	N	1.665085	-0.108924	0.400737
C149	C	1.061349	0.168839	-0.134625
C150	C	1.561349	0.668839	0.365375
N151	N	1.062091	0.235492	-0.095983
N152	N	1.562091	0.735492	0.404017
C153	C	0.488616	-0.000090	0.293771
C154	C	0.988616	0.499910	0.793771
N155	N	0.518502	-0.000092	0.362007
N156	N	1.018502	0.499908	0.862007
C157	C	1.055921	0.168842	-0.422380
C158	C	1.555921	0.668842	0.077620
N159	N	1.056667	0.235492	-0.383732
N160	N	1.556667	0.735492	0.116268
H161	H	0.804442	-0.000086	-0.019958
H162	H	1.304442	0.499914	0.480042
H163	H	1.057811	-0.146029	-0.317211
H164	H	1.557811	0.353971	0.182789
C165	C	0.999185	-0.586486	0.290247
C166	C	1.499185	-0.086486	0.790247
N167	N	1.011291	-0.612777	0.360716
N168	N	1.511291	-0.112777	0.860716
C169	C	1.173053	-0.413491	0.235452
C170	C	1.673053	0.086509	0.735452
N171	N	1.190350	-0.387285	0.304320
N172	N	1.690350	0.112715	0.804320
H173	H	0.309041	-0.000105	0.267038
H174	H	0.809041	0.499895	0.767038
H175	H	0.596810	-0.000081	0.272473
H176	H	1.096810	0.499919	0.772473
H177	H	1.057897	0.145851	-0.317207
H178	H	1.557897	0.645851	0.182793
