data_functionalizedCrystal
_audit_creation_method	'MofGen! by Chris Wilmer'
_symmetry_space_group_name_H-M	'P1'
_symmetry_Int_Tables_number	1
_symmetry_cell_setting	triclinic
loop_
_symmetry_equiv_pos_as_xyz
  x,y,z
_cell_length_a	12.645330
_cell_length_b	17.077404
_cell_length_c	17.077396
_cell_angle_alpha	89.980499
_cell_angle_beta	89.975148
_cell_angle_gamma	90.012610
loop_
_atom_site_label
_atom_site_type_symbol
_atom_site_fract_x
_atom_site_fract_y
_atom_site_fract_z
Zn1	Zn	-0.422033	1.200112	-0.443863
Zn2	Zn	-0.599318	1.200043	-0.312605
Zn3	Zn	-0.422070	1.068844	-0.312610
Zn4	Zn	-0.599256	1.068836	-0.443828
O5	O	-0.510669	1.134459	-0.378227
O6	O	-0.445561	1.309950	-0.426463
O7	O	-0.575848	1.182614	-0.202759
O8	O	-0.273718	1.086289	-0.330038
O9	O	-0.575812	1.309899	-0.330028
O10	O	-0.273691	1.182731	-0.426468
O11	O	-0.445624	1.086222	-0.202763
O12	O	-0.445563	0.958996	-0.330005
O13	O	-0.575705	1.086275	-0.553680
O14	O	-0.575741	0.958990	-0.426410
O15	O	-0.445500	1.182723	-0.553705
O16	O	-0.747657	1.182606	-0.329995
O17	O	-0.747611	1.086209	-0.426405
C18	C	-0.510650	0.930511	-0.378205
C19	C	-0.510667	0.843261	-0.378214
C20	C	-0.786099	1.134420	-0.378213
C21	C	-0.903929	1.134476	-0.378233
C22	C	-0.578553	0.802288	-0.428332
C23	C	-0.578555	0.720308	-0.428345
C24	C	-0.510677	0.679302	-0.378235
C25	C	-0.442783	0.720280	-0.328115
C26	C	-0.442777	0.802259	-0.328107
C27	C	-0.442804	0.549410	-0.328134
C28	C	-0.442812	0.467425	-0.328141
C29	C	-0.578583	0.467459	-0.428371
C30	C	-0.578576	0.549438	-0.428363
C31	C	-0.510684	0.590411	-0.378242
C32	C	-0.948795	1.195189	-0.317634
C33	C	-1.071356	1.195049	-0.317418
C34	C	-1.071936	1.051754	-0.356004
C35	C	-0.949338	1.052066	-0.355543
C36	C	-0.949010	1.155844	-0.461259
C37	C	-1.071615	1.157709	-0.460838
C38	C	-0.234164	1.134519	-0.378258
C39	C	-0.116334	1.134544	-0.378271
C40	C	-0.510591	1.134506	-0.582971
C41	C	-0.510558	1.134526	-0.670221
C42	C	-0.510689	1.339203	-0.378249
C43	C	-0.510698	1.426453	-0.378258
C44	C	-0.442755	1.184749	-0.711225
C45	C	-0.442719	1.184758	-0.793206
C46	C	-0.510493	1.134549	-0.834180
C47	C	-0.578300	1.084321	-0.793170
C48	C	-0.578329	1.084308	-0.711191
C49	C	-0.578236	1.084352	-0.964040
C50	C	-0.578208	1.084366	-1.046025
C51	C	-0.442626	1.184802	-1.046055
C52	C	-0.442656	1.184790	-0.964076
C53	C	-0.510464	1.134563	-0.923071
C54	C	-0.510671	1.134456	-0.174279
C55	C	-0.510405	1.134588	-0.087029
H56	H	-0.633831	0.835670	-0.469135
H57	H	-0.919661	1.005279	-0.397772
H58	H	-0.918058	1.181203	-0.256467
H59	H	-0.919989	1.111629	-0.506408
H60	H	-0.633479	1.043436	-0.826538
H61	H	-0.387527	0.434040	-0.287346
N62	N	-0.651283	1.030181	-1.090202
H63	H	-0.608161	0.993826	-1.124204
H64	H	-0.700411	1.062103	-1.124177
H65	H	-0.633530	1.043404	-0.677806
N66	N	-1.112155	1.103456	-0.523845
H67	H	-1.082122	1.119766	-0.576181
H68	H	-1.191891	1.106255	-0.525730
H69	H	-0.387510	1.225656	-0.826588
N70	N	-0.651789	0.676115	-0.482389
H71	H	-0.694799	0.714532	-0.514124
H72	H	-0.700786	0.642087	-0.450363
H73	H	-0.633855	0.582823	-0.469163
N74	N	-1.110532	0.990218	-0.412676
H75	H	-1.157282	1.015477	-0.453426
H76	H	-1.152162	0.949173	-0.383269
H77	H	-0.387511	0.686886	-0.287318
N78	N	-0.651813	0.423273	-0.482430
H79	H	-0.641517	0.365117	-0.474836
H80	H	-0.635415	0.437632	-0.538512
N81	N	-0.369575	0.593605	-0.274080
H82	H	-0.326577	0.555189	-0.242334
H83	H	-0.412662	0.627597	-0.237696
H84	H	-1.102720	1.033380	-0.295998
H85	H	-0.387492	0.835618	-0.287300
N86	N	-0.369478	1.238978	-1.090265
H87	H	-0.412545	1.275351	-1.124283
H88	H	-0.320340	1.207041	-1.124229
N89	N	-1.111125	1.276360	-0.335818
H90	H	-1.049014	1.312617	-0.344145
H91	H	-1.155398	1.296069	-0.290709
H92	H	-1.100761	1.180908	-0.255911
H93	H	-0.920822	1.033986	-0.294859
H94	H	-0.387474	1.225679	-0.930717
H95	H	-1.100625	1.218635	-0.477631
N96	N	-0.909667	1.276731	-0.335833
H97	H	-0.862473	1.275111	-0.383533
H98	H	-0.868382	1.297502	-0.289681
N99	N	-0.651364	1.030176	-0.919811
H100	H	-0.694298	0.998372	-0.958206
H101	H	-0.700438	1.062114	-0.885797
H102	H	-0.387568	1.225638	-0.677870
N103	N	-0.907961	1.234424	-0.488140
H104	H	-0.859717	1.256968	-0.446766
H105	H	-0.969414	1.271122	-0.497045
