data_functionalizedCrystal
_audit_creation_method	'MofGen! by Chris Wilmer'
_symmetry_space_group_name_H-M	'P1'
_symmetry_Int_Tables_number	1
_symmetry_cell_setting	triclinic
loop_
_symmetry_equiv_pos_as_xyz
  x,y,z
_cell_length_a	8.559649
_cell_length_b	15.944551
_cell_length_c	7.088929
_cell_angle_alpha	83.774879
_cell_angle_beta	95.325015
_cell_angle_gamma	76.638701
loop_
_atom_site_label
_atom_site_type_symbol
_atom_site_fract_x
_atom_site_fract_y
_atom_site_fract_z
O1	O	2.103727	-0.018804	-0.158956
O2	O	1.638526	0.024575	-0.158968
O3	O	1.883832	-0.120210	-0.158944
O4	O	1.858421	0.125981	-0.158979
O5	O	1.916614	-0.139599	0.159034
O6	O	1.671309	0.005187	0.159010
O7	O	2.136509	-0.038193	0.159023
Cu8	Cu	1.906902	-0.018273	0.188050
Cu9	Cu	1.868133	0.004656	-0.187996
O10	O	1.891203	0.106593	0.158999
C11	C	1.595388	0.018169	0.000020
C12	C	1.418008	0.027954	0.000015
C13	C	1.899168	-0.161130	0.000045
C14	C	1.896006	-0.254172	0.000046
C15	C	1.736394	-0.458727	0.000015
C16	C	1.826675	-0.534087	0.156800
C17	C	1.890284	-0.424528	0.000031
C18	C	1.794391	-0.514957	-0.156702
C19	C	1.884745	-0.589082	0.000009
C20	C	1.980621	-0.498671	0.156945
C21	C	1.948300	-0.479525	-0.156697
C22	C	2.038697	-0.554877	0.000126
C23	C	1.893471	-0.329732	0.000046
C24	C	1.881571	-0.683878	0.000008
C25	C	2.179647	-0.031786	0.000031
C26	C	2.357025	-0.041571	0.000022
C27	C	1.875866	0.147513	0.000005
C28	C	1.879027	0.240556	-0.000008
N29	N	1.934182	-0.034401	0.452541
N30	N	1.840866	0.020776	-0.452487
H31	H	1.334507	0.094969	-0.000005
O32	O	2.074657	-0.489397	0.315056
C33	C	2.203062	-0.454609	0.259117
H34	H	2.168244	-0.418387	0.107815
H35	H	2.315755	-0.509624	0.262895
C36	C	2.280894	-0.435710	0.583127
C37	C	2.238124	-0.391215	0.397300
H38	H	2.302528	-0.396608	0.668367
H39	H	2.194389	-0.459150	0.620817
H40	H	2.374800	-0.481554	0.586248
H41	H	2.144209	-0.345379	0.394176
H42	H	2.324614	-0.367765	0.359613
H43	H	1.608676	-0.417185	0.000169
O44	O	1.765064	-0.562631	0.314784
C45	C	1.605707	-0.512897	0.314252
H46	H	1.552894	-0.482954	0.161683
H47	H	1.606915	-0.458945	0.407168
C48	C	1.566208	-0.608674	0.581641
C49	C	1.501337	-0.571904	0.394250
H50	H	1.501828	-0.645071	0.630995
H51	H	1.673572	-0.642179	0.582005
H52	H	1.567211	-0.563707	0.659048
H53	H	1.500353	-0.616871	0.316843
H54	H	1.393970	-0.538408	0.393875
H55	H	2.166552	-0.596292	0.000218
O56	O	1.725678	0.089025	0.449902
C57	C	1.799539	0.142292	0.334129
H58	H	1.921441	0.102532	0.304319
H59	H	1.818452	0.198986	0.411148
C60	C	1.540281	0.226438	0.180504
C61	C	1.689997	0.177602	0.143878
H62	H	1.472709	0.248222	0.063152
H63	H	1.490518	0.190553	0.258508
H64	H	1.556064	0.273676	0.244692
H65	H	1.674215	0.130359	0.079713
H66	H	1.739755	0.213479	0.065859
O67	O	1.456854	-0.121458	0.000118
C68	C	1.617671	-0.113771	0.000069
H69	H	1.630118	-0.051855	0.060261
H70	H	1.650140	-0.110732	-0.152480
C71	C	1.717376	-0.269166	0.050849
C72	C	1.732667	-0.193123	0.124793
H73	H	1.788313	-0.318115	0.127777
H74	H	1.609030	-0.274345	0.050875
H75	H	1.744431	-0.266621	-0.076274
H76	H	1.705592	-0.195664	0.251904
H77	H	1.841011	-0.187946	0.124791
H78	H	2.030912	-0.091580	0.534206
H79	H	1.999667	-0.455510	-0.289250
H80	H	1.715616	-0.522750	-0.289260
