data_functionalizedCrystal
_audit_creation_method	'MofGen! by Chris Wilmer'
_symmetry_space_group_name_H-M	'P1'
_symmetry_Int_Tables_number	1
_symmetry_cell_setting	triclinic
loop_
_symmetry_equiv_pos_as_xyz
  x,y,z
_cell_length_a	16.625546
_cell_length_b	12.645331
_cell_length_c	16.625539
_cell_angle_alpha	90.008658
_cell_angle_beta	89.971468
_cell_angle_gamma	89.979378
loop_
_atom_site_label
_atom_site_type_symbol
_atom_site_fract_x
_atom_site_fract_y
_atom_site_fract_z
Zn1	Zn	-0.321055	-1.620639	-0.455717
Zn2	Zn	0.012279	-1.287306	-0.122384
Zn3	Zn	0.345612	-0.953973	0.210950
Zn4	Zn	-0.455894	-1.620523	-0.320879
Zn5	Zn	-0.122560	-1.287190	0.012454
Zn6	Zn	0.210773	-0.953856	0.345787
Zn7	Zn	-0.321074	-1.443371	-0.320917
Zn8	Zn	0.012259	-1.110037	0.012416
Zn9	Zn	0.345592	-0.776704	0.345749
Zn10	Zn	-0.455845	-1.443321	-0.455689
Zn11	Zn	-0.122511	-1.109988	-0.122356
Zn12	Zn	0.210822	-0.776654	0.210978
O13	O	-0.388467	-1.531963	-0.388301
O14	O	-0.055134	-1.198630	-0.054967
O15	O	0.278200	-0.865297	0.278366
O16	O	-0.338954	-1.768971	-0.437826
O17	O	-0.005620	-1.435638	-0.104493
O18	O	0.327713	-1.102304	0.228840
O19	O	-0.438038	-1.596995	-0.208052
O20	O	-0.104705	-1.263662	0.125282
O21	O	0.228629	-0.930329	0.458615
O22	O	-0.208239	-1.466955	-0.338826
O23	O	0.125094	-1.133622	-0.005493
O24	O	0.458427	-0.800289	0.327840
O25	O	-0.438019	-1.768886	-0.338762
O26	O	-0.104686	-1.435552	-0.005428
O27	O	0.228647	-1.102219	0.327905
O28	O	-0.208225	-1.597194	-0.437863
O29	O	0.125108	-1.263860	-0.104530
O30	O	0.458442	-0.930527	0.228804
O31	O	-0.338987	-1.466842	-0.208080
O32	O	-0.005654	-1.133509	0.125254
O33	O	0.327680	-0.800176	0.458587
O34	O	-0.338940	-1.295017	-0.338799
O35	O	-0.005606	-0.961684	-0.005466
O36	O	0.327727	-0.628350	0.327868
O37	O	-0.437936	-1.466870	-0.568525
O38	O	-0.104603	-1.133537	-0.235192
O39	O	0.228731	-0.800204	0.098142
O40	O	-0.437955	-1.294980	-0.437815
O41	O	-0.104622	-0.961647	-0.104482
O42	O	0.228712	-0.628314	0.228851
O43	O	-0.338906	-1.597146	-0.568546
O44	O	-0.005573	-1.263812	-0.235212
O45	O	0.327760	-0.930479	0.098121
O46	O	-0.568719	-1.596947	-0.338734
O47	O	-0.235386	-1.263614	-0.005401
O48	O	0.097947	-0.930281	0.327932
O49	O	-0.568684	-1.466758	-0.437778
O50	O	-0.235350	-1.133424	-0.104445
O51	O	0.097983	-0.800091	0.228888
C52	C	-0.388445	-1.256534	-0.388309
C53	C	-0.055111	-0.923200	-0.054975
C54	C	0.278222	-0.589867	0.278358
C55	C	-0.388455	-1.138704	-0.388331
C56	C	-0.055121	-0.805370	-0.054998
C57	C	0.278212	-0.472037	0.278335
C58	C	-0.451084	-0.971152	-0.450301
C59	C	-0.117751	-0.637819	-0.116968
C60	C	0.215582	-0.304486	0.216365
C61	C	-0.450884	-1.093712	-0.450558
C62	C	-0.117551	-0.760379	-0.117224
C63	C	0.215783	-0.427046	0.216109
C64	C	-0.303531	-1.094232	-0.411556
C65	C	0.029803	-0.760899	-0.078223
C66	C	0.363136	-0.427565	0.255111
C67	C	-0.303911	-0.971634	-0.411995
C68	C	0.029422	-0.638301	-0.078662
C69	C	0.362756	-0.304967	0.254672
C70	C	-0.410059	-0.971466	-0.302949
C71	C	-0.076726	-0.638133	0.030385
C72	C	0.256607	-0.304800	0.363718
C73	C	-0.411918	-1.094072	-0.303406
C74	C	-0.078585	-0.760739	0.029927
C75	C	0.254748	-0.427405	0.363260
C76	C	-0.597958	-1.531863	-0.388267
C77	C	-0.264624	-1.198530	-0.054933
C78	C	0.068709	-0.865197	0.278400
C79	C	-0.687579	-1.531917	-0.388279
C80	C	-0.354245	-1.198584	-0.054946
C81	C	-0.020912	-0.865251	0.278387
C82	C	-1.015754	-1.532102	-0.388363
C83	C	-0.682421	-1.198769	-0.055030
C84	C	-0.349088	-0.865436	0.278303
C85	C	-0.924446	-1.532047	-0.388342
C86	C	-0.591113	-1.198714	-0.055009
C87	C	-0.257779	-0.865381	0.278325
C88	C	-0.851670	-1.532009	-0.388321
C89	C	-0.518336	-1.198676	-0.054988
C90	C	-0.185003	-0.865342	0.278346
C91	C	-0.760355	-1.531956	-0.388301
C92	C	-0.427022	-1.198622	-0.054967
C93	C	-0.093689	-0.865289	0.278366
C94	C	-0.178158	-1.532093	-0.388352
C95	C	0.155175	-1.198760	-0.055019
C96	C	0.488509	-0.865426	0.278315
C97	C	-0.088537	-1.532148	-0.388374
C98	C	0.244797	-1.198815	-0.055041
C99	C	0.578130	-0.865482	0.278293
C100	C	-0.388414	-1.532015	-0.598610
C101	C	-0.055080	-1.198682	-0.265276
C102	C	0.278253	-0.865349	0.068057
C103	C	-0.388391	-1.532038	-0.688231
C104	C	-0.055058	-1.198704	-0.354897
C105	C	0.278276	-0.865371	-0.021564
C106	C	-0.388486	-0.808469	-0.388298
C107	C	-0.055153	-0.475135	-0.054965
C108	C	0.278181	-0.141802	0.278368
C109	C	-0.388485	-0.926299	-0.388312
C110	C	-0.055152	-0.592965	-0.054978
C111	C	0.278182	-0.259632	0.278355
C112	C	-0.388373	-1.532055	-0.761013
C113	C	-0.055040	-1.198722	-0.427680
C114	C	0.278294	-0.865388	-0.094347
C115	C	-0.388343	-1.532080	-0.852322
C116	C	-0.055010	-1.198746	-0.518988
C117	C	0.278324	-0.865413	-0.185655
C118	C	-0.388315	-1.532105	-0.925098
C119	C	-0.054981	-1.198771	-0.591765
C120	C	0.278352	-0.865438	-0.258432
C121	C	-0.388286	-1.532131	-1.016413
C122	C	-0.054952	-1.198798	-0.683079
C123	C	0.278381	-0.865464	-0.349746
C124	C	-0.388462	-1.531973	-0.178810
C125	C	-0.055128	-1.198639	0.154524
C126	C	0.278205	-0.865306	0.487857
C127	C	-0.388257	-1.532156	-0.089189
C128	C	-0.054924	-1.198823	0.244144
C129	C	0.278409	-0.865489	0.577478
H130	H	-0.255623	-1.123375	-0.367815
H131	H	0.077710	-0.790042	-0.034482
H132	H	0.411043	-0.456709	0.298851
F133	F	-0.533672	-0.932592	-0.431492
F134	F	-0.200338	-0.599259	-0.098159
F135	F	0.132995	-0.265926	0.235174
H136	H	-0.513860	-1.123779	-0.436001
H137	H	-0.180526	-0.790446	-0.102668
H138	H	0.152807	-0.457113	0.230665
F139	F	-0.356645	-1.134097	-0.239794
F140	F	-0.023311	-0.800764	0.093540
F141	F	0.310022	-0.467431	0.426873
F142	F	-0.432223	-1.132070	-0.533229
F143	F	-0.098890	-0.798737	-0.199896
F144	F	0.234444	-0.465403	0.133438
F145	F	-0.432678	-0.930880	-0.532492
F146	F	-0.099344	-0.597547	-0.199158
F147	F	0.233989	-0.264213	0.134175
F148	F	-0.279175	-1.134381	-0.492238
F149	F	0.054158	-0.801047	-0.158904
F150	F	0.387492	-0.467714	0.174429
F151	F	-0.279994	-0.934274	-0.493562
F152	F	0.053339	-0.600940	-0.160229
F153	F	0.386673	-0.267607	0.173105
H154	H	-0.470929	-0.940540	-0.281843
H155	H	-0.137595	-0.607207	0.051491
H156	H	0.195738	-0.273874	0.384824
F157	F	-0.493606	-1.132062	-0.280516
F158	F	-0.160272	-0.798729	0.052818
F159	F	0.173061	-0.465396	0.386151
F160	F	-0.350463	-0.933551	-0.242577
F161	F	-0.017130	-0.600218	0.090757
F162	F	0.316203	-0.266885	0.424090
H163	H	-0.255599	-0.941964	-0.368916
H164	H	0.077735	-0.608630	-0.035582
H165	H	0.411068	-0.275297	0.297751
