data_functionalizedCrystal
_audit_creation_method	'MofGen! by Chris Wilmer'
_symmetry_space_group_name_H-M	'P1'
_symmetry_Int_Tables_number	1
_symmetry_cell_setting	triclinic
loop_
_symmetry_equiv_pos_as_xyz
  x,y,z
_cell_length_a	11.026607
_cell_length_b	17.038272
_cell_length_c	9.482900
_cell_angle_alpha	100.012096
_cell_angle_beta	78.636152
_cell_angle_gamma	99.848786
loop_
_atom_site_label
_atom_site_type_symbol
_atom_site_fract_x
_atom_site_fract_y
_atom_site_fract_z
O1	O	1.662374	0.322506	-0.120910
O2	O	1.305163	0.284676	-0.120910
O3	O	1.481644	0.189477	-0.120899
O4	O	1.485893	0.417705	-0.120922
O5	O	1.445807	0.208914	0.120891
O6	O	1.269325	0.304112	0.120880
O7	O	1.626537	0.341943	0.120880
Cu8	Cu	1.444659	0.324802	0.142957
Cu9	Cu	1.487041	0.301816	-0.142988
O10	O	1.450056	0.437141	0.120868
C11	C	1.241313	0.287415	-0.000015
C12	C	1.104451	0.266610	-0.000015
C13	C	1.459863	0.169523	-0.000004
C14	C	1.448341	0.081107	-0.000004
C15	C	1.036577	0.324055	-0.000022
C16	C	0.895123	0.302554	-0.000021
C17	C	1.554125	0.045899	-0.000003
C18	C	1.543294	-0.037179	-0.000016
C19	C	1.426676	-0.085048	-0.000021
C20	C	1.320885	-0.049835	-0.000027
C21	C	1.331719	0.033241	-0.000024
C22	C	1.388403	-0.336201	-0.000041
C23	C	1.377576	-0.419281	-0.000040
C24	C	1.599987	-0.406621	-0.000032
C25	C	1.610809	-0.323543	-0.000020
C26	C	1.505019	-0.288338	-0.000034
C27	C	1.415602	-0.169967	-0.000031
C28	C	1.516096	-0.203421	-0.000034
C29	C	1.690388	0.339203	-0.000018
C30	C	1.827251	0.360008	-0.000028
C31	C	1.471837	0.457095	-0.000030
C32	C	1.483360	0.545511	-0.000039
N33	N	1.414859	0.340969	0.344075
N34	N	1.516850	0.285644	-0.344106
C35	C	1.478242	0.306580	0.416279
C36	C	1.453458	0.320039	0.583695
H37	H	1.083189	0.389155	-0.000020
H38	H	1.057843	0.201507	-0.000046
C39	C	0.832162	0.214601	-0.000013
N40	N	0.784738	0.148356	-0.000008
H41	H	1.589463	0.246231	0.593775
C42	C	1.659662	-0.075902	0.000009
N43	N	1.747315	-0.105066	0.000035
H44	H	1.342241	0.380373	0.406201
C45	C	1.287320	-0.222627	-0.000006
N46	N	1.190697	-0.262293	0.000019
H47	H	1.611051	-0.164446	-0.000063
C48	C	1.716349	-0.445354	-0.000031
N49	N	1.803999	-0.474529	-0.000037
H50	H	0.873856	0.425112	-0.000025
H51	H	1.649086	0.084868	0.000010
C52	C	1.739097	-0.270894	-0.000013
N53	N	1.835725	-0.231238	-0.000002
C54	C	1.249284	-0.471936	-0.000057
N55	N	1.152659	-0.511596	-0.000070
C56	C	1.192602	-0.102492	-0.000021
N57	N	1.095975	-0.142151	-0.000005
H58	H	1.302261	-0.307547	-0.000052
C59	C	1.215348	0.071969	-0.000022
N60	N	1.127693	0.101138	-0.000025
C61	C	1.576319	0.253326	0.332355
N62	N	1.650186	0.213209	0.269146
C63	C	1.355349	0.373276	0.667613
N64	N	1.281455	0.413373	0.730822
