data_functionalizedCrystal
_audit_creation_method	'MofGen! by Chris Wilmer'
_symmetry_space_group_name_H-M	'P1'
_symmetry_Int_Tables_number	1
_symmetry_cell_setting	triclinic
loop_
_symmetry_equiv_pos_as_xyz
  x,y,z
_cell_length_a	23.532355
_cell_length_b	14.853569
_cell_length_c	13.330367
_cell_angle_alpha	89.994190
_cell_angle_beta	89.998270
_cell_angle_gamma	83.231532
loop_
_atom_site_label
_atom_site_type_symbol
_atom_site_fract_x
_atom_site_fract_y
_atom_site_fract_z
O1	O	0.755758	0.109215	-0.083290
O2	O	0.589960	0.125098	-0.083322
O3	O	0.677288	-0.014123	-0.083295
O4	O	0.668431	0.248436	-0.083316
O5	O	0.677275	-0.014126	0.083552
O6	O	0.589947	0.125095	0.083525
O7	O	0.755746	0.109212	0.083557
Cu8	Cu	0.672845	0.117153	0.098776
Cu9	Cu	0.672860	0.117157	-0.098540
O10	O	0.668418	0.248433	0.083531
C11	C	0.568735	0.124700	0.000098
C12	C	0.505512	0.123506	0.000086
C13	C	0.676880	-0.047709	0.000128
C14	C	0.675677	-0.147779	0.000129
C15	C	0.623238	-0.183566	0.000121
C16	C	0.726985	-0.206021	0.000130
C17	C	0.725857	-0.300043	0.000125
C18	C	0.673418	-0.335830	0.000117
C19	C	0.622108	-0.277596	0.000113
C20	C	0.777166	-0.358283	0.000119
C21	C	0.776040	-0.452311	0.000114
C22	C	0.723600	-0.488100	0.000112
C23	C	0.672288	-0.429860	0.000110
C24	C	0.619849	-0.465648	0.000101
C25	C	0.568536	-0.407409	0.000105
C26	C	0.569668	-0.313385	0.000112
C27	C	0.722468	-0.582124	0.000106
C28	C	0.618719	-0.559677	0.000094
C29	C	0.113458	0.116004	0.091076
C30	C	0.054054	0.114868	0.091080
O31	O	0.023327	0.114249	0.168428
N32	N	0.024350	0.114307	0.000132
C33	C	0.054054	0.114872	-0.090825
O34	O	0.023334	0.114289	-0.168183
C35	C	0.113458	0.116001	-0.090828
C36	C	0.143158	0.116572	0.000126
C37	C	0.143158	0.116574	0.182023
C38	C	0.202559	0.117711	0.182019
C39	C	0.232258	0.118279	0.091068
C40	C	0.202558	0.117709	0.000121
C41	C	0.143161	0.116560	-0.181785
C42	C	0.202569	0.117688	-0.181780
C43	C	0.232269	0.118259	-0.090826
C44	C	0.291658	0.119414	-0.090834
N45	N	0.321362	0.119976	0.000114
C46	C	0.291662	0.119408	0.091065
C47	C	-0.070698	0.112499	-0.090812
C48	C	-0.130101	0.111376	-0.090811
C49	C	-0.130097	0.111371	0.091096
C50	C	-0.070693	0.112500	0.091093
C51	C	-0.040994	0.113061	0.000136
C52	C	0.416407	0.121797	0.091049
C53	C	0.475812	0.122938	0.091036
C54	C	0.475803	0.122939	-0.090869
C55	C	0.416403	0.121802	-0.090857
C56	C	0.386706	0.121229	0.000110
O57	O	0.322423	0.120031	-0.168142
O58	O	0.322391	0.119979	0.168410
C59	C	0.776970	0.109610	0.000136
C60	C	0.840194	0.110804	0.000141
C61	C	0.668826	0.282019	0.000105
C62	C	0.670029	0.382089	0.000097
N63	N	0.672839	0.117150	0.237557
N64	N	0.672871	0.117153	-0.237322
C65	C	0.634190	0.178780	0.710168
C66	C	0.711546	0.055526	0.710160
C67	C	0.711540	0.055524	0.605142
C68	C	0.672858	0.117151	0.552632
C69	C	0.634184	0.178781	0.605140
C70	C	0.750217	-0.006099	0.552625
C71	C	0.750213	-0.006104	0.447600
C72	C	0.711529	0.055520	0.395089
C73	C	0.672852	0.117152	0.447604
C74	C	0.634171	0.178779	0.395094
C75	C	0.595491	0.240407	0.447607
C76	C	0.595499	0.240404	0.552629
C77	C	0.711520	0.055523	0.290067
C78	C	0.634164	0.178780	0.290066
H79	H	0.576016	-0.588808	0.000096
H80	H	0.602696	0.228954	0.752927
H81	H	0.743042	0.005355	0.752917
N82	N	0.555989	0.303370	0.393965
N83	N	0.574103	0.359182	0.335357
H84	H	0.546206	0.403650	0.297469
N85	N	0.517251	-0.253914	0.000111
N86	N	0.482385	-0.256904	0.070431
H87	H	0.445364	-0.214902	0.070426
H88	H	0.743015	0.005350	0.247316
H89	H	-0.046521	0.112964	-0.164885
N90	N	0.506158	0.123528	0.183938
N91	N	0.534100	0.187719	0.204224
H92	H	0.555532	0.188135	0.269833
N93	N	0.789746	-0.069003	0.606276
N94	N	0.789755	-0.068975	0.700045
H95	H	0.817680	-0.113392	0.737942
H96	H	0.781707	-0.056285	0.404851
H97	H	-0.154279	0.110926	-0.164874
N98	N	0.830732	-0.321743	0.000144
N99	N	0.876541	-0.373747	0.000147
H100	H	0.914374	-0.347939	0.000169
N101	N	0.828457	-0.511782	0.000106
N102	N	0.875272	-0.479816	0.000110
H103	H	0.912293	-0.521818	0.000106
N104	N	0.594660	0.241747	0.236433
N105	N	0.612769	0.297563	0.177827
H106	H	0.584870	0.342035	0.139949
H107	H	0.392234	0.121338	0.165123
N108	N	0.514978	-0.443987	0.000106
N109	N	0.502779	-0.493970	0.070428
H110	H	0.464956	-0.519810	0.070430
N111	N	0.570831	-0.124071	0.000135
N112	N	0.571843	-0.040122	0.000150
H113	H	0.534830	0.001898	0.000162
N114	N	0.774881	-0.641599	0.000112
N115	N	0.809739	-0.638619	0.070443
H116	H	0.846759	-0.680623	0.070450
N117	N	0.780541	-0.169450	0.000146
N118	N	0.792738	-0.119491	0.070479
H119	H	0.830563	-0.093658	0.070493
N120	N	0.232884	0.118280	0.274936
N121	N	0.206351	0.117762	0.356128
H122	H	0.227765	0.118156	0.421757
N123	N	0.555995	0.303344	0.606284
N124	N	0.556010	0.303334	0.700053
H125	H	0.528112	0.347786	0.737953
H126	H	0.118983	0.116110	0.256090
H127	H	-0.046515	0.112966	0.165156
H128	H	0.118990	0.116094	-0.255850
N129	N	-0.160451	0.110800	0.183994
N130	N	-0.213489	0.109793	0.183973
H131	H	-0.234929	0.109393	0.249578
N132	N	0.232897	0.118253	-0.274703
N133	N	0.206368	0.117740	-0.355897
H134	H	0.227785	0.118140	-0.421524
H135	H	0.392218	0.121352	-0.164920
N136	N	0.506155	0.123533	-0.183760
N137	N	0.559192	0.124549	-0.183739
H138	H	0.580631	0.124966	-0.249344
