data_functionalizedCrystal
_audit_creation_method	'MofGen! by Chris Wilmer'
_symmetry_space_group_name_H-M	'P1'
_symmetry_Int_Tables_number	1
_symmetry_cell_setting	triclinic
loop_
_symmetry_equiv_pos_as_xyz
  x,y,z
_cell_length_a	27.732048
_cell_length_b	27.732048
_cell_length_c	26.809956
_cell_angle_alpha	89.999364
_cell_angle_beta	89.996742
_cell_angle_gamma	82.642655
loop_
_atom_site_label
_atom_site_type_symbol
_atom_site_fract_x
_atom_site_fract_y
_atom_site_fract_z
O1	O	0.640931	0.057510	-0.041421
O2	O	0.890931	0.307510	0.208579
O3	O	1.140931	0.557510	0.458579
O4	O	1.390931	0.807510	0.708579
O5	O	0.500138	0.066256	-0.041436
O6	O	0.750138	0.316256	0.208564
O7	O	1.000138	0.566256	0.458564
O8	O	1.250138	0.816256	0.708564
O9	O	0.574907	-0.008514	-0.041419
O10	O	0.824907	0.241486	0.208581
O11	O	1.074907	0.491486	0.458581
O12	O	1.324907	0.741486	0.708581
O13	O	0.566162	0.132280	-0.041439
O14	O	0.816162	0.382280	0.208561
O15	O	1.066162	0.632280	0.458561
O16	O	1.316162	0.882280	0.708561
O17	O	0.574893	-0.008502	0.041541
O18	O	0.824893	0.241498	0.291541
O19	O	1.074893	0.491498	0.541541
O20	O	1.324893	0.741498	0.791541
O21	O	0.500123	0.066267	0.041523
O22	O	0.750123	0.316267	0.291523
O23	O	1.000123	0.566267	0.541523
O24	O	1.250123	0.816267	0.791523
O25	O	0.640917	0.057522	0.041539
O26	O	0.890917	0.307522	0.291539
O27	O	1.140917	0.557522	0.541539
O28	O	1.390917	0.807522	0.791539
Zn29	Zn	0.570518	0.061896	0.054702
Zn30	Zn	0.820518	0.311896	0.304702
Zn31	Zn	1.070518	0.561896	0.554702
Zn32	Zn	1.320518	0.811896	0.804702
Zn33	Zn	0.570536	0.061881	-0.054600
Zn34	Zn	0.820536	0.311881	0.195400
Zn35	Zn	1.070536	0.561881	0.445400
Zn36	Zn	1.320536	0.811881	0.695400
O37	O	0.566147	0.132291	0.041521
O38	O	0.816147	0.382291	0.291521
O39	O	1.066147	0.632291	0.541521
O40	O	1.316147	0.882291	0.791521
C41	C	0.482124	0.066078	0.000041
C42	C	0.732124	0.316078	0.250041
C43	C	0.982124	0.566078	0.500041
C44	C	1.232124	0.816078	0.750041
C45	C	0.428469	0.065525	0.000036
C46	C	0.678469	0.315525	0.250036
C47	C	0.928469	0.565525	0.500036
C48	C	1.178469	0.815525	0.750036
C49	C	0.574716	-0.026515	0.000062
C50	C	0.824716	0.223485	0.250062
C51	C	1.074716	0.473485	0.500062
C52	C	1.324716	0.723485	0.750062
C53	C	0.574164	-0.080170	0.000066
C54	C	0.824164	0.169830	0.250066
C55	C	1.074164	0.419830	0.500066
C56	C	1.324164	0.669830	0.750066
C57	C	0.089654	0.106229	0.000051
C58	C	0.339654	0.356229	0.250051
C59	C	0.589654	0.606229	0.500051
C60	C	0.839654	0.856229	0.750051
C61	C	-0.112006	0.104178	0.000056
C62	C	0.137994	0.354178	0.250056
C63	C	0.387994	0.604178	0.500056
C64	C	0.637994	0.854178	0.750056
O65	O	-0.143262	0.141398	0.000073
O66	O	0.106738	0.391398	0.250073
O67	O	0.356738	0.641398	0.500073
O68	O	0.606738	0.891398	0.750073
N69	N	-0.131130	0.059843	0.000062
N70	N	0.118870	0.309843	0.250062
N71	N	0.368870	0.559843	0.500062
N72	N	0.618870	0.809843	0.750062
C73	C	-0.099835	0.016017	0.000069
C74	C	0.150165	0.266017	0.250069
C75	C	0.400165	0.516017	0.500069
C76	C	0.650165	0.766017	0.750069
O77	O	-0.120728	-0.021740	0.000079
O78	O	0.129272	0.228260	0.250079
O79	O	0.379272	0.478260	0.500079
O80	O	0.629272	0.728260	0.750079
C81	C	0.101824	0.018068	0.000068
C82	C	0.351824	0.268068	0.250068
C83	C	0.601824	0.518068	0.500068
C84	C	0.851824	0.768068	0.750068
C85	C	0.120944	0.062407	0.000057
C86	C	0.370944	0.312407	0.250057
C87	C	0.620944	0.562407	0.500057
C88	C	0.870944	0.812407	0.750057
C89	C	0.108775	0.150563	0.000042
C90	C	0.358775	0.400563	0.250042
C91	C	0.608775	0.650563	0.500042
C92	C	0.858775	0.900563	0.750042
C93	C	0.159187	0.151076	0.000038
C94	C	0.409187	0.401076	0.250038
C95	C	0.659187	0.651076	0.500038
C96	C	0.909187	0.901076	0.750038
C97	C	0.190477	0.107253	0.000044
C98	C	0.440477	0.357253	0.250044
C99	C	0.690477	0.607253	0.500044
C100	C	0.940477	0.857253	0.750044
C101	C	0.171356	0.062919	0.000054
C102	C	0.421356	0.312919	0.250054
C103	C	0.671356	0.562919	0.500054
C104	C	0.921356	0.812919	0.750054
C105	C	0.133117	-0.025757	0.000079
C106	C	0.383117	0.224243	0.250079
C107	C	0.633117	0.474243	0.500079
C108	C	0.883117	0.724243	0.750079
C109	C	0.183535	-0.025240	0.000080
C110	C	0.433535	0.224760	0.250080
C111	C	0.683535	0.474760	0.500080
C112	C	0.933535	0.724760	0.750080
C113	C	0.202655	0.019098	0.000069
C114	C	0.452655	0.269098	0.250069
C115	C	0.702655	0.519098	0.500069
C116	C	0.952655	0.769098	0.750069
C117	C	0.253059	0.019609	0.000056
C118	C	0.503059	0.269609	0.250056
C119	C	0.753059	0.519609	0.500056
C120	C	1.003059	0.769609	0.750056
N121	N	0.272183	0.063944	0.000050
N122	N	0.522183	0.313944	0.250050
N123	N	0.772183	0.563944	0.500050
N124	N	1.022183	0.813944	0.750050
C125	C	0.240892	0.107766	0.000044
C126	C	0.490892	0.357766	0.250044
C127	C	0.740892	0.607766	0.500044
C128	C	0.990892	0.857766	0.750044
C129	C	-0.205709	0.014943	0.000069
C130	C	0.044291	0.264943	0.250069
C131	C	0.294291	0.514943	0.500069
C132	C	0.544291	0.764943	0.750069
C133	C	-0.256124	0.014430	0.000068
C134	C	-0.006124	0.264430	0.250068
C135	C	0.243876	0.514430	0.500068
C136	C	0.493876	0.764430	0.750068
C137	C	-0.268291	0.102591	0.000056
C138	C	-0.018291	0.352591	0.250056
C139	C	0.231709	0.602591	0.500056
C140	C	0.481709	0.852591	0.750056
C141	C	-0.217876	0.103104	0.000053
C142	C	0.032124	0.353104	0.250053
C143	C	0.282124	0.603104	0.500053
C144	C	0.532124	0.853104	0.750053
C145	C	-0.186585	0.059278	0.000063
C146	C	0.063415	0.309278	0.250063
C147	C	0.313415	0.559278	0.500063
C148	C	0.563415	0.809278	0.750063
C149	C	0.346761	0.108839	0.000036
C150	C	0.596761	0.358839	0.250036
C151	C	0.846761	0.608839	0.500036
C152	C	1.096761	0.858839	0.750036
C153	C	0.397178	0.109347	0.000030
C154	C	0.647178	0.359347	0.250030
C155	C	0.897178	0.609347	0.500030
C156	C	1.147178	0.859347	0.750030
C157	C	0.409341	0.021186	0.000044
C158	C	0.659341	0.271186	0.250044
C159	C	0.909341	0.521186	0.500044
C160	C	1.159341	0.771186	0.750044
C161	C	0.358929	0.020678	0.000048
C162	C	0.608929	0.270678	0.250048
C163	C	0.858929	0.520678	0.500048
C164	C	1.108929	0.770678	0.750048
C165	C	0.327639	0.064508	0.000045
C166	C	0.577639	0.314508	0.250045
C167	C	0.827639	0.564508	0.500045
C168	C	1.077639	0.814508	0.750045
O169	O	0.284343	-0.017592	0.000045
O170	O	0.534343	0.232408	0.250045
O171	O	0.784343	0.482408	0.500045
O172	O	1.034343	0.732408	0.750045
O173	O	0.261794	0.145518	0.000045
O174	O	0.511794	0.395518	0.250045
O175	O	0.761794	0.645518	0.500045
O176	O	1.011794	0.895518	0.750045
C177	C	0.039242	0.105716	0.000055
C178	C	0.289242	0.355716	0.250055
C179	C	0.539242	0.605716	0.500055
C180	C	0.789242	0.855716	0.750055
C181	C	0.020120	0.061382	0.000065
C182	C	0.270120	0.311382	0.250065
C183	C	0.520120	0.561382	0.500065
C184	C	0.770120	0.811382	0.750065
C185	C	0.051411	0.017560	0.000071
C186	C	0.301411	0.267560	0.250071
C187	C	0.551411	0.517560	0.500071
C188	C	0.801411	0.767560	0.750071
C189	C	-0.030294	0.060869	0.000065
C190	C	0.219706	0.310869	0.250065
C191	C	0.469706	0.560869	0.500065
C192	C	0.719706	0.810869	0.750065
C193	C	-0.061585	0.104691	0.000059
C194	C	0.188415	0.354691	0.250059
C195	C	0.438415	0.604691	0.500059
C196	C	0.688415	0.854691	0.750059
C197	C	-0.042461	0.149026	0.000053
C198	C	0.207539	0.399026	0.250053
C199	C	0.457539	0.649026	0.500053
C200	C	0.707539	0.899026	0.750053
C201	C	0.007951	0.149539	0.000049
C202	C	0.257951	0.399539	0.250049
C203	C	0.507951	0.649539	0.500049
C204	C	0.757951	0.899539	0.750049
C205	C	0.032287	-0.026775	0.000077
C206	C	0.282287	0.223225	0.250077
C207	C	0.532287	0.473225	0.500077
C208	C	0.782287	0.723225	0.750077
C209	C	-0.018125	-0.027284	0.000080
C210	C	0.231875	0.222716	0.250080
C211	C	0.481875	0.472716	0.500080
C212	C	0.731875	0.722716	0.750080
C213	C	-0.049416	0.016538	0.000074
C214	C	0.200584	0.266538	0.250074
C215	C	0.450584	0.516538	0.500074
C216	C	0.700584	0.766538	0.750074
C217	C	0.614867	-0.418985	0.000045
C218	C	0.864867	-0.168985	0.250045
C219	C	1.114867	0.081015	0.500045
C220	C	1.364867	0.331015	0.750045
C221	C	0.612816	-0.620645	0.000038
C222	C	0.862816	-0.370645	0.250038
C223	C	1.112816	-0.120645	0.500038
C224	C	1.362816	0.129355	0.750038
O225	O	0.650037	-0.651900	0.000021
O226	O	0.900037	-0.401900	0.250021
O227	O	1.150037	-0.151900	0.500021
O228	O	1.400037	0.098100	0.750021
N229	N	0.568481	-0.639768	0.000034
N230	N	0.818481	-0.389768	0.250034
N231	N	1.068481	-0.139768	0.500034
N232	N	1.318481	0.110232	0.750034
C233	C	0.524656	-0.608474	0.000028
C234	C	0.774656	-0.358474	0.250028
C235	C	1.024656	-0.108474	0.500028
C236	C	1.274656	0.141526	0.750028
O237	O	0.486899	-0.629367	0.000019
O238	O	0.736899	-0.379367	0.250019
O239	O	0.986899	-0.129367	0.500019
O240	O	1.236899	0.120633	0.750019
C241	C	0.526707	-0.406815	0.000031
C242	C	0.776707	-0.156815	0.250031
C243	C	1.026707	0.093185	0.500031
C244	C	1.276707	0.343185	0.750031
C245	C	0.571045	-0.387694	0.000041
C246	C	0.821045	-0.137694	0.250041
C247	C	1.071045	0.112306	0.500041
C248	C	1.321045	0.362306	0.750041
C249	C	0.659202	-0.399864	0.000054
C250	C	0.909202	-0.149864	0.250054
C251	C	1.159202	0.100136	0.500054
C252	C	1.409202	0.350136	0.750054
C253	C	0.659714	-0.349452	0.000059
C254	C	0.909714	-0.099452	0.250059
C255	C	1.159714	0.150548	0.500059
C256	C	1.409714	0.400548	0.750059
C257	C	0.615892	-0.318161	0.000054
C258	C	0.865892	-0.068161	0.250054
C259	C	1.115892	0.181839	0.500054
C260	C	1.365892	0.431839	0.750054
C261	C	0.571557	-0.337282	0.000045
C262	C	0.821557	-0.087282	0.250045
C263	C	1.071557	0.162718	0.500045
C264	C	1.321557	0.412718	0.750045
C265	C	0.482882	-0.375521	0.000022
C266	C	0.732882	-0.125521	0.250022
C267	C	0.982882	0.124479	0.500022
C268	C	1.232882	0.374479	0.750022
C269	C	0.483399	-0.325104	0.000021
C270	C	0.733399	-0.075104	0.250021
C271	C	0.983399	0.174896	0.500021
C272	C	1.233399	0.424896	0.750021
C273	C	0.527737	-0.305983	0.000031
C274	C	0.777737	-0.055983	0.250031
C275	C	1.027737	0.194017	0.500031
C276	C	1.277737	0.444017	0.750031
C277	C	0.528247	-0.255580	0.000045
C278	C	0.778247	-0.005580	0.250045
C279	C	1.028247	0.244420	0.500045
C280	C	1.278247	0.494420	0.750045
N281	N	0.572583	-0.236456	0.000050
N282	N	0.822583	0.013544	0.250050
N283	N	1.072583	0.263544	0.500050
N284	N	1.322583	0.513544	0.750050
C285	C	0.616405	-0.267747	0.000054
C286	C	0.866405	-0.017747	0.250054
C287	C	1.116405	0.232253	0.500054
C288	C	1.366405	0.482253	0.750054
C289	C	0.523582	-0.714348	0.000027
C290	C	0.773582	-0.464348	0.250027
C291	C	1.023582	-0.214348	0.500027
C292	C	1.273582	0.035652	0.750027
C293	C	0.523069	-0.764762	0.000027
C294	C	0.773069	-0.514762	0.250027
C295	C	1.023069	-0.264762	0.500027
C296	C	1.273069	-0.014762	0.750027
C297	C	0.611230	-0.776930	0.000036
C298	C	0.861230	-0.526930	0.250036
C299	C	1.111230	-0.276930	0.500036
C300	C	1.361230	-0.026930	0.750036
C301	C	0.611742	-0.726514	0.000040
C302	C	0.861742	-0.476514	0.250040
C303	C	1.111742	-0.226514	0.500040
C304	C	1.361742	0.023486	0.750040
C305	C	0.567917	-0.695224	0.000031
C306	C	0.817917	-0.445224	0.250031
C307	C	1.067917	-0.195224	0.500031
C308	C	1.317917	0.054776	0.750031
C309	C	0.617477	-0.161878	0.000064
C310	C	0.867477	0.088122	0.250064
C311	C	1.117477	0.338122	0.500064
C312	C	1.367477	0.588122	0.750064
C313	C	0.617986	-0.111461	0.000071
C314	C	0.867986	0.138539	0.250071
C315	C	1.117986	0.388539	0.500071
C316	C	1.367986	0.638539	0.750071
C317	C	0.529825	-0.099298	0.000059
C318	C	0.779825	0.150702	0.250059
C319	C	1.029825	0.400702	0.500059
C320	C	1.279825	0.650702	0.750059
C321	C	0.529316	-0.149710	0.000055
C322	C	0.779316	0.100290	0.250055
C323	C	1.029316	0.350290	0.500055
C324	C	1.279316	0.600290	0.750055
C325	C	0.573147	-0.180999	0.000056
C326	C	0.823147	0.069001	0.250056
C327	C	1.073147	0.319001	0.500056
C328	C	1.323147	0.569001	0.750056
O329	O	0.491047	-0.224296	0.000057
O330	O	0.741047	0.025704	0.250057
O331	O	0.991047	0.275704	0.500057
O332	O	1.241047	0.525704	0.750057
O333	O	0.654156	-0.246844	0.000053
O334	O	0.904156	0.003156	0.250053
O335	O	1.154156	0.253156	0.500053
O336	O	1.404156	0.503156	0.750053
C337	C	0.614355	-0.469397	0.000041
C338	C	0.864355	-0.219397	0.250041
C339	C	1.114355	0.030603	0.500041
C340	C	1.364355	0.280603	0.750041
C341	C	0.570021	-0.488518	0.000032
C342	C	0.820021	-0.238518	0.250032
C343	C	1.070021	0.011482	0.500032
C344	C	1.320021	0.261482	0.750032
C345	C	0.526198	-0.457228	0.000027
C346	C	0.776198	-0.207228	0.250027
C347	C	1.026198	0.042772	0.500027
C348	C	1.276198	0.292772	0.750027
C349	C	0.569508	-0.538933	0.000032
C350	C	0.819508	-0.288933	0.250032
C351	C	1.069508	-0.038933	0.500032
C352	C	1.319508	0.211067	0.750032
C353	C	0.613330	-0.570223	0.000036
C354	C	0.863330	-0.320223	0.250036
C355	C	1.113330	-0.070223	0.500036
C356	C	1.363330	0.179777	0.750036
C357	C	0.657665	-0.551100	0.000041
C358	C	0.907665	-0.301100	0.250041
C359	C	1.157665	-0.051100	0.500041
C360	C	1.407665	0.198900	0.750041
C361	C	0.658177	-0.500688	0.000045
C362	C	0.908177	-0.250688	0.250045
C363	C	1.158177	-0.000688	0.500045
C364	C	1.408177	0.249312	0.750045
C365	C	0.481863	-0.476351	0.000023
C366	C	0.731863	-0.226351	0.250023
C367	C	0.981863	0.023649	0.500023
C368	C	1.231863	0.273649	0.750023
C369	C	0.481355	-0.526764	0.000019
C370	C	0.731355	-0.276764	0.250019
C371	C	0.981355	-0.026764	0.500019
C372	C	1.231355	0.223236	0.750019
C373	C	0.525177	-0.558054	0.000023
C374	C	0.775177	-0.308054	0.250023
C375	C	1.025177	-0.058054	0.500023
C376	C	1.275177	0.191946	0.750023
C377	C	0.658931	0.057699	0.000060
C378	C	0.908931	0.307699	0.250060
C379	C	1.158931	0.557699	0.500060
C380	C	1.408931	0.807699	0.750060
C381	C	0.712586	0.058252	0.000062
C382	C	0.962586	0.308252	0.250062
C383	C	1.212586	0.558252	0.500062
C384	C	1.462586	0.808252	0.750062
C385	C	0.566338	0.150292	0.000039
C386	C	0.816338	0.400292	0.250039
C387	C	1.066338	0.650292	0.500039
C388	C	1.316338	0.900292	0.750039
C389	C	0.566891	0.203947	0.000031
C390	C	0.816891	0.453947	0.250031
C391	C	1.066891	0.703947	0.500031
C392	C	1.316891	0.953947	0.750031
N393	N	0.570509	0.061906	0.129298
N394	N	0.820509	0.311906	0.379298
N395	N	1.070509	0.561906	0.629298
N396	N	1.320509	0.811906	0.879298
N397	N	0.570549	0.061867	-0.129196
N398	N	0.820549	0.311867	0.120804
N399	N	1.070549	0.561867	0.370804
N400	N	1.320549	0.811867	0.620804
C401	C	0.603640	0.028781	0.473932
C402	C	0.853640	0.278781	0.723932
C403	C	1.103640	0.528781	0.973932
C404	C	1.353640	0.778781	1.223932
C405	C	0.603652	0.028774	0.682810
C406	C	0.853652	0.278774	0.932810
C407	C	1.103652	0.528774	1.182810
C408	C	1.353652	0.778774	1.432810
O409	O	0.631801	0.000613	0.709820
O410	O	0.881801	0.250613	0.959820
O411	O	1.131801	0.500613	1.209820
O412	O	1.381801	0.750613	1.459820
N413	N	0.570539	0.061870	0.708925
N414	N	0.820539	0.311870	0.958925
N415	N	1.070539	0.561870	1.208925
N416	N	1.320539	0.811870	1.458925
C417	C	0.537419	0.094969	0.682818
C418	C	0.787419	0.344969	0.932818
C419	C	1.037419	0.594969	1.182818
C420	C	1.287419	0.844969	1.432818
O421	O	0.509252	0.123116	0.709824
O422	O	0.759252	0.373116	0.959824
O423	O	1.009252	0.623116	1.209824
O424	O	1.259252	0.873116	1.459824
C425	C	0.537406	0.094974	0.473941
C426	C	0.787406	0.344974	0.723941
C427	C	1.037406	0.594974	0.973941
C428	C	1.287406	0.844974	1.223941
C429	C	0.570524	0.061878	0.447829
C430	C	0.820524	0.311878	0.697829
C431	C	1.070524	0.561878	0.947829
C432	C	1.320524	0.811878	1.197829
C433	C	0.636755	-0.004312	0.447819
C434	C	0.886755	0.245688	0.697819
C435	C	1.136755	0.495688	0.947819
C436	C	1.386755	0.745688	1.197819
C437	C	0.636754	-0.004308	0.395603
C438	C	0.886754	0.245692	0.645603
C439	C	1.136754	0.495692	0.895603
C440	C	1.386754	0.745692	1.145603
C441	C	0.603637	0.028789	0.369500
C442	C	0.853637	0.278789	0.619500
C443	C	1.103637	0.528789	0.869500
C444	C	1.353637	0.778789	1.119500
C445	C	0.570522	0.061882	0.395612
C446	C	0.820522	0.311882	0.645612
C447	C	1.070522	0.561882	0.895612
C448	C	1.320522	0.811882	1.145612
C449	C	0.504284	0.128070	0.447835
C450	C	0.754284	0.378070	0.697835
C451	C	1.004284	0.628070	0.947835
C452	C	1.254284	0.878070	1.197835
C453	C	0.504283	0.128067	0.395613
C454	C	0.754283	0.378067	0.645613
C455	C	1.004283	0.628067	0.895613
C456	C	1.254283	0.878067	1.145613
C457	C	0.537401	0.094972	0.369500
C458	C	0.787401	0.344972	0.619500
C459	C	1.037401	0.594972	0.869500
C460	C	1.287401	0.844972	1.119500
C461	C	0.537405	0.094983	0.317293
C462	C	0.787405	0.344983	0.567293
C463	C	1.037405	0.594983	0.817293
C464	C	1.287405	0.844983	1.067293
N465	N	0.570517	0.061887	0.291177
N466	N	0.820517	0.311887	0.541177
N467	N	1.070517	0.561887	0.791177
N468	N	1.320517	0.811887	1.041177
C469	C	0.603633	0.028790	0.317281
C470	C	0.853633	0.278790	0.567281
C471	C	1.103633	0.528790	0.817281
C472	C	1.353633	0.778790	1.067281
C473	C	0.537429	0.094965	0.792481
C474	C	0.787429	0.344965	1.042481
C475	C	1.037429	0.594965	1.292481
C476	C	1.287429	0.844965	1.542481
C477	C	0.537433	0.094964	0.844700
C478	C	0.787433	0.344964	1.094700
C479	C	1.037433	0.594964	1.344700
C480	C	1.287433	0.844964	1.594700
C481	C	0.603665	0.028768	0.844689
C482	C	0.853665	0.278768	1.094689
C483	C	1.103665	0.528768	1.344689
C484	C	1.353665	0.778768	1.594689
C485	C	0.603663	0.028772	0.792469
C486	C	0.853663	0.278772	1.042469
C487	C	1.103663	0.528772	1.292469
C488	C	1.353663	0.778772	1.542469
C489	C	0.570542	0.061868	0.766366
C490	C	0.820542	0.311868	1.016366
C491	C	1.070542	0.561868	1.266366
C492	C	1.320542	0.811868	1.516366
C493	C	0.603628	0.028801	0.207623
C494	C	0.853628	0.278801	0.457623
C495	C	1.103628	0.528801	0.707623
C496	C	1.353628	0.778801	0.957623
C497	C	0.603625	0.028809	0.155402
C498	C	0.853625	0.278809	0.405402
C499	C	1.103625	0.528809	0.655402
C500	C	1.353625	0.778809	0.905402
C501	C	0.537392	0.095003	0.155418
C502	C	0.787392	0.345003	0.405418
C503	C	1.037392	0.595003	0.655418
C504	C	1.287392	0.845003	0.905418
C505	C	0.537396	0.094997	0.207635
C506	C	0.787396	0.344997	0.457635
C507	C	1.037396	0.594997	0.707635
C508	C	1.287396	0.844997	0.957635
C509	C	0.570516	0.061892	0.233735
C510	C	0.820516	0.311892	0.483735
C511	C	1.070516	0.561892	0.733735
C512	C	1.320516	0.811892	0.983735
O513	O	0.509266	0.123126	0.290250
O514	O	0.759266	0.373126	0.540250
O515	O	1.009266	0.623126	0.790250
O516	O	1.259266	0.873126	1.040250
O517	O	0.631789	0.000640	0.290266
O518	O	0.881789	0.250640	0.540266
O519	O	1.131789	0.500640	0.790266
O520	O	1.381789	0.750640	1.040266
C521	C	0.603642	0.028777	0.526149
C522	C	0.853642	0.278777	0.776149
C523	C	1.103642	0.528777	1.026149
C524	C	1.353642	0.778777	1.276149
C525	C	0.570527	0.061870	0.552261
C526	C	0.820527	0.311870	0.802261
C527	C	1.070527	0.561870	1.052261
C528	C	1.320527	0.811870	1.302261
C529	C	0.537410	0.094968	0.526158
C530	C	0.787410	0.344968	0.776158
C531	C	1.037410	0.594968	1.026158
C532	C	1.287410	0.844968	1.276158
C533	C	0.570531	0.061870	0.604480
C534	C	0.820531	0.311870	0.854480
C535	C	1.070531	0.561870	1.104480
C536	C	1.320531	0.811870	1.354480
C537	C	0.603647	0.028773	0.630584
C538	C	0.853647	0.278773	0.880584
C539	C	1.103647	0.528773	1.130584
C540	C	1.353647	0.778773	1.380584
C541	C	0.636759	-0.004324	0.604468
C542	C	0.886759	0.245676	0.854468
C543	C	1.136759	0.495676	1.104468
C544	C	1.386759	0.745676	1.354468
C545	C	0.636758	-0.004320	0.552252
C546	C	0.886758	0.245680	0.802252
C547	C	1.136758	0.495680	1.052252
C548	C	1.386758	0.745680	1.302252
C549	C	0.504298	0.128064	0.552273
C550	C	0.754298	0.378064	0.802273
C551	C	1.004298	0.628064	1.052273
C552	C	1.254298	0.878064	1.302273
C553	C	0.504303	0.128058	0.604489
C554	C	0.754303	0.378058	0.854489
C555	C	1.004303	0.628058	1.104489
C556	C	1.254303	0.878058	1.354489
C557	C	0.537419	0.094961	0.630593
C558	C	0.787419	0.344961	0.880593
C559	C	1.037419	0.594961	1.130593
C560	C	1.287419	0.844961	1.380593
H561	H	0.412743	0.145454	0.000021
H562	H	0.662743	0.395454	0.250021
H563	H	0.912743	0.645454	0.500021
H564	H	1.162743	0.895454	0.750021
H565	H	0.321291	0.144530	0.000035
H566	H	0.571291	0.394530	0.250035
H567	H	0.821291	0.644530	0.500035
H568	H	1.071291	0.894530	0.750035
H569	H	0.446777	-0.391080	0.000011
H570	H	0.696777	-0.141080	0.250011
H571	H	0.946777	0.108920	0.500011
H572	H	1.196777	0.358920	0.750011
H573	H	0.510433	0.121951	0.228896
H574	H	0.760433	0.371951	0.478896
H575	H	1.010433	0.621951	0.728896
H576	H	1.260433	0.871951	0.978896
H577	H	0.630630	0.001820	0.865951
H578	H	0.880630	0.251820	1.115951
H579	H	1.130630	0.501820	1.365951
H580	H	1.380630	0.751820	1.615951
H581	H	0.174750	0.187180	0.000029
H582	H	0.424750	0.437180	0.250029
H583	H	0.674750	0.687180	0.500029
H584	H	0.924750	0.937180	0.750029
O585	O	0.443097	-0.026076	0.000058
O586	O	0.693097	0.223924	0.250058
O587	O	0.943097	0.473924	0.500058
O588	O	1.193097	0.723924	0.750058
H589	H	0.466365	-0.027957	-0.033751
H590	H	0.716365	0.222043	0.216249
H591	H	0.966365	0.472043	0.466249
H592	H	1.216365	0.722043	0.716249
H593	H	0.023514	0.185643	0.000042
H594	H	0.273514	0.435643	0.250042
H595	H	0.523514	0.685643	0.500042
H596	H	0.773514	0.935643	0.750042
O597	O	0.433527	-0.547381	0.000012
O598	O	0.683527	-0.297381	0.250012
O599	O	0.933527	-0.047381	0.500012
O600	O	1.183527	0.202619	0.750012
H601	H	0.440527	-0.587694	0.000013
H602	H	0.690527	-0.337694	0.250013
H603	H	0.940527	-0.087694	0.500013
H604	H	1.190527	0.162306	0.750013
H605	H	0.477335	0.155012	0.625747
H606	H	0.727335	0.405012	0.875747
H607	H	0.977335	0.655012	1.125747
H608	H	1.227335	0.905012	1.375747
H609	H	0.493213	-0.165279	0.000061
H610	H	0.743213	0.084721	0.250061
H611	H	0.993213	0.334721	0.500061
H612	H	1.243213	0.584721	0.750061
O613	O	0.468561	0.163768	0.367458
O614	O	0.718561	0.413768	0.617458
O615	O	0.968561	0.663768	0.867458
O616	O	1.218561	0.913768	1.117458
H617	H	0.445539	0.186781	0.394392
H618	H	0.695539	0.436781	0.644392
H619	H	0.945539	0.686781	0.894392
H620	H	1.195539	0.936781	1.144392
O621	O	0.706473	-0.433608	0.000067
O622	O	0.956473	-0.183608	0.250067
O623	O	1.206473	0.066392	0.500067
O624	O	1.456473	0.316392	0.750067
H625	H	0.727719	-0.426845	-0.033738
H626	H	0.977719	-0.176845	0.216262
H627	H	1.227719	0.073155	0.466262
H628	H	1.477719	0.323155	0.716262
H629	H	-0.067947	0.184708	0.000046
H630	H	0.182053	0.434708	0.250046
H631	H	0.432053	0.684708	0.500046
H632	H	0.682053	0.934708	0.750046
H633	H	-0.202311	0.139207	0.000047
H634	H	0.047689	0.389207	0.250047
H635	H	0.297689	0.639207	0.500047
H636	H	0.547689	0.889207	0.750047
H637	H	0.447710	-0.299629	0.000014
H638	H	0.697710	-0.049629	0.250014
H639	H	0.947710	0.200371	0.500014
H640	H	1.197710	0.450371	0.750014
H641	H	0.693347	-0.576585	0.000047
H642	H	0.943347	-0.326585	0.250047
H643	H	1.193347	-0.076585	0.500047
H644	H	1.443347	0.173415	0.750047
O645	O	0.468581	0.163767	0.524121
O646	O	0.718581	0.413767	0.774121
O647	O	0.968581	0.663767	1.024121
O648	O	1.218581	0.913767	1.274121
H649	H	0.445562	0.186780	0.551058
H650	H	0.695562	0.436780	0.801058
H651	H	0.945562	0.686780	1.051058
H652	H	1.195562	0.936780	1.301058
H653	H	0.510430	0.121952	0.134157
H654	H	0.760430	0.371952	0.384157
H655	H	1.010430	0.621952	0.634157
H656	H	1.260430	0.871952	0.884157
O657	O	0.639343	-0.006891	0.127236
O658	O	0.889343	0.243109	0.377236
O659	O	1.139343	0.493109	0.627236
O660	O	1.389343	0.743109	0.877236
H661	H	0.662366	-0.029909	0.154164
H662	H	0.912366	0.220091	0.404164
H663	H	1.162366	0.470091	0.654164
H664	H	1.412366	0.720091	0.904164
O665	O	0.659563	-0.705891	0.000041
O666	O	0.909563	-0.455891	0.250041
O667	O	1.159563	-0.205891	0.500041
O668	O	1.409563	0.044109	0.750041
H669	H	0.689946	-0.736124	0.000040
H670	H	0.939946	-0.486124	0.250040
H671	H	1.189946	-0.236124	0.500040
H672	H	1.439946	0.013876	0.750040
H673	H	0.646911	-0.802415	0.000040
H674	H	0.896911	-0.552415	0.250040
H675	H	1.146911	-0.302415	0.500040
H676	H	1.396911	-0.052415	0.750040
H677	H	-0.271687	-0.021674	0.000069
H678	H	-0.021687	0.228326	0.250069
H679	H	0.228313	0.478326	0.500069
H680	H	0.478313	0.728326	0.750069
H681	H	0.695819	-0.333889	0.000065
H682	H	0.945819	-0.083889	0.250065
H683	H	1.195819	0.166111	0.500065
H684	H	1.445819	0.416111	0.750065
H685	H	0.630597	0.001843	0.228868
H686	H	0.880597	0.251843	0.478868
H687	H	1.130597	0.501843	0.728868
H688	H	1.380597	0.751843	0.978868
H689	H	-0.033688	-0.063392	0.000085
H690	H	0.216312	0.186608	0.250085
H691	H	0.466312	0.436608	0.500085
H692	H	0.716312	0.686608	0.750085
H693	H	-0.293777	0.138273	0.000051
H694	H	-0.043777	0.388273	0.250051
H695	H	0.206223	0.638273	0.500051
H696	H	0.456223	0.888273	0.750051
O697	O	0.475247	-0.785384	0.000023
O698	O	0.725247	-0.535384	0.250023
O699	O	0.975247	-0.285384	0.500023
O700	O	1.225247	-0.035384	0.750023
H701	H	0.444864	-0.755151	0.000015
H702	H	0.694864	-0.505151	0.250015
H703	H	0.944864	-0.255151	0.500015
H704	H	1.194864	-0.005151	0.750015
H705	H	0.117558	-0.061861	0.000088
H706	H	0.367558	0.188139	0.250088
H707	H	0.617558	0.438139	0.500088
H708	H	0.867558	0.688139	0.750088
O709	O	0.672467	-0.040010	0.367441
O710	O	0.922467	0.209990	0.617441
O711	O	1.172467	0.459990	0.867441
O712	O	1.422467	0.709990	1.117441
H713	H	0.695487	-0.063026	0.394372
H714	H	0.945487	0.186974	0.644372
H715	H	1.195487	0.436974	0.894372
H716	H	1.445487	0.686974	1.144372
H717	H	0.487892	-0.688875	0.000020
H718	H	0.737892	-0.438875	0.250020
H719	H	0.987892	-0.188875	0.500020
H720	H	1.237892	0.061125	0.750020
O721	O	0.066034	-0.074043	0.000082
O722	O	0.316034	0.175957	0.250082
O723	O	0.566034	0.425957	0.500082
O724	O	0.816034	0.675957	0.750082
H725	H	0.044262	-0.104954	0.000084
H726	H	0.294262	0.145046	0.250084
H727	H	0.544262	0.395046	0.500084
H728	H	0.794262	0.645046	0.750084
O729	O	-0.171962	-0.032328	0.000078
O730	O	0.078038	0.217672	0.250078
O731	O	0.328038	0.467672	0.500078
O732	O	0.578038	0.717672	0.750078
H733	H	-0.193735	-0.063239	0.000077
H734	H	0.056265	0.186761	0.250077
H735	H	0.306265	0.436761	0.500077
H736	H	0.556265	0.686761	0.750077
H737	H	0.654093	-0.095896	0.000080
H738	H	0.904093	0.154104	0.250080
H739	H	1.154093	0.404104	0.500080
H740	H	1.404093	0.654104	0.750080
O741	O	0.482560	-0.065544	0.000053
O742	O	0.732560	0.184456	0.250053
O743	O	0.982560	0.434456	0.500053
O744	O	1.232560	0.684456	0.750053
H745	H	0.490370	-0.027277	0.000052
H746	H	0.740370	0.222723	0.250052
H747	H	0.990370	0.472723	0.500052
H748	H	1.240370	0.722723	0.750052
O749	O	0.705999	-0.480067	0.000046
O750	O	0.955999	-0.230067	0.250046
O751	O	1.205999	0.019933	0.500046
O752	O	1.455999	0.269933	0.750046
H753	H	0.736381	-0.510301	0.000042
H754	H	0.986381	-0.260301	0.250042
H755	H	1.236381	-0.010301	0.500042
H756	H	1.486381	0.239699	0.750042
H757	H	0.663725	-0.031269	0.530995
H758	H	0.913725	0.218731	0.780995
H759	H	1.163725	0.468731	1.030995
H760	H	1.413725	0.718731	1.280995
H761	H	0.510457	0.121917	0.771232
H762	H	0.760457	0.371917	1.021232
H763	H	1.010457	0.621917	1.271232
H764	H	1.260457	0.871917	1.521232
O765	O	0.075029	0.197832	0.000033
O766	O	0.325029	0.447832	0.250033
O767	O	0.575029	0.697832	0.500033
O768	O	0.825029	0.947832	0.750033
H769	H	0.096803	0.228742	0.000023
H770	H	0.346803	0.478742	0.250023
H771	H	0.596803	0.728742	0.500023
H772	H	0.846803	0.978742	0.750023
O773	O	0.434596	-0.442604	0.000027
O774	O	0.684596	-0.192604	0.250027
O775	O	0.934596	0.057396	0.500027
O776	O	1.184596	0.307396	0.750027
H777	H	0.403684	-0.464377	0.000029
H778	H	0.653684	-0.214377	0.250029
H779	H	0.903684	0.035623	0.500029
H780	H	1.153684	0.285623	0.750029
H781	H	0.663722	-0.031266	0.469068
H782	H	0.913722	0.218734	0.719068
H783	H	1.163722	0.468734	0.969068
H784	H	1.413722	0.718734	1.219068
O785	O	0.217285	-0.072509	0.000089
O786	O	0.467285	0.177491	0.250089
O787	O	0.717285	0.427491	0.500089
O788	O	0.967285	0.677491	0.750089
H789	H	0.195515	-0.103423	0.000093
H790	H	0.445515	0.146577	0.250093
H791	H	0.695515	0.396577	0.500093
H792	H	0.945515	0.646577	0.750093
O793	O	0.338300	-0.027142	0.000057
O794	O	0.588300	0.222858	0.250057
O795	O	0.838300	0.472858	0.500057
O796	O	1.088300	0.722858	0.750057
H797	H	0.368531	-0.057528	0.000063
H798	H	0.618531	0.192472	0.250063
H799	H	0.868531	0.442472	0.500063
H800	H	1.118531	0.692472	0.750063
H801	H	0.630630	0.001822	0.771211
H802	H	0.880630	0.251822	1.021211
H803	H	1.130630	0.501822	1.271211
H804	H	1.380630	0.751822	1.521211
H805	H	0.510471	0.121919	0.865958
H806	H	0.760471	0.371919	1.115958
H807	H	1.010471	0.621919	1.365958
H808	H	1.260471	0.871919	1.615958
H809	H	0.663726	-0.031271	0.625730
H810	H	0.913726	0.218729	0.875730
H811	H	1.163726	0.468729	1.125730
H812	H	1.413726	0.718729	1.375730
O813	O	0.468581	0.163783	0.475993
O814	O	0.718581	0.413783	0.725993
O815	O	0.968581	0.663783	0.975993
O816	O	1.218581	0.913783	1.225993
H817	H	0.445559	0.186796	0.449060
H818	H	0.695559	0.436796	0.699060
H819	H	0.945559	0.686796	0.949060
H820	H	1.195559	0.936796	1.199060
H821	H	0.653168	-0.187348	0.000063
H822	H	0.903168	0.062652	0.250063
H823	H	1.153168	0.312652	0.500063
H824	H	1.403168	0.562652	0.750063
