data_functionalizedCrystal
_audit_creation_method	'MofGen! by Chris Wilmer'
_symmetry_space_group_name_H-M	'P1'
_symmetry_Int_Tables_number	1
_symmetry_cell_setting	triclinic
loop_
_symmetry_equiv_pos_as_xyz
  x,y,z
_cell_length_a	14.044220
_cell_length_b	8.597299
_cell_length_c	7.681452
_cell_angle_alpha	88.672268
_cell_angle_beta	84.078585
_cell_angle_gamma	90.777327
loop_
_atom_site_label
_atom_site_type_symbol
_atom_site_fract_x
_atom_site_fract_y
_atom_site_fract_z
O1	O	1.250057	-0.359144	0.200715
O2	O	1.750057	0.140856	0.700715
O3	O	0.974072	-0.345669	0.198715
O4	O	1.474072	0.154331	0.698715
O5	O	1.119391	-0.128045	0.165673
O6	O	1.619391	0.371955	0.665673
O7	O	1.104738	-0.576769	0.233757
O8	O	1.604738	-0.076769	0.733757
O9	O	1.135424	-0.156389	-0.122887
O10	O	1.635424	0.343611	0.377113
O11	O	0.990105	-0.374013	-0.089845
O12	O	1.490105	0.125987	0.410155
O13	O	1.266090	-0.387488	-0.087846
O14	O	1.766090	0.112512	0.412154
Zn15	Zn	1.130643	-0.385251	-0.134660
Zn16	Zn	1.630643	0.114749	0.365340
Zn17	Zn	1.109519	-0.347907	0.245530
Zn18	Zn	1.609519	0.152093	0.745530
O19	O	1.120771	-0.605113	-0.054803
O20	O	1.620771	-0.105113	0.445197
C21	C	0.946768	-0.353944	0.053546
C22	C	1.446768	0.146056	0.553546
C23	C	0.841524	-0.336354	0.050895
C24	C	1.341524	0.163646	0.550895
C25	C	1.126728	-0.084443	0.012631
C26	C	1.626728	0.415557	0.512631
C27	C	1.124690	0.087708	-0.013477
C28	C	1.624690	0.587708	0.486523
C29	C	0.648834	-0.304202	0.045982
C30	C	1.148834	0.195798	0.545982
C31	C	0.591322	-0.428947	0.064902
C32	C	1.091322	0.071053	0.564902
C33	C	0.484102	-0.411057	0.062168
C34	C	0.984102	0.088943	0.562168
C35	C	0.756063	-0.322089	0.048715
C36	C	1.256063	0.177911	0.548715
C37	C	1.293393	-0.379213	0.057327
C38	C	1.793393	0.120787	0.557327
C39	C	1.398637	-0.396802	0.059990
C40	C	1.898637	0.103198	0.559990
N41	N	1.145066	-0.410737	-0.394131
N42	N	1.645066	0.089263	0.105869
C43	C	1.113435	0.351286	0.098243
C44	C	1.613435	0.851286	0.598243
C45	C	1.115474	0.179137	0.124365
C46	C	1.615474	0.679137	0.624365
N47	N	1.095103	-0.322409	0.504999
N48	N	1.595103	0.177591	1.004999
H49	H	0.622609	-0.549181	0.083153
H50	H	1.122609	-0.049181	0.583153
H51	H	0.617549	-0.183978	0.027731
H52	H	1.117549	0.316022	0.527731
O53	O	1.107085	0.108393	0.307168
O54	O	1.607085	0.608393	0.807168
H55	H	1.172109	0.040316	0.325033
H56	H	1.672109	0.540316	0.825033
O57	O	1.133087	0.158459	-0.196289
O58	O	1.633087	0.658459	0.303711
H59	H	1.130124	0.287105	-0.188816
H60	H	1.630124	0.787105	0.311184
O61	O	1.212643	-0.530138	-0.475616
O62	O	1.712643	-0.030138	0.024384
H63	H	1.210782	-0.526801	-0.619759
H64	H	1.710782	-0.026801	-0.119759
H65	H	1.044089	-0.232265	-0.433461
H66	H	1.544089	0.267735	0.066539
