data_functionalizedCrystal
_audit_creation_method	'MofGen! by Chris Wilmer'
_symmetry_space_group_name_H-M	'P1'
_symmetry_Int_Tables_number	1
_symmetry_cell_setting	triclinic
loop_
_symmetry_equiv_pos_as_xyz
  x,y,z
_cell_length_a	19.288840
_cell_length_b	19.188930
_cell_length_c	18.366186
_cell_angle_alpha	90.011368
_cell_angle_beta	90.016271
_cell_angle_gamma	83.135398
loop_
_atom_site_label
_atom_site_type_symbol
_atom_site_fract_x
_atom_site_fract_y
_atom_site_fract_z
O1	O	0.921370	0.087016	0.060679
O2	O	0.719108	0.098784	0.060655
O3	O	0.826076	-0.008757	0.060654
O4	O	0.814402	0.194556	0.060681
O5	O	0.826058	-0.008762	-0.060446
O6	O	0.719090	0.098778	-0.060444
O7	O	0.921352	0.087011	-0.060420
Zn8	Zn	0.820218	0.092894	-0.079659
Zn9	Zn	0.820242	0.092901	0.079894
O10	O	0.814384	0.194551	-0.060419
C11	C	0.693222	0.098405	0.000102
C12	C	0.616118	0.097277	0.000092
C13	C	0.579924	0.096738	0.066105
C14	C	0.507477	0.095671	0.066114
C15	C	0.471228	0.095128	0.000106
C16	C	0.507430	0.095671	-0.065916
C17	C	0.579875	0.096746	-0.065922
C18	C	0.361890	0.052528	-0.050461
C19	C	0.289447	0.051449	-0.050451
C20	C	0.247784	0.091817	0.000125
C21	C	0.278575	0.133255	0.050703
C22	C	0.351019	0.134330	0.050696
C23	C	0.392674	0.093963	0.000106
C24	C	0.133035	0.090121	0.066152
C25	C	0.060586	0.089058	0.066158
C26	C	0.060542	0.089052	-0.065874
C27	C	0.132989	0.090122	-0.065878
C28	C	0.169231	0.090653	0.000137
C29	C	0.825689	-0.034770	0.000102
C30	C	0.824554	-0.112275	0.000096
C31	C	0.887319	-0.157209	0.000100
C32	C	0.886253	-0.230033	0.000111
C33	C	0.822418	-0.257919	0.000104
C34	C	0.759645	-0.212975	0.000104
C35	C	0.760713	-0.140153	0.000100
N36	N	0.773618	-0.365917	-0.041114
N37	N	0.772608	-0.435096	-0.041112
C38	C	0.819197	-0.477327	0.000118
N39	N	0.866845	-0.447767	0.041337
N40	N	0.867857	-0.378583	0.041331
C41	C	0.821253	-0.336881	0.000109
C42	C	0.880811	-0.601225	0.000136
C43	C	0.879742	-0.674050	0.000152
C44	C	0.753131	-0.656990	0.000138
C45	C	0.754202	-0.584167	0.000129
C46	C	0.818043	-0.556289	0.000125
C47	C	0.947238	0.087389	0.000135
C48	C	1.024343	0.088517	0.000149
C49	C	0.814771	0.220565	0.000135
C50	C	0.815906	0.298069	0.000146
N51	N	0.820207	0.092888	-0.188550
C52	C	0.867588	0.045293	-0.226651
C53	C	0.867592	0.045290	-0.302879
C54	C	0.820222	0.092894	-0.341003
C55	C	0.772833	0.140494	-0.302893
C56	C	0.772825	0.140491	-0.226666
C57	C	0.810929	0.156512	-0.461756
C58	C	0.810941	0.156516	-0.537981
C59	C	0.820242	0.092903	-0.576111
C60	C	0.829545	0.029284	-0.538006
C61	C	0.829537	0.029281	-0.461780
C62	C	0.820225	0.092902	-0.423658
C63	C	0.867630	0.045300	-0.696867
C64	C	0.867630	0.045296	-0.773096
C65	C	0.772874	0.140506	-0.773108
C66	C	0.772871	0.140504	-0.696880
C67	C	0.820253	0.092902	-0.658764
N68	N	0.820259	0.092900	0.188786
H69	H	0.244654	0.166129	0.091885
H70	H	0.930855	-0.710636	0.000159
H71	H	0.939304	-0.134516	0.000099
H72	H	0.837118	-0.022516	-0.569050
H73	H	0.906210	0.006537	-0.665831
H74	H	0.701156	-0.679694	0.000135
H75	H	0.162458	0.090556	-0.119633
H76	H	0.703092	-0.547580	0.000122
H77	H	0.937366	-0.266625	0.000117
H78	H	0.906177	0.006530	-0.333907
H79	H	0.478002	0.095233	0.119872
H80	H	0.734241	0.179249	-0.195644
H81	H	0.707670	-0.235684	0.000100
H82	H	0.906167	0.006531	-0.195619
H83	H	0.837110	-0.022520	-0.430758
H84	H	0.162545	0.090562	0.119905
H85	H	0.031118	0.088624	0.119916
H86	H	0.709600	-0.103566	0.000096
H87	H	0.734302	0.179264	-0.804148
H88	H	0.906211	0.006534	-0.804118
H89	H	0.734292	0.179263	-0.665856
H90	H	0.477912	0.095231	-0.119660
H91	H	0.031029	0.088614	-0.119619
H92	H	0.609343	0.097185	-0.119680
H93	H	0.264384	0.017704	-0.091632
H94	H	0.932794	-0.578526	0.000136
H95	H	0.395807	0.019654	-0.091649
H96	H	0.803371	0.208318	-0.568999
H97	H	0.734262	0.179253	-0.333937
H98	H	0.609428	0.097171	0.119860
H99	H	0.376085	0.168071	0.091877
H100	H	0.803343	0.208317	-0.430716
