data_functionalizedCrystal
_audit_creation_method	'MofGen! by Chris Wilmer'
_symmetry_space_group_name_H-M	'P1'
_symmetry_Int_Tables_number	1
_symmetry_cell_setting	triclinic
loop_
_symmetry_equiv_pos_as_xyz
  x,y,z
_cell_length_a	21.295420
_cell_length_b	13.897448
_cell_length_c	13.897441
_cell_angle_alpha	89.969401
_cell_angle_beta	90.021942
_cell_angle_gamma	89.986526
loop_
_atom_site_label
_atom_site_type_symbol
_atom_site_fract_x
_atom_site_fract_y
_atom_site_fract_z
Zn1	Zn	0.962395	0.384093	0.545412
Zn2	Zn	0.962326	0.545414	0.384114
Zn3	Zn	0.857123	0.384123	0.384127
Zn4	Zn	0.857111	0.545336	0.545363
O5	O	0.909739	0.464741	0.464754
O6	O	1.050475	0.405513	0.524031
O7	O	0.948346	0.524064	0.249134
O8	O	0.871122	0.249137	0.405548
O9	O	1.050424	0.524035	0.405525
O10	O	0.948464	0.249115	0.524044
O11	O	0.871054	0.405564	0.249144
O12	O	0.769032	0.405488	0.405500
O13	O	0.871101	0.523901	0.680351
O14	O	0.769023	0.523930	0.523960
O15	O	0.948453	0.405436	0.680387
O16	O	0.948335	0.680386	0.405477
O17	O	0.871034	0.680328	0.523946
C18	C	0.746187	0.464705	0.464727
C19	C	0.676219	0.464712	0.464738
C20	C	0.909783	0.464656	0.716347
C21	C	0.909802	0.464620	0.823561
C22	C	0.909693	0.715356	0.464726
C23	C	0.909731	0.822570	0.464746
C24	C	0.176787	0.403172	0.526574
C25	C	0.242529	0.403165	0.526574
C26	C	0.275380	0.464771	0.464776
C27	C	0.242482	0.526406	0.402991
C28	C	0.176741	0.526418	0.403000
N29	N	0.378573	0.472049	0.380316
N30	N	0.441024	0.472032	0.380310
C31	C	0.473454	0.464739	0.464748
N32	N	0.441073	0.457445	0.549193
N33	N	0.378616	0.457458	0.549198
C34	C	0.346665	0.464765	0.464761
C35	C	0.577630	0.403105	0.526534
C36	C	0.643373	0.403105	0.526535
C37	C	0.643325	0.526340	0.402944
C38	C	0.577582	0.526346	0.402951
C39	C	0.544739	0.464723	0.464745
C40	C	1.073929	0.464779	0.464782
C41	C	1.143897	0.464795	0.464794
C42	C	0.909802	0.213148	0.464803
C43	C	0.909829	0.105935	0.464824
C44	C	0.909797	1.018865	0.464807
C45	C	0.909758	0.909632	0.464776
C46	C	0.909730	0.464757	0.214140
C47	C	0.909833	0.464521	0.106926
C48	C	0.909819	0.464555	1.019856
C49	C	0.909808	0.464594	0.910624
H50	H	0.150050	0.352998	0.576896
C51	C	0.278715	0.335362	0.594527
C52	C	0.323899	0.259581	0.552830
C53	C	0.360081	0.191774	0.620778
C54	C	0.351080	0.199747	0.730425
C55	C	0.305894	0.275531	0.772128
C56	C	0.269712	0.343339	0.704179
H57	H	0.330564	0.253676	0.471658
H58	H	0.393530	0.135673	0.589906
H59	H	0.377864	0.149552	0.780724
H60	H	0.299229	0.281437	0.853300
H61	H	0.236263	0.399439	0.735051
H62	H	0.149962	0.576601	0.352690
H63	H	0.670151	0.352927	0.576852
H64	H	0.550887	0.352928	0.576850
C65	C	0.278614	0.594172	0.335011
C66	C	0.350927	0.594158	0.334994
C67	C	0.387058	0.661931	0.267016
C68	C	0.350876	0.729718	0.199054
C69	C	0.278559	0.729735	0.199069
C70	C	0.242428	0.661962	0.267048
H71	H	0.377714	0.543975	0.385306
H72	H	0.440592	0.661918	0.267005
H73	H	0.377622	0.779888	0.148732
H74	H	0.251772	0.779918	0.148758
H75	H	0.188894	0.661975	0.267058
H76	H	0.670070	0.576508	0.352634
H77	H	0.550803	0.576522	0.352638
