data_functionalizedCrystal
_audit_creation_method	'MofGen! by Chris Wilmer'
_symmetry_space_group_name_H-M	'P1'
_symmetry_Int_Tables_number	1
_symmetry_cell_setting	triclinic
loop_
_symmetry_equiv_pos_as_xyz
  x,y,z
_cell_length_a	11.792241
_cell_length_b	12.996460
_cell_length_c	11.792241
_cell_angle_alpha	89.999579
_cell_angle_beta	95.806584
_cell_angle_gamma	90.002031
loop_
_atom_site_label
_atom_site_type_symbol
_atom_site_fract_x
_atom_site_fract_y
_atom_site_fract_z
O1	O	1.506912	0.085467	-0.155560
O2	O	2.006912	0.585467	0.344440
O3	O	1.176571	0.085491	-0.171593
O4	O	1.676571	0.585491	0.328407
O5	O	1.349758	0.085472	0.001594
O6	O	1.849758	0.585472	0.501594
O7	O	1.333725	0.085487	-0.328747
O8	O	1.833725	0.585487	0.171253
O9	O	1.349736	-0.085662	0.001584
O10	O	1.849736	0.414338	0.501584
O11	O	1.176549	-0.085642	-0.171603
O12	O	1.676549	0.414358	0.328397
O13	O	1.506890	-0.085666	-0.155570
O14	O	2.006890	0.414334	0.344430
Cu15	Cu	1.341717	-0.101280	-0.163587
Cu16	Cu	1.841717	0.398720	0.336413
Cu17	Cu	1.341744	0.101105	-0.163576
Cu18	Cu	1.841744	0.601105	0.336424
O19	O	1.333703	-0.085647	-0.328757
O20	O	1.833703	0.414353	0.171243
C21	C	1.134269	-0.000073	-0.170591
C22	C	1.634269	0.499927	0.329409
C23	C	1.008255	-0.000064	-0.167576
C24	C	1.508255	0.499936	0.332424
N25	N	1.341707	-0.243627	-0.163595
N26	N	1.841707	0.256373	0.336405
C27	C	0.777543	-0.000093	-0.162034
C28	C	1.277543	0.499907	0.337966
C29	C	0.905928	-0.000077	-0.165113
C30	C	1.405928	0.499923	0.334887
C31	C	1.341712	-0.336733	-0.163598
C32	C	1.841712	0.163267	0.336402
C33	C	1.341723	-0.453539	-0.163590
C34	C	1.841723	0.046461	0.336410
C35	C	1.341737	-0.546637	-0.163578
C36	C	1.841737	-0.046637	0.336422
C37	C	1.341749	-0.663449	-0.163572
C38	C	1.841749	-0.163449	0.336428
C39	C	1.549192	-0.000100	-0.156572
C40	C	2.049192	0.499900	0.343428
C41	C	1.675206	-0.000103	-0.159587
C42	C	2.175206	0.499897	0.340413
C43	C	1.348740	-0.000095	0.043880
C44	C	1.848740	0.499905	0.543880
C45	C	1.345726	-0.000094	0.169894
C46	C	1.845726	0.499906	0.669894
N47	N	1.341763	0.243452	-0.163559
N48	N	1.841763	0.743452	0.336441
C49	C	1.334721	-0.000078	-0.371043
C50	C	1.834721	0.499922	0.128957
C51	C	1.337736	-0.000072	-0.497057
C52	C	1.837736	0.499928	0.002943
C53	C	1.340183	-0.000076	0.400606
C54	C	1.840183	0.499924	0.900606
C55	C	1.343262	-0.000086	0.272221
C56	C	1.843262	0.499914	0.772221
