data_functionalizedCrystal
_audit_creation_method	'MofGen! by Chris Wilmer'
_symmetry_space_group_name_H-M	'P1'
_symmetry_Int_Tables_number	1
_symmetry_cell_setting	triclinic
loop_
_symmetry_equiv_pos_as_xyz
  x,y,z
_cell_length_a	14.908520
_cell_length_b	19.077220
_cell_length_c	14.908294
_cell_angle_alpha	89.157972
_cell_angle_beta	96.360837
_cell_angle_gamma	84.261754
loop_
_atom_site_label
_atom_site_type_symbol
_atom_site_fract_x
_atom_site_fract_y
_atom_site_fract_z
Zn1	Zn	-0.339680	-1.034461	-0.583138
Zn2	Zn	0.160320	-0.534461	-0.083138
Zn3	Zn	-0.482329	-1.034381	-0.440504
Zn4	Zn	0.017671	-0.534381	0.059496
Zn5	Zn	-0.336344	-0.923971	-0.426394
Zn6	Zn	0.163656	-0.423971	0.073606
Zn7	Zn	-0.497061	-0.909531	-0.585710
Zn8	Zn	0.002939	-0.409531	-0.085710
O9	O	-0.413854	-0.975586	-0.508937
O10	O	0.086146	-0.475586	-0.008937
O11	O	-0.353834	-1.132941	-0.569046
O12	O	0.146166	-0.632941	-0.069046
O13	O	-0.455402	-1.025745	-0.312266
O14	O	0.044598	-0.525745	0.187734
O15	O	-0.209827	-0.944704	-0.440205
O16	O	0.290173	-0.444704	0.059795
O17	O	-0.458638	-1.132883	-0.464254
O18	O	0.041362	-0.632883	0.035746
O19	O	-0.212278	-1.025880	-0.555364
O20	O	0.287722	-0.525880	-0.055364
O21	O	-0.348148	-0.944627	-0.301899
O22	O	0.151852	-0.444627	0.198101
O23	O	-0.362432	-0.823565	-0.442699
O24	O	0.137568	-0.323565	0.057301
O25	O	-0.483745	-0.920093	-0.711736
O26	O	0.016255	-0.420093	-0.211736
O27	O	-0.480510	-0.812956	-0.559748
O28	O	0.019490	-0.312956	-0.059748
O29	O	-0.368119	-1.011878	-0.709846
O30	O	0.131881	-0.511878	-0.209846
O31	O	-0.611243	-1.011743	-0.466748
O32	O	-0.111243	-0.511743	0.033252
O33	O	-0.622066	-0.920016	-0.573430
O34	O	-0.122066	-0.420016	-0.073430
C35	C	-0.422708	-0.792723	-0.499972
C36	C	0.077292	-0.292723	0.000028
C37	C	-0.426519	-0.714491	-0.496160
C38	C	0.073481	-0.214491	0.003840
C39	C	-0.453821	-0.274125	-0.468861
C40	C	0.046179	0.225875	0.031139
C41	C	-0.450235	-0.347633	-0.472436
C42	C	0.049765	0.152367	0.027564
C43	C	-0.393977	-0.384410	-0.528883
C44	C	0.106023	0.115590	-0.028883
C45	C	-0.341295	-0.347676	-0.581751
C46	C	0.158705	0.152324	-0.081751
C47	C	-0.344877	-0.274170	-0.578171
C48	C	0.155123	0.225830	-0.078171
C49	C	-0.377419	-0.604252	-0.545448
C50	C	0.122581	-0.104252	-0.045448
C51	C	-0.373843	-0.677762	-0.549026
C52	C	0.126157	-0.177762	-0.049026
C53	C	-0.482783	-0.677714	-0.439709
C54	C	0.017217	-0.177714	0.060291
C55	C	-0.486364	-0.604206	-0.436138
C56	C	0.013636	-0.104206	0.063862
C57	C	-0.433678	-0.567479	-0.489003
C58	C	0.066322	-0.067479	0.010997
N59	N	-0.390312	-0.459546	-0.532541
N60	N	0.109688	0.040454	-0.032541
N61	N	-0.437339	-0.492345	-0.485339
N62	N	0.062661	0.007655	0.014661
C63	C	-0.649574	-0.964322	-0.521920
C64	C	-0.149574	-0.464322	-0.021920
C65	C	-0.750415	-0.959567	-0.527507
C66	C	-0.250415	-0.459567	-0.027507
C67	C	-0.928575	-1.046234	-0.427016
C68	C	-0.428575	-0.546234	0.072984
C69	C	-1.023324	-1.041768	-0.432263
C70	C	-0.523324	-0.541768	0.067737
C71	C	-1.034663	-0.946173	-0.543253
C72	C	-0.534663	-0.446173	-0.043253
C73	C	-0.939914	-0.950639	-0.538005
C74	C	-0.439914	-0.450639	-0.038005
C75	C	-0.886873	-1.000670	-0.479884
C76	C	-0.386873	-0.500670	0.020116
C77	C	-0.792123	-1.005132	-0.474633
C78	C	-0.292123	-0.505132	0.025367
C79	C	-0.803463	-0.909541	-0.585626
C80	C	-0.303463	-0.409541	-0.085626
C81	C	-0.898212	-0.905075	-0.590874
C82	C	-0.398212	-0.405075	-0.090874
C83	C	-0.177213	-0.986912	-0.495924
C84	C	0.322787	-0.486912	0.004076
C85	C	-0.076371	-0.991738	-0.490378
C86	C	0.423629	-0.491738	0.009622
C87	C	-0.427947	-0.964384	-0.744473
C88	C	0.072053	-0.464384	-0.244473
C89	C	-0.433953	-0.959610	-0.844844
C90	C	0.066047	-0.459610	-0.344844
C91	C	-0.404957	-0.159164	-0.517926
C92	C	0.095043	0.340836	-0.017926
C93	C	-0.401145	-0.237396	-0.521728
C94	C	0.098855	0.262604	-0.021728
C95	C	-0.502608	-0.905096	-0.987298
C96	C	-0.002608	-0.405096	-0.487298
C97	C	-0.496971	-0.909580	-0.892990
C98	C	0.003029	-0.409580	-0.392990
C99	C	-0.376566	-1.005158	-0.891012
C100	C	0.123434	-0.505158	-0.391012
C101	C	-0.382202	-1.000674	-0.985320
C102	C	0.117798	-0.500674	-0.485320
C103	C	-0.445226	-0.950642	-1.033459
C104	C	0.054774	-0.450642	-0.533459
C105	C	-0.450867	-0.946162	-1.127769
C106	C	0.049133	-0.446162	-0.627769
C107	C	-0.330457	-1.041737	-1.125789
C108	C	0.169543	-0.541737	-0.625789
C109	C	-0.324821	-1.046221	-1.031481
C110	C	0.175179	-0.546221	-0.531481
C111	C	-0.399747	-0.986788	-0.274315
C112	C	0.100253	-0.486788	0.225685
C113	C	-0.393479	-0.991711	-0.173937
C114	C	0.106521	-0.491711	0.326063
H115	H	-0.493128	-0.377534	-0.429385
H116	H	0.006872	0.122466	0.070615
F117	F	-0.313961	-0.716902	-0.609106
F118	F	0.186039	-0.216902	-0.109106
F119	F	-0.288808	-0.235082	-0.634435
F120	F	0.211192	0.264918	-0.134435
F121	F	-0.269388	-1.090217	-1.174925
F122	F	0.230612	-0.590217	-0.674925
H123	H	-0.334523	-0.574357	-0.588498
H124	H	0.165477	-0.074357	-0.088498
F125	F	-1.091127	-0.892938	-0.605114
F126	F	-0.591127	-0.392938	-0.105114
F127	F	-1.067703	-1.090264	-0.375996
F128	F	-0.567703	-0.590264	0.124004
F129	F	-0.735675	-1.058377	-0.412772
F130	F	-0.235675	-0.558377	0.087228
F131	F	-0.538848	-0.716807	-0.383449
F132	F	-0.038848	-0.216807	0.116551
F133	F	-0.872124	-1.099471	-0.365148
F134	F	-0.372124	-0.599471	0.134852
H135	H	-0.295484	-0.377626	-0.627707
H136	H	0.204516	0.122374	-0.127707
F137	F	-0.954671	-0.851833	-0.652730
F138	F	-0.454671	-0.351833	-0.152730
F139	F	-0.759074	-0.861039	-0.641886
F140	F	-0.259074	-0.361039	-0.141886
F141	F	-0.546220	-0.565073	-0.376038
F142	F	-0.046220	-0.065073	0.123962
H143	H	-0.543692	-0.872487	-0.855408
H144	H	-0.043692	-0.372487	-0.355408
F145	F	-0.517943	-0.892916	-1.179002
F146	F	-0.017943	-0.392916	-0.679002
F147	F	-0.569688	-0.851854	-1.038534
F148	F	-0.069688	-0.351854	-0.538534
F149	F	-0.257735	-1.099454	-0.980237
F150	F	0.242265	-0.599454	-0.480237
H151	H	-0.499638	-0.244186	-0.422901
H152	H	0.000362	0.255814	0.077099
F153	F	-0.309454	-1.058369	-0.839760
F154	F	0.190546	-0.558369	-0.339760
