data_functionalizedCrystal
_audit_creation_method	'MofGen! by Chris Wilmer'
_symmetry_space_group_name_H-M	'P1'
_symmetry_Int_Tables_number	1
_symmetry_cell_setting	triclinic
loop_
_symmetry_equiv_pos_as_xyz
  x,y,z
_cell_length_a	16.625548
_cell_length_b	19.121063
_cell_length_c	19.120979
_cell_angle_alpha	89.814806
_cell_angle_beta	92.392318
_cell_angle_gamma	92.470058
loop_
_atom_site_label
_atom_site_type_symbol
_atom_site_fract_x
_atom_site_fract_y
_atom_site_fract_z
Zn1	Zn	1.200070	-0.261822	-0.408289
Zn2	Zn	1.199402	-0.384165	-0.296046
Zn3	Zn	1.070654	-0.266951	-0.291067
Zn4	Zn	1.059211	-0.379023	-0.413242
O5	O	1.132334	-0.322990	-0.352161
O6	O	1.312813	-0.278056	-0.393411
O7	O	1.186832	-0.372914	-0.197281
O8	O	1.092890	-0.168167	-0.302459
O9	O	1.312322	-0.367941	-0.310947
O10	O	1.187972	-0.164398	-0.388582
O11	O	1.092242	-0.286797	-0.193623
O12	O	0.956304	-0.281812	-0.307263
O13	O	1.073387	-0.359178	-0.510690
O14	O	0.947897	-0.364151	-0.397024
O15	O	1.176876	-0.273071	-0.507050
O16	O	1.175736	-0.481586	-0.315750
O17	O	1.072739	-0.477809	-0.401853
C18	C	0.922845	-0.322981	-0.352141
C19	C	0.833223	-0.322993	-0.352150
C20	C	0.505045	-0.322996	-0.352180
C21	C	0.596355	-0.322994	-0.352169
C22	C	0.669131	-0.322995	-0.352164
C23	C	0.760446	-0.322992	-0.352155
C24	C	1.122945	-0.505134	-0.359894
C25	C	1.119000	-0.583055	-0.363226
C26	C	1.170811	-0.621604	-0.320000
C27	C	1.167106	-0.694819	-0.323137
C28	C	1.111586	-0.729483	-0.369499
C29	C	1.059773	-0.690929	-0.412730
C30	C	1.063482	-0.617715	-0.409596
C31	C	1.097704	-0.950444	-0.381208
C32	C	1.093997	-1.023663	-0.384338
C33	C	1.201332	-1.027548	-0.294745
C34	C	1.205033	-0.954333	-0.291612
C35	C	1.153223	-0.915784	-0.334846
C36	C	1.107796	-0.804321	-0.372706
C37	C	1.157018	-0.840948	-0.331642
C38	C	1.342642	-0.323000	-0.352182
C39	C	1.432262	-0.323004	-0.352190
C40	C	1.123930	-0.314979	-0.535019
C41	C	1.120348	-0.311565	-0.612942
C42	C	1.141782	-0.140134	-0.344413
C43	C	1.145808	-0.062212	-0.341111
C44	C	1.140755	-0.330920	-0.170013
C45	C	1.144503	-0.334136	-0.092082
C46	C	1.168225	-0.354562	0.348587
C47	C	1.164699	-0.351536	0.275363
C48	C	1.113293	-0.305515	0.240611
C49	C	1.065415	-0.262514	0.279088
C50	C	1.068945	-0.265537	0.352311
C51	C	1.100155	-0.294158	0.019618
C52	C	1.096626	-0.291139	-0.053611
C53	C	1.195913	-0.380160	-0.057330
C54	C	1.199435	-0.383183	0.015895
C55	C	1.151560	-0.340178	0.054365
C56	C	1.109686	-0.302423	0.165764
C57	C	1.155171	-0.343268	0.129210
H58	H	1.209295	-0.726203	-0.287937
H59	H	1.062590	-0.832553	-0.410452
H60	H	1.067829	-0.264954	0.137461
N61	N	1.009952	-0.212890	0.241609
H62	H	1.014971	-0.217505	0.189384
H63	H	0.952508	-0.224715	0.254067
N64	N	1.017313	-0.219157	0.393808
H65	H	0.984211	-0.189544	0.360684
H66	H	0.980224	-0.249184	0.423109
H67	H	1.055517	-0.919063	-0.416409
N68	N	1.264924	-0.916948	-0.241613
H69	H	1.259411	-0.864718	-0.246186
H70	H	1.254073	-0.931970	-0.192083
N71	N	1.034116	-1.061053	-0.434347
H72	H	0.996545	-1.092715	-0.407127
H73	H	1.001915	-1.025480	-0.461250
H74	H	1.243514	-1.058941	-0.259547
H75	H	1.216018	-0.593386	-0.282244
N76	N	1.007603	-0.576129	-0.456215
H77	H	1.017132	-0.586645	-0.506860
H78	H	0.949880	-0.589411	-0.445770
H79	H	1.202225	-0.812722	-0.293897
N80	N	0.999892	-0.728313	-0.462738
H81	H	1.005400	-0.780543	-0.458163
H82	H	0.943467	-0.716039	-0.451233
H83	H	1.210088	-0.392034	0.376877
H84	H	1.203686	-0.386548	0.244043
H85	H	1.241282	-0.420668	0.044184
H86	H	1.234891	-0.415171	-0.088660
H87	H	1.054767	-0.253658	-0.081903
H88	H	1.061168	-0.259143	0.050931
H89	H	1.197029	-0.380735	0.157509
