data_functionalizedCrystal
_audit_creation_method	'MofGen! by Chris Wilmer'
_symmetry_space_group_name_H-M	'P1'
_symmetry_Int_Tables_number	1
_symmetry_cell_setting	triclinic
loop_
_symmetry_equiv_pos_as_xyz
  x,y,z
_cell_length_a	17.699077
_cell_length_b	15.995292
_cell_length_c	16.176319
_cell_angle_alpha	89.996390
_cell_angle_beta	89.993140
_cell_angle_gamma	83.374596
loop_
_atom_site_label
_atom_site_type_symbol
_atom_site_fract_x
_atom_site_fract_y
_atom_site_fract_z
O1	O	1.004238	0.105864	-0.068730
O2	O	1.337571	0.439198	0.264604
O3	O	1.670904	0.772531	0.597937
O4	O	0.783879	0.119646	-0.068733
O5	O	1.117212	0.452979	0.264600
O6	O	1.450546	0.786313	0.597934
O7	O	0.900105	-0.009148	-0.068733
O8	O	1.233438	0.324185	0.264601
O9	O	1.566772	0.657518	0.597934
O10	O	0.888012	0.234659	-0.068730
O11	O	1.221345	0.567992	0.264603
O12	O	1.554678	0.901325	0.597936
O13	O	0.900089	-0.009156	0.068761
O14	O	1.233422	0.324177	0.402094
O15	O	1.566756	0.657510	0.735427
O16	O	0.783863	0.119638	0.068760
O17	O	1.117196	0.452971	0.402093
O18	O	1.450530	0.786304	0.735427
O19	O	1.004222	0.105856	0.068763
O20	O	1.337555	0.439190	0.402097
O21	O	1.670888	0.772523	0.735430
Cu22	Cu	0.894041	0.112746	0.081316
Cu23	Cu	1.227374	0.446080	0.414649
Cu24	Cu	1.560708	0.779413	0.747983
Cu25	Cu	0.894060	0.112756	-0.081286
Cu26	Cu	1.227393	0.446089	0.252048
Cu27	Cu	1.560726	0.779423	0.585381
O28	O	0.887996	0.234650	0.068763
O29	O	1.221329	0.567984	0.402096
O30	O	1.554662	0.901317	0.735430
C31	C	0.755673	0.119149	0.000013
C32	C	1.089006	0.452482	0.333346
C33	C	1.422340	0.785816	0.666680
C34	C	0.671653	0.117670	0.000012
C35	C	1.004986	0.451003	0.333345
C36	C	1.338319	0.784337	0.666678
C37	C	0.632176	0.116969	0.074960
C38	C	0.965509	0.450302	0.408293
C39	C	1.298842	0.783635	0.741627
C40	C	0.553231	0.115566	0.074961
C41	C	0.886564	0.448899	0.408294
C42	C	1.219898	0.782232	0.741627
C43	C	0.513764	0.114870	0.000012
C44	C	0.847098	0.448203	0.333346
C45	C	1.180431	0.781537	0.666679
C46	C	0.553247	0.115569	-0.074942
C47	C	0.886580	0.448902	0.258392
C48	C	1.219914	0.782236	0.591725
C49	C	0.632191	0.116966	-0.074942
C50	C	0.965524	0.450299	0.258392
C51	C	1.298858	0.783633	0.591725
C52	C	0.234876	0.109934	-0.074943
C53	C	0.568209	0.443267	0.258390
C54	C	0.901542	0.776601	0.591723
C55	C	0.155926	0.108540	-0.074938
C56	C	0.489259	0.441873	0.258396
C57	C	0.822593	0.775206	0.591729
C58	C	0.155915	0.108534	0.074959
C59	C	0.489249	0.441867	0.408293
C60	C	0.822582	0.775201	0.741626
C61	C	0.234859	0.109931	0.074959
C62	C	0.568193	0.443264	0.408293
C63	C	0.901526	0.776598	0.741626
C64	C	0.274336	0.110625	0.000006
C65	C	0.607669	0.443959	0.333339
C66	C	0.941003	0.777292	0.666672
C67	C	0.359937	0.112145	0.000005
C68	C	0.693270	0.445478	0.333339
C69	C	1.026603	0.778812	0.666672
C70	C	0.428164	0.113356	0.000012
C71	C	0.761497	0.446690	0.333345
C72	C	1.094831	0.780023	0.666678
C73	C	0.899605	-0.040347	0.000012
C74	C	1.232938	0.292986	0.333345
C75	C	1.566271	0.626320	0.666679
C76	C	0.898129	-0.133297	0.000006
C77	C	1.231462	0.200037	0.333339
C78	C	1.564796	0.533370	0.666672
C79	C	0.892704	-0.471024	0.000013
C80	C	1.226038	-0.137691	0.333347
C81	C	1.559371	0.195643	0.666680
C82	C	0.976593	-0.447884	0.000322
C83	C	1.309927	-0.114551	0.333655
C84	C	1.643260	0.218782	0.666988
C85	C	0.978188	-0.351212	0.000009
C86	C	1.311521	-0.017879	0.333342
C87	C	1.644854	0.315455	0.666675
C88	C	0.895396	-0.303474	0.000010
C89	C	1.228730	0.029860	0.333343
C90	C	1.562063	0.363193	0.666677
C91	C	0.853465	-0.332484	-0.078503
C92	C	1.186798	0.000850	0.254830
C93	C	1.520132	0.334183	0.588163
C94	C	0.852455	-0.429272	-0.078566
C95	C	1.185788	-0.095939	0.254767
C96	C	1.519122	0.237395	0.588100
C97	C	0.850724	-0.429135	0.077789
C98	C	1.184057	-0.095802	0.411123
C99	C	1.517390	0.237532	0.744456
C100	C	0.853832	-0.332649	0.078824
C101	C	1.187166	0.000684	0.412157
C102	C	1.520499	0.334018	0.745491
C103	C	0.896913	-0.208781	0.000005
C104	C	1.230246	0.124553	0.333339
C105	C	1.563580	0.457886	0.666672
C106	C	0.891185	-0.565717	0.000012
C107	C	1.224518	-0.232383	0.333346
C108	C	1.557852	0.100950	0.666679
C109	C	1.032427	0.106353	0.000016
C110	C	1.365761	0.439687	0.333349
C111	C	1.699094	0.773020	0.666682
C112	C	1.116448	0.107832	0.000012
C113	C	1.449781	0.441166	0.333345
C114	C	1.783115	0.774499	0.666678
C115	C	0.888496	0.265849	0.000017
C116	C	1.221829	0.599182	0.333350
C117	C	1.555163	0.932516	0.666683
C118	C	0.889972	0.358799	0.000017
C119	C	1.223305	0.692132	0.333351
C120	C	1.556638	1.025466	0.666684
N121	N	0.894033	0.112739	0.195681
N122	N	1.227366	0.446072	0.529015
N123	N	1.560700	0.779406	0.862348
N124	N	0.894074	0.112757	-0.195651
N125	N	1.227407	0.446090	0.137682
N126	N	1.560740	0.779423	0.471016
C127	C	0.945513	0.055732	0.238946
C128	C	1.278847	0.389065	0.572279
C129	C	1.612180	0.722399	0.905612
C130	C	0.945517	0.055731	0.325493
C131	C	1.278851	0.389065	0.658826
C132	C	1.612184	0.722398	0.992159
C133	C	0.894044	0.112742	0.368774
C134	C	1.227377	0.446075	0.702107
C135	C	1.560710	0.779408	1.035440
C136	C	0.842558	0.169751	0.325503
C137	C	1.175891	0.503085	0.658837
C138	C	1.509225	0.836418	0.992170
C139	C	0.842551	0.169748	0.238958
C140	C	1.175884	0.503081	0.572291
C141	C	1.509218	0.836414	0.905625
C142	C	0.842584	0.169767	0.674532
C143	C	1.175917	0.503100	1.007865
C144	C	1.509251	0.836434	1.341198
C145	C	0.842596	0.169768	0.761083
C146	C	1.175930	0.503101	1.094417
C147	C	1.509263	0.836435	1.427750
C148	C	0.945550	0.055751	0.761066
C149	C	1.278883	0.389084	1.094400
C150	C	1.612217	0.722417	1.427733
C151	C	0.945543	0.055747	0.674521
C152	C	1.278877	0.389080	1.007854
C153	C	1.612210	0.722414	1.341188
C154	C	0.894055	0.112753	0.631258
C155	C	1.227388	0.446086	0.964591
C156	C	1.560722	0.779420	1.297925
C157	C	0.894051	0.112752	0.537414
C158	C	1.227384	0.446086	0.870747
C159	C	1.560717	0.779419	1.204081
C160	C	0.894051	0.112747	0.462616
C161	C	1.227385	0.446081	0.795950
C162	C	1.560718	0.779414	1.129283
H163	H	0.664332	0.117539	-0.135973
H164	H	0.997665	0.450872	0.197361
H165	H	1.330999	0.784205	0.530694
F166	F	1.018851	-0.484569	0.073918
F167	F	1.352184	-0.151235	0.407251
F168	F	1.685518	0.182098	0.740584
F169	F	0.885021	-0.466195	0.155573
F170	F	1.218354	-0.132861	0.488906
F171	F	1.551688	0.200472	0.822239
H172	H	0.987436	0.009312	0.360718
H173	H	1.320769	0.342645	0.694052
H174	H	1.654103	0.675978	1.027385
F175	F	1.021096	-0.326433	0.073582
F176	F	1.354430	0.006901	0.406915
F177	F	1.687763	0.340234	0.740248
H178	H	0.884365	-0.314150	0.136908
H179	H	1.217698	0.019183	0.470241
H180	H	1.551031	0.352517	0.803574
F181	F	0.787789	0.230438	0.628495
F182	F	1.121123	0.563772	0.961828
F183	F	1.454456	0.897105	1.295161
H184	H	0.664303	0.117542	0.135992
H185	H	0.997636	0.450875	0.469325
H186	H	1.330970	0.784209	0.802658
F187	F	1.021380	-0.327236	-0.073684
F188	F	1.354713	0.006097	0.259649
F189	F	1.688047	0.339430	0.592982
H190	H	0.793402	-0.299555	0.083566
H191	H	1.126736	0.033778	0.416900
H192	H	1.460069	0.367111	0.750233
F193	F	1.018633	-0.485893	-0.072859
F194	F	1.351966	-0.152560	0.260474
F195	F	1.685300	0.180774	0.593808
H196	H	0.123794	0.107972	-0.135973
H197	H	0.457128	0.441306	0.197360
H198	H	0.790461	0.774639	0.530693
F199	F	0.772063	-0.448128	-0.083227
F200	F	1.105396	-0.114794	0.250106
F201	F	1.438729	0.218539	0.583440
F202	F	0.890434	-0.464400	-0.155277
F203	F	1.223767	-0.131066	0.178057
F204	F	1.557100	0.202267	0.511390
H205	H	0.267008	0.110497	-0.135975
H206	H	0.600342	0.443830	0.197358
H207	H	0.933675	0.777163	0.530691
H208	H	0.788975	-0.442998	0.078319
H209	H	1.122309	-0.109665	0.411652
H210	H	1.455642	0.223668	0.744986
F211	F	0.773835	-0.290664	-0.082323
F212	F	1.107168	0.042669	0.251010
F213	F	1.440501	0.376003	0.584343
H214	H	0.882596	-0.312480	-0.136933
H215	H	1.215930	0.020854	0.196400
H216	H	1.549263	0.354187	0.529733
F217	F	1.000303	-0.004944	0.192891
F218	F	1.333637	0.328390	0.526224
F219	F	1.666970	0.661723	0.859557
H220	H	0.987472	0.009330	0.796300
H221	H	1.320806	0.342664	1.129634
H222	H	1.654139	0.675997	1.462967
F223	F	0.511219	0.114831	0.154731
F224	F	0.844552	0.448164	0.488065
F225	F	1.177885	0.781497	0.821398
H226	H	0.987460	0.009327	0.639284
H227	H	1.320793	0.342660	0.972618
H228	H	1.654127	0.675993	1.305951
H229	H	0.521108	0.114997	-0.135966
H230	H	0.854441	0.448330	0.197367
H231	H	1.187774	0.781663	0.530701
F232	F	0.787808	0.230449	0.807145
F233	F	1.121141	0.563782	1.140478
F234	F	1.454474	0.897115	1.473811
H235	H	0.800630	0.216167	0.203733
H236	H	1.133963	0.549501	0.537066
H237	H	1.467296	0.882834	0.870399
F238	F	0.276858	0.110676	0.154729
F239	F	0.610191	0.444010	0.488063
F240	F	0.943525	0.777343	0.821396
F241	F	0.113896	0.107791	0.154733
F242	F	0.447229	0.441124	0.488066
F243	F	0.780563	0.774458	0.821399
H244	H	0.800643	0.216168	0.360748
H245	H	1.133977	0.549501	0.694081
H246	H	1.467310	0.882834	1.027414
