data_functionalizedCrystal
_audit_creation_method	'MofGen! by Chris Wilmer'
_symmetry_space_group_name_H-M	'P1'
_symmetry_Int_Tables_number	1
_symmetry_cell_setting	triclinic
loop_
_symmetry_equiv_pos_as_xyz
  x,y,z
_cell_length_a	25.639242
_cell_length_b	25.639240
_cell_length_c	25.639233
_cell_angle_alpha	89.974071
_cell_angle_beta	89.977834
_cell_angle_gamma	90.028283
loop_
_atom_site_label
_atom_site_type_symbol
_atom_site_fract_x
_atom_site_fract_y
_atom_site_fract_z
Zn1	Zn	0.799247	-0.208277	-0.295716
Zn2	Zn	0.799179	-0.295696	-0.208270
Zn3	Zn	0.711823	-0.208269	-0.208280
Zn4	Zn	0.711777	-0.295676	-0.295659
O5	O	0.755506	-0.251979	-0.251981
O6	O	0.872403	-0.219884	-0.284135
O7	O	0.787582	-0.284103	-0.135106
O8	O	0.723467	-0.135105	-0.219907
O9	O	0.872353	-0.284111	-0.219889
O10	O	0.787697	-0.135111	-0.284146
O11	O	0.723402	-0.219871	-0.135114
O12	O	0.638652	-0.219853	-0.219852
O13	O	0.723389	-0.284078	-0.368832
O14	O	0.638618	-0.284070	-0.284049
O15	O	0.787653	-0.219866	-0.368874
O16	O	0.787538	-0.368858	-0.219834
O17	O	0.723324	-0.368844	-0.284039
C18	C	0.619664	-0.251959	-0.251946
C19	C	0.561550	-0.251963	-0.251943
C20	C	0.201178	-0.285473	-0.285377
C21	C	0.146574	-0.285477	-0.285385
O22	O	0.118330	-0.313943	-0.313782
N23	N	0.119267	-0.251994	-0.252015
C24	C	0.146568	-0.218502	-0.218639
O25	O	0.118328	-0.190022	-0.190256
C26	C	0.201171	-0.218496	-0.218634
C27	C	0.228475	-0.251985	-0.252002
C28	C	0.228482	-0.318959	-0.318743
C29	C	0.283082	-0.318956	-0.318734
C30	C	0.310379	-0.285468	-0.285359
C31	C	0.283076	-0.251983	-0.251993
C32	C	0.228471	-0.185002	-0.185260
C33	C	0.283078	-0.184999	-0.185258
C34	C	0.310382	-0.218488	-0.218626
C35	C	0.364973	-0.218492	-0.218609
N36	N	0.392279	-0.251974	-0.251979
C37	C	0.364983	-0.285463	-0.285354
C38	C	0.031897	-0.218515	-0.218653
C39	C	-0.022705	-0.218523	-0.218655
C40	C	-0.022695	-0.285497	-0.285402
C41	C	0.031908	-0.285492	-0.285397
C42	C	0.059204	-0.251998	-0.252023
C43	C	0.479648	-0.285455	-0.285332
C44	C	0.534253	-0.285451	-0.285318
C45	C	0.534239	-0.218475	-0.218573
C46	C	0.479638	-0.218481	-0.218585
C47	C	0.452344	-0.251972	-0.251968
O48	O	0.393252	-0.190038	-0.190228
O49	O	0.393229	-0.313933	-0.313736
C50	C	0.755433	-0.387822	-0.251940
C51	C	0.755449	-0.445936	-0.251940
C52	C	0.788967	-0.806264	-0.285491
C53	C	0.788983	-0.860868	-0.285501
O54	O	0.817394	-0.889074	-0.313985
N55	N	0.755579	-0.888218	-0.252032
C56	C	0.722154	-0.860962	-0.218553
O57	O	0.693742	-0.889240	-0.190086
C58	C	0.722136	-0.806359	-0.218546
C59	C	0.755546	-0.779011	-0.252014
C60	C	0.822374	-0.778916	-0.318956
C61	C	0.822359	-0.724315	-0.318945
C62	C	0.788938	-0.697062	-0.285468
C63	C	0.755531	-0.724410	-0.252002
C64	C	0.688708	-0.779103	-0.185070
C65	C	0.688693	-0.724496	-0.185066
C66	C	0.722103	-0.697148	-0.218534
C67	C	0.722095	-0.642557	-0.218514
N68	N	0.755498	-0.615206	-0.251983
C69	C	0.788920	-0.642459	-0.285460
C70	C	0.722193	-0.975633	-0.218572
C71	C	0.722213	-1.030235	-0.218577
C72	C	0.789041	-1.030137	-0.285526
C73	C	0.789024	-0.975534	-0.285518
C74	C	0.755597	-0.948282	-0.252042
C75	C	0.788887	-0.527794	-0.285433
C76	C	0.788870	-0.473189	-0.285417
C77	C	0.722040	-0.473291	-0.218471
C78	C	0.722058	-0.527892	-0.218484
C79	C	0.755483	-0.555142	-0.251970
O80	O	0.693697	-0.614316	-0.190046
O81	O	0.817322	-0.614175	-0.313927
C82	C	0.891879	-0.252000	-0.252017
C83	C	0.949993	-0.252009	-0.252032
C84	C	0.755523	-0.251970	-0.388354
C85	C	0.755530	-0.251966	-0.446468
C86	C	0.755595	-0.115606	-0.252034
C87	C	0.755632	-0.057492	-0.252056
C88	C	0.789035	-0.218432	-0.806859
C89	C	0.789041	-0.218417	-0.861463
O90	O	0.817486	-0.189967	-0.889723
N91	N	0.755588	-0.251844	-0.888751
C92	C	0.722122	-0.285283	-0.861432
O93	O	0.693668	-0.313713	-0.889656
C94	C	0.722114	-0.285294	-0.806828
C95	C	0.755573	-0.251870	-0.779543
C96	C	0.822491	-0.185009	-0.779574
C97	C	0.822485	-0.185025	-0.724973
C98	C	0.789023	-0.218462	-0.697658
C99	C	0.755567	-0.251885	-0.724943
C100	C	0.688646	-0.318731	-0.779510
C101	C	0.688640	-0.318739	-0.724903
C102	C	0.722099	-0.285314	-0.697618
C103	C	0.722099	-0.285338	-0.643027
N104	N	0.755552	-0.251912	-0.615739
C105	C	0.789014	-0.218474	-0.643055
C106	C	0.722143	-0.285256	-0.976102
C107	C	0.722154	-0.285247	-1.030705
C108	C	0.789072	-0.218381	-1.030733
C109	C	0.789063	-0.218392	-0.976129
C110	C	0.755596	-0.251829	-0.948815
C111	C	0.789000	-0.218509	-0.528389
C112	C	0.788992	-0.218529	-0.473784
C113	C	0.722072	-0.285393	-0.473761
C114	C	0.722081	-0.285375	-0.528362
C115	C	0.755547	-0.251929	-0.555674
O116	O	0.693668	-0.313773	-0.614732
O117	O	0.817459	-0.190044	-0.614823
C118	C	0.755520	-0.251951	-0.116139
C119	C	0.755614	-0.251807	-0.058025
H120	H	0.054135	-0.312760	-0.312570
C121	C	0.825059	-0.443431	-0.321788
C122	C	0.795424	-0.412074	-0.355253
C123	C	0.828741	-0.384651	-0.388760
H124	H	0.844976	-0.467425	-0.341778
H125	H	0.847841	-0.422095	-0.301824
H126	H	0.772651	-0.433408	-0.375216
H127	H	0.775509	-0.388070	-0.335278
H128	H	0.851524	-0.363315	-0.368796
H129	H	0.848656	-0.408648	-0.408746
H130	H	0.808640	-0.363368	-0.411467
C131	C	0.652336	-0.694881	-0.148805
C132	C	0.618787	-0.663550	-0.178368
C133	C	0.585285	-0.636268	-0.144983
H134	H	0.672283	-0.673537	-0.126029
H135	H	0.632412	-0.718975	-0.128885
H136	H	0.638709	-0.639460	-0.198279
H137	H	0.598828	-0.684882	-0.201143
H138	H	0.565361	-0.660361	-0.125063
H139	H	0.605236	-0.614926	-0.122209
H140	H	0.562515	-0.615011	-0.165037
C141	C	0.825340	-0.182178	-0.444255
C142	C	0.854633	-0.152882	-0.479869
C143	C	0.888115	-0.119386	-0.452688
H144	H	0.848153	-0.202128	-0.422955
H145	H	0.805364	-0.159371	-0.422965
H146	H	0.874608	-0.175686	-0.501150
H147	H	0.831834	-0.132921	-0.501170
H148	H	0.868139	-0.096579	-0.431398
H149	H	0.910925	-0.139340	-0.431389
H150	H	0.907991	-0.099501	-0.476848
H151	H	0.849740	-0.157777	-0.801809
C152	C	0.685730	-0.557493	-0.182126
C153	C	0.656451	-0.521936	-0.152814
C154	C	0.622971	-0.549181	-0.119324
H155	H	0.705691	-0.578799	-0.159325
H156	H	0.662912	-0.578783	-0.202097
H157	H	0.679266	-0.500655	-0.132844
H158	H	0.636480	-0.500629	-0.175601
H159	H	0.600152	-0.570471	-0.139295
H160	H	0.642935	-0.570486	-0.096526
H161	H	0.603097	-0.525060	-0.099435
C162	C	0.825248	-0.182133	-0.558065
C163	C	0.795676	-0.148594	-0.589401
C164	C	0.829052	-0.115076	-0.616740
H165	H	0.848031	-0.202069	-0.579410
H166	H	0.845161	-0.162203	-0.534005
H167	H	0.775772	-0.168522	-0.613459
H168	H	0.772895	-0.128646	-0.568069
H169	H	0.848965	-0.095146	-0.592680
H170	H	0.851833	-0.135016	-0.638082
H171	H	0.808992	-0.092313	-0.638001
C172	C	0.563990	-0.321789	-0.321495
C173	C	0.617653	-0.314632	-0.314338
C174	C	0.645061	-0.348100	-0.347649
H175	H	0.555126	-0.314221	-0.356661
H176	H	0.555051	-0.356919	-0.313772
H177	H	0.626589	-0.279510	-0.322064
H178	H	0.626534	-0.322204	-0.279179
H179	H	0.636122	-0.383230	-0.339926
H180	H	0.636192	-0.340529	-0.382813
H181	H	0.681474	-0.343252	-0.342794
H182	H	0.305300	-0.157721	-0.158083
C183	C	0.685817	-0.321787	-0.444119
C184	C	0.697182	-0.373517	-0.457379
C185	C	0.663801	-0.407058	-0.430074
H186	H	0.650671	-0.314203	-0.453028
H187	H	0.690618	-0.317038	-0.407688
H188	H	0.692377	-0.378264	-0.493802
H189	H	0.732322	-0.381118	-0.448469
H190	H	0.668602	-0.402308	-0.393644
H191	H	0.628657	-0.399469	-0.438986
H192	H	0.671510	-0.442160	-0.439064
C193	C	0.685919	-0.321610	-1.060350
C194	C	0.715506	-0.355130	-1.091687
C195	C	0.682143	-0.388639	-1.118996
H196	H	0.663139	-0.301667	-1.081692
H197	H	0.666003	-0.341556	-1.036272
H198	H	0.735413	-0.335186	-1.115763
H199	H	0.738284	-0.375084	-1.070358
H200	H	0.662226	-0.408585	-1.094917
H201	H	0.659364	-0.368692	-1.140335
H202	H	0.702212	-0.411389	-1.140257
H203	H	0.816228	-0.953270	-0.312771
C204	C	0.450114	-0.321874	-0.321597
C205	C	0.485721	-0.351203	-0.350802
C206	C	0.458534	-0.384764	-0.384208
H207	H	0.428833	-0.301969	-0.344468
H208	H	0.428803	-0.344657	-0.301570
H209	H	0.507022	-0.328423	-0.370828
H210	H	0.507003	-0.371119	-0.327944
H211	H	0.437223	-0.407547	-0.364181
H212	H	0.437254	-0.364855	-0.407076
H213	H	0.482689	-0.404671	-0.404025
H214	H	0.661380	-0.345963	-0.702666
C215	C	0.858858	-0.148808	-0.695319
C216	C	0.892362	-0.178406	-0.663972
C217	C	0.925874	-0.145054	-0.636653
H218	H	0.838916	-0.126024	-0.673983
H219	H	0.878815	-0.128895	-0.719391
H220	H	0.872407	-0.198310	-0.639903
H221	H	0.912315	-0.201188	-0.685296
H222	H	0.945831	-0.125141	-0.660725
H223	H	0.905928	-0.122272	-0.615320
H224	H	0.948613	-0.165132	-0.615385
C225	C	0.312627	-0.355332	-0.355025
C226	C	0.277026	-0.384645	-0.384262
C227	C	0.304219	-0.418155	-0.417707
H228	H	0.333911	-0.378131	-0.335041
H229	H	0.333935	-0.335375	-0.377872
H230	H	0.255727	-0.404600	-0.361418
H231	H	0.255741	-0.361859	-0.404256
H232	H	0.325527	-0.398198	-0.440554
H233	H	0.325503	-0.440951	-0.397719
H234	H	0.280068	-0.438044	-0.437551
C235	C	0.563951	-0.182202	-0.182310
C236	C	0.595280	-0.211755	-0.148748
C237	C	0.622666	-0.178356	-0.115343
H238	H	0.539934	-0.162244	-0.162386
H239	H	0.585302	-0.159463	-0.202343
H240	H	0.573932	-0.234485	-0.128717
H241	H	0.619307	-0.231712	-0.168658
H242	H	0.644017	-0.155616	-0.135377
H243	H	0.598646	-0.158399	-0.095423
H244	H	0.643930	-0.198402	-0.092571
C245	C	0.685792	-0.321628	-0.946543
C246	C	0.656512	-0.350906	-0.982133
C247	C	0.623027	-0.384422	-0.954925
H248	H	0.662971	-0.301693	-0.925238
H249	H	0.705766	-0.344445	-0.925256
H250	H	0.636541	-0.328092	-1.003412
H251	H	0.679320	-0.370851	-1.003439
H252	H	0.643000	-0.407240	-0.933638
H253	H	0.600209	-0.364484	-0.933621
H254	H	0.603160	-0.404295	-0.979069
H255	H	0.816308	-0.191174	-0.953917
C256	C	0.450085	-0.182069	-0.182333
C257	C	0.485681	-0.152734	-0.153110
C258	C	0.458480	-0.119177	-0.119719
H259	H	0.428758	-0.201976	-0.159472
H260	H	0.428820	-0.159288	-0.202371
H261	H	0.506937	-0.175511	-0.133074
H262	H	0.507009	-0.132816	-0.175958
H263	H	0.437215	-0.096397	-0.139757
H264	H	0.437154	-0.139088	-0.096861
H265	H	0.482627	-0.099266	-0.099891
H266	H	0.816317	-0.191153	-1.052983
H267	H	0.694830	-0.451094	-0.191212
C268	C	0.652257	-0.355038	-0.809030
C269	C	0.622942	-0.384306	-0.773410
C270	C	0.589407	-0.417754	-0.800584
H271	H	0.672179	-0.377869	-0.830334
H272	H	0.629463	-0.335039	-0.830315
H273	H	0.645734	-0.404304	-0.752134
H274	H	0.603010	-0.361489	-0.752105
H275	H	0.566613	-0.397754	-0.821869
H276	H	0.609333	-0.440581	-0.821887
H277	H	0.569510	-0.437613	-0.776420
C278	C	0.685843	-0.321728	-0.558019
C279	C	0.715424	-0.355244	-0.589365
C280	C	0.682054	-0.388739	-0.616684
H281	H	0.663068	-0.301775	-0.579355
H282	H	0.665923	-0.341677	-0.533946
H283	H	0.735335	-0.335298	-0.613434
H284	H	0.738198	-0.375210	-0.568041
H285	H	0.662134	-0.408688	-0.592611
H286	H	0.659280	-0.368781	-0.638017
H287	H	0.702120	-0.411487	-0.637952
H288	H	0.206262	-0.346229	-0.345924
C289	C	-0.052271	-0.321824	-0.321728
C290	C	-0.038950	-0.310522	-0.373479
C291	C	-0.066181	-0.343978	-0.406953
H292	H	-0.088709	-0.317061	-0.317022
H293	H	-0.043333	-0.356952	-0.314041
H294	H	-0.047892	-0.275403	-0.381163
H295	H	-0.002517	-0.315288	-0.378201
H296	H	-0.057243	-0.379106	-0.399266
H297	H	-0.102617	-0.339212	-0.402243
H298	H	-0.057143	-0.336318	-0.442069
H299	H	0.849563	-0.702052	-0.346199
C300	C	-0.052251	-0.182110	-0.182402
C301	C	-0.016652	-0.152776	-0.153183
C302	C	-0.043848	-0.119219	-0.119788
H303	H	-0.073575	-0.202018	-0.159538
H304	H	-0.073519	-0.159330	-0.202437
H305	H	0.004607	-0.175554	-0.133150
H306	H	0.004674	-0.132858	-0.176034
H307	H	-0.065116	-0.096439	-0.139823
H308	H	-0.065171	-0.139131	-0.096927
H309	H	-0.019698	-0.099309	-0.099962
H310	H	0.206250	-0.157734	-0.158087
C311	C	0.061598	-0.182239	-0.182378
C312	C	0.092925	-0.211790	-0.148813
C313	C	0.120295	-0.178391	-0.115395
H314	H	0.037571	-0.162290	-0.162456
H315	H	0.082948	-0.159491	-0.202402
H316	H	0.071577	-0.234530	-0.128792
H317	H	0.116961	-0.231739	-0.168720
H318	H	0.141645	-0.155643	-0.135419
H319	H	0.096265	-0.158444	-0.095477
H320	H	0.141557	-0.198436	-0.092621
C321	C	0.825090	-0.557404	-0.321851
C322	C	0.795475	-0.588743	-0.355349
C323	C	0.828808	-0.616023	-0.388906
H324	H	0.847902	-0.578743	-0.301941
H325	H	0.844973	-0.533309	-0.341809
H326	H	0.775600	-0.612836	-0.335393
H327	H	0.772665	-0.567418	-0.375271
H328	H	0.848692	-0.591928	-0.408864
H329	H	0.851618	-0.637358	-0.368991
H330	H	0.808720	-0.637286	-0.411641
C331	C	0.858636	-0.808431	-0.355390
C332	C	0.847223	-0.795114	-0.407105
C333	C	0.880627	-0.822283	-0.440680
H334	H	0.853903	-0.844877	-0.350678
H335	H	0.893774	-0.799441	-0.347801
H336	H	0.812094	-0.804108	-0.414691
H337	H	0.851960	-0.758672	-0.411833
H338	H	0.915765	-0.813293	-0.433091
H339	H	0.875891	-0.858728	-0.435964
H340	H	0.872891	-0.813247	-0.475772
C341	C	0.825268	-1.059827	-0.321858
C342	C	0.818118	-1.113498	-0.314709
C343	C	0.851474	-1.140865	-0.348171
H344	H	0.860423	-1.050922	-0.314280
H345	H	0.817582	-1.050894	-0.356989
H346	H	0.825808	-1.122427	-0.279586
H347	H	0.782970	-1.122418	-0.322291
H348	H	0.843788	-1.131933	-0.383302
H349	H	0.886627	-1.131956	-0.340590
H350	H	0.846623	-1.177284	-0.343328
H351	H	0.695013	-1.052497	-0.191318
H352	H	0.661503	-0.801360	-0.157817
C353	C	0.685883	-0.946142	-0.182161
C354	C	0.656647	-0.981786	-0.152845
C355	C	0.623198	-0.954642	-0.119294
H356	H	0.663033	-0.924845	-0.202071
H357	H	0.705881	-0.924851	-0.159369
H358	H	0.636651	-1.003068	-0.175634
H359	H	0.679484	-1.003084	-0.132924
H360	H	0.643195	-0.933351	-0.096502
H361	H	0.600351	-0.933346	-0.139209
H362	H	0.603361	-0.978822	-0.099396
