data_functionalizedCrystal
_audit_creation_method	'MofGen! by Chris Wilmer'
_symmetry_space_group_name_H-M	'P1'
_symmetry_Int_Tables_number	1
_symmetry_cell_setting	triclinic
loop_
_symmetry_equiv_pos_as_xyz
  x,y,z
_cell_length_a	14.519709
_cell_length_b	16.109301
_cell_length_c	13.596369
_cell_angle_alpha	89.994680
_cell_angle_beta	89.993066
_cell_angle_gamma	83.570813
loop_
_atom_site_label
_atom_site_type_symbol
_atom_site_fract_x
_atom_site_fract_y
_atom_site_fract_z
O1	O	0.118543	1.103338	-0.081793
O2	O	0.618543	1.603338	0.418207
O3	O	0.133295	0.861301	-0.081796
O4	O	0.633295	1.361301	0.418204
O5	O	-0.008333	0.988737	-0.081785
O6	O	0.491667	1.488737	0.418215
O7	O	0.260171	0.975902	-0.081803
O8	O	0.760171	1.475902	0.418197
O9	O	-0.008341	0.988724	0.081797
O10	O	0.491659	1.488724	0.581797
O11	O	0.133287	0.861289	0.081787
O12	O	0.633287	1.361289	0.581787
O13	O	0.118535	1.103325	0.081790
O14	O	0.618535	1.603325	0.581790
Zn15	Zn	0.125910	0.982305	0.107761
Zn16	Zn	0.625910	1.482305	0.607761
Zn17	Zn	0.125920	0.982322	-0.107767
Zn18	Zn	0.625920	1.482322	0.392233
O19	O	0.260163	0.975890	0.081780
O20	O	0.760163	1.475890	0.581780
C21	C	-0.042696	0.988132	0.000006
C22	C	0.457304	1.488132	0.500006
C23	C	-0.145073	0.986340	0.000007
C24	C	0.354927	1.486340	0.500007
C25	C	0.132693	0.830319	-0.000004
C26	C	0.632693	1.330319	0.499996
C27	C	0.130902	0.738021	-0.000005
C28	C	0.630902	1.238021	0.499995
C29	C	0.119136	1.134307	-0.000004
C30	C	0.619136	1.634307	0.499996
C31	C	0.120928	1.226606	-0.000010
C32	C	0.620928	1.726606	0.499990
C33	C	-0.519955	0.979741	-0.000019
C34	C	-0.019955	1.479741	0.499981
C35	C	-0.415651	0.981574	-0.000011
C36	C	0.084349	1.481574	0.499989
C37	C	-0.332517	0.983041	-0.000005
C38	C	0.167483	1.483041	0.499995
C39	C	-0.228207	0.984873	0.000000
C40	C	0.271793	1.484873	0.500000
C41	C	0.294526	0.976494	-0.000014
C42	C	0.794526	1.476494	0.499986
C43	C	0.396903	0.978287	-0.000021
C44	C	0.896903	1.478287	0.499979
N45	N	0.125903	0.982300	0.254853
N46	N	0.625903	1.482300	0.754853
C47	C	0.041054	1.448740	0.000001
C48	C	0.541054	1.948740	0.500001
C49	C	0.042745	1.535463	0.000004
C50	C	0.542745	2.035463	0.500004
C51	C	0.210782	1.515880	-0.000012
C52	C	0.710782	2.015880	0.499988
C53	C	0.209090	1.429158	-0.000008
C54	C	0.709090	1.929158	0.499992
C55	C	0.124224	1.395591	-0.000007
C56	C	0.624224	1.895591	0.499993
C57	C	0.127606	1.569036	-0.000007
C58	C	0.627606	2.069036	0.499993
C59	C	0.129440	1.663065	-0.000004
C60	C	0.629440	2.163065	0.499996
C61	C	0.122390	1.301556	-0.000009
C62	C	0.622390	1.801556	0.499991
N63	N	0.125920	0.982334	-0.254858
N64	N	0.625920	1.482334	0.245142
C65	C	0.125921	0.982321	0.656144
C66	C	0.625921	1.482321	1.156144
C67	C	0.125919	0.982312	0.544492
C68	C	0.625919	1.482312	1.044492
C69	C	0.125912	0.982311	0.455502
C70	C	0.625912	1.482311	0.955502
C71	C	0.125909	0.982301	0.343843
C72	C	0.625909	1.482301	0.843843
H73	H	-0.028049	1.421413	0.000004
H74	H	0.471951	1.921413	0.500004
Br75	Br	0.325952	1.561441	-0.000023
Br76	Br	0.825952	2.061441	0.499977
H77	H	-0.024980	1.578735	0.000012
H78	H	0.475020	2.078735	0.500012
H79	H	0.276821	1.385882	-0.000011
H80	H	0.776821	1.885882	0.499989
