data_functionalizedCrystal
_audit_creation_method	'MofGen! by Chris Wilmer'
_symmetry_space_group_name_H-M	'P1'
_symmetry_Int_Tables_number	1
_symmetry_cell_setting	triclinic
loop_
_symmetry_equiv_pos_as_xyz
  x,y,z
_cell_length_a	16.992694
_cell_length_b	13.339070
_cell_length_c	16.053802
_cell_angle_alpha	93.267614
_cell_angle_beta	87.249047
_cell_angle_gamma	103.148759
loop_
_atom_site_label
_atom_site_type_symbol
_atom_site_fract_x
_atom_site_fract_y
_atom_site_fract_z
O1	O	1.090314	0.214289	-0.069315
O2	O	0.861508	0.211892	-0.069340
O3	O	0.949651	0.063704	-0.069328
O4	O	1.002170	0.362477	-0.069327
O5	O	0.944792	0.071825	0.069530
O6	O	0.856649	0.220013	0.069518
O7	O	1.085454	0.222410	0.069543
Zn8	Zn	0.970280	0.222501	0.091577
Zn9	Zn	0.976682	0.211801	-0.091374
O10	O	0.997311	0.370598	0.069531
C11	C	0.829196	0.212871	0.000086
C12	C	0.740151	0.203676	0.000076
C13	C	0.938350	0.029358	0.000099
C14	C	0.911906	-0.085082	0.000093
C15	C	0.709211	0.292389	0.000077
C16	C	0.625543	0.283745	0.000089
C17	C	0.572817	0.186385	0.000093
C18	C	0.603763	0.097665	0.000095
C19	C	0.687429	0.106311	0.000090
C20	C	0.321423	0.150552	0.000116
C21	C	0.237752	0.141912	0.000119
C22	C	0.259538	0.327993	0.000114
C23	C	0.343205	0.336630	0.000103
C24	C	0.374143	0.247910	0.000109
N25	N	0.487295	0.177547	0.000103
N26	N	0.459663	0.256750	0.000106
C27	C	1.117519	-0.433251	0.000116
C28	C	1.142367	-0.325729	0.000126
C29	C	1.084754	-0.265562	0.000118
C30	C	1.002289	-0.312928	0.000099
C31	C	0.977439	-0.420460	0.000095
C32	C	0.944673	-0.252771	0.000097
C33	C	0.862209	-0.300136	0.000078
C34	C	0.837363	-0.407658	0.000074
C35	C	0.894976	-0.467825	0.000082
C36	C	0.969524	-0.145239	0.000101
C37	C	0.829443	-0.132447	0.000080
C38	C	0.804596	-0.239970	0.000070
C39	C	1.117767	0.221431	0.000115
C40	C	1.206811	0.230626	0.000120
C41	C	1.008612	0.404944	0.000102
C42	C	1.035056	0.519384	0.000103
N43	N	0.965916	0.229803	0.216437
N44	N	0.981051	0.204492	-0.216234
C45	C	1.003445	0.166774	0.260136
C46	C	1.000402	0.171892	0.347543
C47	C	0.959834	0.240045	0.391248
C48	C	0.922300	0.303076	0.347543
C49	C	0.925339	0.297952	0.260138
C50	C	0.946555	0.262399	0.652656
C51	C	0.943522	0.267520	0.740067
C52	C	1.021623	0.136334	0.740060
C53	C	1.024662	0.131221	0.652654
C54	C	0.987124	0.194248	0.608956
N55	N	0.956725	0.245281	0.480592
N56	N	0.990229	0.189006	0.519615
H57	H	0.752136	0.371670	0.000073
C58	C	0.746651	-0.459756	0.000062
C59	C	0.689763	-0.435472	0.072160
C60	C	0.599051	-0.487565	0.072150
C61	C	0.565227	-0.563942	0.000042
C62	C	0.622115	-0.588231	-0.072062
C63	C	0.712827	-0.536138	-0.072051
H64	H	0.714802	-0.378929	0.125544
H65	H	0.556939	-0.469584	0.125526
H66	H	0.498076	-0.602505	0.000034
H67	H	0.597077	-0.644773	-0.125445
H68	H	0.754940	-0.554118	-0.125427
H69	H	0.712618	0.034071	0.000088
H70	H	0.194823	0.062627	0.000122
H71	H	0.600356	0.355985	0.000088
H72	H	0.386130	0.415909	0.000090
H73	H	0.737452	-0.278550	0.000055
H74	H	0.234339	0.400223	0.000111
C75	C	0.355444	0.052958	0.000116
C76	C	0.407446	0.037519	0.072221
C77	C	0.441469	-0.060082	0.072221
C78	C	0.423489	-0.142242	0.000115
C79	C	0.371484	-0.126805	-0.071996
C80	C	0.337461	-0.029205	-0.071995
H81	H	0.420759	0.098341	0.125602
H82	H	0.479966	-0.071509	0.125602
H83	H	0.448674	-0.214491	0.000115
H84	H	0.358171	-0.187627	-0.125377
H85	H	0.298963	-0.017778	-0.125377
H86	H	0.560826	0.018394	0.000111
H87	H	0.782530	-0.083459	0.000077
C88	C	0.877674	0.378047	0.395615
C89	C	0.874378	0.383744	0.491757
C90	C	0.829754	0.458720	0.539825
C91	C	0.788425	0.527999	0.491752
C92	C	0.791720	0.522304	0.395605
C93	C	0.836344	0.447328	0.347536
H94	H	0.904973	0.332458	0.527348
H95	H	0.827315	0.462935	0.611000
H96	H	0.755391	0.583500	0.527336
H97	H	0.761125	0.573591	0.360014
H98	H	0.838783	0.443113	0.276362
C99	C	1.048071	0.091803	0.212064
C100	C	1.089348	0.022469	0.260138
C101	C	1.133973	-0.052507	0.212069
C102	C	1.137321	-0.058148	0.115927
C103	C	1.096043	0.011188	0.067849
C104	C	1.051418	0.086164	0.115917
H105	H	1.086871	0.026643	0.331312
H106	H	1.164529	-0.103835	0.247660
H107	H	1.170354	-0.113650	0.080344
H108	H	1.098520	0.007015	-0.003326
H109	H	1.020861	0.137492	0.080326
H110	H	1.036667	-0.106684	0.000116
H111	H	1.104990	-0.178013	0.000126
C112	C	1.069282	0.056249	0.604575
C113	C	1.110565	-0.013091	0.652634
C114	C	1.155188	-0.088059	0.604552
C115	C	1.158527	-0.093687	0.508410
C116	C	1.117243	-0.024345	0.460345
C117	C	1.072620	0.050623	0.508428
H118	H	1.108095	-0.008926	0.723809
H119	H	1.185750	-0.139390	0.640134
H120	H	1.191560	-0.149183	0.472817
H121	H	1.119713	-0.028510	0.389171
H122	H	1.042058	0.101954	0.472846
H123	H	1.209509	-0.287171	0.000142
H124	H	1.164418	-0.482247	0.000129
H125	H	0.874749	-0.555379	0.000071
C126	C	1.062905	0.066999	0.788128
C127	C	1.012495	-0.010779	0.848225
C128	C	1.053777	-0.080122	0.896291
C129	C	1.145468	-0.071686	0.884260
C130	C	1.195882	0.006095	0.824161
C131	C	1.154601	0.075438	0.776095
H132	H	0.944616	-0.017027	0.857133
H133	H	1.016456	-0.137701	0.940780
H134	H	1.176027	-0.123018	0.919842
H135	H	1.263762	0.012342	0.815253
H136	H	1.191922	0.133016	0.731605
C137	C	0.898890	0.342491	0.788142
C138	C	0.827008	0.300795	0.848248
C139	C	0.782380	0.375764	0.896321
C140	C	0.809634	0.492430	0.884288
C141	C	0.881520	0.534132	0.824179
C142	C	0.926147	0.459163	0.776106
H143	H	0.806829	0.214426	0.857158
H144	H	0.729166	0.344892	0.940818
H145	H	0.776598	0.547927	0.919875
H146	H	0.901698	0.620501	0.815269
H147	H	0.979362	0.490035	0.731609
H148	H	1.030961	0.120569	0.383122
H149	H	0.894777	0.349276	0.224559
H150	H	0.915992	0.313720	0.617084
