data_functionalizedCrystal
_audit_creation_method	'MofGen! by Chris Wilmer'
_symmetry_space_group_name_H-M	'P1'
_symmetry_Int_Tables_number	1
_symmetry_cell_setting	triclinic
loop_
_symmetry_equiv_pos_as_xyz
  x,y,z
_cell_length_a	15.944551
_cell_length_b	10.489716
_cell_length_c	9.565339
_cell_angle_alpha	89.997266
_cell_angle_beta	89.992366
_cell_angle_gamma	84.013937
loop_
_atom_site_label
_atom_site_type_symbol
_atom_site_fract_x
_atom_site_fract_y
_atom_site_fract_z
O1	O	0.118411	1.692427	-0.116252
O2	O	0.129556	1.321073	-0.116258
O3	O	0.001769	1.516891	-0.116242
O4	O	0.246198	1.496609	-0.116268
O5	O	0.001760	1.516880	0.116278
O6	O	0.129547	1.321062	0.116262
O7	O	0.118402	1.692416	0.116268
Zn8	Zn	0.123973	1.506737	0.153183
Zn9	Zn	0.123985	1.506752	-0.153172
O10	O	0.246189	1.496598	0.116253
C11	C	0.128714	1.273547	0.000002
C12	C	0.126209	1.131951	0.000000
C13	C	0.204572	1.033191	-0.000011
C14	C	0.163159	0.956413	0.114644
C15	C	0.163149	0.956431	-0.114603
C16	C	0.084829	1.057039	0.114750
C17	C	0.084831	1.057061	-0.114600
C18	C	0.043360	0.980334	0.000084
C19	C	-0.029534	1.516044	0.000018
C20	C	-0.122795	1.513519	0.000019
C21	C	-0.338411	1.386109	-0.000002
C22	C	-0.399080	1.445269	0.114645
C23	C	-0.293548	1.508953	0.000008
C24	C	-0.399054	1.445308	-0.114601
C25	C	-0.458487	1.504533	-0.000008
C26	C	-0.352990	1.568146	0.114750
C27	C	-0.352957	1.568169	-0.114599
C28	C	-0.413609	1.627418	0.000076
C29	C	-0.198531	1.511496	0.000019
C30	C	-0.553504	1.501999	-0.000009
C31	C	0.277493	1.497446	-0.000011
C32	C	0.370754	1.499970	-0.000021
C33	C	0.119244	1.739942	0.000005
C34	C	0.121749	1.881539	-0.000002
N35	N	0.123987	1.506763	-0.362252
C36	C	0.064991	1.597503	-0.453402
C37	C	0.141088	1.621966	-0.546641
C38	C	0.047875	1.482330	-0.546568
C39	C	0.200123	1.531283	-0.453439
C40	C	0.106859	1.391597	-0.453358
C41	C	0.183010	1.416011	-0.546555
N42	N	0.123964	1.506737	0.362262
H43	H	-0.024854	0.956849	0.000157
H44	H	0.051779	1.101020	-0.211528
O45	O	0.045251	1.109207	0.230411
C46	C	-0.039448	1.081746	0.230705
H47	H	-0.059758	1.061426	0.119340
H48	H	-0.045818	0.994163	0.298936
C49	C	-0.070982	1.222463	0.426075
C50	C	-0.095929	1.197517	0.289292
H51	H	-0.105823	1.293873	0.462219
H52	H	-0.013918	1.240961	0.425881
H53	H	-0.076291	1.149469	0.482917
H54	H	-0.090610	1.270504	0.232449
H55	H	-0.152994	1.179034	0.289477
H56	H	0.264498	1.552043	-0.412702
O57	O	0.089657	1.275353	-0.404596
C58	C	0.151112	1.179594	-0.454093
H59	H	0.181302	1.214803	-0.552969
H60	H	0.201608	1.157504	-0.370686
C61	C	0.072165	1.014029	-0.365823
C62	C	0.109241	1.057269	-0.487271
H63	H	0.046340	0.938570	-0.386283
H64	H	0.030763	1.078543	-0.332471
H65	H	0.114252	0.995630	-0.296329
H66	H	0.067153	1.075682	-0.556757
H67	H	0.150635	0.992755	-0.520636
H68	H	0.196235	0.912468	0.211567
O69	O	0.202745	0.904164	-0.230203
C70	C	0.287665	0.930525	-0.229760
H71	H	0.294308	1.018703	-0.162632
H72	H	0.328910	0.844864	-0.185035
C73	C	0.307579	0.847619	-0.462817
C74	C	0.315736	0.955927	-0.380379
H75	H	0.324897	0.863283	-0.555725
H76	H	0.250368	0.829854	-0.463114
H77	H	0.341950	0.776246	-0.425530
H78	H	0.281357	1.027294	-0.417656
H79	H	0.372943	0.973705	-0.380091
O80	O	-0.423361	1.383407	0.230418
C81	C	-0.398777	1.447128	0.351104
H82	H	-0.344075	1.504634	0.324389
H83	H	-0.454247	1.514641	0.391137
C84	C	-0.438071	1.277224	0.497758
C85	C	-0.370880	1.347845	0.464948
H86	H	-0.420866	1.215984	0.567985
H87	H	-0.454637	1.234296	0.416450
H88	H	-0.484290	1.333498	0.531110
H89	H	-0.324667	1.291574	0.431580
H90	H	-0.354306	1.390762	0.546253
O91	O	-0.299431	1.264446	0.000371
C92	C	-0.322817	1.200136	0.121459
H93	H	-0.344375	1.273353	0.205527
H94	H	-0.376560	1.140528	0.095301
C95	C	-0.220164	1.021578	0.072252
C96	C	-0.246635	1.111504	0.175509
H97	H	-0.173174	0.966901	0.105590
H98	H	-0.204410	1.064902	-0.009331
H99	H	-0.264957	0.971918	0.050462
H100	H	-0.201846	1.161173	0.197284
H101	H	-0.262380	1.068187	0.257096
O102	O	-0.328637	1.629988	0.230470
C103	C	-0.240330	1.631598	0.229092
H104	H	-0.210618	1.549722	0.161146
H105	H	-0.224007	1.726838	0.184772
C106	C	-0.242544	1.715862	0.462696
C107	C	-0.206052	1.615295	0.379252
H108	H	-0.221399	1.705812	0.555321
H109	H	-0.302039	1.714783	0.463623
H110	H	-0.228939	1.795219	0.425745
H111	H	-0.219666	1.535942	0.416193
H112	H	-0.146558	1.616361	0.378335
H113	H	-0.446160	1.729474	0.000142
O114	O	0.242689	1.324582	-0.594990
C115	C	0.322771	1.350798	-0.547251
H116	H	0.321185	1.457080	-0.521249
H117	H	0.340198	1.291581	-0.449593
C118	C	0.390794	1.185324	-0.694086
C119	C	0.388849	1.315863	-0.662161
H120	H	0.431556	1.163769	-0.764964
H121	H	0.336842	1.167657	-0.726246
H122	H	0.405314	1.135992	-0.612694
H123	H	0.374319	1.365192	-0.743548
H124	H	0.442801	1.333537	-0.630018
O125	O	0.005540	1.689209	-0.404828
C126	C	-0.035663	1.754179	-0.518638
H127	H	0.006867	1.743802	-0.614649
H128	H	-0.097002	1.711226	-0.541587
C129	C	-0.107500	1.909936	-0.364340
C130	C	-0.055260	1.897199	-0.482259
H131	H	-0.119592	1.998157	-0.341900
H132	H	-0.079743	1.866163	-0.287663
H133	H	-0.158609	1.874134	-0.383480
H134	H	-0.004148	1.932987	-0.463113
H135	H	-0.083009	1.940983	-0.558933
H136	H	-0.332514	1.620087	-0.211528
H137	H	0.272736	1.056915	0.000089
H138	H	-0.419437	1.393339	-0.211534
H139	H	0.155571	1.719348	-0.587615
H140	H	-0.016483	1.461674	-0.587478
