data_functionalizedCrystal
_audit_creation_method	'MofGen! by Chris Wilmer'
_symmetry_space_group_name_H-M	'P1'
_symmetry_Int_Tables_number	1
_symmetry_cell_setting	triclinic
loop_
_symmetry_equiv_pos_as_xyz
  x,y,z
_cell_length_a	12.837932
_cell_length_b	13.930277
_cell_length_c	12.837942
_cell_angle_alpha	90.005532
_cell_angle_beta	85.170678
_cell_angle_gamma	90.007217
loop_
_atom_site_label
_atom_site_type_symbol
_atom_site_fract_x
_atom_site_fract_y
_atom_site_fract_z
O1	O	1.402341	0.079832	-0.272135
O2	O	1.099207	0.079834	-0.258690
O3	O	1.244053	0.079827	-0.113846
O4	O	1.257496	0.079839	-0.416980
O5	O	1.244031	-0.079835	-0.113868
O6	O	1.099186	-0.079828	-0.258712
O7	O	1.402320	-0.079829	-0.272158
Zn8	Zn	1.250750	-0.105178	-0.265439
Zn9	Zn	1.250778	0.105183	-0.265409
O10	O	1.257475	-0.079823	-0.417002
C11	C	1.060127	0.000003	-0.254160
C12	C	0.943712	0.000004	-0.240614
N13	N	1.250738	-0.248744	-0.265459
C14	C	0.782686	-0.000003	-0.127402
C15	C	0.892069	-0.000002	-0.140122
C16	C	0.885965	0.000005	-0.328393
C17	C	0.776582	0.000004	-0.315673
C18	C	0.724947	0.000002	-0.215174
C19	C	0.615562	0.000008	-0.202455
C20	C	0.609460	0.000008	-0.390725
C21	C	0.718843	0.000009	-0.403445
C22	C	1.320552	-0.701001	-0.335192
C23	C	1.181031	-0.700996	-0.195587
C24	C	1.181017	-0.600500	-0.195603
C25	C	1.250772	-0.550250	-0.265412
C26	C	1.320542	-0.600496	-0.335207
C27	C	1.111256	-0.550246	-0.125802
C28	C	1.111240	-0.449744	-0.125814
C29	C	1.180991	-0.399493	-0.195630
C30	C	1.250762	-0.449745	-0.265428
C31	C	1.320518	-0.399496	-0.335238
C32	C	1.390285	-0.449746	-0.405042
C33	C	1.390293	-0.550245	-0.405023
C34	C	1.180983	-0.298994	-0.195649
C35	C	1.320508	-0.298991	-0.335253
C36	C	1.441400	0.000004	-0.276688
C37	C	1.557815	0.000009	-0.290233
C38	C	1.239501	-0.000003	-0.074788
C39	C	1.225956	-0.000001	0.041627
N40	N	1.250796	0.248749	-0.265382
C41	C	1.262027	0.000010	-0.456060
C42	C	1.275571	0.000014	-0.572475
C43	C	1.388786	0.000018	0.266500
C44	C	1.376064	0.000020	0.375883
C45	C	1.187793	0.000010	0.369777
C46	C	1.200514	0.000009	0.260394
C47	C	1.301014	0.000011	0.208760
C48	C	1.313734	0.000002	0.099375
C49	C	1.125464	0.000000	0.093271
C50	C	1.112742	0.000002	0.202654
H51	H	0.740644	0.000005	-0.045571
H52	H	1.447096	-0.591168	-0.461851
C53	C	1.437260	0.082083	-0.020092
C54	C	1.424199	0.000009	0.042611
H55	H	1.505456	0.082084	-0.055138
H56	H	1.428390	0.137750	0.022458
H57	H	1.386801	0.082065	-0.070132
H58	H	1.474653	0.000030	0.092657
H59	H	1.433080	-0.055672	0.000058
H60	H	0.939077	-0.000006	-0.068648
H61	H	1.054430	-0.408839	-0.068976
H62	H	0.928026	-0.000002	-0.410215
C63	C	1.462012	-0.813989	-0.355715
C64	C	1.397242	-0.756230	-0.411915
H65	H	1.509361	-0.848080	-0.403083
H66	H	1.420470	-0.858297	-0.314151
H67	H	1.500144	-0.774758	-0.311807
H68	H	1.359104	-0.795463	-0.455817
H69	H	1.438788	-0.711917	-0.453496
C70	C	1.030539	0.082072	-0.033268
C71	C	1.028972	-0.000002	0.029805
H72	H	0.970967	0.082068	-0.072442
H73	H	1.092199	0.082064	-0.079676
H74	H	1.029496	0.137745	0.009544
H75	H	1.030023	-0.055676	-0.013007
H76	H	0.967296	-0.000004	0.076218
C77	C	1.039536	-0.185995	-0.175128
C78	C	1.104307	-0.243755	-0.118928
H79	H	0.992202	-0.151890	-0.127758
H80	H	1.001396	-0.225222	-0.219018
H81	H	1.081086	-0.141692	-0.216707
H82	H	1.062758	-0.288064	-0.077354
H83	H	1.142450	-0.204525	-0.075019
C84	C	1.023384	-0.082054	0.398252
C85	C	1.077327	0.000020	0.426537
H86	H	0.955184	-0.082040	0.433289
H87	H	1.059964	-0.137721	0.417442
H88	H	1.018408	-0.082052	0.324843
H89	H	1.082310	0.000015	0.499947
H90	H	1.040738	0.055702	0.407354
H91	H	0.760900	0.000007	-0.485269
C92	C	1.049249	-0.704298	-0.063858
C93	C	1.034581	-0.605474	-0.049069
H94	H	1.001904	-0.738392	-0.016487
H95	H	1.118946	-0.720792	-0.051561
H96	H	1.036827	-0.720732	-0.133554
H97	H	1.047011	-0.589039	0.020625
H98	H	0.964868	-0.588973	-0.061358
H99	H	0.562437	0.000012	-0.462196
H100	H	1.470616	0.000010	0.224459
C101	C	1.563438	0.000021	0.370926
C102	C	1.472546	0.000021	0.439352
H103	H	1.623003	0.000018	0.410112
H104	H	1.564488	0.055695	0.328144
H105	H	1.564471	-0.055660	0.328129
H106	H	1.471508	0.055707	0.482145
H107	H	1.471495	-0.055658	0.482152
H108	H	1.030918	0.000004	0.244710
H109	H	1.377307	-0.258084	-0.392106
H110	H	1.447084	-0.408820	-0.461877
C111	C	0.587105	0.082072	-0.038049
C112	C	0.558803	0.000003	-0.091988
H113	H	0.552070	0.082062	0.030152
H114	H	0.567925	0.137742	-0.074629
H115	H	0.660515	0.082061	-0.033074
H116	H	0.485393	0.000018	-0.096970
H117	H	0.577976	-0.055682	-0.055398
H118	H	1.124246	-0.741915	-0.138745
