data_functionalizedCrystal
_audit_creation_method	'MofGen! by Chris Wilmer'
_symmetry_space_group_name_H-M	'P1'
_symmetry_Int_Tables_number	1
_symmetry_cell_setting	triclinic
loop_
_symmetry_equiv_pos_as_xyz
  x,y,z
_cell_length_a	16.992694
_cell_length_b	19.188930
_cell_length_c	16.053802
_cell_angle_alpha	92.551696
_cell_angle_beta	87.249047
_cell_angle_gamma	86.906503
loop_
_atom_site_label
_atom_site_type_symbol
_atom_site_fract_x
_atom_site_fract_y
_atom_site_fract_z
O1	O	1.043197	0.145267	-0.069340
O2	O	0.814918	0.143642	-0.069364
O3	O	0.935644	0.043185	-0.069335
O4	O	0.922471	0.245724	-0.069369
O5	O	0.928999	0.048690	0.069522
O6	O	0.808273	0.149147	0.069493
O7	O	1.036552	0.150772	0.069517
Zn8	Zn	0.921357	0.150834	0.091552
Zn9	Zn	0.930113	0.143581	-0.091399
O10	O	0.915826	0.251229	0.069488
C11	C	0.782390	0.144306	0.000061
C12	C	0.695368	0.138072	0.000053
C13	C	0.644922	0.198212	0.000043
C14	C	0.563155	0.192351	0.000056
C15	C	0.531836	0.126351	0.000072
C16	C	0.582288	0.066208	0.000084
C17	C	0.664054	0.072069	0.000077
C18	C	0.288320	0.102059	0.000098
C19	C	0.206548	0.096203	0.000102
C20	C	0.187420	0.222347	0.000076
C21	C	0.269188	0.228202	0.000064
C22	C	0.319633	0.168059	0.000081
N23	N	0.448257	0.120359	0.000082
N24	N	0.403210	0.174051	0.000076
C25	C	0.931895	0.019902	0.000096
C26	C	0.930614	-0.057677	0.000103
C27	C	1.001452	-0.098456	0.000114
C28	C	1.000250	-0.171350	0.000101
C29	C	0.928204	-0.203463	0.000093
C30	C	0.857356	-0.162676	0.000076
C31	C	0.858561	-0.089783	0.000081
N32	N	0.870872	-0.312817	0.047342
N33	N	0.869732	-0.382063	0.047339
C34	C	0.924569	-0.423085	0.000075
N35	N	0.980600	-0.392247	-0.047175
N36	N	0.981742	-0.322995	-0.047168
C37	C	0.926889	-0.282503	0.000086
C38	C	0.994108	-0.542905	0.000071
C39	C	0.992903	-0.615801	0.000052
C40	C	0.850007	-0.607124	0.000036
C41	C	0.851215	-0.534230	0.000046
C42	C	0.923267	-0.502125	0.000068
C43	C	1.069080	0.150109	0.000090
C44	C	1.156102	0.156342	0.000093
C45	C	0.919575	0.274513	0.000055
C46	C	0.920856	0.352091	0.000043
N47	N	0.915388	0.155784	0.216410
N48	N	0.936088	0.138625	-0.216258
C49	C	0.966776	0.113057	0.260117
C50	C	0.962607	0.116526	0.347523
C51	C	0.907054	0.162727	0.391220
C52	C	0.855661	0.205456	0.347508
C53	C	0.859826	0.201983	0.260104
C54	C	0.888860	0.177881	0.652626
C55	C	0.884700	0.181353	0.740036
C56	C	0.991646	0.092421	0.740045
C57	C	0.995810	0.088955	0.652639
C58	C	0.944414	0.131681	0.608934
N59	N	0.902794	0.166276	0.480563
N60	N	0.948671	0.128128	0.519593
H61	H	0.181053	0.042455	0.000114
H62	H	0.791346	-0.633270	0.000025
H63	H	0.556782	0.012469	0.000109
C64	C	0.832987	0.224159	0.605132
C65	C	0.787501	0.182285	0.554985
C66	C	0.736017	0.224895	0.511225
H67	H	0.862627	0.253457	0.570957
H68	H	0.799264	0.252163	0.643647
H69	H	0.821219	0.154292	0.516475
H70	H	0.757843	0.152987	0.589140
H71	H	0.702294	0.252900	0.549739
H72	H	0.765664	0.254192	0.477054
H73	H	0.705143	0.196491	0.477200
H74	H	0.705127	0.023097	0.000084
C75	C	0.781560	-0.045624	0.000117
C76	C	0.718204	-0.089343	0.000123
C77	C	0.647257	-0.048687	0.000169
H78	H	0.781266	-0.018907	-0.048289
H79	H	0.776699	-0.015110	0.048563
H80	H	0.723063	-0.119845	-0.048318
H81	H	0.718472	-0.116060	0.048525
H82	H	0.642396	-0.018173	0.048615
H83	H	0.646972	-0.021972	-0.048237
H84	H	0.604262	-0.078344	0.000181
H85	H	1.060123	-0.072320	0.000129
H86	H	1.057937	-0.204558	0.000107
C87	C	1.072416	-0.508174	0.000034
C88	C	1.134200	-0.559494	0.000008
C89	C	1.206349	-0.527530	-0.000041
H90	H	1.073658	-0.478012	0.048446
H91	H	1.078211	-0.481849	-0.048406
H92	H	1.128407	-0.585807	0.048443
H93	H	1.132984	-0.589659	-0.048400
H94	H	1.212143	-0.501205	-0.048481
H95	H	1.207582	-0.497368	0.048371
H96	H	1.248278	-0.562345	-0.000067
H97	H	0.798696	-0.188827	0.000068
C98	C	0.774388	-0.489832	0.000000
C99	C	0.790864	-0.419124	-0.000015
C100	C	0.720109	-0.378205	-0.000073
H101	H	0.742460	-0.497996	0.048405
H102	H	0.747149	-0.501869	-0.048447
H103	H	0.818091	-0.407092	0.048427
H104	H	0.822781	-0.410938	-0.048416
H105	H	0.692869	-0.390241	-0.048520
H106	H	0.688185	-0.386375	0.048332
H107	H	0.731278	-0.330226	-0.000091
C108	C	1.018379	0.070024	0.394863
C109	C	1.006946	-0.000135	0.373606
C110	C	1.058321	-0.042994	0.417188
H111	H	1.008004	0.078610	0.453190
H112	H	1.071366	0.079950	0.380505
H113	H	0.953972	-0.010058	0.387969
H114	H	1.017327	-0.008743	0.315287
H115	H	1.111308	-0.033068	0.402830
H116	H	1.047942	-0.034402	0.475513
H117	H	1.050577	-0.090601	0.402766
H118	H	1.050591	-0.649002	0.000057
H119	H	1.012016	0.075438	0.224544
C120	C	1.056150	0.038720	0.605349
C121	C	1.100249	0.002029	0.662334
C122	C	1.155838	-0.044258	0.618801
H123	H	1.090394	0.064236	0.571237
H124	H	1.029695	0.006682	0.571283
H125	H	1.126703	0.034063	0.696385
H126	H	1.066027	-0.023502	0.696448
H127	H	1.129382	-0.076296	0.584736
H128	H	1.190076	-0.018736	0.584690
H129	H	1.185760	-0.069163	0.657458
H130	H	0.329383	0.053086	0.000112
C131	C	1.047308	0.045944	0.787544
C132	C	1.003304	0.002844	0.837723
C133	C	1.054552	-0.039991	0.881483
H134	H	1.078247	0.074167	0.821698
H135	H	1.080977	0.017889	0.749029
H136	H	0.969649	0.030896	0.876233
H137	H	0.972367	-0.025394	0.803590
H138	H	1.088221	-0.068046	0.842968
H139	H	1.085488	-0.011762	0.915632
H140	H	1.024703	-0.069244	0.915529
H141	H	0.839460	0.218978	0.775611
C142	C	0.804123	0.248494	0.212691
C143	C	0.815597	0.318652	0.233911
C144	C	0.764301	0.361517	0.190244
H145	H	0.751116	0.238626	0.226990
H146	H	0.814562	0.239854	0.154371
H147	H	0.805152	0.327288	0.292218
H148	H	0.868594	0.328541	0.219610
H149	H	0.774740	0.352877	0.131923
H150	H	0.711298	0.351643	0.204546
H151	H	0.772084	0.409124	0.204629
C152	C	0.678767	0.269935	0.000068
C153	C	0.617082	0.321348	0.000085
C154	C	0.648226	0.387430	0.000122
H155	H	0.712563	0.273024	-0.048345
H156	H	0.707933	0.276801	0.048507
H157	H	0.587929	0.314484	-0.048349
H158	H	0.583281	0.318281	0.048494
H159	H	0.677392	0.394295	0.048561
H160	H	0.682022	0.390511	-0.048292
H161	H	0.606378	0.422321	0.000141
C162	C	0.508302	0.257584	-0.000094
C163	C	0.464196	0.255059	-0.071519
C164	C	0.413652	0.315138	-0.071681
H165	H	0.538572	0.297779	-0.000154
H166	H	0.473652	0.259851	0.048306
H167	H	0.498842	0.252800	-0.119906
H168	H	0.433910	0.214877	-0.071475
H169	H	0.379002	0.317404	-0.023282
H170	H	0.443928	0.355328	-0.071739
H171	H	0.383715	0.313430	-0.120138
H172	H	0.294682	0.281946	0.000042
H173	H	0.146339	0.271312	0.000064
H174	H	0.810425	0.243072	0.383092
