data_functionalizedCrystal
_audit_creation_method	'MofGen! by Chris Wilmer'
_symmetry_space_group_name_H-M	'P1'
_symmetry_Int_Tables_number	1
_symmetry_cell_setting	triclinic
loop_
_symmetry_equiv_pos_as_xyz
  x,y,z
_cell_length_a	29.839131
_cell_length_b	29.839134
_cell_length_c	18.050582
_cell_angle_alpha	90.016118
_cell_angle_beta	89.974523
_cell_angle_gamma	89.980268
loop_
_atom_site_label
_atom_site_type_symbol
_atom_site_fract_x
_atom_site_fract_y
_atom_site_fract_z
Zn1	Zn	-0.179142	-0.686731	-0.419921
Zn2	Zn	-0.254264	-0.686660	-0.295725
Zn3	Zn	-0.179120	-0.611611	-0.295743
Zn4	Zn	-0.254217	-0.611562	-0.419871
O5	O	-0.216686	-0.649141	-0.357815
O6	O	-0.189136	-0.749589	-0.403460
O7	O	-0.244307	-0.676695	-0.191802
O8	O	-0.116256	-0.621626	-0.312244
O9	O	-0.244328	-0.749537	-0.312213
O10	O	-0.116272	-0.676817	-0.403477
O11	O	-0.189099	-0.621557	-0.191816
O12	O	-0.189054	-0.548737	-0.312195
O13	O	-0.244248	-0.621543	-0.523802
O14	O	-0.244227	-0.548701	-0.403391
O15	O	-0.189090	-0.676769	-0.523839
O16	O	-0.317125	-0.676648	-0.312164
O17	O	-0.317090	-0.621473	-0.403374
C18	C	-0.216633	-0.532418	-0.357790
C19	C	-0.216621	-0.482484	-0.357797
C20	C	-0.187987	-0.125920	-0.405401
C21	C	-0.187958	-0.313593	-0.405391
O22	O	-0.163567	-0.337877	-0.445874
N23	N	-0.216645	-0.337039	-0.357809
C24	C	-0.245343	-0.313563	-0.310230
O25	O	-0.269746	-0.337812	-0.269764
C26	C	-0.245374	-0.125891	-0.310244
C27	C	-0.216682	-0.102448	-0.357824
C28	C	-0.159297	-0.102477	-0.452978
C29	C	-0.159303	-0.055561	-0.452977
C30	C	-0.187998	-0.032089	-0.405400
C31	C	-0.216688	-0.055532	-0.357823
C32	C	-0.274074	-0.102417	-0.262669
C33	C	-0.274080	-0.055496	-0.262679
C34	C	-0.245388	-0.032052	-0.310258
C35	C	-0.245389	0.014855	-0.310245
N36	N	-0.216702	0.038301	-0.357827
C37	C	-0.188006	0.014829	-0.405404
C38	C	-0.245325	-0.412094	-0.310224
C39	C	-0.245317	-0.459012	-0.310220
C40	C	-0.187932	-0.459038	-0.405382
C41	C	-0.187938	-0.412120	-0.405382
C42	C	-0.216638	-0.388648	-0.357806
C43	C	-0.188020	0.113355	-0.405399
C44	C	-0.188027	0.160274	-0.405392
C45	C	-0.245414	0.160297	-0.310232
C46	C	-0.245405	0.113381	-0.310236
C47	C	-0.216707	0.089911	-0.357826
O48	O	-0.269770	0.039168	-0.269789
O49	O	-0.163614	0.039085	-0.445876
C50	C	-0.187981	-0.172835	-0.405402
C51	C	-0.216670	-0.196279	-0.357826
C52	C	-0.245366	-0.172807	-0.310248
C53	C	-0.216662	-0.243197	-0.357821
C54	C	-0.187967	-0.266669	-0.405398
C55	C	-0.159280	-0.243223	-0.452980
C56	C	-0.159286	-0.196307	-0.452979
C57	C	-0.274053	-0.196253	-0.262667
C58	C	-0.274044	-0.243168	-0.262671
C59	C	-0.245349	-0.266640	-0.310248
C60	C	-0.333408	-0.649060	-0.357778
C61	C	-0.383343	-0.649066	-0.357787
C62	C	-0.692992	-0.677922	-0.310391
C63	C	-0.880665	-0.677978	-0.310420
O64	O	-0.904934	-0.702448	-0.270094
N65	N	-0.904128	-0.649234	-0.357871
C66	C	-0.880670	-0.620476	-0.405321
O67	O	-0.904933	-0.596033	-0.445687
C68	C	-0.692998	-0.620424	-0.405295
C69	C	-0.669537	-0.649166	-0.357836
C70	C	-0.669531	-0.706663	-0.262937
C71	C	-0.622615	-0.706647	-0.262927
C72	C	-0.599161	-0.677891	-0.310372
C73	C	-0.622622	-0.649150	-0.357827
C74	C	-0.669541	-0.591669	-0.452749
C75	C	-0.622620	-0.591659	-0.452739
C76	C	-0.599159	-0.620401	-0.405280
C77	C	-0.552252	-0.620378	-0.405262
N78	N	-0.528788	-0.649122	-0.357812
C79	C	-0.552243	-0.677878	-0.310367
C80	C	-0.979201	-0.620506	-0.405330
C81	C	-1.026119	-0.620518	-0.405336
C82	C	-1.026110	-0.678020	-0.310436
C83	C	-0.979191	-0.678005	-0.310427
C84	C	-0.955737	-0.649249	-0.357879
C85	C	-0.453717	-0.677842	-0.310350
C86	C	-0.406797	-0.677823	-0.310342
C87	C	-0.406810	-0.620322	-0.405244
C88	C	-0.453726	-0.620340	-0.405250
C89	C	-0.477178	-0.649104	-0.357800
O90	O	-0.527953	-0.595924	-0.445573
O91	O	-0.527971	-0.702325	-0.270019
C92	C	-0.739907	-0.677938	-0.310401
C93	C	-0.763368	-0.649198	-0.357856
C94	C	-0.739913	-0.620441	-0.405300
C95	C	-0.810286	-0.649210	-0.357861
C96	C	-0.833740	-0.677967	-0.310416
C97	C	-0.810277	-0.706710	-0.262966
C98	C	-0.763362	-0.706695	-0.262956
C99	C	-0.763377	-0.591698	-0.452751
C100	C	-0.810292	-0.591716	-0.452756
C101	C	-0.833747	-0.620472	-0.405311
C102	C	-0.099507	-0.649235	-0.357868
C103	C	-0.049573	-0.649275	-0.357891
C104	C	-0.216666	-0.649159	-0.551520
C105	C	-0.216657	-0.649166	-0.634066
C106	C	-0.216729	0.233681	-0.357831
C107	C	-0.216722	0.183746	-0.357814
C108	C	-0.246611	-0.619157	-0.833497
C109	C	-0.257608	-0.660141	-0.882889
C110	C	-0.216623	-0.649188	-0.785197
C111	C	-0.205614	-0.608226	-0.882887
C112	C	-0.216591	-0.649206	-0.931182
C113	C	-0.227642	-0.690194	-0.833501
C114	C	-0.175628	-0.638251	-0.833495
C115	C	-0.186610	-0.679264	-0.882864
C116	C	-0.216643	-0.649177	-0.701098
C117	C	-0.216571	-0.649221	-1.015279
C118	C	-0.216673	-0.649149	-0.164863
C119	C	-0.216555	-0.649229	-0.082317
H120	H	-0.135930	-0.121582	-0.491724
C121	C	-0.276893	-0.386282	-0.257874
N122	N	-0.300668	-0.366842	-0.218439
C123	C	-0.156377	-0.386336	-0.457728
N124	N	-0.132606	-0.366919	-0.497159
C125	C	-0.193050	-0.561417	-0.912190
N126	N	-0.183589	-0.526160	-0.934257
C127	C	-0.836086	-0.738342	-0.210775
N128	N	-0.855528	-0.762167	-0.171470
H129	H	-0.472829	-0.596937	-0.443897
C130	C	-0.156369	-0.484866	-0.457721
N131	N	-0.132600	-0.504322	-0.497146
C132	C	-0.380993	-0.709441	-0.258128
N133	N	-0.361559	-0.733254	-0.218800
H134	H	-0.960108	-0.597088	-0.443973
C135	C	-0.695337	-0.560050	-0.504961
N136	N	-0.714767	-0.536234	-0.544291
H137	H	-0.268676	-0.478096	-0.271468
H138	H	-0.297439	-0.121496	-0.223925
H139	H	-0.268775	0.179416	-0.271493
C140	C	-0.695323	-0.738298	-0.210735
N141	N	-0.714747	-0.762124	-0.171408
C142	C	-0.128825	-0.625722	-0.804156
N143	N	-0.093573	-0.616280	-0.782055
H144	H	-0.297453	-0.036388	-0.223937
C145	C	-0.836094	-0.560094	-0.504967
N146	N	-0.855526	-0.536279	-0.544297
H147	H	-0.387706	-0.596908	-0.443871
H148	H	-0.744284	-0.568281	-0.491387
H149	H	-0.272004	-0.593784	-0.811821
C150	C	-1.051918	-0.709655	-0.258250
N151	N	-1.071360	-0.733484	-0.218950
C152	C	-0.127724	-0.170526	-0.505325
N153	N	-0.103952	-0.151110	-0.544757
C154	C	-0.156464	0.186059	-0.457737
N155	N	-0.132692	0.205479	-0.497165
C156	C	-0.304425	-0.672652	-0.912204
N157	N	-0.339688	-0.682072	-0.934282
C158	C	-0.305610	-0.268950	-0.210325
N159	N	-0.329387	-0.288368	-0.170903
C160	C	-0.240261	-0.737016	-0.804320
N161	N	-0.249768	-0.772281	-0.782340
H162	H	-0.161236	-0.704698	-0.904404
H163	H	-0.268765	0.094292	-0.271487
H164	H	-0.164651	0.094251	-0.444150
H165	H	-0.135941	-0.036478	-0.491724
H166	H	-0.135913	-0.262342	-0.491716
C167	C	-0.479508	-0.709481	-0.258148
N168	N	-0.498933	-0.733309	-0.218825
C169	C	-0.305617	-0.170440	-0.210317
N170	N	-0.329390	-0.150999	-0.170880
H171	H	-0.603516	-0.730053	-0.224284
C172	C	-0.953389	-0.709625	-0.258221
N173	N	-0.933956	-0.733443	-0.218899
C174	C	-1.051920	-0.588895	-0.457537
N175	N	-1.071352	-0.565077	-0.496860
H176	H	-0.603526	-0.568243	-0.491383
H177	H	-0.744263	-0.730099	-0.224311
