data_functionalizedCrystal
_audit_creation_method	'MofGen! by Chris Wilmer'
_symmetry_space_group_name_H-M	'P1'
_symmetry_Int_Tables_number	1
_symmetry_cell_setting	triclinic
loop_
_symmetry_equiv_pos_as_xyz
  x,y,z
_cell_length_a	10.968094
_cell_length_b	14.586319
_cell_length_c	16.109301
_cell_angle_alpha	89.994230
_cell_angle_beta	95.900414
_cell_angle_gamma	77.876684
loop_
_atom_site_label
_atom_site_type_symbol
_atom_site_fract_x
_atom_site_fract_y
_atom_site_fract_z
O1	O	1.655576	-0.185293	-0.116581
O2	O	1.292290	-0.127902	-0.127749
O3	O	1.483913	-0.158183	-0.001193
O4	O	1.463953	-0.155012	-0.243137
O5	O	1.483897	-0.310662	-0.001189
O6	O	1.292275	-0.280380	-0.127746
O7	O	1.655560	-0.337772	-0.116578
Cu8	Cu	1.473916	-0.322998	-0.122162
Cu9	Cu	1.473934	-0.142675	-0.122165
O10	O	1.463938	-0.307490	-0.243134
C11	C	1.245795	-0.196797	-0.126936
C12	C	1.107279	-0.174915	-0.124508
N13	N	1.473912	-0.449829	-0.122158
C14	C	0.902345	-0.221525	-0.120906
C15	C	1.045508	-0.244150	-0.123421
C16	C	1.558796	-0.794237	-0.066138
C17	C	1.558793	-0.698256	-0.066138
C18	C	1.389060	-0.671444	-0.178188
C19	C	1.389070	-0.767425	-0.178191
C20	C	1.473937	-0.828819	-0.122161
C21	C	1.473924	-0.636856	-0.122159
C22	C	1.473920	-0.532788	-0.122160
C23	C	1.473943	-0.932894	-0.122161
C24	C	1.702055	-0.268874	-0.117391
C25	C	1.840572	-0.290751	-0.119819
C26	C	1.483097	-0.234295	0.029789
C27	C	1.480673	-0.233914	0.122098
N28	N	1.473948	-0.015845	-0.122162
C29	C	1.464754	-0.231376	-0.274115
C30	C	1.467178	-0.231752	-0.366425
C31	C	1.588741	-0.250972	0.343736
C32	C	1.586454	-0.250603	0.430470
C33	C	1.359100	-0.214689	0.411930
C34	C	1.361389	-0.215052	0.325198
C35	C	1.476213	-0.233198	0.291104
C36	C	1.471637	-0.232467	0.464570
C37	C	1.469156	-0.232067	0.558610
C38	C	1.478695	-0.233597	0.197057
H39	H	0.849246	-0.145508	-0.119969
C40	C	1.232799	-0.194740	0.449436
C41	C	1.109018	-0.175187	0.391539
C42	C	0.982713	-0.155241	0.429042
C43	C	0.980189	-0.154848	0.524444
C44	C	1.103973	-0.174401	0.582347
C45	C	1.230278	-0.194347	0.544843
H46	H	1.110883	-0.175478	0.320912
H47	H	0.891080	-0.140767	0.386178
H48	H	0.886690	-0.140082	0.552206
H49	H	1.102109	-0.174110	0.652974
H50	H	1.321912	-0.208822	0.587708
H51	H	1.627901	-0.844223	-0.020516
H52	H	1.319967	-0.795582	-0.223816
C53	C	1.237599	-0.195502	0.267295
C54	C	1.143505	-0.101461	0.271564
C55	C	1.019721	-0.081909	0.213662
C56	C	0.990031	-0.156397	0.151491
C57	C	1.084127	-0.250444	0.147219
C58	C	1.207911	-0.269996	0.205121
H59	H	1.165481	-0.046315	0.317589
H60	H	0.950065	-0.012289	0.216824
H61	H	0.898399	-0.141923	0.108628
H62	H	1.062151	-0.305590	0.101194
H63	H	1.277567	-0.339617	0.201959
C64	C	0.912293	-0.393449	-0.121077
C65	C	0.908707	-0.461478	-0.048695
C66	C	0.980425	-0.564179	-0.049953
C67	C	1.055729	-0.598852	-0.123594
C68	C	1.059319	-0.530822	-0.195982
C69	C	0.987600	-0.428121	-0.194724
H70	H	0.852960	-0.435812	0.005823
H71	H	0.977768	-0.614539	0.003633
H72	H	1.108819	-0.674877	-0.124525
H73	H	1.115066	-0.556488	-0.250500
H74	H	0.990258	-0.377761	-0.248310
H75	H	1.627894	-0.670103	-0.020520
C76	C	1.715044	-0.270923	0.306231
C77	C	1.808511	-0.364862	0.325815
C78	C	1.934817	-0.384810	0.288312
C79	C	1.967655	-0.310819	0.231226
C80	C	1.874186	-0.216874	0.211639
C81	C	1.747880	-0.196926	0.249142
H82	H	1.784204	-0.419639	0.368076
H83	H	2.004009	-0.454355	0.302812
H84	H	2.061155	-0.325586	0.203464
H85	H	1.898493	-0.162096	0.169378
H86	H	1.678688	-0.127381	0.234642
C87	C	1.117225	-0.346854	-0.124679
C88	C	1.192529	-0.381527	-0.198320
C89	C	1.264247	-0.484228	-0.199578
C90	C	1.260661	-0.552257	-0.127196
C91	C	1.185354	-0.517585	-0.053550
C92	C	1.113636	-0.414884	-0.052292
H93	H	1.195187	-0.331167	-0.251907
H94	H	1.319995	-0.509894	-0.254097
H95	H	1.313751	-0.628282	-0.128128
H96	H	1.182697	-0.567945	0.000037
H97	H	1.057889	-0.389218	0.002227
H98	H	1.054184	-0.098892	-0.123577
C99	C	1.710238	-0.270157	0.488367
C100	C	1.836534	-0.290114	0.450860
C101	C	1.960323	-0.309667	0.508757
C102	C	1.957816	-0.309262	0.604160
C103	C	1.831515	-0.289304	0.641671
C104	C	1.707726	-0.269751	0.583774
H105	H	1.838394	-0.290414	0.380233
H106	H	2.053819	-0.324441	0.480988
H107	H	2.049453	-0.323737	0.647018
H108	H	1.829656	-0.289004	0.712298
H109	H	1.614230	-0.254977	0.611543
H110	H	1.319962	-0.621447	-0.223805
