data_functionalizedCrystal
_audit_creation_method	'MofGen! by Chris Wilmer'
_symmetry_space_group_name_H-M	'P1'
_symmetry_Int_Tables_number	1
_symmetry_cell_setting	triclinic
loop_
_symmetry_equiv_pos_as_xyz
  x,y,z
_cell_length_a	16.120530
_cell_length_b	16.120444
_cell_length_c	10.685986
_cell_angle_alpha	88.261534
_cell_angle_beta	91.231987
_cell_angle_gamma	90.168401
loop_
_atom_site_label
_atom_site_type_symbol
_atom_site_fract_x
_atom_site_fract_y
_atom_site_fract_z
Zn1	Zn	1.214549	-0.351248	-0.833525
Zn2	Zn	1.714549	0.148752	-0.333525
Zn3	Zn	1.216937	-0.500918	-0.634174
Zn4	Zn	1.716937	-0.000918	-0.134174
Zn5	Zn	1.086048	-0.355949	-0.613045
Zn6	Zn	1.586048	0.144051	-0.113045
Zn7	Zn	1.068454	-0.483263	-0.832382
Zn8	Zn	1.568454	0.016737	-0.332382
O9	O	1.146497	-0.422845	-0.728282
O10	O	1.646497	0.077155	-0.228282
O11	O	1.330785	-0.376524	-0.816402
O12	O	1.830785	0.123476	-0.316402
O13	O	1.207936	-0.491044	-0.456150
O14	O	1.707936	0.008956	0.043850
O15	O	1.109457	-0.239407	-0.633928
O16	O	1.609457	0.260593	-0.133928
O17	O	1.332539	-0.486485	-0.669940
O18	O	1.832539	0.013515	-0.169940
O19	O	1.203867	-0.235954	-0.795914
O20	O	1.703867	0.264046	-0.295914
O21	O	1.111773	-0.384536	-0.440626
O22	O	1.611773	0.115464	0.059374
O23	O	0.967795	-0.367416	-0.632820
O24	O	1.467795	0.132584	-0.132820
O25	O	1.079471	-0.456395	-1.007755
O26	O	1.579471	0.043605	-0.507755
O27	O	0.954869	-0.460953	-0.793965
O28	O	1.454869	0.039047	-0.293965
O29	O	1.186807	-0.359404	-1.008595
O30	O	1.686807	0.140596	-0.508595
O31	O	1.190876	-0.614494	-0.668831
O32	O	1.690876	-0.114494	-0.168831
O33	O	1.081786	-0.601523	-0.814453
O34	O	1.581786	-0.101523	-0.314453
C35	C	0.931275	-0.412779	-0.710976
C36	C	1.431275	0.087221	-0.210976
C37	C	0.839200	-0.408492	-0.703604
C38	C	1.339200	0.091508	-0.203604
C39	C	0.670617	-0.400644	-0.690154
C40	C	1.170617	0.099356	-0.190154
C41	C	0.623209	-0.445101	-0.766505
C42	C	1.123209	0.054899	-0.266505
C43	C	0.529404	-0.440735	-0.759021
C44	C	1.029404	0.059265	-0.259021
C45	C	0.764431	-0.405010	-0.697636
C46	C	1.264431	0.094990	-0.197636
C47	C	1.134702	-0.638065	-0.743840
C48	C	1.634702	-0.138065	-0.243840
C49	C	1.129730	-0.730138	-0.750544
C50	C	1.629730	-0.230138	-0.250544
C51	C	1.172479	-0.946132	-0.693791
C52	C	1.672479	-0.446132	-0.193791
C53	C	1.120668	-0.898713	-0.762798
C54	C	1.620668	-0.398713	-0.262798
C55	C	1.125712	-0.804909	-0.755978
C56	C	1.625712	-0.304909	-0.255978
C57	C	1.167436	-1.039944	-0.700609
C58	C	1.667436	-0.539944	-0.200609
C59	C	1.362559	-0.432950	-0.745655
C60	C	1.862559	0.067050	-0.245655
C61	C	1.454632	-0.437256	-0.753059
C62	C	1.954632	0.062744	-0.253059
C63	C	1.130910	-0.405406	-1.054879
C64	C	1.630910	0.094594	-0.554879
C65	C	1.124268	-0.397974	-1.194055
C66	C	1.624268	0.102026	-0.694055
C67	C	1.158358	-0.206784	-0.712692
C68	C	1.658358	0.293216	-0.212692
C69	C	1.163413	-0.114711	-0.706048
C70	C	1.663413	0.385289	-0.206048
C71	C	1.162074	-0.440158	-0.402955
C72	C	1.662074	0.059842	0.097045
C73	C	1.168889	-0.447363	-0.263775
C74	C	1.668889	0.052637	0.236225
H75	H	0.653073	-0.486440	-0.837493
H76	H	1.153073	0.013560	-0.337493
H77	H	1.080989	-0.350006	-1.240838
H78	H	1.580989	0.149994	-0.740838
H79	H	1.220620	-0.916284	-0.629593
H80	H	1.720620	-0.416284	-0.129593
H81	H	0.640755	-0.359308	-0.619173
H82	H	1.140755	0.140692	-0.119173
N83	N	1.223198	-0.507528	-1.205071
N84	N	1.723198	-0.007528	-0.705071
N85	N	1.228705	-0.513675	-1.088303
N86	N	1.728705	-0.013675	-0.588303
H87	H	1.267062	-0.556164	-1.046841
H88	H	1.767062	-0.056164	-0.546841
H89	H	1.072522	-0.928564	-0.826999
H90	H	1.572522	-0.428564	-0.326999
