data_functionalizedCrystal
_audit_creation_method	'MofGen! by Chris Wilmer'
_symmetry_space_group_name_H-M	'P1'
_symmetry_Int_Tables_number	1
_symmetry_cell_setting	triclinic
loop_
_symmetry_equiv_pos_as_xyz
  x,y,z
_cell_length_a	15.995350
_cell_length_b	19.188930
_cell_length_c	14.472310
_cell_angle_alpha	89.993787
_cell_angle_beta	89.990621
_cell_angle_gamma	83.318578
loop_
_atom_site_label
_atom_site_type_symbol
_atom_site_fract_x
_atom_site_fract_y
_atom_site_fract_z
O1	O	1.110667	0.089991	-0.076773
O2	O	1.610667	0.589991	0.423227
O3	O	0.866851	0.101105	-0.076794
O4	O	1.366851	0.601105	0.423206
O5	O	0.995795	-0.006090	-0.076765
O6	O	1.495795	0.493910	0.423235
O7	O	0.981723	0.197186	-0.076802
O8	O	1.481723	0.697186	0.423198
O9	O	0.995762	-0.006083	0.076917
O10	O	1.495762	0.493917	0.576917
O11	O	0.866818	0.101111	0.076888
O12	O	1.366818	0.601111	0.576888
O13	O	1.110634	0.089998	0.076909
O14	O	1.610634	0.589998	0.576909
Cu15	Cu	0.988723	0.095555	0.090931
Cu16	Cu	1.488723	0.595555	0.590931
Cu17	Cu	0.988762	0.095547	-0.090816
Cu18	Cu	1.488762	0.595547	0.409184
O19	O	0.981690	0.197192	0.076880
O20	O	1.481690	0.697192	0.576880
C21	C	0.835641	0.100648	0.000045
C22	C	1.335641	0.600648	0.500045
C23	C	0.742696	0.099271	0.000038
C24	C	1.242696	0.599271	0.500038
C25	C	0.404967	0.094324	0.000058
C26	C	0.904967	0.594324	0.500058
C27	C	0.452680	0.017982	0.000415
C28	C	0.952680	0.517982	0.500415
C29	C	0.549365	0.019360	0.000062
C30	C	1.049365	0.519360	0.500062
C31	C	0.572518	0.096778	0.000049
C32	C	1.072518	0.596778	0.500049
C33	C	0.531312	0.134429	-0.087714
C34	C	1.031312	0.634429	0.412286
C35	C	0.434683	0.132511	-0.087781
C36	C	0.934683	0.632511	0.412219
C37	C	0.434301	0.134095	0.086984
C38	C	0.934301	0.634095	0.586984
C39	C	0.531246	0.134077	0.088137
C40	C	1.031246	0.634077	0.588137
C41	C	0.667211	0.098169	0.000040
C42	C	1.167211	0.598169	0.500040
C43	C	0.310274	0.092936	0.000060
C44	C	0.810274	0.592936	0.500060
C45	C	0.995323	-0.032099	0.000079
C46	C	1.495323	0.467901	0.500079
C47	C	0.993955	-0.109607	0.000087
C48	C	1.493955	0.390393	0.500087
C49	C	1.069615	-0.154338	0.000097
C50	C	1.569615	0.345662	0.500097
C51	C	1.068330	-0.227165	0.000082
C52	C	1.568330	0.272835	0.500082
C53	C	0.991380	-0.255258	0.000075
C54	C	1.491380	0.244742	0.500075
C55	C	0.915710	-0.210517	0.000059
C56	C	1.415710	0.289483	0.500059
C57	C	0.916997	-0.137691	0.000065
C58	C	1.416997	0.362309	0.500065
N59	N	0.932550	-0.363410	0.052371
N60	N	1.432550	0.136590	0.552371
N61	N	0.931332	-0.432592	0.052368
N62	N	1.431332	0.067408	0.552368
C63	C	0.987497	-0.474676	0.000056
C64	C	1.487497	0.025324	0.500056
N65	N	1.044938	-0.444967	-0.052240
N66	N	1.544938	0.055033	0.447760
N67	N	1.046158	-0.375779	-0.052233
N68	N	1.546158	0.124221	0.447767
C69	C	0.989976	-0.334224	0.000069
C70	C	1.489976	0.165776	0.500069
C71	C	1.061769	-0.598375	0.000050
C72	C	1.561769	-0.098375	0.500050
C73	C	1.060480	-0.671204	0.000029
C74	C	1.560480	-0.171204	0.500029
C75	C	0.907859	-0.654553	0.000015
C76	C	1.407859	-0.154553	0.500015
C77	C	0.909149	-0.581727	0.000027
C78	C	1.409149	-0.081727	0.500027
C79	C	0.986106	-0.553643	0.000048
C80	C	1.486106	-0.053643	0.500048
C81	C	1.141843	0.090454	0.000068
C82	C	1.641843	0.590454	0.500068
C83	C	1.234789	0.091831	0.000069
C84	C	1.734789	0.591831	0.500069
C85	C	0.982162	0.223201	0.000034
C86	C	1.482162	0.723201	0.500034
C87	C	0.983530	0.300709	0.000020
C88	C	1.483530	0.800709	0.500020
N89	N	0.988701	0.095560	0.218762
N90	N	1.488701	0.595560	0.718762
N91	N	0.988790	0.095537	-0.218647
N92	N	1.488790	0.595537	0.281353
C93	C	0.988761	0.095545	0.592853
C94	C	1.488761	0.595545	1.092853
C95	C	0.919535	0.152710	0.553672
C96	C	1.419535	0.652710	1.053672
C97	C	0.919694	0.152918	0.446584
C98	C	1.419694	0.652918	0.946584
C99	C	0.988731	0.095552	0.407262
C100	C	1.488731	0.595552	0.907262
C101	C	1.076037	0.111464	0.446103
C102	C	1.576037	0.611464	0.946103
C103	C	1.075648	0.111870	0.553224
C104	C	1.575648	0.611870	1.053224
C105	C	0.971460	0.022298	0.553394
C106	C	1.471460	0.522298	1.053394
C107	C	0.969454	0.022787	0.446266
C108	C	1.469454	0.522787	0.946266
C109	C	0.988719	0.095555	0.302374
C110	C	1.488719	0.595555	0.802374
C111	C	0.988778	0.095543	0.697741
C112	C	1.488778	0.595543	1.197741
H113	H	0.402230	0.188560	-0.091773
H114	H	0.902230	0.688560	0.408227
H115	H	0.845205	-0.677425	0.000005
H116	H	1.345205	-0.177425	0.500005
H117	H	0.847538	-0.545305	0.000023
H118	H	1.347538	-0.045305	0.500023
C119	C	1.143711	-0.720409	0.000042
C120	C	1.643711	-0.220409	0.500042
H121	H	1.189725	-0.693249	0.000065
H122	H	1.689725	-0.193249	0.500065
H123	H	1.146400	-0.749158	-0.053552
H124	H	1.646400	-0.249158	0.446448
H125	H	1.146362	-0.749169	0.053639
H126	H	1.646362	-0.249169	0.553639
C127	C	0.832011	0.140125	0.411104
C128	C	1.332011	0.640125	0.911104
H129	H	0.795971	0.134756	0.462161
H130	H	1.295971	0.634756	0.962161
H131	H	0.836756	0.098755	0.374518
H132	H	1.336756	0.598755	0.874518
H133	H	0.809200	0.178986	0.374760
H134	H	1.309200	0.678986	0.874760
H135	H	0.545229	0.191306	-0.090987
H136	H	1.045229	0.691306	0.409013
C137	C	0.569781	0.099094	-0.175939
C138	C	1.069781	0.599094	0.324061
H139	H	0.610942	0.061402	-0.159477
H140	H	1.110942	0.561402	0.340523
H141	H	0.595401	0.132439	-0.211452
H142	H	1.095401	0.632439	0.288548
H143	H	0.526727	0.081626	-0.211309
H144	H	1.026727	0.581626	0.288691
H145	H	0.853057	-0.233394	0.000052
H146	H	1.353057	0.266606	0.500052
H147	H	0.546404	0.190533	0.093428
H148	H	1.046404	0.690533	0.593428
C149	C	0.427785	-0.023245	0.085432
C150	C	0.927785	0.476755	0.585432
H151	H	0.457265	-0.069172	0.084355
H152	H	0.957265	0.430828	0.584355
H153	H	0.368917	-0.026165	0.084265
H154	H	0.868917	0.473835	0.584265
H155	H	0.441828	0.000164	0.140131
H156	H	0.941828	0.500164	0.640131
C157	C	0.831569	0.140124	0.588513
C158	C	1.331569	0.640124	1.088513
H159	H	0.836268	0.099898	0.627272
H160	H	1.336268	0.599898	1.127272
H161	H	0.796509	0.132827	0.537276
H162	H	1.296509	0.632827	1.037276
H163	H	0.807663	0.179885	0.622509
H164	H	1.307663	0.679885	1.122509
C165	C	0.833768	-0.088485	0.000062
C166	C	1.333768	0.411515	0.500062
H167	H	0.787753	-0.115643	0.000060
H168	H	1.287753	0.384357	0.500060
H169	H	0.831109	-0.059720	-0.053525
H170	H	1.331109	0.440280	0.446475
H171	H	0.831088	-0.059740	0.053667
H172	H	1.331088	0.440260	0.553667
H173	H	1.128770	0.070935	0.420631
H174	H	1.628770	0.570935	0.920631
H175	H	0.930402	0.206759	0.580572
H176	H	1.430402	0.706759	1.080572
H177	H	0.930714	0.207273	0.420941
H178	H	1.430714	0.707273	0.920941
H179	H	0.909193	0.006998	0.580460
H180	H	1.409193	0.506998	1.080460
C181	C	1.096287	0.184034	0.586958
C182	C	1.596287	0.684034	1.086958
H183	H	1.104826	0.212827	0.535195
H184	H	1.604826	0.712827	1.035195
H185	H	1.145936	0.178151	0.623501
H186	H	1.645936	0.678151	1.123501
H187	H	1.050817	0.205652	0.622976
H188	H	1.550817	0.705652	1.122976
C189	C	1.147303	0.057763	0.588242
C190	C	1.647303	0.557763	1.088242
H191	H	1.176526	0.035637	0.536997
H192	H	1.676526	0.535637	1.036997
H193	H	1.124406	0.023454	0.624728
H194	H	1.624406	0.523454	1.124728
H195	H	1.185194	0.080827	0.624590
H196	H	1.685194	0.580827	1.124590
C197	C	0.406666	0.100386	0.176850
C198	C	0.906666	0.600386	0.676850
H199	H	0.376978	0.061735	0.162194
H200	H	0.876978	0.561735	0.662194
H201	H	0.371064	0.134077	0.211107
H202	H	0.871064	0.634077	0.711107
H203	H	0.454913	0.084530	0.212681
H204	H	0.954913	0.584530	0.712681
H205	H	1.021946	-0.020242	0.578732
H206	H	1.521946	0.479758	1.078732
C207	C	0.568257	0.096948	0.175850
C208	C	1.068257	0.596948	0.675850
H209	H	0.608697	0.058875	0.158868
H210	H	1.108697	0.558875	0.658868
H211	H	0.524419	0.079799	0.210319
H212	H	1.024419	0.579799	0.710319
H213	H	0.594511	0.129265	0.212469
H214	H	1.094511	0.629265	0.712469
H215	H	1.091696	0.164273	0.419257
H216	H	1.591696	0.664273	0.919257
H217	H	0.905232	0.010711	0.420881
H218	H	1.405232	0.510711	0.920881
H219	H	1.016620	-0.021746	0.419504
H220	H	1.516620	0.478254	0.919504
H221	H	0.433211	-0.012395	-0.062166
H222	H	0.933211	0.487605	0.437834
C223	C	0.587908	-0.020627	0.085042
C224	C	1.087908	0.479373	0.585042
H225	H	0.647185	-0.019836	0.084940
H226	H	1.147185	0.480164	0.584940
H227	H	0.575588	-0.067846	0.082874
H228	H	1.075588	0.432154	0.582874
H229	H	0.564736	0.001139	0.139743
H230	H	1.064736	0.501139	0.639743
C231	C	0.587170	-0.020889	-0.085065
C232	C	1.087170	0.479111	0.414935
H233	H	0.543427	-0.038141	-0.119571
H234	H	1.043427	0.461859	0.380429
H235	H	0.626278	-0.059097	-0.065494
H236	H	1.126278	0.440903	0.434506
H237	H	0.615115	0.009748	-0.122663
H238	H	1.115115	0.509748	0.377337
C239	C	0.391118	0.210132	0.087783
C240	C	0.891118	0.710132	0.587783
H241	H	0.409097	0.233898	0.140460
H242	H	0.909097	0.733898	0.640460
H243	H	0.331803	0.209868	0.090040
H244	H	0.831803	0.709868	0.590040
H245	H	0.405826	0.233541	0.033335
H246	H	0.905826	0.733541	0.533335
C247	C	0.410101	0.095408	-0.176388
C248	C	0.910101	0.595408	0.323612
H249	H	0.459148	0.081643	-0.212002
H250	H	0.959148	0.581643	0.287998
H251	H	0.372020	0.126599	-0.211479
H252	H	0.872020	0.626599	0.288521
H253	H	0.383984	0.055077	-0.160344
H254	H	0.883984	0.555077	0.339656
H255	H	1.132280	-0.131477	0.000112
H256	H	1.632280	0.368523	0.500112
H257	H	1.124432	-0.575508	0.000063
H258	H	1.624432	-0.075508	0.500063
C259	C	1.151559	-0.276378	0.000101
C260	C	1.651559	0.223622	0.500101
H261	H	1.197575	-0.249222	0.000120
H262	H	1.697575	0.250778	0.500120
H263	H	1.154246	-0.305132	-0.053490
H264	H	1.654246	0.194868	0.446510
H265	H	1.154207	-0.305135	0.053701
H266	H	1.654207	0.194865	0.553701
