data_functionalizedCrystal
_audit_creation_method	'MofGen! by Chris Wilmer'
_symmetry_space_group_name_H-M	'P1'
_symmetry_Int_Tables_number	1
_symmetry_cell_setting	triclinic
loop_
_symmetry_equiv_pos_as_xyz
  x,y,z
_cell_length_a	17.038272
_cell_length_b	14.971486
_cell_length_c	13.448316
_cell_angle_alpha	90.006811
_cell_angle_beta	89.995356
_cell_angle_gamma	92.637158
loop_
_atom_site_label
_atom_site_type_symbol
_atom_site_fract_x
_atom_site_fract_y
_atom_site_fract_z
O1	O	1.037595	-0.194251	-0.082653
O2	O	1.370929	0.139083	0.250680
O3	O	1.704262	0.472416	0.584013
O4	O	0.809961	-0.191166	-0.082664
O5	O	1.143294	0.142167	0.250669
O6	O	1.476628	0.475501	0.584003
O7	O	0.929879	-0.062965	-0.082651
O8	O	1.263213	0.270368	0.250682
O9	O	1.596546	0.603702	0.584015
O10	O	0.917677	-0.322452	-0.082666
O11	O	1.251010	0.010882	0.250667
O12	O	1.584344	0.344215	0.584001
O13	O	0.929864	-0.062955	0.082733
O14	O	1.263198	0.270378	0.416066
O15	O	1.596531	0.603711	0.749399
O16	O	0.809946	-0.191157	0.082720
O17	O	1.143279	0.142177	0.416053
O18	O	1.476613	0.475510	0.749387
O19	O	1.037580	-0.194241	0.082731
O20	O	1.370914	0.139092	0.416064
O21	O	1.704247	0.472426	0.749397
Cu22	Cu	0.923762	-0.192698	0.097826
Cu23	Cu	1.257095	0.140635	0.431159
Cu24	Cu	1.590428	0.473969	0.764493
Cu25	Cu	0.923779	-0.192709	-0.097759
Cu26	Cu	1.257113	0.140624	0.235574
Cu27	Cu	1.590446	0.473957	0.568907
O28	O	0.917662	-0.322442	0.082718
O29	O	1.250995	0.010891	0.416051
O30	O	1.584329	0.344225	0.749385
C31	C	0.780822	-0.188356	0.000027
C32	C	1.114155	0.144977	0.333360
C33	C	1.447489	0.478311	0.666693
C34	C	0.694019	-0.179986	0.000023
C35	C	1.027353	0.153347	0.333356
C36	C	1.360686	0.486680	0.666689
C37	C	1.066719	-0.197051	0.000038
C38	C	1.400053	0.136282	0.333371
C39	C	1.733386	0.469616	0.666704
C40	C	1.153522	-0.205421	0.000035
C41	C	1.486855	0.127913	0.333368
C42	C	1.820189	0.461246	0.666702
C43	C	0.929326	-0.029595	0.000040
C44	C	1.262659	0.303739	0.333374
C45	C	1.595993	0.637072	0.666707
C46	C	0.927691	0.069825	0.000039
C47	C	1.261024	0.403158	0.333373
C48	C	1.594357	0.736491	0.666706
C49	C	1.203547	-0.128577	0.000036
C50	C	1.536880	0.204756	0.333369
C51	C	1.870213	0.538090	0.666703
C52	C	1.285106	-0.136447	0.000039
C53	C	1.618440	0.196887	0.333373
C54	C	1.951773	0.530220	0.666706
C55	C	1.316640	-0.221161	0.000034
C56	C	1.649973	0.112173	0.333368
C57	C	1.983306	0.445506	0.666701
C58	C	1.266609	-0.298010	0.000036
C59	C	1.599942	0.035323	0.333370
C60	C	1.933275	0.368656	0.666703
C61	C	1.185050	-0.290140	0.000040
C62	C	1.518384	0.043193	0.333374
C63	C	1.851717	0.376527	0.666707
C64	C	1.562430	-0.248965	0.000029
C65	C	1.895763	0.084368	0.333362
C66	C	2.229097	0.417701	0.666695
C67	C	1.643995	-0.256830	0.000022
C68	C	1.977328	0.076503	0.333355
C69	C	2.310661	0.409837	0.666688
C70	C	1.662487	-0.095266	0.000027
C71	C	1.995820	0.238068	0.333360
C72	C	2.329153	0.571401	0.666693
C73	C	1.580926	-0.087403	0.000025
C74	C	1.914259	0.245931	0.333358
C75	C	2.247593	0.579264	0.666691
C76	C	1.530902	-0.164252	0.000032
C77	C	1.864236	0.169081	0.333365
C78	C	2.197569	0.502415	0.666699
C79	C	1.400007	-0.229207	0.000034
C80	C	1.733340	0.104127	0.333368
C81	C	2.066673	0.437460	0.666701
C82	C	1.447537	-0.156205	0.000039
C83	C	1.780870	0.177128	0.333372
C84	C	2.114204	0.510461	0.666706
C85	C	0.918215	-0.355812	0.000024
C86	C	1.251548	-0.022479	0.333357
C87	C	1.584882	0.310854	0.666691
C88	C	0.919850	-0.455232	0.000019
C89	C	1.253184	-0.121899	0.333352
C90	C	1.586517	0.211435	0.666685
N91	N	0.923755	-0.192690	0.235390
N92	N	1.257088	0.140644	0.568724
N93	N	1.590421	0.473977	0.902057
C94	C	0.998140	0.121776	0.000043
C95	C	1.331473	0.455109	0.333377
C96	C	1.664806	0.788442	0.666710
C97	C	0.996598	0.215190	0.000033
C98	C	1.329932	0.548524	0.333367
C99	C	1.663265	0.881857	0.666700
C100	C	0.924607	0.256653	0.000026
C101	C	1.257941	0.589986	0.333360
C102	C	1.591274	0.923319	0.666693
C103	C	0.854153	0.204695	0.000019
C104	C	1.187487	0.538028	0.333353
C105	C	1.520820	0.871362	0.666686
C106	C	0.855695	0.111282	0.000022
C107	C	1.189029	0.444615	0.333356
C108	C	1.522362	0.777949	0.666689
C109	C	0.850944	0.399398	0.000016
C110	C	1.184277	0.732731	0.333349
C111	C	1.517611	1.066065	0.666682
C112	C	0.849402	0.492817	0.000015
C113	C	1.182735	0.826151	0.333348
C114	C	1.516068	1.159484	0.666681
C115	C	0.991847	0.503306	0.000027
C116	C	1.325180	0.836640	0.333360
C117	C	1.658514	1.169973	0.666693
C118	C	0.993389	0.409893	0.000030
C119	C	1.326722	0.743227	0.333363
C120	C	1.660056	1.076560	0.666696
C121	C	0.922935	0.357942	0.000024
C122	C	1.256268	0.691275	0.333358
C123	C	1.589601	1.024609	0.666691
N124	N	0.923793	-0.192711	-0.235324
N125	N	1.257126	0.140623	0.098010
N126	N	1.590459	0.473956	0.431343
C127	C	0.976871	-0.135949	0.287436
C128	C	1.310204	0.197385	0.620770
C129	C	1.643538	0.530718	0.954103
C130	C	0.976876	-0.135948	0.391540
C131	C	1.310209	0.197385	0.724873
C132	C	1.643543	0.530718	1.058206
C133	C	0.923768	-0.192694	0.443595
C134	C	1.257101	0.140639	0.776928
C135	C	1.590434	0.473972	1.110262
C136	C	0.870646	-0.249438	0.391542
C137	C	1.203979	0.083895	0.724875
C138	C	1.537312	0.417229	1.058208
C139	C	0.870638	-0.249433	0.287440
C140	C	1.203971	0.083900	0.620774
C141	C	1.537304	0.417234	0.954107
C142	C	0.870667	-0.249446	0.608522
C143	C	1.204001	0.083888	0.941855
C144	C	1.537334	0.417221	1.275188
C145	C	0.870676	-0.249452	0.712630
C146	C	1.204010	0.083881	1.045964
C147	C	1.537343	0.417215	1.379297
C148	C	0.976906	-0.135961	0.712621
C149	C	1.310239	0.197373	1.045954
C150	C	1.643572	0.530706	1.379288
C151	C	0.976898	-0.135956	0.608520
C152	C	1.310231	0.197377	0.941853
C153	C	1.643564	0.530711	1.275186
C154	C	0.923777	-0.192701	0.556474
C155	C	1.257110	0.140632	0.889807
C156	C	1.590443	0.473966	1.223140
H157	H	1.177879	-0.059594	0.000034
H158	H	1.511212	0.273740	0.333367
H159	H	1.844546	0.607073	0.666701
Cl160	Cl	1.043687	-0.064627	0.778054
Cl161	Cl	1.377020	0.268706	1.111387
Cl162	Cl	1.710353	0.602040	1.444720
Cl163	Cl	1.043667	-0.064624	0.543077
Cl164	Cl	1.377000	0.268710	0.876410
Cl165	Cl	1.710334	0.602043	1.209743
Cl166	Cl	1.683635	-0.363336	0.000017
Cl167	Cl	2.016968	-0.030003	0.333350
Cl168	Cl	2.350301	0.303331	0.666683
H169	H	0.790780	0.526573	0.000025
H170	H	1.124114	0.859906	0.333358
H171	H	1.457447	1.193240	0.666691
H172	H	0.795537	0.238461	0.000007
H173	H	1.128870	0.571794	0.333341
H174	H	1.462204	0.905128	0.666674
Cl175	Cl	1.499553	-0.345578	0.000024
Cl176	Cl	1.832887	-0.012244	0.333357
Cl177	Cl	2.166220	0.321089	0.666690
H178	H	0.827400	-0.295638	0.433931
H179	H	1.160733	0.037695	0.767264
H180	H	1.494067	0.371028	1.100598
H181	H	1.292289	-0.366987	0.000038
H182	H	1.625623	-0.033653	0.333372
H183	H	1.958956	0.299680	0.666705
Cl184	Cl	1.043644	-0.064610	0.222006
Cl185	Cl	1.376977	0.268723	0.555340
Cl186	Cl	1.710311	0.602056	0.888673
H187	H	1.049214	0.545610	0.000028
H188	H	1.382547	0.878943	0.333361
H189	H	1.715880	1.212276	0.666694
H190	H	1.325834	-0.073872	0.000044
H191	H	1.659167	0.259461	0.333378
H192	H	1.992500	0.592795	0.666711
Cl193	Cl	1.043651	-0.064614	0.456971
Cl194	Cl	1.376985	0.268719	0.790304
Cl195	Cl	1.710318	0.602052	1.123637
Cl196	Cl	0.803857	-0.320765	0.222012
Cl197	Cl	1.137190	0.012568	0.555345
Cl198	Cl	1.470523	0.345902	0.888679
Cl199	Cl	1.083893	0.357770	0.000033
Cl200	Cl	1.417227	0.691103	0.333367
Cl201	Cl	1.750560	1.024437	0.666700
Cl202	Cl	1.088648	0.069661	0.000062
Cl203	Cl	1.421981	0.402994	0.333396
Cl204	Cl	1.755314	0.736328	0.666729
H205	H	1.053965	0.257485	0.000039
H206	H	1.387298	0.590818	0.333372
H207	H	1.720632	0.924152	0.666705
H208	H	1.555258	-0.018419	0.000029
H209	H	1.888592	0.314914	0.333362
H210	H	2.221925	0.648247	0.666696
Cl211	Cl	0.803882	-0.320782	0.543096
Cl212	Cl	1.137216	0.012551	0.876430
Cl213	Cl	1.470549	0.345885	1.209763
Cl214	Cl	0.762371	0.334089	0.000009
Cl215	Cl	1.095704	0.667422	0.333342
Cl216	Cl	1.429038	1.000756	0.666675
Cl217	Cl	0.803906	-0.320791	0.778063
Cl218	Cl	1.137240	0.012542	1.111397
Cl219	Cl	1.470573	0.345876	1.444730
Cl220	Cl	1.725378	0.001339	0.000026
Cl221	Cl	2.058711	0.334672	0.333359
Cl222	Cl	2.392044	0.668005	0.666692
Cl223	Cl	1.122161	-0.386748	0.000046
Cl224	Cl	1.455495	-0.053415	0.333379
Cl225	Cl	1.788828	0.279919	0.666712
Cl226	Cl	1.407893	-0.049711	0.000050
Cl227	Cl	1.741227	0.283622	0.333383
Cl228	Cl	2.074560	0.616955	0.666716
H229	H	1.425690	-0.298182	0.000027
H230	H	1.759024	0.035152	0.333361
H231	H	2.092357	0.368485	0.666694
H232	H	0.798329	0.068984	0.000019
H233	H	1.131662	0.402318	0.333352
H234	H	1.464995	0.735651	0.666686
