data_functionalizedCrystal
_audit_creation_method	'MofGen! by Chris Wilmer'
_symmetry_space_group_name_H-M	'P1'
_symmetry_Int_Tables_number	1
_symmetry_cell_setting	triclinic
loop_
_symmetry_equiv_pos_as_xyz
  x,y,z
_cell_length_a	31.640172
_cell_length_b	31.640172
_cell_length_c	23.196401
_cell_angle_alpha	60.005432
_cell_angle_beta	90.017286
_cell_angle_gamma	60.004780
loop_
_atom_site_label
_atom_site_type_symbol
_atom_site_fract_x
_atom_site_fract_y
_atom_site_fract_z
Zr1	Zr	0.407232	0.462536	-0.075573
O2	O	0.339739	0.550712	-0.167636
O3	O	0.427914	0.374366	-0.047352
O4	O	0.427905	0.462534	-0.167621
O5	O	0.339764	0.462543	0.047505
O6	O	0.497462	0.462525	-0.167609
O7	O	0.339747	0.462544	-0.047367
O8	O	0.497478	0.304809	0.047531
O9	O	0.339748	0.620260	-0.167635
O10	O	0.488655	0.410622	-0.035306
O11	O	0.436757	0.410628	0.035486
O12	O	0.436747	0.514435	-0.106115
O13	O	0.384850	0.514441	-0.035323
Zr14	Zr	0.518194	0.462520	0.075756
Zr15	Zr	0.518168	0.462522	-0.075553
Zr16	Zr	0.407259	0.462534	0.075736
Zr17	Zr	0.407247	0.573456	-0.075572
Zr18	Zr	0.518179	0.351600	0.075754
O19	O	0.497512	0.550690	0.047535
O20	O	0.497474	0.550692	-0.167607
O21	O	0.339776	0.550710	0.047506
O22	O	0.585688	0.374344	0.167818
O23	O	0.585650	0.374346	-0.047324
O24	O	0.427952	0.374364	0.167790
O25	O	0.585662	0.462513	-0.047322
O26	O	0.497521	0.462522	0.167804
O27	O	0.427964	0.462530	0.167791
O28	O	0.585679	0.462512	0.047549
O29	O	0.427927	0.620248	-0.167619
O30	O	0.497499	0.304807	0.167801
O31	O	0.585678	0.304796	0.167817
O32	O	0.585657	0.304798	0.047547
O33	O	0.339769	0.620258	-0.047364
O34	O	0.427948	0.620247	-0.047348
O35	O	0.488680	0.410621	0.106297
O36	O	0.540577	0.410615	0.035505
O37	O	0.488669	0.514427	-0.035304
O38	O	0.436772	0.514433	0.035488
C39	C	0.462694	0.323784	0.000089
C40	C	0.462688	0.276695	0.000088
C41	C	0.323950	0.462545	0.000066
C42	C	0.276855	0.462551	0.000057
C43	C	0.489813	-0.015350	-0.036855
C44	C	0.489824	-0.192346	-0.036855
O45	O	0.512882	-0.215253	-0.068256
N46	N	0.462734	-0.214472	0.000097
C47	C	0.435641	-0.192349	0.037054
O48	O	0.412604	-0.215234	0.068490
C49	C	0.435634	-0.015357	0.037058
C50	C	0.462722	0.006771	0.000098
C51	C	0.516900	0.006778	-0.073811
C52	C	0.516894	0.051026	-0.073814
C53	C	0.489803	0.073147	-0.036861
C54	C	0.462717	0.051020	0.000095
C55	C	0.408545	0.006762	0.074019
C56	C	0.408547	0.051012	0.074018
C57	C	0.435635	0.073140	0.037058
C58	C	0.435620	0.117389	0.037045
N59	N	0.462711	0.139515	0.000094
C60	C	0.489802	0.117394	-0.036859
C61	C	0.435646	-0.285271	0.037049
C62	C	0.435647	-0.329518	0.037047
C63	C	0.489831	-0.329513	-0.036861
C64	C	0.489827	-0.285262	-0.036863
C65	C	0.462737	-0.263145	0.000098
C66	C	0.489789	0.210320	-0.036863
C67	C	0.489779	0.254574	-0.036865
C68	C	0.435598	0.254562	0.037046
C69	C	0.435605	0.210314	0.037045
C70	C	0.462704	0.188193	0.000090
O71	O	0.412579	0.140319	0.068437
O72	O	0.512845	0.140278	-0.068277
C73	C	0.489819	-0.059598	-0.036852
C74	C	0.462732	-0.081726	0.000104
C75	C	0.435641	-0.059605	0.037057
C76	C	0.462733	-0.125973	0.000102
C77	C	0.489825	-0.148094	-0.036851
C78	C	0.516915	-0.125968	-0.073802
C79	C	0.516910	-0.081719	-0.073805
C80	C	0.408551	-0.081731	0.074008
C81	C	0.408558	-0.125979	0.074007
C82	C	0.435649	-0.148100	0.037054
C83	C	0.011944	0.408333	0.037067
C84	C	-0.165041	0.408323	0.037081
O85	O	-0.164883	0.362237	0.068541
N86	N	-0.214266	0.462511	0.000118
C87	C	-0.219244	0.516706	-0.036847
O88	O	-0.265174	0.562797	-0.068279
C89	C	-0.042259	0.516716	-0.036856
C90	C	0.006965	0.462524	0.000103
C91	C	0.061167	0.354146	0.074024
C92	C	0.105410	0.354149	0.074017
C93	C	0.100431	0.408340	0.037053
C94	C	0.051209	0.462527	0.000096
C95	C	-0.047238	0.570911	-0.073816
C96	C	-0.002987	0.570908	-0.073814
C97	C	0.046238	0.516716	-0.036855
C98	C	0.090473	0.516721	-0.036875
N99	N	0.139698	0.462533	0.000088
C100	C	0.144677	0.408342	0.037052
C101	C	-0.312161	0.516698	-0.036840
C102	C	-0.356407	0.516695	-0.036839
C103	C	-0.302201	0.408311	0.037090
C104	C	-0.257955	0.408314	0.037084
C105	C	-0.262936	0.462509	0.000123
C106	C	0.237589	0.408352	0.037034
C107	C	0.281834	0.408360	0.037021
C108	C	0.227624	0.516744	-0.036904
C109	C	0.183383	0.516736	-0.036895
C110	C	0.188369	0.462536	0.000079
O111	O	0.090354	0.562783	-0.068312
O112	O	0.190611	0.362258	0.068493
C113	C	-0.032299	0.408330	0.037074
C114	C	-0.081522	0.462518	0.000117
C115	C	-0.086501	0.516709	-0.036847
C116	C	-0.125768	0.462516	0.000119
C117	C	-0.120789	0.408325	0.037082
C118	C	-0.071563	0.354136	0.074045
C119	C	-0.027320	0.354139	0.074038
C120	C	-0.135726	0.570897	-0.073809
C121	C	-0.179967	0.570890	-0.073800
C122	C	-0.174988	0.516699	-0.036836
C123	C	0.601477	0.462510	0.000116
C124	C	0.648572	0.462504	0.000125
C125	C	0.462680	0.462530	-0.189173
C126	C	0.462669	0.462531	-0.253408
C127	C	0.462732	0.601272	0.000093
C128	C	0.462739	0.648361	0.000094
C129	C	0.435576	0.516718	-0.320542
C130	C	0.435589	0.516719	-0.380898
C131	C	0.462688	0.462529	-0.374114
C132	C	0.489787	0.408335	-0.306967
C133	C	0.489777	0.408336	-0.246614
C134	C	0.458833	0.421016	-0.441433
C135	C	0.458839	0.421017	-0.501786
C136	C	0.462721	0.462525	-0.560262
C137	C	0.466586	0.504041	-0.558383
C138	C	0.466576	0.504042	-0.498030
C139	C	0.462702	0.462522	-0.439553
C140	C	0.435641	0.516717	-0.692843
C141	C	0.435658	0.516715	-0.753198
C142	C	0.489852	0.408329	-0.679265
C143	C	0.489839	0.408332	-0.618913
C144	C	0.462730	0.462528	-0.625706
C145	C	0.462746	0.462526	0.189356
C146	C	0.462758	0.462525	0.253590
C147	C	0.601457	0.323766	0.000114
C148	C	0.648546	0.276672	0.000122
C149	C	0.462727	0.323781	0.189353
C150	C	0.462732	0.276692	0.253587
C151	C	0.601491	0.323764	0.189379
C152	C	0.648590	0.276669	0.253621
C153	C	0.323936	0.601292	-0.189196
C154	C	0.276836	0.648387	-0.253439
C155	C	0.323969	0.601290	0.000068
C156	C	0.276880	0.648384	0.000060
C157	C	0.462699	0.601274	-0.189171
C158	C	0.462694	0.648364	-0.253405
C159	C	0.643557	0.254559	-0.036843
C160	C	0.687797	0.210315	-0.036850
C161	C	0.737026	0.188181	0.000113
C162	C	0.742015	0.210298	0.037079
C163	C	0.697775	0.254544	0.037082
C164	C	0.489837	0.254575	0.320721
C165	C	0.489840	0.210336	0.381081
C166	C	0.462740	0.188212	0.374306
C167	C	0.435632	0.210333	0.307166
C168	C	0.435626	0.254575	0.246807
C169	C	0.697804	0.254549	0.246837
C170	C	0.742063	0.210305	0.307194
C171	C	0.737108	0.188177	0.374334
C172	C	0.687890	0.210301	0.381116
C173	C	0.643632	0.254548	0.320760
C174	C	0.227623	0.670512	-0.246655
C175	C	0.183363	0.714770	-0.307012
C176	C	0.188318	0.736900	-0.374152
C177	C	0.237536	0.714774	-0.380934
C178	C	0.281795	0.670519	-0.320578
C179	C	0.281870	0.670501	0.037019
C180	C	0.237629	0.714757	0.037009
C181	C	0.188400	0.736893	0.000044
C182	C	0.183412	0.714774	-0.036919
C183	C	0.227651	0.670522	-0.036913
C184	C	0.489799	0.670473	-0.246607
C185	C	0.489805	0.714713	-0.306956
C186	C	0.462702	0.736845	-0.374102
C187	C	0.435596	0.714730	-0.380898
C188	C	0.435594	0.670489	-0.320550
H189	H	0.511837	0.272591	-0.066964
H190	H	0.782103	0.192270	0.067173
H191	H	0.152381	0.772926	0.000045
H192	H	0.321865	0.652505	-0.326110
F193	F	0.703093	0.278070	0.076432
F194	F	0.454736	0.376809	-0.379183
H195	H	0.782135	0.192296	0.301659
F196	F	0.406792	0.186781	0.299966
H197	H	0.683725	0.192313	-0.066952
F198	F	0.242903	0.350666	0.076386
F199	F	0.406800	0.574395	-0.700071
H200	H	0.511916	0.192329	0.435745
F201	F	0.784217	0.141084	0.438565
H202	H	0.511870	0.652461	-0.191939
F203	F	0.518653	0.738243	-0.299708
F204	F	0.518698	0.350656	-0.672041
F205	F	0.406750	0.738295	-0.452365
H206	H	0.241564	0.732798	-0.435607
F207	F	0.682625	0.186745	0.452578
H208	H	0.413556	0.272577	0.192146
H209	H	0.773045	0.152152	0.000106
F210	F	0.141209	0.784000	-0.438383
F211	F	0.222333	0.646985	-0.076248
H212	H	0.538972	-0.143984	-0.103894
H213	H	0.603562	0.272552	0.326294
F214	F	0.406739	0.646967	-0.327796
F215	F	0.131014	0.738337	-0.076256
F216	F	-0.099619	0.628590	-0.113149
F217	F	0.462708	0.783932	-0.438324
H218	H	0.511898	0.364207	-0.564247
H219	H	0.511856	0.192313	-0.066954
H220	H	0.321951	0.652481	0.067125
H221	H	0.012757	0.310010	0.104136
H222	H	0.145487	0.310020	0.104110
H223	H	0.413583	-0.347525	0.067134
H224	H	0.538953	0.069039	-0.103907
F225	F	0.379722	-0.149522	0.113344
F226	F	0.703088	0.278094	0.175388
H227	H	0.413586	-0.267268	0.067149
H228	H	0.223579	0.652496	-0.191992
F229	F	0.518629	0.350662	-0.299748
F230	F	0.130987	0.738309	-0.299779
H231	H	0.538963	-0.011231	-0.103902
F232	F	-0.066272	0.296462	0.113382
H233	H	0.386490	-0.063726	0.104102
H234	H	0.321915	0.364229	0.067120
H235	H	0.511884	-0.267248	-0.066958
F236	F	0.518664	-0.353063	-0.076189
H237	H	0.241701	0.732759	0.067112
H238	H	0.386486	0.069018	0.104115
F239	F	0.462751	0.141125	0.438553
F240	F	0.379715	-0.016780	0.113359
H241	H	0.455689	0.387215	-0.503311
H242	H	0.413539	0.272583	0.067130
F243	F	0.406768	0.186770	0.076372
F244	F	0.545741	-0.058175	-0.113143
F245	F	0.591167	0.278110	-0.076189
H246	H	0.065230	0.310014	0.104128
H247	H	-0.298154	0.364187	0.067183
F248	F	-0.205569	0.350636	0.076422
F249	F	-0.317472	0.574383	-0.076184
F250	F	-0.408793	0.574374	-0.076186
F251	F	0.130993	0.574413	-0.076244
F252	F	-0.008294	0.628591	-0.113153
F253	F	0.222334	0.574415	-0.076234
H254	H	0.511905	0.272583	0.326251
F255	F	-0.232354	0.628573	-0.113143
F256	F	-0.141034	0.628578	-0.113153
H257	H	0.413504	0.560848	-0.326081
H258	H	0.469725	0.537844	-0.496503
F259	F	0.406753	0.574395	-0.452358
F260	F	0.406823	0.574392	-0.824652
F261	F	0.470717	0.548220	-0.620615
H262	H	0.511840	0.364208	-0.191948
