data_functionalizedCrystal
_audit_creation_method	'MofGen! by Chris Wilmer'
_symmetry_space_group_name_H-M	'P1'
_symmetry_Int_Tables_number	1
_symmetry_cell_setting	triclinic
loop_
_symmetry_equiv_pos_as_xyz
  x,y,z
_cell_length_a	16.109302
_cell_length_b	23.532407
_cell_length_c	15.186229
_cell_angle_alpha	89.991614
_cell_angle_beta	89.994701
_cell_angle_gamma	83.155229
loop_
_atom_site_label
_atom_site_type_symbol
_atom_site_fract_x
_atom_site_fract_y
_atom_site_fract_z
O1	O	1.102555	0.073204	-0.073277
O2	O	1.602555	0.573204	0.426723
O3	O	0.860421	0.082313	-0.073271
O4	O	1.360421	0.582313	0.426729
O5	O	0.988789	-0.005146	-0.073258
O6	O	1.488789	0.494854	0.426742
O7	O	0.974186	0.160663	-0.073290
O8	O	1.474186	0.660663	0.426710
O9	O	0.988781	-0.005147	0.073199
O10	O	1.488781	0.494853	0.573199
O11	O	0.860413	0.082312	0.073186
O12	O	1.360413	0.582312	0.573186
O13	O	1.102546	0.073203	0.073180
O14	O	1.602546	0.573203	0.573180
Zn15	Zn	0.981478	0.077757	0.096436
Zn16	Zn	1.481478	0.577757	0.596436
Zn17	Zn	0.981489	0.077759	-0.096528
Zn18	Zn	1.481489	0.577759	0.403472
O19	O	0.974178	0.160662	0.073167
O20	O	1.474178	0.660662	0.573167
C21	C	0.829445	0.081944	-0.000042
C22	C	1.329445	0.581944	0.499958
C23	C	0.737158	0.080837	-0.000039
C24	C	1.237158	0.580837	0.499961
C25	C	0.524833	0.078278	0.079787
C26	C	1.024833	0.578278	0.579787
C27	C	0.438121	0.077232	0.079784
C28	C	0.938121	0.577232	0.579784
C29	C	0.438141	0.077236	-0.079892
C30	C	0.938141	0.577236	0.420108
C31	C	0.524852	0.078278	-0.079888
C32	C	1.024852	0.578278	0.420112
C33	C	0.568195	0.078802	-0.000046
C34	C	1.068195	0.578802	0.499954
C35	C	0.394772	0.076714	-0.000053
C36	C	0.894772	0.576714	0.499947
C37	C	0.300755	0.075580	-0.000057
C38	C	0.800755	0.575580	0.499943
C39	C	0.662218	0.079935	-0.000042
C40	C	1.162218	0.579935	0.499958
C41	C	0.988413	-0.026364	-0.000027
C42	C	1.488413	0.473636	0.499973
C43	C	0.987295	-0.089585	-0.000021
C44	C	1.487295	0.410415	0.499979
C45	C	1.056248	-0.488434	-0.000071
C46	C	1.556248	0.011566	0.499929
C47	C	1.055210	-0.547838	-0.000077
C48	C	1.555210	-0.047838	0.499923
O49	O	1.119130	-0.584347	-0.000111
O50	O	1.619130	-0.084347	0.499889
N51	N	0.978895	-0.570746	-0.000075
N52	N	1.478895	-0.070746	0.499925
C53	C	0.903614	-0.534246	-0.000075
C54	C	1.403614	-0.034246	0.499925
O55	O	0.838607	-0.559186	-0.000074
O56	O	1.338607	-0.059186	0.499926
C57	C	0.904653	-0.474843	-0.000074
C58	C	1.404653	0.025157	0.499926
C59	C	0.980973	-0.451939	-0.000068
C60	C	1.480973	0.048061	0.499932
C61	C	1.132562	-0.465529	-0.000065
C62	C	1.632562	0.034471	0.499935
C63	C	1.133600	-0.406129	-0.000057
C64	C	1.633600	0.093871	0.499943
C65	C	1.058325	-0.369634	-0.000054
C66	C	1.558325	0.130366	0.499946
C67	C	0.982011	-0.392539	-0.000060
C68	C	1.482011	0.107461	0.499940
C69	C	0.829373	-0.438345	-0.000080
C70	C	1.329373	0.061655	0.499920
C71	C	0.830419	-0.378938	-0.000081
C72	C	1.330419	0.121062	0.499919
C73	C	0.906739	-0.356034	-0.000074
C74	C	1.406739	0.143966	0.499926
C75	C	0.907774	-0.296644	-0.000048
C76	C	1.407774	0.203356	0.499952
N77	N	0.984089	-0.273736	-0.000051
N78	N	1.484089	0.226264	0.499949
C79	C	1.059364	-0.310231	-0.000054
C80	C	1.559364	0.189769	0.499946
C81	C	0.901436	-0.658997	-0.000077
C82	C	1.401436	-0.158997	0.499923
C83	C	0.900396	-0.718398	-0.000071
C84	C	1.400396	-0.218398	0.499929
C85	C	1.051993	-0.731986	-0.000075
C86	C	1.551993	-0.231986	0.499925
C87	C	1.053032	-0.672583	-0.000075
C88	C	1.553032	-0.172583	0.499925
C89	C	0.977751	-0.636089	-0.000079
C90	C	1.477751	-0.136089	0.499921
C91	C	1.061539	-0.185486	-0.000035
C92	C	1.561539	0.314514	0.499965
C93	C	1.062571	-0.126080	-0.000024
C94	C	1.562571	0.373920	0.499976
C95	C	0.910975	-0.112498	-0.000024
C96	C	1.410975	0.387502	0.499976
C97	C	0.909943	-0.171898	-0.000031
C98	C	1.409943	0.328102	0.499969
C99	C	0.985232	-0.208392	-0.000040
C100	C	1.485232	0.291608	0.499960
O101	O	0.843887	-0.260100	-0.000018
O102	O	1.343887	0.239900	0.499982
O103	O	1.124361	-0.285283	-0.000066
O104	O	1.624361	0.214717	0.499934
C105	C	1.133522	0.073572	-0.000052
C106	C	1.633522	0.573572	0.499948
C107	C	1.225809	0.074679	-0.000060
C108	C	1.725809	0.574679	0.499940
C109	C	0.974554	0.181880	-0.000066
C110	C	1.474554	0.681880	0.499934
C111	C	0.975672	0.245101	-0.000078
C112	C	1.475672	0.745101	0.499922
N113	N	0.981476	0.077756	0.228129
N114	N	1.481476	0.577756	0.728129
N115	N	0.981497	0.077756	-0.228220
N116	N	1.481497	0.577756	0.271780
C117	C	1.038337	0.039042	0.453857
C118	C	1.538337	0.539042	0.953857
C119	C	1.038340	0.039040	0.546047
C120	C	1.538340	0.539040	1.046047
C121	C	0.924631	0.116472	0.546045
C122	C	1.424631	0.616472	1.046045
C123	C	0.924625	0.116470	0.453857
C124	C	1.424625	0.616470	0.953857
C125	C	0.981483	0.077756	0.407765
C126	C	1.481483	0.577756	0.907765
C127	C	0.981491	0.077756	0.592143
C128	C	1.481491	0.577756	1.092143
C129	C	0.981494	0.077755	0.692099
C130	C	1.481494	0.577755	1.192099
C131	C	0.981479	0.077756	0.307803
C132	C	1.481479	0.577756	0.807803
H133	H	1.124722	-0.107435	-0.000016
H134	H	1.624722	0.392565	0.499984
H135	H	1.084633	0.007517	0.416332
H136	H	1.584633	0.507517	0.916332
C137	C	1.100877	-0.003552	0.596744
C138	C	1.600877	0.496448	1.096744
N139	N	1.147981	-0.035637	0.634929
N140	N	1.647981	0.464363	1.134929
C141	C	0.572509	0.078847	0.167615
C142	C	1.072509	0.578847	0.667615
N143	N	0.608416	0.079273	0.233770
N144	N	1.108416	0.579273	0.733770
H145	H	1.122847	-0.215193	-0.000046
H146	H	1.622847	0.284807	0.499954
C147	C	1.215379	-0.505665	-0.000059
C148	C	1.715379	-0.005665	0.499941
N149	N	1.277762	-0.535893	-0.000044
N150	N	1.777762	-0.035893	0.499956
C151	C	0.390454	0.076665	-0.167713
C152	C	0.890454	0.576665	0.332287
N153	N	0.354537	0.076237	-0.233862
N154	N	0.854537	0.576237	0.266138
C155	C	0.825988	-0.197094	-0.000033
C156	C	1.325988	0.302906	0.499967
N157	N	0.762751	-0.216067	-0.000043
N158	N	1.262751	0.283933	0.499957
H159	H	0.402819	0.076806	0.144792
H160	H	0.902819	0.576806	0.644792
H161	H	0.560159	0.078703	-0.144902
H162	H	1.060159	0.578703	0.355098
H163	H	1.195748	-0.387486	-0.000055
H164	H	1.695748	0.112514	0.499945
C165	C	1.136989	-0.647395	-0.000076
C166	C	1.636989	-0.147395	0.499924
N167	N	1.200229	-0.628426	-0.000079
N168	N	1.700229	-0.128426	0.499921
C169	C	1.134798	-0.772142	-0.000088
C170	C	1.634798	-0.272142	0.499912
N171	N	1.197162	-0.802389	-0.000098
N172	N	1.697162	-0.302389	0.499902
H173	H	0.769115	-0.349227	-0.000086
H174	H	1.269115	0.150773	0.499914
H175	H	0.838249	-0.737041	-0.000061
H176	H	1.338249	-0.237041	0.499939
C177	C	0.862115	0.159086	0.403152
C178	C	1.362115	0.659086	0.903152
N179	N	0.815047	0.191192	0.364962
N180	N	1.315047	0.691192	0.864962
H181	H	0.767225	-0.456982	-0.000091
H182	H	1.267225	0.043018	0.499909
C183	C	0.818616	-0.618857	-0.000070
C184	C	1.318616	-0.118857	0.499930
N185	N	0.756236	-0.588627	-0.000066
N186	N	1.256236	-0.088627	0.499934
C187	C	0.828176	-0.072342	-0.000027
C188	C	1.328176	0.427658	0.499973
N189	N	0.765811	-0.042095	-0.000038
N190	N	1.265811	0.457905	0.499962
C191	C	0.862089	0.159054	0.596754
C192	C	1.362089	0.659054	1.096754
N193	N	0.814981	0.191128	0.634947
N194	N	1.314981	0.691128	1.134947
