data_functionalizedCrystal
_audit_creation_method	'MofGen! by Chris Wilmer'
_symmetry_space_group_name_H-M	'P1'
_symmetry_Int_Tables_number	1
_symmetry_cell_setting	triclinic
loop_
_symmetry_equiv_pos_as_xyz
  x,y,z
_cell_length_a	6.817900
_cell_length_b	11.102291
_cell_length_c	14.858340
_cell_angle_alpha	93.470357
_cell_angle_beta	104.519754
_cell_angle_gamma	108.605753
loop_
_atom_site_label
_atom_site_type_symbol
_atom_site_fract_x
_atom_site_fract_y
_atom_site_fract_z
V1	V	-4.064506	-0.176650	-0.289961
V2	V	-3.564506	0.323350	0.210039
O3	O	-4.024433	0.007655	-0.284441
O4	O	-3.524433	0.507655	0.215559
O5	O	-4.041605	-0.349465	-0.287979
O6	O	-3.541605	0.150535	0.212021
O7	O	-4.020778	-0.174298	-0.416423
O8	O	-3.520778	0.325702	0.083577
O9	O	-4.045405	-0.168724	-0.155107
O10	O	-3.545405	0.331276	0.344893
V11	V	-4.544224	-0.154562	-0.273831
V12	V	-4.044224	0.345438	0.226169
O13	O	-4.334110	-0.225102	-0.325343
O14	O	-3.834110	0.274898	0.174657
O15	O	-4.724818	-0.106109	-0.238450
O16	O	-4.224818	0.393891	0.261550
O17	O	-4.343918	0.018253	-0.275814
O18	O	-3.843918	0.518253	0.224186
O19	O	-4.701694	-0.338866	-0.279352
O20	O	-4.201694	0.161134	0.220648
O21	O	-4.680722	-0.162487	-0.408685
O22	O	-4.180722	0.337513	0.091315
O23	O	-4.364746	-0.156913	-0.147370
O24	O	-3.864746	0.343087	0.352630
C25	C	-3.892658	-0.391582	-0.283404
C26	C	-3.392658	0.108418	0.216596
C27	C	-3.955252	-0.532863	-0.282627
C28	C	-3.455252	-0.032863	0.217373
C29	C	-4.089806	-0.750371	-0.366700
C30	C	-3.589806	-0.250371	0.133300
C31	C	-4.031012	-0.617623	-0.367429
C32	C	-3.531012	-0.117623	0.132571
C33	C	-3.938306	-0.580856	-0.197090
C34	C	-3.438306	-0.080856	0.302910
C35	C	-3.997113	-0.713602	-0.196362
C36	C	-3.497113	-0.213602	0.303638
C37	C	-4.165546	-0.835126	-0.451507
C38	C	-3.665546	-0.335126	0.048493
C39	C	-4.182500	-0.787142	-0.537044
C40	C	-3.682500	-0.287142	-0.037044
C41	C	-4.123706	-0.654394	-0.537773
C42	C	-3.623706	-0.154394	-0.037773
C43	C	-4.047959	-0.569630	-0.452966
C44	C	-3.547959	-0.069630	0.047034
C45	C	-3.866089	-0.168138	-0.447247
C46	C	-3.366089	0.331862	0.052753
C47	C	-3.911789	-0.167359	-0.550630
C48	C	-3.411789	0.332641	-0.050630
C49	C	-3.948899	-0.166725	-0.634588
C50	C	-3.448899	0.333275	-0.134588
C51	C	-3.995471	-0.165925	-0.739917
C52	C	-3.495471	0.334075	-0.239917
C53	C	-4.032605	-0.165286	-0.823869
C54	C	-3.532605	0.334714	-0.323869
C55	C	-4.079181	-0.164488	-0.929205
C56	C	-3.579181	0.335512	-0.429205
C57	C	-4.156208	0.060364	-0.280385
C58	C	-3.656208	0.560364	0.219615
C59	C	-4.072853	0.201643	-0.281169
C60	C	-3.572853	0.701643	0.218831
C61	C	-4.182777	-0.163077	-0.116541
C62	C	-3.682777	0.336923	0.383459
C63	C	-4.116315	-0.163850	-0.013157
C64	C	-3.616315	0.336150	0.486843
H65	H	-4.137537	-0.615330	-0.607422
H66	H	-3.637537	-0.115330	-0.107422
H67	H	-4.244190	-0.856165	-0.606092
H68	H	-3.744190	-0.356165	-0.106092
O69	O	-3.856569	-0.489438	-0.105622
O70	O	-3.356569	0.010562	0.394378
H71	H	-3.964563	-0.432916	-0.105346
H72	H	-3.464563	0.067084	0.394654
H73	H	-3.983304	-0.752672	-0.126716
H74	H	-3.483304	-0.252672	0.373284
H75	H	-4.000108	-0.461540	-0.453567
H76	H	-3.500108	0.038460	0.046433
H77	H	-4.213417	-0.943218	-0.450923
H78	H	-3.713417	-0.443218	0.049077
