data_functionalizedCrystal
_audit_creation_method	'MofGen! by Chris Wilmer'
_symmetry_space_group_name_H-M	'P1'
_symmetry_Int_Tables_number	1
_symmetry_cell_setting	triclinic
loop_
_symmetry_equiv_pos_as_xyz
  x,y,z
_cell_length_a	17.699083
_cell_length_b	14.971486
_cell_length_c	13.448316
_cell_angle_alpha	90.006811
_cell_angle_beta	90.000733
_cell_angle_gamma	83.448572
loop_
_atom_site_label
_atom_site_type_symbol
_atom_site_fract_x
_atom_site_fract_y
_atom_site_fract_z
O1	O	-1.004356	-0.113113	-0.082553
O2	O	-0.784014	-0.127829	-0.082586
O3	O	-0.900091	0.009750	-0.082561
O4	O	-0.888280	-0.250691	-0.082577
O5	O	-0.900077	0.009758	0.082823
O6	O	-0.784000	-0.127820	0.082798
O7	O	-1.004342	-0.113104	0.082831
Cu8	Cu	-0.894169	-0.120461	0.097915
Cu9	Cu	-0.894187	-0.120471	-0.097670
O10	O	-0.888265	-0.250683	0.082807
C11	C	-0.899556	0.043077	0.000130
C12	C	-0.897973	0.142368	0.000129
C13	C	-0.755809	-0.127297	0.000102
C14	C	-0.671787	-0.125715	0.000090
C15	C	-1.032547	-0.113636	0.000141
C16	C	-1.116569	-0.115218	0.000147
C17	C	-0.623365	-0.206471	0.000085
C18	C	-0.544418	-0.204979	0.000098
C19	C	-0.513894	-0.122731	0.000109
C20	C	-0.562323	-0.041969	0.000116
C21	C	-0.641268	-0.043462	0.000111
C22	C	-0.243945	-0.035947	0.000141
C23	C	-0.164993	-0.034461	0.000144
C24	C	-0.147094	-0.197465	0.000129
C25	C	-0.226040	-0.198958	0.000123
C26	C	-0.274461	-0.118196	0.000136
C27	C	-0.360064	-0.119815	0.000124
C28	C	-0.428293	-0.121111	0.000114
C29	C	-0.888801	-0.284010	0.000113
C30	C	-0.890383	-0.383301	0.000108
N31	N	-0.894163	-0.120454	0.235480
C32	C	-0.966165	0.199828	0.000140
C33	C	-0.964673	0.293123	0.000130
C34	C	-0.894988	0.328955	0.000116
C35	C	-0.826791	0.271488	0.000102
C36	C	-0.828284	0.178196	0.000105
C37	C	-0.823685	0.465940	0.000098
C38	C	-0.822192	0.559239	0.000097
C39	C	-0.960074	0.580867	0.000123
C40	C	-0.961566	0.487574	0.000126
C41	C	-0.893369	0.430114	0.000114
N42	N	-0.894199	-0.120472	-0.235234
C43	C	-0.945578	-0.059559	0.287531
C44	C	-0.945582	-0.059558	0.391634
C45	C	-0.894175	-0.120457	0.443684
C46	C	-0.842755	-0.181355	0.391626
C47	C	-0.842747	-0.181351	0.287525
C48	C	-0.842776	-0.181361	0.608606
C49	C	-0.842785	-0.181367	0.712715
C50	C	-0.945611	-0.059569	0.712716
C51	C	-0.945603	-0.059564	0.608614
C52	C	-0.894184	-0.120463	0.556563
H53	H	-0.648210	-0.273447	0.000076
H54	H	-0.987448	-0.009973	0.434014
F55	F	-0.132511	0.053083	0.000156
H56	H	-0.768151	0.419157	0.000086
H57	H	-0.772754	0.131412	0.000096
F58	F	-0.748025	0.597373	0.000083
F59	F	-1.037252	0.354272	0.000143
F60	F	-1.040334	0.161701	0.000164
H61	H	-0.800879	-0.230936	0.245145
H62	H	-0.107660	-0.263225	0.000124
H63	H	-1.018310	0.458403	0.000144
H64	H	-0.770052	0.300671	0.000084
H65	H	-0.800895	-0.230937	0.434011
H66	H	-0.987478	-0.009982	0.755102
F67	F	-0.692803	0.042490	0.000119
F68	F	-1.032655	0.642022	0.000131
F69	F	-1.000297	0.005255	0.232145
H70	H	-0.283361	0.029814	0.000153
F71	F	-0.788046	-0.246175	0.553214
H72	H	-0.987466	-0.009980	0.566235
F73	F	-0.788069	-0.246183	0.768103
H74	H	-0.504995	-0.270739	0.000093
H75	H	-0.250887	-0.265933	0.000110
H76	H	-0.537465	0.024999	0.000139
