data_functionalizedCrystal
_audit_creation_method	'MofGen! by Chris Wilmer'
_symmetry_space_group_name_H-M	'P1'
_symmetry_Int_Tables_number	1
_symmetry_cell_setting	triclinic
loop_
_symmetry_equiv_pos_as_xyz
  x,y,z
_cell_length_a	18.215407
_cell_length_b	18.215405
_cell_length_c	18.215399
_cell_angle_alpha	90.032960
_cell_angle_beta	90.016824
_cell_angle_gamma	90.025333
loop_
_atom_site_label
_atom_site_type_symbol
_atom_site_fract_x
_atom_site_fract_y
_atom_site_fract_z
Zn1	Zn	-1.125050	0.292966	-0.416103
Zn2	Zn	-0.625050	0.792966	0.083897
Zn3	Zn	-1.124965	0.416042	-0.293031
Zn4	Zn	-0.624965	0.916042	0.206969
Zn5	Zn	-1.001989	0.292995	-0.293050
Zn6	Zn	-0.501989	0.792995	0.206950
Zn7	Zn	-1.001949	0.415996	-0.416056
Zn8	Zn	-0.501949	0.915996	0.083944
O9	O	-1.063488	0.354500	-0.354560
O10	O	-0.563488	0.854500	0.145440
O11	O	-1.228023	0.309299	-0.399788
O12	O	-0.728023	0.809299	0.100212
O13	O	-1.108633	0.399751	-0.190049
O14	O	-0.608633	0.899751	0.309951
O15	O	-1.018366	0.190007	-0.309401
O16	O	-0.518366	0.690007	0.190599
O17	O	-1.227961	0.399723	-0.309368
O18	O	-0.727961	0.899723	0.190632
O19	O	-1.108778	0.189985	-0.399807
O20	O	-0.608778	0.689985	0.100193
O21	O	-1.018283	0.309349	-0.190063
O22	O	-0.518283	0.809349	0.309937
O23	O	-0.898999	0.309304	-0.309355
O24	O	-0.398999	0.809304	0.190645
O25	O	-1.018297	0.399644	-0.519046
O26	O	-0.518297	0.899644	-0.019046
O27	O	-0.898970	0.399672	-0.399727
O28	O	-0.398970	0.899672	0.100273
O29	O	-1.108739	0.309254	-0.519081
O30	O	-0.608739	0.809254	-0.019081
O31	O	-1.108594	0.519020	-0.309322
O32	O	-0.608594	1.019020	0.190678
O33	O	-1.018214	0.518986	-0.399708
O34	O	-0.518214	1.018986	0.100292
C35	C	-0.872282	0.354487	-0.354539
C36	C	-0.372282	0.854487	0.145461
C37	C	-0.790483	0.354499	-0.354547
C38	C	-0.290483	0.854499	0.145453
C39	C	-1.063410	0.545706	-0.354524
C40	C	-0.563410	1.045706	0.145476
C41	C	-1.063445	0.627505	-0.354534
C42	C	-0.563445	1.127505	0.145466
C43	C	-1.063523	0.354441	-0.546513
C44	C	-0.563523	0.854441	-0.046513
C45	C	-1.063538	0.354416	-0.628312
C46	C	-0.563538	0.854416	-0.128312
C47	C	-1.255441	0.354513	-0.354581
C48	C	-0.755441	0.854513	0.145419
C49	C	-1.337240	0.354518	-0.354591
C50	C	-0.837240	0.854518	0.145409
C51	C	-0.602293	0.401628	-0.401545
C52	C	-0.102293	0.901628	0.098455
C53	C	-0.525434	0.401630	-0.401554
C54	C	-0.025434	0.901630	0.098446
C55	C	-0.525436	0.307384	-0.307591
C56	C	-0.025436	0.807384	0.192409
C57	C	-0.602293	0.307379	-0.307586
C58	C	-0.102293	0.807379	0.192414
C59	C	-0.640720	0.354505	-0.354562
C60	C	-0.140720	0.854505	0.145438
C61	C	-0.487003	0.354513	-0.354576
C62	C	0.012997	0.854513	0.145424
C63	C	-0.403670	0.354515	-0.354585
C64	C	0.096330	0.854515	0.145415
C65	C	-0.724059	0.354502	-0.354553
C66	C	-0.224059	0.854502	0.145447
C67	C	-1.063586	0.162547	-0.354611
C68	C	-0.563586	0.662547	0.145389
C69	C	-1.063628	0.080748	-0.354633
C70	C	-0.563628	0.580748	0.145367
C71	C	-1.110616	0.815692	-0.307556
C72	C	-0.610616	1.315692	0.192444
C73	C	-1.110649	0.892551	-0.307574
C74	C	-0.610649	1.392551	0.192426
C75	C	-1.016455	0.892555	-0.401616
C76	C	-0.516455	1.392555	0.098384
C77	C	-1.016426	0.815698	-0.401601
C78	C	-0.516426	1.315698	0.098399
C79	C	-1.063506	0.777268	-0.354567
C80	C	-0.563506	1.277268	0.145433
C81	C	-1.063567	0.930984	-0.354600
C82	C	-0.563567	1.430984	0.145400
C83	C	-1.063602	1.014318	-0.354619
C84	C	-0.563602	1.514318	0.145381
C85	C	-1.063471	0.693929	-0.354548
C86	C	-0.563471	1.193929	0.145452
C87	C	-1.016532	0.307311	-0.816514
C88	C	-0.516532	0.807311	-0.316514
C89	C	-1.016545	0.307297	-0.893373
C90	C	-0.516545	0.807297	-0.393373
C91	C	-1.110631	0.401432	-0.893347
C92	C	-0.610631	0.901432	-0.393347
C93	C	-1.110614	0.401450	-0.816490
C94	C	-0.610614	0.901450	-0.316490
C95	C	-1.063566	0.354386	-0.778075
C96	C	-0.563566	0.854386	-0.278075
C97	C	-1.063596	0.354353	-0.931791
C98	C	-0.563596	0.854353	-0.431791
C99	C	-1.063610	0.354337	-1.015125
C100	C	-0.563610	0.854337	-0.515125
C101	C	-1.063550	0.354402	-0.694736
C102	C	-0.563550	0.854402	-0.194736
C103	C	-1.063496	0.354505	-0.163353
C104	C	-0.563496	0.854505	0.336647
C105	C	-1.063624	0.354323	-0.081555
C106	C	-0.563624	0.854323	0.418445
H107	H	-0.633578	0.439999	-0.439797
H108	H	-0.133578	0.939999	0.060203
H109	H	-0.978245	0.268965	-0.924666
H110	H	-0.478245	0.768965	-0.424666
H111	H	-0.494150	0.440002	-0.439813
H112	H	0.005850	0.940002	0.060187
F113	F	-0.966286	0.774802	-0.451643
F114	F	-0.466286	1.274802	0.048357
F115	F	-1.160702	0.451518	-0.934237
F116	F	-0.660702	0.951518	-0.434237
H117	H	-1.148916	0.439786	-0.785192
H118	H	-0.648916	0.939786	-0.285192
H119	H	-0.978123	0.923854	-0.439908
H120	H	-0.478123	1.423854	0.060092
F121	F	-0.484533	0.257233	-0.257598
F122	F	0.015467	0.757233	0.242402
H123	H	-1.148952	0.784404	-0.269260
H124	H	-0.648952	1.284404	0.230740
F125	F	-1.160792	0.933440	-0.257541
F126	F	-0.660792	1.433440	0.242459
F127	F	-0.643192	0.257217	-0.257582
F128	F	-0.143192	0.757217	0.242418
H129	H	-0.978223	0.268989	-0.785239
H130	H	-0.478223	0.768989	-0.285239
