data_functionalizedCrystal
_audit_creation_method	'MofGen! by Chris Wilmer'
_symmetry_space_group_name_H-M	'P1'
_symmetry_Int_Tables_number	1
_symmetry_cell_setting	triclinic
loop_
_symmetry_equiv_pos_as_xyz
  x,y,z
_cell_length_a	18.050591
_cell_length_b	16.625546
_cell_length_c	18.050582
_cell_angle_alpha	89.976222
_cell_angle_beta	89.979078
_cell_angle_gamma	90.018474
loop_
_atom_site_label
_atom_site_type_symbol
_atom_site_fract_x
_atom_site_fract_y
_atom_site_fract_z
Zn1	Zn	1.135322	-0.321139	-0.420025
Zn2	Zn	1.135245	-0.455966	-0.295833
Zn3	Zn	1.011141	-0.321142	-0.295836
Zn4	Zn	1.011102	-0.455924	-0.419968
O5	O	1.073203	-0.388543	-0.357916
O6	O	1.239237	-0.339040	-0.403573
O7	O	1.118767	-0.438101	-0.191908
O8	O	1.027663	-0.208309	-0.312336
O9	O	1.239180	-0.438098	-0.312329
O10	O	1.118898	-0.208307	-0.403577
O11	O	1.027588	-0.339046	-0.191911
O12	O	0.907212	-0.339005	-0.312280
O13	O	1.027596	-0.438025	-0.523900
O14	O	0.907183	-0.438028	-0.403479
O15	O	1.118860	-0.338999	-0.523942
O16	O	1.118729	-0.568793	-0.312274
O17	O	1.027521	-0.568762	-0.403476
C18	C	1.073132	-0.598034	-0.357884
C19	C	1.073170	-0.687655	-0.357896
C20	C	0.880251	-0.388513	-0.357874
C21	C	0.797705	-0.388519	-0.357875
C22	C	1.073300	-1.015830	-0.357973
C23	C	1.073261	-0.924522	-0.357954
C24	C	1.073235	-0.851745	-0.357934
C25	C	1.073197	-0.760431	-0.357916
C26	C	0.598248	-0.334608	-0.308395
C27	C	0.548836	-0.408150	-0.290117
C28	C	0.646574	-0.388544	-0.357908
C29	C	0.548906	-0.315027	-0.376184
C30	C	0.500589	-0.388561	-0.357939
C31	C	0.598249	-0.462124	-0.339595
C32	C	0.598323	-0.368952	-0.425693
C33	C	0.548933	-0.442545	-0.407441
C34	C	0.730673	-0.388533	-0.357888
C35	C	0.416493	-0.388580	-0.357959
C36	C	1.266908	-0.388573	-0.357957
C37	C	1.349454	-0.388586	-0.357975
C38	C	1.073232	-0.388507	-0.551621
C39	C	1.073244	-0.388492	-0.634167
C40	C	1.073294	-0.178234	-0.357963
C41	C	1.073332	-0.088613	-0.357983
C42	C	1.023653	-0.442268	-0.833595
C43	C	1.091410	-0.461983	-0.882993
C44	C	1.073281	-0.388430	-0.785297
C45	C	1.005561	-0.368693	-0.882981
C46	C	1.073310	-0.388372	-0.931283
C47	C	1.141073	-0.408183	-0.833608
C48	C	1.055179	-0.314859	-0.833592
C49	C	1.122983	-0.334546	-0.882968
C50	C	1.073263	-0.388466	-0.701199
C51	C	1.073336	-0.388337	-1.015379
C52	C	1.073216	-0.388520	-0.164963
C53	C	1.073348	-0.388308	-0.082418
H54	H	0.619902	-0.289045	-0.266477
H55	H	1.165013	-0.288992	-0.904509
H56	H	0.620077	-0.352347	-0.482987
H57	H	0.619833	-0.524322	-0.324087
N58	N	0.933701	-0.347765	-0.910174
N59	N	0.905572	-0.281520	-0.893450
H60	H	0.854819	-0.266744	-0.912652
N61	N	1.035919	-0.236861	-0.806355
N62	N	0.974445	-0.206820	-0.822144
H63	H	0.960835	-0.151732	-0.802908
H64	H	1.106738	-0.524176	-0.904692
N65	N	0.521564	-0.428939	-0.218220
N66	N	0.481049	-0.380904	-0.183649
H67	H	0.461792	-0.395580	-0.132869
N68	N	0.521945	-0.499843	-0.459985
N69	N	0.537913	-0.572611	-0.453062
H70	H	0.518853	-0.613081	-0.490168
H71	H	0.981723	-0.487857	-0.811917
N72	N	0.521714	-0.237023	-0.395551
N73	N	0.537523	-0.177577	-0.356233
H74	H	0.518320	-0.122484	-0.369905
H75	H	1.198372	-0.424923	-0.812011
