data_functionalizedCrystal
_audit_creation_method	'MofGen! by Chris Wilmer'
_symmetry_space_group_name_H-M	'P1'
_symmetry_Int_Tables_number	1
_symmetry_cell_setting	triclinic
loop_
_symmetry_equiv_pos_as_xyz
  x,y,z
_cell_length_a	13.635800
_cell_length_b	19.551823
_cell_length_c	11.102300
_cell_angle_alpha	85.476696
_cell_angle_beta	71.394150
_cell_angle_gamma	101.663376
loop_
_atom_site_label
_atom_site_type_symbol
_atom_site_fract_x
_atom_site_fract_y
_atom_site_fract_z
V1	V	-2.038264	-0.096675	0.396851
O2	O	-2.036122	0.004646	0.388685
O3	O	-2.009453	-0.191690	0.394725
O4	O	-2.026924	-0.095188	0.569663
O5	O	-2.018530	-0.092525	0.212536
V6	V	-2.279010	-0.084556	0.374734
O7	O	-2.171123	-0.123259	0.445366
O8	O	-2.371250	-0.057971	0.326218
O9	O	-2.196218	0.010460	0.376860
O10	O	-2.339850	-0.185876	0.382900
O11	O	-2.357442	-0.088706	0.559049
O12	O	-2.178747	-0.086043	0.201922
V13	V	-1.538264	-0.096675	0.396851
O14	O	-1.536122	0.004646	0.388685
O15	O	-1.509453	-0.191690	0.394725
O16	O	-1.526924	-0.095188	0.569663
O17	O	-1.518530	-0.092525	0.212536
V18	V	-1.779010	-0.084556	0.374734
O19	O	-1.671123	-0.123259	0.445366
O20	O	-1.871250	-0.057971	0.326218
O21	O	-1.696218	0.010460	0.376860
O22	O	-1.839850	-0.185876	0.382900
O23	O	-1.857442	-0.088706	0.559049
O24	O	-1.678747	-0.086043	0.201922
C25	C	-1.930415	-0.214853	0.388616
C26	C	-1.947587	-0.292529	0.388029
C27	C	-2.047010	-0.332574	0.394109
C28	C	-2.063148	-0.405560	0.393571
C29	C	-1.979852	-0.438496	0.386927
C30	C	-1.880416	-0.398441	0.380854
C31	C	-1.864284	-0.325458	0.381405
C32	C	-1.917240	-0.544984	0.306337
C33	C	-1.933374	-0.617965	0.305779
C34	C	-2.029607	-0.663602	0.385233
C35	C	-2.109716	-0.636247	0.465231
C36	C	-2.093584	-0.563263	0.465782
C37	C	-1.997334	-0.517634	0.386330
C38	C	-2.146536	-0.782788	0.390732
C39	C	-2.162672	-0.855776	0.390202
C40	C	-1.979934	-0.848654	0.377471
C41	C	-1.963803	-0.775669	0.378015
C42	C	-2.047106	-0.742739	0.384639
C43	C	-1.952701	-0.091753	0.611765
C44	C	-1.984040	-0.091166	0.753044
C45	C	-2.106926	0.033619	0.382965
C46	C	-2.079374	0.111294	0.383560
C47	C	-2.084640	-0.089479	0.159813
C48	C	-2.042920	-0.090063	0.018533
C49	C	-1.430415	-0.214853	0.388616
C50	C	-1.447587	-0.292529	0.388029
C51	C	-1.452701	-0.091753	0.611765
C52	C	-1.484040	-0.091166	0.753044
C53	C	-2.090137	-0.094380	0.825912
C54	C	-2.119577	-0.093826	0.958657
C55	C	-1.936813	-0.086847	0.945654
C56	C	-1.907374	-0.087396	0.812910
C57	C	-1.606926	0.033619	0.382965
C58	C	-1.579374	0.111294	0.383560
C59	C	-1.584640	-0.089479	0.159813
C60	C	-1.542920	-0.090063	0.018533
C61	C	-1.547024	-0.332569	0.394126
C62	C	-1.563177	-0.405556	0.393594
C63	C	-1.479891	-0.438501	0.386957
C64	C	-1.380447	-0.398455	0.380864
C65	C	-1.364297	-0.325470	0.381405
C66	C	-1.652431	0.151334	0.377467
C67	C	-1.626550	0.224320	0.378004
C68	C	-1.527613	0.257265	0.384644
C69	C	-1.454550	0.217220	0.390734
C70	C	-1.480429	0.144236	0.390187
C71	C	-1.590137	-0.094380	0.825912
C72	C	-1.619577	-0.093826	0.958657
C73	C	-1.436813	-0.086847	0.945654
C74	C	-1.407374	-0.087396	0.812910
H75	H	-2.114846	-0.305769	0.399512
Br76	Br	-1.229334	-0.271138	0.373122
Br77	Br	-1.694184	-0.099495	0.744668
Br78	Br	-1.267425	-0.443177	0.371853
Br79	Br	-1.725721	0.278652	0.369739
H80	H	-1.882841	-0.743062	0.373055
Br81	Br	-1.501828	-0.537554	0.386225
H82	H	-1.732996	0.124520	0.372061
H83	H	-1.506554	0.316694	0.385088
H84	H	-1.420935	0.111639	0.395160
Br85	Br	-2.259592	-0.738096	0.399749
Br86	Br	-1.729342	-0.271106	0.373154
H87	H	-1.820972	-0.084773	0.753576
Br88	Br	-1.832776	-0.081738	1.026911
H89	H	-1.374399	-0.083779	0.994414
H90	H	-1.373994	0.244055	0.396139
Br91	Br	-1.263372	-0.083029	0.714006
Br92	Br	-2.198092	-0.459920	0.401828
Br93	Br	-2.240327	-0.698172	0.573064
Br94	Br	-2.297619	-0.910127	0.398468
Br95	Br	-2.202294	-0.526140	0.574351
H96	H	-1.705969	-0.096442	1.017981
H97	H	-1.614850	-0.305755	0.399522
Br98	Br	-1.866889	-0.893346	0.368476
H99	H	-1.644155	-0.438151	0.398553
Br100	Br	-1.824665	-0.655081	0.197188
H101	H	-2.205969	-0.096442	1.017981
H102	H	-1.838869	-0.507831	0.241640
H103	H	-1.812597	-0.425262	0.375448
H104	H	-2.152566	-0.097449	0.777173
