data_functionalizedCrystal
_audit_creation_method	'MofGen! by Chris Wilmer'
_symmetry_space_group_name_H-M	'P1'
_symmetry_Int_Tables_number	1
_symmetry_cell_setting	triclinic
loop_
_symmetry_equiv_pos_as_xyz
  x,y,z
_cell_length_a	16.959453
_cell_length_b	18.215407
_cell_length_c	18.215399
_cell_angle_alpha	89.980167
_cell_angle_beta	90.028024
_cell_angle_gamma	89.979564
loop_
_atom_site_label
_atom_site_type_symbol
_atom_site_fract_x
_atom_site_fract_y
_atom_site_fract_z
Zn1	Zn	-0.314680	-1.125097	0.416115
Zn2	Zn	-0.446866	-1.125016	0.293049
Zn3	Zn	-0.314706	-1.002030	0.293063
Zn4	Zn	-0.446822	-1.002006	0.416074
O5	O	-0.380768	-1.063537	0.354575
O6	O	-0.332222	-1.228070	0.399802
O7	O	-0.429364	-1.108677	0.190067
O8	O	-0.204092	-1.018399	0.309409
O9	O	-0.429339	-1.228011	0.309386
O10	O	-0.204073	-1.108816	0.399815
O11	O	-0.332267	-1.018320	0.190077
O12	O	-0.332224	-0.899042	0.309369
O13	O	-0.429264	-1.018358	0.519064
O14	O	-0.429289	-0.899025	0.399745
O15	O	-0.332180	-1.108793	0.519094
O16	O	-0.557471	-1.108655	0.309345
O17	O	-0.557438	-1.018280	0.399731
C18	C	-0.380755	-0.872331	0.354554
C19	C	-0.380768	-0.790532	0.354563
C20	C	-0.380714	-1.063582	0.546528
C21	C	-0.380691	-1.063601	0.628327
C22	C	-0.586135	-1.063476	0.354548
C23	C	-0.673991	-1.063517	0.354561
C24	C	-1.045398	-1.110678	0.401739
C25	C	-1.045535	-1.016602	0.307521
C26	C	-0.962989	-1.016575	0.307504
C27	C	-0.921644	-1.063599	0.354606
C28	C	-0.962845	-1.110650	0.401725
C29	C	-0.921782	-0.969519	0.260392
C30	C	-0.839231	-0.969489	0.260374
C31	C	-0.797885	-1.016518	0.307472
C32	C	-0.839091	-1.063571	0.354592
C33	C	-0.797745	-1.110595	0.401694
C34	C	-0.838950	-1.157654	0.448811
C35	C	-0.921498	-1.157678	0.448823
C36	C	-0.715336	-1.016493	0.307460
C37	C	-0.715192	-1.110568	0.401680
C38	C	-0.174600	-1.063619	0.354619
C39	C	-0.086744	-1.063654	0.354637
C40	C	-0.380783	-1.255490	0.354597
C41	C	-0.380789	-1.337289	0.354606
C42	C	-0.431389	-0.602348	0.401562
C43	C	-0.431392	-0.525490	0.401571
C44	C	-0.330162	-0.525478	0.307605
C45	C	-0.330156	-0.602335	0.307600
C46	C	-0.380774	-0.640768	0.354577
C47	C	-0.380783	-0.487052	0.354591
C48	C	-0.380785	-0.403719	0.354601
C49	C	-0.380771	-0.724107	0.354569
C50	C	-0.380766	-1.063535	0.163369
C51	C	-0.380566	-1.063658	0.081571
C52	C	-0.330092	-1.110707	0.816538
C53	C	-0.330069	-1.110716	0.893397
C54	C	-0.431167	-1.016547	0.893354
C55	C	-0.431186	-1.016535	0.816497
C56	C	-0.380649	-1.063619	0.778091
C57	C	-0.380608	-1.063640	0.931807
C58	C	-0.380583	-1.063649	1.015141
C59	C	-0.380673	-1.063609	0.694752
H60	H	-0.681534	-1.148864	0.440034
H61	H	-0.472606	-0.494211	0.439832
H62	H	-0.288899	-1.149058	0.924698
C63	C	-0.486760	-0.964765	0.935603
H64	H	-0.479515	-0.971521	0.986883
H65	H	-0.475196	-0.915320	0.923002
H66	H	-0.539874	-0.975521	0.922994
H67	H	-0.472355	-0.978185	0.785192
H68	H	-0.955054	-1.195990	0.487184
C69	C	-0.793465	-1.209377	0.500619
H70	H	-0.738402	-1.202619	0.493858
H71	H	-0.806965	-1.198588	0.550059
H72	H	-0.806956	-1.258838	0.489890
H73	H	-1.079203	-0.978314	0.269176
C74	C	-1.090714	-1.162441	0.453563
H75	H	-1.054265	-1.190445	0.481607
H76	H	-1.122920	-1.134287	0.485608
H77	H	-1.122906	-1.194537	0.425438
C78	C	-0.967261	-0.917803	0.208581
H79	H	-1.022325	-0.924568	0.215330
H80	H	-0.953771	-0.868343	0.219298
H81	H	-0.953756	-0.928605	0.159140
H82	H	-0.805688	-0.931173	0.222008
H83	H	-0.681792	-0.978175	0.269101
C84	C	-0.487064	-0.644626	0.453235
H85	H	-0.479819	-0.695903	0.446498
H86	H	-0.475567	-0.632056	0.502702
H87	H	-0.540160	-0.632008	0.442371
H88	H	-0.288952	-0.494176	0.269356
H89	H	-0.288934	-0.633618	0.269339
H90	H	-0.288940	-1.149044	0.785271
