data_functionalizedCrystal
_audit_creation_method	'MofGen! by Chris Wilmer'
_symmetry_space_group_name_H-M	'P1'
_symmetry_Int_Tables_number	1
_symmetry_cell_setting	triclinic
loop_
_symmetry_equiv_pos_as_xyz
  x,y,z
_cell_length_a	27.440280
_cell_length_b	27.440280
_cell_length_c	17.917595
_cell_angle_alpha	116.970497
_cell_angle_beta	89.992754
_cell_angle_gamma	60.007024
loop_
_atom_site_label
_atom_site_type_symbol
_atom_site_fract_x
_atom_site_fract_y
_atom_site_fract_z
Zr1	Zr	0.472364	0.527780	0.093847
O2	O	0.397949	0.622666	0.208083
O3	O	0.495165	0.428193	0.058818
O4	O	0.499608	0.520990	0.208051
O5	O	0.390014	0.536864	-0.058857
O6	O	0.579810	0.520981	0.208037
O7	O	0.393506	0.529868	0.058850
O8	O	0.571863	0.354984	-0.058914
O9	O	0.397961	0.702861	0.208093
O10	O	0.564757	0.470889	0.043879
O11	O	0.502296	0.476116	-0.043953
O12	O	0.507527	0.585372	0.131749
O13	O	0.445066	0.590599	0.043917
Zr14	Zr	0.594707	0.538922	-0.093906
Zr15	Zr	0.600277	0.527766	0.093823
Zr16	Zr	0.466794	0.538936	-0.093882
Zr17	Zr	0.472383	0.655681	0.093863
Zr18	Zr	0.594688	0.411020	-0.093922
O19	O	0.571906	0.638509	-0.058877
O20	O	0.579826	0.622646	0.208050
O21	O	0.390029	0.638529	-0.058844
O22	O	0.669122	0.444036	-0.208142
O23	O	0.677042	0.428173	0.058785
O24	O	0.487245	0.444056	-0.208108
O25	O	0.677057	0.529838	0.058798
O26	O	0.567463	0.545712	-0.208110
O27	O	0.487261	0.545721	-0.208095
O28	O	0.673565	0.536833	-0.058909
O29	O	0.499635	0.702850	0.208075
O30	O	0.567436	0.363852	-0.208133
O31	O	0.669110	0.363841	-0.208152
O32	O	0.673537	0.354973	-0.058932
O33	O	0.393534	0.711729	0.058874
O34	O	0.495208	0.711718	0.058855
O35	O	0.559544	0.481330	-0.131808
O36	O	0.622004	0.476103	-0.043975
O37	O	0.564775	0.590586	0.043895
O38	O	0.502314	0.595813	-0.043938
C39	C	0.533512	0.373365	-0.000050
C40	C	0.533503	0.319067	-0.000057
C41	C	0.373535	0.533368	0.000000
C42	C	0.319233	0.533374	0.000010
C43	C	0.575795	0.044032	-0.064893
C44	C	0.575789	0.095054	-0.064896
O45	O	0.611733	0.087150	-0.120040
N46	N	0.533529	0.160896	-0.000039
C47	C	0.491276	0.175715	0.064830
O48	O	0.455331	0.236404	0.119996
C49	C	0.491285	0.124693	0.064836
C50	C	0.533544	0.058852	-0.000030
C51	C	0.618051	-0.021806	-0.129753
C52	C	0.618055	-0.072825	-0.129750
C53	C	0.575804	-0.058005	-0.064887
C54	C	0.533548	0.007833	-0.000027
C55	C	0.449034	0.139513	0.129709
C56	C	0.449047	0.088484	0.129710
C57	C	0.491306	0.022643	0.064843
C58	C	0.491302	-0.028365	0.064838
N59	N	0.533562	-0.094207	-0.000018
C60	C	0.575813	-0.109027	-0.064881
C61	C	0.491262	0.282862	0.064813
C62	C	0.491250	0.333883	0.064804
C63	C	0.575764	0.253218	-0.064922
C64	C	0.575773	0.202196	-0.064916
C65	C	0.533522	0.217020	-0.000044
C66	C	0.575819	-0.216166	-0.064871
C67	C	0.575819	-0.267185	-0.064865
C68	C	0.491307	-0.186516	0.064863
C69	C	0.491305	-0.135501	0.064854
C70	C	0.533566	-0.150331	-0.000017
O71	O	0.455378	-0.020511	0.119956
O72	O	0.611757	-0.169716	-0.120031
C73	C	0.012406	0.473582	-0.045921
C74	C	-0.038612	0.473579	-0.045929
O75	O	-0.039595	0.422757	-0.084963
N76	N	-0.094002	0.533337	-0.000060
C77	C	-0.098373	0.593103	0.045811
O78	O	-0.150171	0.643932	0.084824
C79	C	-0.047355	0.593106	0.045813
C80	C	0.008034	0.533343	-0.000051
C81	C	0.067793	0.413824	-0.091782
C82	C	0.118809	0.413828	-0.091772
C83	C	0.114437	0.473589	-0.045902
C84	C	0.059049	0.533347	-0.000041
C85	C	-0.051727	0.652872	0.091679
C86	C	-0.000703	0.652870	0.091677
C87	C	0.054687	0.593107	0.045813
C88	C	0.105692	0.593112	0.045838
N89	N	0.161082	0.533353	-0.000030
C90	C	0.165454	0.473592	-0.045900
C91	C	-0.205512	0.593092	0.045802
C92	C	-0.256529	0.593090	0.045805
C93	C	-0.196765	0.473565	-0.045936
C94	C	-0.145747	0.473568	-0.045934
C95	C	-0.150122	0.533334	-0.000066
C96	C	0.272588	0.473604	-0.045876
C97	C	0.323605	0.473612	-0.045860
C98	C	0.263836	0.593137	0.045877
C99	C	0.212823	0.593128	0.045865
C100	C	0.217203	0.533357	-0.000019
O101	O	0.106720	0.643907	0.084850
O102	O	0.217254	0.422772	-0.084916
C103	C	0.693536	0.533334	-0.000059
C104	C	0.747838	0.533328	-0.000069
C105	C	0.540503	0.519396	0.234791
C106	C	0.542867	0.514660	0.314487
C107	C	0.533559	0.693337	-0.000009
C108	C	0.533568	0.747635	-0.000002
C109	C	0.547199	0.506008	0.460418
C110	C	0.519862	0.560696	0.539530
C111	C	0.522273	0.555883	0.620731
C112	C	0.544790	0.510821	0.379208
C113	C	0.526565	0.547307	0.765151
C114	C	0.524193	0.552048	0.685458
C115	C	0.693512	0.373348	-0.000079
C116	C	0.747806	0.319045	-0.000096
C117	C	0.526544	0.387320	-0.234871
C118	C	0.524171	0.337759	-0.314574
C119	C	0.686544	0.387303	-0.234900
C120	C	0.738474	0.337736	-0.314613
C121	C	0.380527	0.679399	0.234841
C122	C	0.328597	0.728966	0.314554
C123	C	0.373559	0.693354	0.000021
C124	C	0.319265	0.747657	0.000038
C125	C	0.540527	0.679382	0.234812
C126	C	0.542900	0.728943	0.314515
C127	C	0.743421	0.290821	0.045763
C128	C	0.794432	0.239803	0.045764
C129	C	0.849828	0.217007	-0.000099
C130	C	0.854212	0.245235	-0.045959
C131	C	0.803201	0.296255	-0.045955
C132	C	0.552940	0.317206	-0.397870
C133	C	0.550708	0.270646	-0.472767
C134	C	0.519711	0.244635	-0.464365
C135	C	0.490939	0.265192	-0.381060
C136	C	0.493168	0.311755	-0.306165
C137	C	0.795470	0.311730	-0.306200
C138	C	0.844269	0.265163	-0.381091
C139	C	0.836070	0.244599	-0.464396
C140	C	0.779069	0.270610	-0.472807
C141	C	0.730271	0.317179	-0.397917
C142	C	0.271601	0.754978	0.306141
C143	C	0.222802	0.801561	0.381032
C144	C	0.231001	0.822127	0.464337
C145	C	0.288002	0.796114	0.472749
C146	C	0.336800	0.749535	0.397858
C147	C	0.323650	0.775886	-0.045814
C148	C	0.272640	0.826917	-0.045795
C149	C	0.217244	0.849715	0.000071
C150	C	0.212860	0.821484	0.045928
C151	C	0.263870	0.770457	0.045914
C152	C	0.573902	0.754940	0.306085
C153	C	0.576143	0.801502	0.380967
C154	C	0.547378	0.822070	0.464279
C155	C	0.516374	0.796068	0.472707
C156	C	0.514137	0.749504	0.397825
H157	H	0.610232	-0.320797	-0.117690
F158	F	-0.315475	0.656697	0.094632
F159	F	0.684470	0.315075	0.094583
F160	F	-0.110668	0.716481	0.140488
H161	H	0.191261	0.860055	0.525310
H162	H	0.175713	0.891264	0.000076
F163	F	0.604521	0.733058	0.217426
F164	F	0.620733	0.237454	-0.133953
H165	H	0.456879	-0.081887	0.117652
H166	H	0.176393	0.822734	0.374166
F167	F	0.904929	0.237487	-0.372120
F168	F	0.382601	0.751634	-0.094631
H169	H	0.167750	0.840054	0.083271
H170	H	0.772402	0.253860	-0.540644
F171	F	0.609138	0.829169	0.371979
F172	F	-0.005365	0.716483	0.140494
F173	F	-0.210177	0.656707	0.094631
H174	H	0.683864	0.338347	-0.404779
H175	H	0.167722	0.641791	0.083222
H176	H	0.549204	0.859986	0.525245
H177	H	0.260291	0.747475	0.083249
F178	F	0.904113	0.162705	-0.000096
H179	H	0.294671	0.812865	0.540584
H180	H	0.260286	0.641793	0.083226
H181	H	0.383207	0.728356	0.404719
H182	H	0.494647	0.611132	0.546277
H183	H	0.574139	0.253914	-0.540590
F184	F	0.580150	0.440090	0.451601
F185	F	0.789754	0.209767	0.094574
H186	H	0.802157	0.328466	-0.238376
F187	F	0.913173	0.220965	-0.094769
F188	F	0.807877	0.326285	-0.094773
H189	H	0.578181	0.338380	-0.404728
F190	F	0.888011	0.195034	-0.544094
H191	H	0.517900	0.206720	-0.525356
H192	H	0.264914	0.738235	0.238317
H193	H	0.652460	-0.033885	-0.182574
F194	F	0.485758	0.817969	0.561380
F195	F	0.277318	0.856951	-0.094607
F196	F	0.457952	0.237502	-0.372132
H197	H	0.456905	-0.174460	0.117670
F198	F	0.177754	0.350220	-0.140593
F199	F	0.481134	0.721846	0.406810
H200	H	0.610232	-0.228250	-0.117695
H201	H	0.610184	0.148588	-0.117735
F202	F	0.663035	-0.142895	-0.198789
F203	F	0.446285	0.298648	0.133857
F204	F	0.446265	0.403954	0.133833
F205	F	0.404055	0.209579	0.198748
F206	F	0.404078	0.104267	0.198759
H207	H	0.368705	0.424944	-0.083211
H208	H	0.276162	0.424932	-0.083240
F209	F	0.462549	0.333620	-0.217517
H210	H	0.071363	0.365157	-0.129139
H211	H	-0.100650	0.424904	-0.083288
H212	H	-0.193213	0.424904	-0.083283
