data_functionalizedCrystal
_audit_creation_method	'MofGen! by Chris Wilmer'
_symmetry_space_group_name_H-M	'P1'
_symmetry_Int_Tables_number	1
_symmetry_cell_setting	triclinic
loop_
_symmetry_equiv_pos_as_xyz
  x,y,z
_cell_length_a	19.288867
_cell_length_b	10.540539
_cell_length_c	18.366186
_cell_angle_alpha	89.995944
_cell_angle_beta	89.992441
_cell_angle_gamma	83.831280
loop_
_atom_site_label
_atom_site_type_symbol
_atom_site_fract_x
_atom_site_fract_y
_atom_site_fract_z
O1	O	0.922408	0.158357	-0.060521
O2	O	0.720291	0.179715	-0.060527
O3	O	0.825961	-0.015773	-0.060523
O4	O	0.816738	0.353845	-0.060525
O5	O	0.825943	-0.015783	0.060576
O6	O	0.720272	0.179705	0.060572
O7	O	0.922390	0.158348	0.060579
Zn8	Zn	0.821328	0.169025	0.079802
Zn9	Zn	0.821352	0.169037	-0.079751
O10	O	0.816720	0.353836	0.060574
C11	C	0.694400	0.179022	0.000021
C12	C	0.617283	0.176958	0.000019
C13	C	0.825260	-0.063066	0.000025
C14	C	0.823191	-0.203968	0.000021
C15	C	0.061628	0.162095	-0.065984
C16	C	0.134089	0.164027	-0.065987
C17	C	0.170314	0.164994	0.000024
C18	C	0.134075	0.163995	0.066043
C19	C	0.061617	0.162051	0.066044
C20	C	0.280150	0.242414	0.050597
C21	C	0.352607	0.244366	0.050593
C22	C	0.393800	0.170986	0.000025
C23	C	0.362526	0.095669	-0.050553
C24	C	0.290068	0.093725	-0.050552
C25	C	0.248883	0.167101	0.000031
C26	C	0.508601	0.174070	-0.065993
C27	C	0.581063	0.175994	-0.065993
C28	C	0.581047	0.175975	0.066039
C29	C	0.508587	0.174038	0.066037
C30	C	0.472367	0.173092	0.000019
C31	C	0.743902	-0.385628	-0.000253
C32	C	0.745999	-0.239057	0.000020
C33	C	0.860328	-0.266458	0.069176
C34	C	0.857694	-0.412944	0.069234
C35	C	0.859284	-0.413486	-0.068478
C36	C	0.859996	-0.266520	-0.069392
C37	C	0.948280	0.159040	0.000028
C38	C	1.025398	0.161104	0.000026
C39	C	0.817421	0.401128	0.000024
C40	C	0.819490	0.542030	0.000023
N41	N	0.821317	0.169016	0.188694
N42	N	0.821369	0.169037	-0.188642
C43	C	0.868124	0.082496	0.226796
C44	C	0.868128	0.082490	0.303024
C45	C	0.821333	0.169026	0.341146
C46	C	0.774517	0.255552	0.303035
C47	C	0.774510	0.255547	0.226808
C48	C	0.812806	0.284680	0.461906
C49	C	0.812819	0.284687	0.538131
C50	C	0.821352	0.169042	0.576254
C51	C	0.829888	0.053384	0.538143
C52	C	0.829881	0.053379	0.461916
C53	C	0.821335	0.169041	0.423801
C54	C	0.868166	0.082509	0.697011
C55	C	0.868166	0.082501	0.773240
C56	C	0.774558	0.255575	0.773250
C57	C	0.774556	0.255571	0.697022
C58	C	0.821363	0.169039	0.658907
H59	H	0.032144	0.161319	-0.119741
Br60	Br	0.630236	0.177319	-0.155586
Br61	Br	0.459442	0.172779	-0.155586
H62	H	0.378062	0.305725	0.091761
H63	H	0.805845	0.378859	0.430872
Br64	Br	0.817651	-0.465122	-0.155841
Br65	Br	0.841458	-0.103575	0.410196
H66	H	0.610541	0.176758	0.119786
Br67	Br	0.710981	0.372974	0.175093
Br68	Br	0.459411	0.172712	0.155627
Br69	Br	0.815093	-0.196589	-0.154676
H70	H	0.396064	0.035920	-0.091733
H71	H	0.246617	0.302163	0.091784
Br72	Br	0.711042	0.373004	0.824981
Br73	Br	0.183236	0.165297	0.155630
H74	H	0.713417	-0.413545	-0.049845
H75	H	0.163593	0.164841	-0.119742
Br76	Br	0.012443	0.160709	0.155636
H77	H	0.836837	-0.040785	0.569181
H78	H	0.906278	0.012046	0.665977
H79	H	0.736415	0.326009	0.334078
Br80	Br	0.953798	-0.228231	-0.076357
H81	H	0.906235	0.012034	0.195765
Br82	Br	0.697294	-0.166950	-0.082606
H83	H	0.915039	-0.461954	-0.068941
Br84	Br	0.693124	-0.435458	0.081686
H85	H	0.716557	-0.196649	0.049673
Br86	Br	0.954812	-0.231313	0.073469
H87	H	0.264609	0.032397	-0.091733
H88	H	0.906245	0.012033	0.334052
H89	H	0.906279	0.012040	0.804264
Br90	Br	0.811920	-0.458940	0.155391
H91	H	0.913208	-0.462149	0.072373
H92	H	0.834516	-0.223288	0.120637
H93	H	0.736444	0.326029	0.665997
Br94	Br	0.801242	0.441648	0.589845
