data_functionalizedCrystal
_audit_creation_method	'MofGen! by Chris Wilmer'
_symmetry_space_group_name_H-M	'P1'
_symmetry_Int_Tables_number	1
_symmetry_cell_setting	triclinic
loop_
_symmetry_equiv_pos_as_xyz
  x,y,z
_cell_length_a	10.685980
_cell_length_b	13.031981
_cell_length_c	10.686551
_cell_angle_alpha	79.021812
_cell_angle_beta	81.591741
_cell_angle_gamma	100.943887
loop_
_atom_site_label
_atom_site_type_symbol
_atom_site_fract_x
_atom_site_fract_y
_atom_site_fract_z
Zn1	Zn	1.956040	-0.239328	-0.826912
Zn2	Zn	2.456040	0.260672	-0.326912
Zn3	Zn	1.907492	-0.432764	-0.582487
Zn4	Zn	2.407492	0.067236	-0.082487
Zn5	Zn	1.722532	-0.269046	-0.593435
Zn6	Zn	2.222532	0.230954	-0.093435
Zn7	Zn	1.711633	-0.432660	-0.778414
Zn8	Zn	2.211633	0.067340	-0.278414
O9	O	1.824424	-0.343450	-0.695312
O10	O	2.324424	0.156550	-0.195312
O11	O	2.129292	-0.252594	-0.810203
O12	O	2.629292	0.247406	-0.310203
O13	O	1.867200	-0.423527	-0.404232
O14	O	2.367200	0.076473	0.095768
O15	O	1.778386	-0.115678	-0.649285
O16	O	2.278386	0.384322	-0.149285
O17	O	2.093624	-0.394710	-0.630625
O18	O	2.593624	0.105290	-0.130625
O19	O	1.949944	-0.093844	-0.820819
O20	O	2.449944	0.406156	-0.320819
O21	O	1.731311	-0.303245	-0.412276
O22	O	2.231311	0.196755	0.087724
O23	O	1.541394	-0.303144	-0.602259
O24	O	2.041394	0.196856	-0.102259
O25	O	1.759810	-0.394533	-0.964555
O26	O	2.259810	0.105467	-0.464555
O27	O	1.533387	-0.423350	-0.738162
O28	O	2.033387	0.076650	-0.238162
O29	O	1.939376	-0.252493	-1.000186
O30	O	2.439376	0.247507	-0.500186
O31	O	1.856632	-0.582176	-0.583598
O32	O	2.356632	-0.082176	-0.083598
O33	O	1.712735	-0.582100	-0.727546
O34	O	2.212735	-0.082100	-0.227546
C35	C	1.490798	-0.366461	-0.666136
C36	C	1.990798	0.133539	-0.166136
C37	C	1.348070	-0.376330	-0.653681
C38	C	1.848070	0.123670	-0.153681
C39	C	1.778270	-0.620879	-0.649152
C40	C	2.278270	-0.120879	-0.149152
C41	C	1.758646	-0.739553	-0.629458
C42	C	2.258646	-0.239553	-0.129458
C43	C	1.834737	-0.781573	-0.705622
C44	C	2.334737	-0.281573	-0.205622
C45	C	1.814456	-0.904229	-0.685269
C46	C	2.314456	-0.404229	-0.185269
C47	C	2.159353	-0.320349	-0.724602
C48	C	2.659353	0.179651	-0.224602
C49	C	2.302080	-0.310504	-0.737084
C50	C	2.802080	0.189496	-0.237084
C51	C	1.853793	-0.320187	-1.030269
C52	C	2.353793	0.179813	-0.530269
C53	C	1.866308	-0.310273	-1.173008
C54	C	2.366308	0.189727	-0.673008
C55	C	1.870796	-0.064933	-0.741683
C56	C	2.370796	0.435067	-0.241683
C57	C	1.890557	0.053754	-0.761444
C58	C	2.390557	0.553754	-0.261444
C59	C	1.795257	-0.366540	-0.361677
C60	C	2.295257	0.133460	0.138323
C61	C	1.783040	-0.376135	-0.219011
C62	C	2.283040	0.123865	0.280989
H63	H	1.914891	-0.726745	-0.785902
H64	H	2.414891	-0.226745	-0.285902
F65	F	1.972018	-0.226658	-1.264264
F66	F	2.472018	0.273342	-0.764264
H67	H	1.734287	-0.959056	-0.604995
H68	H	2.234287	-0.459056	-0.104995
H69	H	1.278245	-0.440239	-0.572736
H70	H	1.778245	0.059761	-0.072736
H71	H	1.970717	-0.891420	-0.841728
H72	H	2.470717	-0.391420	-0.341728
F73	F	1.393334	-0.226966	-0.842872
F74	F	1.893334	0.273034	-0.342872
H75	H	1.678483	-0.794383	-0.549190
H76	H	2.178483	-0.294383	-0.049190
F77	F	1.677347	-0.459756	-1.127760
F78	F	2.177347	0.040244	-0.627760
