data_functionalizedCrystal
_audit_creation_method	'MofGen! by Chris Wilmer'
_symmetry_space_group_name_H-M	'P1'
_symmetry_Int_Tables_number	1
_symmetry_cell_setting	triclinic
loop_
_symmetry_equiv_pos_as_xyz
  x,y,z
_cell_length_a	9.065215
_cell_length_b	19.188930
_cell_length_c	17.666332
_cell_angle_alpha	89.986373
_cell_angle_beta	90.009271
_cell_angle_gamma	84.079739
loop_
_atom_site_label
_atom_site_type_symbol
_atom_site_fract_x
_atom_site_fract_y
_atom_site_fract_z
O1	O	1.956823	0.102366	-0.062950
O2	O	2.456823	0.602366	0.437050
O3	O	1.527247	0.110765	-0.062954
O4	O	2.027247	0.610765	0.437046
O5	O	1.754432	0.005006	-0.062937
O6	O	2.254432	0.505006	0.437063
O7	O	1.729638	0.208125	-0.062967
O8	O	2.229638	0.708125	0.437033
O9	O	1.754471	0.004992	0.062960
O10	O	2.254471	0.504992	0.562960
O11	O	1.527286	0.110751	0.062943
O12	O	2.027286	0.610751	0.562943
O13	O	1.956863	0.102352	0.062947
O14	O	2.456863	0.602352	0.562947
Cu15	Cu	1.742078	0.106550	0.074440
Cu16	Cu	2.242078	0.606550	0.574440
Cu17	Cu	1.742031	0.106567	-0.074447
Cu18	Cu	2.242031	0.606567	0.425553
O19	O	1.729678	0.208111	0.062930
O20	O	2.229678	0.708111	0.562930
C21	C	1.472308	0.109951	-0.000006
C22	C	1.972308	0.609951	0.499994
C23	C	1.308548	0.107539	-0.000007
C24	C	1.808548	0.607539	0.499993
C25	C	1.753648	-0.021018	0.000014
C26	C	2.253648	0.478982	0.500014
C27	C	1.751238	-0.098541	0.000020
C28	C	2.251238	0.401459	0.500020
C29	C	2.011802	0.103166	-0.000003
C30	C	2.511802	0.603166	0.499997
C31	C	2.175561	0.105578	-0.000007
C32	C	2.675561	0.605578	0.499993
C33	C	1.884543	-0.142430	0.000025
C34	C	2.384543	0.357570	0.500025
C35	C	1.882279	-0.215272	0.000013
C36	C	2.382279	0.284728	0.500013
C37	C	1.746702	-0.244221	0.000011
C38	C	2.246702	0.255779	0.500011
C39	C	1.613380	-0.200322	0.000002
C40	C	2.113380	0.299678	0.500002
C41	C	1.615648	-0.127482	0.000007
C42	C	2.115648	0.372518	0.500007
N43	N	1.643083	-0.353035	0.042855
N44	N	2.143083	0.146965	0.542855
N45	N	1.640938	-0.422230	0.042852
N46	N	2.140938	0.077770	0.542852
C47	C	1.739860	-0.463683	-0.000004
C48	C	2.239860	0.036317	0.499996
N49	N	1.841032	-0.433327	-0.042849
N50	N	2.341032	0.066673	0.457151
N51	N	1.843182	-0.364125	-0.042843
N52	N	2.343182	0.135875	0.457157
C53	C	1.744228	-0.323202	0.000006
C54	C	2.244228	0.176798	0.500006
C55	C	1.870719	-0.586555	-0.000014
C56	C	2.370719	-0.086555	0.499986
C57	C	1.868449	-0.659397	-0.000030
C58	C	2.368449	-0.159397	0.499970
C59	C	1.599546	-0.644446	-0.000034
C60	C	2.099546	-0.144446	0.499966
C61	C	1.601820	-0.571605	-0.000025
C62	C	2.101820	-0.071605	0.499975
C63	C	1.737410	-0.542664	-0.000011
C64	C	2.237410	-0.042664	0.499989
C65	C	1.730461	0.234135	-0.000022
C66	C	2.230461	0.734135	0.499978
C67	C	1.732871	0.311659	-0.000034
C68	C	2.232871	0.811659	0.499966
N69	N	1.741999	0.106573	-0.179166
N70	N	2.241999	0.606573	0.320834
C71	C	1.831013	0.149588	-0.218786
C72	C	2.331013	0.649588	0.281214
C73	C	1.831023	0.149589	-0.298034
C74	C	2.331023	0.649589	0.201966
C75	C	1.742036	0.106562	-0.337659
C76	C	2.242036	0.606562	0.162341
C77	C	1.653004	0.063544	-0.298029
C78	C	2.153004	0.563544	0.201971
C79	C	1.652986	0.063550	-0.218783
C80	C	2.152986	0.563550	0.281217
N81	N	1.738753	0.045349	-0.462063
N82	N	2.238753	0.545349	0.037937
N83	N	1.738779	0.045345	-0.537343
N84	N	2.238779	0.545345	-0.037343
C85	C	1.742083	0.106543	-0.576423
C86	C	2.242083	0.606543	-0.076423
N87	N	1.745390	0.167746	-0.537378
N88	N	2.245390	0.667746	-0.037378
N89	N	1.745372	0.167749	-0.462090
N90	N	2.245372	0.667749	0.037910
C91	C	1.742045	0.106551	-0.423588
C92	C	2.242045	0.606551	0.076412
C93	C	1.831112	0.149563	-0.701972
C94	C	2.331112	0.649563	-0.201972
C95	C	1.831111	0.149565	-0.781221
C96	C	2.331111	0.649565	-0.281221
C97	C	1.653101	0.063514	-0.781215
C98	C	2.153101	0.563514	-0.281215
C99	C	1.653093	0.063518	-0.701967
C100	C	2.153093	0.563518	-0.201967
C101	C	1.742107	0.106542	-0.662350
C102	C	2.242107	0.606542	-0.162350
N103	N	1.742121	0.106538	0.179160
N104	N	2.242121	0.606538	0.679160
H105	H	1.990835	-0.251013	0.000014
H106	H	2.490835	0.248987	0.500014
H107	H	1.580638	0.028485	-0.813477
H108	H	2.080638	0.528485	-0.313477
H109	H	1.502992	-0.223897	-0.000001
H110	H	2.002992	0.276103	0.499999
H111	H	1.493268	-0.535870	-0.000024
H112	H	1.993268	-0.035870	0.499976
H113	H	1.977006	-0.695132	-0.000031
H114	H	2.477006	-0.195132	0.499969
C115	C	1.887821	0.266976	-0.805635
C116	C	2.387821	0.766976	-0.305635
C117	C	1.928963	0.196854	-0.824770
C118	C	2.428963	0.696854	-0.324770
H119	H	1.948240	0.296169	-0.832517
H120	H	2.448240	0.796169	-0.332517
H121	H	1.786792	0.279193	-0.818643
H122	H	2.286792	0.779193	-0.318643
H123	H	1.900552	0.273122	-0.752766
H124	H	2.400552	0.773122	-0.252766
H125	H	1.916221	0.190706	-0.877638
H126	H	2.416221	0.690706	-0.377638
H127	H	2.030016	0.184632	-0.811766
H128	H	2.530016	0.684632	-0.311766
H129	H	1.903492	0.184622	-0.186535
H130	H	2.403492	0.684622	0.313465
H131	H	1.580616	0.028488	-0.669709
H132	H	2.080616	0.528488	-0.169709
H133	H	1.580498	0.028521	-0.186525
H134	H	2.080498	0.528521	0.313475
C135	C	1.462183	-0.036878	-0.064711
C136	C	1.962183	0.463122	0.435289
C137	C	1.469107	-0.079236	0.000004
C138	C	1.969107	0.420764	0.500004
H139	H	1.371709	-0.007096	-0.064713
H140	H	1.871709	0.492904	0.435287
H141	H	1.543243	-0.009218	-0.064699
H142	H	2.043243	0.490782	0.435301
H143	H	1.466877	-0.065598	-0.108612
H144	H	1.966877	0.434402	0.391388
H145	H	1.464424	-0.050516	0.043905
H146	H	1.964424	0.449484	0.543905
H147	H	1.388025	-0.106899	-0.000001
H148	H	1.888025	0.393101	0.499999
H149	H	1.981125	-0.562990	-0.000006
H150	H	2.481125	-0.062990	0.499994
C151	C	2.150111	-0.164531	0.000031
C152	C	2.650111	0.335469	0.500031
C153	C	2.033582	-0.110619	0.000032
C154	C	2.533582	0.389381	0.500032
H155	H	2.242120	-0.144889	0.000030
H156	H	2.742120	0.355111	0.500030
H157	H	2.143643	-0.192639	0.043930
H158	H	2.643643	0.307361	0.543930
H159	H	2.143610	-0.192619	-0.043876
H160	H	2.643610	0.307381	0.456124
H161	H	2.040077	-0.082534	0.043942
H162	H	2.540077	0.417466	0.543942
H163	H	2.040053	-0.082499	-0.043871
H164	H	2.540053	0.417501	0.456129
H165	H	1.489157	-0.668016	-0.000039
H166	H	1.989157	-0.168016	0.499961
C167	C	2.007007	0.234633	-0.290088
C168	C	2.507007	0.734633	0.209912
C169	C	1.928882	0.196870	-0.341596
C170	C	2.428882	0.696870	0.158404
H171	H	2.067428	0.263817	-0.316981
H172	H	2.567428	0.763817	0.183019
H173	H	1.938834	0.262746	-0.259201
H174	H	2.438834	0.762746	0.240799
H175	H	2.067763	0.202942	-0.259156
H176	H	2.567763	0.702942	0.240844
H177	H	1.868118	0.228560	-0.372524
H178	H	2.368118	0.728560	0.127476
H179	H	1.997064	0.168754	-0.372495
H180	H	2.497064	0.668754	0.127505
H181	H	1.580548	0.028513	-0.330297
H182	H	2.080548	0.528513	0.169703
H183	H	1.903585	0.184598	-0.669714
H184	H	2.403585	0.684598	-0.169714
