data_functionalizedCrystal
_audit_creation_method	'MofGen! by Chris Wilmer'
_symmetry_space_group_name_H-M	'P1'
_symmetry_Int_Tables_number	1
_symmetry_cell_setting	triclinic
loop_
_symmetry_equiv_pos_as_xyz
  x,y,z
_cell_length_a	10.654550
_cell_length_b	16.109301
_cell_length_c	9.730223
_cell_angle_alpha	89.997247
_cell_angle_beta	89.996251
_cell_angle_gamma	83.973192
loop_
_atom_site_label
_atom_site_type_symbol
_atom_site_fract_x
_atom_site_fract_y
_atom_site_fract_z
O1	O	1.666250	0.116770	-0.114408
O2	O	1.300620	0.127896	-0.114386
O3	O	1.493479	0.001362	-0.114384
O4	O	1.473391	0.243304	-0.114410
O5	O	1.493477	0.001365	0.114196
O6	O	1.300618	0.127899	0.114194
O7	O	1.666248	0.116773	0.114172
Zn8	Zn	1.483433	0.122337	0.150475
Zn9	Zn	1.483436	0.122332	-0.150689
O10	O	1.473389	0.243307	0.114170
C11	C	1.253832	0.127080	-0.000093
C12	C	1.114422	0.124636	-0.000085
C13	C	1.033926	0.199138	-0.000113
C14	C	0.902936	0.196836	-0.000136
C15	C	0.932952	0.045526	-0.000109
C16	C	1.063939	0.047828	-0.000076
C17	C	1.016595	0.286496	-0.000135
C18	C	0.885606	0.284194	-0.000158
C19	C	1.492665	-0.029616	-0.000093
C20	C	1.490225	-0.121926	-0.000091
C21	C	1.598991	-0.343552	-0.000119
C22	C	1.596689	-0.430286	-0.000130
C23	C	1.367868	-0.411772	-0.000111
C24	C	1.370172	-0.325040	-0.000110
C25	C	1.485737	-0.290932	-0.000107
C26	C	1.481131	-0.464399	-0.000119
C27	C	1.478634	-0.558440	-0.000131
C28	C	1.488234	-0.196885	-0.000097
C29	C	1.713036	0.117589	-0.000124
C30	C	1.852446	0.120033	-0.000141
C31	C	1.474204	0.274286	-0.000124
C32	C	1.476643	0.366595	-0.000135
N33	N	1.483440	0.122339	0.356011
N34	N	1.483438	0.122324	-0.356225
C35	C	1.568859	0.066329	0.427939
C36	C	1.568856	0.066319	0.571822
C37	C	1.398010	0.178336	0.571837
C38	C	1.398008	0.178342	0.427957
C39	C	1.667500	0.001659	0.427931
C40	C	1.667497	0.001649	0.571814
H41	H	1.051874	0.314310	-0.098825
H42	H	1.763815	0.015894	0.610857
O43	O	1.141955	-0.024620	-0.000092
C44	C	1.157899	-0.174942	0.000047
C45	C	1.069402	-0.092954	0.000029
H46	H	1.099275	-0.230211	0.000175
H47	H	1.219982	-0.177717	-0.095616
H48	H	1.219968	-0.177589	0.095705
H49	H	1.007254	-0.090252	-0.095564
H50	H	1.007405	-0.090213	0.095756
O51	O	1.706788	-0.481315	-0.000321
C52	C	1.901623	-0.523698	-0.118797
C53	C	1.776991	-0.465848	-0.118732
H54	H	1.958406	-0.511226	-0.214537
H55	H	1.958580	-0.511204	-0.023203
H56	H	1.880104	-0.591541	-0.118737
H57	H	1.798396	-0.397984	-0.118841
H58	H	1.720071	-0.478413	-0.214318
O59	O	1.314975	0.232824	0.358299
C60	C	1.145452	0.343884	0.373505
C61	C	1.239443	0.282240	0.452562
H62	H	1.084341	0.383840	0.449682
H63	H	1.199568	0.385818	0.306176
H64	H	1.082801	0.307581	0.306112
H65	H	1.302117	0.318475	0.520029
H66	H	1.185248	0.240305	0.519804
H67	H	0.891833	-0.017009	-0.000123
H68	H	0.843427	0.317108	-0.095829
H69	H	1.273779	-0.439553	-0.000111
H70	H	1.277941	-0.282194	-0.000104
H71	H	1.328452	0.223932	0.630431
O72	O	0.830875	0.315751	0.117621
C73	C	0.862235	0.377293	0.339051
C74	C	0.924378	0.341600	0.205727
H75	H	0.937806	0.398185	0.410333
H76	H	0.790998	0.432965	0.313414
H77	H	0.811893	0.327092	0.392149
H78	H	0.974788	0.391741	0.152563
H79	H	0.995547	0.285909	0.231453
O80	O	1.711167	-0.310320	-0.000314
C81	C	1.846590	-0.223179	-0.118797
C82	C	1.719492	-0.260739	-0.118724
H83	H	1.853374	-0.183099	-0.214536
H84	H	1.853417	-0.182985	-0.023202
H85	H	1.927119	-0.275703	-0.118744
H86	H	1.638890	-0.208269	-0.118825
H87	H	1.712775	-0.300955	-0.214311
H88	H	1.045462	0.320662	0.095527
O89	O	1.642877	-0.074608	0.381568
C90	C	1.598183	-0.213612	0.441651
C91	C	1.626027	-0.127276	0.494342
H92	H	1.584578	-0.256223	0.532801
H93	H	1.508694	-0.206620	0.376620
H94	H	1.680762	-0.241926	0.376506
H95	H	1.543526	-0.098914	0.559544
H96	H	1.715560	-0.134322	0.559298
H97	H	1.758409	0.021908	0.383296
O98	O	1.631880	-0.070324	0.625111
C99	C	1.482956	-0.133693	0.767037
C100	C	1.523134	-0.052124	0.706753
H101	H	1.395047	-0.119005	0.833080
H102	H	1.461437	-0.177287	0.679828
H103	H	1.562712	-0.165173	0.832910
H104	H	1.443429	-0.020574	0.640895
H105	H	1.544695	-0.008590	0.794027
