data_functionalizedCrystal
_audit_creation_method	'MofGen! by Chris Wilmer'
_symmetry_space_group_name_H-M	'P1'
_symmetry_Int_Tables_number	1
_symmetry_cell_setting	triclinic
loop_
_symmetry_equiv_pos_as_xyz
  x,y,z
_cell_length_a	11.026607
_cell_length_b	9.065218
_cell_length_c	7.540329
_cell_angle_alpha	89.998243
_cell_angle_beta	89.997535
_cell_angle_gamma	96.800951
loop_
_atom_site_label
_atom_site_type_symbol
_atom_site_fract_x
_atom_site_fract_y
_atom_site_fract_z
O1	O	1.616971	0.619586	-0.147471
O2	O	1.950304	0.952919	0.185863
O3	O	2.283637	1.286252	0.519196
O4	O	1.262889	0.549033	-0.147474
O5	O	1.596222	0.882366	0.185859
O6	O	1.929556	1.215700	0.519192
O7	O	1.447249	0.371492	-0.147469
O8	O	1.780582	0.704825	0.185864
O9	O	2.113915	1.038159	0.519198
O10	O	1.432611	0.797127	-0.147476
O11	O	1.765944	1.130460	0.185857
O12	O	2.099278	1.463793	0.519190
O13	O	1.447238	0.371486	0.147496
O14	O	1.780571	0.704820	0.480830
O15	O	2.113904	1.038153	0.814163
O16	O	1.262878	0.549027	0.147491
O17	O	1.596211	0.882361	0.480824
O18	O	1.929545	1.215694	0.814157
O19	O	1.616960	0.619580	0.147494
O20	O	1.950293	0.952913	0.480828
O21	O	2.283626	1.286247	0.814161
Cu22	Cu	1.439918	0.584303	0.174425
Cu23	Cu	1.773251	0.917636	0.507759
Cu24	Cu	2.106584	1.250970	0.841092
Cu25	Cu	1.439931	0.584310	-0.174405
Cu26	Cu	1.773264	0.917643	0.158928
Cu27	Cu	2.106598	1.250977	0.492261
O28	O	1.432600	0.797121	0.147489
O29	O	1.765933	1.130454	0.480822
O30	O	2.099267	1.463788	0.814156
C31	C	1.445836	0.316152	0.000011
C32	C	1.779170	0.649485	0.333344
C33	C	2.112503	0.982818	0.666677
C34	C	1.441630	0.151260	0.000002
C35	C	1.774963	0.484593	0.333336
C36	C	2.108297	0.817927	0.666669
C37	C	1.217530	0.536015	0.000008
C38	C	1.550863	0.869348	0.333341
C39	C	1.884196	1.202681	0.666674
C40	C	1.082389	0.497214	0.000006
C41	C	1.415723	0.830548	0.333339
C42	C	1.749056	1.163881	0.666673
C43	C	1.009761	0.604348	0.000003
C44	C	1.343094	0.937682	0.333336
C45	C	1.676428	1.271015	0.666670
C46	C	0.870086	0.564249	0.000001
C47	C	1.203419	0.897582	0.333335
C48	C	1.536753	1.230916	0.666668
C49	C	1.662319	0.632598	0.000008
C50	C	1.995652	0.965932	0.333342
C51	C	2.328986	1.299265	0.666675
C52	C	1.797460	0.671399	-0.000002
C53	C	2.130793	1.004732	0.333332
C54	C	2.464126	1.338065	0.666665
C55	C	1.434012	0.852461	0.000005
C56	C	1.767346	1.185795	0.333339
C57	C	2.100679	1.519128	0.666672
C58	C	1.438219	1.017353	0.000002
C59	C	1.771552	1.350686	0.333335
C60	C	2.104885	1.684020	0.666669
N61	N	1.439917	0.584300	0.419774
N62	N	1.773251	0.917633	0.753107
N63	N	2.106584	1.250966	1.086440
N64	N	1.439941	0.584304	-0.419754
N65	N	1.773274	0.917637	-0.086420
N66	N	2.106608	1.250971	0.246913
H67	H	1.050987	0.725756	0.000011
H68	H	1.384320	1.059089	0.333344
H69	H	1.717654	1.392423	0.666678
H70	H	1.041163	0.375807	-0.000037
H71	H	1.374497	0.709140	0.333296
H72	H	1.707830	1.042474	0.666629
H73	H	0.828866	0.442833	-0.000042
H74	H	1.162199	0.776167	0.333291
H75	H	1.495532	1.109500	0.666625
H76	H	0.838678	0.792815	0.000008
H77	H	1.172011	1.126148	0.333341
H78	H	1.505345	1.459481	0.666675
