data_functionalizedCrystal
_audit_creation_method	'MofGen! by Chris Wilmer'
_symmetry_space_group_name_H-M	'P1'
_symmetry_Int_Tables_number	1
_symmetry_cell_setting	triclinic
loop_
_symmetry_equiv_pos_as_xyz
  x,y,z
_cell_length_a	11.026623
_cell_length_b	13.101039
_cell_length_c	11.026607
_cell_angle_alpha	85.898113
_cell_angle_beta	71.413640
_cell_angle_gamma	85.902597
loop_
_atom_site_label
_atom_site_type_symbol
_atom_site_fract_x
_atom_site_fract_y
_atom_site_fract_z
O1	O	-1.732208	0.085215	0.528133
O2	O	-1.365628	0.085216	0.467367
O3	O	-1.518536	0.085211	0.314460
O4	O	-1.579300	0.085219	0.681040
O5	O	-1.507570	-0.085218	0.325454
O6	O	-1.354662	-0.085214	0.478361
O7	O	-1.721242	-0.085215	0.539127
Zn8	Zn	-1.536211	-0.112274	0.510489
Zn9	Zn	-1.550659	0.112274	0.496004
O10	O	-1.568334	-0.085211	0.692034
C11	C	-1.312485	0.000001	0.461654
C12	C	-1.170472	0.000002	0.428236
C13	C	-1.116822	0.000004	0.520505
C14	C	-0.970044	0.000004	0.485968
N15	N	-1.526360	-0.265522	0.520376
C16	C	-1.512959	-0.474564	0.533840
C17	C	-1.573916	-0.525442	0.472649
C18	C	-1.566459	-0.641760	0.480140
C19	C	-1.520414	-0.358236	0.526350
C20	C	-0.774385	0.000001	0.544838
C21	C	-0.916399	0.000007	0.578251
C22	C	-1.501843	-0.000002	0.272297
C23	C	-1.468427	0.000002	0.130283
N24	N	-1.560518	0.265523	0.486109
C25	C	-1.560696	0.000003	0.076634
C26	C	-1.526161	0.000007	-0.070145
C27	C	-1.585027	0.000005	0.734196
C28	C	-1.618444	0.000008	0.876210
H29	H	-1.179555	0.000000	0.625068
H30	H	-1.665259	-0.000004	0.139368
H31	H	-0.979126	0.000002	0.682822
H32	H	-1.631703	-0.481641	0.414637
H33	H	-1.421592	0.000014	-0.132876
H34	H	-0.907316	0.000028	0.381396
Br35	Br	-1.792738	0.000016	-0.019250
Br36	Br	-1.065924	-0.000014	0.253951
H37	H	-1.455178	-0.518360	0.591850
H38	H	-1.363864	0.000009	0.067548
