data_functionalizedCrystal
_audit_creation_method	'MofGen! by Chris Wilmer'
_symmetry_space_group_name_H-M	'P1'
_symmetry_Int_Tables_number	1
_symmetry_cell_setting	triclinic
loop_
_symmetry_equiv_pos_as_xyz
  x,y,z
_cell_length_a	11.792254
_cell_length_b	17.699092
_cell_length_c	16.776229
_cell_angle_alpha	90.004970
_cell_angle_beta	89.992926
_cell_angle_gamma	96.257517
loop_
_atom_site_label
_atom_site_type_symbol
_atom_site_fract_x
_atom_site_fract_y
_atom_site_fract_z
O1	O	-1.505665	0.103783	0.066284
O2	O	-1.005665	0.603783	0.566284
O3	O	-1.175198	0.114464	0.066286
O4	O	-0.675198	0.614464	0.566286
O5	O	-1.349763	-0.001015	0.066283
O6	O	-0.849763	0.498985	0.566283
O7	O	-1.331100	0.219262	0.066287
O8	O	-0.831100	0.719262	0.566287
O9	O	-1.349740	-0.001022	-0.066293
O10	O	-0.849740	0.498978	0.433707
O11	O	-1.175175	0.114457	-0.066291
O12	O	-0.675175	0.614457	0.433709
O13	O	-1.505642	0.103776	-0.066292
O14	O	-1.005642	0.603776	0.433708
Zn15	Zn	-1.340405	0.109115	-0.087341
Zn16	Zn	-0.840405	0.609115	0.412659
Zn17	Zn	-1.340435	0.109125	0.087334
Zn18	Zn	-0.840435	0.609125	0.587334
O19	O	-1.331077	0.219255	-0.066290
O20	O	-0.831077	0.719255	0.433710
C21	C	-1.132904	0.113788	-0.000002
C22	C	-0.632904	0.613788	0.499998
C23	C	-1.006915	0.111774	-0.000002
C24	C	-0.506915	0.611774	0.499998
C25	C	-1.349081	-0.029219	-0.000004
C26	C	-0.849081	0.470781	0.499996
C27	C	-1.347070	-0.113248	-0.000000
C28	C	-0.847070	0.386752	0.500000
C29	C	-1.547936	0.104452	-0.000002
C30	C	-1.047936	0.604452	0.499998
C31	C	-1.673925	0.106466	0.000002
C32	C	-1.173925	0.606466	0.500002
C33	C	-0.904598	0.110138	0.000002
C34	C	-0.404598	0.610138	0.500002
C35	C	-0.776236	0.108091	0.000002
C36	C	-0.276236	0.608091	0.500002
C37	C	-1.346141	-0.152716	0.072268
C38	C	-0.846141	0.347284	0.572268
C39	C	-1.344244	-0.231669	0.072269
C40	C	-0.844244	0.268331	0.572269
C41	C	-1.343285	-0.271153	0.000001
C42	C	-0.843285	0.228847	0.500001
C43	C	-1.344211	-0.231679	-0.072273
C44	C	-0.844211	0.268321	0.427727
C45	C	-1.346100	-0.152726	-0.072273
C46	C	-0.846100	0.347274	0.427727
C47	C	-1.336593	-0.550085	-0.072274
C48	C	-0.836593	-0.050085	0.427726
C49	C	-1.334707	-0.629043	-0.072268
C50	C	-0.834707	-0.129043	0.427732
C51	C	-1.334737	-0.629028	0.072268
C52	C	-0.834737	-0.129028	0.572268
C53	C	-1.336626	-0.550075	0.072268
C54	C	-0.836626	-0.050075	0.572268
C55	C	-1.337546	-0.510607	-0.000005
C56	C	-0.837546	-0.010607	0.499995
C57	C	-1.339600	-0.424997	-0.000006
C58	C	-0.839600	0.075003	0.499994
C59	C	-1.341238	-0.356763	0.000000
C60	C	-0.841238	0.143237	0.500000
C61	C	-1.331759	0.247459	-0.000001
C62	C	-0.831759	0.747459	0.499999
C63	C	-1.333770	0.331488	0.000001
C64	C	-0.833770	0.831488	0.500001
N65	N	-1.340392	0.109108	-0.206552
N66	N	-0.840392	0.609108	0.293448
C67	C	-1.417713	0.057995	-0.248270
C68	C	-0.917713	0.557995	0.251730
C69	C	-1.417719	0.057995	-0.331723
C70	C	-0.917719	0.557995	0.168277
C71	C	-1.340409	0.109111	-0.373455
C72	C	-0.840409	0.609111	0.126545
C73	C	-1.263080	0.160227	-0.331731
C74	C	-0.763080	0.660227	0.168269
C75	C	-1.263069	0.160223	-0.248280
C76	C	-0.763069	0.660223	0.251720
C77	C	-1.263121	0.160242	-0.668278
C78	C	-0.763121	0.660242	-0.168278
C79	C	-1.263140	0.160243	-0.751735
C80	C	-0.763140	0.660243	-0.251735
C81	C	-1.417771	0.058013	-0.751720
C82	C	-0.917771	0.558013	-0.251720
C83	C	-1.417760	0.058010	-0.668270
C84	C	-0.917760	0.558010	-0.168270
C85	C	-1.340428	0.109122	-0.626553
C86	C	-0.840428	0.609122	-0.126553
C87	C	-1.340421	0.109121	-0.536065
C88	C	-0.840421	0.609121	-0.036065
C89	C	-1.340421	0.109117	-0.463942
C90	C	-0.840421	0.609117	0.036058
N91	N	-1.340457	0.109126	0.206546
N92	N	-0.840457	0.609126	0.706546
H93	H	-1.346928	-0.120575	0.131118
H94	H	-0.846928	0.379425	0.631118
Br95	Br	-1.522652	-0.011376	-0.388343
Br96	Br	-1.022652	0.488624	0.111657
Br97	Br	-1.158148	0.229596	-0.388365
Br98	Br	-0.658148	0.729596	0.111635
H99	H	-1.480672	0.016374	-0.214297
H100	H	-0.980672	0.516374	0.285703
Br101	Br	-1.522690	-0.011360	-0.611635
Br102	Br	-1.022690	0.488640	-0.111635
H103	H	-1.333923	-0.661188	-0.131122
H104	H	-0.833923	-0.161188	0.368878
H105	H	-1.346841	-0.120591	-0.131122
H106	H	-0.846841	0.379409	0.368878
Br107	Br	-1.158122	0.229589	-0.191662
Br108	Br	-0.658122	0.729589	0.308338
H109	H	-1.480736	0.016392	-0.785695
H110	H	-0.980736	0.516392	-0.285695
H111	H	-1.333982	-0.661171	0.131117
H112	H	-0.833982	-0.161171	0.631117
H113	H	-1.343423	-0.263832	-0.131115
H114	H	-0.843423	0.236168	0.368885
H115	H	-1.337365	-0.517961	-0.131124
H116	H	-0.837365	-0.017961	0.368876
H117	H	-1.200157	0.201861	-0.634319
H118	H	-0.700157	0.701861	-0.134319
Br119	Br	-1.342981	-0.285231	0.170352
Br120	Br	-0.842981	0.214769	0.670352
H121	H	-1.200181	0.201870	-0.785712
H122	H	-0.700181	0.701870	-0.285712
H123	H	-1.337412	-0.517932	0.131116
H124	H	-0.837412	-0.017932	0.631116
