data_functionalizedCrystal
_audit_creation_method	'MofGen! by Chris Wilmer'
_symmetry_space_group_name_H-M	'P1'
_symmetry_Int_Tables_number	1
_symmetry_cell_setting	triclinic
loop_
_symmetry_equiv_pos_as_xyz
  x,y,z
_cell_length_a	19.121102
_cell_length_b	21.295417
_cell_length_c	21.295411
_cell_angle_alpha	89.978356
_cell_angle_beta	87.537204
_cell_angle_gamma	87.584620
loop_
_atom_site_label
_atom_site_type_symbol
_atom_site_fract_x
_atom_site_fract_y
_atom_site_fract_z
Zn1	Zn	1.073733	-0.291809	-0.396911
Zn2	Zn	1.073624	-0.397056	-0.291633
Zn3	Zn	0.956272	-0.287310	-0.287171
Zn4	Zn	0.956238	-0.392544	-0.392382
O5	O	1.014967	-0.342180	-0.342024
O6	O	1.172003	-0.309542	-0.386709
O7	O	1.058026	-0.382504	-0.202950
O8	O	0.971914	-0.199820	-0.301757
O9	O	1.171923	-0.386867	-0.309361
O10	O	1.058212	-0.203125	-0.382383
O11	O	0.971808	-0.301874	-0.199673
O12	O	0.857983	-0.297498	-0.297365
O13	O	0.971855	-0.379175	-0.481074
O14	O	0.857958	-0.374813	-0.374663
O15	O	1.058179	-0.305166	-0.484401
O16	O	1.057993	-0.484545	-0.304969
O17	O	0.971750	-0.481229	-0.378989
C18	C	0.832487	-0.335178	-0.335039
C19	C	0.754421	-0.332198	-0.332065
C20	C	0.717751	-0.371112	-0.370850
C21	C	0.644400	-0.368304	-0.368059
C22	C	0.607720	-0.326584	-0.326480
C23	C	0.644395	-0.287665	-0.287693
C24	C	0.717745	-0.290471	-0.290488
C25	C	0.386251	-0.316092	-0.316035
C26	C	0.312896	-0.313291	-0.313242
C27	C	0.312905	-0.393929	-0.393608
C28	C	0.386256	-0.396733	-0.396396
C29	C	0.422925	-0.357813	-0.357613
C30	C	0.532743	-0.323713	-0.323625
C31	C	0.497901	-0.360680	-0.360471
C32	C	1.014875	-0.505728	-0.341986
C33	C	1.014900	-0.575697	-0.341993
C34	C	1.059847	-0.610271	-0.303494
C35	C	1.059879	-0.676014	-0.303509
C36	C	1.014953	-0.707181	-0.342017
C37	C	0.970003	-0.672600	-0.380524
C38	C	0.969977	-0.606857	-0.380512
N39	N	0.953513	-0.808095	-0.344464
N40	N	0.953540	-0.870547	-0.344471
C41	C	1.015032	-0.905259	-0.342056
N42	N	1.076496	-0.875159	-0.339620
N43	N	1.076468	-0.812701	-0.339609
C44	C	1.014977	-0.778468	-0.342034
C45	C	1.060018	-1.011120	-0.303571
C46	C	1.060052	-1.076865	-0.303591
C47	C	0.970170	-1.073449	-0.380603
C48	C	0.970142	-1.007705	-0.380586
C49	C	1.015065	-0.976545	-0.342067
C50	C	1.198160	-0.349209	-0.349038
C51	C	1.276226	-0.352205	-0.352026
C52	C	1.015025	-0.342169	-0.506217
C53	C	1.015050	-0.342164	-0.576186
C54	C	1.015079	-0.177994	-0.342077
C55	C	1.015126	-0.108027	-0.342100
C56	C	1.059997	-0.303625	-0.610786
C57	C	1.059996	-0.303598	-0.676529
C58	C	1.015056	-0.342121	-0.707669
C59	C	0.970100	-0.380662	-0.673060
C60	C	0.970098	-0.380683	-0.607319
N61	N	1.009637	-0.396981	-0.810677
N62	N	1.009644	-0.396959	-0.873129
C63	C	1.015060	-0.342057	-0.905744
N64	N	1.020483	-0.287178	-0.873548
N65	N	1.020480	-0.287201	-0.811091
C66	C	1.015053	-0.342101	-0.778954
C67	C	1.060008	-0.303486	-1.011630
C68	C	1.060002	-0.303457	-1.077373
C69	C	0.970110	-0.380527	-1.073904
C70	C	0.970113	-0.380550	-1.008161
C71	C	1.015065	-0.342030	-0.977028
C72	C	1.014949	-0.342147	-0.178472
C73	C	1.015061	-0.341979	-0.108509
H74	H	0.416098	-0.284405	-0.284449
H75	H	0.933512	-0.411886	-1.099257
Br76	Br	1.120981	-0.968827	-0.251295
Br77	Br	1.120883	-0.722946	-0.251256
Br78	Br	0.767513	-0.237653	-0.237853
H79	H	1.096427	-0.584902	-0.272131
Br80	Br	1.121017	-0.251160	-1.124333
H81	H	0.614546	-0.399992	-0.399641
H82	H	0.283041	-0.425615	-0.425185
Br83	Br	0.908974	-0.559932	-0.432767
Br84	Br	0.909093	-0.432989	-0.560358
Br85	Br	0.909111	-0.432856	-0.961200
Br86	Br	1.121011	-0.251209	-0.969374
H87	H	1.096658	-1.105014	-0.272241
H88	H	0.747610	-0.405087	-0.404706
Br89	Br	0.909037	-0.714896	-0.432790
H90	H	0.933593	-1.098824	-0.411959
Br91	Br	0.482958	-0.267093	-0.267199
Br92	Br	0.263116	-0.256674	-0.256802
Br93	Br	0.436031	-0.453359	-0.452824
Br94	Br	0.909137	-0.960780	-0.432837
H95	H	1.096600	-0.272259	-0.585442
H96	H	1.096595	-0.272212	-0.704706
H97	H	0.614525	-0.253693	-0.253842
H98	H	0.527768	-0.394646	-0.394328
Br99	Br	0.909105	-0.432939	-0.715319
