data_functionalizedCrystal
_audit_creation_method	'MofGen! by Chris Wilmer'
_symmetry_space_group_name_H-M	'P1'
_symmetry_Int_Tables_number	1
_symmetry_cell_setting	triclinic
loop_
_symmetry_equiv_pos_as_xyz
  x,y,z
_cell_length_a	18.101398
_cell_length_b	18.050589
_cell_length_c	18.050583
_cell_angle_alpha	89.968090
_cell_angle_beta	89.978665
_cell_angle_gamma	90.023488
loop_
_atom_site_label
_atom_site_type_symbol
_atom_site_fract_x
_atom_site_fract_y
_atom_site_fract_z
Zn1	Zn	1.132114	-0.295700	-0.420040
Zn2	Zn	1.382114	-0.045700	-0.170040
Zn3	Zn	1.632114	0.204300	0.079960
Zn4	Zn	1.882114	0.454300	0.329960
Zn5	Zn	1.132023	-0.419913	-0.295860
Zn6	Zn	1.382023	-0.169913	-0.045860
Zn7	Zn	1.632023	0.080087	0.204140
Zn8	Zn	1.882023	0.330087	0.454140
Zn9	Zn	1.008279	-0.295731	-0.295853
Zn10	Zn	1.258279	-0.045731	-0.045853
Zn11	Zn	1.508279	0.204269	0.204147
Zn12	Zn	1.758279	0.454269	0.454147
Zn13	Zn	1.008230	-0.419842	-0.419997
Zn14	Zn	1.258230	-0.169842	-0.169997
Zn15	Zn	1.508230	0.080158	0.080003
Zn16	Zn	1.758230	0.330158	0.330003
O17	O	1.070161	-0.357797	-0.357937
O18	O	1.320161	-0.107797	-0.107937
O19	O	1.570161	0.142203	0.142063
O20	O	1.820161	0.392203	0.392063
O21	O	1.235735	-0.312194	-0.403589
O22	O	1.485735	-0.062194	-0.153589
O23	O	1.735735	0.187806	0.096411
O24	O	1.985735	0.437806	0.346411
O25	O	1.115590	-0.403482	-0.191934
O26	O	1.365590	-0.153482	0.058066
O27	O	1.615590	0.096518	0.308066
O28	O	1.865590	0.346518	0.558066
O29	O	1.024765	-0.191802	-0.312342
O30	O	1.274765	0.058198	-0.062342
O31	O	1.524765	0.308198	0.187658
O32	O	1.774765	0.558198	0.437658
O33	O	1.235668	-0.403452	-0.312354
O34	O	1.485668	-0.153452	-0.062354
O35	O	1.735668	0.096548	0.187646
O36	O	1.985668	0.346548	0.437646
O37	O	1.115746	-0.191779	-0.403582
O38	O	1.365746	0.058221	-0.153582
O39	O	1.615746	0.308221	0.096418
O40	O	1.865746	0.558221	0.346418
O41	O	1.024677	-0.312247	-0.191929
O42	O	1.274677	-0.062247	0.058071
O43	O	1.524677	0.187753	0.308071
O44	O	1.774677	0.437753	0.558071
O45	O	0.904640	-0.312178	-0.312300
O46	O	1.154640	-0.062178	-0.062300
O47	O	1.404640	0.187822	0.187700
O48	O	1.654640	0.437822	0.437700
O49	O	1.024681	-0.403332	-0.523927
O50	O	1.274681	-0.153332	-0.273927
O51	O	1.524681	0.096668	-0.023927
O52	O	1.774681	0.346668	0.226073
O53	O	0.904604	-0.403362	-0.403508
O54	O	1.154604	-0.153362	-0.153508
O55	O	1.404604	0.096638	0.096492
O56	O	1.654604	0.346638	0.346492
O57	O	1.115698	-0.312125	-0.523959
O58	O	1.365698	-0.062125	-0.273959
O59	O	1.615698	0.187875	-0.023959
O60	O	1.865698	0.437875	0.226041
O61	O	1.115542	-0.523828	-0.312311
O62	O	1.365542	-0.273828	-0.062311
O63	O	1.615542	-0.023828	0.187689
O64	O	1.865542	0.226172	0.437689
O65	O	1.024592	-0.523776	-0.403514
O66	O	1.274592	-0.273776	-0.153514
O67	O	1.524592	-0.023776	0.096486
O68	O	1.774592	0.226224	0.346486
C69	C	0.877751	-0.357766	-0.357899
C70	C	1.127751	-0.107766	-0.107899
C71	C	1.377751	0.142234	0.142101
C72	C	1.627751	0.392234	0.392101
C73	C	0.795437	-0.357771	-0.357900
C74	C	1.045437	-0.107771	-0.107900
C75	C	1.295437	0.142229	0.142100
C76	C	1.545437	0.392229	0.392100
C77	C	0.496346	-0.357818	-0.357962
C78	C	0.746346	-0.107818	-0.107962
C79	C	0.996346	0.142182	0.142038
C80	C	1.246346	0.392182	0.392038
C81	C	0.527669	-0.300160	-0.300857
C82	C	0.777669	-0.050160	-0.050857
C83	C	1.027669	0.199840	0.199143
C84	C	1.277669	0.449840	0.449143
C85	C	0.613287	-0.300315	-0.300613
C86	C	0.863287	-0.050315	-0.050613
C87	C	1.113287	0.199685	0.199387
C88	C	1.363287	0.449685	0.449387
C89	C	0.644728	-0.357794	-0.357931
C90	C	0.894728	-0.107794	-0.107931
C91	C	1.144728	0.142206	0.142069
C92	C	1.394728	0.392206	0.392069
C93	C	0.613615	-0.436028	-0.336553
C94	C	0.863615	-0.186028	-0.086553
C95	C	1.113615	0.063972	0.163447
C96	C	1.363615	0.313972	0.413447
C97	C	0.527970	-0.435708	-0.336156
C98	C	0.777970	-0.185708	-0.086156
C99	C	1.027970	0.064292	0.163844
C100	C	1.277970	0.314292	0.413844
C101	C	0.527955	-0.337921	-0.436581
C102	C	0.777955	-0.087921	-0.186581
C103	C	1.027955	0.162079	0.063419
C104	C	1.277955	0.412079	0.313419
C105	C	0.613606	-0.336179	-0.436152
C106	C	0.863606	-0.086179	-0.186152
C107	C	1.113606	0.163821	0.063848
C108	C	1.363606	0.413821	0.313848
C109	C	0.728588	-0.357786	-0.357915
C110	C	0.978588	-0.107786	-0.107915
C111	C	1.228588	0.142214	0.142085
C112	C	1.478588	0.392214	0.392085
C113	C	0.412486	-0.357832	-0.357977
C114	C	0.662486	-0.107832	-0.107977
C115	C	0.912486	0.142168	0.142023
C116	C	1.162486	0.392168	0.392023
C117	C	1.070072	-0.550749	-0.357925
C118	C	1.320072	-0.300749	-0.107925
C119	C	1.570072	-0.050749	0.142075
C120	C	1.820072	0.199251	0.392075
C121	C	1.070102	-0.633294	-0.357945
C122	C	1.320102	-0.383294	-0.107945
C123	C	1.570102	-0.133294	0.142055
C124	C	1.820102	0.116706	0.392055
C125	C	1.020692	-0.832744	-0.407524
C126	C	1.270692	-0.582744	-0.157524
C127	C	1.520692	-0.332744	0.092476
C128	C	1.770692	-0.082744	0.342476
C129	C	1.002643	-0.882193	-0.339755
C130	C	1.252643	-0.632193	-0.089755
C131	C	1.502643	-0.382193	0.160245
C132	C	1.752643	-0.132193	0.410245
C133	C	1.070174	-0.784425	-0.357954
C134	C	1.320174	-0.534425	-0.107954
C135	C	1.570174	-0.284425	0.142046
C136	C	1.820174	-0.034425	0.392046
C137	C	1.088259	-0.882058	-0.425731
C138	C	1.338259	-0.632058	-0.175731
C139	C	1.588259	-0.382058	0.074269
C140	C	1.838259	-0.132058	0.324269
C141	C	1.070243	-0.930410	-0.357970
C142	C	1.320243	-0.680410	-0.107970
C143	C	1.570243	-0.430410	0.142030
C144	C	1.820243	-0.180410	0.392030
C145	C	1.052090	-0.832786	-0.290150
C146	C	1.302090	-0.582786	-0.040150
C147	C	1.552090	-0.332786	0.209850
C148	C	1.802090	-0.082786	0.459850
C149	C	1.137738	-0.832647	-0.376172
C150	C	1.387738	-0.582647	-0.126172
C151	C	1.637738	-0.332647	0.123828
C152	C	1.887738	-0.082647	0.373828
C153	C	1.119715	-0.882074	-0.308356
C154	C	1.369715	-0.632074	-0.058356
C155	C	1.619715	-0.382074	0.191644
C156	C	1.869715	-0.132074	0.441644
C157	C	1.070133	-0.700327	-0.357947
C158	C	1.320133	-0.450327	-0.107947
C159	C	1.570133	-0.200327	0.142053
C160	C	1.820133	0.049673	0.392053
C161	C	1.070285	-1.014506	-0.357970
C162	C	1.320285	-0.764506	-0.107970
C163	C	1.570285	-0.514506	0.142030
C164	C	1.820285	-0.264506	0.392030
C165	C	1.263323	-0.357827	-0.357977
C166	C	1.513323	-0.107827	-0.107977
C167	C	1.763323	0.142173	0.142023
C168	C	2.013323	0.392173	0.392023
C169	C	1.345637	-0.357840	-0.357994
C170	C	1.595637	-0.107840	-0.107994
C171	C	1.845637	0.142160	0.142006
C172	C	2.095637	0.392160	0.392006
C173	C	1.070194	-0.357717	-0.551643
C174	C	1.320194	-0.107717	-0.301643
C175	C	1.570194	0.142283	-0.051643
C176	C	1.820194	0.392283	0.198357
C177	C	1.070208	-0.357683	-0.634189
C178	C	1.320208	-0.107683	-0.384189
C179	C	1.570208	0.142317	-0.134189
C180	C	1.820208	0.392317	0.115811
C181	C	1.070271	-0.164091	-0.357966
C182	C	1.320271	0.085909	-0.107966
C183	C	1.570271	0.335909	0.142034
C184	C	1.820271	0.585909	0.392034
C185	C	1.070318	-0.081545	-0.357978
C186	C	1.320318	0.168455	-0.107978
C187	C	1.570318	0.418455	0.142022
C188	C	1.820318	0.668455	0.392022
C189	C	1.119753	-0.308061	-0.833657
C190	C	1.369753	-0.058061	-0.583657
C191	C	1.619753	0.191939	-0.333657
C192	C	1.869753	0.441939	-0.083657
C193	C	1.052209	-0.289879	-0.883044
C194	C	1.302209	-0.039879	-0.633044
C195	C	1.552209	0.210121	-0.383044
C196	C	1.802209	0.460121	-0.133044
C197	C	1.070238	-0.357671	-0.785319
C198	C	1.320238	-0.107671	-0.535319
C199	C	1.570238	0.142329	-0.285319
C200	C	1.820238	0.392329	-0.035319
C201	C	1.137809	-0.375806	-0.883014
C202	C	1.387809	-0.125806	-0.633014
C203	C	1.637809	0.124194	-0.383014
C204	C	1.887809	0.374194	-0.133014
C205	C	1.070272	-0.357657	-0.931305
C206	C	1.320272	-0.107657	-0.681305
C207	C	1.570272	0.142343	-0.431305
C208	C	1.820272	0.392343	-0.181305
C209	C	1.002659	-0.339454	-0.833619
C210	C	1.252659	-0.089454	-0.583619
C211	C	1.502659	0.160546	-0.333619
C212	C	1.752659	0.410546	-0.083619
C213	C	1.088303	-0.425412	-0.833585
C214	C	1.338303	-0.175412	-0.583585
C215	C	1.588303	0.074588	-0.333585
C216	C	1.838303	0.324588	-0.083585
C217	C	1.020713	-0.407255	-0.882950
C218	C	1.270713	-0.157255	-0.632950
C219	C	1.520713	0.092745	-0.382950
C220	C	1.770713	0.342745	-0.132950
C221	C	1.070219	-0.357677	-0.701221
C222	C	1.320219	-0.107677	-0.451221
C223	C	1.570219	0.142323	-0.201221
C224	C	1.820219	0.392323	0.048779
C225	C	1.070284	-0.357651	-1.015401
C226	C	1.320284	-0.107651	-0.765401
C227	C	1.570284	0.142349	-0.515401
C228	C	1.820284	0.392349	-0.265401
C229	C	1.070172	-0.357822	-0.164985
C230	C	1.320172	-0.107822	0.085015
C231	C	1.570172	0.142178	0.335015
C232	C	1.820172	0.392178	0.585015
C233	C	1.070301	-0.357647	-0.082440
C234	C	1.320301	-0.107647	0.167560
C235	C	1.570301	0.142353	0.417560
C236	C	1.820301	0.392353	0.667560
H237	H	0.634324	-0.242301	-0.314013
H238	H	0.884324	0.007699	-0.064013
H239	H	1.134324	0.257699	0.185987
H240	H	1.384324	0.507699	0.435987
Cl241	Cl	1.225882	-0.799021	-0.399990
Cl242	Cl	1.475882	-0.549021	-0.149990
Cl243	Cl	1.725882	-0.299021	0.100010
Cl244	Cl	1.975882	-0.049021	0.350010
Cl245	Cl	1.226011	-0.399499	-0.916512
Cl246	Cl	1.476011	-0.149499	-0.666512
Cl247	Cl	1.726011	0.100501	-0.416512
Cl248	Cl	1.976011	0.350501	-0.166512
H249	H	1.161590	-0.903597	-0.266395
H250	H	1.411590	-0.653597	-0.016395
H251	H	1.661590	-0.403597	0.233605
H252	H	1.911590	-0.153597	0.483605
Cl253	Cl	0.495905	-0.210315	-0.321313
Cl254	Cl	0.745905	0.039685	-0.071313
Cl255	Cl	0.995905	0.289685	0.178687
Cl256	Cl	1.245905	0.539685	0.428687
H257	H	0.506124	-0.313166	-0.242940
H258	H	0.756124	-0.063166	0.007060
H259	H	1.006124	0.186834	0.257060
H260	H	1.256124	0.436834	0.507060
H261	H	1.161557	-0.266082	-0.812011
H262	H	1.411557	-0.016082	-0.562011
H263	H	1.661557	0.233918	-0.312011
H264	H	1.911557	0.483918	-0.062011
H265	H	0.633745	-0.313469	-0.242357
H266	H	0.883745	-0.063469	0.007643
H267	H	1.133745	0.186531	0.257643
H268	H	1.383745	0.436531	0.507643
Cl269	Cl	0.496680	-0.402756	-0.502274
Cl270	Cl	0.746680	-0.152756	-0.252274
Cl271	Cl	0.996680	0.097244	-0.002274
Cl272	Cl	1.246680	0.347244	0.247726
Cl273	Cl	0.914475	-0.915791	-0.315966
Cl274	Cl	1.164475	-0.665791	-0.065966
Cl275	Cl	1.414475	-0.415791	0.184034
Cl276	Cl	1.664475	-0.165791	0.434034
Cl277	Cl	0.497076	-0.461754	-0.247420
Cl278	Cl	0.747076	-0.211754	0.002580
Cl279	Cl	0.997076	0.038246	0.252580
Cl280	Cl	1.247076	0.288246	0.502580
Cl281	Cl	0.645023	-0.247299	-0.461051
Cl282	Cl	0.895023	0.002701	-0.211051
Cl283	Cl	1.145023	0.252701	0.038949
Cl284	Cl	1.395023	0.502701	0.288949
Cl285	Cl	1.028635	-0.201426	-0.916591
Cl286	Cl	1.278635	0.048574	-0.666591
Cl287	Cl	1.528635	0.298574	-0.416591
Cl288	Cl	1.778635	0.548574	-0.166591
Cl289	Cl	0.956014	-0.472011	-0.916173
Cl290	Cl	1.206014	-0.222011	-0.666173
Cl291	Cl	1.456014	0.027989	-0.416173
Cl292	Cl	1.706014	0.277989	-0.166173
Cl293	Cl	1.111832	-0.915477	-0.514214
Cl294	Cl	1.361832	-0.665477	-0.264214
Cl295	Cl	1.611832	-0.415477	-0.014214
Cl296	Cl	1.861832	-0.165477	0.235786
Cl297	Cl	0.494649	-0.251373	-0.466591
Cl298	Cl	0.744649	-0.001373	-0.216591
Cl299	Cl	0.994649	0.248627	0.033409
Cl300	Cl	1.244649	0.498627	0.283409
Cl301	Cl	0.914427	-0.315670	-0.800266
Cl302	Cl	1.164427	-0.065670	-0.550266
Cl303	Cl	1.414427	0.184330	-0.300266
Cl304	Cl	1.664427	0.434330	-0.050266
Cl305	Cl	1.028416	-0.799514	-0.201639
Cl306	Cl	1.278416	-0.549514	0.048361
Cl307	Cl	1.528416	-0.299514	0.298361
Cl308	Cl	1.778416	-0.049514	0.548361
H309	H	0.507248	-0.480122	-0.375935
H310	H	0.757248	-0.230122	-0.125935
H311	H	1.007248	0.019878	0.124065
H312	H	1.257248	0.269878	0.374065
Cl313	Cl	1.111910	-0.513842	-0.800014
Cl314	Cl	1.361910	-0.263842	-0.550014
Cl315	Cl	1.611910	-0.013842	-0.300014
Cl316	Cl	1.861910	0.236158	-0.050014
H317	H	0.635034	-0.453193	-0.279700
H318	H	0.885034	-0.203193	-0.029700
H319	H	1.135034	0.046807	0.220300
H320	H	1.385034	0.296807	0.470300
Cl321	Cl	0.646647	-0.396293	-0.505364
Cl322	Cl	0.896647	-0.146293	-0.255364
Cl323	Cl	1.146647	0.103707	-0.005364
Cl324	Cl	1.396647	0.353707	0.244636
Cl325	Cl	0.645046	-0.504134	-0.398764
Cl326	Cl	0.895046	-0.254134	-0.148764
Cl327	Cl	1.145046	-0.004134	0.101236
Cl328	Cl	1.395046	0.245866	0.351236
Cl329	Cl	0.955994	-0.799299	-0.472152
Cl330	Cl	1.205994	-0.549299	-0.222152
Cl331	Cl	1.455994	-0.299299	0.027848
Cl332	Cl	1.705994	-0.049299	0.277848
