data_functionalizedCrystal
_audit_creation_method	'MofGen! by Chris Wilmer'
_symmetry_space_group_name_H-M	'P1'
_symmetry_Int_Tables_number	1
_symmetry_cell_setting	triclinic
loop_
_symmetry_equiv_pos_as_xyz
  x,y,z
_cell_length_a	14.971486
_cell_length_b	10.654550
_cell_length_c	9.130313
_cell_angle_alpha	90.004369
_cell_angle_beta	89.998566
_cell_angle_gamma	84.049530
loop_
_atom_site_label
_atom_site_type_symbol
_atom_site_fract_x
_atom_site_fract_y
_atom_site_fract_z
O1	O	-1.187834	-0.163656	-0.121630
O2	O	-0.927541	-0.183254	-0.121670
O3	O	-1.063672	0.009348	-0.121640
O4	O	-1.051703	-0.356259	-0.121660
O5	O	-1.063662	0.009354	0.121959
O6	O	-0.927531	-0.183249	0.121929
O7	O	-1.187825	-0.163651	0.121968
Cu8	Cu	-1.057677	-0.173449	0.144191
Cu9	Cu	-1.057688	-0.173456	-0.143893
O10	O	-1.051693	-0.356253	0.121938
C11	C	-0.894206	-0.182375	0.000124
C12	C	-0.794895	-0.179749	0.000109
C13	C	-1.062788	0.056139	0.000158
C14	C	-1.060159	0.195555	0.000156
C15	C	-1.221159	-0.164530	0.000171
C16	C	-1.320470	-0.167156	0.000176
C17	C	-0.738285	-0.292898	0.000105
C18	C	-0.644972	-0.290422	0.000127
C19	C	-0.608271	-0.174797	0.000143
C20	C	-0.664888	-0.061639	0.000151
C21	C	-0.758199	-0.064116	0.000140
C22	C	-0.470397	-0.056485	0.000172
C23	C	-0.377080	-0.054007	0.000180
C24	C	-0.357171	-0.282791	0.000159
C25	C	-0.450482	-0.285268	0.000147
C26	C	-0.507092	-0.172110	0.000153
C27	C	-1.052577	-0.403044	0.000137
C28	C	-1.055206	-0.542460	0.000130
N29	N	-1.057676	-0.173444	0.346814
C30	C	-1.140311	0.275900	0.000167
C31	C	-1.137835	0.406894	0.000149
C32	C	-0.975048	0.377185	0.000114
C33	C	-0.977525	0.246193	0.000121
N34	N	-1.057696	-0.173451	-0.346515
C35	C	-1.117975	-0.088195	0.423479
C36	C	-1.117984	-0.088195	0.576816
C37	C	-0.997390	-0.258704	0.576809
C38	C	-0.997378	-0.258697	0.423475
H39	H	-0.768160	-0.387053	0.000091
H40	H	-1.167072	-0.018775	0.361065
H41	H	-1.167084	-0.018777	0.639232
Cl42	Cl	-0.871171	0.440854	0.000071
H43	H	-0.948299	-0.328117	0.639241
H44	H	-0.634998	0.032505	0.000185
Cl45	Cl	-1.244193	0.212244	0.000207
H46	H	-0.804290	0.028022	0.000142
H47	H	-0.598884	-0.382559	0.000122
Cl48	Cl	-0.496620	-0.430628	0.000112
Cl49	Cl	-1.238603	0.507895	0.000161
H50	H	-0.948271	-0.328117	0.361050
Cl51	Cl	-0.330942	0.091353	0.000249
Cl52	Cl	-0.876754	0.145179	0.000094
H53	H	-0.311074	-0.374929	0.000161
Cl54	Cl	-0.541564	0.085774	0.000182
