data_functionalizedCrystal
_audit_creation_method	'MofGen! by Chris Wilmer'
_symmetry_space_group_name_H-M	'P1'
_symmetry_Int_Tables_number	1
_symmetry_cell_setting	triclinic
loop_
_symmetry_equiv_pos_as_xyz
  x,y,z
_cell_length_a	11.792241
_cell_length_b	14.044220
_cell_length_c	10.268362
_cell_angle_alpha	90.006985
_cell_angle_beta	89.996518
_cell_angle_gamma	88.691147
loop_
_atom_site_label
_atom_site_type_symbol
_atom_site_fract_x
_atom_site_fract_y
_atom_site_fract_z
O1	O	1.519105	0.129988	0.108177
O2	O	1.190022	0.143385	0.108207
O3	O	1.349624	-0.001323	0.108180
O4	O	1.359503	0.274697	0.108204
O5	O	1.349621	-0.001332	-0.108421
O6	O	1.190019	0.143376	-0.108393
O7	O	1.519102	0.129980	-0.108424
Cu8	Cu	1.354560	0.136677	-0.128186
Cu9	Cu	1.354564	0.136687	0.127969
O10	O	1.359500	0.274688	-0.108396
C11	C	1.147650	0.142539	-0.000089
C12	C	1.021400	0.140020	-0.000078
C13	C	0.790253	0.135389	-0.000116
C14	C	0.918880	0.137962	-0.000095
C15	C	1.345298	-0.036664	-0.000121
C16	C	1.332399	-0.141956	-0.000121
C17	C	1.308817	-0.334739	-0.000100
C18	C	1.400302	-0.391902	-0.000105
C19	C	1.387181	-0.499173	-0.000093
C20	C	1.321937	-0.227458	-0.000112
C21	C	1.561474	0.130826	-0.000125
C22	C	1.687724	0.133344	-0.000127
C23	C	1.363826	0.310029	-0.000093
C24	C	1.376725	0.415321	-0.000084
N25	N	1.354566	0.136687	0.308135
N26	N	1.354566	0.136670	-0.308352
C27	C	1.354563	0.136682	0.573806
C28	C	1.354562	0.136688	0.425968
H29	H	1.488479	-0.360278	-0.000026
C30	C	1.191345	-0.377081	-0.000163
C31	C	1.201523	-0.476604	-0.000192
C32	C	1.093334	-0.515654	-0.000273
H33	H	1.151151	-0.356594	0.075347
H34	H	1.151248	-0.356559	-0.075729
H35	H	1.241603	-0.497118	0.075368
H36	H	1.241696	-0.497118	-0.075696
H37	H	1.053237	-0.495132	-0.075839
H38	H	1.053150	-0.495159	0.075238
H39	H	1.100226	-0.583183	-0.000304
