data_functionalizedCrystal
_audit_creation_method	'MofGen! by Chris Wilmer'
_symmetry_space_group_name_H-M	'P1'
_symmetry_Int_Tables_number	1
_symmetry_cell_setting	triclinic
loop_
_symmetry_equiv_pos_as_xyz
  x,y,z
_cell_length_a	11.169417
_cell_length_b	18.050589
_cell_length_c	11.169409
_cell_angle_alpha	90.032850
_cell_angle_beta	90.019824
_cell_angle_gamma	90.029099
loop_
_atom_site_label
_atom_site_type_symbol
_atom_site_fract_x
_atom_site_fract_y
_atom_site_fract_z
Zn1	Zn	1.834813	-0.295582	0.678538
Zn2	Zn	2.084813	-0.045582	0.928538
Zn3	Zn	2.334813	0.204418	1.178538
Zn4	Zn	2.584813	0.454418	1.428538
Zn5	Zn	1.834640	-0.419797	0.477854
Zn6	Zn	2.084640	-0.169797	0.727854
Zn7	Zn	2.334640	0.080203	0.977854
Zn8	Zn	2.584640	0.330203	1.227854
Zn9	Zn	1.634099	-0.295627	0.477873
Zn10	Zn	1.884099	-0.045627	0.727873
Zn11	Zn	2.134099	0.204373	0.977873
Zn12	Zn	2.384099	0.454373	1.227873
Zn13	Zn	1.634044	-0.419737	0.678498
Zn14	Zn	1.884044	-0.169737	0.928498
Zn15	Zn	2.134044	0.080263	1.178498
Zn16	Zn	2.384044	0.330263	1.428498
O17	O	1.734399	-0.357686	0.578191
O18	O	1.984399	-0.107686	0.828191
O19	O	2.234399	0.142314	1.078191
O20	O	2.484399	0.392314	1.328191
O21	O	2.002740	-0.312066	0.651926
O22	O	2.252740	-0.062066	0.901926
O23	O	2.502740	0.187934	1.151926
O24	O	2.752740	0.437934	1.401926
O25	O	1.807988	-0.403370	0.309906
O26	O	2.057988	-0.153370	0.559906
O27	O	2.307988	0.096630	0.809906
O28	O	2.557988	0.346630	1.059906
O29	O	1.660820	-0.191697	0.504516
O30	O	1.910820	0.058303	0.754516
O31	O	2.160820	0.308303	1.004516
O32	O	2.410820	0.558303	1.254516
O33	O	2.002613	-0.403326	0.504483
O34	O	2.252613	-0.153326	0.754483
O35	O	2.502613	0.096674	1.004483
O36	O	2.752613	0.346674	1.254483
O37	O	1.808284	-0.191663	0.651945
O38	O	2.058284	0.058337	0.901945
O39	O	2.308284	0.308337	1.151945
O40	O	2.558284	0.558337	1.401945
O41	O	1.660652	-0.312143	0.309920
O42	O	1.910652	-0.062143	0.559920
O43	O	2.160652	0.187857	0.809920
O44	O	2.410652	0.437857	1.059920
O45	O	1.466142	-0.312084	0.504478
O46	O	1.716142	-0.062084	0.754478
O47	O	1.966142	0.187916	1.004478
O48	O	2.216142	0.437916	1.254478
O49	O	1.660726	-0.403223	0.846454
O50	O	1.910726	-0.153223	1.096454
O51	O	2.160726	0.096777	1.346454
O52	O	2.410726	0.346777	1.596454
O53	O	1.466102	-0.403267	0.651876
O54	O	1.716102	-0.153267	0.901876
O55	O	1.966102	0.096733	1.151876
O56	O	2.216102	0.346733	1.401876
O57	O	1.808230	-0.312007	0.846483
O58	O	2.058230	-0.062007	1.096483
O59	O	2.308230	0.187993	1.346483
O60	O	2.558230	0.437993	1.596483
O61	O	1.807935	-0.523714	0.504445
O62	O	2.057935	-0.273714	0.754445
O63	O	2.307935	-0.023714	1.004445
O64	O	2.557935	0.226286	1.254445
O65	O	1.660558	-0.523669	0.651858
O66	O	1.910558	-0.273669	0.901858
O67	O	2.160558	-0.023669	1.151858
O68	O	2.410558	0.226331	1.401858
C69	C	1.422574	-0.357674	0.578175
C70	C	1.672574	-0.107674	0.828175
C71	C	1.922574	0.142326	1.078175
C72	C	2.172574	0.392326	1.328175
C73	C	1.289174	-0.357687	0.578197
C74	C	1.539174	-0.107687	0.828197
C75	C	1.789174	0.142313	1.078197
C76	C	2.039174	0.392313	1.328197
C77	C	1.734254	-0.550638	0.578171
C78	C	1.984254	-0.300638	0.828171
C79	C	2.234254	-0.050638	1.078171
C80	C	2.484254	0.199362	1.328171
C81	C	1.734302	-0.633184	0.578202
C82	C	1.984302	-0.383184	0.828202
C83	C	2.234302	-0.133184	1.078202
C84	C	2.484302	0.116816	1.328202
C85	C	1.654237	-0.832637	0.658338
C86	C	1.904237	-0.582637	0.908338
C87	C	2.154237	-0.332637	1.158338
C88	C	2.404237	-0.082637	1.408338
C89	C	1.624974	-0.882089	0.548822
C90	C	1.874974	-0.632089	0.798822
C91	C	2.124974	-0.382089	1.048822
C92	C	2.374974	-0.132089	1.298822
C93	C	1.734420	-0.784314	0.578218
C94	C	1.984420	-0.534314	0.828218
C95	C	2.234420	-0.284314	1.078218
C96	C	2.484420	-0.034314	1.328218
C97	C	1.763742	-0.881944	0.687746
C98	C	2.013742	-0.631944	0.937746
C99	C	2.263742	-0.381944	1.187746
C100	C	2.513742	-0.131944	1.437746
C101	C	1.734532	-0.930299	0.578243
C102	C	1.984532	-0.680299	0.828243
C103	C	2.234532	-0.430299	1.078243
C104	C	2.484532	-0.180299	1.328243
C105	C	1.705099	-0.832678	0.468645
C106	C	1.955099	-0.582678	0.718645
C107	C	2.205099	-0.332678	0.968645
C108	C	2.455099	-0.082678	1.218645
C109	C	1.843918	-0.832529	0.607642
C110	C	2.093918	-0.582529	0.857642
C111	C	2.343918	-0.332529	1.107642
C112	C	2.593918	-0.082529	1.357642
C113	C	1.814697	-0.881959	0.498052
C114	C	2.064697	-0.631959	0.748052
C115	C	2.314697	-0.381959	0.998052
C116	C	2.564697	-0.131959	1.248052
C117	C	1.734353	-0.700216	0.578205
C118	C	1.984353	-0.450216	0.828205
C119	C	2.234353	-0.200216	1.078205
C120	C	2.484353	0.049784	1.328205
C121	C	1.734599	-1.014395	0.578243
C122	C	1.984599	-0.764395	0.828243
C123	C	2.234599	-0.514395	1.078243
C124	C	2.484599	-0.264395	1.328243
C125	C	2.047441	-0.357697	0.578207
C126	C	2.297441	-0.107697	0.828207
C127	C	2.547441	0.142303	1.078207
C128	C	2.797441	0.392303	1.328207
C129	C	2.180841	-0.357703	0.578214
C130	C	2.430841	-0.107703	0.828214
C131	C	2.680841	0.142297	1.078214
C132	C	2.930841	0.392297	1.328214
C133	C	1.734491	-0.357603	0.891233
C134	C	1.984491	-0.107603	1.141233
C135	C	2.234491	0.142397	1.391233
C136	C	2.484491	0.392397	1.641233
C137	C	1.734531	-0.357568	1.024633
C138	C	1.984531	-0.107568	1.274633
C139	C	2.234531	0.142432	1.524633
C140	C	2.484531	0.392432	1.774633
C141	C	1.734577	-0.163980	0.578237
C142	C	1.984577	0.086020	0.828237
C143	C	2.234577	0.336020	1.078237
C144	C	2.484577	0.586020	1.328237
C145	C	1.734653	-0.081434	0.578257
C146	C	1.984653	0.168566	0.828257
C147	C	2.234653	0.418566	1.078257
C148	C	2.484653	0.668566	1.328257
C149	C	1.734376	-0.357714	0.266366
C150	C	1.984376	-0.107714	0.516366
C151	C	2.234376	0.142286	0.766366
C152	C	2.484376	0.392286	1.016366
C153	C	1.734570	-0.357540	0.132967
C154	C	1.984570	-0.107540	0.382967
C155	C	2.234570	0.142460	0.632967
C156	C	2.484570	0.392460	0.882967
H157	H	1.586330	-0.810980	0.725996
H158	H	1.836330	-0.560980	0.975996
H159	H	2.086330	-0.310980	1.225996
H160	H	2.336330	-0.060980	1.475996
H161	H	1.680236	-0.811127	0.376003
H162	H	1.930236	-0.561127	0.626003
H163	H	2.180236	-0.311127	0.876003
H164	H	2.430236	-0.061127	1.126003
H165	H	1.788498	-0.903585	0.780363
H166	H	2.038498	-0.653585	1.030363
H167	H	2.288498	-0.403585	1.280363
H168	H	2.538498	-0.153585	1.530363
N169	N	1.502382	-0.910917	0.515842
N170	N	1.752382	-0.660917	0.765842
N171	N	2.002382	-0.410917	1.015842
N172	N	2.252382	-0.160917	1.265842
H173	H	1.441824	-0.892979	0.576397
H174	H	1.691824	-0.642979	0.826397
H175	H	1.941824	-0.392979	1.076397
H176	H	2.191824	-0.142979	1.326397
H177	H	1.503631	-0.966862	0.515308
H178	H	1.753631	-0.716862	0.765308
H179	H	2.003631	-0.466862	1.015308
H180	H	2.253631	-0.216862	1.265308
H181	H	1.882552	-0.903478	0.430230
H182	H	2.132552	-0.653478	0.680230
H183	H	2.382552	-0.403478	0.930230
H184	H	2.632552	-0.153478	1.180230
H185	H	1.936444	-0.810746	0.632559
H186	H	2.186444	-0.560746	0.882559
H187	H	2.436444	-0.310746	1.132559
H188	H	2.686444	-0.060746	1.382559
