data_functionalizedCrystal
_audit_creation_method	'MofGen! by Chris Wilmer'
_symmetry_space_group_name_H-M	'P1'
_symmetry_Int_Tables_number	1
_symmetry_cell_setting	triclinic
loop_
_symmetry_equiv_pos_as_xyz
  x,y,z
_cell_length_a	10.686285
_cell_length_b	10.685969
_cell_length_c	10.686551
_cell_angle_alpha	89.648066
_cell_angle_beta	99.084519
_cell_angle_gamma	98.371884
loop_
_atom_site_label
_atom_site_type_symbol
_atom_site_fract_x
_atom_site_fract_y
_atom_site_fract_z
Zn1	Zn	-0.617473	-2.015779	0.511373
Zn2	Zn	-0.117473	-1.515779	1.011373
Zn3	Zn	-0.846045	-2.015677	0.282879
Zn4	Zn	-0.346045	-1.515677	0.782879
Zn5	Zn	-0.615066	-1.789736	0.317933
Zn6	Zn	-0.115066	-1.289736	0.817933
Zn7	Zn	-0.813405	-1.819812	0.511371
Zn8	Zn	-0.313405	-1.319812	1.011371
O9	O	-0.722997	-1.910251	0.405889
O10	O	-0.222997	-1.410251	0.905889
O11	O	-0.662461	-2.192336	0.466394
O12	O	-0.162461	-1.692336	0.966394
O13	O	-0.828057	-1.973076	0.110949
O14	O	-0.328057	-1.473076	0.610949
O15	O	-0.436721	-1.807177	0.358264
O16	O	0.063279	-1.307177	0.858264
O17	O	-0.830392	-2.192261	0.298520
O18	O	-0.330392	-1.692261	0.798520
O19	O	-0.438490	-1.973250	0.500384
O20	O	0.061510	-1.473250	1.000384
O21	O	-0.658358	-1.807078	0.136703
O22	O	-0.158358	-1.307078	0.636703
O23	O	-0.626708	-1.617156	0.358262
O24	O	-0.126708	-1.117156	0.858262
O25	O	-0.774762	-1.858437	0.687951
O26	O	-0.274762	-1.358437	1.187951
O27	O	-0.772428	-1.639252	0.500380
O28	O	-0.272428	-1.139252	1.000380
O29	O	-0.630812	-2.002413	0.687953
O30	O	-0.130812	-1.502413	1.187953
O31	O	-1.020379	-2.002239	0.298518
O32	O	-0.520379	-1.502239	0.798518
O33	O	-0.996399	-1.858338	0.466390
O34	O	-0.496399	-1.358338	0.966390
C35	C	-0.695766	-1.582421	0.433125
C36	C	-0.195766	-1.082421	0.933125
C37	C	-0.684145	-1.442179	0.444805
C38	C	-0.184145	-0.942179	0.944805
C39	C	-1.054715	-1.933577	0.378675
C40	C	-0.554715	-1.433577	0.878675
C41	C	-1.196632	-1.943675	0.367065
C42	C	-0.696632	-1.443675	0.867065
C43	C	-0.389985	-1.886870	0.433234
C44	C	0.110015	-1.386870	0.933234
C45	C	-0.248075	-1.876907	0.444887
C46	C	0.251925	-1.376907	0.944887
C47	C	-0.699415	-1.933791	0.735017
C48	C	-0.199415	-1.433791	1.235017
C49	C	-0.689365	-1.943822	0.875272
C50	C	-0.189365	-1.443822	1.375272
C51	C	-0.750325	-1.239359	0.378534
C52	C	-0.250325	-0.739359	0.878534
C53	C	-0.761941	-1.379601	0.366842
C54	C	-0.261941	-0.879601	0.866842
C55	C	-0.746402	-1.886869	0.078042
C56	C	-0.246402	-1.386869	0.578042
C57	C	-0.756112	-1.877057	-0.062203
C58	C	-0.256112	-1.377057	0.437797
H59	H	-0.608651	-1.388465	0.520494
H60	H	-0.108651	-0.888465	1.020494
Br61	Br	-0.581311	-2.051909	0.964889
Br62	Br	-0.081311	-1.551909	1.464889
H63	H	-0.820948	-1.812225	0.884028
H64	H	-0.320948	-1.312225	1.384028
H65	H	-0.837450	-1.433322	0.291158
H66	H	-0.337450	-0.933322	0.791158
Br67	Br	-1.140527	-1.768751	0.570745
Br68	Br	-0.640527	-1.268751	1.070745
Br69	Br	-1.304184	-2.051813	0.241182
Br70	Br	-0.804184	-1.551813	0.741182
