data_functionalizedCrystal
_audit_creation_method	'MofGen! by Chris Wilmer'
_symmetry_space_group_name_H-M	'P1'
_symmetry_Int_Tables_number	1
_symmetry_cell_setting	triclinic
loop_
_symmetry_equiv_pos_as_xyz
  x,y,z
_cell_length_a	16.959455
_cell_length_b	13.032781
_cell_length_c	13.032268
_cell_angle_alpha	76.710517
_cell_angle_beta	97.163809
_cell_angle_gamma	82.799092
loop_
_atom_site_label
_atom_site_type_symbol
_atom_site_fract_x
_atom_site_fract_y
_atom_site_fract_z
Zn1	Zn	1.097592	0.499157	-0.654198
Zn2	Zn	1.097507	0.654240	-0.499145
Zn3	Zn	0.984640	0.476644	-0.476618
Zn4	Zn	0.946167	0.676703	-0.676688
O5	O	1.031477	0.576686	-0.576662
O6	O	1.208188	0.519750	-0.633646
O7	O	1.098600	0.611859	-0.347537
O8	O	1.015760	0.331002	-0.481335
O9	O	1.208126	0.633689	-0.519729
O10	O	1.098745	0.347542	-0.611802
O11	O	1.015677	0.481380	-0.330987
O12	O	0.868929	0.503161	-0.503142
O13	O	0.950189	0.671974	-0.822324
O14	O	0.840663	0.650144	-0.650132
O15	O	1.061440	0.541531	-0.805801
O16	O	1.061295	0.805848	-0.541536
O17	O	0.950106	0.822351	-0.671976
C18	C	0.826117	0.576648	-0.576634
C19	C	0.738257	0.576660	-0.576650
C20	C	1.001535	0.852640	-0.611664
C21	C	0.988795	0.970699	-0.626673
C22	C	1.001533	0.611769	-0.853676
C23	C	0.988772	0.626720	-0.971722
C24	C	0.381462	0.500114	-0.500259
C25	C	0.352078	0.653352	-0.653137
C26	C	0.434626	0.653336	-0.653129
C27	C	0.490596	0.576709	-0.576683
C28	C	0.464019	0.500098	-0.500247
C29	C	0.461210	0.729953	-0.729558
C30	C	0.543763	0.729941	-0.729551
C31	C	0.599735	0.653308	-0.653110
C32	C	0.573153	0.576693	-0.576671
C33	C	0.629123	0.500065	-0.500226
C34	C	0.602542	0.423445	-0.423790
C35	C	0.519991	0.423465	-0.423805
C36	C	0.682287	0.653287	-0.653095
C37	C	0.711680	0.500049	-0.500213
C38	C	1.237638	0.576725	-0.576692
C39	C	1.325492	0.576742	-0.576705
C40	C	1.061554	0.299657	-0.541547
C41	C	1.074371	0.181603	-0.526583
C42	C	1.025001	1.137160	-0.584381
C43	C	1.038171	1.015139	-0.568868
C44	C	1.038128	0.568845	-1.016176
C45	C	1.024941	0.584295	-1.138183
C46	C	1.061358	0.541662	-0.300717
C47	C	1.074304	0.526413	-0.182633
H48	H	0.757247	0.437643	-0.437967
H49	H	1.090144	0.507854	-0.963909
H50	H	0.936749	0.687700	-1.023988
O51	O	1.136488	1.119397	-0.453832
C52	C	1.179821	1.184409	-0.403082
H53	H	1.169356	1.268999	-0.456569
H54	H	1.158378	1.186008	-0.323880
C55	C	1.283114	1.035102	-0.316687
C56	C	1.270266	1.138995	-0.382386
H57	H	1.338904	1.007087	-0.303916
H58	H	1.253919	0.991300	-0.350875
H59	H	1.265239	1.036449	-0.250693
H60	H	1.288131	1.137645	-0.448382
H61	H	1.299466	1.182795	-0.348208
H62	H	0.703926	0.715674	-0.715325
H63	H	0.565397	0.792329	-0.791790
H64	H	0.972987	1.189445	-0.645353
H65	H	0.306503	0.715744	-0.715370
H66	H	0.972915	0.645280	-1.190446
O67	O	1.136270	0.453564	-1.120178
C68	C	1.105590	0.376874	-1.047352
H69	H	1.043401	0.412259	-1.035576
H70	H	1.100853	0.303545	-1.080074
C71	C	1.238864	0.300895	-0.953968
C72	C	1.162485	0.344359	-0.939498
H73	H	1.273960	0.280834	-0.887439
H74	H	1.259534	0.352560	-1.003035
H75	H	1.234905	0.239794	-0.981240
H76	H	1.166443	0.405467	-0.912239
H77	H	1.141816	0.292703	-0.890424
H78	H	0.498341	0.361086	-0.361574
H79	H	0.359816	0.437729	-0.438030
O80	O	0.656993	0.349154	-0.349498
C81	C	0.705598	0.400819	-0.288440
H82	H	0.705193	0.486096	-0.335981
H83	H	0.681033	0.402393	-0.211182
C84	C	0.792921	0.235194	-0.203496
C85	C	0.792428	0.339930	-0.261890
H86	H	0.846481	0.197633	-0.187113
H87	H	0.760173	0.200385	-0.244628
H88	H	0.772446	0.236520	-0.139121
H89	H	0.812893	0.338602	-0.326269
H90	H	0.825181	0.374737	-0.220767
O91	O	1.100137	0.952715	-0.496007
C92	C	1.069466	0.879910	-0.419283
H93	H	1.004336	0.912632	-0.416885
H94	H	1.072181	0.800033	-0.441509
C95	C	1.200270	0.823893	-0.311634
C96	C	1.120278	0.864087	-0.308682
H97	H	1.231614	0.814128	-0.243410
H98	H	1.220934	0.872940	-0.363325
H99	H	1.202521	0.757333	-0.330160
H100	H	1.118026	0.930652	-0.290169
H101	H	1.099614	0.815051	-0.256984
H102	H	0.936777	1.022980	-0.687650
H103	H	0.415634	0.792345	-0.791788
