data_functionalizedCrystal
_audit_creation_method	'MofGen! by Chris Wilmer'
_symmetry_space_group_name_H-M	'P1'
_symmetry_Int_Tables_number	1
_symmetry_cell_setting	triclinic
loop_
_symmetry_equiv_pos_as_xyz
  x,y,z
_cell_length_a	14.519709
_cell_length_b	14.971486
_cell_length_c	13.448316
_cell_angle_alpha	90.001801
_cell_angle_beta	89.992453
_cell_angle_gamma	96.352863
loop_
_atom_site_label
_atom_site_type_symbol
_atom_site_fract_x
_atom_site_fract_y
_atom_site_fract_z
O1	O	0.120184	-1.187015	-0.082580
O2	O	0.134576	-0.926623	-0.082607
O3	O	-0.006863	-1.063723	-0.082584
O4	O	0.261623	-1.049915	-0.082603
O5	O	-0.006871	-1.063706	0.082800
O6	O	0.134567	-0.926606	0.082777
O7	O	0.120175	-1.186998	0.082804
Cu8	Cu	0.127371	-1.056800	0.097891
Cu9	Cu	0.127381	-1.056820	-0.097694
O10	O	0.261614	-1.049898	0.082781
C11	C	-0.041226	-1.063071	0.000108
C12	C	-0.143606	-1.061142	0.000109
C13	C	0.133928	-0.893289	0.000082
C14	C	0.131999	-0.793991	0.000071
C15	C	0.120823	-1.220331	0.000113
C16	C	0.122752	-1.319630	0.000117
C17	C	-0.518498	-1.054043	0.000082
C18	C	-0.414191	-1.056015	0.000090
C19	C	-0.331055	-1.057593	0.000096
C20	C	-0.226742	-1.059564	0.000102
C21	C	0.295978	-1.050550	0.000087
C22	C	0.398358	-1.052478	0.000080
N23	N	0.127363	-1.056792	0.235456
C24	C	0.215091	-0.736812	0.000067
C25	C	0.213273	-0.643512	0.000082
C26	C	0.128363	-0.607392	0.000094
C27	C	0.045265	-0.664578	0.000102
C28	C	0.047084	-0.757876	0.000094
C29	C	0.041480	-0.470113	0.000116
C30	C	0.039661	-0.376808	0.000122
C31	C	0.207669	-0.355749	0.000104
C32	C	0.209488	-0.449047	0.000096
C33	C	0.126390	-0.506227	0.000101
N34	N	0.127381	-1.056835	-0.235258
C35	C	0.064759	-1.117519	0.287506
C36	C	0.064759	-1.117525	0.391610
C37	C	0.127366	-1.056807	0.443660
C38	C	0.189973	-0.996074	0.391602
C39	C	0.189968	-0.996065	0.287501
C40	C	0.189979	-0.996099	0.608582
C41	C	0.189985	-0.996109	0.712691
C42	C	0.064769	-1.117559	0.712691
C43	C	0.064765	-1.117549	0.608590
C44	C	0.127373	-1.056817	0.556539
H45	H	0.284234	-0.766213	0.000056
H46	H	-0.023871	-0.635162	0.000126
H47	H	-0.020578	-0.804431	0.000097
H48	H	0.278629	-0.478453	0.000076
H49	H	0.013792	-1.167009	0.755077
O50	O	0.288333	-0.300121	-0.000032
C51	C	0.292318	-0.245534	-0.085694
H52	H	0.219112	-0.240695	-0.114234
H53	H	0.326598	-0.175471	-0.066430
H54	H	0.334468	-0.276293	-0.145684
H55	H	0.013781	-1.166966	0.245134
O56	O	0.250696	-0.936997	0.763216
C57	C	0.235546	-0.848437	0.737782
H58	H	0.161709	-0.847899	0.709167
H59	H	0.246058	-0.803577	0.806254
H60	H	0.286621	-0.822222	0.677361
H61	H	0.240946	-0.946632	0.433988
O62	O	0.250834	-0.937227	0.557908
C63	C	0.307823	-0.985213	0.497693
H64	H	0.271208	-1.055143	0.482096
H65	H	0.322346	-0.947899	0.424490
H66	H	0.375995	-0.991400	0.537797
H67	H	0.013782	-1.166972	0.433989
O68	O	0.250911	-0.937166	0.236980
C69	C	0.342232	-0.951832	0.262414
H70	H	0.342809	-1.023444	0.291019
H71	H	0.388494	-0.941608	0.193944
H72	H	0.369237	-0.902304	0.322842
O73	O	-0.042900	-0.341868	0.000180
C74	C	-0.115855	-0.412339	0.000165
H75	H	-0.089938	-0.475761	0.031472
H76	H	-0.175129	-0.392743	0.048189
H77	H	-0.141491	-0.425500	-0.079174
H78	H	0.280934	-0.596960	0.000077
H79	H	-0.026188	-0.516667	0.000122
O80	O	0.003861	-1.176564	0.558180
C81	C	-0.051383	-1.230184	0.626441
H82	H	-0.052489	-1.193524	0.700656
H83	H	-0.125010	-1.243712	0.596370
H84	H	-0.021323	-1.296674	0.637494
