data_functionalizedCrystal
_audit_creation_method	'MofGen! by Chris Wilmer'
_symmetry_space_group_name_H-M	'P1'
_symmetry_Int_Tables_number	1
_symmetry_cell_setting	triclinic
loop_
_symmetry_equiv_pos_as_xyz
  x,y,z
_cell_length_a	16.992694
_cell_length_b	14.044220
_cell_length_c	15.455313
_cell_angle_alpha	92.908275
_cell_angle_beta	87.142206
_cell_angle_gamma	91.928550
loop_
_atom_site_label
_atom_site_type_symbol
_atom_site_fract_x
_atom_site_fract_y
_atom_site_fract_z
O1	O	1.057683	0.198159	-0.072025
O2	O	1.557683	0.698159	0.427975
O3	O	0.829244	0.195941	-0.072050
O4	O	1.329244	0.695941	0.427950
O5	O	0.940034	0.058806	-0.072029
O6	O	1.440034	0.558806	0.427971
O7	O	0.946893	0.335294	-0.072046
O8	O	1.446893	0.835294	0.427954
O9	O	0.933696	0.066614	0.072232
O10	O	1.433696	0.566614	0.572232
O11	O	0.822906	0.203749	0.072211
O12	O	1.322906	0.703749	0.572211
O13	O	1.051345	0.205967	0.072236
O14	O	1.551345	0.705967	0.572236
Cu15	Cu	0.936547	0.205571	0.085396
Cu16	Cu	1.436547	0.705571	0.585396
Cu17	Cu	0.944042	0.196337	-0.085210
Cu18	Cu	1.444042	0.696337	0.414790
O19	O	0.940555	0.343102	0.072215
O20	O	1.440555	0.843102	0.572215
C21	C	0.796663	0.196993	0.000077
C22	C	1.296663	0.696993	0.500077
C23	C	0.709024	0.188484	0.000068
C24	C	1.209024	0.688484	0.500068
C25	C	0.664526	0.270581	0.000063
C26	C	1.164526	0.770581	0.500063
C27	C	0.582179	0.262581	0.000076
C28	C	1.082179	0.762581	0.500076
C29	C	0.544332	0.172483	0.000086
C30	C	1.044332	0.672483	0.500086
C31	C	0.588836	0.090381	0.000093
C32	C	1.088836	0.590381	0.500093
C33	C	0.671181	0.098382	0.000087
C34	C	1.171181	0.598382	0.500087
C35	C	0.298414	0.139322	0.000112
C36	C	0.798414	0.639322	0.500112
C37	C	0.216063	0.131327	0.000115
C38	C	0.716063	0.631327	0.500115
C39	C	0.209411	0.303528	0.000100
C40	C	0.709411	0.803528	0.500100
C41	C	0.291759	0.311521	0.000088
C42	C	0.791759	0.811521	0.500088
C43	C	0.336255	0.229419	0.000099
C44	C	0.836255	0.729419	0.500099
N45	N	0.460161	0.164304	0.000096
N46	N	0.960161	0.664304	0.500096
N47	N	0.420425	0.237599	0.000096
N48	N	0.920425	0.737599	0.500096
C49	C	0.933863	0.027168	0.000101
C50	C	1.433863	0.527168	0.500101
C51	C	0.924909	-0.078736	0.000101
C52	C	1.424909	0.421264	0.500101
C53	C	0.908540	-0.272638	0.000087
C54	C	1.408540	0.227362	0.500087
C55	C	0.972046	-0.325460	0.000092
C56	C	1.472046	0.174540	0.500092
C57	C	0.962938	-0.433354	0.000084
C58	C	1.462938	0.066646	0.500084
C59	C	0.917647	-0.164734	0.000095
C60	C	1.417647	0.335266	0.500095
C61	C	1.083926	0.204915	0.000107
C62	C	1.583926	0.704915	0.500107
C63	C	1.171565	0.213424	0.000111
C64	C	1.671565	0.713424	0.500111
C65	C	0.946726	0.374740	0.000083
C66	C	1.446726	0.874740	0.500083
C67	C	0.955680	0.480644	0.000077
C68	C	1.455680	0.980644	0.500077
N69	N	0.931281	0.212065	0.205390
N70	N	1.431281	0.712065	0.705390
N71	N	0.949314	0.189836	-0.205204
N72	N	1.449314	0.689836	0.294796
C73	C	0.978368	0.153829	0.250793
C74	C	1.478368	0.653829	0.750793
C75	C	0.974393	0.158750	0.341600
C76	C	1.474393	0.658750	0.841600
C77	C	0.923335	0.221911	0.387003
C78	C	1.423335	0.721911	0.887003
C79	C	0.876243	0.280149	0.341594
C80	C	1.376243	0.780149	0.841594
C81	C	0.880214	0.275223	0.250788
C82	C	1.380214	0.775223	0.750788
C83	C	0.906193	0.243148	0.658581
C84	C	1.406193	0.743148	1.158581
C85	C	0.902227	0.248072	0.749393
C86	C	1.402227	0.748072	1.249393
C87	C	1.000377	0.126671	0.749394
C88	C	1.500377	0.626671	1.249394
C89	C	1.004347	0.121754	0.658586
C90	C	1.504347	0.621754	1.158586
C91	C	0.957251	0.179989	0.613185
C92	C	1.457251	0.679989	1.113185
N93	N	0.919273	0.226945	0.479822
N94	N	1.419273	0.726945	0.979822
N95	N	0.961310	0.174950	0.520367
N96	N	1.461310	0.674950	1.020367
H97	H	0.545952	0.329433	0.000072
H98	H	1.045952	0.829433	0.500072
C99	C	1.054736	-0.277097	0.000111
C100	C	1.554736	0.222903	0.500111
H101	H	1.093384	-0.324430	0.000109
H102	H	1.593384	0.175570	0.500109
H103	H	1.058707	-0.235801	0.050422
H104	H	1.558707	0.264199	0.550422
H105	H	1.063135	-0.241232	-0.050198
H106	H	1.563135	0.258768	0.449802
H107	H	0.841869	0.322643	0.213822
H108	H	1.341869	0.822643	0.713822
C109	C	0.825856	-0.321004	0.000085
C110	C	1.325856	0.178996	0.500085
H111	H	0.830505	-0.388227	0.000090
H112	H	1.330505	0.111773	0.500090
H113	H	0.800230	-0.305040	-0.050219
H114	H	1.300230	0.194960	0.449781
H115	H	0.795826	-0.299603	0.050401
H116	H	1.295826	0.200397	0.550401
C117	C	0.347350	0.049013	0.000118
C118	C	0.847350	0.549013	0.500118
H119	H	0.313015	-0.005790	0.000116
H120	H	0.813015	0.494210	0.500116
H121	H	0.377407	0.051275	0.050424
H122	H	0.877407	0.551275	0.550424
H123	H	0.381815	0.045828	-0.050197
H124	H	0.881815	0.545828	0.449803
H125	H	0.322568	0.384887	0.000070
H126	H	0.822568	0.884887	0.500070
C127	C	1.034531	0.084350	0.200858
C128	C	1.534531	0.584350	0.700858
H129	H	1.061999	0.050365	0.240908
H130	H	1.561999	0.550365	0.740908
H131	H	1.071291	0.119212	0.165423
H132	H	1.571291	0.619212	0.665423
H133	H	1.004944	0.040589	0.165448
H134	H	1.504944	0.540589	0.665448
C135	C	1.052169	0.062610	0.799337
C136	C	1.552169	0.562610	1.299337
H137	H	1.042488	0.074581	0.859920
H138	H	1.542488	0.574581	1.359920
H139	H	1.106153	0.076168	0.784446
H140	H	1.606153	0.576168	1.284446
H141	H	1.039803	-0.002452	0.784464
H142	H	1.539803	0.497548	1.284464
C143	C	1.026197	0.094700	0.391540
C144	C	1.526197	0.594700	0.891540
H145	H	1.057183	0.056389	0.351495
H146	H	1.557183	0.556389	0.851495
H147	H	0.993527	0.054780	0.426976
H148	H	1.493527	0.554780	0.926976
H149	H	1.059858	0.133424	0.426950
H150	H	1.559858	0.633424	0.926950
C151	C	1.060506	0.052271	0.608650
C152	C	1.560506	0.552271	1.108650
H153	H	1.087975	0.018285	0.648697
H154	H	1.587975	0.518285	1.148697
H155	H	1.097264	0.087135	0.573214
H156	H	1.597264	0.587135	1.073214
H157	H	1.030918	0.008511	0.573240
H158	H	1.530918	0.508511	1.073240
H159	H	0.707411	0.031530	0.000090
H160	H	1.207411	0.531530	0.500090
H161	H	0.860647	0.299509	0.786355
H162	H	1.360647	0.799509	1.286355
H163	H	0.558015	0.017022	0.000114
H164	H	1.058015	0.517022	0.500114
C165	C	0.854397	0.307212	0.608651
C166	C	1.354397	0.807212	1.108651
H167	H	0.823428	0.345540	0.648699
H168	H	1.323428	0.845540	1.148699
H169	H	0.820733	0.268507	0.573238
H170	H	1.320733	0.768507	1.073238
H171	H	0.887080	0.347131	0.573218
H172	H	1.387080	0.847131	1.073218
H173	H	0.834666	0.331573	0.378565
H174	H	1.334666	0.831573	0.878565
H175	H	0.173174	0.370371	0.000092
H176	H	0.673174	0.870371	0.500092
C177	C	0.706150	0.369689	0.000051
C178	C	1.206150	0.869689	0.500051
H179	H	0.667851	0.417436	0.000059
H180	H	1.167851	0.917436	0.500059
H181	H	0.740338	0.373668	-0.050258
H182	H	1.240338	0.873668	0.449742
H183	H	0.735930	0.379112	0.050363
H184	H	1.235930	0.879112	0.550363
H185	H	0.185251	0.057956	0.000123
H186	H	0.685251	0.557956	0.500123
