data_functionalizedCrystal
_audit_creation_method	'MofGen! by Chris Wilmer'
_symmetry_space_group_name_H-M	'P1'
_symmetry_Int_Tables_number	1
_symmetry_cell_setting	triclinic
loop_
_symmetry_equiv_pos_as_xyz
  x,y,z
_cell_length_a	16.109301
_cell_length_b	14.586319
_cell_length_c	16.109301
_cell_angle_alpha	89.994786
_cell_angle_beta	96.538519
_cell_angle_gamma	90.000787
loop_
_atom_site_label
_atom_site_type_symbol
_atom_site_fract_x
_atom_site_fract_y
_atom_site_fract_z
O1	O	-1.103131	-0.076185	0.106866
O2	O	-0.861069	-0.076200	0.120165
O3	O	-0.988749	-0.076183	-0.007515
O4	O	-0.975450	-0.076203	0.234547
O5	O	-0.988741	0.076298	-0.007517
O6	O	-0.861060	0.076281	0.120164
O7	O	-1.103122	0.076295	0.106864
Cu8	Cu	-0.982090	0.090211	0.113514
Cu9	Cu	-0.982101	-0.090115	0.113516
O10	O	-0.975441	0.076278	0.234545
C11	C	-0.830090	0.000038	0.119626
C12	C	-0.737794	0.000033	0.118011
C13	C	-0.988206	0.000058	-0.038491
C14	C	-0.986591	0.000059	-0.130786
N15	N	-0.982089	0.217042	0.113512
C16	C	-1.134101	0.000055	0.107404
C17	C	-1.226397	0.000054	0.109019
C18	C	-0.515522	0.000038	0.190018
C19	C	-0.428801	0.000044	0.188494
C20	C	-0.448676	0.000052	0.037006
C21	C	-0.535394	0.000053	0.038530
C22	C	-0.568815	0.000041	0.115039
C23	C	-0.395376	0.000046	0.111990
C24	C	-0.301350	0.000053	0.110337
C25	C	-0.662847	0.000036	0.116693
N26	N	-0.982109	-0.216947	0.113511
C27	C	-1.038644	0.452057	0.056994
C28	C	-1.038647	0.548038	0.056992
C29	C	-0.925547	0.548032	0.170032
C30	C	-0.925541	0.452052	0.170030
C31	C	-0.982095	0.404067	0.113511
C32	C	-0.982103	0.596028	0.113512
C33	C	-0.982105	0.700095	0.113510
C34	C	-0.982092	0.299993	0.113512
C35	C	-1.058599	0.000049	-0.353059
C36	C	-1.057075	0.000041	-0.439779
C37	C	-0.905586	0.000036	-0.419905
C38	C	-0.907111	0.000037	-0.333186
C39	C	-0.983620	0.000048	-0.299766
C40	C	-0.980571	0.000039	-0.473205
C41	C	-0.978918	0.000031	-0.567231
C42	C	-0.985273	0.000055	-0.205734
C43	C	-0.975984	0.000035	0.265521
C44	C	-0.977600	0.000028	0.357816
H45	H	-0.542730	0.000035	0.252317
H46	H	-0.846050	0.000033	-0.289792
O47	O	-0.870574	0.405572	0.225015
C48	C	-0.820651	0.468504	0.274891
H49	H	-0.854738	0.536919	0.275847
H50	H	-0.807946	0.440759	0.341283
H51	H	-0.758901	0.478721	0.247877
O52	O	-0.870699	0.594789	0.224905
C53	C	-0.882817	0.689794	0.212778
H54	H	-0.948923	0.702901	0.181721
H55	H	-0.873554	0.726262	0.275740
H56	H	-0.835773	0.717044	0.171067
O57	O	-1.132937	-0.000113	-0.320632
C58	C	-1.178648	-0.079075	-0.347878
H59	H	-1.133908	-0.134269	-0.365898
H60	H	-1.214007	-0.105585	-0.295354
H61	H	-1.224991	-0.061224	-0.404412
O62	O	-1.129888	-0.000119	-0.491581
C63	C	-1.133535	-0.079082	-0.542341
H64	H	-1.091014	-0.134278	-0.510562
H65	H	-1.200510	-0.105587	-0.552106
H66	H	-1.112033	-0.061234	-0.605397
H67	H	-0.385413	0.000043	0.249550
O68	O	-0.831322	-0.000089	-0.452471
C69	C	-0.825899	-0.079071	-0.502017
H70	H	-0.891434	-0.105399	-0.523633
H71	H	-0.792772	-0.061308	-0.558794
H72	H	-0.789108	-0.134370	-0.463690
O73	O	-0.416168	-0.000107	-0.037290
C74	C	-0.366587	-0.079069	-0.042690
H75	H	-0.387085	-0.134265	0.000755
H76	H	-0.374392	-0.105575	-0.109696
H77	H	-0.298194	-0.061218	-0.023496
O78	O	-0.587051	0.000014	-0.034386
C79	C	-0.538960	0.000039	-0.102241
H80	H	-0.474231	-0.028832	-0.081127
H81	H	-0.570970	-0.044226	-0.154772
H82	H	-0.532792	0.073193	-0.125696
H83	H	-1.084693	0.412989	0.010972
H84	H	-1.084694	0.587108	0.010969
