data_functionalizedCrystal
_audit_creation_method	'MofGen! by Chris Wilmer'
_symmetry_space_group_name_H-M	'P1'
_symmetry_Int_Tables_number	1
_symmetry_cell_setting	triclinic
loop_
_symmetry_equiv_pos_as_xyz
  x,y,z
_cell_length_a	21.395364
_cell_length_b	16.625545
_cell_length_c	21.395356
_cell_angle_alpha	89.974643
_cell_angle_beta	89.976411
_cell_angle_gamma	90.040509
loop_
_atom_site_label
_atom_site_type_symbol
_atom_site_fract_x
_atom_site_fract_y
_atom_site_fract_z
Zn1	Zn	0.957876	-0.320700	-0.354272
Zn2	Zn	1.457876	0.179300	0.145728
Zn3	Zn	0.957789	-0.455537	-0.249498
Zn4	Zn	1.457789	0.044463	0.250502
Zn5	Zn	0.853092	-0.320757	-0.249508
Zn6	Zn	1.353092	0.179243	0.250492
Zn7	Zn	0.853069	-0.455530	-0.354239
Zn8	Zn	1.353069	0.044470	0.145761
O9	O	0.905457	-0.388131	-0.301879
O10	O	1.405457	0.111869	0.198121
O11	O	1.045542	-0.338566	-0.340383
O12	O	1.545542	0.161434	0.159617
O13	O	0.943875	-0.437685	-0.161822
O14	O	1.443875	0.062315	0.338178
O15	O	0.867038	-0.207917	-0.263423
O16	O	1.367038	0.292083	0.236577
O17	O	1.045479	-0.437630	-0.263406
O18	O	1.545479	0.062370	0.236594
O19	O	0.944022	-0.207876	-0.340393
O20	O	1.444022	0.292124	0.159607
O21	O	0.866954	-0.338663	-0.161829
O22	O	1.366954	0.161337	0.338171
O23	O	0.765411	-0.338656	-0.263391
O24	O	1.265411	0.161344	0.236609
O25	O	0.866999	-0.437618	-0.441921
O26	O	1.366999	0.062382	0.058079
O27	O	0.765394	-0.437673	-0.340336
O28	O	1.265394	0.062327	0.159664
O29	O	0.943999	-0.338559	-0.441945
O30	O	1.443999	0.161441	0.058055
O31	O	0.943852	-0.568369	-0.263374
O32	O	1.443852	-0.068369	0.236626
O33	O	0.866915	-0.568363	-0.340327
O34	O	1.366915	-0.068363	0.159673
C35	C	0.742669	-0.388170	-0.301862
C36	C	1.242669	0.111830	0.198138
C37	C	0.673028	-0.388207	-0.301869
C38	C	1.173028	0.111793	0.198131
C39	C	0.640370	-0.336708	-0.342013
C40	C	1.140370	0.163292	0.157987
C41	C	0.574935	-0.336687	-0.342015
C42	C	1.074935	0.163313	0.157985
C43	C	0.542160	-0.388178	-0.301880
C44	C	1.042160	0.111822	0.198120
C45	C	0.574825	-0.439680	-0.261729
C46	C	1.074825	0.060320	0.238271
C47	C	0.640259	-0.439694	-0.261723
C48	C	1.140259	0.060306	0.238277
C49	C	0.438440	-0.460792	-0.296845
C50	C	0.938440	0.039208	0.203155
C51	C	0.373007	-0.460779	-0.296855
C52	C	0.873007	0.039221	0.203145
C53	C	0.340339	-0.388134	-0.301894
C54	C	0.840339	0.111866	0.198106
C55	C	0.373111	-0.315499	-0.306936
C56	C	0.873111	0.184501	0.193064
C57	C	0.438545	-0.315513	-0.306931
C58	C	0.938545	0.184487	0.193069
C59	C	0.471207	-0.388168	-0.301882
C60	C	0.971207	0.111832	0.198118
C61	C	0.236729	-0.336608	-0.342043
C62	C	0.736729	0.163392	0.157957
C63	C	0.171292	-0.336585	-0.342041
C64	C	0.671292	0.163415	0.157959
C65	C	0.171184	-0.439585	-0.261758
C66	C	0.671184	0.060415	0.238242
C67	C	0.236619	-0.439601	-0.261757
C68	C	0.736619	0.060399	0.238243
C69	C	0.269387	-0.388113	-0.301902
C70	C	0.769387	0.111887	0.198098
C71	C	0.905389	-0.597622	-0.301860
C72	C	1.405389	-0.097622	0.198140
C73	C	0.905417	-0.687243	-0.301872
C74	C	1.405417	-0.187243	0.198128
C75	C	0.905441	-0.760026	-0.301884
C76	C	1.405441	-0.260026	0.198116
C77	C	0.905478	-0.851334	-0.301898
C78	C	1.405478	-0.351334	0.198102
C79	C	0.905510	-0.924110	-0.301906
C80	C	1.405510	-0.424110	0.198094
C81	C	0.905546	-1.015425	-0.301919
C82	C	1.405546	-0.515425	0.198081
C83	C	1.068880	-0.388092	-0.301897
C84	C	1.568880	0.111908	0.198103
C85	C	1.138521	-0.388076	-0.301905
C86	C	1.638521	0.111924	0.198095
C87	C	0.905506	-0.388081	-0.465303
C88	C	1.405506	0.111919	0.034697
C89	C	0.905527	-0.388060	-0.534944
C90	C	1.405527	0.111940	-0.034944
C91	C	0.905542	-0.177822	-0.301913
C92	C	1.405542	0.322178	0.198087
C93	C	0.905579	-0.088201	-0.301927
C94	C	1.405579	0.411799	0.198073
C95	C	0.865485	-0.336493	-0.567651
C96	C	1.365485	0.163507	-0.067651
C97	C	0.865483	-0.336478	-0.633086
C98	C	1.365483	0.163522	-0.133086
C99	C	0.905534	-0.388022	-0.665812
C100	C	1.405534	0.111978	-0.165812
C101	C	0.945578	-0.439598	-0.633097
C102	C	1.445578	0.060402	-0.133097
C103	C	0.945575	-0.439617	-0.567663
C104	C	1.445575	0.060383	-0.067663
C105	C	0.961986	-0.394342	-0.769499
C106	C	1.461986	0.105658	-0.269499
C107	C	0.961991	-0.394317	-0.834932
C108	C	1.461991	0.105683	-0.334932
C109	C	0.905544	-0.387967	-0.867633
C110	C	1.405544	0.112033	-0.367633
C111	C	0.849091	-0.381625	-0.834893
C112	C	1.349091	0.118375	-0.334893
C113	C	0.849088	-0.381644	-0.769459
C114	C	1.349088	0.118356	-0.269459
C115	C	0.905542	-0.388007	-0.736765
C116	C	1.405542	0.111993	-0.236765
C117	C	0.865497	-0.336382	-0.971293
C118	C	1.365497	0.163618	-0.471293
C119	C	0.865494	-0.336372	-1.036729
C120	C	1.365494	0.163628	-0.536729
C121	C	0.945595	-0.439488	-1.036739
C122	C	1.445595	0.060512	-0.536739
C123	C	0.945592	-0.439501	-0.971304
C124	C	1.445592	0.060499	-0.471304
C125	C	0.905544	-0.387944	-0.938584
C126	C	1.405544	0.112056	-0.438584
C127	C	0.905444	-0.388123	-0.139092
C128	C	1.405444	0.111877	0.360908
C129	C	0.905544	-0.387917	-0.069451
C130	C	1.405544	0.112083	0.430549
H131	H	0.666849	-0.481632	-0.229033
H132	H	1.166849	0.018368	0.270967
H133	H	0.978206	-0.481454	-1.063384
H134	H	1.478206	0.018546	-0.563384
H135	H	0.346514	-0.256344	-0.311040
H136	H	0.846514	0.243656	0.188960
H137	H	0.803127	-0.376449	-0.861517
H138	H	1.303127	0.123551	-0.361517
O139	O	0.988773	-0.495200	-0.668389
O140	O	1.488773	0.004800	-0.168389
H141	H	1.037953	-0.481374	-0.655845
H142	H	1.537953	0.018626	-0.155845
H143	H	0.832873	-0.294514	-0.541015
H144	H	1.332873	0.205486	-0.041015
H145	H	0.144703	-0.294644	-0.374729
H146	H	0.644703	0.205356	0.125271
H147	H	0.978200	-0.481491	-0.944673
H148	H	1.478200	0.018509	-0.444673
O149	O	0.135839	-0.495116	-0.218465
O150	O	0.635839	0.004884	0.281535
H151	H	0.169545	-0.530926	-0.190546
H152	H	0.669545	-0.030926	0.309454
O153	O	0.822305	-0.280745	-1.072007
O154	O	1.322305	0.219255	-0.572007
H155	H	0.790406	-0.316826	-1.101796
H156	H	1.290406	0.183174	-0.601796
H157	H	0.667046	-0.294783	-0.374702
H158	H	1.167046	0.205217	0.125298
O159	O	0.272074	-0.281067	-0.385335
O160	O	0.772074	0.218933	0.114665
H161	H	0.323062	-0.289736	-0.378593
H162	H	0.823062	0.210264	0.121407
H163	H	0.465034	-0.519953	-0.292741
H164	H	0.965034	-0.019953	0.207259
H165	H	0.832877	-0.294483	-0.659722
H166	H	1.332877	0.205517	-0.159722
H167	H	0.263209	-0.481540	-0.229070
H168	H	0.763209	0.018460	0.270930
O169	O	0.788206	-0.374799	-0.734144
O170	O	1.288206	0.125201	-0.234144
H171	H	0.748953	-0.370379	-0.767871
H172	H	1.248953	0.129621	-0.267871
H173	H	0.832887	-0.294401	-0.944651
H174	H	1.332887	0.205599	-0.444651
O175	O	0.337661	-0.539114	-0.291405
O176	O	0.837661	-0.039114	0.208595
H177	H	0.371368	-0.589629	-0.287883
H178	H	0.871368	-0.089629	0.212117
H179	H	0.548135	-0.481604	-0.229051
H180	H	1.048135	0.018396	0.270949
H181	H	1.007958	-0.399477	-0.861583
H182	H	1.507958	0.100523	-0.361583
O183	O	0.539696	-0.281144	-0.385314
O184	O	1.039696	0.218856	0.114686
H185	H	0.552264	-0.295069	-0.434468
H186	H	1.052264	0.204931	0.065532
H187	H	1.007956	-0.399506	-0.742879
H188	H	1.507956	0.100494	-0.242879
O189	O	0.988774	-0.495225	-0.532380
O190	O	1.488774	0.004775	-0.032380
H191	H	1.016629	-0.531060	-0.566126
H192	H	1.516629	-0.031060	-0.066126
H193	H	0.465226	-0.256372	-0.311034
H194	H	0.965226	0.243628	0.188966
