data_functionalizedCrystal
_audit_creation_method	'MofGen! by Chris Wilmer'
_symmetry_space_group_name_H-M	'P1'
_symmetry_Int_Tables_number	1
_symmetry_cell_setting	triclinic
loop_
_symmetry_equiv_pos_as_xyz
  x,y,z
_cell_length_a	13.032268
_cell_length_b	12.759401
_cell_length_c	12.759399
_cell_angle_alpha	89.983359
_cell_angle_beta	97.149720
_cell_angle_gamma	82.836092
loop_
_atom_site_label
_atom_site_type_symbol
_atom_site_fract_x
_atom_site_fract_y
_atom_site_fract_z
Zn1	Zn	-0.590825	-1.530768	-0.493623
Zn2	Zn	-0.416088	-1.552986	-0.647024
Zn3	Zn	-0.416104	-1.377392	-0.471367
Zn4	Zn	-0.590781	-1.355063	-0.669260
O5	O	-0.503449	-1.454052	-0.570318
O6	O	-0.567657	-1.680735	-0.513981
O7	O	-0.269859	-1.548336	-0.605103
O8	O	-0.439306	-1.397785	-0.327301
O9	O	-0.439279	-1.697058	-0.626684
O10	O	-0.567673	-1.510469	-0.343653
O11	O	-0.269871	-1.419328	-0.476048
O12	O	-0.439264	-1.227411	-0.497609
O13	O	-0.737018	-1.359727	-0.664581
O14	O	-0.567598	-1.211005	-0.643000
O15	O	-0.737050	-1.488817	-0.535542
O16	O	-0.439236	-1.526684	-0.796992
O17	O	-0.567583	-1.381271	-0.813328
C18	C	-0.503429	-1.181087	-0.570303
C19	C	-0.503445	-1.064309	-0.570325
C20	C	-0.776010	-1.419303	-0.605025
C21	C	-0.892159	-1.404495	-0.619814
C22	C	-0.503426	-1.453991	-0.843283
C23	C	-0.503450	-1.454056	-0.960063
C24	C	-0.943958	-1.461764	-0.562562
C25	C	-1.064004	-1.446461	-0.577846
C26	C	-0.231949	-1.488727	-0.535672
C27	C	-0.115800	-1.503738	-0.520586
C28	C	-0.503471	-1.728083	-0.570335
C29	C	-0.503480	-1.844858	-0.570342
C30	C	-0.570163	-1.000945	-0.646119
C31	C	-0.570184	-0.891219	-0.646126
C32	C	-0.436758	-0.908230	-0.494540
C33	C	-0.436744	-1.017953	-0.494530
C34	C	-0.693378	-0.725581	-0.699556
C35	C	-0.760088	-0.662215	-0.775366
C36	C	-0.775949	-0.695785	-0.879922
C37	C	-0.725086	-0.792721	-0.908688
C38	C	-0.658369	-0.856083	-0.832884
C39	C	-0.642527	-0.822511	-0.728315
C40	C	-0.313548	-1.183594	-0.441109
C41	C	-0.246825	-1.246958	-0.365309
C42	C	-0.230952	-1.213391	-0.260749
C43	C	-0.281797	-1.116453	-0.231984
C44	C	-0.348521	-1.053089	-0.307785
C45	C	-0.364394	-1.086664	-0.412344
C46	C	-0.436696	-1.529840	-1.006393
C47	C	-0.436731	-1.529903	-1.116121
C48	C	-0.570277	-1.378389	-1.133180
C49	C	-0.570247	-1.378332	-1.023454
C50	C	-0.399545	-1.658663	-1.261248
C51	C	-0.332774	-1.734439	-1.307580
C52	C	-0.230815	-1.763630	-1.259019
C53	C	-0.195605	-1.717032	-1.164125
C54	C	-0.262370	-1.641249	-1.117798
C55	C	-0.364344	-1.612076	-1.166359
C56	C	-0.607423	-1.249572	-0.878324
C57	C	-0.674183	-1.173783	-0.831994
C58	C	-0.776144	-1.144581	-0.880554
C59	C	-0.811350	-1.191161	-0.975451
C60	C	-0.744590	-1.266949	-1.021780
C61	C	-0.642630	-1.296153	-0.973214
C62	C	-0.503496	-1.454139	-0.296291
C63	C	-0.503516	-1.454177	-0.179517
H64	H	-0.899431	-1.522120	-0.502227
H65	H	-0.801502	-0.583290	-0.751934
H66	H	-0.645512	-1.135861	-0.754719
H67	H	-0.936686	-1.344129	-0.680139
H68	H	-1.108527	-1.386090	-0.638175
C69	C	-0.364055	-1.611899	-0.937495
C70	C	-0.296988	-1.560982	-0.866067
C71	C	-0.230048	-1.636545	-0.802594
H72	H	-0.403935	-1.652556	-0.899627
H73	H	-0.324244	-1.657033	-0.980766
H74	H	-0.336795	-1.515866	-0.822801
H75	H	-0.257084	-1.520331	-0.903906
H76	H	-0.190237	-1.681678	-0.845865
H77	H	-0.269937	-1.677197	-0.764733
H78	H	-0.184529	-1.602008	-0.754129
H79	H	-0.382451	-0.870474	-0.432832
H80	H	-0.737997	-0.820041	-0.993832
C81	C	-0.223979	-1.590818	-1.014746
C82	C	-0.120398	-1.632613	-0.982119
C83	C	-0.085002	-1.586198	-0.887180
H84	H	-0.228044	-1.516608	-1.025030
H85	H	-0.266161	-1.605211	-0.962183
H86	H	-0.078228	-1.618213	-1.034670
H87	H	-0.116306	-1.706819	-0.971813
H88	H	-0.127184	-1.600591	-0.834618
H89	H	-0.089073	-1.511989	-0.897474
H90	H	-0.014722	-1.614556	-0.865026
C91	C	-1.056513	-1.584091	-0.439956
C92	C	-1.082997	-1.557869	-0.339358
C93	C	-1.028398	-1.631855	-0.265051
H94	H	-1.074309	-1.652461	-0.457443
H95	H	-0.983705	-1.583680	-0.440290
H96	H	-1.155789	-1.558291	-0.339026
H97	H	-1.065199	-1.489512	-0.321837
H98	H	-0.955590	-1.631444	-0.265385
H99	H	-1.046198	-1.700221	-0.282549
H100	H	-1.046352	-1.614069	-0.196786
H101	H	-0.176451	-1.825330	-1.296750
C102	C	-0.603269	-0.961303	-0.864302
C103	C	-0.631443	-0.977150	-0.972096
C104	C	-0.580715	-1.074074	-1.001076
H105	H	-0.529982	-0.960910	-0.850704
H106	H	-0.623052	-1.016702	-0.824446
H107	H	-0.611653	-0.921766	-1.011939
H108	H	-0.704722	-0.977564	-0.985721
H109	H	-0.600499	-1.129473	-0.961220
H110	H	-0.507430	-1.073672	-0.987472
H111	H	-0.599831	-1.084843	-1.074214
H112	H	-0.894375	-1.167383	-1.014990
C113	C	-0.848461	-0.626866	-0.962065
C114	C	-0.889624	-0.534804	-0.914491
C115	C	-0.956439	-0.471296	-0.990118
H116	H	-0.810678	-0.608590	-1.016984
H117	H	-0.903661	-0.664510	-0.990706
H118	H	-0.834432	-0.497167	-0.885867
H119	H	-0.927424	-0.553048	-0.859580
H120	H	-1.011640	-0.508940	-1.018760
H121	H	-0.918649	-0.453028	-1.045033
H122	H	-0.984384	-0.408830	-0.957849
C123	C	-0.403679	-0.947903	-0.276337
C124	C	-0.375521	-0.932074	-0.168537
C125	C	-0.426323	-0.835197	-0.139529
H126	H	-0.383960	-0.892453	-0.316151
H127	H	-0.476966	-0.948383	-0.289956
H128	H	-0.302249	-0.931585	-0.154929
H129	H	-0.395241	-0.987499	-0.128699
H130	H	-0.499611	-0.835677	-0.153148
H131	H	-0.406600	-0.779756	-0.179349
H132	H	-0.407233	-0.824449	-0.066383
C133	C	-0.330814	-1.220243	-0.554565
C134	C	-0.372633	-1.316233	-0.556992
C135	C	-0.388535	-1.350032	-0.661485
H136	H	-0.377860	-1.168741	-0.595688
H137	H	-0.266176	-1.229578	-0.582672
H138	H	-0.437261	-1.306893	-0.528899
H139	H	-0.325601	-1.367757	-0.515891
H140	H	-0.323897	-1.359366	-0.689593
H141	H	-0.435580	-1.298523	-0.702600
H142	H	-0.416901	-1.415169	-0.663145
H143	H	-0.624659	-1.316736	-1.184806
C144	C	-0.264475	-1.080210	-0.118395
C145	C	-0.195184	-1.156461	-0.058163
C146	C	-0.179207	-1.123118	0.046483
H147	H	-0.236025	-1.015121	-0.116401
H148	H	-0.329097	-1.070973	-0.090254
H149	H	-0.130574	-1.165684	-0.086296
H150	H	-0.223614	-1.221554	-0.060126
H151	H	-0.243829	-1.113881	0.074625
H152	H	-0.150760	-1.058029	0.048467
H153	H	-0.132199	-1.174853	0.087366
C154	C	-0.158502	-1.282357	-0.178592
C155	C	-0.117376	-1.374443	-0.226151
C156	C	-0.050646	-1.438000	-0.150498
H157	H	-0.103275	-1.244795	-0.149899
H158	H	-0.196371	-1.300584	-0.123708
H159	H	-0.079508	-1.356215	-0.281016
H160	H	-0.172578	-1.412034	-0.254838
H161	H	-0.088515	-1.456227	-0.095614
H162	H	0.004575	-1.400429	-0.121810
H163	H	-0.022741	-1.500492	-0.182754
H164	H	-0.624478	-1.038684	-0.707834
C165	C	-0.084878	-1.748899	-1.111542
C166	C	-0.033953	-1.825258	-1.172410
C167	C	0.068047	-1.854651	-1.123993
H168	H	-0.048475	-1.688716	-1.105932
H169	H	-0.086638	-1.777242	-1.043020
H170	H	-0.032187	-1.796912	-1.240913
H171	H	-0.070324	-1.885458	-1.178023
H172	H	0.066287	-1.882995	-1.055470
H173	H	0.104440	-1.794462	-1.118385
H174	H	0.102609	-1.906470	-1.165278
H175	H	-0.680481	-0.698244	-0.614417
C176	C	-0.510276	-1.627198	-1.314002
C177	C	-0.563484	-1.716218	-1.322154
C178	C	-0.665487	-1.687275	-1.370764
H179	H	-0.545137	-1.575438	-1.272899
H180	H	-0.508514	-1.598953	-1.382566
H181	H	-0.565252	-1.744447	-1.253602
H182	H	-0.528655	-1.767988	-1.363264
H183	H	-0.663725	-1.659030	-1.439328
H184	H	-0.700338	-1.635514	-1.329656
H185	H	-0.701598	-1.747671	-1.376310
H186	H	-0.361452	-1.772379	-1.384844
C187	C	-0.783028	-1.317459	-1.124778
C188	C	-0.886622	-1.275690	-1.157378
C189	C	-0.922070	-1.322208	-1.252241
H190	H	-0.740908	-1.303143	-1.177407
H191	H	-0.778938	-1.391669	-1.114377
H192	H	-0.890704	-1.201497	-1.167784
H193	H	-0.928767	-1.290004	-1.104776
H194	H	-0.917980	-1.396419	-1.241840
H195	H	-0.879943	-1.307890	-1.304861
H196	H	-0.992364	-1.293883	-1.274367
H197	H	-0.205423	-1.325889	-0.388738
H198	H	-0.830498	-1.082864	-0.842822
C199	C	-0.496657	-1.281081	-0.825668
C200	C	-0.443418	-1.192082	-0.817576
C201	C	-0.341375	-1.221064	-0.769091
H202	H	-0.498312	-1.309333	-0.757100
H203	H	-0.461889	-1.332852	-0.866852
H204	H	-0.478177	-1.140328	-0.776392
H205	H	-0.441734	-1.163817	-0.886129
H206	H	-0.306606	-1.272835	-0.810275
H207	H	-0.343040	-1.249317	-0.700527
H208	H	-0.305236	-1.160686	-0.763603
