data_functionalizedCrystal
_audit_creation_method	'MofGen! by Chris Wilmer'
_symmetry_space_group_name_H-M	'P1'
_symmetry_Int_Tables_number	1
_symmetry_cell_setting	triclinic
loop_
_symmetry_equiv_pos_as_xyz
  x,y,z
_cell_length_a	17.637651
_cell_length_b	17.639874
_cell_length_c	17.637815
_cell_angle_alpha	109.603239
_cell_angle_beta	92.204965
_cell_angle_gamma	65.673243
loop_
_atom_site_label
_atom_site_type_symbol
_atom_site_fract_x
_atom_site_fract_y
_atom_site_fract_z
Zn1	Zn	-0.121669	-1.145073	0.191200
Zn2	Zn	-0.220401	-1.156274	0.036793
Zn3	Zn	-0.121707	-1.035141	0.081223
Zn4	Zn	-0.287340	-0.979431	0.191060
O5	O	-0.187779	-1.078980	0.125069
O6	O	-0.106736	-1.266575	0.152183
O7	O	-0.179311	-1.168209	-0.067900
O8	O	-0.011064	-1.068351	0.114464
O9	O	-0.179274	-1.274805	0.038741
O10	O	-0.011036	-1.149117	0.195264
O11	O	-0.106801	-1.079213	-0.035258
O12	O	-0.171709	-0.907735	0.114328
O13	O	-0.293361	-0.973401	0.301665
O14	O	-0.293398	-0.866805	0.195024
O15	O	-0.171643	-1.095097	0.301769
O16	O	-0.339919	-1.114189	0.038604
O17	O	-0.389098	-0.984263	0.151943
C18	C	-0.239822	-0.856151	0.159482
C19	C	-0.262110	-0.760816	0.174220
C20	C	-0.018388	-0.553665	0.013085
C21	C	-0.039350	-0.464078	0.026941
C22	C	-0.166160	-0.421532	0.110773
C23	C	-0.145207	-0.511117	0.096927
C24	C	-0.071320	-0.577178	0.048082
C25	C	-0.198139	-0.534630	0.131924
C26	C	-0.177190	-0.624208	0.118075
C27	C	-0.103308	-0.690273	0.069230
C28	C	-0.050371	-0.666755	0.034233
C29	C	-0.272028	-0.468569	0.180764
C30	C	-0.324961	-0.492081	0.215761
C31	C	-0.304009	-0.581660	0.201917
C32	C	-0.230127	-0.647725	0.153072
C33	C	-0.356946	-0.605177	0.236914
C34	C	-0.335996	-0.694755	0.223066
C35	C	-0.209177	-0.737303	0.139223
C36	C	-0.393194	-1.044415	0.090451
C37	C	-0.481060	-1.029699	0.075656
C38	C	-0.769790	-1.191265	0.237631
C39	C	-0.852356	-1.177414	0.223719
C40	C	-0.852451	-1.093410	0.139473
C41	C	-0.769882	-1.107258	0.153375
C42	C	-0.728558	-1.156185	0.202455
C43	C	-0.728650	-1.072178	0.118199
C44	C	-0.646089	-1.086021	0.132103
C45	C	-0.604761	-1.134944	0.181184
C46	C	-0.645998	-1.170028	0.216360
C47	C	-0.769977	-1.023245	0.069123
C48	C	-0.728745	-0.988165	0.033947
C49	C	-0.646181	-1.002014	0.047847
C50	C	-0.604853	-1.050936	0.096927
C51	C	-0.604944	-0.966929	0.012671
C52	C	-0.522384	-0.980772	0.026575
C53	C	-0.522292	-1.064779	0.110831
C54	C	0.018439	-1.113699	0.159836
C55	C	0.106317	-1.128494	0.174652
C56	C	-0.239964	-1.026785	0.331193
C57	C	-0.262203	-1.004543	0.419031
C58	C	-0.135522	-0.302683	0.090515
C59	C	-0.113222	-0.398021	0.075774
C60	C	-0.135728	-1.131031	-0.080251
C61	C	-0.113229	-1.153476	-0.168076
C62	C	-0.018503	-1.248188	0.708184
C63	C	-0.039419	-1.227275	0.790719
C64	C	-0.166153	-1.100564	0.790601
C65	C	-0.145250	-1.121468	0.708063
C66	C	-0.071423	-1.195281	0.666861
C67	C	-0.198170	-1.068561	0.666741
C68	C	-0.177265	-1.089461	0.584211
C69	C	-0.103441	-1.163269	0.543004
C70	C	-0.050518	-1.216181	0.584332
C71	C	-0.271993	-0.994745	0.707945
C72	C	-0.324913	-0.941838	0.666623
C73	C	-0.304012	-0.962742	0.584090
C74	C	-0.230187	-1.036549	0.542883
C75	C	-0.356934	-0.909830	0.542762
C76	C	-0.336029	-0.930730	0.460233
C77	C	-0.209283	-1.057450	0.460353
H78	H	0.041787	-0.607455	-0.026676
F79	F	-0.244799	-0.351219	0.162747
F80	F	0.016928	-1.283572	0.834703
F81	F	-0.130535	-0.807615	0.087242
H82	H	-0.289083	-0.395630	0.192038
H83	H	0.003764	-0.444940	-0.001554
H84	H	-0.379099	-0.713898	0.251564
H85	H	-0.086254	-0.763212	0.057953
H86	H	-0.886109	-1.053571	0.099514
H87	H	0.009804	-0.720546	-0.005528
F88	F	-0.516991	-1.149414	0.196211
H89	H	-0.385121	-0.438284	0.255528
F90	F	-0.602009	-1.222114	0.268587
H91	H	-0.885930	-1.205969	0.252380
F92	F	-0.478498	-0.943439	-0.010865
H93	H	-0.226262	-1.040464	0.824160
H94	H	-0.736140	-1.231115	0.277591
F95	F	-0.435588	-0.534863	0.288882
F96	F	-0.130713	-1.136017	0.416496
H97	H	-0.086422	-1.180285	0.475803
H98	H	-0.488642	-1.104629	0.150791
F99	F	0.060066	-1.326755	0.664327
F100	F	-0.857800	-1.008638	0.054218
F101	F	-0.294234	-0.972495	0.795785
H102	H	-0.762403	-0.948326	-0.006012
H103	H	-0.638605	-0.927085	-0.027284
F104	F	0.028051	-1.294749	0.540474
F105	F	-0.403481	-0.863283	0.710482
H106	H	-0.417039	-0.849727	0.576323
F107	F	-0.392352	-0.874420	0.416252
