data_functionalizedCrystal
_audit_creation_method	'MofGen! by Chris Wilmer'
_symmetry_space_group_name_H-M	'P1'
_symmetry_Int_Tables_number	1
_symmetry_cell_setting	triclinic
loop_
_symmetry_equiv_pos_as_xyz
  x,y,z
_cell_length_a	12.811457
_cell_length_b	14.519731
_cell_length_c	11.295675
_cell_angle_alpha	85.889552
_cell_angle_beta	99.529361
_cell_angle_gamma	83.867127
loop_
_atom_site_label
_atom_site_type_symbol
_atom_site_fract_x
_atom_site_fract_y
_atom_site_fract_z
O1	O	1.396592	0.120974	0.051793
O2	O	1.088669	0.136558	0.018537
O3	O	1.250784	-0.005507	0.036056
O4	O	1.234477	0.263040	0.034274
O5	O	1.264989	-0.017966	0.235636
O6	O	1.102874	0.124100	0.218117
O7	O	1.410798	0.108516	0.251373
Cu8	Cu	1.258133	0.115170	0.252968
Cu9	Cu	1.241333	0.129904	0.016942
O10	O	1.248683	0.250581	0.233854
C11	C	1.056363	0.129838	0.114071
C12	C	0.938939	0.128364	0.101390
C13	C	0.733775	0.111992	0.295167
C14	C	0.623445	0.110606	0.283257
C15	C	0.607947	0.124199	0.065663
C16	C	0.718277	0.125585	0.077573
C17	C	0.781188	0.119483	0.192328
C18	C	0.891519	0.120875	0.204236
C19	C	0.876020	0.134462	-0.013357
C20	C	0.765690	0.133076	-0.025266
C21	C	1.257122	-0.046093	0.135764
C22	C	1.254833	-0.148463	0.135518
C23	C	1.252973	-0.231599	0.135314
C24	C	1.250648	-0.335897	0.135054
C25	C	1.248803	-0.419027	0.134847
C26	C	1.246478	-0.523332	0.134589
C27	C	1.443103	0.115236	0.155836
C28	C	1.560527	0.116711	0.168510
C29	C	1.242344	0.291167	0.134143
C30	C	1.244633	0.393538	0.134382
N31	N	1.269957	0.104806	0.418977
N32	N	1.229518	0.140260	-0.149066
C33	C	1.144284	0.214909	0.654739
C34	C	1.153244	0.207069	0.780367
C35	C	1.296840	0.081290	0.795864
C36	C	1.287880	0.089130	0.670236
C37	C	1.211599	0.155941	0.599678
C38	C	1.202635	0.163777	0.474047
C39	C	1.346236	0.038003	0.489546
C40	C	1.355195	0.030162	0.615174
H41	H	0.914633	0.140567	-0.097096
N42	N	1.418852	-0.025601	0.430163
H43	H	1.408100	-0.092388	0.450710
H44	H	1.401566	-0.010420	0.339889
H45	H	0.556709	0.129152	-0.027765
H46	H	0.942738	0.115912	0.297676
N47	N	1.120359	0.235828	0.397939
H48	H	1.079077	0.271995	0.451889
H49	H	1.157212	0.279752	0.350181
H50	H	0.714454	0.138040	-0.118696
H51	H	1.082166	0.269303	0.597289
H52	H	0.784996	0.107035	0.388605
H53	H	1.358954	0.026900	0.853330
N54	N	1.080638	0.270666	0.839758
H55	H	1.030956	0.314177	0.775992
H56	H	1.037529	0.232218	0.886834
H57	H	0.584846	0.104511	0.366999
N58	N	1.437471	-0.041890	0.691279
H59	H	1.432936	-0.037910	0.779220
H60	H	1.423555	-0.105913	0.668000
