data_functionalizedCrystal
_audit_creation_method	'MofGen! by Chris Wilmer'
_symmetry_space_group_name_H-M	'P1'
_symmetry_Int_Tables_number	1
_symmetry_cell_setting	triclinic
loop_
_symmetry_equiv_pos_as_xyz
  x,y,z
_cell_length_a	19.288865
_cell_length_b	19.288864
_cell_length_c	17.766277
_cell_angle_alpha	90.023209
_cell_angle_beta	90.011603
_cell_angle_gamma	83.136245
loop_
_atom_site_label
_atom_site_type_symbol
_atom_site_fract_x
_atom_site_fract_y
_atom_site_fract_z
O1	O	-0.086649	-0.921353	-0.062844
O2	O	0.246685	-0.588020	0.270489
O3	O	0.580018	-0.254686	0.603823
O4	O	-0.098337	-0.719092	-0.062794
O5	O	0.234996	-0.385759	0.270539
O6	O	0.568329	-0.052426	0.603873
O7	O	0.008637	-0.826067	-0.062806
O8	O	0.341971	-0.492734	0.270528
O9	O	0.675304	-0.159400	0.603861
O10	O	-0.193623	-0.814378	-0.062832
O11	O	0.139710	-0.481045	0.270501
O12	O	0.473043	-0.147712	0.603834
O13	O	0.008643	-0.826048	0.062383
O14	O	0.341976	-0.492715	0.395716
O15	O	0.675309	-0.159382	0.729050
O16	O	-0.098332	-0.719074	0.062395
O17	O	0.235001	-0.385740	0.395728
O18	O	0.568335	-0.052407	0.729061
O19	O	-0.086643	-0.921334	0.062344
O20	O	0.246690	-0.588001	0.395678
O21	O	0.580023	-0.254668	0.729011
Cu22	Cu	-0.092487	-0.820202	0.073800
Cu23	Cu	0.240846	-0.486869	0.407134
Cu24	Cu	0.574179	-0.153536	0.740467
Cu25	Cu	-0.092494	-0.820224	-0.074250
Cu26	Cu	0.240840	-0.486891	0.259084
Cu27	Cu	0.574173	-0.153558	0.592417
O28	O	-0.193618	-0.814360	0.062356
O29	O	0.139715	-0.481026	0.395689
O30	O	0.473049	-0.147693	0.729023
C31	C	-0.097959	-0.693207	-0.000193
C32	C	0.235375	-0.359873	0.333140
C33	C	0.568708	-0.026540	0.666474
C34	C	-0.096830	-0.616103	-0.000173
C35	C	0.236504	-0.282770	0.333160
C36	C	0.569837	0.050564	0.666494
C37	C	0.034516	-0.825682	-0.000209
C38	C	0.367850	-0.492348	0.333124
C39	C	0.701183	-0.159015	0.666458
C40	C	0.111620	-0.824553	-0.000202
C41	C	0.444953	-0.491219	0.333131
C42	C	0.778287	-0.157886	0.666465
C43	C	-0.087022	-0.947220	-0.000258
C44	C	0.246311	-0.613887	0.333075
C45	C	0.579645	-0.280554	0.666408
C46	C	-0.088151	-1.024324	-0.000283
C47	C	0.245182	-0.690990	0.333050
C48	C	0.578516	-0.357657	0.666384
C49	C	-0.219497	-0.814745	-0.000242
C50	C	0.113836	-0.481412	0.333091
C51	C	0.447169	-0.148078	0.666424
C52	C	-0.296601	-0.815874	-0.000254
C53	C	0.036733	-0.482541	0.333079
C54	C	0.370066	-0.149207	0.666413
C55	C	0.156316	-0.887321	-0.000214
C56	C	0.489650	-0.553987	0.333119
C57	C	0.822983	-0.220654	0.666453
C58	C	0.228763	-0.886260	-0.000226
C59	C	0.562097	-0.552927	0.333108
C60	C	0.895430	-0.219593	0.666441
C61	C	0.256511	-0.822428	-0.000210
C62	C	0.589844	-0.489094	0.333123
C63	C	0.923178	-0.155761	0.666456
C64	C	0.211805	-0.759652	-0.000203
C65	C	0.545138	-0.426318	0.333131
C66	C	0.878471	-0.092985	0.666464
C67	C	0.139359	-0.760714	-0.000198
C68	C	0.472693	-0.427381	0.333135
C69	C	0.806026	-0.094047	0.666468
C70	C	0.364800	-0.772242	0.043653
C71	C	0.698133	-0.438908	0.376986
C72	C	1.031467	-0.105575	0.710320
C73	C	0.437245	-0.771182	0.043654
C74	C	0.770578	-0.437848	0.376987
C75	C	1.103911	-0.104515	0.710320
C76	C	0.479956	-0.819148	-0.000226
C77	C	0.813290	-0.485815	0.333107
C78	C	1.146623	-0.152481	0.666440
C79	C	0.450216	-0.868186	-0.044097
C80	C	0.783550	-0.534853	0.289236
C81	C	1.116883	-0.201519	0.622570
C82	C	0.377771	-0.869249	-0.044093
C83	C	0.711104	-0.535915	0.289240
C84	C	1.044438	-0.202582	0.622574
C85	C	0.335065	-0.821269	-0.000215
C86	C	0.668398	-0.487935	0.333118
C87	C	1.001732	-0.154602	0.666452
C88	C	0.603209	-0.880770	-0.000252
C89	C	0.936542	-0.547437	0.333081
C90	C	1.269875	-0.214104	0.666415
C91	C	0.675657	-0.879707	-0.000268
C92	C	1.008990	-0.546374	0.333065
C93	C	1.342323	-0.213040	0.666398
C94	C	0.658697	-0.753097	-0.000238
C95	C	0.992030	-0.419763	0.333096
C96	C	1.325363	-0.086430	0.666429
C97	C	0.586250	-0.754162	-0.000229
C98	C	0.919583	-0.420829	0.333105
C99	C	1.252917	-0.087495	0.666438
C100	C	0.558511	-0.818001	-0.000232
C101	C	0.891844	-0.484667	0.333101
C102	C	1.225177	-0.151334	0.666434
N103	N	-0.092482	-0.820192	0.177931
N104	N	0.240851	-0.486858	0.511264
N105	N	0.574184	-0.153525	0.844597
C106	C	-0.159598	-0.571407	-0.000193
C107	C	0.173736	-0.238073	0.333140
C108	C	0.507069	0.095260	0.666473
C109	C	-0.158537	-0.498960	-0.000201
C110	C	0.174796	-0.165626	0.333132
C111	C	0.508130	0.167707	0.666465
C112	C	-0.094705	-0.471212	-0.000205
C113	C	0.238629	-0.137879	0.333129
C114	C	0.571962	0.195455	0.666462
C115	C	-0.031929	-0.515918	-0.000180
C116	C	0.301405	-0.182585	0.333153
C117	C	0.634738	0.150748	0.666487
C118	C	-0.032991	-0.588364	-0.000164
C119	C	0.300342	-0.255030	0.333169
C120	C	0.633676	0.078303	0.666502
C121	C	-0.044527	-0.362957	-0.044082
C122	C	0.288806	-0.029623	0.289251
C123	C	0.622139	0.303710	0.622584
C124	C	-0.043468	-0.290512	-0.044103
C125	C	0.289866	0.042821	0.289231
C126	C	0.623199	0.376154	0.622564
C127	C	-0.091425	-0.247767	-0.000250
C128	C	0.241908	0.085567	0.333084
C129	C	0.575242	0.418900	0.666417
C130	C	-0.140454	-0.277473	0.043614
C131	C	0.192879	0.055861	0.376947
C132	C	0.526212	0.389194	0.710281
C133	C	-0.141517	-0.349918	0.043630
C134	C	0.191817	-0.016585	0.376963
C135	C	0.525150	0.316749	0.710296
C136	C	-0.093546	-0.392658	-0.000221
C137	C	0.239788	-0.059325	0.333112
C138	C	0.573121	0.274009	0.666446
C139	C	-0.153047	-0.124514	-0.000278
C140	C	0.180286	0.208819	0.333056
C141	C	0.513619	0.542152	0.666389
C142	C	-0.151984	-0.052066	-0.000281
C143	C	0.181349	0.281267	0.333052
C144	C	0.514683	0.614600	0.666386
C145	C	-0.025374	-0.069026	-0.000267
C146	C	0.307960	0.264307	0.333066
C147	C	0.641293	0.597640	0.666399
C148	C	-0.026439	-0.141473	-0.000256
C149	C	0.306894	0.191860	0.333077
C150	C	0.640228	0.525194	0.666410
C151	C	-0.090278	-0.169212	-0.000265
C152	C	0.243056	0.164121	0.333068
C153	C	0.576389	0.497454	0.666402
N154	N	-0.092493	-0.820241	-0.178380
N155	N	0.240840	-0.486907	0.154953
N156	N	0.574174	-0.153574	0.488287
C157	C	-0.045137	-0.867575	0.217312
C158	C	0.288196	-0.534242	0.550646
C159	C	0.621530	-0.200909	0.883979
C160	C	-0.045134	-0.867579	0.296114
C161	C	0.288200	-0.534246	0.629447
C162	C	0.621533	-0.200913	0.962781
C163	C	-0.092488	-0.820206	0.335531
C164	C	0.240846	-0.486873	0.668864
C165	C	0.574179	-0.153540	1.002198
C166	C	-0.139837	-0.772814	0.296140
C167	C	0.193497	-0.439481	0.629473
C168	C	0.526830	-0.106147	0.962807
C169	C	-0.139834	-0.772807	0.217340
C170	C	0.193499	-0.439473	0.550673
C171	C	0.526833	-0.106140	0.884006
C172	C	-0.155775	-0.810908	0.460362
C173	C	0.177558	-0.477574	0.793695
C174	C	0.510891	-0.144241	1.127029
C175	C	-0.155779	-0.810920	0.539161
C176	C	0.177554	-0.477586	0.872494
C177	C	0.510888	-0.144253	1.205828
C178	C	-0.092496	-0.820225	0.578577
C179	C	0.240837	-0.486892	0.911911
C180	C	0.574171	-0.153558	1.245244
C181	C	-0.029207	-0.829533	0.539185
C182	C	0.304127	-0.496199	0.872519
C183	C	0.637460	-0.162866	1.205852
C184	C	-0.029204	-0.829525	0.460385
C185	C	0.304129	-0.496192	0.793718
C186	C	0.637463	-0.162859	1.127052
C187	C	-0.092496	-0.820209	0.420977
C188	C	0.240838	-0.486875	0.754310
C189	C	0.574171	-0.153542	1.087643
C190	C	-0.045143	-0.867616	0.703405
C191	C	0.288190	-0.534282	1.036738
C192	C	0.621523	-0.200949	1.370072
C193	C	-0.045139	-0.867615	0.782208
C194	C	0.288194	-0.534281	1.115542
C195	C	0.621527	-0.200948	1.448875
C196	C	-0.139848	-0.772853	0.782233
C197	C	0.193485	-0.439519	1.115566
C198	C	0.526818	-0.106186	1.448899
C199	C	-0.139846	-0.772850	0.703431
C200	C	0.193487	-0.439517	1.036764
C201	C	0.526820	-0.106183	1.370098
C202	C	-0.092495	-0.820235	0.664022
C203	C	0.240839	-0.486902	0.997355
C204	C	0.574172	-0.153569	1.330689
H205	H	0.133736	-0.939303	-0.000220
H206	H	0.467069	-0.605970	0.333114
H207	H	0.800403	-0.272636	0.666447
Br208	Br	0.508173	-0.933289	-0.103652
Br209	Br	0.841507	-0.599956	0.229681
Br210	Br	1.174840	-0.266622	0.563015
H211	H	-0.005473	-0.397755	-0.079797
H212	H	0.327860	-0.064422	0.253536
H213	H	0.661193	0.268911	0.586870
Br214	Br	0.525587	-0.668972	-0.000212
Br215	Br	0.858920	-0.335639	0.333122
Br216	Br	1.192253	-0.002305	0.666455
H217	H	-0.203099	-0.015674	-0.000293
H218	H	0.130234	0.317659	0.333040
H219	H	0.463567	0.650992	0.666373
H220	H	0.265162	-0.937375	-0.000238
H221	H	0.598495	-0.604041	0.333095
H222	H	0.931829	-0.270708	0.666428
Br223	Br	0.078695	-0.675522	-0.000184
Br224	Br	0.412029	-0.342189	0.333149
Br225	Br	0.745362	-0.008856	0.666482
H226	H	0.353560	-0.909176	-0.079815
H227	H	0.686893	-0.575842	0.253518
H228	H	1.020226	-0.242509	0.586851
H229	H	0.461453	-0.731249	0.079371
H230	H	0.794786	-0.397916	0.412705
H231	H	1.128119	-0.064583	0.746038
Br232	Br	-0.205547	-0.219470	0.103131
Br233	Br	0.127787	0.113864	0.436464
Br234	Br	0.461120	0.447197	0.769797
Br235	Br	0.058751	-0.202136	-0.000231
Br236	Br	0.392084	0.131197	0.333103
Br237	Br	0.725418	0.464530	0.666436
H238	H	0.330029	-0.733180	0.079389
H239	H	0.663363	-0.399847	0.412723
H240	H	0.996696	-0.066513	0.746056
H241	H	0.020044	-0.493322	-0.000193
H242	H	0.353377	-0.159988	0.333140
H243	H	0.686711	0.173345	0.666474
H244	H	0.234401	-0.707679	-0.000192
H245	H	0.567735	-0.374346	0.333142
H246	H	0.901068	-0.041012	0.666475
Br247	Br	-0.246235	-0.609050	-0.000204
Br248	Br	0.087098	-0.275717	0.333129
Br249	Br	0.420432	0.057617	0.666463
Br250	Br	0.565558	-0.967406	-0.000249
Br251	Br	0.898891	-0.634072	0.333084
Br252	Br	1.232225	-0.300739	0.666418
Br253	Br	0.061257	-0.031377	-0.000259
Br254	Br	0.394591	0.301956	0.333074
Br255	Br	0.727924	0.635289	0.666408
H256	H	0.022324	-0.837110	0.571277
H257	H	0.355658	-0.503776	0.904610
H258	H	0.688991	-0.170443	1.237943
H259	H	-0.207311	-0.803318	0.428276
H260	H	0.126022	-0.469985	0.761609
H261	H	0.459355	-0.136651	1.094942
H262	H	0.712049	-0.930822	-0.000282
H263	H	1.045382	-0.597489	0.333051
H264	H	1.378715	-0.264156	0.666385
H265	H	0.022328	-0.837102	0.428315
H266	H	0.355662	-0.503769	0.761649
H267	H	0.688995	-0.170436	1.094982
Br268	Br	-0.204106	-0.708543	0.649978
Br269	Br	0.129228	-0.375210	0.983311
Br270	Br	0.462561	-0.041876	1.316645
H271	H	0.018124	-0.624756	-0.000148
H272	H	0.351457	-0.291423	0.333185
H273	H	0.684790	0.041910	0.666518
H274	H	-0.003548	-0.266331	-0.079822
H275	H	0.329785	0.067002	0.253511
H276	H	0.663119	0.400336	0.586845
Br277	Br	0.696346	-0.666466	-0.000224
Br278	Br	1.029679	-0.333132	0.333109
Br279	Br	1.363012	0.000201	0.666442
H280	H	-0.006579	-0.906158	0.185228
H281	H	0.326754	-0.572824	0.518561
H282	H	0.660088	-0.239491	0.851894
H283	H	-0.178392	-0.734241	0.328237
H284	H	0.154941	-0.400908	0.661571
H285	H	0.488275	-0.067574	0.994904
Br286	Br	-0.239683	-0.162165	-0.000284
Br287	Br	0.093651	0.171168	0.333049
Br288	Br	0.426984	0.504502	0.666383
H289	H	-0.209652	-0.462561	-0.000216
H290	H	0.123682	-0.129228	0.333118
H291	H	0.457015	0.204106	0.666451
H292	H	-0.006578	-0.906166	0.328185
H293	H	0.326755	-0.572833	0.661518
H294	H	0.660089	-0.239499	0.994851
Br295	Br	-0.208051	-0.390233	0.103158
Br296	Br	0.125283	-0.056900	0.436491
Br297	Br	0.458616	0.276434	0.769824
H298	H	-0.006585	-0.906198	0.671317
H299	H	0.326749	-0.572864	1.004650
H300	H	0.660082	-0.239531	1.337984
H301	H	-0.006581	-0.906198	0.814274
H302	H	0.326752	-0.572865	1.147607
H303	H	0.660085	-0.239531	1.480940
H304	H	-0.178402	-0.734278	0.814325
H305	H	0.154931	-0.400945	1.147659
H306	H	0.488265	-0.067611	1.480992
H307	H	-0.207313	-0.803345	0.571228
H308	H	0.126020	-0.470012	0.904561
H309	H	0.459354	-0.136679	1.237895
H310	H	-0.178389	-0.734220	0.185274
H311	H	0.154945	-0.400887	0.518608
H312	H	0.488278	-0.067554	0.851941
