data_functionalizedCrystal
_audit_creation_method	'MofGen! by Chris Wilmer'
_symmetry_space_group_name_H-M	'P1'
_symmetry_Int_Tables_number	1
_symmetry_cell_setting	triclinic
loop_
_symmetry_equiv_pos_as_xyz
  x,y,z
_cell_length_a	23.532407
_cell_length_b	23.532407
_cell_length_c	22.610064
_cell_angle_alpha	90.011588
_cell_angle_beta	89.997161
_cell_angle_gamma	82.848677
loop_
_atom_site_label
_atom_site_type_symbol
_atom_site_fract_x
_atom_site_fract_y
_atom_site_fract_z
O1	O	0.755263	0.069127	-0.049101
O2	O	0.589400	0.079130	-0.049117
O3	O	0.677333	-0.008803	-0.049116
O4	O	0.667330	0.157060	-0.049102
O5	O	0.677318	-0.008790	0.049253
O6	O	0.589385	0.079143	0.049252
O7	O	0.755248	0.069140	0.049268
Zn8	Zn	0.672314	0.074144	0.064878
Zn9	Zn	0.672334	0.074127	-0.064728
O10	O	0.667315	0.157073	0.049267
C11	C	0.568176	0.078882	0.000065
C12	C	0.504959	0.078116	0.000058
N13	N	0.672304	0.074155	0.153330
C14	C	0.105856	0.125350	0.000089
C15	C	0.046456	0.124638	0.000093
O16	O	0.009711	0.168424	0.000118
N17	N	0.023830	0.072362	0.000087
C18	C	0.060607	0.020794	0.000084
O19	O	0.035908	-0.023737	0.000081
C20	C	0.120006	0.021506	0.000085
C21	C	0.142629	0.073785	0.000084
C22	C	0.128479	0.177625	0.000089
C23	C	0.187876	0.178336	0.000084
C24	C	0.224649	0.126772	0.000080
C25	C	0.202025	0.074497	0.000080
C26	C	0.156783	-0.030062	0.000086
C27	C	0.216185	-0.029345	0.000087
C28	C	0.238808	0.022934	0.000087
C29	C	0.298194	0.023643	0.000070
N30	N	0.320820	0.075920	0.000076
C31	C	0.284048	0.127484	0.000080
C32	C	-0.064135	0.019302	0.000084
C33	C	-0.123533	0.018589	0.000079
C34	C	-0.137680	0.122434	0.000088
C35	C	-0.078281	0.123146	0.000089
C36	C	-0.041509	0.071578	0.000089
C37	C	0.408784	0.128974	0.000070
C38	C	0.468186	0.129680	0.000063
C39	C	0.482329	0.025836	0.000057
C40	C	0.422932	0.025129	0.000061
C41	C	0.386160	0.076702	0.000069
O42	O	0.334974	-0.020119	0.000048
O43	O	0.308755	0.172007	0.000092
C44	C	0.776472	0.069388	0.000084
C45	C	0.839689	0.070154	0.000087
C46	C	0.667577	0.178283	0.000084
C47	C	0.668343	0.241500	0.000090
C48	C	0.677071	-0.030013	0.000065
C49	C	0.676305	-0.093230	0.000055
C50	C	0.621110	0.640603	0.000055
C51	C	0.621821	0.700003	0.000051
O52	O	0.578035	0.736748	0.000025
N53	N	0.674097	0.722629	0.000057
C54	C	0.725666	0.685852	0.000061
O55	O	0.770196	0.710551	0.000065
C56	C	0.724954	0.626453	0.000060
C57	C	0.672674	0.603830	0.000061
C58	C	0.568834	0.617980	0.000054
C59	C	0.568123	0.558584	0.000060
C60	C	0.619687	0.521811	0.000065
C61	C	0.671963	0.544434	0.000066
C62	C	0.776521	0.589676	0.000060
C63	C	0.775805	0.530274	0.000059
C64	C	0.723525	0.507651	0.000060
C65	C	0.722816	0.448265	0.000077
N66	N	0.670539	0.425639	0.000071
C67	C	0.618975	0.462412	0.000065
C68	C	0.727157	0.810594	0.000060
C69	C	0.727870	0.869992	0.000064
C70	C	0.624025	0.884140	0.000053
C71	C	0.623313	0.824740	0.000053
C72	C	0.674881	0.787968	0.000054
C73	C	0.617485	0.337675	0.000076
C74	C	0.616779	0.278273	0.000084
C75	C	0.720623	0.264131	0.000092
C76	C	0.721330	0.323527	0.000087
C77	C	0.669757	0.360299	0.000078
O78	O	0.766579	0.411486	0.000100
O79	O	0.574452	0.437704	0.000053
N80	N	0.672349	0.074111	-0.153180
C81	C	0.711273	0.035196	0.561972
C82	C	0.711276	0.035192	0.623892
O83	O	0.744384	0.002076	0.655911
N84	N	0.672334	0.074115	0.654868
C85	C	0.633383	0.113041	0.623920
O86	O	0.600259	0.146147	0.655953
C87	C	0.633377	0.113042	0.562001
C88	C	0.672326	0.074120	0.531029
C89	C	0.750218	-0.003724	0.531000
C90	C	0.750215	-0.003719	0.469084
C91	C	0.711268	0.035206	0.438141
C92	C	0.672323	0.074125	0.469113
C93	C	0.594424	0.151965	0.531055
C94	C	0.594422	0.151962	0.469132
C95	C	0.633370	0.113040	0.438159
C96	C	0.633374	0.113054	0.376254
N97	N	0.672316	0.074131	0.345279
C98	C	0.711263	0.035207	0.376222
C99	C	0.633396	0.113035	0.753954
C100	C	0.633403	0.113037	0.815871
C101	C	0.711296	0.035187	0.815839
C102	C	0.711291	0.035188	0.753920
C103	C	0.672338	0.074112	0.722978
C104	C	0.711255	0.035220	0.246195
C105	C	0.711251	0.035230	0.184274
C106	C	0.633357	0.113078	0.184311
C107	C	0.633363	0.113071	0.246227
C108	C	0.672314	0.074137	0.277167
O109	O	0.600281	0.146152	0.344196
O110	O	0.744376	0.002101	0.344182
H111	H	0.486602	0.172255	0.000062
H112	H	0.742969	0.003535	0.159058
O113	O	0.827272	0.611708	-0.000024
C114	C	0.888374	0.670498	-0.051018
C115	C	0.830869	0.645599	-0.050986
H116	H	0.891306	0.697894	-0.092222
H117	H	0.891320	0.698000	-0.009881
H118	H	0.925088	0.633992	-0.050989
H119	H	0.794122	0.682068	-0.051035
H120	H	0.827972	0.618080	-0.092118
O121	O	0.749117	-0.002520	0.276308
C122	C	0.827000	-0.015049	0.346164
C123	C	0.784142	0.027751	0.312109
H124	H	0.855337	0.009409	0.375107
H125	H	0.802615	-0.043377	0.375187
H126	H	0.854805	-0.042871	0.313370
H127	H	0.756327	0.055611	0.344861
H128	H	0.808563	0.056039	0.283077
H129	H	0.817798	0.500336	0.000057
O130	O	0.777239	0.774852	-0.000036
C131	C	0.836708	0.699548	-0.050970
C132	C	0.779977	0.739998	-0.050941
H133	H	0.838935	0.671350	-0.092116
H134	H	0.874212	0.725900	-0.051003
H135	H	0.838960	0.671422	-0.009783
H136	H	0.777670	0.768133	-0.092121
H137	H	0.742501	0.713612	-0.050877
O138	O	-0.028359	-0.030758	-0.000005
C139	C	0.046886	-0.090250	-0.050997
C140	C	0.006416	-0.033532	-0.050964
H141	H	0.075003	-0.092516	-0.092200
H142	H	0.075088	-0.092523	-0.009860
H143	H	0.020494	-0.127721	-0.050974
H144	H	0.032763	0.003972	-0.051008
H145	H	-0.021788	-0.031309	-0.092098
H146	H	0.378851	0.170970	0.000079
H147	H	-0.167632	0.164421	0.000095
H148	H	0.763901	0.341947	0.000096
H149	H	0.770441	0.888406	0.000073
O150	O	0.749104	-0.002706	0.845838
C151	C	0.783011	-0.101907	0.864793
C152	C	0.740173	-0.059059	0.830770
H153	H	0.775797	-0.147478	0.852632
H154	H	0.828595	-0.094768	0.852608
H155	H	0.776327	-0.095191	0.914364
H156	H	0.746804	-0.065749	0.781191
H157	H	0.694604	-0.066209	0.843004
H158	H	0.574205	0.259857	0.000087
O159	O	0.517388	0.536517	0.000076
C160	C	0.470252	0.451292	0.000023
C161	C	0.527752	0.476199	0.000024
H162	H	0.478611	0.402522	-0.000032
H163	H	0.444769	0.466430	0.041194
H164	H	0.444804	0.466491	-0.041141
H165	H	0.553247	0.461012	0.041160
H166	H	0.553192	0.461064	-0.041174
H167	H	0.582038	0.914091	0.000049
O168	O	0.595518	0.150872	0.845862
C169	C	0.518281	0.228110	0.839342
C170	C	0.561151	0.185287	0.805306
H171	H	0.490493	0.255954	0.806567
H172	H	0.489931	0.203695	0.868309
H173	H	0.542715	0.256412	0.868353
H174	H	0.536764	0.156974	0.776263
H175	H	0.589501	0.209737	0.776376
O176	O	0.770747	0.228461	0.000016
C177	C	0.859267	0.198143	-0.050970
C178	C	0.802529	0.238583	-0.050944
H179	H	0.884973	0.206305	-0.092172
H180	H	0.885052	0.206342	-0.009832
H181	H	0.849757	0.151810	-0.050941
H182	H	0.811987	0.284931	-0.050993
H183	H	0.776761	0.230335	-0.092078
O184	O	0.595474	0.150900	0.276225
C185	C	0.518229	0.228130	0.269714
C186	C	0.561105	0.185317	0.235674
H187	H	0.490438	0.255975	0.236943
H188	H	0.489881	0.203706	0.298675
H189	H	0.542657	0.256430	0.298732
H190	H	0.536723	0.157006	0.206624
H191	H	0.589451	0.209777	0.206750
H192	H	0.206289	0.220908	0.000084
O193	O	0.788067	-0.041587	0.439094
C194	C	0.865343	-0.118786	0.445621
C195	C	0.822498	-0.075935	0.479653
H196	H	0.893199	-0.146559	0.478397
H197	H	0.840946	-0.147153	0.416647
H198	H	0.893630	-0.094336	0.416617
H199	H	0.794200	-0.100338	0.508688
H200	H	0.846930	-0.047568	0.508589
O201	O	0.518688	0.653615	0.000077
C202	C	0.415614	0.661358	0.000043
C203	C	0.472367	0.620942	0.000024
H204	H	0.378149	0.634958	-0.000013
H205	H	0.413303	0.689517	0.041221
H206	H	0.413380	0.689526	-0.041114
H207	H	0.474640	0.592737	0.041152
H208	H	0.474655	0.592822	-0.041182
H209	H	0.098544	0.219617	0.000095
O210	O	0.787977	-0.041592	0.561079
C211	C	0.800573	-0.119423	0.630984
C212	C	0.757740	-0.076578	0.596952
H213	H	0.776143	-0.147711	0.660005
H214	H	0.828395	-0.147276	0.598228
H215	H	0.828897	-0.094967	0.659945
H216	H	0.729379	-0.100987	0.567990
H217	H	0.729959	-0.048725	0.629740
O218	O	-0.145410	-0.032245	0.000099
C219	C	-0.125092	-0.135169	0.000053
C220	C	-0.100244	-0.077637	0.000040
H221	H	-0.088588	-0.171883	-0.000006
H222	H	-0.152526	-0.138136	0.041232
H223	H	-0.152567	-0.138075	-0.041103
H224	H	-0.072744	-0.074692	0.041169
H225	H	-0.072843	-0.074695	-0.041165
H226	H	-0.059867	0.165717	0.000092
H227	H	0.601648	0.144772	0.159107
O228	O	0.572479	0.802862	0.000022
C229	C	0.469555	0.823180	0.000046
C230	C	0.527087	0.848029	0.000071
H231	H	0.432841	0.859685	0.000098
H232	H	0.466591	0.795740	-0.041133
H233	H	0.466647	0.795712	0.041202
H234	H	0.530034	0.875522	-0.041057
H235	H	0.530027	0.875436	0.041277
O236	O	0.134912	-0.080897	0.000119
C237	C	0.155239	-0.183820	0.000094
C238	C	0.180082	-0.126286	0.000068
H239	H	0.191747	-0.220532	0.000041
H240	H	0.127806	-0.186782	0.041274
H241	H	0.127765	-0.186737	-0.041061
H242	H	0.207582	-0.123330	0.041195
H243	H	0.207482	-0.123349	-0.041139
O244	O	0.251928	-0.079426	0.000190
C245	C	0.327223	-0.138872	0.051125
C246	C	0.286771	-0.082143	0.051093
H247	H	0.355412	-0.141082	0.092269
H248	H	0.300874	-0.176377	0.051163
H249	H	0.355360	-0.141137	0.009937
H250	H	0.258626	-0.079823	0.092274
H251	H	0.313154	-0.044665	0.051024
O252	O	0.749029	-0.002676	0.723789
C253	C	0.761539	-0.080598	0.653956
C254	C	0.718748	-0.037718	0.688016
H255	H	0.737074	-0.108949	0.625035
H256	H	0.789865	-0.056232	0.624909
H257	H	0.789364	-0.108387	0.686746
H258	H	0.690886	-0.009918	0.655269
H259	H	0.690462	-0.062120	0.717072
O260	O	0.595639	0.150879	0.723834
C261	C	0.583067	0.228758	0.653986
C262	C	0.625889	0.185924	0.688044
H263	H	0.607508	0.257111	0.625051
H264	H	0.554758	0.204353	0.624954
H265	H	0.555229	0.256549	0.686778
H266	H	0.653764	0.158122	0.655295
H267	H	0.654158	0.210365	0.717085
H268	H	0.562709	0.183658	0.556263
H269	H	0.562700	0.183658	0.443941
H270	H	0.404512	-0.017441	0.000053
H271	H	0.512280	-0.016146	0.000051
H272	H	0.575489	0.367608	0.000068
