data_functionalizedCrystal
_audit_creation_method	'MofGen! by Chris Wilmer'
_symmetry_space_group_name_H-M	'P1'
_symmetry_Int_Tables_number	1
_symmetry_cell_setting	triclinic
loop_
_symmetry_equiv_pos_as_xyz
  x,y,z
_cell_length_a	10.654545
_cell_length_b	16.109301
_cell_length_c	9.730223
_cell_angle_alpha	89.994178
_cell_angle_beta	89.997167
_cell_angle_gamma	83.972280
loop_
_atom_site_label
_atom_site_type_symbol
_atom_site_fract_x
_atom_site_fract_y
_atom_site_fract_z
O1	O	1.666258	0.116756	-0.114281
O2	O	1.300628	0.127885	-0.114287
O3	O	1.493487	0.001349	-0.114270
O4	O	1.473399	0.243292	-0.114298
O5	O	1.493475	0.001346	0.114310
O6	O	1.300616	0.127882	0.114293
O7	O	1.666246	0.116752	0.114299
Zn8	Zn	1.483429	0.122317	0.150588
Zn9	Zn	1.483445	0.122321	-0.150576
O10	O	1.473387	0.243289	0.114282
C11	C	1.253835	0.127067	0.000002
C12	C	1.114425	0.124625	0.000000
C13	C	1.492668	-0.029632	0.000021
C14	C	1.490228	-0.121942	0.000023
C15	C	1.048929	0.123473	0.124600
C16	C	0.917941	0.121164	0.124600
C17	C	0.917955	0.121162	-0.124610
C18	C	1.048942	0.123465	-0.124609
C19	C	1.598994	-0.343569	0.000003
C20	C	1.596692	-0.430303	-0.000009
C21	C	1.367871	-0.411787	-0.000007
C22	C	1.370175	-0.325054	-0.000006
C23	C	1.485740	-0.290948	0.000006
C24	C	1.481134	-0.464414	-0.000007
C25	C	1.478638	-0.558455	-0.000019
C26	C	1.488237	-0.196901	0.000016
C27	C	1.713039	0.117571	0.000007
C28	C	1.852450	0.120013	-0.000001
C29	C	1.474207	0.274270	-0.000012
C30	C	1.476646	0.366580	-0.000023
N31	N	1.483427	0.122313	0.356124
N32	N	1.483457	0.122318	-0.356113
C33	C	1.568854	0.066307	0.428058
C34	C	1.568866	0.066307	0.571941
C35	C	1.398021	0.178327	0.571944
C36	C	1.398004	0.178322	0.428063
H37	H	1.102241	0.124417	0.226065
C38	C	1.120997	0.124736	-0.261672
H39	H	1.208388	0.126266	-0.243821
H40	H	1.089934	0.172756	-0.312879
H41	H	1.109140	0.075956	-0.312861
C42	C	1.662841	0.004703	0.651062
H43	H	1.713715	-0.028648	0.587606
H44	H	1.617699	-0.030186	0.707208
H45	H	1.715107	0.034942	0.707170
H46	H	1.328473	0.223930	0.630531
C47	C	1.721269	-0.488186	-0.000018
H48	H	1.703351	-0.544726	-0.000038
H49	H	1.768658	-0.477785	0.079691
H50	H	1.768649	-0.477765	-0.079741
H51	H	1.328433	0.223930	0.369491
H52	H	0.864620	0.120227	0.226062
H53	H	1.693095	-0.315803	0.000009
C54	C	0.845918	0.119898	-0.261668
H55	H	0.758524	0.118371	-0.243826
H56	H	0.876986	0.071880	-0.312864
H57	H	0.857787	0.168681	-0.312866
H58	H	1.273782	-0.439567	-0.000014
H59	H	1.277943	-0.282208	-0.000007
C60	C	1.662804	0.004692	0.348929
H61	H	1.713674	-0.028668	0.412382
H62	H	1.715058	0.034916	0.292779
H63	H	1.617631	-0.030200	0.292824
