data_functionalizedCrystal
_audit_creation_method	'MofGen! by Chris Wilmer'
_symmetry_space_group_name_H-M	'P1'
_symmetry_Int_Tables_number	1
_symmetry_cell_setting	triclinic
loop_
_symmetry_equiv_pos_as_xyz
  x,y,z
_cell_length_a	11.792241
_cell_length_b	17.038272
_cell_length_c	10.868271
_cell_angle_alpha	89.994627
_cell_angle_beta	89.999893
_cell_angle_gamma	87.652486
loop_
_atom_site_label
_atom_site_type_symbol
_atom_site_fract_x
_atom_site_fract_y
_atom_site_fract_z
O1	O	1.516303	0.107207	-0.102203
O2	O	2.016303	0.607207	0.397797
O3	O	1.186930	0.118256	-0.102232
O4	O	1.686930	0.618256	0.397768
O5	O	1.349659	-0.001093	-0.102208
O6	O	1.849659	0.498907	0.397792
O7	O	1.353574	0.226555	-0.102227
O8	O	1.853574	0.726555	0.397773
O9	O	1.349644	-0.001097	0.102436
O10	O	1.849644	0.498903	0.602436
O11	O	1.186915	0.118251	0.102412
O12	O	1.686915	0.618251	0.602412
O13	O	1.516288	0.107202	0.102441
O14	O	2.016288	0.607202	0.602441
Zn15	Zn	1.351599	0.112726	0.134919
Zn16	Zn	1.851599	0.612726	0.634919
Zn17	Zn	1.351618	0.112732	-0.134710
Zn18	Zn	1.851618	0.612732	0.365290
O19	O	1.353559	0.226551	0.102417
O20	O	1.853559	0.726551	0.602417
C21	C	1.144571	0.117559	0.000086
C22	C	1.644571	0.617559	0.500086
C23	C	1.018375	0.115482	0.000076
C24	C	1.518375	0.615482	0.500076
C25	C	0.787328	0.111662	0.000111
C26	C	1.287328	0.611662	0.500111
C27	C	0.915899	0.113785	0.000092
C28	C	1.415899	0.613785	0.500092
C29	C	1.346090	-0.030239	0.000114
C30	C	1.846090	0.469761	0.500114
C31	C	1.335466	-0.117079	0.000112
C32	C	1.835466	0.382921	0.500112
C33	C	1.433006	-0.166762	0.000122
C34	C	1.933006	0.333238	0.500122
C35	C	1.423017	-0.248357	0.000110
C36	C	1.923017	0.251643	0.500110
C37	C	1.315487	-0.280267	0.000096
C38	C	1.815487	0.219733	0.500096
C39	C	1.217940	-0.230577	0.000083
C40	C	1.717940	0.269423	0.500083
C41	C	1.227930	-0.148984	0.000086
C42	C	1.727930	0.351016	0.500086
C43	C	1.280194	-0.526181	0.000076
C44	C	1.780194	-0.026181	0.500076
C45	C	1.270211	-0.607780	0.000076
C46	C	1.770211	-0.107780	0.500076
C47	C	1.475289	-0.625554	0.000101
C48	C	1.975289	-0.125554	0.500101
C49	C	1.485270	-0.543958	0.000112
C50	C	1.985270	-0.043958	0.500112
C51	C	1.387723	-0.494276	0.000092
C52	C	1.887723	0.005724	0.500092
C53	C	1.305274	-0.363669	0.000087
C54	C	1.805274	0.136331	0.500087
C55	C	1.397937	-0.410875	0.000092
C56	C	1.897937	0.089125	0.500092
C57	C	1.558647	0.107899	0.000120
C58	C	2.058647	0.607899	0.500120
C59	C	1.684843	0.109976	0.000122
C60	C	2.184843	0.609976	0.500122
C61	C	1.357127	0.255697	0.000093
C62	C	1.857127	0.755697	0.500093
C63	C	1.367751	0.342537	0.000086
C64	C	1.867751	0.842537	0.500086
N65	N	1.351594	0.112721	0.318933
N66	N	1.851594	0.612721	0.818933
N67	N	1.351632	0.112731	-0.318724
N68	N	1.851632	0.612731	0.181276
C69	C	1.351612	0.112730	0.569939
C70	C	1.851612	0.612730	1.069939
C71	C	1.351599	0.112728	0.430261
C72	C	1.851599	0.612728	0.930261
H73	H	1.520568	-0.140788	0.000141
H74	H	2.020568	0.359212	0.500141
H75	H	1.148503	-0.108532	0.000078
H76	H	1.648503	0.391468	0.500078
C77	C	1.174387	-0.472151	0.000254
C78	C	1.674387	0.027849	0.500254
C79	C	1.174136	-0.424779	0.105521
C80	C	1.674136	0.075221	0.605521
C81	C	1.076689	-0.374985	0.105719
C82	C	1.576689	0.125015	0.605719
H83	H	1.108832	-0.502742	0.000313
H84	H	1.608832	-0.002742	0.500313
H85	H	1.174024	-0.439903	-0.071075
H86	H	1.674024	0.060097	0.428925
H87	H	1.174489	-0.457023	0.176832
H88	H	1.674489	0.042977	0.676832
H89	H	1.239670	-0.394171	0.105485
H90	H	1.739670	0.105829	0.605485
H91	H	1.076326	-0.342737	0.034389
H92	H	1.576326	0.157263	0.534389
H93	H	1.011141	-0.405582	0.105774
H94	H	1.511141	0.094418	0.605774
H95	H	1.076511	-0.342832	0.177134
H96	H	1.576511	0.157168	0.677134
H97	H	1.502445	-0.288806	0.000120
H98	H	2.002445	0.211194	0.500120
C99	C	1.602120	-0.509467	0.000070
C100	C	2.102120	-0.009467	0.500070
C101	C	1.685406	-0.570442	0.000049
C102	C	2.185406	-0.070442	0.500049
C103	C	1.793061	-0.538699	0.000003
C104	C	2.293061	-0.038699	0.500003
H105	H	1.610426	-0.478025	0.071420
H106	H	2.110426	0.021975	0.571420
H107	H	1.610350	-0.478022	-0.071318
H108	H	2.110350	0.021978	0.428682
H109	H	1.677179	-0.601875	0.071429
H110	H	2.177179	-0.101875	0.571429
H111	H	1.677137	-0.601889	-0.071296
H112	H	2.177137	-0.101889	0.428704
H113	H	1.801292	-0.507254	-0.071384
H114	H	2.301292	-0.007254	0.428616
H115	H	1.801356	-0.507258	0.071355
H116	H	2.301356	-0.007258	0.571355
H117	H	1.849584	-0.580065	-0.000022
H118	H	2.349584	-0.080065	0.499978
C119	C	1.581152	-0.679534	-0.000145
C120	C	2.081152	-0.179534	0.499855
C121	C	1.581429	-0.726872	-0.105450
C122	C	2.081429	-0.226872	0.394550
C123	C	1.678944	-0.776600	-0.105732
C124	C	2.178944	-0.276600	0.394268
H125	H	1.581619	-0.711813	0.071133
H126	H	2.081619	-0.211813	0.571133
H127	H	1.646653	-0.648871	-0.000205
H128	H	2.146653	-0.148871	0.499795
H129	H	1.515946	-0.757533	-0.105378
H130	H	2.015946	-0.257533	0.394622
H131	H	1.580980	-0.694615	-0.176745
H132	H	2.080980	-0.194615	0.323255
H133	H	1.744445	-0.745937	-0.105792
H134	H	2.244445	-0.245937	0.394208
H135	H	1.679402	-0.808874	-0.034449
H136	H	2.179402	-0.308874	0.465551
H137	H	1.679150	-0.808720	-0.177184
H138	H	2.179150	-0.308720	0.322816
C139	C	1.153484	-0.642467	0.000309
C140	C	1.653484	-0.142467	0.500309
C141	C	1.141733	-0.688777	0.105611
C142	C	1.641733	-0.188777	0.605611
C143	C	1.034220	-0.720734	0.105879
C144	C	1.534220	-0.220734	0.605879
H145	H	1.145217	-0.673980	-0.070970
H146	H	1.645217	-0.173980	0.429030
H147	H	1.096786	-0.601212	0.000362
H148	H	1.596786	-0.101212	0.500362
H149	H	1.198415	-0.730026	0.105547
H150	H	1.698415	-0.230026	0.605547
H151	H	1.149978	-0.657282	0.176908
H152	H	1.649978	-0.157282	0.676908
H153	H	0.977522	-0.679479	0.105932
H154	H	1.477522	-0.179479	0.605932
H155	H	1.025963	-0.752243	0.034595
H156	H	1.525963	-0.252243	0.534595
H157	H	1.026229	-0.752153	0.177331
H158	H	1.526229	-0.252153	0.677331
C159	C	1.514609	-0.376125	-0.000084
C160	C	2.014609	0.123875	0.499916
C161	C	1.526331	-0.329778	-0.105351
C162	C	2.026331	0.170222	0.394649
C163	C	1.633788	-0.297737	-0.105542
C164	C	2.133788	0.202263	0.394458
H165	H	1.571384	-0.417315	-0.000138
H166	H	2.071384	0.082685	0.499862
H167	H	1.522766	-0.344623	0.071245
H168	H	2.022766	0.155377	0.571245
H169	H	1.518185	-0.361277	-0.176662
H170	H	2.018185	0.138723	0.323338
H171	H	1.469581	-0.288575	-0.105319
H172	H	1.969581	0.211425	0.394681
H173	H	1.641945	-0.266236	-0.034213
H174	H	2.141945	0.233764	0.465787
H175	H	1.690554	-0.338933	-0.105593
H176	H	2.190554	0.161067	0.394407
H177	H	1.641751	-0.266282	-0.176958
H178	H	2.141751	0.233718	0.323042
H179	H	1.130387	-0.256565	0.000064
H180	H	1.630387	0.243435	0.500064
H181	H	1.217723	-0.389660	0.000079
H182	H	1.717723	0.110340	0.500079
