data_functionalizedCrystal
_audit_creation_method	'MofGen! by Chris Wilmer'
_symmetry_space_group_name_H-M	'P1'
_symmetry_Int_Tables_number	1
_symmetry_cell_setting	triclinic
loop_
_symmetry_equiv_pos_as_xyz
  x,y,z
_cell_length_a	17.699083
_cell_length_b	9.016244
_cell_length_c	17.699083
_cell_angle_alpha	90.003133
_cell_angle_beta	96.716985
_cell_angle_gamma	89.999126
loop_
_atom_site_label
_atom_site_type_symbol
_atom_site_fract_x
_atom_site_fract_y
_atom_site_fract_z
O1	O	-1.004079	0.123120	0.095708
O2	O	-0.504079	0.623120	0.595708
O3	O	-0.783701	0.123173	0.108161
O4	O	-0.283701	0.623173	0.608161
O5	O	-0.900116	0.123132	-0.008255
O6	O	-0.400116	0.623132	0.491745
O7	O	-0.887664	0.123161	0.212123
O8	O	-0.387664	0.623161	0.712123
O9	O	-0.900099	-0.123549	-0.008252
O10	O	-0.400099	0.376451	0.491748
O11	O	-0.783684	-0.123508	0.108163
O12	O	-0.283684	0.376492	0.608163
O13	O	-1.004062	-0.123560	0.095711
O14	O	-0.504062	0.376440	0.595711
Cu15	Cu	-0.893872	-0.146058	0.101937
Cu16	Cu	-0.393872	0.353942	0.601937
Cu17	Cu	-0.893892	0.145671	0.101934
Cu18	Cu	-0.393892	0.645671	0.601934
O19	O	-0.887647	-0.123520	0.212126
O20	O	-0.387647	0.376480	0.712126
C21	C	-0.755495	-0.000161	0.107716
C22	C	-0.255495	0.499839	0.607716
C23	C	-0.671477	-0.000142	0.106377
C24	C	-0.171477	0.499858	0.606377
N25	N	-0.893863	-0.351244	0.101939
N26	N	-0.393863	0.148756	0.601939
C27	C	-0.622856	-0.000132	0.174710
C28	C	-0.122856	0.499868	0.674710
C29	C	-0.543913	-0.000151	0.173448
C30	C	-0.043913	0.499849	0.673448
C31	C	-0.513592	-0.000167	0.103852
C32	C	-0.013592	0.499833	0.603852
C33	C	-0.562219	-0.000181	0.035513
C34	C	-0.062219	0.499819	0.535513
C35	C	-0.641161	-0.000173	0.036776
C36	C	-0.141161	0.499827	0.536776
C37	C	-0.243856	-0.000214	0.030418
C38	C	0.256144	0.499786	0.530418
C39	C	-0.164908	-0.000217	0.029160
C40	C	0.335092	0.499783	0.529160
C41	C	-0.146608	-0.000191	0.167090
C42	C	0.353392	0.499809	0.667090
C43	C	-0.225550	-0.000183	0.168353
C44	C	0.274450	0.499817	0.668353
C45	C	-0.274170	-0.000205	0.100015
C46	C	0.225830	0.499795	0.600015
C47	C	-0.359769	-0.000188	0.101384
C48	C	0.140231	0.499812	0.601384
C49	C	-0.427995	-0.000174	0.102481
C50	C	0.072005	0.499826	0.602481
C51	C	-0.831402	-0.586255	0.164009
C52	C	-0.331402	-0.086255	0.664009
C53	C	-0.831536	-0.414364	0.164237
C54	C	-0.331536	0.085636	0.664237
C55	C	-0.972805	-0.413599	0.119044
C56	C	-0.472805	0.086401	0.619044
C57	C	-0.972463	-0.585544	0.119482
C58	C	-0.472463	-0.085544	0.619482
C59	C	-0.878170	-0.585794	0.022555
C60	C	-0.378170	-0.085794	0.522555
C61	C	-0.876349	-0.413839	0.023090
C62	C	-0.376349	0.086161	0.523090
C63	C	-0.032268	-0.000219	0.096156
C64	C	0.467732	0.499781	0.596156
C65	C	-0.116286	-0.000218	0.097494
C66	C	0.383714	0.499782	0.597494
C67	C	-0.899662	-0.000208	-0.036451
C68	C	-0.399662	0.499792	0.463549
C69	C	-0.898323	-0.000209	-0.120469
C70	C	-0.398323	0.499791	0.379531
N71	N	-0.893906	0.350857	0.101926
N72	N	-0.393906	0.850857	0.601926
C73	C	-0.966656	-0.000227	-0.169090
C74	C	-0.466656	0.499773	0.330910
C75	C	-0.965394	-0.000214	-0.248033
C76	C	-0.465394	0.499786	0.251967
C77	C	-0.895798	-0.000192	-0.278354
C78	C	-0.395798	0.499808	0.221646
C79	C	-0.827459	-0.000170	-0.229727
C80	C	-0.327459	0.499830	0.270273
C81	C	-0.828722	-0.000173	-0.150785
C82	C	-0.328722	0.499827	0.349215
C83	C	-0.822364	-0.000156	-0.548090
C84	C	-0.322364	0.499844	-0.048090
C85	C	-0.821106	-0.000158	-0.627038
C86	C	-0.321106	0.499842	-0.127038
C87	C	-0.959036	-0.000198	-0.645338
C88	C	-0.459036	0.499802	-0.145338
C89	C	-0.960299	-0.000200	-0.566396
C90	C	-0.460299	0.499800	-0.066396
C91	C	-0.891961	-0.000170	-0.517776
C92	C	-0.391961	0.499830	-0.017776
C93	C	-0.893330	-0.000181	-0.432177
C94	C	-0.393330	0.499819	0.067823
C95	C	-0.894427	-0.000191	-0.363951
C96	C	-0.394427	0.499809	0.136049
C97	C	-0.888102	-0.000176	0.240322
C98	C	-0.388102	0.499824	0.740322
C99	C	-0.889440	-0.000166	0.324340
C100	C	-0.389440	0.499834	0.824340
H101	H	-0.647537	-0.000118	0.231384
H102	H	-0.147537	0.499882	0.731384
H103	H	-0.987025	-0.370517	0.176265
H104	H	-0.487025	0.129483	0.676265
H105	H	-1.014680	-0.000215	-0.684934
H106	H	-0.514680	0.499785	-0.184934
H107	H	-0.821868	-0.629230	0.006070
H108	H	-0.321868	-0.129230	0.506070
N109	N	-0.750018	-0.000140	-0.658024
N110	N	-0.250018	0.499860	-0.158024
N111	N	-0.733919	-0.104119	-0.700035
N112	N	-0.233919	0.395881	-0.200035
H113	H	-0.683717	-0.104110	-0.721922
H114	H	-0.183717	0.395890	-0.221922
H115	H	-1.023330	-0.000253	-0.144409
H116	H	-0.523330	0.499747	0.355591
H117	H	-0.772532	-0.627636	0.154007
H118	H	-0.272532	-0.127636	0.654007
H119	H	-1.016971	-0.000225	-0.541714
H120	H	-0.516971	0.499775	-0.041714
N121	N	-0.096953	-0.000173	0.236905
N122	N	0.403047	0.499827	0.736905
N123	N	-0.099643	0.103822	0.283220
N124	N	0.400357	0.603822	0.783220
H125	H	-0.064576	0.103839	0.332527
H126	H	0.435424	0.603839	0.832527
H127	H	-0.766718	-0.000132	-0.508512
H128	H	-0.266718	0.499868	-0.008512
N129	N	-0.843817	-0.640445	0.237484
N130	N	-0.343817	-0.140445	0.737484
N131	N	-0.898499	-0.725179	0.244323
N132	N	-0.398499	-0.225179	0.744323
H133	H	-0.907270	-0.763453	0.296214
H134	H	-0.407270	-0.263453	0.796214
N135	N	-0.133948	-0.000230	-0.041942
N136	N	0.366052	0.499770	0.458058
N137	N	-0.177366	-0.000249	-0.102952
N138	N	0.322634	0.499751	0.397048
H139	H	-0.155500	-0.000255	-0.153166
H140	H	0.344500	0.499745	0.346834
N141	N	-0.494259	-0.000149	0.243256
N142	N	0.005741	0.499851	0.743256
N143	N	-0.521341	-0.000127	0.305391
N144	N	-0.021341	0.499873	0.805391
H145	H	-0.486273	-0.000129	0.354697
H146	H	0.013727	0.499871	0.854697
N147	N	-0.293503	-0.000229	-0.039392
N148	N	0.206497	0.499771	0.460608
N149	N	-0.266418	-0.000236	-0.101525
N150	N	0.233582	0.499764	0.398475
H151	H	-0.301483	-0.000244	-0.150832
H152	H	0.198517	0.499756	0.349168
H153	H	-1.021038	-0.000232	-0.287618
H154	H	-0.521038	0.499768	0.212382
H155	H	-0.537526	-0.000216	-0.021154
H156	H	-0.037526	0.499784	0.478846
H157	H	-0.818279	-0.373085	0.010106
H158	H	-0.318279	0.126915	0.510106
N159	N	-0.989873	-0.635812	0.192100
N160	N	-0.489873	-0.135812	0.692100
N161	N	-0.947900	-0.600334	0.251079
N162	N	-0.447900	-0.100334	0.751079
H163	H	-0.960194	-0.635826	0.302369
H164	H	-0.460194	-0.135826	0.802369
H165	H	-0.680748	-0.000180	-0.018868
H166	H	-0.180748	0.499820	0.481132
H167	H	-0.841565	-0.373213	0.223142
H168	H	-0.341565	0.126787	0.723142
N169	N	-0.929757	-0.359927	-0.037563
N170	N	-0.429757	0.140073	0.462437
N171	N	-0.981834	-0.274118	-0.023600
N172	N	-0.481834	0.225882	0.476400
H173	H	-1.019560	-0.236041	-0.066435
H174	H	-0.519560	0.263959	0.433565
H175	H	-0.770792	-0.000143	-0.254420
H176	H	-0.270792	0.499857	0.245580
H177	H	-0.923753	-0.626462	-0.023644
H178	H	-0.423753	-0.126462	0.476356
N179	N	-0.757811	-0.361494	0.151849
N180	N	-0.257811	0.138506	0.651849
N181	N	-0.705901	-0.451586	0.142964
N182	N	-0.205901	0.048414	0.642964
H183	H	-0.653789	-0.414256	0.134356
H184	H	-0.153789	0.085744	0.634356
N185	N	-1.032553	-0.637717	0.064902
N186	N	-0.532553	-0.137717	0.564902
N187	N	-1.074612	-0.547136	0.026612
N188	N	-0.574612	-0.047136	0.526612
H189	H	-1.117052	-0.583976	-0.011932
H190	H	-0.617052	-0.083976	0.488068
N191	N	-0.758922	-0.000122	-0.101115
N192	N	-0.258922	0.499878	0.398885
N193	N	-0.712617	0.103883	-0.103802
N194	N	-0.212617	0.603883	0.396198
H195	H	-0.663318	0.103930	-0.068722
H196	H	-0.163318	0.603930	0.431278
N197	N	-0.256508	-0.000151	0.239451
N198	N	0.243492	0.499849	0.739451
N199	N	-0.213087	-0.000144	0.300459
N200	N	0.286913	0.499856	0.800459
H201	H	-0.234950	-0.000124	0.350674
H202	H	0.265050	0.499876	0.850674
N203	N	-1.032537	-0.362331	0.063818
N204	N	-0.532537	0.137669	0.563818
N205	N	-1.031366	-0.392566	-0.004960
N206	N	-0.531366	0.107434	0.495040
H207	H	-1.073551	-0.356358	-0.043965
H208	H	-0.573551	0.143642	0.456035
