data_functionalizedCrystal
_audit_creation_method	'MofGen! by Chris Wilmer'
_symmetry_space_group_name_H-M	'P1'
_symmetry_Int_Tables_number	1
_symmetry_cell_setting	triclinic
loop_
_symmetry_equiv_pos_as_xyz
  x,y,z
_cell_length_a	14.044191
_cell_length_b	13.339070
_cell_length_c	11.804365
_cell_angle_alpha	105.112168
_cell_angle_beta	77.057282
_cell_angle_gamma	104.410535
loop_
_atom_site_label
_atom_site_type_symbol
_atom_site_fract_x
_atom_site_fract_y
_atom_site_fract_z
O1	O	1.337523	0.230716	-0.098958
O2	O	1.059183	0.221690	-0.098974
O3	O	1.166408	0.076056	-0.098964
O4	O	1.230298	0.376350	-0.098968
O5	O	1.138168	0.114354	0.099089
O6	O	1.030943	0.259988	0.099080
O7	O	1.309283	0.269014	0.099095
Cu8	Cu	1.167535	0.267998	0.117171
Cu9	Cu	1.200931	0.222706	-0.117050
O10	O	1.202058	0.414648	0.099086
C11	C	1.008711	0.236892	0.000051
C12	C	0.900389	0.225117	0.000045
C13	C	1.141496	0.056542	0.000060
C14	C	1.109328	-0.058665	0.000054
C15	C	1.359455	-0.400877	0.000068
C16	C	1.389680	-0.292634	0.000081
C17	C	1.319595	-0.234136	0.000074
C18	C	1.219279	-0.283893	0.000055
C19	C	1.189049	-0.392146	0.000051
C20	C	1.149189	-0.225405	0.000057
C21	C	1.048873	-0.275162	0.000037
C22	C	1.018648	-0.383404	0.000033
C23	C	1.088734	-0.441901	0.000040
C24	C	1.179419	-0.117152	0.000060
C25	C	1.009013	-0.108421	0.000043
C26	C	0.978787	-0.216664	0.000030
C27	C	0.666401	0.287095	0.000056
C28	C	0.702074	0.203612	0.000055
C29	C	0.812427	0.215580	0.000050
C30	C	0.556038	0.275128	0.000062
C31	C	1.359756	0.253812	0.000068
C32	C	1.468078	0.265585	0.000066
C33	C	1.226970	0.434162	0.000059
C34	C	1.259139	0.549367	0.000058
N35	N	1.144053	0.299853	0.281910
N36	N	1.224419	0.190843	-0.281788
C37	C	1.280803	0.114326	0.655871
C38	C	1.298565	0.090223	0.531211
C39	C	1.259938	0.142628	0.468879
C40	C	1.203547	0.219141	0.531220
C41	C	1.185790	0.243253	0.655893
C42	C	1.164925	0.271555	0.468901
C43	C	1.108533	0.348068	0.531242
C44	C	1.090778	0.372175	0.655902
C45	C	1.129405	0.319770	0.718234
C46	C	1.182682	0.247443	0.344229
C47	C	1.087668	0.376370	0.344251
C48	C	1.069906	0.400473	0.468911
H49	H	1.261096	-0.076651	0.000076
O50	O	1.348852	-0.129014	-0.000073
C51	C	1.326872	-0.110287	-0.102666
H52	H	1.264585	-0.176731	-0.136879
H53	H	1.396341	-0.107722	-0.174480
C54	C	1.369660	0.078067	-0.029488
C55	C	1.293152	-0.003537	-0.071503
H56	H	1.348864	0.143917	-0.010269
H57	H	1.384472	0.065451	0.039629
H58	H	1.427544	0.080191	-0.089340
H59	H	1.235274	-0.005668	-0.011647
H60	H	1.278330	0.009081	-0.140611
H61	H	0.649749	0.123134	-0.000028
H62	H	0.897108	-0.257191	0.000015
H63	H	1.023991	0.462772	0.519685
H64	H	1.416506	-0.448513	0.000084
H65	H	0.951942	-0.060791	0.000043
H66	H	0.936963	-0.423911	0.000026
H67	H	1.274403	0.123000	0.367375
O68	O	0.728756	0.383102	-0.000117
C69	C	0.726680	0.417387	-0.102711
H70	H	0.653860	0.376327	-0.136897
H71	H	0.792322	0.396666	-0.174541
C72	C	0.823549	0.588725	-0.029584
C73	C	0.734105	0.538301	-0.071565
H74	H	0.828133	0.663310	-0.010374
H75	H	0.824951	0.565626	0.039535
H76	H	0.878241	0.571446	-0.089449
H77	H	0.679416	0.555569	-0.011695
H78	H	0.732695	0.561405	-0.140673
H79	H	1.064129	-0.530043	0.000025
O80	O	1.353319	0.015840	0.470841
C81	C	1.383624	-0.025227	0.552584
H82	H	1.330845	-0.012831	0.641456
H83	H	1.462719	0.017539	0.565830
C84	C	1.446003	-0.159828	0.394775
C85	C	1.381174	-0.144611	0.503927
H86	H	1.444496	-0.233468	0.364760
H87	H	1.425590	-0.132158	0.339702
H88	H	1.511909	-0.124182	0.405828
H89	H	1.315268	-0.180245	0.492869
H90	H	1.401576	-0.172290	0.558997
O91	O	1.112019	0.343277	0.839332
C92	C	1.053992	0.422071	0.880995
H93	H	1.011136	0.421003	0.809160
H94	H	1.104864	0.503135	0.903117
C95	C	1.032416	0.401390	1.081889
C96	C	0.979773	0.400072	0.993663
H97	H	0.986637	0.387825	1.151391
H98	H	1.071513	0.348308	1.053821
H99	H	1.074807	0.468945	1.100309
H100	H	0.937394	0.332514	0.975234
H101	H	0.940667	0.453143	1.021730
H102	H	1.228596	0.185147	0.293482
O103	O	1.050266	0.427445	0.283771
C104	C	1.088666	0.537351	0.314248
H105	H	1.161665	0.551548	0.348504
H106	H	1.032539	0.576892	0.386619
C107	C	1.018165	0.567375	0.161428
C108	C	1.107827	0.584813	0.203493
H109	H	1.029980	0.596654	0.093112
H110	H	0.992290	0.493330	0.140898
H111	H	0.971401	0.600327	0.221748
H112	H	1.154584	0.551851	0.143180
H113	H	1.133710	0.658854	0.224011
H114	H	1.471357	-0.252129	0.000099
H115	H	1.312255	0.071671	0.706629
H116	H	1.044871	0.434485	0.706661
