data_functionalizedCrystal
_audit_creation_method	'MofGen! by Chris Wilmer'
_symmetry_space_group_name_H-M	'P1'
_symmetry_Int_Tables_number	1
_symmetry_cell_setting	triclinic
loop_
_symmetry_equiv_pos_as_xyz
  x,y,z
_cell_length_a	25.639242
_cell_length_b	16.120530
_cell_length_c	16.120256
_cell_angle_alpha	90.128265
_cell_angle_beta	87.115481
_cell_angle_gamma	92.897775
loop_
_atom_site_label
_atom_site_type_symbol
_atom_site_fract_x
_atom_site_fract_y
_atom_site_fract_z
Zn1	Zn	0.264904	1.247564	-0.534642
Zn2	Zn	0.764904	1.747564	-0.034642
Zn3	Zn	0.348136	1.254554	-0.395607
Zn4	Zn	0.848136	1.754554	0.104393
Zn5	Zn	0.256066	1.115550	-0.388557
Zn6	Zn	0.756066	1.615550	0.111443
Zn7	Zn	0.347657	1.108510	-0.527577
Zn8	Zn	0.847657	1.608510	-0.027577
O9	O	0.304191	1.181544	-0.461596
O10	O	0.804191	1.681544	0.038404
O11	O	0.279844	1.364859	-0.522106
O12	O	0.779844	1.864859	-0.022106
O13	O	0.332424	1.241986	-0.278305
O14	O	0.832424	1.741986	0.221695
O15	O	0.184074	1.133083	-0.407941
O16	O	0.684074	1.633083	0.092059
O17	O	0.340994	1.369994	-0.419958
O18	O	0.840994	1.869994	0.080042
O19	O	0.190567	1.230073	-0.515269
O20	O	0.690567	1.730073	-0.015269
O21	O	0.264781	1.139861	-0.273125
O22	O	0.764781	1.639861	0.226875
O23	O	0.264316	0.998248	-0.401091
O24	O	0.764316	1.498248	0.098909
O25	O	0.340178	1.121084	-0.644881
O26	O	0.840178	1.621084	-0.144881
O27	O	0.331608	0.993076	-0.503228
O28	O	0.831608	1.493076	-0.003228
O29	O	0.279379	1.223246	-0.650071
O30	O	0.779379	1.723246	-0.150071
O31	O	0.421237	1.235159	-0.413107
O32	O	0.921237	1.735159	0.086893
O33	O	0.420885	1.127862	-0.510065
O34	O	0.920885	1.627862	-0.010065
C35	C	0.296951	0.965489	-0.450628
C36	C	0.796951	1.465489	0.049372
C37	C	0.293868	0.873058	-0.445956
C38	C	0.793868	1.373058	0.054044
C39	C	0.167819	1.181584	-0.461607
C40	C	0.667819	1.681584	0.038393
C41	C	0.109706	1.181601	-0.461612
C42	C	0.609706	1.681601	0.038388
C43	C	0.288226	0.703826	-0.437433
C44	C	0.788226	1.203826	0.062567
C45	C	0.320196	0.660100	-0.485819
C46	C	0.820196	1.160100	0.014181
C47	C	0.317057	0.565933	-0.481077
C48	C	0.817057	1.065933	0.018923
C49	C	0.291364	0.798001	-0.442174
C50	C	0.791364	1.298001	0.057826
C51	C	-0.254044	1.131084	-0.405752
C52	C	0.245956	1.631084	0.094248
C53	C	-0.308648	1.131083	-0.405756
C54	C	0.191352	1.631083	0.094244
O55	O	-0.339764	1.088118	-0.358256
O56	O	0.160236	1.588118	0.141744
N57	N	-0.332576	1.181583	-0.461635
N58	N	0.167424	1.681583	0.038365
C59	C	-0.301898	1.232081	-0.517519
C60	C	0.198102	1.732081	-0.017519
O61	O	-0.327265	1.275035	-0.565049
O62	O	0.172735	1.775035	-0.065049
C63	C	-0.247295	1.232078	-0.517518
C64	C	0.252705	1.732078	-0.017518
C65	C	-0.223369	1.181580	-0.461630
C66	C	0.276631	1.681580	0.038370
C67	C	-0.230118	1.080591	-0.349869
C68	C	0.269882	1.580591	0.150131
C69	C	-0.175517	1.080593	-0.349864
C70	C	0.324483	1.580593	0.150136
C71	C	-0.144843	1.131089	-0.405743
C72	C	0.355157	1.631089	0.094257
C73	C	-0.168769	1.181583	-0.461625
C74	C	0.331231	1.681583	0.038375
C75	C	-0.216617	1.282571	-0.573406
C76	C	0.283383	1.782571	-0.073406
C77	C	-0.162011	1.282562	-0.573401
C78	C	0.337989	1.782562	-0.073401
C79	C	-0.138085	1.232065	-0.517513
C80	C	0.361915	1.732065	-0.017513
C81	C	-0.083494	1.232082	-0.517499
C82	C	0.416506	1.732082	-0.017499
N83	N	-0.059565	1.181582	-0.461620
N84	N	0.440435	1.681582	0.038380
C85	C	-0.090239	1.131085	-0.405742
C86	C	0.409761	1.631085	0.094258
C87	C	-0.416568	1.232085	-0.517517
C88	C	0.083432	1.732085	-0.017517
C89	C	-0.471171	1.232093	-0.517514
C90	C	0.028829	1.732093	-0.017514
C91	C	-0.477917	1.131094	-0.405752
C92	C	0.022083	1.631094	0.094248
C93	C	-0.423314	1.131090	-0.405752
C94	C	0.076686	1.631090	0.094248
C95	C	-0.392640	1.181585	-0.461638
C96	C	0.107360	1.681585	0.038362
C97	C	0.024426	1.131095	-0.405736
C98	C	0.524426	1.631095	0.094264
C99	C	0.079031	1.131105	-0.405734
C100	C	0.579031	1.631105	0.094266
C101	C	0.085773	1.232101	-0.517498
C102	C	0.585773	1.732101	-0.017498
C103	C	0.031172	1.232095	-0.517498
C104	C	0.531172	1.732095	-0.017498
C105	C	0.000499	1.181585	-0.461613
C106	C	0.500499	1.681585	0.038387
O107	O	-0.052344	1.275022	-0.564977
O108	O	0.447656	1.775022	-0.064977
O109	O	-0.064865	1.088131	-0.358227
O110	O	0.435135	1.588131	0.141773
C111	C	0.440033	1.181527	-0.461604
C112	C	0.940033	1.681527	0.038396
C113	C	0.498150	1.181594	-0.461639
C114	C	0.998150	1.681594	0.038361
C115	C	0.310711	1.170600	-0.678492
C116	C	0.810711	1.670600	-0.178492
C117	C	0.313490	1.165936	-0.770921
C118	C	0.813490	1.665936	-0.270921
C119	C	0.311458	1.398443	-0.472606
C120	C	0.811458	1.898443	0.027394
C121	C	0.314556	1.490873	-0.477298
C122	C	0.814556	1.990873	0.022702
C123	C	0.289687	1.205864	-0.983898
C124	C	0.789687	1.705864	-0.483898
C125	C	0.318540	1.157394	-0.940143
C126	C	0.818540	1.657394	-0.440143
C127	C	0.315729	1.162148	-0.845979
C128	C	0.815729	1.662148	-0.345979
C129	C	0.292497	1.201110	-1.078070
C130	C	0.792497	1.701110	-0.578070
C131	C	0.297659	1.192494	-0.245545
C132	C	0.797659	1.692494	0.254455
C133	C	0.294739	1.197319	-0.153125
C134	C	0.794739	1.697319	0.346875
H135	H	0.349924	0.693386	-0.530806
H136	H	0.849924	1.193386	-0.030806
H137	H	-0.000542	1.089965	-0.360230
H138	H	0.499458	1.589965	0.139770
H139	H	0.098509	1.089983	-0.360220
H140	H	0.598509	1.589983	0.139780
H141	H	-0.391597	1.273209	-0.563027
H142	H	0.108403	1.773209	-0.063027
H143	H	-0.236090	1.323690	-0.618915
H144	H	0.263910	1.823690	-0.118915
H145	H	-0.403837	1.089969	-0.360244
H146	H	0.096163	1.589969	0.139756
C147	C	-0.128799	1.337470	-0.634123
C148	C	0.371201	1.837470	-0.134123
C149	C	-0.161444	1.381700	-0.683051
C150	C	0.338556	1.881700	-0.183051
C151	C	-0.130869	1.432294	-0.738990
C152	C	0.369131	1.932294	-0.238990
H153	H	-0.107466	1.303914	-0.668814
H154	H	0.392534	1.803914	-0.168814
H155	H	-0.107251	1.375358	-0.604182
H156	H	0.392749	1.875358	-0.104182
H157	H	-0.182982	1.343817	-0.712989
H158	H	0.317018	1.843817	-0.212989
H159	H	-0.182776	1.415272	-0.648382
H160	H	0.317224	1.915272	-0.148382
H161	H	-0.109322	1.470182	-0.709049
H162	H	0.390678	1.970182	-0.209049
H163	H	-0.109538	1.398731	-0.773675
H164	H	0.390462	1.898731	-0.273675
H165	H	-0.153014	1.462316	-0.772189
H166	H	0.346986	1.962316	-0.272189
C167	C	0.248538	0.659602	-0.377421
C168	C	0.748538	1.159602	0.122579
C169	C	0.219649	0.718447	-0.333718
C170	C	0.719649	1.218447	0.166282
C171	C	0.183083	0.677728	-0.278435
C172	C	0.683083	1.177728	0.221565
H173	H	0.266249	0.627537	-0.339396
H174	H	0.766249	1.127537	0.160604
H175	H	0.225610	0.624135	-0.407596
H176	H	0.725610	1.124135	0.092404
H177	H	0.242574	0.753899	-0.303545
H178	H	0.742574	1.253899	0.196455
H179	H	0.201927	0.750515	-0.371721
H180	H	0.701927	1.250515	0.128279
H181	H	0.160155	0.642262	-0.308610
H182	H	0.660155	1.142262	0.191390
H183	H	0.200798	0.645664	-0.240416
H184	H	0.700798	1.145664	0.259584
H185	H	0.163474	0.717648	-0.248782
H186	H	0.663474	1.217648	0.251218
H187	H	0.262876	1.250929	-0.950642
H188	H	0.762876	1.750929	-0.450642
C189	C	0.354384	1.097358	-0.984374
C190	C	0.854384	1.597358	-0.484374
C191	C	0.406101	1.116493	-0.964230
C192	C	0.906101	1.616493	-0.464230
C193	C	0.439135	1.061205	-1.004952
C194	C	0.939135	1.561205	-0.504952
H195	H	0.351619	1.102053	-1.042698
H196	H	0.851619	1.602053	-0.542698
H197	H	0.344480	1.042175	-0.967324
H198	H	0.844480	1.542175	-0.467324
H199	H	0.416002	1.171662	-0.981284
H200	H	0.916002	1.671662	-0.481284
H201	H	0.408882	1.111792	-0.905913
H202	H	0.908882	1.611792	-0.405913
H203	H	0.429230	1.006022	-0.987903
H204	H	0.929230	1.506022	-0.487903
H205	H	0.436365	1.065904	-1.063274
H206	H	0.936365	1.565904	-0.563274
H207	H	0.474227	1.074175	-0.991284
H208	H	0.974227	1.574175	-0.491284
H209	H	-0.156042	1.039471	-0.304356
H210	H	0.343958	1.539471	0.195644
H211	H	-0.502902	1.089976	-0.360254
H212	H	-0.002902	1.589976	0.139746
C213	C	-0.263325	1.025737	-0.289099
C214	C	0.236675	1.525737	0.210901
C215	C	-0.230674	0.981538	-0.240154
C216	C	0.269326	1.481538	0.259846
C217	C	-0.261242	0.931009	-0.184148
C218	C	0.238758	1.431009	0.315852
H219	H	-0.284890	0.987825	-0.318963
H220	H	0.215110	1.487825	0.181037
H221	H	-0.284640	1.059361	-0.254433
H222	H	0.215360	1.559361	0.245567
H223	H	-0.209368	0.947917	-0.274816
H224	H	0.290632	1.447917	0.225184
H225	H	-0.209108	1.019429	-0.210273
H226	H	0.290892	1.519429	0.289727
H227	H	-0.282556	0.964634	-0.149481
H228	H	0.217444	1.464634	0.350519
H229	H	-0.282805	0.893102	-0.214018
H230	H	0.217195	1.393102	0.285982
H231	H	-0.239092	0.901020	-0.150927
H232	H	0.260908	1.401020	0.349073
C233	C	-0.497045	1.286953	-0.578280
C234	C	0.002955	1.786953	-0.078280
C235	C	-0.458488	1.331157	-0.627224
C236	C	0.041512	1.831157	-0.127224
C237	C	-0.482302	1.381691	-0.683223
C238	C	0.017698	1.881691	-0.183223
H239	H	-0.518090	1.324862	-0.548412
H240	H	-0.018090	1.824862	-0.048412
H241	H	-0.518304	1.253332	-0.612948
H242	H	-0.018304	1.753332	-0.112948
H243	H	-0.437238	1.364776	-0.592560
H244	H	0.062762	1.864776	-0.092560
H245	H	-0.437441	1.293269	-0.657110
H246	H	0.062559	1.793269	-0.157110
H247	H	-0.503561	1.348070	-0.717892
H248	H	-0.003561	1.848070	-0.217892
H249	H	-0.503346	1.419595	-0.653348
H250	H	-0.003346	1.919595	-0.153348
H251	H	-0.456145	1.411683	-0.716444
H252	H	0.043855	1.911683	-0.216444
H253	H	0.011692	1.273223	-0.562999
H254	H	0.511692	1.773223	-0.062999
H255	H	0.110758	1.273216	-0.562990
H256	H	0.610758	1.773216	-0.062990
