data_functionalizedCrystal
_audit_creation_method	'MofGen! by Chris Wilmer'
_symmetry_space_group_name_H-M	'P1'
_symmetry_Int_Tables_number	1
_symmetry_cell_setting	triclinic
loop_
_symmetry_equiv_pos_as_xyz
  x,y,z
_cell_length_a	16.109301
_cell_length_b	19.188930
_cell_length_c	15.186229
_cell_angle_alpha	89.991143
_cell_angle_beta	89.999362
_cell_angle_gamma	83.303131
loop_
_atom_site_label
_atom_site_type_symbol
_atom_site_fract_x
_atom_site_fract_y
_atom_site_fract_z
O1	O	1.102833	0.089744	-0.073183
O2	O	0.860734	0.100912	-0.073198
O3	O	0.988770	-0.006311	-0.073173
O4	O	0.974797	0.196967	-0.073208
O5	O	0.988762	-0.006313	0.073284
O6	O	0.860726	0.100911	0.073259
O7	O	1.102825	0.089742	0.073274
Zn8	Zn	0.981774	0.095326	0.096520
Zn9	Zn	0.981785	0.095328	-0.096444
O10	O	0.974789	0.196966	0.073249
C11	C	0.829757	0.100459	0.000029
C12	C	0.737466	0.099103	0.000024
C13	C	0.514993	0.159573	0.000023
C14	C	0.428277	0.158294	0.000029
C15	C	0.448573	0.031076	0.000048
C16	C	0.535287	0.032357	0.000048
C17	C	0.568495	0.096608	0.000031
C18	C	0.395064	0.094047	0.000037
C19	C	0.301043	0.092659	0.000043
C20	C	0.662522	0.097996	0.000027
C21	C	0.988313	-0.032324	0.000058
C22	C	0.986955	-0.109832	0.000066
C23	C	1.062082	-0.154580	0.000075
C24	C	1.060806	-0.227407	0.000060
C25	C	0.984399	-0.255482	0.000055
C26	C	0.909261	-0.210724	0.000041
C27	C	0.910540	-0.137899	0.000046
N28	N	0.925991	-0.363624	0.049893
N29	N	0.924782	-0.432805	0.049890
C30	C	0.980543	-0.474900	0.000037
N31	N	1.037571	-0.445200	-0.049802
N32	N	1.038783	-0.376013	-0.049795
C33	C	0.983004	-0.334448	0.000049
C34	C	1.054292	-0.598616	0.000029
C35	C	1.053012	-0.671443	0.000010
C36	C	0.901465	-0.654759	-0.000001
C37	C	0.902747	-0.581933	0.000010
C38	C	0.979162	-0.553866	0.000029
C39	C	1.133802	0.090196	0.000045
C40	C	1.226093	0.091552	0.000045
C41	C	0.975246	0.222979	0.000016
C42	C	0.976604	0.300486	0.000003
N43	N	0.981772	0.095325	0.228213
N44	N	0.981793	0.095325	-0.228137
C45	C	1.038486	0.047862	0.453947
C46	C	1.038488	0.047860	0.546136
C47	C	0.925074	0.142790	0.546123
C48	C	0.925068	0.142787	0.453935
C49	C	0.981779	0.095324	0.407849
C50	C	0.981787	0.095325	0.592227
C51	C	0.981790	0.095323	0.692183
C52	C	0.981775	0.095325	0.307887
H53	H	0.578851	-0.018920	0.000057
C54	C	0.863631	0.194359	0.403768
C55	C	0.907759	0.237094	0.350812
C56	C	0.851193	0.284600	0.304578
H57	H	0.829838	0.222697	0.444317
H58	H	0.829125	0.169252	0.367764
H59	H	0.942251	0.262200	0.386813
H60	H	0.941549	0.208775	0.310247
H61	H	0.816687	0.259493	0.268573
H62	H	0.817403	0.312933	0.345133
H63	H	0.881126	0.313597	0.268635
C64	C	1.137230	-0.568100	0.000218
C65	C	1.142402	-0.526809	0.075584
C66	C	1.218797	-0.498697	0.075793
H67	H	1.140963	-0.539979	-0.050791
H68	H	1.181815	-0.605166	0.000261
H69	H	1.097829	-0.489748	0.075533
H70	H	1.138684	-0.554914	0.126606
H71	H	1.263383	-0.535764	0.075836
H72	H	1.222524	-0.470580	0.024781
H73	H	1.222320	-0.470684	0.126931
C74	C	1.134520	-0.720115	0.000152
C75	C	1.138194	-0.762441	0.075482
C76	C	1.213261	-0.807294	0.075635
H77	H	1.180280	-0.693056	0.000209
H78	H	1.137182	-0.748900	-0.050900
H79	H	1.135540	-0.733659	0.126520
H80	H	1.092451	-0.789515	0.075440
H81	H	1.215923	-0.836079	0.024583
H82	H	1.259015	-0.780229	0.075690
H83	H	1.215760	-0.836022	0.126741
H84	H	0.542027	0.211890	0.000016
H85	H	0.384719	0.209567	0.000024
C86	C	1.099926	-0.003750	0.596231
C87	C	1.055802	-0.046516	0.649150
C88	C	1.112372	-0.094076	0.695300
H89	H	1.134465	0.021293	0.632259
H90	H	1.133685	-0.032056	0.555606
H91	H	1.022057	-0.018213	0.689770
H92	H	1.021267	-0.071574	0.613144
H93	H	1.146131	-0.122382	0.654675
H94	H	1.146907	-0.069028	0.731323
H95	H	1.082442	-0.123103	0.731204
C96	C	0.412355	-0.038607	0.000012
C97	C	0.324962	-0.026254	-0.000015
C98	C	0.291573	-0.090431	-0.000062
H99	H	0.430642	-0.064589	0.051075
H100	H	0.430691	-0.064536	-0.051078
H101	H	0.306634	-0.000336	0.051069
H102	H	0.306653	-0.000283	-0.051074
H103	H	0.309909	-0.116360	-0.051153
H104	H	0.309866	-0.116408	0.051001
H105	H	0.232274	-0.082058	-0.000089
C106	C	1.144961	-0.123973	0.000125
C107	C	1.130005	-0.050617	0.000147
C108	C	1.206331	-0.022396	0.000202
H109	H	1.175948	-0.139252	-0.050932
H110	H	1.175890	-0.139302	0.051220
H111	H	1.099089	-0.035294	-0.050942
H112	H	1.099029	-0.035318	0.051201
H113	H	1.237260	-0.037726	0.051296
H114	H	1.237313	-0.037681	-0.050857
H115	H	1.196194	0.027378	0.000225
C116	C	1.142467	-0.275886	0.000118
C117	C	1.209660	-0.235719	0.000156
C118	C	1.284897	-0.280352	0.000221
H119	H	1.145243	-0.304652	-0.050941
H120	H	1.145153	-0.304638	0.051211
H121	H	1.206976	-0.206979	-0.050932
H122	H	1.206912	-0.206955	0.051211
H123	H	1.287583	-0.309104	0.051314
H124	H	1.287665	-0.309115	-0.050839
H125	H	1.330497	-0.253105	0.000255
C126	C	1.100105	-0.003578	0.403840
C127	C	1.150879	0.033597	0.350890
C128	C	1.207642	-0.013776	0.304721
H129	H	1.070359	-0.032649	0.367831
H130	H	1.133927	-0.031853	0.444454
H131	H	1.117062	0.061860	0.310281
H132	H	1.180644	0.062665	0.386877
H133	H	1.241464	-0.042051	0.345335
H134	H	1.177889	-0.042844	0.268717
H135	H	1.242104	0.011440	0.268796
H136	H	0.878902	0.181434	0.583655
C137	C	0.826279	-0.241163	-0.000146
C138	C	0.780893	-0.218421	-0.075511
C139	C	0.704449	-0.246454	-0.075725
H140	H	0.795249	-0.225827	0.050863
H141	H	0.836242	-0.290947	-0.000194
H142	H	0.770927	-0.168647	-0.075456
H143	H	0.811897	-0.233756	-0.126533
H144	H	0.714412	-0.296238	-0.075772
H145	H	0.673427	-0.231116	-0.024712
H146	H	0.673648	-0.231033	-0.126863
H147	H	0.849360	-0.101464	0.000039
H148	H	0.839253	-0.677617	-0.000010
C149	C	0.821088	-0.533460	0.000057
C150	C	0.753898	-0.573631	0.000073
C151	C	0.678658	-0.529002	0.000126
H152	H	0.818320	-0.504679	-0.050998
H153	H	0.818390	-0.504724	0.051154
H154	H	0.756595	-0.602355	-0.051018
H155	H	0.756639	-0.602410	0.051125
H156	H	0.675960	-0.500266	0.051223
H157	H	0.675899	-0.500223	-0.050931
H158	H	0.633061	-0.556251	0.000145
