data_functionalizedCrystal
_audit_creation_method	'MofGen! by Chris Wilmer'
_symmetry_space_group_name_H-M	'P1'
_symmetry_Int_Tables_number	1
_symmetry_cell_setting	triclinic
loop_
_symmetry_equiv_pos_as_xyz
  x,y,z
_cell_length_a	13.897449
_cell_length_b	18.050590
_cell_length_c	13.897441
_cell_angle_alpha	90.033006
_cell_angle_beta	90.020733
_cell_angle_gamma	90.019832
loop_
_atom_site_label
_atom_site_type_symbol
_atom_site_fract_x
_atom_site_fract_y
_atom_site_fract_z
Zn1	Zn	1.474697	-0.295610	0.545365
Zn2	Zn	1.974697	0.204390	1.045365
Zn3	Zn	1.474588	-0.419815	0.384060
Zn4	Zn	1.974588	0.080185	0.884060
Zn5	Zn	1.313386	-0.295646	0.384083
Zn6	Zn	1.813386	0.204354	0.884083
Zn7	Zn	1.313365	-0.419766	0.545312
Zn8	Zn	1.813365	0.080234	1.045312
O9	O	1.394009	-0.357709	0.464705
O10	O	1.894009	0.142291	0.964705
O11	O	1.609664	-0.312092	0.523980
O12	O	2.109664	0.187908	1.023980
O13	O	1.453168	-0.403379	0.249081
O14	O	1.953168	0.096621	0.749081
O15	O	1.334838	-0.191716	0.405510
O16	O	1.834838	0.308284	0.905510
O17	O	1.609584	-0.403344	0.405469
O18	O	2.109584	0.096656	0.905469
O19	O	1.453353	-0.191690	0.524003
O20	O	1.953353	0.308310	1.024003
O21	O	1.334733	-0.312152	0.249099
O22	O	1.834733	0.187848	0.749099
O23	O	1.178402	-0.312105	0.405459
O24	O	1.678402	0.187895	0.905459
O25	O	1.334803	-0.403261	0.680301
O26	O	1.834803	0.096739	1.180301
O27	O	1.178386	-0.403295	0.523913
O28	O	1.678386	0.096705	1.023913
O29	O	1.453333	-0.312045	0.680340
O30	O	1.953333	0.187955	1.180340
O31	O	1.453148	-0.523733	0.405418
O32	O	1.953148	-0.023733	0.905418
O33	O	1.334698	-0.523697	0.523890
O34	O	1.834698	-0.023697	1.023890
C35	C	1.143395	-0.357699	0.464683
C36	C	1.643395	0.142301	0.964683
C37	C	1.036181	-0.357713	0.464697
C38	C	1.536181	0.142287	0.964697
C39	C	0.839886	-0.357716	0.464722
C40	C	1.339886	0.142284	0.964722
C41	C	0.949118	-0.357712	0.464705
C42	C	1.449118	0.142288	0.964705
C43	C	1.393935	-0.550661	0.464667
C44	C	1.893935	-0.050661	0.964667
C45	C	1.393991	-0.633207	0.464682
C46	C	1.893991	-0.133207	0.964682
C47	C	1.458539	-0.832650	0.400348
C48	C	1.958539	-0.332650	0.900348
C49	C	1.482104	-0.881977	0.488383
C50	C	1.982104	-0.381977	0.988383
C51	C	1.394046	-0.784337	0.464721
C52	C	1.894046	-0.284337	0.964721
C53	C	1.370579	-0.882092	0.376725
C54	C	1.870579	-0.382092	0.876725
C55	C	1.394101	-0.930322	0.464750
C56	C	1.894101	-0.430322	0.964750
C57	C	1.417657	-0.832577	0.552802
C58	C	1.917657	-0.332577	1.052802
C59	C	1.306091	-0.832688	0.441086
C60	C	1.806091	-0.332688	0.941086
C61	C	1.329623	-0.881992	0.529181
C62	C	1.829623	-0.381992	1.029181
C63	C	1.394017	-0.700239	0.464703
C64	C	1.894017	-0.200239	0.964703
C65	C	1.394130	-1.014419	0.464778
C66	C	1.894130	-0.514419	0.964778
C67	C	1.645602	-0.357720	0.464728
C68	C	2.145602	0.142280	0.964728
C69	C	1.752816	-0.357724	0.464737
C70	C	2.252816	0.142276	0.964737
C71	C	1.394078	-0.357644	0.716298
C72	C	1.894078	0.142356	1.216298
C73	C	1.394107	-0.357616	0.823512
C74	C	1.894107	0.142384	1.323512
C75	C	1.394110	-0.164004	0.464765
C76	C	1.894110	0.335996	0.964765
C77	C	1.394153	-0.081458	0.464790
C78	C	1.894153	0.418542	0.964790
C79	C	1.393996	-0.357721	0.214091
C80	C	1.893996	0.142279	0.714091
C81	C	1.394154	-0.357540	0.106877
C82	C	1.894154	0.142460	0.606877
C83	C	1.394133	-0.357565	1.019808
C84	C	1.894133	0.142435	1.519808
C85	C	1.394115	-0.357595	0.910575
C86	C	1.894115	0.142405	1.410575
H87	H	1.513096	-0.810984	0.345965
H88	H	2.013096	-0.310984	0.845965
H89	H	1.556510	-0.903630	0.508393
H90	H	2.056510	-0.403630	1.008393
C91	C	1.444627	-0.803322	0.653381
C92	C	1.944627	-0.303322	1.153381
N93	N	1.464945	-0.781285	0.729134
N94	N	1.964945	-0.281285	1.229134
H95	H	1.275107	-0.903521	0.583696
H96	H	1.775107	-0.403521	1.083696
C97	C	1.205605	-0.803404	0.414012
C98	C	1.705605	-0.303404	0.914012
N99	N	1.129920	-0.781344	0.393608
N100	N	1.629920	-0.281344	0.893608
H101	H	1.350707	-0.903841	0.302296
H102	H	1.850707	-0.403841	0.802296
