data_functionalizedCrystal
_audit_creation_method	'MofGen! by Chris Wilmer'
_symmetry_space_group_name_H-M	'P1'
_symmetry_Int_Tables_number	1
_symmetry_cell_setting	triclinic
loop_
_symmetry_equiv_pos_as_xyz
  x,y,z
_cell_length_a	17.699083
_cell_length_b	10.540539
_cell_length_c	16.776229
_cell_angle_alpha	89.995514
_cell_angle_beta	89.998886
_cell_angle_gamma	83.904253
loop_
_atom_site_label
_atom_site_type_symbol
_atom_site_fract_x
_atom_site_fract_y
_atom_site_fract_z
O1	O	1.005122	0.160520	-0.066173
O2	O	0.784880	0.181404	-0.066198
O3	O	0.900026	-0.013836	-0.066184
O4	O	0.889976	0.355761	-0.066187
O5	O	0.900010	-0.013848	0.066393
O6	O	0.784864	0.181392	0.066378
O7	O	1.005107	0.160508	0.066404
Zn8	Zn	0.894983	0.170948	0.087440
Zn9	Zn	0.895003	0.170964	-0.087235
O10	O	0.889961	0.355749	0.066389
C11	C	0.756670	0.180650	0.000087
C12	C	0.672637	0.178405	0.000077
C13	C	0.624761	0.293007	0.000076
C14	C	0.545804	0.290890	0.000086
C15	C	0.514725	0.174170	0.000092
C16	C	0.562607	0.059559	0.000095
C17	C	0.641562	0.061677	0.000090
C18	C	0.244188	0.051014	0.000115
C19	C	0.165226	0.048904	0.000117
C20	C	0.148430	0.280227	0.000111
C21	C	0.227386	0.282345	0.000106
C22	C	0.275261	0.167735	0.000113
C23	C	0.360875	0.170032	0.000104
C24	C	0.429112	0.171872	0.000096
C25	C	0.899264	-0.061131	0.000103
C26	C	0.897009	-0.202038	0.000098
C27	C	0.810610	-0.383885	-0.000209
C28	C	0.812896	-0.237308	0.000089
C29	C	0.937480	-0.264443	0.075811
C30	C	0.934609	-0.410935	0.075874
C31	C	0.936337	-0.411471	-0.074890
C32	C	0.937112	-0.264503	-0.075891
C33	C	1.033316	0.161263	0.000117
C34	C	1.117349	0.163508	0.000122
C35	C	0.890722	0.403044	0.000101
C36	C	0.892977	0.543951	0.000100
N37	N	0.894974	0.170937	0.206652
N38	N	0.895018	0.170966	-0.206446
C39	C	0.945977	0.084520	0.248375
C40	C	0.945981	0.084519	0.331827
C41	C	0.894986	0.170942	0.373555
C42	C	0.843978	0.257363	0.331825
C43	C	0.843971	0.257357	0.248375
C44	C	0.844005	0.257388	0.668372
C45	C	0.844018	0.257390	0.751829
C46	C	0.946016	0.084550	0.751825
C47	C	0.946009	0.084544	0.668374
C48	C	0.894998	0.170960	0.626652
C49	C	0.894993	0.170958	0.536164
C50	C	0.894994	0.170950	0.464041
H51	H	0.506826	0.384211	0.000085
N52	N	0.768926	-0.419021	-0.068309
N53	N	0.708735	-0.469577	-0.059267
H54	H	0.679295	-0.494403	-0.107364
H55	H	0.909121	-0.442521	-0.132275
N56	N	0.259119	0.401583	0.000093
N57	N	0.216364	0.503900	0.000092
H58	H	0.238773	0.588116	0.000085
H59	H	0.780815	-0.194971	0.054446
H60	H	0.680543	-0.031644	0.000090
H61	H	0.802489	0.327768	0.785802
N62	N	0.791886	0.345625	0.374458
N63	N	0.791899	0.345621	0.448967
H64	H	0.755109	0.407959	0.479077
H65	H	0.802472	0.327753	0.634409
H66	H	0.283159	-0.042309	0.000121
N67	N	0.133492	-0.070342	0.000138
N68	N	0.147934	-0.147544	0.056029
H69	H	0.125522	-0.231758	0.056044
H70	H	0.904687	-0.438592	0.132464
N71	N	1.010497	-0.472489	0.080202
N72	N	1.065409	-0.407215	0.083172
H73	H	1.119004	-0.450681	0.086235
H74	H	0.987549	0.014181	0.785804
N75	N	0.791865	0.345634	0.205765
N76	N	0.746336	0.422791	0.243028
H77	H	0.709531	0.485136	0.212936
H78	H	0.987506	0.014150	0.214406
N79	N	0.902192	-0.210359	0.146479
N80	N	0.847246	-0.125873	0.141279
H81	H	0.822319	-0.087677	0.191188
N82	N	0.656492	0.412248	0.000080
N83	N	0.642047	0.489446	0.055966
H84	H	0.664454	0.573665	0.055972
N85	N	0.099536	0.397314	0.000122
N86	N	0.127297	0.501518	0.000117
H87	H	0.092769	0.584210	0.000124
N88	N	0.530850	-0.059658	0.000109
N89	N	0.460354	-0.061536	0.000112
H90	H	0.437925	-0.145736	0.000120
H91	H	0.907500	-0.223098	-0.131901
H92	H	0.987511	0.014151	0.365798
N93	N	0.998114	-0.003727	0.625765
N94	N	1.043653	-0.080876	0.663028
H95	H	1.080455	-0.143219	0.632937
N96	N	1.014039	-0.235495	-0.081621
N97	N	1.040680	-0.168018	-0.029556
H98	H	1.095011	-0.147525	-0.033599
N99	N	0.772943	-0.183136	-0.067997
N100	N	0.743171	-0.253572	-0.116068
H101	H	0.714949	-0.215319	-0.164155
N102	N	0.769094	-0.421035	0.067512
N103	N	0.799904	-0.500429	0.116003
H104	H	0.770585	-0.526671	0.163833
H105	H	0.997092	-0.459808	-0.075392
N106	N	1.014964	-0.237790	0.079350
N107	N	1.030403	-0.124914	0.082689
H108	H	1.085127	-0.106084	0.085186
