data_functionalizedCrystal
_audit_creation_method	'MofGen! by Chris Wilmer'
_symmetry_space_group_name_H-M	'P1'
_symmetry_Int_Tables_number	1
_symmetry_cell_setting	triclinic
loop_
_symmetry_equiv_pos_as_xyz
  x,y,z
_cell_length_a	10.723023
_cell_length_b	17.666332
_cell_length_c	10.723022
_cell_angle_alpha	90.005258
_cell_angle_beta	84.467387
_cell_angle_gamma	90.008872
loop_
_atom_site_label
_atom_site_type_symbol
_atom_site_fract_x
_atom_site_fract_y
_atom_site_fract_z
O1	O	1.657197	0.062939	0.175025
O2	O	1.294044	0.062942	0.191779
O3	O	1.483998	0.062937	0.001826
O4	O	1.467243	0.062943	0.364978
O5	O	1.483964	-0.062960	0.001815
O6	O	1.294010	-0.062955	0.191769
O7	O	1.657163	-0.062958	0.175014
Cu8	Cu	1.475584	-0.074452	0.183391
Cu9	Cu	1.475623	0.074435	0.183403
O10	O	1.467209	-0.062954	0.364968
C11	C	1.247528	-0.000006	0.190555
C12	C	1.108973	-0.000005	0.186908
C13	C	1.047184	-0.065223	0.185276
C14	C	0.903981	-0.065223	0.181506
N15	N	1.475565	-0.179172	0.183381
C16	C	1.559704	-0.218783	0.099312
C17	C	1.559711	-0.298031	0.099306
C18	C	1.475591	-0.337664	0.183391
C19	C	1.391436	-0.298042	0.267467
C20	C	1.391423	-0.218796	0.267462
N21	N	1.460651	-0.462080	0.293676
N22	N	1.460671	-0.537361	0.293677
C23	C	1.475624	-0.576428	0.183409
N24	N	1.490581	-0.537370	0.073136
N25	N	1.490568	-0.462083	0.073137
C26	C	1.475596	-0.423593	0.183405
C27	C	1.559776	-0.701969	0.099326
C28	C	1.559775	-0.781218	0.099318
C29	C	1.391505	-0.781228	0.267490
C30	C	1.391501	-0.701980	0.267487
C31	C	1.475643	-0.662355	0.183406
C32	C	1.703679	-0.000009	0.176239
C33	C	1.842234	-0.000005	0.179886
C34	C	1.482762	-0.000010	-0.044679
C35	C	1.479115	-0.000008	-0.183233
N36	N	1.475652	0.179155	0.183403
C37	C	1.581632	-0.000005	-0.401412
C38	C	1.585403	-0.000007	-0.258209
C39	C	1.468445	-0.000005	0.411473
C40	C	1.472092	-0.000002	0.550027
H41	H	0.895362	0.055833	0.181296
C42	C	1.037221	0.075428	0.185023
N43	N	0.983178	0.132247	0.183606
H44	H	1.628215	-0.186523	0.030845
C45	C	1.652322	-0.658379	0.006824
N46	N	1.722026	-0.625549	-0.062851
H47	H	1.322904	-0.186544	0.335923
H48	H	1.628287	-0.813470	0.030852
C49	C	1.298972	-0.824819	0.359987
N50	N	1.229273	-0.857657	0.429657
H51	H	1.679191	0.000018	-0.216397
H52	H	1.385323	-0.000002	-0.225037
C53	C	1.349165	-0.000002	-0.362919
N54	N	1.256573	0.000000	-0.297352
H55	H	1.100302	-0.121058	0.186663
C56	C	1.299030	-0.658406	0.360063
N57	N	1.229405	-0.625586	0.429823
C58	C	1.704558	-0.000006	-0.488466
N59	N	1.797151	-0.000007	-0.554033
C60	C	1.652287	-0.341612	0.006831
N61	N	1.722021	-0.374436	-0.062816
C62	C	0.832198	-0.140657	0.179611
N63	N	0.778128	-0.197477	0.178182
H64	H	1.322942	-0.330316	0.335928
