data_functionalizedCrystal
_audit_creation_method	'MofGen! by Chris Wilmer'
_symmetry_space_group_name_H-M	'P1'
_symmetry_Int_Tables_number	1
_symmetry_cell_setting	triclinic
loop_
_symmetry_equiv_pos_as_xyz
  x,y,z
_cell_length_a	16.625548
_cell_length_b	18.050590
_cell_length_c	16.625539
_cell_angle_alpha	89.970044
_cell_angle_beta	89.979432
_cell_angle_gamma	90.019620
loop_
_atom_site_label
_atom_site_type_symbol
_atom_site_fract_x
_atom_site_fract_y
_atom_site_fract_z
Zn1	Zn	1.232702	-0.295637	-0.455900
Zn2	Zn	1.482702	-0.045637	-0.205900
Zn3	Zn	1.732702	0.204363	0.044100
Zn4	Zn	1.982702	0.454363	0.294100
Zn5	Zn	1.232615	-0.419835	-0.321063
Zn6	Zn	1.482615	-0.169835	-0.071063
Zn7	Zn	1.732615	0.080165	0.178937
Zn8	Zn	1.982615	0.330165	0.428937
Zn9	Zn	1.097864	-0.295665	-0.321081
Zn10	Zn	1.347864	-0.045665	-0.071081
Zn11	Zn	1.597864	0.204335	0.178919
Zn12	Zn	1.847864	0.454335	0.428919
Zn13	Zn	1.097844	-0.419792	-0.455853
Zn14	Zn	1.347844	-0.169792	-0.205853
Zn15	Zn	1.597844	0.080208	0.044147
Zn16	Zn	1.847844	0.330208	0.294147
O17	O	1.165256	-0.357732	-0.388474
O18	O	1.415256	-0.107732	-0.138474
O19	O	1.665256	0.142268	0.111526
O20	O	1.915256	0.392268	0.361526
O21	O	1.345523	-0.312118	-0.438026
O22	O	1.595523	-0.062118	-0.188026
O23	O	1.845523	0.187882	0.061974
O24	O	2.095523	0.437882	0.311974
O25	O	1.214712	-0.403393	-0.208233
O26	O	1.464712	-0.153393	0.041767
O27	O	1.714712	0.096607	0.291767
O28	O	1.964712	0.346607	0.541767
O29	O	1.115796	-0.191737	-0.338992
O30	O	1.365796	0.058263	-0.088992
O31	O	1.615796	0.308263	0.161008
O32	O	1.865796	0.558263	0.411008
O33	O	1.345459	-0.403365	-0.338962
O34	O	1.595459	-0.153365	-0.088962
O35	O	1.845459	0.096635	0.161038
O36	O	2.095459	0.346635	0.411038
O37	O	1.214861	-0.191716	-0.438043
O38	O	1.464861	0.058284	-0.188043
O39	O	1.714861	0.308284	0.061957
O40	O	1.964861	0.558284	0.311957
O41	O	1.115711	-0.312166	-0.208246
O42	O	1.365711	-0.062166	0.041754
O43	O	1.615711	0.187834	0.291754
O44	O	1.865711	0.437834	0.541754
O45	O	0.985029	-0.312125	-0.338946
O46	O	1.235029	-0.062125	-0.088946
O47	O	1.485029	0.187875	0.161054
O48	O	1.735029	0.437875	0.411054
O49	O	1.115761	-0.403293	-0.568692
O50	O	1.365761	-0.153293	-0.318692
O51	O	1.615761	0.096707	-0.068692
O52	O	1.865761	0.346707	0.181308
O53	O	0.985014	-0.403320	-0.437963
O54	O	1.235014	-0.153320	-0.187963
O55	O	1.485014	0.096680	0.062037
O56	O	1.735014	0.346680	0.312037
O57	O	1.214841	-0.312077	-0.568726
O58	O	1.464841	-0.062077	-0.318726
O59	O	1.714841	0.187923	-0.068726
O60	O	1.964841	0.437923	0.181274
O61	O	1.214692	-0.523754	-0.338917
O62	O	1.464692	-0.273754	-0.088917
O63	O	1.714692	-0.023754	0.161083
O64	O	1.964692	0.226246	0.411083
O65	O	1.115676	-0.523722	-0.437946
O66	O	1.365676	-0.273722	-0.187946
O67	O	1.615676	-0.023722	0.062054
O68	O	1.865676	0.226278	0.312054
C69	C	0.955765	-0.357722	-0.388452
C70	C	1.205765	-0.107722	-0.138452
C71	C	1.455765	0.142278	0.111548
C72	C	1.705765	0.392278	0.361548
C73	C	0.866144	-0.357735	-0.388461
C74	C	1.116144	-0.107735	-0.138461
C75	C	1.366144	0.142265	0.111539
C76	C	1.616144	0.392265	0.361539
C77	C	0.537969	-0.357740	-0.388496
C78	C	0.787969	-0.107740	-0.138496
C79	C	1.037969	0.142260	0.111504
C80	C	1.287969	0.392260	0.361504
C81	C	0.629277	-0.357736	-0.388484
C82	C	0.879277	-0.107736	-0.138484
C83	C	1.129277	0.142264	0.111516
C84	C	1.379277	0.392264	0.361516
C85	C	0.702054	-0.357738	-0.388478
C86	C	0.952054	-0.107738	-0.138478
C87	C	1.202054	0.142262	0.111522
C88	C	1.452054	0.392262	0.361522
C89	C	0.793368	-0.357734	-0.388467
C90	C	1.043368	-0.107734	-0.138467
C91	C	1.293368	0.142266	0.111533
C92	C	1.543368	0.392266	0.361533
C93	C	1.165194	-0.550684	-0.388442
C94	C	1.415194	-0.300684	-0.138442
C95	C	1.665194	-0.050684	0.111558
C96	C	1.915194	0.199316	0.361558
C97	C	1.165242	-0.633230	-0.388455
C98	C	1.415242	-0.383230	-0.138455
C99	C	1.665242	-0.133230	0.111545
C100	C	1.915242	0.116770	0.361545
C101	C	1.219198	-0.832671	-0.334678
C102	C	1.469198	-0.582671	-0.084678
C103	C	1.719198	-0.332671	0.165322
C104	C	1.969198	-0.082671	0.415322
C105	C	1.238896	-0.882001	-0.408268
C106	C	1.488896	-0.632001	-0.158268
C107	C	1.738896	-0.382001	0.091732
C108	C	1.988896	-0.132001	0.341732
C109	C	1.165287	-0.784360	-0.388488
C110	C	1.415287	-0.534360	-0.138488
C111	C	1.665287	-0.284360	0.111512
C112	C	1.915287	-0.034360	0.361512
C113	C	1.145672	-0.882112	-0.314931
C114	C	1.395672	-0.632112	-0.064931
C115	C	1.645672	-0.382112	0.185069
C116	C	1.895672	-0.132112	0.435069
C117	C	1.165333	-0.930345	-0.388512
C118	C	1.415333	-0.680345	-0.138512
C119	C	1.665333	-0.430345	0.111488
C120	C	1.915333	-0.180345	0.361488
C121	C	1.185022	-0.832604	-0.462116
C122	C	1.435022	-0.582604	-0.212116
C123	C	1.685022	-0.332604	0.037884
C124	C	1.935022	-0.082604	0.287884
C125	C	1.091765	-0.832710	-0.368729
C126	C	1.341765	-0.582710	-0.118729
C127	C	1.591765	-0.332710	0.131271
C128	C	1.841765	-0.082710	0.381271
C129	C	1.111434	-0.882018	-0.442370
C130	C	1.361434	-0.632018	-0.192370
C131	C	1.611434	-0.382018	0.057630
C132	C	1.861434	-0.132018	0.307630
C133	C	1.165263	-0.700262	-0.388472
C134	C	1.415263	-0.450262	-0.138472
C135	C	1.665263	-0.200262	0.111528
C136	C	1.915263	0.049738	0.361528
C137	C	1.165357	-1.014442	-0.388536
C138	C	1.415357	-0.764442	-0.138536
C139	C	1.665357	-0.514442	0.111464
C140	C	1.915357	-0.264442	0.361464
C141	C	1.375565	-0.357743	-0.388497
C142	C	1.625565	-0.107743	-0.138497
C143	C	1.875565	0.142257	0.111503
C144	C	2.125565	0.392257	0.361503
C145	C	1.465186	-0.357748	-0.388507
C146	C	1.715186	-0.107748	-0.138507
C147	C	1.965186	0.142252	0.111493
C148	C	2.215186	0.392252	0.361493
C149	C	1.165309	-0.357677	-0.598783
C150	C	1.415309	-0.107677	-0.348783
C151	C	1.665309	0.142323	-0.098783
C152	C	1.915309	0.392323	0.151217
C153	C	1.165331	-0.357653	-0.688405
C154	C	1.415331	-0.107653	-0.438405
C155	C	1.665331	0.142347	-0.188405
C156	C	1.915331	0.392347	0.061595
C157	C	1.165341	-0.164027	-0.388524
C158	C	1.415341	0.085973	-0.138524
C159	C	1.665341	0.335973	0.111476
C160	C	1.915341	0.585973	0.361476
C161	C	1.165376	-0.081481	-0.388546
C162	C	1.415376	0.168519	-0.138546
C163	C	1.665376	0.418519	0.111454
C164	C	1.915376	0.668519	0.361454
C165	C	1.165368	-0.357570	-1.016580
C166	C	1.415368	-0.107570	-0.766580
C167	C	1.665368	0.142430	-0.516580
C168	C	1.915368	0.392430	-0.266580
C169	C	1.165356	-0.357596	-0.925272
C170	C	1.415356	-0.107596	-0.675272
C171	C	1.665356	0.142404	-0.425272
C172	C	1.915356	0.392404	-0.175272
C173	C	1.165350	-0.357612	-0.852495
C174	C	1.415350	-0.107612	-0.602495
C175	C	1.665350	0.142388	-0.352495
C176	C	1.915350	0.392388	-0.102495
C177	C	1.165337	-0.357637	-0.761181
C178	C	1.415337	-0.107637	-0.511181
C179	C	1.665337	0.142363	-0.261181
C180	C	1.915337	0.392363	-0.011181
C181	C	1.165250	-0.357734	-0.178984
C182	C	1.415250	-0.107734	0.071016
C183	C	1.665250	0.142266	0.321016
C184	C	1.915250	0.392266	0.571016
C185	C	1.165384	-0.357548	-0.089363
C186	C	1.415384	-0.107548	0.160637
C187	C	1.665384	0.142452	0.410637
C188	C	1.915384	0.392452	0.660637
H189	H	1.301092	-0.903655	-0.424996
H190	H	1.551092	-0.653655	-0.174996
H191	H	1.801092	-0.403655	0.075004
H192	H	2.051092	-0.153655	0.325004
C193	C	1.049871	-0.911113	-0.503920
C194	C	1.299871	-0.661113	-0.253920
C195	C	1.549871	-0.411113	-0.003920
C196	C	1.799871	-0.161113	0.246080
H197	H	1.010475	-0.940124	-0.477019
H198	H	1.260475	-0.690124	-0.227019
H199	H	1.510475	-0.440124	0.022981
H200	H	1.760475	-0.190124	0.272981
H201	H	1.076637	-0.940707	-0.542839
H202	H	1.326637	-0.690707	-0.292839
H203	H	1.576637	-0.440707	-0.042839
H204	H	1.826637	-0.190707	0.207161
H205	H	1.024513	-0.870453	-0.529866
H206	H	1.274513	-0.620453	-0.279866
H207	H	1.524513	-0.370453	-0.029866
H208	H	1.774513	-0.120453	0.220134
C209	C	1.280800	-0.803387	-0.273271
C210	C	1.530800	-0.553387	-0.023271
C211	C	1.780800	-0.303387	0.226729
C212	C	2.030800	-0.053387	0.476729
H213	H	1.253903	-0.774467	-0.233839
H214	H	1.503903	-0.524467	0.016161
H215	H	1.753903	-0.274467	0.266161
H216	H	2.003903	-0.024467	0.516161
H217	H	1.319576	-0.773664	-0.300145
H218	H	1.569576	-0.523664	-0.050145
H219	H	1.819576	-0.273664	0.199855
H220	H	2.069576	-0.023664	0.449855
H221	H	1.306918	-0.843967	-0.247938
H222	H	1.556918	-0.593967	0.002062
H223	H	1.806918	-0.343967	0.252062
H224	H	2.056918	-0.093967	0.502062
C225	C	1.123273	-0.911552	-0.230901
C226	C	1.373273	-0.661552	0.019099
C227	C	1.623273	-0.411552	0.269099
C228	C	1.873273	-0.161552	0.519099
H229	H	1.075718	-0.940556	-0.234514
H230	H	1.325718	-0.690556	0.015486
H231	H	1.575718	-0.440556	0.265486
H232	H	1.825718	-0.190556	0.515486
H233	H	1.114347	-0.871054	-0.195546
H234	H	1.364347	-0.621054	0.054454
H235	H	1.614347	-0.371054	0.304454
H236	H	1.864347	-0.121054	0.554454
H237	H	1.165953	-0.941241	-0.210811
H238	H	1.415953	-0.691241	0.039189
H239	H	1.665953	-0.441241	0.289189
H240	H	1.915953	-0.191241	0.539189
H241	H	1.201570	-0.810950	-0.524386
H242	H	1.451570	-0.560950	-0.274386
H243	H	1.701570	-0.310950	-0.024386
H244	H	1.951570	-0.060950	0.225614
H245	H	1.029587	-0.811040	-0.351980
H246	H	1.279587	-0.561040	-0.101980
H247	H	1.529587	-0.311040	0.148020
H248	H	1.779587	-0.061040	0.398020
