data_functionalizedCrystal
_audit_creation_method	'MofGen! by Chris Wilmer'
_symmetry_space_group_name_H-M	'P1'
_symmetry_Int_Tables_number	1
_symmetry_cell_setting	triclinic
loop_
_symmetry_equiv_pos_as_xyz
  x,y,z
_cell_length_a	13.897449
_cell_length_b	13.897448
_cell_length_c	12.759393
_cell_angle_alpha	89.966654
_cell_angle_beta	89.979470
_cell_angle_gamma	90.018972
loop_
_atom_site_label
_atom_site_type_symbol
_atom_site_fract_x
_atom_site_fract_y
_atom_site_fract_z
Zn1	Zn	1.474701	-0.383925	-0.594025
Zn2	Zn	1.974701	0.116075	-0.094025
Zn3	Zn	1.474595	-0.545254	-0.418340
Zn4	Zn	1.974595	-0.045254	0.081660
Zn5	Zn	1.313390	-0.383979	-0.418359
Zn6	Zn	1.813390	0.116021	0.081641
Zn7	Zn	1.313372	-0.545183	-0.593975
Zn8	Zn	1.813372	-0.045183	-0.093975
O9	O	1.394014	-0.464585	-0.506175
O10	O	1.894014	0.035415	-0.006175
O11	O	1.609668	-0.405333	-0.570734
O12	O	2.109668	0.094667	-0.070734
O13	O	1.453175	-0.523913	-0.271321
O14	O	1.953175	-0.023913	0.228679
O15	O	1.334841	-0.248990	-0.441690
O16	O	1.834841	0.251010	0.058310
O17	O	1.609591	-0.523861	-0.441658
O18	O	2.109591	-0.023861	0.058342
O19	O	1.453355	-0.248951	-0.570752
O20	O	1.953355	0.251049	-0.070752
O21	O	1.334738	-0.405424	-0.271335
O22	O	1.834738	0.094576	0.228665
O23	O	1.178406	-0.405356	-0.441641
O24	O	1.678406	0.094644	0.058359
O25	O	1.334808	-0.523740	-0.741003
O26	O	1.834808	-0.023740	-0.241003
O27	O	1.178392	-0.523792	-0.570666
O28	O	1.678392	-0.023792	-0.070666
O29	O	1.453336	-0.405264	-0.741040
O30	O	1.953336	0.094736	-0.241040
O31	O	1.453157	-0.680227	-0.441610
O32	O	1.953157	-0.180227	0.058390
O33	O	1.334706	-0.680174	-0.570648
O34	O	1.834706	-0.180174	-0.070648
C35	C	1.143400	-0.464573	-0.506151
C36	C	1.643400	0.035427	-0.006151
C37	C	1.036186	-0.464590	-0.506166
C38	C	1.536186	0.035410	-0.006166
C39	C	0.839891	-0.464594	-0.506193
C40	C	1.339891	0.035406	-0.006193
C41	C	0.949124	-0.464589	-0.506175
C42	C	1.449124	0.035411	-0.006175
C43	C	1.393944	-0.715200	-0.506144
C44	C	1.893944	-0.215200	-0.006144
C45	C	1.394002	-0.822414	-0.506167
C46	C	1.894002	-0.322414	-0.006167
C47	C	1.394103	-1.018709	-0.506232
C48	C	1.894103	-0.518709	-0.006232
C49	C	1.394044	-0.909476	-0.506199
C50	C	1.894044	-0.409476	-0.006199
C51	C	1.645607	-0.464599	-0.506199
C52	C	2.145607	0.035401	-0.006199
C53	C	1.752821	-0.464605	-0.506210
C54	C	2.252821	0.035395	-0.006210
C55	C	1.394082	-0.464488	-0.780208
C56	C	1.894082	0.035512	-0.280208
C57	C	1.394111	-0.464447	-0.896985
C58	C	1.894111	0.035553	-0.396985
C59	C	1.394111	-0.212992	-0.506228
C60	C	1.894111	0.287008	-0.006228
C61	C	1.394153	-0.105778	-0.506251
C62	C	1.894153	0.394222	-0.006251
C63	C	1.455837	-0.402750	-0.951868
C64	C	1.955837	0.097250	-0.451868
C65	C	1.455860	-0.402716	-1.061592
C66	C	1.955860	0.097284	-0.561592
C67	C	1.332428	-0.526081	-1.061541
C68	C	1.832428	-0.026081	-0.561541
C69	C	1.332401	-0.526111	-0.951819
C70	C	1.832401	-0.026111	-0.451819
C71	C	1.517547	-0.341086	-0.897034
C72	C	2.017547	0.158914	-0.397034
C73	C	1.579278	-0.279386	-0.951917
C74	C	2.079278	0.220614	-0.451917
C75	C	1.579301	-0.279351	-1.061642
C76	C	2.079301	0.220649	-0.561642
C77	C	1.517592	-0.341017	-1.116483
C78	C	2.017592	0.158983	-0.616483
C79	C	1.394003	-0.464613	-0.233207
C80	C	1.894003	0.035387	0.266793
C81	C	1.394161	-0.464382	-0.116431
C82	C	1.894161	0.035618	0.383569
H83	H	1.517537	-0.341110	-0.807692
H84	H	2.017537	0.158890	-0.307692
H85	H	1.629559	-0.229105	-1.106324
H86	H	2.129559	0.270895	-0.606324
H87	H	1.517605	-0.340972	-1.205828
H88	H	2.017605	0.159028	-0.705828
Cl89	Cl	1.656835	-0.201853	-0.882976
Cl90	Cl	2.156835	0.298147	-0.382976
Cl91	Cl	1.254861	-0.603602	-1.130485
Cl92	Cl	1.754861	-0.103602	-0.630485
Cl93	Cl	1.254800	-0.603672	-0.882818
Cl94	Cl	1.754800	-0.103672	-0.382818
