data_functionalizedCrystal
_audit_creation_method	'MofGen! by Chris Wilmer'
_symmetry_space_group_name_H-M	'P1'
_symmetry_Int_Tables_number	1
_symmetry_cell_setting	triclinic
loop_
_symmetry_equiv_pos_as_xyz
  x,y,z
_cell_length_a	12.811457
_cell_length_b	10.654551
_cell_length_c	11.892095
_cell_angle_alpha	93.929772
_cell_angle_beta	91.498327
_cell_angle_gamma	84.263213
loop_
_atom_site_label
_atom_site_type_symbol
_atom_site_fract_x
_atom_site_fract_y
_atom_site_fract_z
O1	O	1.390454	0.173271	0.048548
O2	O	1.087208	0.189023	0.017459
O3	O	1.245803	-0.001568	0.033718
O4	O	1.231859	0.363862	0.032290
O5	O	1.232579	0.014298	0.220370
O6	O	1.073984	0.204889	0.204111
O7	O	1.377231	0.189137	0.235200
Zn8	Zn	1.223508	0.199532	0.249291
Zn9	Zn	1.240931	0.178628	0.003369
O10	O	1.218636	0.379728	0.218941
C11	C	1.041767	0.195587	0.106804
C12	C	0.926067	0.191493	0.094942
C13	C	0.694238	0.201076	0.276163
C14	C	0.585528	0.197229	0.265023
C15	C	0.599935	0.179944	0.061524
C16	C	0.708645	0.183791	0.072664
C17	C	0.755793	0.194359	0.179987
C18	C	0.864504	0.198215	0.191125
C19	C	0.878910	0.180921	-0.012373
C20	C	0.770200	0.177074	-0.023512
C21	C	1.238167	-0.040437	0.126936
C22	C	1.235104	-0.179891	0.126615
C23	C	1.240875	-0.254057	0.024725
C24	C	1.237987	-0.385087	0.024435
C25	C	1.223561	-0.367774	0.227932
C26	C	1.226442	-0.236745	0.228221
C27	C	1.249537	-0.197203	-0.076881
C28	C	1.255309	-0.271369	-0.178778
C29	C	1.252421	-0.402399	-0.179069
C30	C	1.243761	-0.459263	-0.077462
C31	C	1.422672	0.182572	0.145853
C32	C	1.538372	0.186666	0.157707
C33	C	1.226272	0.418596	0.125721
C34	C	1.229335	0.558050	0.126035
N35	N	1.211625	0.213798	0.417127
N36	N	1.252822	0.164352	-0.164466
C37	C	1.335507	0.065009	0.666475
C38	C	1.327209	0.074990	0.783966
C39	C	1.186726	0.243735	0.769602
C40	C	1.195024	0.233754	0.652111
C41	C	1.269418	0.144389	0.600551
C42	C	1.277721	0.134415	0.483059
C43	C	1.137234	0.303153	0.468696
C44	C	1.128935	0.313134	0.586187
H45	H	0.731798	0.168464	-0.110891
H46	H	1.083422	0.367794	0.415008
C47	C	1.104873	0.341999	0.826335
N48	N	1.043215	0.416003	0.869067
C49	C	1.214041	-0.430330	0.339692
N50	N	1.206875	-0.477448	0.423871
C51	C	0.746102	0.212708	0.394217
N52	N	0.785164	0.221468	0.483138
C53	C	0.916365	0.209835	0.309182
N54	N	0.955424	0.218581	0.398105
C55	C	0.517820	0.204630	0.370825
N56	N	0.466823	0.210206	0.450519
H57	H	0.929039	0.175459	-0.090687
H58	H	1.251892	-0.090513	-0.076655
H59	H	1.221720	-0.176354	0.311186
H60	H	1.338299	0.061653	0.441081
H61	H	1.262351	-0.225061	-0.261503
H62	H	1.257111	-0.462781	-0.262040
C63	C	1.240584	-0.603401	-0.077788
N64	N	1.238199	-0.711965	-0.078035
H65	H	1.396089	-0.007747	0.624495
C66	C	1.047098	0.411422	0.642916
N67	N	0.985457	0.485453	0.685642
H68	H	0.561530	0.171319	-0.025853
H69	H	1.381024	0.010349	0.837638
