data_functionalizedCrystal
_audit_creation_method	'MofGen! by Chris Wilmer'
_symmetry_space_group_name_H-M	'P1'
_symmetry_Int_Tables_number	1
_symmetry_cell_setting	triclinic
loop_
_symmetry_equiv_pos_as_xyz
  x,y,z
_cell_length_a	9.130313
_cell_length_b	9.065218
_cell_length_c	9.065218
_cell_angle_alpha	85.015885
_cell_angle_beta	90.000552
_cell_angle_gamma	89.999659
loop_
_atom_site_label
_atom_site_type_symbol
_atom_site_fract_x
_atom_site_fract_y
_atom_site_fract_z
O1	O	0.121797	-1.960393	-0.216350
O2	O	0.121798	-1.531108	-0.234097
O3	O	0.121794	-1.754624	-0.010581
O4	O	0.121800	-1.736877	-0.439866
O5	O	-0.121805	-1.754621	-0.010587
O6	O	-0.121801	-1.531106	-0.234103
O7	O	-0.121802	-1.960390	-0.216356
Cu8	Cu	-0.144044	-1.745748	-0.225230
Cu9	Cu	0.144040	-1.745751	-0.225223
O10	O	-0.121798	-1.736875	-0.439872
C11	C	-0.000001	-1.476120	-0.232394
C12	C	-0.000000	-1.312277	-0.227294
C13	C	-0.000003	-1.752917	0.044403
C14	C	0.000004	-1.747817	0.208245
N15	N	-0.346667	-1.745756	-0.225234
C16	C	-0.423320	-1.844755	-0.126296
C17	C	-0.576657	-1.844751	-0.126278
C18	C	-0.576673	-1.646745	-0.324150
C19	C	-0.423339	-1.646743	-0.324160
C20	C	-0.346648	-1.943768	-0.027370
C21	C	-0.423302	-2.042776	0.071575
C22	C	-0.576638	-2.042772	0.071593
C23	C	-0.653321	-1.943760	-0.027335
N24	N	0.346662	-1.745754	-0.225207
C25	C	0.000000	-2.015378	-0.218059
C26	C	0.000009	-2.179221	-0.223158
C27	C	0.000002	-1.738582	-0.494855
C28	C	0.000004	-1.743681	-0.658698
H29	H	-0.360858	-2.123380	0.152127
C30	C	-0.561294	-1.451016	-0.519731
C31	C	-0.660959	-1.537918	-0.432890
H32	H	-0.613330	-1.383826	-0.586857
H33	H	-0.501496	-1.513134	-0.573673
H34	H	-0.501480	-1.397130	-0.457554
H35	H	-0.720766	-1.591813	-0.495066
H36	H	-0.720782	-1.475792	-0.378944
H37	H	-0.360927	-1.566128	-0.404723
H38	H	-0.221793	-1.943783	-0.027379
H39	H	-0.639048	-2.123378	0.152168
H40	H	-0.778179	-1.943755	-0.027302
