data_functionalizedCrystal
_audit_creation_method	'MofGen! by Chris Wilmer'
_symmetry_space_group_name_H-M	'P1'
_symmetry_Int_Tables_number	1
_symmetry_cell_setting	triclinic
loop_
_symmetry_equiv_pos_as_xyz
  x,y,z
_cell_length_a	10.654550
_cell_length_b	17.666332
_cell_length_c	10.654562
_cell_angle_alpha	89.997414
_cell_angle_beta	95.512517
_cell_angle_gamma	90.012773
loop_
_atom_site_label
_atom_site_type_symbol
_atom_site_fract_x
_atom_site_fract_y
_atom_site_fract_z
O1	O	1.667858	0.063006	-0.176398
O2	O	1.302380	0.062993	-0.193204
O3	O	1.493514	0.063000	-0.002062
O4	O	1.476724	0.062999	-0.367539
O5	O	1.493480	-0.062897	-0.002056
O6	O	1.302346	-0.062903	-0.193198
O7	O	1.667824	-0.062891	-0.176392
Cu8	Cu	1.485082	-0.074392	-0.184794
Cu9	Cu	1.485122	0.074495	-0.184801
O10	O	1.476690	-0.062897	-0.367533
C11	C	1.255565	0.000043	-0.191967
C12	C	1.116122	0.000039	-0.188275
N13	N	1.485063	-0.179112	-0.184788
C14	C	1.036641	0.000050	-0.300816
C15	C	0.905620	0.000063	-0.297339
C16	C	0.933573	0.000057	-0.068771
C17	C	1.064592	0.000039	-0.072249
C18	C	1.020501	0.000056	-0.432778
C19	C	0.889480	0.000069	-0.429301
C20	C	1.561888	-0.218713	-0.261674
C21	C	1.561908	-0.297960	-0.261671
C22	C	1.485080	-0.337604	-0.184796
C23	C	1.408250	-0.297994	-0.107894
C24	C	1.408241	-0.218748	-0.107891
N25	N	1.375046	-0.462047	-0.180408
N26	N	1.375058	-0.537328	-0.180419
C27	C	1.485103	-0.576368	-0.184801
N28	N	1.595137	-0.537284	-0.189196
N29	N	1.595124	-0.461997	-0.189192
C30	C	1.485081	-0.423533	-0.184791
C31	C	1.561956	-0.701898	-0.261687
C32	C	1.561979	-0.781147	-0.261674
C33	C	1.408309	-0.781179	-0.107905
C34	C	1.408298	-0.701932	-0.107910
C35	C	1.485119	-0.662296	-0.184808
C36	C	1.714639	0.000061	-0.177629
C37	C	1.854082	0.000070	-0.181320
C38	C	1.492261	0.000053	0.044738
C39	C	1.488563	0.000058	0.184181
N40	N	1.485151	0.179214	-0.184797
C41	C	1.372550	0.000056	0.235720
C42	C	1.369082	0.000050	0.366742
C43	C	1.597651	0.000051	0.394675
C44	C	1.601117	0.000052	0.263655
C45	C	1.240587	0.000058	0.219595
C46	C	1.237120	0.000052	0.350617
C47	C	1.477940	0.000051	0.585666
C48	C	1.481629	0.000051	0.446222
H49	H	1.129301	0.000019	0.019393
H50	H	0.847764	0.052761	-0.479025
C51	C	0.827744	-0.073341	-0.483206
H52	H	0.739183	-0.070826	-0.478965
H53	H	0.844853	-0.079129	-0.568549
H54	H	0.861096	-0.115355	-0.435345
H55	H	1.689289	0.000046	0.459398
H56	H	1.056174	0.054411	-0.474799
H57	H	0.891601	0.000069	0.025694
H58	H	1.190843	-0.052628	0.177850
H59	H	1.345733	-0.669688	-0.045306
C60	C	1.060118	-0.071115	-0.502506
H61	H	0.987503	-0.100379	-0.528810
H62	H	1.100909	-0.056479	-0.574166
H63	H	1.116371	-0.100403	-0.447546
C64	C	1.323737	-0.341598	-0.023339
H65	H	1.334734	-0.394467	-0.034362
H66	H	1.346320	-0.328614	0.062379
H67	H	1.238007	-0.328623	-0.045883
H68	H	1.195053	-0.054303	0.386246
H69	H	1.624469	-0.330209	-0.324284
C70	C	1.646398	-0.175117	-0.346248
H71	H	1.692163	-0.210057	-0.392031
H72	H	1.595437	-0.144207	-0.403567
H73	H	1.703754	-0.144199	-0.295309
C74	C	1.323720	-0.175185	-0.023322
H75	H	1.277960	-0.210142	0.022460
H76	H	1.374673	-0.144260	0.033998
H77	H	1.266360	-0.144284	-0.074264
C78	C	1.186758	0.073488	0.157919
H79	H	1.191003	0.070988	0.069356
H80	H	1.101420	0.079300	0.175026
H81	H	1.234670	0.115481	0.191312
C82	C	1.646476	-0.658296	-0.346246
H83	H	1.692252	-0.693234	-0.392021
H84	H	1.595522	-0.627386	-0.403573
H85	H	1.703822	-0.627376	-0.295298
H86	H	1.695586	0.000043	0.221698
C87	C	1.646490	-0.824708	-0.346254
H88	H	1.692228	-0.789750	-0.392056
H89	H	1.703850	-0.855614	-0.295333
H90	H	1.595519	-0.855629	-0.403577
C91	C	1.323798	-0.824778	-0.023344
H92	H	1.334800	-0.877646	-0.034362
H93	H	1.346379	-0.811790	0.062372
H94	H	1.238068	-0.811805	-0.045892
H95	H	1.185522	0.052735	0.379983
