data_functionalizedCrystal
_audit_creation_method	'MofGen! by Chris Wilmer'
_symmetry_space_group_name_H-M	'P1'
_symmetry_Int_Tables_number	1
_symmetry_cell_setting	triclinic
loop_
_symmetry_equiv_pos_as_xyz
  x,y,z
_cell_length_a	27.732064
_cell_length_b	27.732025
_cell_length_c	16.053802
_cell_angle_alpha	92.558378
_cell_angle_beta	87.447638
_cell_angle_gamma	82.641446
loop_
_atom_site_label
_atom_site_type_symbol
_atom_site_fract_x
_atom_site_fract_y
_atom_site_fract_z
O1	O	0.642967	0.055511	-0.069256
O2	O	0.502175	0.064247	-0.069286
O3	O	0.576950	-0.010519	-0.069295
O4	O	0.568192	0.130277	-0.069247
O5	O	0.572834	-0.006421	0.069564
O6	O	0.498059	0.068345	0.069573
O7	O	0.638851	0.059609	0.069604
Zn8	Zn	0.567802	0.064628	0.091635
Zn9	Zn	0.573224	0.059228	-0.091318
O10	O	0.564076	0.134375	0.069613
C11	C	0.482110	0.066111	0.000139
C12	C	0.428456	0.065555	0.000126
C13	C	0.051386	0.017588	0.000157
C14	C	0.253047	0.019634	0.000136
O15	O	0.284302	-0.017587	0.000154
N16	N	0.272171	0.063969	0.000147
C17	C	0.240875	0.107796	0.000170
O18	O	0.261768	0.145553	0.000188
C19	C	0.039215	0.105750	0.000197
C20	C	0.020095	0.061412	0.000177
C21	C	0.032265	-0.026746	0.000138
C22	C	-0.018147	-0.027258	0.000138
C23	C	-0.049438	0.016566	0.000158
C24	C	-0.030317	0.060901	0.000177
C25	C	0.007921	0.149577	0.000225
C26	C	-0.042497	0.149061	0.000234
C27	C	-0.061617	0.104723	0.000214
C28	C	-0.112020	0.104213	0.000198
N29	N	-0.131144	0.059878	0.000186
C30	C	-0.099853	0.016054	0.000166
C31	C	0.346750	0.108867	0.000154
C32	C	0.397165	0.109379	0.000146
C33	C	0.409333	0.021216	0.000113
C34	C	0.358918	0.020705	0.000116
C35	C	0.327627	0.064532	0.000142
C36	C	-0.205722	0.014984	0.000167
C37	C	-0.256139	0.014477	0.000164
C38	C	-0.268303	0.102639	0.000201
C39	C	-0.217890	0.103147	0.000200
C40	C	-0.186601	0.059315	0.000185
O41	O	-0.143304	0.141414	0.000189
O42	O	-0.120755	-0.021696	0.000167
C43	C	0.101798	0.018099	0.000156
C44	C	0.120919	0.062434	0.000175
C45	C	0.089628	0.106257	0.000195
C46	C	0.171334	0.062945	0.000167
C47	C	0.202625	0.019122	0.000147
C48	C	0.183502	-0.025213	0.000135
C49	C	0.133090	-0.025724	0.000136
C50	C	0.108752	0.150593	0.000207
C51	C	0.159164	0.151100	0.000205
C52	C	0.190455	0.107276	0.000185
C53	C	0.574710	-0.026477	0.000126
C54	C	0.574162	-0.080134	0.000101
C55	C	0.572508	-0.465532	-0.075543
C56	C	0.574561	-0.263873	-0.075570
O57	O	0.576754	-0.239706	-0.139945
N58	N	0.572574	-0.236418	0.000120
C59	C	0.570077	-0.259381	0.075822
O60	O	0.568439	-0.231402	0.140201
C61	C	0.568027	-0.461039	0.075848
C62	C	0.570009	-0.488491	0.000153
C63	C	0.574490	-0.492984	-0.151232
C64	C	0.573974	-0.543395	-0.151225
C65	C	0.571476	-0.566355	-0.075529
C66	C	0.569493	-0.538903	0.000160
C67	C	0.565534	-0.484002	0.151549
C68	C	0.565023	-0.534420	0.151549
C69	C	0.567005	-0.561872	0.075854
C70	C	0.566479	-0.612273	0.075864
N71	N	0.568466	-0.639728	0.000174
C72	C	0.570964	-0.616769	-0.075522
C73	C	0.571152	-0.153507	0.075804
C74	C	0.571664	-0.103093	0.075797
C75	C	0.576149	-0.107589	-0.075595
C76	C	0.575634	-0.158004	-0.075588
C77	C	0.573139	-0.180963	0.000113
C78	C	0.569880	-0.722636	-0.075501
C79	C	0.569362	-0.773051	-0.075487
C80	C	0.564880	-0.768551	0.075905
C81	C	0.565395	-0.718140	0.075891
C82	C	0.567897	-0.695184	0.000181
O83	O	0.564292	-0.636473	0.140205
O84	O	0.572612	-0.644758	-0.139891
C85	C	0.573024	-0.415121	-0.075551
C86	C	0.571041	-0.387669	0.000138
C87	C	0.568543	-0.410628	0.075834
C88	C	0.571553	-0.337254	0.000132
C89	C	0.574051	-0.314295	-0.075564
C90	C	0.576038	-0.341750	-0.151254
C91	C	0.575522	-0.392162	-0.151247
C92	C	0.566556	-0.383173	0.151524
C93	C	0.567072	-0.332761	0.151511
C94	C	0.569570	-0.309802	0.075815
C95	C	0.658916	0.057745	0.000177
C96	C	0.712570	0.058301	0.000184
C97	C	0.566316	0.150333	0.000190
C98	C	0.566863	0.203989	0.000209
N99	N	0.564104	0.068313	0.216496
N100	N	0.576925	0.055539	-0.216179
C101	C	0.595933	0.036511	0.260186
C102	C	0.593351	0.039093	0.347593
C103	C	0.558943	0.073480	0.391309
C104	C	0.527111	0.105283	0.347613
C105	C	0.529691	0.102699	0.260207
C106	C	0.547673	0.084758	0.652720
C107	C	0.545097	0.087341	0.740131
C108	C	0.611337	0.021150	0.740106
C109	C	0.613915	0.018570	0.652699
C110	C	0.582082	0.050372	0.609010
N111	N	0.556304	0.076121	0.480653
N112	N	0.584719	0.047728	0.519668
H113	H	0.057738	-0.062435	0.000124
H114	H	0.578180	-0.088887	-0.137230
H115	H	0.023479	0.185681	0.000238
H116	H	-0.202322	0.139251	0.000215
H117	H	0.434819	-0.014467	0.000094
H118	H	0.571918	-0.703952	-0.137151
H119	H	0.083279	0.186280	0.000224
H120	H	0.499092	0.133280	0.383211
H121	H	0.174727	0.187208	0.000216
H122	H	0.521754	0.110653	0.617155
H123	H	-0.271704	-0.021630	0.000146
H124	H	0.503772	0.128594	0.224635
H125	H	-0.293789	0.138319	0.000213
H126	H	0.563925	-0.461659	0.213188
H127	H	0.564523	-0.401861	0.213167
H128	H	0.575592	-0.565743	-0.212864
H129	H	-0.067972	0.184751	0.000260
H130	H	-0.180251	-0.020707	0.000155
H131	H	0.562992	-0.553110	0.213196
H132	H	0.637253	-0.004742	0.775685
H133	H	0.117527	-0.061829	0.000120
H134	H	-0.033709	-0.063362	0.000125
H135	H	0.343354	-0.015399	0.000100
H136	H	0.412728	0.145483	0.000151
H137	H	0.577247	-0.180352	-0.137226
H138	H	0.619268	0.013197	0.383165
H139	H	0.576526	-0.474297	-0.212877
H140	H	0.570041	-0.080744	0.137436
H141	H	0.321277	0.144558	0.000175
H142	H	0.641933	-0.009430	0.617107
H143	H	0.577136	-0.414509	-0.212886
H144	H	0.208988	-0.060896	0.000114
H145	H	0.517076	0.115345	0.775721
H146	H	0.570974	-0.795401	-0.137130
H147	H	0.623953	0.008512	0.224599
H148	H	0.569121	-0.172195	0.137452
H149	H	0.563762	-0.695785	0.137528
H150	H	0.562844	-0.787254	0.137535
H151	H	0.578069	-0.323048	-0.212889
H152	H	0.565453	-0.310413	0.213156
