data_functionalizedCrystal
_audit_creation_method	'MofGen! by Chris Wilmer'
_symmetry_space_group_name_H-M	'P1'
_symmetry_Int_Tables_number	1
_symmetry_cell_setting	triclinic
loop_
_symmetry_equiv_pos_as_xyz
  x,y,z
_cell_length_a	14.519731
_cell_length_b	27.731996
_cell_length_c	13.596369
_cell_angle_alpha	89.988048
_cell_angle_beta	89.994584
_cell_angle_gamma	83.155120
loop_
_atom_site_label
_atom_site_type_symbol
_atom_site_fract_x
_atom_site_fract_y
_atom_site_fract_z
O1	O	1.222730	0.063413	-0.081807
O2	O	1.722730	0.563413	0.418193
O3	O	0.954124	0.070864	-0.081810
O4	O	1.454124	0.570864	0.418190
O5	O	1.096795	-0.003220	-0.081787
O6	O	1.596795	0.496780	0.418213
O7	O	1.080060	0.137496	-0.081830
O8	O	1.580060	0.637496	0.418170
O9	O	1.096781	-0.003224	0.081796
O10	O	1.596781	0.496776	0.581796
O11	O	0.954110	0.070860	0.081773
O12	O	1.454110	0.570860	0.581773
O13	O	1.222716	0.063409	0.081776
O14	O	1.722716	0.563409	0.581776
Zn15	Zn	1.088411	0.067134	0.107747
Zn16	Zn	1.588411	0.567134	0.607747
Zn17	Zn	1.088429	0.067139	-0.107781
Zn18	Zn	1.588429	0.567139	0.392219
O19	O	1.080046	0.137492	0.081753
O20	O	1.580046	0.637492	0.581753
C21	C	0.919764	0.070513	-0.000019
C22	C	1.419764	0.570513	0.499981
C23	C	0.817402	0.069466	-0.000019
C24	C	1.317402	0.569466	0.499981
C25	C	0.734273	0.068616	-0.000023
C26	C	1.234273	0.568616	0.499977
C27	C	0.629983	0.067554	-0.000023
C28	C	1.129983	0.567554	0.499977
C29	C	0.546859	0.066711	-0.000022
C30	C	1.046859	0.566711	0.499978
C31	C	0.442562	0.065649	-0.000024
C32	C	0.942562	0.565649	0.499976
C33	C	1.096444	-0.021231	0.000008
C34	C	1.596444	0.478769	0.500008
C35	C	1.095408	-0.074892	0.000018
C36	C	1.595408	0.425108	0.500018
C37	C	1.088901	-0.407638	-0.089199
C38	C	1.588901	0.092362	0.410801
C39	C	1.084969	-0.609315	-0.089217
C40	C	1.584969	-0.109315	0.410783
O41	O	1.084428	-0.635386	-0.165052
O42	O	1.584428	-0.135386	0.334948
N43	N	1.084473	-0.634537	-0.000049
N44	N	1.584473	-0.134537	0.499951
C45	C	1.084954	-0.609335	0.089130
C46	C	1.584954	-0.109335	0.589130
O47	O	1.084433	-0.635415	0.164973
O48	O	1.584433	-0.135415	0.664973
C49	C	1.088880	-0.407659	0.089147
C50	C	1.588880	0.092341	0.589147
C51	C	1.089385	-0.382440	-0.000027
C52	C	1.589385	0.117560	0.499973
C53	C	1.089406	-0.382419	-0.178366
C54	C	1.589406	0.117581	0.321634
C55	C	1.090394	-0.332003	-0.178361
C56	C	1.590394	0.167997	0.321639
C57	C	1.090877	-0.306806	-0.089189
C58	C	1.590877	0.193194	0.410811
C59	C	1.090373	-0.332024	-0.000022
C60	C	1.590373	0.167976	0.499978
C61	C	1.089354	-0.382458	0.178324
C62	C	1.589354	0.117542	0.678324
C63	C	1.090333	-0.332036	0.178321
C64	C	1.590333	0.167964	0.678321
C65	C	1.090838	-0.306817	0.089147
C66	C	1.590838	0.193183	0.589147
C67	C	1.091845	-0.256411	0.089155
C68	C	1.591845	0.243589	0.589155
N69	N	1.092341	-0.231189	-0.000013
N70	N	1.592341	0.268811	0.499987
C71	C	1.091857	-0.256387	-0.089185
C72	C	1.591857	0.243613	0.410815
C73	C	1.082895	-0.715219	0.089115
C74	C	1.582895	-0.215219	0.589115
C75	C	1.081916	-0.765638	0.089112
C76	C	1.581916	-0.265638	0.589112
C77	C	1.081929	-0.765614	-0.089236
C78	C	1.581929	-0.265614	0.410764
C79	C	1.082915	-0.715194	-0.089231
C80	C	1.582915	-0.215194	0.410769
C81	C	1.083391	-0.689997	-0.000053
C82	C	1.583391	-0.189997	0.499947
C83	C	1.093933	-0.150510	-0.089167
C84	C	1.593933	0.349490	0.410833
C85	C	1.094925	-0.100090	-0.089154
C86	C	1.594925	0.399910	0.410846
C87	C	1.094906	-0.100118	0.089193
C88	C	1.594906	0.399882	0.589193
C89	C	1.093919	-0.150534	0.089180
C90	C	1.593919	0.349466	0.589180
C91	C	1.093429	-0.175728	-0.000008
C92	C	1.593429	0.324272	0.499992
O93	O	1.092376	-0.230308	0.164951
O94	O	1.592376	0.269692	0.664951
O95	O	1.092358	-0.230297	-0.165016
O96	O	1.592358	0.269703	0.334984
C97	C	1.087913	-0.458054	-0.089205
C98	C	1.587913	0.041946	0.410795
C99	C	1.087409	-0.483272	-0.000038
C100	C	1.587409	0.016728	0.499962
C101	C	1.087893	-0.458075	0.089134
C102	C	1.587893	0.041925	0.589134
C103	C	1.086429	-0.533691	-0.000042
C104	C	1.586429	-0.033691	0.499958
C105	C	1.085946	-0.558889	-0.089214
C106	C	1.585946	-0.058889	0.410786
C107	C	1.086442	-0.533667	-0.178382
C108	C	1.586442	-0.033667	0.321618
C109	C	1.087430	-0.483251	-0.178377
C110	C	1.587430	0.016749	0.321623
C111	C	1.087397	-0.483296	0.178302
C112	C	1.587397	0.016704	0.678302
C113	C	1.086410	-0.533712	0.178290
C114	C	1.586410	-0.033712	0.678290
C115	C	1.085926	-0.558910	0.089118
C116	C	1.585926	-0.058910	0.589118
C117	C	1.257077	0.063760	-0.000018
C118	C	1.757077	0.563760	0.499982
C119	C	1.359438	0.064806	-0.000024
C120	C	1.859438	0.564806	0.499976
C121	C	1.080397	0.155503	-0.000044
C122	C	1.580397	0.655503	0.499956
C123	C	1.081432	0.209165	-0.000060
C124	C	1.581432	0.709165	0.499940
N125	N	1.088405	0.067130	0.254839
N126	N	1.588405	0.567130	0.754839
N127	N	1.088443	0.067139	-0.254873
N128	N	1.588443	0.567139	0.245127
C129	C	1.088428	0.067139	0.656130
C130	C	1.588428	0.567139	1.156130
C131	C	1.088419	0.067138	0.544478
C132	C	1.588419	0.567138	1.044478
C133	C	1.088417	0.067135	0.455488
C134	C	1.588417	0.567135	0.955488
C135	C	1.088407	0.067133	0.343829
C136	C	1.588407	0.567133	0.843829
H137	H	1.093529	-0.171017	-0.161793
H138	H	1.593529	0.328983	0.338207
N139	N	1.095409	-0.074367	0.180267
N140	N	1.595409	0.425633	0.680267
N141	N	1.096288	-0.029351	0.180247
N142	N	1.596288	0.470649	0.680247
H143	H	1.096639	-0.011162	0.244569
H144	H	1.596639	0.488838	0.744569
N145	N	1.083405	-0.689435	-0.180320
N146	N	1.583405	-0.189435	0.319680
N147	N	1.018919	-0.656903	-0.200223
N148	N	1.518919	-0.156903	0.299777
H149	H	1.019261	-0.638713	-0.264558
H150	H	1.519261	-0.138713	0.235442
H151	H	1.088944	-0.402982	0.250940
H152	H	1.588944	0.097018	0.750940
N153	N	1.090810	-0.306305	0.269426
N154	N	1.590810	0.193695	0.769426
N155	N	1.090354	-0.328831	0.349031
N156	N	1.590354	0.171169	0.849031
H157	H	1.090691	-0.310661	0.413375
H158	H	1.590691	0.189339	0.913375
N159	N	1.081420	-0.791388	0.180210
N160	N	1.581420	-0.291388	0.680210
N161	N	1.081852	-0.768879	0.259816
N162	N	1.581852	-0.268879	0.759816
H163	H	1.081499	-0.787063	0.324159
H164	H	1.581499	-0.287063	0.824159
H165	H	1.093516	-0.171068	0.161793
H166	H	1.593516	0.328932	0.661793
H167	H	1.087841	-0.462723	-0.250991
H168	H	1.587841	0.037277	0.249009
N169	N	1.085960	-0.559419	-0.269461
N170	N	1.585960	-0.059419	0.230539
N171	N	1.085083	-0.604436	-0.269439
N172	N	1.585083	-0.104436	0.230561
H173	H	1.084741	-0.622626	-0.333759
H174	H	1.584741	-0.122626	0.166241
H175	H	1.081536	-0.786138	-0.161843
H176	H	1.581536	-0.286138	0.338157
H177	H	1.090802	-0.311475	-0.250976
H178	H	1.590802	0.188525	0.249024
H179	H	1.086006	-0.554241	0.250912
H180	H	1.586006	-0.054241	0.750912
N181	N	1.083381	-0.689492	0.180224
N182	N	1.583381	-0.189492	0.680224
N183	N	1.082939	-0.712023	0.259824
N184	N	1.582939	-0.212023	0.759824
H185	H	1.083285	-0.693856	0.324172
H186	H	1.583285	-0.193856	0.824172
H187	H	1.087792	-0.462786	0.250919
H188	H	1.587792	0.037214	0.750919
H189	H	1.089008	-0.402929	-0.250985
H190	H	1.589008	0.097071	0.249015
N191	N	1.095448	-0.074338	-0.180257
N192	N	1.595448	0.425662	0.319743
N193	N	1.095016	-0.096846	-0.259866
N194	N	1.595016	0.403154	0.240134
H195	H	1.095385	-0.078661	-0.324206
H196	H	1.595385	0.421339	0.175794
