data_functionalizedCrystal
_audit_creation_method	'MofGen! by Chris Wilmer'
_symmetry_space_group_name_H-M	'P1'
_symmetry_Int_Tables_number	1
_symmetry_cell_setting	triclinic
loop_
_symmetry_equiv_pos_as_xyz
  x,y,z
_cell_length_a	19.188930
_cell_length_b	27.732048
_cell_length_c	17.666332
_cell_angle_alpha	89.988553
_cell_angle_beta	89.976766
_cell_angle_gamma	82.893716
loop_
_atom_site_label
_atom_site_type_symbol
_atom_site_fract_x
_atom_site_fract_y
_atom_site_fract_z
O1	O	0.925765	0.060348	-0.063200
O2	O	1.425765	0.560348	0.436800
O3	O	0.722402	0.068472	-0.063149
O4	O	1.222402	0.568472	0.436851
O5	O	0.830399	-0.005968	-0.063161
O6	O	1.330399	0.494032	0.436839
O7	O	0.817767	0.134787	-0.063187
O8	O	1.317767	0.634787	0.436813
O9	O	0.830380	-0.005971	0.062735
O10	O	1.330380	0.494029	0.562735
O11	O	0.722383	0.068468	0.062748
O12	O	1.222383	0.568468	0.562748
O13	O	0.925746	0.060344	0.062697
O14	O	1.425746	0.560344	0.562697
Cu15	Cu	0.824063	0.064406	0.074218
Cu16	Cu	1.324063	0.564406	0.574218
Cu17	Cu	0.824085	0.064410	-0.074670
Cu18	Cu	1.324085	0.564410	0.425330
O19	O	0.817748	0.134783	0.062710
O20	O	1.317748	0.634783	0.562710
C21	C	0.696383	0.068207	-0.000194
C22	C	1.196383	0.568207	0.499806
C23	C	0.618883	0.067417	-0.000174
C24	C	1.118883	0.567417	0.499826
C25	C	0.573681	0.111096	-0.000194
C26	C	1.073681	0.611096	0.499806
C27	C	0.500862	0.110354	-0.000202
C28	C	1.000862	0.610354	0.499798
C29	C	0.473249	0.065931	-0.000205
C30	C	0.973249	0.565931	0.499795
C31	C	0.518461	0.022246	-0.000181
C32	C	1.018461	0.522246	0.499819
C33	C	0.591278	0.022990	-0.000165
C34	C	1.091278	0.522990	0.499835
N35	N	0.365491	0.031976	-0.043078
N36	N	0.865491	0.531976	0.456922
N37	N	0.296317	0.031273	-0.043094
N38	N	0.796317	0.531273	0.456906
C39	C	0.253854	0.063689	-0.000251
C40	C	0.753854	0.563689	0.499749
N41	N	0.283177	0.096841	0.042600
N42	N	0.783177	0.596841	0.542600
N43	N	0.352357	0.097546	0.042613
N44	N	0.852357	0.597546	0.542613
C45	C	0.394291	0.065120	-0.000222
C46	C	0.894291	0.565120	0.499778
C47	C	0.129692	0.106566	-0.000279
C48	C	0.629692	0.606566	0.499721
C49	C	0.056872	0.105822	-0.000282
C50	C	0.556872	0.605822	0.499718
C51	C	0.074473	0.017714	-0.000269
C52	C	0.574473	0.517714	0.499731
C53	C	0.147292	0.018459	-0.000258
C54	C	0.647292	0.518459	0.499742
C55	C	0.174897	0.062886	-0.000267
C56	C	0.674897	0.562886	0.499733
C57	C	0.830125	-0.023977	-0.000211
C58	C	1.330125	0.476023	0.499789
C59	C	0.829326	-0.077635	-0.000204
C60	C	1.329326	0.422365	0.499796
C61	C	0.888119	-0.416270	-0.000258
C62	C	1.388119	0.083730	0.499742
C63	C	0.885157	-0.617939	-0.000268
C64	C	1.385157	-0.117939	0.499732
O65	O	0.938918	-0.649030	-0.000314
O66	O	1.438918	-0.149030	0.499686
N67	N	0.821118	-0.637258	-0.000251
N68	N	1.321118	-0.137258	0.499749
C69	C	0.757816	-0.606157	-0.000237
C70	C	1.257816	-0.106157	0.499763
O71	O	0.703280	-0.627217	-0.000231
O72	O	1.203280	-0.127217	0.499769
C73	C	0.760780	-0.404489	-0.000233
C74	C	1.260780	0.095511	0.499767
C75	C	0.824822	-0.385173	-0.000242
C76	C	1.324822	0.114827	0.499758
C77	C	0.952156	-0.396953	-0.000268
C78	C	1.452156	0.103047	0.499732
C79	C	0.952896	-0.346539	-0.000261
C80	C	1.452896	0.153461	0.499739
C81	C	0.889599	-0.315441	-0.000245
C82	C	1.389599	0.184559	0.499755
C83	C	0.825562	-0.334759	-0.000235
C84	C	1.325562	0.165241	0.499765
C85	C	0.697478	-0.373389	-0.000224
C86	C	1.197478	0.126611	0.499776
C87	C	0.698225	-0.322969	-0.000225
C88	C	1.198225	0.177031	0.499775
C89	C	0.762267	-0.303653	-0.000234
C90	C	1.262267	0.196347	0.499766
C91	C	0.763005	-0.253247	-0.000212
C92	C	1.263005	0.246753	0.499788
N93	N	0.827043	-0.233928	-0.000229
N94	N	1.327043	0.266072	0.499771
C95	C	0.890340	-0.265025	-0.000245
C96	C	1.390340	0.234975	0.499755
C97	C	0.756265	-0.712036	-0.000238
C98	C	1.256265	-0.212036	0.499762
C99	C	0.755524	-0.762452	-0.000238
C100	C	1.255524	-0.262452	0.499762
C101	C	0.882865	-0.774231	-0.000270
C102	C	1.382865	-0.274231	0.499730
C103	C	0.883605	-0.723813	-0.000265
C104	C	1.383605	-0.223813	0.499735
C105	C	0.820303	-0.692716	-0.000254
C106	C	1.320303	-0.192716	0.499746
C107	C	0.891889	-0.159151	-0.000231
C108	C	1.391889	0.340849	0.499769
C109	C	0.892623	-0.108732	-0.000221
C110	C	1.392623	0.391268	0.499779
C111	C	0.765283	-0.096958	-0.000193
C112	C	1.265283	0.403042	0.499807
C113	C	0.764549	-0.147373	-0.000198
C114	C	1.264549	0.352627	0.499802
C115	C	0.827857	-0.178468	-0.000220
C116	C	1.327857	0.321532	0.499780
O117	O	0.709272	-0.222127	-0.000174
O118	O	1.209272	0.277873	0.499826
O119	O	0.944868	-0.243956	-0.000268
O120	O	1.444868	0.256044	0.499732
C121	C	0.887379	-0.466684	-0.000265
C122	C	1.387379	0.033316	0.499735
C123	C	0.823342	-0.486001	-0.000255
C124	C	1.323342	0.013999	0.499745
C125	C	0.760045	-0.454904	-0.000238
C126	C	1.260045	0.045096	0.499762
C127	C	0.822601	-0.536418	-0.000254
C128	C	1.322601	-0.036418	0.499746
C129	C	0.885898	-0.567515	-0.000271
C130	C	1.385898	-0.067515	0.499729
C131	C	0.949936	-0.548195	-0.000288
C132	C	1.449936	-0.048195	0.499712
C133	C	0.950676	-0.497781	-0.000281
C134	C	1.450676	0.002219	0.499719
C135	C	0.696007	-0.474223	-0.000222
C136	C	1.196007	0.025777	0.499778
C137	C	0.695272	-0.524638	-0.000227
C138	C	1.195272	-0.024638	0.499773
C139	C	0.758569	-0.555735	-0.000244
C140	C	1.258569	-0.055735	0.499756
C141	C	0.951765	0.060609	-0.000260
C142	C	1.451765	0.560609	0.499740
C143	C	1.029264	0.061399	-0.000285
C144	C	1.529264	0.561399	0.499715
C145	C	0.818023	0.152793	-0.000243
C146	C	1.318023	0.652793	0.499757
C147	C	0.818821	0.206450	-0.000254
C148	C	1.318821	0.706450	0.499746
N149	N	0.824052	0.064402	0.178937
N150	N	1.324052	0.564402	0.678937
N151	N	0.824101	0.064410	-0.179389
N152	N	1.324101	0.564410	0.320611
C153	C	0.871889	0.031456	0.218541
C154	C	1.371889	0.531456	0.718541
C155	C	0.871893	0.031454	0.297789
C156	C	1.371893	0.531454	0.797789
C157	C	0.824067	0.064406	0.337429
C158	C	1.324067	0.564406	0.837429
C159	C	0.776221	0.097354	0.297816
C160	C	1.276221	0.597354	0.797816
C161	C	0.776214	0.097352	0.218570
C162	C	1.276214	0.597352	0.718570
N163	N	0.814718	0.107196	0.461842
N164	N	1.314718	0.607196	0.961842
N165	N	0.814729	0.107196	0.537122
N166	N	1.314729	0.607196	1.037122
C167	C	0.824085	0.064412	0.576193
C168	C	1.324085	0.564412	1.076193
N169	N	0.833444	0.021627	0.537140
N170	N	1.333444	0.521627	1.037140
N171	N	0.833436	0.021628	0.461853
N172	N	1.333436	0.521628	0.961853
C173	C	0.824069	0.064411	0.423359
C174	C	1.324069	0.564411	0.923359
C175	C	0.871929	0.031462	0.701727
C176	C	1.371929	0.531462	1.201727
C177	C	0.871928	0.031459	0.780976
C178	C	1.371928	0.531459	1.280976
C179	C	0.776260	0.097363	0.781001
C180	C	1.276260	0.597363	1.281001
C181	C	0.776257	0.097361	0.701754
C182	C	1.276257	0.597361	1.201754
C183	C	0.824096	0.064411	0.662121
C184	C	1.324096	0.564411	1.162121
H185	H	0.020068	0.141392	-0.000294
H186	H	0.520068	0.641392	0.499706
O187	O	0.923492	-0.004080	0.340518
O188	O	1.423492	0.495920	0.840518
H189	H	0.957197	0.016218	0.376598
H190	H	1.457197	0.516218	0.876598
O191	O	0.724610	0.132886	0.175852
O192	O	1.224610	0.632886	0.675852
H193	H	0.732636	0.127346	0.114089
H194	H	1.232636	0.627346	0.614089
O195	O	0.923513	-0.004081	0.658971
O196	O	1.423513	0.495919	1.158971
H197	H	0.956770	-0.026997	0.699828
H198	H	1.456770	0.473003	1.199828
O199	O	0.626194	-0.545471	-0.000212
O200	O	1.126194	-0.045471	0.499788
H201	H	0.595820	-0.532961	-0.051522
H202	H	1.095820	-0.032961	0.448478
H203	H	0.943441	-0.184464	-0.000251
H204	H	1.443441	0.315536	0.499749
O205	O	0.196053	-0.028652	-0.000243
O206	O	0.696053	0.471348	0.499757
H207	H	0.164621	-0.059668	-0.000252
H208	H	0.664621	0.440332	0.499748
H209	H	0.737280	0.124183	0.330095
H210	H	1.237280	0.624183	0.830095
H211	H	0.910880	0.004628	0.813222
H212	H	1.410880	0.504628	1.313222
H213	H	1.005046	-0.330816	-0.000272
H214	H	1.505046	0.169184	0.499728
H215	H	0.737307	0.124191	0.669506
H216	H	1.237307	0.624191	1.169506
O217	O	0.695472	-0.168206	-0.000180
O218	O	1.195472	0.331794	0.499820
H219	H	0.692077	-0.190900	0.051133
H220	H	1.192077	0.309100	0.551133
H221	H	0.737317	0.124191	0.813276
H222	H	1.237317	0.624191	1.313276
H223	H	0.703375	-0.778175	-0.000217
H224	H	1.203375	-0.278175	0.499783
H225	H	1.003703	-0.422268	-0.000284
H226	H	1.503703	0.077732	0.499716
H227	H	0.596152	0.147272	-0.000202
H228	H	1.096152	0.647272	0.499798
H229	H	0.464051	0.145923	-0.000216
H230	H	0.964051	0.645923	0.499784
H231	H	0.645328	-0.389107	-0.000221
H232	H	1.145328	0.110893	0.499779
O233	O	0.044705	-0.030203	-0.000268
O234	O	0.544705	0.469797	0.499732
H235	H	0.011982	-0.032652	-0.051590
H236	H	0.511982	0.467348	0.448410
O237	O	0.488685	-0.025669	-0.000185
O238	O	0.988685	0.474331	0.499815
H239	H	0.430456	-0.018848	-0.000207
H240	H	0.930456	0.481152	0.499793
O241	O	0.640040	-0.024122	-0.000148
O242	O	1.140040	0.475878	0.499852
H243	H	0.608609	-0.055139	-0.000154
H244	H	1.108609	0.444861	0.499846
H245	H	0.152169	0.142741	-0.000275
H246	H	0.652169	0.642741	0.499725
O247	O	0.687986	-0.678497	-0.000211
O248	O	1.187986	-0.178497	0.499789
H249	H	0.643338	-0.700407	-0.000188
H250	H	1.143338	-0.200407	0.499812
O251	O	0.627733	-0.440686	-0.000201
O252	O	1.127733	0.059314	0.499799
H253	H	0.625020	-0.417442	0.051115
H254	H	1.125020	0.082558	0.551115
O255	O	0.961699	-0.087896	-0.000242
O256	O	1.461699	0.412104	0.499758
H257	H	1.005588	-0.117993	-0.000266
H258	H	1.505588	0.382007	0.499734
H259	H	0.935754	-0.708089	-0.000273
H260	H	1.435754	-0.208089	0.499727
O261	O	0.951138	-0.807775	-0.000293
O262	O	1.451138	-0.307775	0.499707
H263	H	0.939857	-0.846077	-0.000298
H264	H	1.439857	-0.346077	0.499702
H265	H	0.646676	-0.297652	-0.000217
H266	H	1.146676	0.202348	0.499783
H267	H	0.713749	-0.071630	-0.000177
H268	H	1.213749	0.428370	0.499823
H269	H	1.002826	-0.482059	-0.000289
H270	H	1.502826	0.017941	0.499711
O271	O	1.018209	-0.581740	-0.000305
O272	O	1.518209	-0.081740	0.499695
H273	H	1.006928	-0.620042	-0.000312
H274	H	1.506928	-0.120042	0.499688
O275	O	0.923474	-0.004087	0.175793
O276	O	1.423474	0.495913	0.675793
H277	H	0.956734	-0.027000	0.216652
H278	H	1.456734	0.473000	0.716652
