data_functionalizedCrystal
_audit_creation_method	'MofGen! by Chris Wilmer'
_symmetry_space_group_name_H-M	'P1'
_symmetry_Int_Tables_number	1
_symmetry_cell_setting	triclinic
loop_
_symmetry_equiv_pos_as_xyz
  x,y,z
_cell_length_a	13.897449
_cell_length_b	16.120444
_cell_length_c	16.120256
_cell_angle_alpha	84.383140
_cell_angle_beta	87.123251
_cell_angle_gamma	92.927498
loop_
_atom_site_label
_atom_site_type_symbol
_atom_site_fract_x
_atom_site_fract_y
_atom_site_fract_z
Zn1	Zn	1.424974	-0.356749	0.489495
Zn2	Zn	1.674974	-0.106749	0.739495
Zn3	Zn	1.924974	0.143251	0.989495
Zn4	Zn	2.174974	0.393251	1.239495
Zn5	Zn	1.424850	-0.489435	0.356806
Zn6	Zn	1.674850	-0.239435	0.606806
Zn7	Zn	1.924850	0.010565	0.856806
Zn8	Zn	2.174850	0.260565	1.106806
Zn9	Zn	1.272283	-0.349682	0.349736
Zn10	Zn	1.522283	-0.099682	0.599736
Zn11	Zn	1.772283	0.150318	0.849736
Zn12	Zn	2.022283	0.400318	1.099736
Zn13	Zn	1.255009	-0.496482	0.496526
Zn14	Zn	1.505009	-0.246482	0.746526
Zn15	Zn	1.755009	0.003518	0.996526
Zn16	Zn	2.005009	0.253518	1.246526
O17	O	1.344279	-0.423087	0.423141
O18	O	1.594279	-0.173087	0.673141
O19	O	1.844279	0.076913	0.923141
O20	O	2.094279	0.326913	1.173141
O21	O	1.559938	-0.374358	0.471910
O22	O	1.809938	-0.124358	0.721910
O23	O	2.059938	0.125642	0.971910
O24	O	2.309938	0.375642	1.221910
O25	O	1.411789	-0.464990	0.238906
O26	O	1.661789	-0.214990	0.488906
O27	O	1.911789	0.035010	0.738906
O28	O	2.161789	0.285010	0.988906
O29	O	1.299819	-0.233653	0.362374
O30	O	1.549819	0.016347	0.612374
O31	O	1.799819	0.266347	0.862374
O32	O	2.049819	0.516347	1.112374
O33	O	1.559846	-0.471842	0.374424
O34	O	1.809846	-0.221842	0.624424
O35	O	2.059846	0.028158	0.874424
O36	O	2.309846	0.278158	1.124424
O37	O	1.412000	-0.238845	0.465054
O38	O	1.662000	0.011155	0.715054
O39	O	1.912000	0.261155	0.965054
O40	O	2.162000	0.511155	1.215054
O41	O	1.299699	-0.362314	0.233712
O42	O	1.549699	-0.112314	0.483712
O43	O	1.799699	0.137686	0.733712
O44	O	2.049699	0.387686	0.983712
O45	O	1.135012	-0.369147	0.369192
O46	O	1.385012	-0.119147	0.619192
O47	O	1.635012	0.130853	0.869192
O48	O	1.885012	0.380853	1.119192
O49	O	1.270378	-0.483853	0.612555
O50	O	1.520378	-0.233853	0.862555
O51	O	1.770378	0.016147	1.112555
O52	O	2.020378	0.266147	1.362555
O53	O	1.122321	-0.477001	0.477037
O54	O	1.372321	-0.227001	0.727037
O55	O	1.622321	0.022999	0.977037
O56	O	1.872321	0.272999	1.227037
O57	O	1.395250	-0.381191	0.607390
O58	O	1.645250	-0.131191	0.857390
O59	O	1.895250	0.118809	1.107390
O60	O	2.145250	0.368809	1.357390
O61	O	1.395039	-0.607336	0.381241
O62	O	1.645039	-0.357336	0.631241
O63	O	1.895039	-0.107336	0.881241
O64	O	2.145039	0.142664	1.131241
O65	O	1.270258	-0.612514	0.483893
O66	O	1.520258	-0.362514	0.733893
O67	O	1.770258	-0.112514	0.983893
O68	O	2.020258	0.137486	1.233893
C69	C	1.093667	-0.423073	0.423111
C70	C	1.343667	-0.173073	0.673111
C71	C	1.593667	0.076927	0.923111
C72	C	1.843667	0.326927	1.173111
C73	C	0.986452	-0.423088	0.423119
C74	C	1.236452	-0.173088	0.673119
C75	C	1.486452	0.076912	0.923119
C76	C	1.736452	0.326912	1.173119
C77	C	0.899381	-0.423091	0.423133
C78	C	1.149381	-0.173091	0.673133
C79	C	1.399381	0.076909	0.923133
C80	C	1.649381	0.326909	1.173133
C81	C	0.790147	-0.423098	0.423159
C82	C	1.040147	-0.173098	0.673159
C83	C	1.290147	0.076902	0.923159
C84	C	1.540147	0.326902	1.173159
C85	C	1.330786	-0.640254	0.434115
C86	C	1.580786	-0.390254	0.684115
C87	C	1.830786	-0.140254	0.934115
C88	C	2.080786	0.109746	1.184115
C89	C	1.325099	-0.733160	0.438838
C90	C	1.575099	-0.483160	0.688838
C91	C	1.825099	-0.233160	0.938838
C92	C	2.075099	0.016840	1.188838
C93	C	1.374001	-0.942068	0.398820
C94	C	1.624001	-0.692068	0.648820
C95	C	1.874001	-0.442068	0.898820
C96	C	2.124001	-0.192068	1.148820
C97	C	1.314735	-0.903255	0.447470
C98	C	1.564735	-0.653255	0.697470
C99	C	1.814735	-0.403255	0.947470
C100	C	2.064735	-0.153255	1.197470
C101	C	1.320504	-0.808605	0.442666
C102	C	1.570504	-0.558605	0.692666
C103	C	1.820504	-0.308605	0.942666
C104	C	2.070504	-0.058605	1.192666
C105	C	1.368234	-1.036726	0.403623
C106	C	1.618234	-0.786726	0.653623
C107	C	1.868234	-0.536726	0.903623
C108	C	2.118234	-0.286726	1.153623
C109	C	1.595869	-0.423102	0.423171
C110	C	1.845869	-0.173102	0.673171
C111	C	2.095869	0.076898	0.923171
C112	C	2.345869	0.326898	1.173171
C113	C	1.703082	-0.423108	0.423184
C114	C	1.953082	-0.173108	0.673184
C115	C	2.203082	0.076892	0.923184
C116	C	2.453082	0.326892	1.173184
C117	C	1.330901	-0.434097	0.641148
C118	C	1.580901	-0.184097	0.891148
C119	C	1.830901	0.065903	1.141148
C120	C	2.080901	0.315903	1.391148
C121	C	1.325200	-0.438788	0.734049
C122	C	1.575200	-0.188788	0.984049
C123	C	1.825200	0.061212	1.234049
C124	C	2.075200	0.311212	1.484049
C125	C	1.357851	-0.205073	0.412141
C126	C	1.607851	0.044927	0.662141
C127	C	1.857851	0.294927	0.912141
C128	C	2.107851	0.544927	1.162141
C129	C	1.363634	-0.112169	0.407454
C130	C	1.613634	0.137831	0.657454
C131	C	1.863634	0.387831	0.907454
C132	C	2.113634	0.637831	1.157454
C133	C	1.357664	-0.412060	0.205979
C134	C	1.607664	-0.162060	0.455979
C135	C	1.857664	0.087940	0.705979
C136	C	2.107664	0.337940	0.955979
C137	C	1.363566	-0.407133	0.113066
C138	C	1.613566	-0.157133	0.363066
C139	C	1.863566	0.092867	0.613066
C140	C	2.113566	0.342867	0.863066
C141	C	1.374008	-0.398599	0.942976
C142	C	1.624008	-0.148599	1.192976
C143	C	1.874008	0.101401	1.442976
C144	C	2.124008	0.351401	1.692976
C145	C	1.314762	-0.447319	0.904134
C146	C	1.564762	-0.197319	1.154134
C147	C	1.814762	0.052681	1.404134
C148	C	2.064762	0.302681	1.654134
C149	C	1.320572	-0.442571	0.809490
C150	C	1.570572	-0.192571	1.059490
C151	C	1.820572	0.057429	1.309490
C152	C	2.070572	0.307429	1.559490
C153	C	1.368199	-0.403346	1.037628
C154	C	1.618199	-0.153346	1.287628
C155	C	1.868199	0.096654	1.537628
C156	C	2.118199	0.346654	1.787628
H157	H	1.259664	-0.941111	0.492729
H158	H	1.509664	-0.691111	0.742729
H159	H	1.759664	-0.441111	0.992729
H160	H	2.009664	-0.191111	1.242729
H161	H	1.429068	-0.904216	0.353563
H162	H	1.679068	-0.654216	0.603563
H163	H	1.929068	-0.404216	0.853563
H164	H	2.179068	-0.154216	1.103563
H165	H	1.259672	-0.492591	0.941960
H166	H	1.509672	-0.242591	1.191960
H167	H	1.759672	0.007409	1.441960
H168	H	2.009672	0.257409	1.691960
Br169	Br	1.465801	-0.323126	0.879932
Br170	Br	1.715801	-0.073126	1.129932
Br171	Br	1.965801	0.176874	1.379932
Br172	Br	2.215801	0.426874	1.629932
