data_functionalizedCrystal
_audit_creation_method	'MofGen! by Chris Wilmer'
_symmetry_space_group_name_H-M	'P1'
_symmetry_Int_Tables_number	1
_symmetry_cell_setting	triclinic
loop_
_symmetry_equiv_pos_as_xyz
  x,y,z
_cell_length_a	25.639239
_cell_length_b	12.759401
_cell_length_c	12.759393
_cell_angle_alpha	90.018133
_cell_angle_beta	90.035727
_cell_angle_gamma	90.041630
loop_
_atom_site_label
_atom_site_type_symbol
_atom_site_fract_x
_atom_site_fract_y
_atom_site_fract_z
Zn1	Zn	-0.208086	1.606083	0.593924
Zn2	Zn	-0.295530	1.605903	0.418228
Zn3	Zn	-0.208115	1.430384	0.418266
Zn4	Zn	-0.295496	1.430300	0.593871
O5	O	-0.251807	1.518167	0.506072
O6	O	-0.219687	1.753080	0.570624
O7	O	-0.283961	1.582580	0.271212
O8	O	-0.134946	1.453801	0.441605
O9	O	-0.283933	1.752948	0.441541
O10	O	-0.134924	1.582886	0.570661
O11	O	-0.219738	1.453627	0.271239
O12	O	-0.219705	1.283352	0.441554
O13	O	-0.283875	1.453658	0.740899
O14	O	-0.283903	1.283290	0.570570
O15	O	-0.219654	1.582805	0.740938
O16	O	-0.368691	1.582498	0.441489
O17	O	-0.368666	1.453483	0.570533
C18	C	-0.387650	1.517991	0.506024
C19	C	-0.445764	1.518011	0.506039
C20	C	-0.251804	1.245200	0.506061
C21	C	-0.251815	1.128423	0.506081
C22	C	-0.251757	1.518242	0.780106
C23	C	-0.251736	1.518274	0.896882
C24	C	-0.806127	1.585521	0.438993
C25	C	-0.860731	1.585561	0.439007
O26	O	-0.888968	1.642777	0.381950
N27	N	-0.888046	1.518352	0.506142
C28	C	-0.860754	1.451105	0.573274
O29	O	-0.889001	1.393943	0.630379
C30	C	-0.806150	1.451070	0.573265
C31	C	-0.778838	1.518277	0.506118
C32	C	-0.778815	1.652722	0.371853
C33	C	-0.724215	1.652680	0.371838
C34	C	-0.696926	1.585436	0.438963
C35	C	-0.724238	1.518234	0.506103
C36	C	-0.778859	1.383830	0.640401
C37	C	-0.724252	1.383801	0.640387
C38	C	-0.696940	1.451008	0.573240
C39	C	-0.642349	1.450948	0.573213
N40	N	-0.615034	1.518157	0.506078
C41	C	-0.642323	1.585401	0.438953
C42	C	-0.975424	1.451184	0.573290
C43	C	-1.030026	1.451213	0.573295
C44	C	-1.030001	1.585671	0.439030
C45	C	-0.975397	1.585636	0.439020
C46	C	-0.948109	1.518394	0.506156
C47	C	-0.527658	1.585307	0.438926
C48	C	-0.473052	1.585255	0.438914
C49	C	-0.473083	1.450802	0.573183
C50	C	-0.527684	1.450849	0.573192
C51	C	-0.554970	1.518110	0.506060
O52	O	-0.614077	1.393765	0.630244
O53	O	-0.614069	1.642564	0.381868
C54	C	-0.115434	1.518373	0.506143
C55	C	-0.057320	1.518461	0.506174
C56	C	-0.251810	1.792201	0.506084
C57	C	-0.251812	1.908977	0.506089
C58	C	-0.218362	1.963910	0.573290
C59	C	-0.218365	2.073634	0.573289
C60	C	-0.285268	2.073483	0.438877
C61	C	-0.285268	1.963761	0.438885
C62	C	-0.184906	1.909126	0.640495
C63	C	-0.151454	1.964059	0.707700
C64	C	-0.151457	2.073783	0.707699
C65	C	-0.184912	2.128574	0.640492
C66	C	-0.251819	1.518153	0.233105
C67	C	-0.251693	1.518325	0.116329
C68	C	-0.218267	1.585549	1.061492
C69	C	-0.218290	1.585527	0.951767
C70	C	-0.285166	1.451047	0.951727
C71	C	-0.285145	1.451076	1.061449
C72	C	-0.184814	1.652799	1.116371
C73	C	-0.151385	1.720028	1.061534
C74	C	-0.151408	1.720005	0.951809
C75	C	-0.184860	1.652754	0.896923
H76	H	-0.450817	1.639982	0.384231
Br77	Br	-0.184779	1.652829	1.265282
Br78	Br	-0.938396	1.359911	0.664405
H79	H	-0.312506	2.118103	0.384161
Br80	Br	-0.938337	1.676847	0.347889
H81	H	-0.124221	2.118506	0.762428
H82	H	-0.450856	1.396049	0.627832
Br83	Br	-0.184921	2.277487	0.640504
H84	H	-1.052229	1.640428	0.384376
Br85	Br	-0.106047	1.811253	0.877389
Br86	Br	-0.330675	1.889203	0.347703
H87	H	-0.184880	1.652749	0.807578
Br88	Br	-0.184897	1.760215	0.640494
H89	H	-0.124153	1.774787	1.106230
Br90	Br	-0.564751	1.359614	0.664294
H91	H	-0.312400	1.396293	0.907030
H92	H	-0.312363	1.396336	1.106099
Br93	Br	-0.687157	1.743909	0.280721
Br94	Br	-0.564680	1.676590	0.347818
H95	H	-0.801028	1.707486	0.317192
H96	H	-0.801087	1.329098	0.695074
Br97	Br	-1.067086	1.359985	0.664411
H98	H	-0.702037	1.329045	0.695060
Br99	Br	-0.106059	1.889703	0.798918
