data_functionalizedCrystal
_audit_creation_method	'MofGen! by Chris Wilmer'
_symmetry_space_group_name_H-M	'P1'
_symmetry_Int_Tables_number	1
_symmetry_cell_setting	triclinic
loop_
_symmetry_equiv_pos_as_xyz
  x,y,z
_cell_length_a	17.699091
_cell_length_b	17.699083
_cell_length_c	16.776229
_cell_angle_alpha	90.002452
_cell_angle_beta	90.007233
_cell_angle_gamma	83.284545
loop_
_atom_site_label
_atom_site_type_symbol
_atom_site_fract_x
_atom_site_fract_y
_atom_site_fract_z
O1	O	-0.095699	-1.004079	0.066174
O2	O	0.404301	-0.504079	0.566174
O3	O	-0.108151	-0.783701	0.066200
O4	O	0.391849	-0.283701	0.566200
O5	O	0.008264	-0.900113	0.066184
O6	O	0.508264	-0.400113	0.566184
O7	O	-0.212114	-0.887666	0.066191
O8	O	0.287886	-0.387666	0.566191
O9	O	0.008243	-0.900102	-0.066393
O10	O	0.508243	-0.400102	0.433607
O11	O	-0.108172	-0.783690	-0.066376
O12	O	0.391828	-0.283690	0.433624
O13	O	-0.095719	-1.004068	-0.066402
O14	O	0.404281	-0.504068	0.433598
Zn15	Zn	-0.101949	-0.893877	-0.087438
Zn16	Zn	0.398051	-0.393877	0.412562
Zn17	Zn	-0.101922	-0.893891	0.087237
Zn18	Zn	0.398078	-0.393891	0.587237
O19	O	-0.212134	-0.887656	-0.066385
O20	O	0.287866	-0.387656	0.433615
C21	C	-0.107715	-0.755498	-0.000085
C22	C	0.392285	-0.255498	0.499915
C23	C	-0.106377	-0.671480	-0.000075
C24	C	0.393623	-0.171480	0.499925
C25	C	0.036450	-0.899661	-0.000104
C26	C	0.536450	-0.399661	0.499896
C27	C	0.120468	-0.898320	-0.000101
C28	C	0.620468	-0.398320	0.499899
C29	C	-0.096155	-1.032270	-0.000115
C30	C	0.403845	-0.532270	0.499885
C31	C	-0.097494	-1.116288	-0.000120
C32	C	0.402506	-0.616288	0.499880
C33	C	0.159947	-0.897697	0.072167
C34	C	0.659947	-0.397697	0.572167
C35	C	0.238890	-0.896433	0.072168
C36	C	0.738890	-0.396433	0.572168
C37	C	0.278353	-0.895796	-0.000101
C38	C	0.778353	-0.395796	0.499899
C39	C	0.238869	-0.896416	-0.072374
C40	C	0.738869	-0.396416	0.427626
C41	C	0.159927	-0.897675	-0.072374
C42	C	0.659927	-0.397675	0.427626
C43	C	0.557234	-0.891336	-0.072378
C44	C	1.057234	-0.391336	0.427622
C45	C	0.636182	-0.890079	-0.072373
C46	C	1.136182	-0.390079	0.427627
C47	C	0.636197	-0.890094	0.072163
C48	C	1.136197	-0.390094	0.572163
C49	C	0.557255	-0.891353	0.072164
C50	C	1.057255	-0.391353	0.572164
C51	C	0.517777	-0.891969	-0.000109
C52	C	1.017777	-0.391969	0.499891
C53	C	0.432178	-0.893339	-0.000109
C54	C	0.932178	-0.393339	0.499891
C55	C	0.363952	-0.894431	-0.000102
C56	C	0.863952	-0.394431	0.499898
C57	C	0.759679	-0.888109	-0.000099
C58	C	1.259679	-0.388109	0.499901
C59	C	0.675662	-0.889451	-0.000104
C60	C	1.175662	-0.389451	0.499896
N61	N	-0.101966	-0.893873	-0.206650
N62	N	0.398034	-0.393873	0.293350
C63	C	-0.174710	-0.622861	-0.000073
C64	C	0.325290	-0.122861	0.499927
C65	C	-0.173448	-0.543918	-0.000083
C66	C	0.326552	-0.043918	0.499917
C67	C	-0.103851	-0.513595	-0.000090
C68	C	0.396149	-0.013595	0.499910
C69	C	-0.035513	-0.562220	-0.000094
C70	C	0.464487	-0.062220	0.499906
C71	C	-0.036776	-0.641162	-0.000090
C72	C	0.463224	-0.141162	0.499910
C73	C	-0.030418	-0.243857	-0.000114
C74	C	0.469582	0.256143	0.499886
C75	C	-0.029160	-0.164909	-0.000116
C76	C	0.470840	0.335091	0.499884
C77	C	-0.167089	-0.146613	-0.000108
C78	C	0.332911	0.353387	0.499892
C79	C	-0.168352	-0.225555	-0.000103
C80	C	0.331648	0.274445	0.499897
C81	C	-0.100014	-0.274173	-0.000112
C82	C	0.399986	0.225827	0.499888
C83	C	-0.101384	-0.359772	-0.000102
C84	C	0.398616	0.140228	0.499898
C85	C	-0.102481	-0.427997	-0.000094
C86	C	0.397519	0.072003	0.499906
C87	C	-0.056058	-0.848083	-0.751817
C88	C	0.443942	-0.348083	-0.251817
C89	C	-0.056064	-0.848081	-0.668365
C90	C	0.443936	-0.348081	-0.168365
C91	C	-0.101916	-0.893895	-0.626649
C92	C	0.398084	-0.393895	-0.126649
C93	C	-0.147758	-0.939719	-0.668389
C94	C	0.352242	-0.439719	-0.168389
C95	C	-0.147747	-0.939724	-0.751840
C96	C	0.352253	-0.439724	-0.251840
C97	C	-0.147803	-0.939699	-0.331842
C98	C	0.352197	-0.439699	0.168158
C99	C	-0.147812	-0.939689	-0.248386
C100	C	0.352188	-0.439689	0.251614
C101	C	-0.056119	-0.848056	-0.248367
C102	C	0.443881	-0.348056	0.251633
C103	C	-0.056108	-0.848061	-0.331818
C104	C	0.443892	-0.348061	0.168182
C105	C	-0.101948	-0.893888	-0.373551
C106	C	0.398052	-0.393888	0.126449
C107	C	-0.101939	-0.893891	-0.464039
C108	C	0.398061	-0.393891	0.035961
C109	C	-0.101929	-0.893889	-0.536162
C110	C	0.398071	-0.393889	-0.036162
N111	N	-0.101898	-0.893902	0.206448
N112	N	0.398102	-0.393902	0.706448
H113	H	0.127822	-0.898220	0.131017
H114	H	0.627822	-0.398220	0.631017
Br115	Br	0.065299	-0.123758	-0.000123
Br116	Br	0.565299	0.376242	0.499877
H117	H	0.271030	-0.895929	0.131016
H118	H	0.771030	-0.395929	0.631016
Br119	Br	0.503701	-0.892224	0.170246
Br120	Br	1.003701	-0.392224	0.670246
H121	H	0.668349	-0.889588	0.131012
H122	H	1.168349	-0.389588	0.631012
Br123	Br	0.006126	-0.785870	-0.611728
Br124	Br	0.506126	-0.285870	-0.111728
H125	H	0.025227	-0.283433	-0.000122
H126	H	0.525227	0.216567	0.499878
Br127	Br	0.689740	-0.889216	-0.170459
Br128	Br	1.189740	-0.389216	0.329541
H129	H	-0.018774	-0.810752	-0.365779
H130	H	0.481226	-0.310752	0.134221
H131	H	-0.185128	-0.977014	-0.365811
H132	H	0.314872	-0.477014	0.134189
Br133	Br	0.006167	-0.785897	-0.808424
Br134	Br	0.506167	-0.285897	-0.308424
Br135	Br	-0.262807	-0.266703	-0.000086
Br136	Br	0.237193	0.233297	0.499914
H137	H	-0.229091	-0.504335	-0.000080
H138	H	0.270909	-0.004335	0.499920
Br139	Br	0.503665	-0.892157	-0.170463
Br140	Br	1.003665	-0.392157	0.329537
Br141	Br	-0.210045	-1.001866	-0.191771
Br142	Br	0.289955	-0.501866	0.308229
Br143	Br	0.058941	-0.521069	-0.000111
Br144	Br	0.558941	-0.021069	0.499889
H145	H	0.271006	-0.895893	-0.131217
H146	H	0.771006	-0.395893	0.368783
H147	H	-0.018793	-0.810743	-0.214378
H148	H	0.481207	-0.310743	0.285622
Br149	Br	-0.209980	-1.001901	-0.611776
Br150	Br	0.290020	-0.501901	-0.111776
H151	H	-0.222733	-0.107018	-0.000105
H152	H	0.277267	0.392982	0.499895
H153	H	-0.185075	-0.977035	-0.785819
H154	H	0.314925	-0.477035	-0.285819
H155	H	0.127783	-0.898171	-0.131222
H156	H	0.627783	-0.398171	0.368778
Br157	Br	0.055965	-0.707147	-0.000099
Br158	Br	0.555965	-0.207147	0.499901
Br159	Br	-0.269167	-0.664005	-0.000055
Br160	Br	0.230833	-0.164005	0.499945
