data_functionalizedCrystal
_audit_creation_method	'MofGen! by Chris Wilmer'
_symmetry_space_group_name_H-M	'P1'
_symmetry_Int_Tables_number	1
_symmetry_cell_setting	triclinic
loop_
_symmetry_equiv_pos_as_xyz
  x,y,z
_cell_length_a	19.188930
_cell_length_b	9.065218
_cell_length_c	7.540329
_cell_angle_alpha	89.998628
_cell_angle_beta	89.984519
_cell_angle_gamma	84.080333
loop_
_atom_site_label
_atom_site_type_symbol
_atom_site_fract_x
_atom_site_fract_y
_atom_site_fract_z
O1	O	-0.927573	-0.184174	0.148046
O2	O	-0.724454	-0.208967	0.147924
O3	O	-0.830212	0.018218	0.147984
O4	O	-0.821815	-0.411358	0.147986
O5	O	-0.830208	0.018219	-0.146981
O6	O	-0.724451	-0.208965	-0.147041
O7	O	-0.927569	-0.184172	-0.146919
Cu8	Cu	-0.826010	-0.196569	-0.173912
Cu9	Cu	-0.826014	-0.196570	0.174918
O10	O	-0.821811	-0.411357	-0.146979
C11	C	-0.698435	-0.208163	0.000426
C12	C	-0.620912	-0.205753	0.000379
C13	C	-0.829403	0.073177	0.000504
C14	C	-0.826990	0.236936	0.000511
C15	C	-0.953588	-0.184976	0.000583
C16	C	-1.031112	-0.187386	0.000642
C17	C	-0.577024	-0.339058	0.000408
C18	C	-0.504182	-0.336793	0.000427
C19	C	-0.475232	-0.201217	0.000454
C20	C	-0.519130	-0.067895	0.000415
C21	C	-0.591970	-0.070163	0.000378
N22	N	-0.366448	-0.097586	0.100914
N23	N	-0.297253	-0.095441	0.100953
C24	C	-0.255771	-0.194375	0.000562
N25	N	-0.286096	-0.295558	-0.099847
N26	N	-0.355298	-0.297708	-0.099878
C27	C	-0.396251	-0.198742	0.000493
C28	C	-0.132899	-0.325234	0.000610
C29	C	-0.060056	-0.322964	0.000618
C30	C	-0.075006	-0.054061	0.000624
C31	C	-0.147847	-0.056335	0.000598
C32	C	-0.176789	-0.191925	0.000599
C33	C	-0.822620	-0.466316	0.000505
C34	C	-0.825033	-0.630075	0.000510
N35	N	-0.826012	-0.196566	-0.419261
N36	N	-0.826017	-0.196561	0.420266
H37	H	-0.468442	-0.445349	0.000446
N38	N	-0.045446	0.084431	0.000604
N39	N	-0.006451	0.115693	-0.123725
H40	H	0.014428	0.213509	-0.123752
H41	H	-0.627705	0.038393	0.000356
H42	H	-0.024323	-0.431521	0.000631
H43	H	-0.495555	0.042493	0.000461
N44	N	-0.192672	0.079848	0.000574
N45	N	-0.166818	0.200891	0.000590
H46	H	-0.198476	0.297079	0.000567
H47	H	-0.156464	-0.435639	0.000584
N48	N	-0.606574	-0.477568	0.000415
N49	N	-0.567374	-0.596582	0.000442
H50	H	-0.588245	-0.694408	0.000447
