data_functionalizedCrystal
_audit_creation_method	'MofGen! by Chris Wilmer'
_symmetry_space_group_name_H-M	'P1'
_symmetry_Int_Tables_number	1
_symmetry_cell_setting	triclinic
loop_
_symmetry_equiv_pos_as_xyz
  x,y,z
_cell_length_a	16.992694
_cell_length_b	15.538191
_cell_length_c	14.184957
_cell_angle_alpha	82.120726
_cell_angle_beta	104.070011
_cell_angle_gamma	68.970158
loop_
_atom_site_label
_atom_site_type_symbol
_atom_site_fract_x
_atom_site_fract_y
_atom_site_fract_z
O1	O	1.008064	0.175973	0.083289
O2	O	0.780398	0.173821	0.083318
O3	O	0.938550	0.041104	0.083303
O4	O	0.849913	0.308690	0.083305
O5	O	0.891807	0.080324	-0.083545
O6	O	0.733655	0.213041	-0.083529
O7	O	0.961322	0.215193	-0.083558
Cu8	Cu	0.843221	0.217698	-0.098778
Cu9	Cu	0.898499	0.171316	0.098538
O10	O	0.803170	0.347910	-0.083542
C11	C	0.728601	0.190670	-0.000101
C12	C	0.643903	0.182433	-0.000090
C13	C	0.924453	0.026316	-0.000119
C14	C	0.952078	-0.076179	-0.000112
C15	C	0.571050	0.261886	-0.000090
C16	C	0.491463	0.254146	-0.000104
C17	C	0.484734	0.166951	-0.000110
C18	C	0.557594	0.087492	-0.000113
C19	C	0.637177	0.095234	-0.000107
C20	C	0.250263	0.134863	-0.000137
C21	C	0.170672	0.127126	-0.000141
C22	C	0.104546	0.293781	-0.000134
C23	C	0.184135	0.301514	-0.000121
C24	C	0.256987	0.222057	-0.000129
N25	N	0.403385	0.159037	-0.000121
N26	N	0.338332	0.229973	-0.000125
C27	C	0.677648	-0.384633	-0.000098
C28	C	0.703623	-0.480942	-0.000104
C29	C	0.849726	-0.492381	-0.000122
C30	C	0.823766	-0.396072	-0.000112
C31	C	0.737725	-0.342205	-0.000101
C32	C	0.883843	-0.353645	-0.000115
C33	C	0.857882	-0.257343	-0.000109
C34	C	0.771845	-0.203469	-0.000101
C35	C	0.711765	-0.245904	-0.000096
C36	C	0.969881	-0.407512	-0.000133
C37	C	1.029957	-0.365084	-0.000135
C38	C	1.003999	-0.268783	-0.000123
C39	C	0.917962	-0.214909	-0.000115
C40	C	1.064079	-0.226348	-0.000129
C41	C	1.038119	-0.130046	-0.000123
C42	C	0.892001	-0.118607	-0.000110
C43	C	1.013120	0.198344	-0.000136
C44	C	1.097819	0.206579	-0.000141
C45	C	0.817268	0.362697	-0.000119
C46	C	0.789644	0.465191	-0.000119
N47	N	0.804346	0.250321	-0.237559
C48	C	1.051553	0.042933	-0.605143
C49	C	1.022117	0.067618	-0.710173
C50	C	0.882051	0.185102	-0.710171
C51	C	0.911478	0.160431	-0.605140
C52	C	0.996229	0.089345	-0.552634
C53	C	0.856154	0.206843	-0.552630
C54	C	0.885576	0.182170	-0.447608
C55	C	0.970323	0.111085	-0.395095
C56	C	1.025652	0.064672	-0.447612
C57	C	0.771400	0.277923	-0.605138
C58	C	0.716076	0.324335	-0.552628
C59	C	0.745501	0.299667	-0.447604
C60	C	0.830248	0.228582	-0.395091
C61	C	0.690172	0.346080	-0.395087
C62	C	0.719595	0.321406	-0.290065
C63	C	0.859671	0.203909	-0.290069
N64	N	0.937381	0.138686	0.237319
H65	H	0.576520	0.332890	-0.000084
H66	H	0.747446	0.298006	-0.690654
H67	H	0.654690	-0.515478	-0.000116
H68	H	0.432146	0.318846	-0.000103
H69	H	0.647069	0.382212	-0.595391
H70	H	0.674543	0.359199	-0.247311
H71	H	0.750707	-0.125053	-0.000103
H72	H	0.189608	0.372515	-0.000104
H73	H	1.067176	0.029816	-0.752921
H74	H	1.134130	-0.270219	-0.000148
H75	H	1.087039	-0.095501	-0.000127
H76	H	0.309571	0.070163	-0.000145
H77	H	0.045222	0.358471	-0.000129
H78	H	0.607588	-0.340773	-0.000082
H79	H	0.621163	0.403952	-0.437851
H80	H	1.094669	0.006794	-0.404859
H81	H	1.120570	-0.014945	-0.562391
H82	H	0.919780	-0.536252	-0.000135
H83	H	0.165201	0.056117	-0.000145
H84	H	0.928687	0.146031	-0.247317
H85	H	0.552105	0.016499	-0.000133
H86	H	0.821941	-0.074747	-0.000093
H87	H	0.696497	0.030535	-0.000106
H88	H	0.641704	-0.202043	-0.000079
H89	H	0.991017	-0.485929	-0.000128
H90	H	1.100011	-0.408955	-0.000148
H91	H	0.994277	0.090994	-0.309579
H92	H	0.813044	0.242979	-0.752933
