data_functionalizedCrystal
_audit_creation_method	'MofGen! by Chris Wilmer'
_symmetry_space_group_name_H-M	'P1'
_symmetry_Int_Tables_number	1
_symmetry_cell_setting	triclinic
loop_
_symmetry_equiv_pos_as_xyz
  x,y,z
_cell_length_a	13.897449
_cell_length_b	10.686285
_cell_length_c	10.686551
_cell_angle_alpha	80.915481
_cell_angle_beta	85.601944
_cell_angle_gamma	85.631338
loop_
_atom_site_label
_atom_site_type_symbol
_atom_site_fract_x
_atom_site_fract_y
_atom_site_fract_z
Zn1	Zn	-1.541014	0.450166	0.679087
Zn2	Zn	-1.540936	0.678746	0.450585
Zn3	Zn	-1.368210	0.466520	0.466840
Zn4	Zn	-1.391202	0.662363	0.662781
O5	O	-1.460341	0.564449	0.564823
O6	O	-1.675987	0.480500	0.648797
O7	O	-1.508369	0.664294	0.275110
O8	O	-1.381543	0.286728	0.508622
O9	O	-1.675930	0.648437	0.480918
O10	O	-1.508502	0.274713	0.664559
O11	O	-1.381468	0.508372	0.287053
O12	O	-1.236276	0.492486	0.492810
O13	O	-1.420730	0.620515	0.842574
O14	O	-1.253168	0.636372	0.636767
O15	O	-1.530796	0.464614	0.854555
O16	O	-1.530663	0.854196	0.465106
O17	O	-1.420654	0.842159	0.621005
C18	C	-1.209723	0.564427	0.564784
C19	C	-1.102510	0.564446	0.564795
C20	C	-1.478173	0.894231	0.539550
C21	C	-1.485892	1.035310	0.528780
C22	C	-1.478336	0.538913	0.895910
C23	C	-1.486005	0.528031	1.037000
C24	C	-0.906216	0.564442	0.564819
C25	C	-1.015448	0.564440	0.564802
C26	C	-0.711936	0.564465	0.564852
C27	C	-0.819148	0.564452	0.564834
C28	C	-1.442466	0.233377	0.590223
C29	C	-1.434850	0.092294	0.601047
C30	C	-1.442465	0.589794	0.235031
C31	C	-1.434964	0.600318	0.093970
H32	H	-1.385245	1.033153	0.671159
Cl33	Cl	-1.562543	0.419626	1.128344
Cl34	Cl	-1.562472	1.126624	0.420510
Cl35	Cl	-1.358441	0.708732	1.002629
