data_functionalizedCrystal
_audit_creation_method	'MofGen! by Chris Wilmer'
_symmetry_space_group_name_H-M	'P1'
_symmetry_Int_Tables_number	1
_symmetry_cell_setting	triclinic
loop_
_symmetry_equiv_pos_as_xyz
  x,y,z
_cell_length_a	11.026607
_cell_length_b	12.811451
_cell_length_c	9.482899
_cell_angle_alpha	75.287066
_cell_angle_beta	101.372807
_cell_angle_gamma	96.261498
loop_
_atom_site_label
_atom_site_type_symbol
_atom_site_fract_x
_atom_site_fract_y
_atom_site_fract_z
O1	O	-1.584070	-0.459225	0.181439
O2	O	-1.084070	0.040775	0.681439
O3	O	-1.231554	-0.408417	0.174742
O4	O	-0.731554	0.091583	0.674742
O5	O	-1.419856	-0.280561	0.157879
O6	O	-0.919856	0.219439	0.657879
O7	O	-1.395768	-0.587081	0.198302
O8	O	-0.895768	-0.087081	0.698302
O9	O	-1.458138	-0.254491	-0.087352
O10	O	-0.958138	0.245509	0.412648
O11	O	-1.269836	-0.382347	-0.070488
O12	O	-0.769836	0.117653	0.429512
O13	O	-1.622352	-0.433155	-0.063792
O14	O	-1.122352	0.066845	0.436208
Cu15	Cu	-1.449590	-0.405371	-0.089532
Cu16	Cu	-0.949590	0.094629	0.410468
Cu17	Cu	-1.404317	-0.436201	0.200482
Cu18	Cu	-0.904317	0.063799	0.700482
O19	O	-1.434050	-0.561012	-0.046929
O20	O	-0.934050	-0.061012	0.453071
C21	C	-1.205630	-0.386009	0.050892
C22	C	-0.705630	0.113991	0.550892
C23	C	-1.071351	-0.358067	0.047209
C24	C	-0.571351	0.141933	0.547209
C25	C	-1.438819	-0.227675	0.030012
C26	C	-0.938819	0.272325	0.530012
C27	C	-1.438272	-0.108929	0.014361
C28	C	-0.938272	0.391071	0.514361
N29	N	-1.481441	-0.383688	-0.293512
N30	N	-0.981441	0.116312	0.206488
C31	C	-1.648275	-0.455564	0.060062
C32	C	-1.148275	0.044436	0.560062
C33	C	-1.782553	-0.483506	0.063755
C34	C	-1.282553	0.016494	0.563755
C35	C	-0.996344	-0.435220	0.057384
C36	C	-0.496344	0.064780	0.557384
C37	C	-0.857559	-0.406343	0.053578
C38	C	-0.357559	0.093657	0.553578
C39	C	-1.458375	0.072650	-0.141370
C40	C	-0.958375	0.572650	0.358630
C41	C	-1.458884	-0.038921	-0.126668
C42	C	-0.958884	0.461079	0.373332
C43	C	-1.417146	-0.067359	0.140698
C44	C	-0.917146	0.432641	0.640698
C45	C	-1.416637	0.044213	0.125996
C46	C	-0.916637	0.544213	0.625996
C47	C	-1.437254	0.114214	-0.015042
C48	C	-0.937254	0.614214	0.484958
C49	C	-1.436753	0.225786	-0.029742
C50	C	-0.936753	0.725786	0.470258
C51	C	-1.395007	0.197348	0.237622
C52	C	-0.895007	0.697348	0.737622
C53	C	-1.395516	0.085776	0.252324
C54	C	-0.895516	0.585776	0.752324
C55	C	-1.415086	0.386103	0.080940
C56	C	-0.915086	0.886103	0.580940
C57	C	-1.415627	0.267357	0.096594
C58	C	-0.915627	0.767357	0.596594
N59	N	-1.372475	-0.457878	0.404461
N60	N	-0.872475	0.042122	0.904461
C61	C	-1.413712	-0.429792	0.640370
C62	C	-0.913712	0.070208	1.140370
C63	C	-1.440214	-0.411767	0.470575
C64	C	-0.940214	0.088233	0.970575
H65	H	-1.034875	-0.522651	0.068906
H66	H	-0.534875	-0.022651	0.568906
H67	H	-1.294868	-0.510703	0.473553
H68	H	-0.794868	-0.010703	0.973553
F69	F	-0.807212	-0.292054	0.038496
F70	F	-0.307212	0.207946	0.538496
H71	H	-0.821077	-0.570943	0.075276
H72	H	-0.321077	-0.070943	0.575276
H73	H	-1.517829	-0.358951	0.401484
H74	H	-1.017829	0.141049	0.901484
F75	F	-1.312279	-0.498836	0.730676
F76	F	-0.812279	0.001164	1.230676
H77	H	-1.378727	0.028767	0.367153
H78	H	-0.878727	0.528767	0.867153
H79	H	-1.032815	-0.270640	0.035716
H80	H	-0.532815	0.229360	0.535716
F81	F	-1.458700	0.300285	-0.179846
F82	F	-0.958700	0.800285	0.320154
H83	H	-1.559051	-0.330875	0.637393
H84	H	-1.059051	0.169125	1.137393
H85	H	-1.475170	0.129646	-0.256209
H86	H	-0.975170	0.629646	0.243791
H87	H	-1.476072	-0.072756	-0.229538
H88	H	-0.976072	0.427244	0.270462
H89	H	-1.400357	-0.124372	0.255525
H90	H	-0.900357	0.375628	0.755525
F91	F	-1.372527	0.241589	0.372078
F92	F	-0.872527	0.741589	0.872078
