data_functionalizedCrystal
_audit_creation_method	'MofGen! by Chris Wilmer'
_symmetry_space_group_name_H-M	'P1'
_symmetry_Int_Tables_number	1
_symmetry_cell_setting	triclinic
loop_
_symmetry_equiv_pos_as_xyz
  x,y,z
_cell_length_a	19.805407
_cell_length_b	10.685194
_cell_length_c	19.805399
_cell_angle_alpha	85.603041
_cell_angle_beta	89.982278
_cell_angle_gamma	94.378795
loop_
_atom_site_label
_atom_site_type_symbol
_atom_site_fract_x
_atom_site_fract_y
_atom_site_fract_z
Zn1	Zn	1.014152	-0.502357	-0.362086
Zn2	Zn	1.005432	-0.713400	-0.240223
Zn3	Zn	0.900970	-0.502404	-0.248907
Zn4	Zn	0.892293	-0.713335	-0.353371
O5	O	0.953212	-0.607874	-0.301147
O6	O	1.107711	-0.530360	-0.345934
O7	O	0.991557	-0.685458	-0.146657
O8	O	0.923264	-0.325800	-0.271202
O9	O	1.101305	-0.685412	-0.256402
O10	O	1.006419	-0.325765	-0.354354
O11	O	0.914809	-0.530440	-0.153037
O12	O	0.805103	-0.530377	-0.262751
O13	O	0.908476	-0.685301	-0.449246
O14	O	0.798728	-0.685347	-0.339501
O15	O	0.998005	-0.530296	-0.455649
O16	O	0.983143	-0.889989	-0.247951
O17	O	0.900020	-0.889941	-0.331080
C18	C	0.777356	-0.607861	-0.301123
C19	C	0.702123	-0.607886	-0.301128
C20	C	0.243666	-0.527289	-0.347853
C21	C	0.314354	-0.527291	-0.347848
C22	C	0.346361	-0.607893	-0.301168
C23	C	0.307676	-0.688507	-0.254495
C24	C	0.236988	-0.688510	-0.254504
C25	C	0.592749	-0.688497	-0.254459
C26	C	0.663442	-0.688485	-0.254453
C27	C	0.670115	-0.527278	-0.347804
C28	C	0.599428	-0.527282	-0.347812
C29	C	0.560748	-0.607899	-0.301142
C30	C	0.484100	-0.607898	-0.301148
C31	C	0.423008	-0.607889	-0.301158
C32	C	0.939712	-0.935755	-0.287642
C33	C	0.933999	-1.076024	-0.281888
C34	C	1.129754	-0.607888	-0.301171
C35	C	1.204986	-0.607894	-0.301182
C36	C	0.953245	-0.607786	-0.477693
C37	C	0.953259	-0.607749	-0.552927
C38	C	0.966782	-0.278712	-0.314719
C39	C	0.972565	-0.138443	-0.320503
C40	C	0.913309	-0.527024	-0.591593
C41	C	0.913319	-0.526999	-0.662282
C42	C	0.953284	-0.607694	-0.694305
C43	C	0.993235	-0.688429	-0.655634
C44	C	0.993221	-0.688459	-0.584945
C45	C	0.993294	-0.688311	-0.940712
C46	C	0.993307	-0.688272	-1.011406
C47	C	0.913392	-0.526851	-1.018049
C48	C	0.913378	-0.526881	-0.947361
C49	C	0.953326	-0.607619	-0.908695
C50	C	0.953314	-0.607647	-0.832046
C51	C	0.953301	-0.607662	-0.770953
C52	C	0.953221	-0.607870	-0.125291
C53	C	0.953353	-0.607552	-0.050073
H54	H	0.345845	-0.461659	-0.385854
N55	N	0.870239	-0.439898	-0.703976
H56	H	0.900170	-0.381411	-0.735716
H57	H	0.836760	-0.491227	-0.731146
H58	H	1.009954	-1.084575	-0.357968
H59	H	0.896602	-1.129900	-0.244426
N60	N	0.564906	-0.440331	-0.398151
H61	H	0.600137	-0.389265	-0.427716
H62	H	0.533469	-0.491768	-0.427315
H63	H	0.205495	-0.754149	-0.216500
H64	H	0.217611	-0.461646	-0.385861
H65	H	0.880769	-0.461305	-0.565526
N66	N	1.036413	-0.775312	-1.045946
H67	H	1.061717	-0.826468	-1.010726
H68	H	1.006456	-0.833689	-1.072866
H69	H	1.025815	-0.754067	-0.909238
N70	N	0.870283	-0.439829	-0.912823
H71	H	0.844977	-0.388683	-0.948045
H72	H	0.836836	-0.491200	-0.881368
H73	H	0.561265	-0.754138	-0.216456
H74	H	1.025772	-0.754139	-0.681711
N75	N	0.342191	-0.775443	-0.204144
H76	H	0.369123	-0.833988	-0.229182
H77	H	0.373583	-0.723988	-0.174947
N78	N	0.711833	-0.440345	-0.398154
H79	H	0.761469	-0.452578	-0.391073
H80	H	0.698675	-0.460117	-0.445660
N81	N	0.697966	-0.775421	-0.204103
H82	H	0.662737	-0.826495	-0.174539
H83	H	0.724902	-0.833878	-0.229194
N84	N	0.870290	-0.439788	-1.059751
H85	H	0.876355	-0.452018	-1.109391
H86	H	0.821141	-0.459446	-1.046570
N87	N	1.036307	-0.775534	-0.543239
H88	H	1.061627	-0.826647	-0.574252
H89	H	1.069743	-0.724186	-0.516031
