data_functionalizedCrystal
_audit_creation_method	'MofGen! by Chris Wilmer'
_symmetry_space_group_name_H-M	'P1'
_symmetry_Int_Tables_number	1
_symmetry_cell_setting	triclinic
loop_
_symmetry_equiv_pos_as_xyz
  x,y,z
_cell_length_a	8.559649
_cell_length_b	9.198806
_cell_length_c	10.723023
_cell_angle_alpha	90.001851
_cell_angle_beta	77.123106
_cell_angle_gamma	90.003535
loop_
_atom_site_label
_atom_site_type_symbol
_atom_site_fract_x
_atom_site_fract_y
_atom_site_fract_z
O1	O	2.119664	0.120869	-0.042290
O2	O	2.619664	0.620869	0.457710
O3	O	1.655165	0.120876	0.022085
O4	O	2.155165	0.620876	0.522085
O5	O	1.898129	0.120867	-0.192777
O6	O	2.398129	0.620867	0.307223
O7	O	1.876699	0.120877	0.172572
O8	O	2.376699	0.620877	0.672572
O9	O	1.898110	-0.120918	-0.192776
O10	O	2.398110	0.379082	0.307224
O11	O	1.655146	-0.120909	0.022087
O12	O	2.155146	0.379091	0.522087
O13	O	2.119644	-0.120916	-0.042289
O14	O	2.619644	0.379084	0.457711
Cu15	Cu	1.887393	-0.142990	-0.010101
Cu16	Cu	2.387393	0.357010	0.489899
Cu17	Cu	1.887416	0.142949	-0.010103
Cu18	Cu	2.387416	0.642949	0.489897
O19	O	1.876680	-0.120908	0.172574
O20	O	2.376680	0.379092	0.672574
C21	C	1.595679	-0.000016	0.026964
C22	C	2.095679	0.499984	0.526964
C23	C	1.418458	-0.000013	0.041486
C24	C	1.918458	0.499987	0.541486
N25	N	1.887389	-0.344104	-0.010102
N26	N	2.387389	0.155896	0.489898
C27	C	1.989402	-0.416304	-0.100668
C28	C	2.489402	0.083696	0.399332
C29	C	1.989427	-0.583716	-0.100675
C30	C	2.489427	-0.083716	0.399325
C31	C	2.179130	-0.000021	-0.047168
C32	C	2.679130	0.499979	0.452832
C33	C	2.356351	-0.000014	-0.061689
C34	C	2.856351	0.499986	0.438311
C35	C	1.896561	-0.000023	-0.239116
C36	C	2.396561	0.499977	0.260884
C37	C	1.891895	-0.000018	-0.377192
C38	C	2.391895	0.499982	0.122808
N39	N	1.887433	0.344063	-0.010113
N40	N	2.387433	0.844063	0.489887
C41	C	1.885004	0.125239	-0.581447
C42	C	2.385004	0.625239	-0.081447
C43	C	1.889826	0.125236	-0.438738
C44	C	2.389826	0.625236	0.061262
C45	C	1.878249	-0.000014	0.218913
C46	C	2.378249	0.499986	0.718913
C47	C	1.882914	-0.000010	0.356989
C48	C	2.382914	0.499990	0.856989
H49	H	1.438759	-0.000010	-0.161132
H50	H	1.938759	0.499990	0.338868
F51	F	1.882697	0.265405	-0.650647
F52	F	2.382697	0.765405	-0.150647
H53	H	1.336042	-0.000003	0.140935
H54	H	1.836042	0.499997	0.640935
H55	H	1.890088	-0.107254	-0.430126
H56	H	2.390088	0.392746	0.069874
F57	F	1.773275	-0.574794	0.091247
F58	F	2.273275	-0.074794	0.591247
H59	H	2.076717	-0.354181	-0.178205
H60	H	2.576717	0.145819	0.321795
F61	F	2.103596	-0.664868	-0.202020
F62	F	2.603596	-0.164868	0.297980
F63	F	1.773244	-0.425300	0.091237
F64	F	2.273244	0.074700	0.591237
H65	H	1.891610	0.232467	-0.385792
H66	H	2.391610	0.732467	0.114208
H67	H	1.884703	-0.107243	-0.590069
H68	H	2.384703	0.392757	-0.090069
