data_functionalizedCrystal
_audit_creation_method	'MofGen! by Chris Wilmer'
_symmetry_space_group_name_H-M	'P1'
_symmetry_Int_Tables_number	1
_symmetry_cell_setting	triclinic
loop_
_symmetry_equiv_pos_as_xyz
  x,y,z
_cell_length_a	14.395555
_cell_length_b	14.395555
_cell_length_c	14.395555
_cell_angle_alpha	60.002398
_cell_angle_beta	90.000811
_cell_angle_gamma	59.998876
loop_
_atom_site_label
_atom_site_type_symbol
_atom_site_fract_x
_atom_site_fract_y
_atom_site_fract_z
Zr1	Zr	0.894818	1.016868	-0.121934
O2	O	0.746485	1.210658	-0.270257
O3	O	0.940298	0.823068	-0.076464
O4	O	0.940288	1.016863	-0.270259
O5	O	0.746493	1.016870	0.076405
O6	O	1.093156	1.016870	-0.270263
O7	O	0.746494	1.016863	-0.076462
O8	O	1.093172	0.670207	0.076401
O9	O	0.746476	1.363534	-0.270258
O10	O	1.073768	0.902790	-0.057076
O11	O	0.959684	0.902790	0.057010
O12	O	0.959673	1.130958	-0.171159
O13	O	0.845590	1.130958	-0.057073
Zr14	Zr	1.138622	1.016890	0.121865
Zr15	Zr	1.138624	1.016879	-0.121940
Zr16	Zr	0.894816	1.016879	0.121871
Zr17	Zr	0.894805	1.260687	-0.121937
Zr18	Zr	1.138635	0.773071	0.121868
O19	O	1.093142	1.210690	0.076395
O20	O	1.093145	1.210674	-0.270265
O21	O	0.746482	1.210674	0.076403
O22	O	1.286955	0.823100	0.270188
O23	O	1.286958	0.823084	-0.076473
O24	O	0.940295	0.823084	0.270196
O25	O	1.286947	1.016888	-0.076475
O26	O	1.093152	1.016895	0.270190
O27	O	0.940284	1.016888	0.270194
O28	O	1.286946	1.016895	0.076393
O29	O	0.940269	1.363543	-0.270263
O30	O	1.093171	0.670215	0.270194
O31	O	1.286964	0.670224	0.270189
O32	O	1.286965	0.670215	0.076396
O33	O	0.746475	1.363543	-0.076465
O34	O	0.940268	1.363551	-0.076470
O35	O	1.073767	0.902800	0.171090
O36	O	1.187851	0.902800	0.057004
O37	O	1.073756	1.130968	-0.057079
O38	O	0.959672	1.130968	0.057007
C39	C	1.016737	0.711898	-0.000031
C40	C	1.016743	0.608391	-0.000030
C41	C	1.078936	0.547813	-0.062245
C42	C	1.124015	0.409711	0.045021
C43	C	0.971670	0.562058	-0.107285
C44	C	1.061885	0.471589	0.107299
C45	C	0.909480	0.624011	-0.045084
C46	C	0.954533	0.485918	0.062246
C47	C	0.711757	1.016865	-0.000027
C48	C	0.608255	1.016861	-0.000025
C49	C	0.609875	0.892453	0.062176
C50	C	0.516856	0.954648	0.107261
C51	C	0.516846	0.954670	-0.045077
C52	C	0.516598	1.079056	0.045122
C53	C	0.516602	1.079061	-0.107275
C54	C	0.423565	1.141347	-0.062217
C55	C	1.321684	1.016893	-0.000042
C56	C	1.425185	1.016897	-0.000044
C57	C	1.016722	1.016865	-0.304998
C58	C	1.016723	1.016861	-0.408500
C59	C	1.016703	1.321859	-0.000038
C60	C	1.016697	1.425367	-0.000039
C61	C	1.078938	0.892453	-0.406886
C62	C	0.971663	0.954641	-0.499906
C63	C	1.123972	0.954677	-0.499909
C64	C	0.909385	1.079049	-0.500157
C65	C	1.061771	1.079068	-0.500145
C66	C	0.954432	1.141347	-0.593183
C67	C	1.016718	1.016893	0.304929
C68	C	1.016717	1.016897	0.408431
C69	C	1.321701	0.711912	-0.000039
C70	C	1.425208	0.608409	-0.000040
C71	C	1.016735	0.711912	0.304932
C72	C	1.016740	0.608409	0.408435
C73	C	1.321698	0.711926	0.304925
C74	C	1.425205	0.608428	0.408425
C75	C	0.711742	1.321832	-0.304994
C76	C	0.608235	1.425330	-0.408495
C77	C	0.711740	1.321846	-0.000031
C78	C	0.608232	1.425349	-0.000029
C79	C	1.016705	1.321846	-0.305001
C80	C	1.016700	1.425349	-0.408504
C81	C	1.548000	0.547859	0.062127
C82	C	1.578867	0.409749	0.107180
C83	C	1.578766	0.562153	-0.045159
C84	C	1.454712	0.471599	0.045076
C85	C	1.454614	0.624077	-0.107322
C86	C	1.485408	0.485976	-0.062296
C87	C	0.954538	0.547819	0.406823
C88	C	1.061820	0.409721	0.499839
C89	C	0.909503	0.562053	0.499849
C90	C	1.124085	0.471612	0.500089
C91	C	0.971691	0.624018	0.500084
C92	C	1.079037	0.485929	0.593118
C93	C	1.423593	0.547822	0.531215
C94	C	1.516588	0.409726	0.562008
C95	C	1.516648	0.562004	0.562045
C96	C	1.516837	0.471633	0.437854
C97	C	1.516882	0.623985	0.437895
C98	C	1.609894	0.485899	0.468615
H99	H	1.214707	0.318086	0.083130
H100	H	0.517570	1.131592	-0.197948
H101	H	1.214677	0.902081	-0.500809
F102	F	1.111614	1.147741	-0.498875
F103	F	0.517670	1.147737	0.095050
F104	F	1.111823	0.422720	0.225908
F105	F	0.885776	0.450592	0.131103
F106	F	1.517777	0.289987	0.631912
H107	H	1.459754	0.458954	-0.114907
F108	F	0.319476	1.278958	-0.130966
F109	F	1.581247	0.583254	0.130987
F110	F	0.515647	0.885931	0.225803
F111	F	1.385006	0.422682	0.095026
H112	H	1.131724	0.458904	0.672745
F113	F	0.921834	0.743809	0.498812
F114	F	0.790944	0.610696	0.501022
F115	F	1.319342	0.583240	0.564467
H116	H	0.515939	0.902064	-0.083172
H117	H	0.818641	1.131588	-0.499333
F118	F	1.648848	0.289973	0.225702
F119	F	1.515732	0.422819	0.368073
F120	F	1.384630	0.743889	-0.225818
H121	H	1.632237	0.599396	-0.083275
H122	H	0.902014	0.574899	0.327066
H123	H	1.131612	0.574894	-0.114767
H124	H	1.689524	0.458860	0.442957
F125	F	0.790962	0.743800	-0.094926
F126	F	1.111644	0.289961	0.501057
F127	F	0.921875	0.610663	-0.225834
H128	H	1.214827	0.434240	0.499262
H129	H	1.515931	0.715616	0.384416
H130	H	1.131463	0.787258	-0.327126
F131	F	1.517868	0.610569	0.632019
F132	F	0.921848	0.885916	-0.501123
H133	H	0.689636	0.787255	0.114848
H134	H	0.901742	1.246631	-0.672810
