data_functionalizedCrystal
_audit_creation_method	'MofGen! by Chris Wilmer'
_symmetry_space_group_name_H-M	'P1'
_symmetry_Int_Tables_number	1
_symmetry_cell_setting	triclinic
loop_
_symmetry_equiv_pos_as_xyz
  x,y,z
_cell_length_a	23.532355
_cell_length_b	23.532407
_cell_length_c	11.804365
_cell_angle_alpha	101.746801
_cell_angle_beta	78.235620
_cell_angle_gamma	82.838123
loop_
_atom_site_label
_atom_site_type_symbol
_atom_site_fract_x
_atom_site_fract_y
_atom_site_fract_z
O1	O	0.766833	0.057445	-0.098880
O2	O	0.600970	0.067474	-0.098921
O3	O	0.688899	-0.020469	-0.098866
O4	O	0.678904	0.145388	-0.098935
O5	O	0.665751	0.002660	0.099175
O6	O	0.577822	0.090603	0.099120
O7	O	0.743684	0.080574	0.099161
Cu8	Cu	0.658639	0.087700	0.117223
Cu9	Cu	0.686015	0.060348	-0.116984
O10	O	0.655755	0.168517	0.099106
C11	C	0.568180	0.078787	0.000095
C12	C	0.504963	0.078031	0.000081
C13	C	0.677069	-0.030120	0.000160
C14	C	0.676301	-0.093335	0.000178
C15	C	0.100325	0.085907	0.108085
C16	C	0.040925	0.085190	0.108090
O17	O	-0.000525	0.095522	0.199898
N18	N	0.023834	0.072227	0.000138
C19	C	0.066149	0.059974	-0.107826
O20	O	0.046158	0.048881	-0.199647
C21	C	0.125548	0.060687	-0.107830
C22	C	0.142634	0.073657	0.000129
C23	C	0.117412	0.098875	0.216035
C24	C	0.176808	0.099593	0.216030
C25	C	0.219116	0.087343	0.108074
C26	C	0.202029	0.074374	0.000124
C27	C	0.167861	0.048430	-0.215792
C28	C	0.227264	0.049143	-0.215786
C29	C	0.244350	0.062113	-0.107828
C30	C	0.303734	0.062842	-0.107837
N31	N	0.320825	0.075805	0.000115
C32	C	0.278516	0.088056	0.108070
C33	C	-0.058595	0.058477	-0.107810
C34	C	-0.117993	0.057768	-0.107808
C35	C	-0.143213	0.082983	0.108109
C36	C	-0.083814	0.083696	0.108105
C37	C	-0.041504	0.071440	0.000142
C38	C	0.403252	0.089563	0.108051
C39	C	0.462654	0.090282	0.108036
C40	C	0.487869	0.065064	-0.107879
C41	C	0.428472	0.064347	-0.107865
C42	C	0.386164	0.076596	0.000110
O43	O	0.345216	0.052514	-0.199598
O44	O	0.298517	0.099139	0.199876
C45	C	0.621115	-0.359502	0.000090
C46	C	0.621825	-0.300101	0.000100
O47	O	0.578044	-0.263354	0.000051
N48	N	0.674100	-0.277481	0.000126
C49	C	0.725669	-0.314268	0.000132
O50	O	0.770198	-0.289574	0.000154
C51	C	0.724959	-0.373669	0.000114
C52	C	0.672679	-0.396284	0.000099
C53	C	0.568840	-0.382118	0.000075
C54	C	0.568130	-0.441515	0.000067
C55	C	0.619694	-0.478296	0.000076
C56	C	0.671969	-0.455681	0.000092
C57	C	0.776528	-0.410455	0.000110
C58	C	0.775814	-0.469860	0.000092
C59	C	0.723534	-0.492475	0.000077
C60	C	0.722823	-0.551859	0.000094
N61	N	0.670549	-0.574478	0.000067
C62	C	0.618984	-0.537697	0.000058
C63	C	0.727156	-0.189522	0.000167
C64	C	0.727866	-0.130121	0.000193
C65	C	0.624022	-0.115958	0.000159
C66	C	0.623312	-0.175359	0.000141
C67	C	0.674881	-0.212141	0.000140
C68	C	0.617496	-0.662435	0.000044
C69	C	0.616790	-0.721837	0.000042
C70	C	0.720634	-0.735995	0.000070
C71	C	0.721339	-0.676598	0.000078
C72	C	0.669767	-0.639819	0.000062
O73	O	0.766582	-0.588641	0.000137
O74	O	0.574464	-0.562401	0.000020
C75	C	0.776475	0.069260	0.000142
C76	C	0.839693	0.070015	0.000149
C77	C	0.667585	0.178167	0.000077
C78	C	0.668354	0.241381	0.000051
N79	N	0.639389	0.106938	0.281952
N80	N	0.705270	0.041105	-0.281712
C81	C	0.751497	-0.005103	0.655971
C82	C	0.766059	-0.019659	0.531318
C83	C	0.734392	0.011989	0.468971
C84	C	0.688162	0.058195	0.531288
C85	C	0.673601	0.072756	0.655952
C86	C	0.656497	0.089848	0.468952
C87	C	0.610266	0.136054	0.531269
C88	C	0.595708	0.150612	0.655922
C89	C	0.627374	0.118964	0.718269
C90	C	0.671058	0.075287	0.344287
C91	C	0.593162	0.153146	0.344269
C92	C	0.578600	0.167702	0.468921
H93	H	0.476560	0.100846	0.195953
H94	H	0.574215	-0.740246	0.000036
O95	O	-0.017455	0.046666	-0.212617
C96	C	0.057479	0.082200	-0.337996
C97	C	0.010923	0.095647	-0.219251
H98	H	0.080427	0.121797	-0.343409
H99	H	0.091397	0.042068	-0.343412
H100	H	0.035046	0.072789	-0.415122
H101	H	0.033305	0.105086	-0.142057
H102	H	-0.022990	0.135763	-0.213939
O103	O	0.151379	0.035787	-0.320772
C104	C	0.182686	0.010865	-0.534928
C105	C	0.201432	0.025165	-0.416117
H106	H	0.223142	0.002285	-0.612046
H107	H	0.160978	-0.029981	-0.540383
H108	H	0.150047	0.049751	-0.540306
H109	H	0.234089	-0.013685	-0.410659
H110	H	0.223107	0.066031	-0.410712
H111	H	0.368810	0.099542	0.195974
O112	O	0.825965	-0.505550	-0.000066
C113	C	0.926484	-0.547825	-0.102689
C114	C	0.869732	-0.507383	-0.102648
H115	H	0.961880	-0.549330	-0.185630
H116	H	0.942588	-0.529970	-0.019859
H117	H	0.916980	-0.594155	-0.102641
H118	H	0.879189	-0.461044	-0.102738
H119	H	0.853644	-0.525287	-0.185471
H120	H	0.580741	-0.193767	0.000134
O121	O	-0.134631	0.045280	-0.212648
C122	C	-0.193809	0.079164	-0.337958
C123	C	-0.175011	0.093392	-0.219192
H124	H	-0.226468	0.118048	-0.343277
H125	H	-0.153386	0.070564	-0.415158
H126	H	-0.215519	0.038321	-0.343328
H127	H	-0.153313	0.134242	-0.213705
H128	H	-0.215454	0.101955	-0.142049
H129	H	0.261711	0.039163	-0.303705
O130	O	0.782240	-0.035936	0.716409
C131	C	0.811676	-0.130672	0.754677
C132	C	0.776847	-0.095824	0.686131
H133	H	0.807317	-0.179096	0.730242
H134	H	0.860128	-0.126407	0.730145
H135	H	0.793332	-0.112296	0.854468
H136	H	0.795140	-0.114176	0.586325
H137	H	0.728399	-0.100088	0.710763
H138	H	0.746251	0.000135	0.367473
O139	O	0.550875	0.195561	0.716514
C140	C	0.521864	0.289820	0.857283
C141	C	0.572693	0.238964	0.788717
H142	H	0.539483	0.324920	0.915695
H143	H	0.501730	0.309988	0.791370
H144	H	0.486734	0.272178	0.915608
H145	H	0.607860	0.256560	0.730391
H146	H	0.592779	0.218805	0.854694
O147	O	0.411973	0.051723	-0.212840
C148	C	0.443257	0.026833	-0.426998
C149	C	0.462018	0.041112	-0.308200
H150	H	0.483707	0.018263	-0.504128
H151	H	0.421549	-0.014013	-0.432470
H152	H	0.410614	0.065726	-0.432338
H153	H	0.494679	0.002256	-0.302780
H154	H	0.483693	0.081979	-0.302778
H155	H	0.803700	-0.057280	0.480584
H156	H	0.615516	0.130814	0.819772
O157	O	0.715893	0.030319	0.283855
C158	C	0.754260	-0.073331	0.245955
C159	C	0.703438	-0.022449	0.314419
H160	H	0.744214	-0.116003	0.270660
H161	H	0.759252	-0.078382	0.146124
H162	H	0.796963	-0.063263	0.270461
H163	H	0.660706	-0.032479	0.290013
H164	H	0.698498	-0.017409	0.414234
H165	H	0.819099	-0.392054	0.000121
O166	O	0.533729	0.212589	0.529647
C167	C	0.476757	0.269495	0.721686
C168	C	0.527595	0.218658	0.653064
H169	H	0.471773	0.274410	0.821480
H170	H	0.486770	0.312232	0.697249
H171	H	0.434061	0.259449	0.697118
H172	H	0.570313	0.228647	0.677595
H173	H	0.517532	0.175936	0.677507
H174	H	0.575500	-0.632496	0.000030
H175	H	0.525560	-0.459923	0.000045
H176	H	0.567378	0.178918	0.293506
H177	H	0.526848	-0.352176	0.000063
H178	H	0.770434	-0.111712	0.000224
O179	O	0.193304	0.112172	0.321008
C180	C	0.161995	0.137136	0.535165
C181	C	0.143239	0.122887	0.416356
H182	H	0.121526	0.145814	0.612285
H183	H	0.194587	0.098240	0.540665
H184	H	0.183757	0.177945	0.540494
H185	H	0.121452	0.082095	0.410948
H186	H	0.110674	0.161815	0.410906
H187	H	0.082968	0.108850	0.303950
O188	O	0.573971	-0.080226	-0.000073
C189	C	0.526526	-0.016878	-0.102657
C190	C	0.583237	-0.057341	-0.102556
H191	H	0.534002	0.001645	-0.185493
H192	H	0.489024	-0.043223	-0.102755
H193	H	0.514577	0.020933	-0.019737
H194	H	0.595240	-0.095159	-0.185462
H195	H	0.620705	-0.030955	-0.102396
O196	O	0.772178	-0.654727	0.000041
C197	C	0.875096	-0.675046	0.000117
C198	C	0.817562	-0.699885	0.000154
H199	H	0.911801	-0.711541	0.000234
H200	H	0.887752	-0.657290	-0.082788
H201	H	0.868315	-0.637899	0.082972
H202	H	0.824298	-0.737051	-0.082645
H203	H	0.804925	-0.717602	0.083113
H204	H	-0.069908	0.094258	0.196015
H205	H	0.769152	-0.219466	0.000174
O206	O	-0.184252	0.094811	0.213058
C207	C	-0.217273	0.066768	0.397578
C208	C	-0.170750	0.053317	0.278787
H209	H	-0.206380	0.033221	0.450742
H210	H	-0.217253	0.112968	0.450889
H211	H	-0.262658	0.064052	0.379002
H212	H	-0.125342	0.056001	0.297255
H213	H	-0.170822	0.007124	0.225513
H214	H	0.762615	-0.765953	0.000083
H215	H	0.522327	0.055092	-0.195774
