data_functionalizedCrystal
_audit_creation_method	'MofGen! by Chris Wilmer'
_symmetry_space_group_name_H-M	'P1'
_symmetry_Int_Tables_number	1
_symmetry_cell_setting	triclinic
loop_
_symmetry_equiv_pos_as_xyz
  x,y,z
_cell_length_a	12.837943
_cell_length_b	14.185328
_cell_length_c	12.837942
_cell_angle_alpha	76.624436
_cell_angle_beta	85.171060
_cell_angle_gamma	103.375839
loop_
_atom_site_label
_atom_site_type_symbol
_atom_site_fract_x
_atom_site_fract_y
_atom_site_fract_z
O1	O	1.425609	0.083403	-0.295412
O2	O	1.122477	0.083409	-0.281970
O3	O	1.267320	0.083400	-0.137123
O4	O	1.280766	0.083412	-0.440260
O5	O	1.220748	-0.083444	-0.090563
O6	O	1.075906	-0.083435	-0.235410
O7	O	1.379038	-0.083441	-0.248852
Cu8	Cu	1.223219	-0.098672	-0.237880
Cu9	Cu	1.278295	0.098640	-0.292943
O10	O	1.234195	-0.083432	-0.393699
C11	C	1.060123	-0.000012	-0.254149
C12	C	0.943708	-0.000010	-0.240605
N13	N	1.184489	-0.237450	-0.199151
C14	C	0.718832	-0.000018	-0.403432
C15	C	0.609450	-0.000017	-0.390711
C16	C	0.615558	-0.000013	-0.202441
C17	C	0.724940	-0.000015	-0.215162
C18	C	0.776573	-0.000015	-0.315661
C19	C	0.885959	-0.000010	-0.328384
C20	C	0.892064	-0.000014	-0.140112
C21	C	0.782681	-0.000012	-0.127391
C22	C	1.430740	-0.605053	-0.445468
C23	C	1.401425	-0.710080	-0.416118
C24	C	1.261918	-0.710068	-0.276529
C25	C	1.291218	-0.605039	-0.305870
C26	C	1.375630	-0.552539	-0.390340
C27	C	1.236108	-0.552525	-0.250742
C28	C	1.265409	-0.447505	-0.280078
C29	C	1.349820	-0.394998	-0.364542
C30	C	1.404931	-0.447519	-0.419676
C31	C	1.151701	-0.605026	-0.166267
C32	C	1.096591	-0.552513	-0.111139
C33	C	1.125887	-0.447491	-0.140480
C34	C	1.210298	-0.394984	-0.224944
C35	C	1.070776	-0.394970	-0.085346
C36	C	1.100077	-0.289949	-0.114682
C37	C	1.239599	-0.289964	-0.254280
C38	C	1.441393	-0.000017	-0.276674
C39	C	1.557809	-0.000013	-0.290219
C40	C	1.239493	-0.000021	-0.074774
C41	C	1.225949	-0.000019	0.041641
N42	N	1.317033	0.237418	-0.331663
C43	C	1.262023	-0.000008	-0.456049
C44	C	1.275568	-0.000004	-0.572466
C45	C	1.388783	-0.000002	0.266510
C46	C	1.376062	0.000000	0.375892
C47	C	1.187789	-0.000006	0.369786
C48	C	1.200510	-0.000008	0.260405
C49	C	1.301010	-0.000007	0.208771
C50	C	1.313728	-0.000017	0.099389
C51	C	1.125458	-0.000016	0.093283
C52	C	1.112737	-0.000014	0.202665
H53	H	0.760873	-0.000017	-0.485263
O54	O	1.486385	0.000128	0.216191
C55	C	1.523507	0.086550	0.129000
H56	H	1.451723	0.115361	0.101926
H57	H	1.566862	0.067113	0.058797
H58	H	1.581952	0.147056	0.155771
H59	H	0.740623	-0.000023	-0.045564
H60	H	1.105970	0.000004	0.411843
H61	H	1.053984	-0.000029	0.046263
H62	H	1.395559	-0.000020	0.057351
H63	H	1.447538	0.000008	0.422898
O64	O	1.015207	0.000116	0.252909
C65	C	1.026321	0.086540	0.291852
H66	H	1.114186	0.115358	0.302844
H67	H	0.972114	0.067105	0.372904
H68	H	1.001649	0.147042	0.231302
O69	O	1.321518	-0.239065	-0.336451
C70	C	1.295822	-0.264726	-0.432661
H71	H	1.234394	-0.340985	-0.411825
H72	H	1.372347	-0.268310	-0.481821
H73	H	1.259948	-0.205633	-0.482134
H74	H	1.499467	-0.562305	-0.514262
O75	O	0.936215	0.000168	-0.426032
C76	C	1.023437	0.086565	-0.463136
H77	H	1.009066	0.146962	-0.422743
H78	H	1.030067	0.115566	-0.554632
H79	H	1.101705	0.067031	-0.442039
O80	O	0.553285	0.000120	-0.475931
C81	C	0.513976	0.086544	-0.498343
H82	H	0.508281	0.115353	-0.422748
H83	H	0.430342	0.067113	-0.523815
H84	H	0.571515	0.147050	-0.566587
H85	H	0.573476	-0.000096	-0.120596
H86	H	1.373678	-0.309484	-0.388424
O87	O	0.948303	0.000124	-0.054960
C88	C	1.035854	0.086551	-0.080797
H89	H	1.057631	0.115354	-0.172474
H90	H	1.108642	0.067124	-0.044475
H91	H	1.012088	0.147059	-0.046335
O92	O	1.486850	-0.396621	-0.501847
C93	C	1.461154	-0.422281	-0.598057
H94	H	1.399727	-0.498540	-0.577221
H95	H	1.537679	-0.425865	-0.647217
H96	H	1.425280	-0.363189	-0.647530
H97	H	1.446309	-0.752833	-0.461018
O98	O	1.123422	-0.707043	-0.137770
C99	C	1.212846	-0.742121	-0.105327
H100	H	1.290791	-0.681604	-0.142689
H101	H	1.213816	-0.812392	-0.133711
H102	H	1.206241	-0.760733	-0.013351
H103	H	1.002054	-0.437730	-0.016563
O104	O	1.014588	-0.603667	-0.029147
C105	C	1.000494	-0.707623	-0.015112
H106	H	1.034128	-0.721961	-0.093380
H107	H	0.910623	-0.747503	0.006470
H108	H	1.045330	-0.737466	0.052921
O109	O	1.046400	-0.239087	-0.061055
C110	C	0.965629	-0.307943	0.019805
H111	H	0.942905	-0.382816	-0.002007
H112	H	0.891136	-0.277601	0.025998
H113	H	0.997529	-0.319090	0.100807
H114	H	1.193192	-0.752827	-0.207750
