data_functionalizedCrystal
_audit_creation_method	'MofGen! by Chris Wilmer'
_symmetry_space_group_name_H-M	'P1'
_symmetry_Int_Tables_number	1
_symmetry_cell_setting	triclinic
loop_
_symmetry_equiv_pos_as_xyz
  x,y,z
_cell_length_a	21.395362
_cell_length_b	18.101397
_cell_length_c	21.395355
_cell_angle_alpha	90.019934
_cell_angle_beta	90.043940
_cell_angle_gamma	90.036343
loop_
_atom_site_label
_atom_site_type_symbol
_atom_site_fract_x
_atom_site_fract_y
_atom_site_fract_z
Zn1	Zn	0.957904	-0.294601	0.354579
Zn2	Zn	0.957825	-0.418425	0.249799
Zn3	Zn	0.853119	-0.294636	0.249781
Zn4	Zn	0.853107	-0.418440	0.354504
O5	O	0.905489	-0.356526	0.302166
O6	O	1.045572	-0.311006	0.340720
O7	O	0.943908	-0.402012	0.162119
O8	O	0.867057	-0.190998	0.263706
O9	O	1.045514	-0.401979	0.263738
O10	O	0.944042	-0.190973	0.340701
O11	O	0.866981	-0.311065	0.162105
O12	O	0.765439	-0.311080	0.263633
O13	O	0.867036	-0.402005	0.442192
O14	O	0.765431	-0.402038	0.340573
O15	O	0.944030	-0.311021	0.442247
O16	O	0.943896	-0.522060	0.263665
O17	O	0.866960	-0.522071	0.340591
C18	C	0.742701	-0.356565	0.302093
C19	C	0.673060	-0.356599	0.302077
C20	C	0.640359	-0.404024	0.342080
C21	C	0.574923	-0.404006	0.342107
C22	C	0.542192	-0.356571	0.302122
C23	C	0.574901	-0.309137	0.262116
C24	C	0.640335	-0.309151	0.262094
C25	C	0.438466	-0.350605	0.245717
C26	C	0.373033	-0.350596	0.245738
C27	C	0.340371	-0.356522	0.302191
C28	C	0.373150	-0.362474	0.358624
C29	C	0.438584	-0.362488	0.358602
C30	C	0.471239	-0.356550	0.302142
C31	C	0.236717	-0.403930	0.342227
C32	C	0.171280	-0.403907	0.342256
C33	C	0.171259	-0.309042	0.262259
C34	C	0.236695	-0.309061	0.262236
C35	C	0.269420	-0.356509	0.302219
C36	C	0.905435	-0.548936	0.302136
C37	C	0.905470	-0.631250	0.302144
C38	C	0.905550	-0.930341	0.302201
C39	C	0.953821	-0.898978	0.253671
C40	C	0.953988	-0.813359	0.253797
C41	C	0.905510	-0.781959	0.302172
C42	C	0.923415	-0.812974	0.368221
C43	C	0.923789	-0.898619	0.367956
C44	C	0.839245	-0.898868	0.285253
C45	C	0.839572	-0.813218	0.283779
C46	C	0.905486	-0.698099	0.302159
C47	C	0.905575	-1.014201	0.302217
C48	C	1.068912	-0.356487	0.302239
C49	C	1.138553	-0.356470	0.302271
C50	C	0.905541	-0.356511	0.465589
C51	C	0.905563	-0.356504	0.535231
C52	C	0.905560	-0.163364	0.302210
C53	C	0.905590	-0.081050	0.302229
C54	C	0.905473	-0.356487	0.139378
C55	C	0.905572	-0.356285	0.069737
C56	C	0.945652	-0.309127	0.567974
C57	C	0.945651	-0.309095	0.633409
C58	C	0.905568	-0.356454	0.666099
C59	C	0.865471	-0.403834	0.633348
C60	C	0.865469	-0.403859	0.567914
C61	C	0.900602	-0.423137	0.769761
C62	C	0.900609	-0.423113	0.835194
C63	C	0.905572	-0.356375	0.867920
C64	C	0.910541	-0.289660	0.835204
C65	C	0.910539	-0.289685	0.769770
C66	C	0.905566	-0.356431	0.737051
C67	C	0.945662	-0.308960	0.971615
C68	C	0.945657	-0.308927	1.037052
C69	C	0.865480	-0.403672	1.036990
C70	C	0.865482	-0.403699	0.971555
C71	C	0.905576	-0.356344	0.938871
H72	H	0.942785	-0.792391	0.204823
H73	H	0.978306	-0.270396	0.945003
H74	H	0.822957	-0.920524	0.237924
O75	O	0.822219	-0.454961	0.532604
H76	H	0.850237	-0.492649	0.502807
O77	O	0.822240	-0.454747	1.072239
H78	H	0.832958	-0.512873	1.059685
H79	H	0.263320	-0.270446	0.229658
H80	H	0.971339	-0.791454	0.382816
H81	H	0.826071	-0.792953	0.235172
O82	O	0.988891	-0.258046	0.532724
H83	H	1.020757	-0.291198	0.502938
H84	H	0.803279	-0.919153	0.320599
H85	H	0.801671	-0.791852	0.316535
H86	H	0.889332	-0.792635	0.405352
H87	H	0.548247	-0.270513	0.229561
O88	O	0.915885	-0.217666	0.870483
H89	H	0.873908	-0.210105	0.900252
O90	O	0.939054	-0.926631	0.188726
H91	H	0.929595	-0.878969	0.157502
H92	H	0.978295	-0.270511	0.660073
H93	H	0.914583	-0.235363	0.743136
O94	O	0.675607	-0.257998	0.218943
H95	H	0.726606	-0.265976	0.225647
H96	H	0.978301	-0.270342	1.063710
H97	H	0.832833	-0.442392	0.659968
H98	H	0.832841	-0.442283	0.944895
O99	O	0.895243	-0.495064	0.870480
H100	H	0.891776	-0.541473	0.836733
O101	O	0.895241	-0.495121	0.734466
H102	H	0.891793	-0.541506	0.768206
O103	O	0.135961	-0.257886	0.219126
H104	H	0.106202	-0.220253	0.247235
O105	O	0.337679	-0.344173	0.184875
H106	H	0.371383	-0.340038	0.145617
H107	H	0.666999	-0.442659	0.374638
H108	H	0.548292	-0.442624	0.374685
H109	H	0.465270	-0.367332	0.404552
H110	H	0.346558	-0.367299	0.404594
H111	H	0.890171	-0.919365	0.405362
O112	O	0.272021	-0.455093	0.385357
H113	H	0.238285	-0.488059	0.413187
H114	H	0.144656	-0.442524	0.374835
O115	O	1.018527	-0.927383	0.268361
H116	H	1.018603	-0.988636	0.265963
O117	O	0.473693	-0.344214	0.184824
H118	H	0.439909	-0.340086	0.145587
H119	H	1.003103	-0.792802	0.265012
H120	H	0.972255	-0.918525	0.382310
