data_functionalizedCrystal
_audit_creation_method	'MofGen! by Chris Wilmer'
_symmetry_space_group_name_H-M	'P1'
_symmetry_Int_Tables_number	1
_symmetry_cell_setting	triclinic
loop_
_symmetry_equiv_pos_as_xyz
  x,y,z
_cell_length_a	17.699083
_cell_length_b	8.559649
_cell_length_c	16.176319
_cell_angle_alpha	89.994559
_cell_angle_beta	89.998611
_cell_angle_gamma	76.530840
loop_
_atom_site_label
_atom_site_type_symbol
_atom_site_fract_x
_atom_site_fract_y
_atom_site_fract_z
O1	O	0.992507	0.202110	-0.068628
O2	O	0.770623	0.228405	-0.068655
O3	O	0.901113	-0.017421	-0.068638
O4	O	0.862017	0.447935	-0.068645
O5	O	0.901098	-0.017436	0.068855
O6	O	0.770608	0.228389	0.068838
O7	O	0.992492	0.202094	0.068865
Cu8	Cu	0.881549	0.215240	0.081406
Cu9	Cu	0.881566	0.215259	-0.081196
O10	O	0.862002	0.447920	0.068849
C11	C	0.742473	0.227455	0.000088
C12	C	0.658616	0.224628	0.000078
C13	C	0.601734	0.368922	0.000076
C14	C	0.522943	0.366257	0.000087
C15	C	0.501037	0.219296	0.000094
C16	C	0.557926	0.074990	0.000098
C17	C	0.636715	0.077657	0.000093
C18	C	0.240179	0.064231	0.000118
C19	C	0.161383	0.061575	0.000121
C20	C	0.126407	0.352831	0.000112
C21	C	0.205196	0.355498	0.000108
C22	C	0.262078	0.211193	0.000116
C23	C	0.347512	0.214085	0.000106
C24	C	0.415605	0.216402	0.000098
C25	C	0.904069	-0.076970	0.000107
C26	C	0.912888	-0.254384	0.000104
C27	C	1.020643	0.203044	0.000120
C28	C	1.104499	0.205871	0.000125
C29	C	0.859047	0.507469	0.000101
C30	C	0.850227	0.684883	0.000099
N31	N	0.881542	0.215226	0.195771
N32	N	0.881580	0.215260	-0.195561
C33	C	0.939336	0.106419	0.239043
C34	C	0.939340	0.106417	0.325590
C35	C	0.881552	0.215232	0.368864
C36	C	0.823752	0.324044	0.325586
C37	C	0.823746	0.324037	0.239041
C38	C	0.823776	0.324074	0.674614
C39	C	0.823789	0.324076	0.761166
C40	C	0.939370	0.106455	0.761164
C41	C	0.939364	0.106447	0.674618
C42	C	0.881562	0.215253	0.631348
C43	C	0.881558	0.215252	0.537504
C44	C	0.881559	0.215242	0.462706
H45	H	0.619562	0.488595	0.000070
C46	C	1.002947	-0.013250	0.808759
H47	H	1.037366	-0.078043	0.770590
H48	H	0.979592	-0.079712	0.842527
H49	H	1.031118	0.044170	0.842512
C50	C	0.760188	0.443740	0.373185
H51	H	0.768473	0.428175	0.430926
H52	H	0.710678	0.426520	0.359012
H53	H	0.762211	0.550387	0.358990
H54	H	0.986422	0.017846	0.639387
H55	H	0.986396	0.017817	0.203815
H56	H	0.776683	0.412636	0.203810
C57	C	0.994480	-0.367497	0.000113
H58	H	0.989906	-0.475902	0.000110
H59	H	1.021933	-0.348194	0.048059
H60	H	1.021934	-0.348191	-0.047841
H61	H	0.080083	0.470330	0.000110
C62	C	1.002919	-0.013255	0.373185
H63	H	1.037341	-0.078044	0.335017
H64	H	0.979571	-0.079722	0.406957
H65	H	1.031084	0.044181	0.406935
C66	C	0.460375	0.524981	0.000082
H67	H	0.484707	0.612886	0.000068
H68	H	0.428915	0.529998	0.048032
H69	H	0.428911	0.529994	-0.047868
H70	H	0.223027	0.475168	0.000099
H71	H	0.776714	0.412670	0.639391
H72	H	0.143552	-0.058106	0.000127
C73	C	0.760208	0.443748	0.808766
H74	H	0.725775	0.508532	0.770602
H75	H	0.783558	0.510222	0.842524
H76	H	0.732054	0.386299	0.842531
H77	H	0.286484	-0.053271	0.000126
H78	H	0.683029	-0.039842	0.000094
C79	C	0.533830	-0.086664	0.000104
H80	H	0.478760	-0.067589	0.000097
H81	H	0.553930	-0.146073	0.048050
H82	H	0.553929	-0.146053	-0.047850
H83	H	0.789834	-0.231386	0.000095
