data_functionalizedCrystal
_audit_creation_method	'MofGen! by Chris Wilmer'
_symmetry_space_group_name_H-M	'P1'
_symmetry_Int_Tables_number	1
_symmetry_cell_setting	triclinic
loop_
_symmetry_equiv_pos_as_xyz
  x,y,z
_cell_length_a	10.654555
_cell_length_b	13.596369
_cell_length_c	10.654550
_cell_angle_alpha	90.001719
_cell_angle_beta	95.514048
_cell_angle_gamma	89.997333
loop_
_atom_site_label
_atom_site_type_symbol
_atom_site_fract_x
_atom_site_fract_y
_atom_site_fract_z
O1	O	-1.667839	0.081721	0.176431
O2	O	-1.167839	0.581721	0.676431
O3	O	-1.302361	0.081736	0.193231
O4	O	-0.802361	0.581736	0.693231
O5	O	-1.493503	0.081732	0.002092
O6	O	-0.993503	0.581732	0.502092
O7	O	-1.476697	0.081725	0.367570
O8	O	-0.976697	0.581725	0.867570
O9	O	-1.493484	-0.081851	0.002081
O10	O	-0.993484	0.418149	0.502081
O11	O	-1.302342	-0.081847	0.193220
O12	O	-0.802342	0.418153	0.693220
O13	O	-1.667820	-0.081861	0.176421
O14	O	-1.167820	0.418139	0.676421
Zn15	Zn	-1.485078	-0.107827	0.184819
Zn16	Zn	-0.985078	0.392173	0.684819
Zn17	Zn	-1.485103	0.107701	0.184832
Zn18	Zn	-0.985103	0.607701	0.684832
O19	O	-1.476678	-0.081858	0.367560
O20	O	-0.976678	0.418142	0.867560
C21	C	-1.255554	-0.000054	0.191991
C22	C	-0.755554	0.499946	0.691991
C23	C	-1.116111	-0.000048	0.188296
C24	C	-0.616111	0.499952	0.688296
N25	N	-1.485069	-0.254919	0.184809
N26	N	-0.985069	0.245081	0.684809
C27	C	-0.919576	0.089116	0.183100
C28	C	-0.419576	0.589116	0.683100
C29	C	-1.050598	0.089120	0.186564
C30	C	-0.550598	0.589120	0.686564
C31	C	-1.050596	-0.089227	0.186552
C32	C	-0.550596	0.410773	0.686552
C33	C	-0.919577	-0.089230	0.183080
C34	C	-0.419577	0.410770	0.683080
C35	C	-1.485101	-0.656209	0.184834
C36	C	-0.985101	-0.156209	0.684834
C37	C	-1.485089	-0.544558	0.184831
C38	C	-0.985089	-0.044558	0.684831
C39	C	-1.485086	-0.455568	0.184822
C40	C	-0.985086	0.044432	0.684822
C41	C	-1.485072	-0.343909	0.184818
C42	C	-0.985072	0.156091	0.684818
C43	C	-0.714627	-0.000066	0.177662
C44	C	-0.214627	0.499934	0.677662
C45	C	-0.854069	-0.000056	0.181360
C46	C	-0.354069	0.499944	0.681360
C47	C	-1.477921	-0.000068	0.414363
C48	C	-0.977921	0.499932	0.914363
C49	C	-1.481613	-0.000071	0.553806
C50	C	-0.981613	0.499929	1.053806
N51	N	-1.485121	0.254793	0.184833
N52	N	-0.985121	0.754793	0.684833
C53	C	-1.492259	-0.000056	-0.044711
C54	C	-0.992259	0.499944	0.455289
C55	C	-1.488567	-0.000046	-0.184155
C56	C	-0.988567	0.499954	0.315845
C57	C	-1.369072	-0.000064	0.633290
C58	C	-0.869072	0.499936	1.133290
C59	C	-1.372548	-0.000048	0.764311
C60	C	-0.872548	0.499952	1.264311
C61	C	-1.601117	-0.000050	0.736351
C62	C	-1.101117	0.499950	1.236351
C63	C	-1.597640	-0.000059	0.605333
C64	C	-1.097640	0.499941	1.105333
H65	H	-1.103928	0.161733	0.187979
H66	H	-0.603928	0.661733	0.687979
N67	N	-0.848914	-0.185413	0.181193
N68	N	-0.348914	0.314587	0.681193
H69	H	-0.910395	-0.241902	0.181944
H70	H	-0.410395	0.258098	0.681944
H71	H	-0.785646	-0.189596	0.257919
H72	H	-0.285646	0.310404	0.757919
H73	H	-1.689290	-0.000061	0.540614
H74	H	-1.189290	0.499939	1.040614
N75	N	-1.251171	-0.000044	0.850049
N76	N	-0.751171	0.499956	1.350049
H77	H	-1.200602	0.060592	0.833352
H78	H	-0.700602	0.560592	1.333352
H79	H	-1.200701	-0.060729	0.833329
H80	H	-0.700701	0.439271	1.333329
H81	H	-1.695582	-0.000051	0.778321
H82	H	-1.195582	0.499949	1.278321
H83	H	-1.274596	-0.000077	0.591341
H84	H	-0.774596	0.499923	1.091341
N85	N	-0.848913	0.185288	0.181232
N86	N	-0.348913	0.685288	0.681232
H87	H	-0.862212	0.224277	0.259551
H88	H	-0.362212	0.724277	0.759551
H89	H	-0.881251	0.224193	0.104067
H90	H	-0.381251	0.724193	0.604067
N91	N	-1.121249	-0.185404	0.188417
N92	N	-0.621249	0.314596	0.688417
H93	H	-1.214189	-0.171873	0.190886
H94	H	-0.714189	0.328127	0.690886
H95	H	-1.088838	-0.224341	0.265528
H96	H	-0.588838	0.275659	0.765528
