data_functionalizedCrystal
_audit_creation_method	'MofGen! by Chris Wilmer'
_symmetry_space_group_name_H-M	'P1'
_symmetry_Int_Tables_number	1
_symmetry_cell_setting	triclinic
loop_
_symmetry_equiv_pos_as_xyz
  x,y,z
_cell_length_a	18.050591
_cell_length_b	12.759400
_cell_length_c	12.759393
_cell_angle_alpha	90.030448
_cell_angle_beta	89.972506
_cell_angle_gamma	89.989309
loop_
_atom_site_label
_atom_site_type_symbol
_atom_site_fract_x
_atom_site_fract_y
_atom_site_fract_z
Zn1	Zn	1.135411	0.418328	-0.594239
Zn2	Zn	1.135336	0.594043	-0.418559
Zn3	Zn	1.011216	0.418367	-0.418550
Zn4	Zn	1.011207	0.593953	-0.594173
O5	O	1.073292	0.506173	-0.506380
O6	O	1.239325	0.441658	-0.570967
O7	O	1.118844	0.570793	-0.271537
O8	O	1.027725	0.271340	-0.441880
O9	O	1.239271	0.570756	-0.441895
O10	O	1.118970	0.271312	-0.570958
O11	O	1.027653	0.441724	-0.271531
O12	O	0.907290	0.441637	-0.441815
O13	O	1.027711	0.570602	-0.741203
O14	O	0.907284	0.570640	-0.570844
O15	O	1.118962	0.441571	-0.741252
O16	O	1.118836	0.741052	-0.441831
O17	O	1.027639	0.740986	-0.570853
C18	C	0.880340	0.506134	-0.506322
C19	C	0.797794	0.506142	-0.506322
C20	C	1.073248	0.779140	-0.506359
C21	C	1.073297	0.895917	-0.506384
C22	C	1.073344	0.506072	-0.780414
C23	C	1.073366	0.506029	-0.897191
C24	C	0.598326	0.435909	-0.436318
C25	C	0.548920	0.531739	-0.410469
C26	C	0.646664	0.506174	-0.506370
C27	C	0.548988	0.410377	-0.532216
C28	C	0.500679	0.506196	-0.506414
C29	C	0.598346	0.602055	-0.480471
C30	C	0.598418	0.480627	-0.602263
C31	C	0.549035	0.576524	-0.576450
C32	C	0.730762	0.506160	-0.506342
C33	C	0.416583	0.506221	-0.506442
C34	C	1.266998	0.506213	-0.506439
C35	C	1.349544	0.506230	-0.506464
C36	C	1.073357	0.232139	-0.506425
C37	C	1.073384	0.115363	-0.506445
C38	C	1.120837	0.950778	-0.439277
C39	C	1.120882	1.060502	-0.439309
C40	C	1.025843	1.060493	-0.573560
C41	C	1.025802	0.950771	-0.573532
C42	C	1.175704	0.950784	-0.361765
C43	C	1.175750	1.060508	-0.361797
C44	C	1.120851	0.573210	-0.952053
C45	C	1.120873	0.573165	-1.061778
C46	C	1.025918	0.438756	-1.061766
C47	C	1.025900	0.438796	-0.952044
C48	C	1.175670	0.650813	-0.952061
C49	C	1.175693	0.650768	-1.061785
C50	C	1.073284	0.506197	-0.233413
C51	C	1.073406	0.505944	-0.116637
H52	H	0.619969	0.376552	-0.377013
C53	C	0.519701	0.300917	-0.561730
N54	N	0.497646	0.218469	-0.583953
C55	C	1.147876	0.904913	-0.257304
N56	N	1.126907	0.870362	-0.178628
C57	C	0.627510	0.711544	-0.450827
N58	N	0.649479	0.794009	-0.428495
C59	C	0.627821	0.451370	-0.711757
N60	N	0.649971	0.429320	-0.794227
H61	H	1.160271	0.732123	-1.091546
H62	H	0.527179	0.553364	-0.329393
C63	C	0.973707	0.364808	-1.122116
N64	N	0.934379	0.309109	-1.167570
C65	C	0.973541	0.890427	-0.647405
N66	N	0.934186	0.844976	-0.703064
H67	H	0.527528	0.636023	-0.635709
H68	H	0.987239	0.384083	-0.907379
C69	C	0.973596	1.120844	-0.647411
N70	N	0.934240	1.166299	-0.703035
C71	C	1.253381	0.910451	-0.391305
N72	N	1.311885	0.880072	-0.413555
H73	H	1.155050	0.728117	-0.918008
H74	H	1.160385	1.090367	-0.280413
C75	C	1.249570	1.106380	-0.401273
N76	N	1.305171	1.140932	-0.431004
C77	C	1.253372	0.621398	-0.911862
N78	N	1.311895	0.599238	-0.881584
C79	C	1.249526	0.611402	-1.107795
N80	N	1.305136	0.581751	-1.142451
