data_functionalizedCrystal
_audit_creation_method	'MofGen! by Chris Wilmer'
_symmetry_space_group_name_H-M	'P1'
_symmetry_Int_Tables_number	1
_symmetry_cell_setting	triclinic
loop_
_symmetry_equiv_pos_as_xyz
  x,y,z
_cell_length_a	10.540514
_cell_length_b	9.616153
_cell_length_c	11.026607
_cell_angle_alpha	90.000475
_cell_angle_beta	83.449412
_cell_angle_gamma	90.007401
loop_
_atom_site_label
_atom_site_type_symbol
_atom_site_fract_x
_atom_site_fract_y
_atom_site_fract_z
O1	O	1.723411	0.115659	-0.171200
O2	O	2.223411	0.615659	0.328800
O3	O	1.357537	0.115658	-0.187377
O4	O	1.857537	0.615658	0.312623
O5	O	1.510151	0.115653	-0.002375
O6	O	2.010151	0.615653	0.497625
O7	O	1.570797	0.115664	-0.356202
O8	O	2.070797	0.615664	0.143798
O9	O	1.510125	-0.115638	-0.002379
O10	O	2.010125	0.384362	0.497621
O11	O	1.357511	-0.115633	-0.187381
O12	O	1.857511	0.384367	0.312619
O13	O	1.723385	-0.115632	-0.171204
O14	O	2.223385	0.384368	0.328796
Zn15	Zn	1.540444	-0.152355	-0.179293
Zn16	Zn	2.040444	0.347645	0.320707
Zn17	Zn	1.540478	0.152381	-0.179288
Zn18	Zn	2.040478	0.652381	0.320712
O19	O	1.570771	-0.115628	-0.356206
O20	O	2.070771	0.384372	0.143794
C21	C	1.309956	0.000012	-0.186172
C22	C	1.809956	0.500012	0.313828
C23	C	1.168216	0.000012	-0.182562
C24	C	1.668216	0.500012	0.317438
C25	C	1.126492	0.000018	-0.314873
C26	C	1.626492	0.500018	0.185127
C27	C	0.979066	0.000550	-0.311162
C28	C	1.479066	0.500550	0.188838
C29	C	0.960131	0.131839	-0.110603
C30	C	1.460131	0.631839	0.389397
C31	C	1.107689	0.131943	-0.115252
C32	C	1.607689	0.631943	0.384748
C33	C	1.107633	-0.131088	-0.113298
C34	C	1.607633	0.368912	0.386702
C35	C	0.960375	-0.132813	-0.112022
C36	C	1.460375	0.367187	0.387978
N37	N	1.540430	-0.360330	-0.179296
N38	N	2.040430	0.139670	0.320704
C39	C	1.458403	-0.580697	-0.277927
C40	C	1.958403	-0.080697	0.222073
C41	C	1.458713	-0.419530	-0.278297
C42	C	1.958713	0.080470	0.221703
C43	C	1.679474	-0.418778	-0.208146
C44	C	2.179474	0.081222	0.291854
C45	C	1.679063	-0.579996	-0.208845
C46	C	2.179063	-0.079996	0.291155
C47	C	1.484663	-0.580245	-0.051490
C48	C	1.984663	-0.080245	0.448510
C49	C	1.481798	-0.419018	-0.052319
C50	C	1.981798	0.080982	0.447681
C51	C	1.770966	0.000017	-0.172409
C52	C	2.270966	0.500017	0.327591
C53	C	1.912706	0.000027	-0.176019
C54	C	2.412706	0.500027	0.323981
C55	C	1.498949	0.000009	0.042930
C56	C	1.998949	0.500009	0.542930
C57	C	1.465597	0.000014	0.177930
C58	C	1.965597	0.500014	0.677930
N59	N	1.540500	0.360356	-0.179276
N60	N	2.040500	0.860356	0.320724
C61	C	1.581972	0.000020	-0.401511
C62	C	2.081972	0.500020	0.098489
C63	C	1.615325	0.000024	-0.536511
C64	C	2.115325	0.500024	-0.036511
C65	C	1.557689	0.000017	0.250945
C66	C	2.057689	0.500017	0.750945
C67	C	1.523220	0.000022	0.390475
C68	C	2.023220	0.500022	0.890475
H69	H	0.948566	0.095598	-0.362391
H70	H	1.448566	0.595598	0.137609
H71	H	1.743601	-0.618986	-0.139886
H72	H	2.243601	-0.118986	0.360114
F73	F	1.158277	0.261228	-0.177695
F74	F	1.658277	0.761228	0.322305
F75	F	1.142615	0.139287	0.011782
F76	F	1.642615	0.639287	0.511782
H77	H	1.356293	-0.380016	-0.260939
H78	H	1.856293	0.119984	0.239061
F79	F	0.902549	0.137761	0.019136
F80	F	1.402549	0.637761	0.519136
H81	H	1.719694	0.000129	0.422710
H82	H	2.219694	0.500129	0.922710
F83	F	1.762799	-0.368658	-0.116793
F84	F	2.262799	0.131342	0.383207
H85	H	1.418851	0.000030	0.431256
H86	H	1.918851	0.500030	0.931256
H87	H	0.927357	0.230311	-0.155440
H88	H	1.427357	0.730311	0.344560
H89	H	1.361235	0.000023	0.218717
H90	H	1.861235	0.500023	0.718717
H91	H	1.383910	-0.620984	-0.024029
H92	H	1.883910	-0.120984	0.475971
F93	F	0.938014	-0.122919	-0.378421
F94	F	1.438014	0.377081	0.121579
F95	F	1.141480	-0.132771	0.014255
F96	F	1.641480	0.367229	0.514255
H97	H	1.724562	-0.378384	-0.300321
H98	H	2.224562	0.121616	0.199679
H99	H	1.166778	-0.094492	-0.368549
H100	H	1.666778	0.405508	0.131451
F101	F	1.347913	-0.369093	-0.023733
F102	F	1.847913	0.130907	0.476267
H103	H	0.914612	-0.141168	-0.013516
H104	H	1.414612	0.358832	0.486484
F105	F	1.161393	-0.261719	-0.170867
F106	F	1.661393	0.238281	0.329133
H107	H	0.929840	-0.230330	-0.159828
H108	H	1.429840	0.269670	0.340172
F109	F	1.181152	0.123391	-0.384002
F110	F	1.681152	0.623391	0.115998
H111	H	1.355734	-0.619509	-0.260837
H112	H	1.855734	-0.119509	0.239163
F113	F	1.508497	-0.633604	-0.401149
F114	F	2.008497	-0.133604	0.098851
H115	H	1.497378	-0.380947	-0.373103
H116	H	1.997378	0.119053	0.126897
H117	H	1.723838	-0.617581	-0.302073
H118	H	2.223838	-0.117581	0.197927
F119	F	1.551963	-0.366368	0.048246
F120	F	2.051963	0.133632	0.548246
H121	H	1.662050	0.000008	0.210158
H122	H	2.162050	0.500008	0.710158
F123	F	1.562470	-0.630068	0.044484
F124	F	2.062470	-0.130068	0.544484
