data_functionalizedCrystal
_audit_creation_method	'MofGen! by Chris Wilmer'
_symmetry_space_group_name_H-M	'P1'
_symmetry_Int_Tables_number	1
_symmetry_cell_setting	triclinic
loop_
_symmetry_equiv_pos_as_xyz
  x,y,z
_cell_length_a	14.044220
_cell_length_b	12.837942
_cell_length_c	11.892095
_cell_angle_alpha	85.697431
_cell_angle_beta	94.249598
_cell_angle_gamma	94.008909
loop_
_atom_site_label
_atom_site_type_symbol
_atom_site_fract_x
_atom_site_fract_y
_atom_site_fract_z
O1	O	-1.285971	-0.245911	-0.093880
O2	O	-0.785971	0.254089	0.406120
O3	O	-1.009182	-0.236815	-0.093908
O4	O	-0.509182	0.263185	0.406092
O5	O	-1.141439	-0.089893	-0.093888
O6	O	-0.641439	0.410107	0.406112
O7	O	-1.153714	-0.392833	-0.093900
O8	O	-0.653714	0.107167	0.406100
O9	O	-1.130409	-0.102123	0.094118
O10	O	-0.630409	0.397877	0.594118
O11	O	-0.998153	-0.249045	0.094097
O12	O	-0.498153	0.250955	0.594097
O13	O	-1.274942	-0.258141	0.094126
O14	O	-0.774942	0.241859	0.594126
Zn15	Zn	-1.134796	-0.255535	0.123962
Zn16	Zn	-0.634796	0.244465	0.623962
Zn17	Zn	-1.149328	-0.239422	-0.123744
Zn18	Zn	-0.649328	0.260578	0.376256
O19	O	-1.142685	-0.405063	0.094105
O20	O	-0.642685	0.094937	0.594105
C21	C	-0.967994	-0.238949	0.000091
C22	C	-0.467994	0.261051	0.500091
C23	C	-0.861696	-0.227074	0.000080
C24	C	-0.361696	0.272926	0.500080
C25	C	-1.131777	-0.057004	0.000114
C26	C	-0.631777	0.442996	0.500114
C27	C	-1.119410	0.059217	0.000111
C28	C	-0.619410	0.559217	0.500111
C29	C	-1.316130	-0.256007	0.000124
C30	C	-0.816130	0.243993	0.500124
C31	C	-1.422428	-0.267882	0.000128
C32	C	-0.922428	0.232118	0.500128
C33	C	-0.667072	-0.205367	0.000103
C34	C	-0.167072	0.294633	0.500103
C35	C	-0.617046	-0.289584	0.000104
C36	C	-0.117046	0.210416	0.500104
C37	C	-0.508751	-0.277506	0.000117
C38	C	-0.008751	0.222494	0.500117
C39	C	-0.775377	-0.217443	0.000090
C40	C	-0.275377	0.282557	0.500090
C41	C	-1.152347	-0.437952	0.000101
C42	C	-0.652347	0.062048	0.500101
C43	C	-1.164714	-0.554172	0.000097
C44	C	-0.664714	-0.054172	0.500097
N45	N	-1.124886	-0.266531	0.293014
N46	N	-0.624886	0.233469	0.793014
C47	C	-1.268090	0.286428	0.000103
C48	C	-0.768090	0.786428	0.500103
C49	C	-1.256474	0.395628	0.000100
C50	C	-0.756474	0.895628	0.500100
C51	C	-1.084564	0.386820	0.000094
C52	C	-0.584564	0.886820	0.500094
C53	C	-1.096180	0.277620	0.000097
C54	C	-0.596180	0.777620	0.500097
C55	C	-1.187946	0.227427	0.000103
C56	C	-0.687946	0.727427	0.500103
C57	C	-1.199560	0.118225	0.000114
C58	C	-0.699560	0.618225	0.500114
C59	C	-1.027652	0.109419	0.000100
C60	C	-0.527652	0.609419	0.500100
C61	C	-1.016036	0.218619	0.000097
C62	C	-0.516036	0.718619	0.500097
N63	N	-1.159245	-0.228418	-0.292797
N64	N	-0.659245	0.271582	0.207203
C65	C	-1.228200	-0.151838	0.529678
C66	C	-0.728200	0.348162	1.029678
C67	C	-1.221281	-0.159533	0.648019
C68	C	-0.721281	0.340467	1.148019
C69	C	-1.104122	-0.289609	0.648039
C70	C	-0.604122	0.210391	1.148039
C71	C	-1.111042	-0.281915	0.529698
C72	C	-0.611042	0.218085	1.029698
C73	C	-1.173084	-0.213028	0.470522
C74	C	-0.673084	0.286972	0.970522
C75	C	-1.180008	-0.205339	0.352179
C76	C	-0.680008	0.294661	0.852179
C77	C	-1.062846	-0.335410	0.352201
C78	C	-0.562846	0.164590	0.852201
C79	C	-1.055926	-0.343104	0.470542
C80	C	-0.555926	0.156896	0.970542
H81	H	-0.655549	-0.370756	0.000096
H82	H	-0.155549	0.129244	0.500096
F83	F	-1.004189	-0.400540	0.289231
F84	F	-0.504189	0.099460	0.789231
H85	H	-1.005410	-0.399188	0.518736
H86	H	-0.505410	0.100812	1.018736
H87	H	-0.628571	-0.124202	0.000113
H88	H	-0.128571	0.375798	0.500113
H89	H	-1.274280	0.077360	0.000123
H90	H	-0.774280	0.577360	0.500123
F91	F	-1.365750	0.233005	0.000133
F92	F	-0.865750	0.733005	0.500133
F93	F	-1.294239	-0.078535	0.466698
F94	F	-0.794239	0.421465	0.966698
F95	F	-1.038087	-0.362909	0.711031
F96	F	-0.538087	0.137091	1.211031
F97	F	-1.246041	-0.132028	0.289202
F98	F	-0.746041	0.367972	0.789202
F99	F	-1.341775	0.458417	0.000096
F100	F	-0.841775	0.958417	0.500096
H101	H	-1.009854	0.427706	0.000076
H102	H	-0.509854	0.927706	0.500076
H103	H	-0.941323	0.259501	0.000087
H104	H	-0.441323	0.759501	0.500087
F105	F	-0.942350	0.046618	0.000112
F106	F	-0.442350	0.546618	0.500112
H107	H	-1.266160	-0.109705	0.696181
H108	H	-0.766160	0.390295	1.196181
