data_functionalizedCrystal
_audit_creation_method	'MofGen! by Chris Wilmer'
_symmetry_space_group_name_H-M	'P1'
_symmetry_Int_Tables_number	1
_symmetry_cell_setting	triclinic
loop_
_symmetry_equiv_pos_as_xyz
  x,y,z
_cell_length_a	9.016244
_cell_length_b	15.944557
_cell_length_c	10.540510
_cell_angle_alpha	95.992660
_cell_angle_beta	89.995643
_cell_angle_gamma	90.000226
loop_
_atom_site_label
_atom_site_type_symbol
_atom_site_fract_x
_atom_site_fract_y
_atom_site_fract_z
O1	O	-0.123268	-1.115482	0.163758
O2	O	-0.123284	-0.871052	0.183933
O3	O	-0.123275	-0.998857	-0.010939
O4	O	-0.123277	-0.987678	0.358630
O5	O	0.123405	-0.998852	-0.010954
O6	O	0.123397	-0.871047	0.183919
O7	O	0.123412	-1.115478	0.163743
Cu8	Cu	0.145928	-0.993262	0.173829
Cu9	Cu	-0.145800	-0.993268	0.173847
O10	O	0.123404	-0.987673	0.358616
C11	C	0.000054	-0.839751	0.183087
C12	C	0.000048	-0.746490	0.180572
N13	N	0.351115	-0.993264	0.173816
C14	C	0.000072	-0.475103	0.052259
C15	C	0.121700	-0.526047	0.114108
C16	C	0.000083	-0.410796	0.171601
C17	C	-0.121508	-0.526032	0.114155
C18	C	0.000063	-0.575734	0.176002
C19	C	0.121812	-0.460511	0.233418
C20	C	-0.121506	-0.460493	0.233447
C21	C	0.000152	-0.511404	0.295384
C22	C	0.000095	-0.315779	0.169062
C23	C	0.000061	-0.670748	0.178550
C24	C	0.586106	-1.061887	0.069925
C25	C	0.414215	-1.061702	0.069535
C26	C	0.413534	-0.905460	0.144877
C27	C	0.585479	-0.905868	0.144149
C28	C	0.585619	-1.011678	0.307016
C29	C	0.413663	-1.013659	0.306117
N30	N	0.649014	-0.993275	0.173849
C31	C	0.000062	-0.998021	-0.058239
C32	C	0.000053	-0.995529	-0.199155
C33	C	0.000078	-0.146780	0.164572
C34	C	0.000097	-0.240045	0.167036
C35	C	0.000624	-1.084314	-0.417816
C36	C	0.000060	-1.086973	-0.271257
C37	C	-0.140814	-0.948721	-0.243269
C38	C	-0.140924	-0.946710	-0.390003
C39	C	0.139598	-0.944800	-0.389803
C40	C	0.141452	-0.949138	-0.243520
C41	C	0.000063	-0.988508	0.405915
C42	C	0.000062	-0.991001	0.546831
H43	H	0.000191	-0.458845	-0.050524
H44	H	-0.146056	-0.881402	-0.194966
F45	F	-0.255904	-0.563445	0.048261
H46	H	-0.224337	-0.431845	0.283810
H47	H	-0.245642	-0.981231	-0.212848
F48	F	0.360114	-0.837070	0.241171
H49	H	0.245664	-0.983197	-0.215377
H50	H	0.246375	-0.973858	-0.432385
F51	F	0.637923	-0.884825	0.017209
H52	H	0.224751	-0.431996	0.283775
F53	F	0.152567	-0.861874	-0.178206
F54	F	0.140836	-0.855062	-0.417537
H55	H	0.224528	-0.554679	0.063701
F56	F	0.357271	-0.883922	0.019377
F57	F	0.000236	-0.532443	0.429833
H58	H	0.101647	-1.119938	-0.460261
F59	F	0.642276	-1.093638	0.343366
H60	H	0.372011	-1.126945	0.086769
H61	H	0.373096	-1.049861	-0.029293
H62	H	-0.099823	-1.119736	-0.461797
H63	H	0.627450	-1.127349	0.086884
H64	H	0.629332	-1.050216	-0.028339
F65	F	0.639878	-0.837076	0.239318
F66	F	0.360329	-1.098087	0.334830
H67	H	0.370707	-0.966983	0.387072
F68	F	0.638800	-0.946293	0.408102
F69	F	0.132063	-1.134826	-0.233553
H70	H	-0.101088	-1.123814	-0.243346
F71	F	-0.278548	-0.988531	-0.443132
F72	F	-0.149294	-0.857316	-0.418849
