data_functionalizedCrystal
_audit_creation_method	'MofGen! by Chris Wilmer'
_symmetry_space_group_name_H-M	'P1'
_symmetry_Int_Tables_number	1
_symmetry_cell_setting	triclinic
loop_
_symmetry_equiv_pos_as_xyz
  x,y,z
_cell_length_a	10.686220
_cell_length_b	21.295418
_cell_length_c	10.686551
_cell_angle_alpha	94.410765
_cell_angle_beta	89.691918
_cell_angle_gamma	94.409456
loop_
_atom_site_label
_atom_site_type_symbol
_atom_site_fract_x
_atom_site_fract_y
_atom_site_fract_z
Zn1	Zn	1.972219	-0.153472	0.562359
Zn2	Zn	1.955938	-0.267411	0.352580
Zn3	Zn	1.746330	-0.169575	0.368673
Zn4	Zn	1.762369	-0.266136	0.578358
O5	O	1.859214	-0.214148	0.465493
O6	O	2.145604	-0.162381	0.521100
O7	O	1.914607	-0.261706	0.179168
O8	O	1.776396	-0.079344	0.394406
O9	O	2.133643	-0.246091	0.366977
O10	O	1.942355	-0.067513	0.536706
O11	O	1.760609	-0.189827	0.190992
O12	O	1.572913	-0.188590	0.409919
O13	O	1.803732	-0.243917	0.751782
O14	O	1.584697	-0.259532	0.563974
O15	O	1.957907	-0.161144	0.740028
O16	O	1.930160	-0.355337	0.382490
O17	O	1.787945	-0.354400	0.548368
C18	C	1.533288	-0.225670	0.490430
C19	C	1.393858	-0.230613	0.501128
C20	C	1.859063	-0.377708	0.465444
C21	C	1.859116	-0.447673	0.465456
C22	C	1.933582	-0.947574	0.379299
C23	C	1.933532	-0.881835	0.379273
C24	C	1.859397	-0.848498	0.465567
C25	C	1.785283	-0.880908	0.551872
C26	C	1.785325	-0.946647	0.551887
N27	N	1.858077	-0.741057	0.576087
N28	N	1.858044	-0.678608	0.576068
C29	C	1.859263	-0.650430	0.465524
N30	N	1.860540	-0.687060	0.354995
N31	N	1.860580	-0.749515	0.355015
C32	C	1.859342	-0.777215	0.465559
C33	C	1.933311	-0.546746	0.379190
C34	C	1.933253	-0.481006	0.379163
C35	C	1.785011	-0.480079	0.551773
C36	C	1.785063	-0.545819	0.551789
C37	C	1.859220	-0.579148	0.465500
C38	C	2.186413	-0.202582	0.440459
C39	C	2.325845	-0.197653	0.429791
C40	C	1.884425	-0.200592	0.792695
C41	C	1.895168	-0.194815	0.932129
C42	C	1.859402	-0.049948	0.465566
C43	C	1.859482	0.020024	0.465598
C44	C	1.834173	-0.227604	0.139557
C45	C	1.823673	-0.233195	0.000105
H46	H	1.374285	-0.165654	0.360531
O47	O	2.005636	-0.979856	0.295350
C48	C	2.071051	-0.937153	0.219194
H49	H	2.019305	-0.892313	0.218731
H50	H	2.169826	-0.924839	0.257927
C51	C	2.142532	-1.022787	0.084877
C52	C	2.078971	-0.967716	0.084299
H53	H	2.147423	-1.041640	0.001668
H54	H	2.098465	-1.051557	0.136186
H55	H	2.224838	-1.012518	0.117160
H56	H	1.996662	-0.977987	0.052031
H57	H	2.123024	-0.938948	0.032981
H58	H	1.345412	-0.262619	0.570384
H59	H	1.964607	-0.157536	0.980609
O60	O	2.005330	-0.850333	0.295325
C61	C	1.927717	-0.818220	0.219709
H62	H	1.828334	-0.841895	0.219420
H63	H	1.926310	-0.766941	0.258825
C64	C	2.101153	-0.791353	0.085015
C65	C	1.979091	-0.820434	0.084652
H66	H	2.132844	-0.792716	0.001707
H67	H	2.153444	-0.812986	0.135961
H68	H	2.099964	-0.748623	0.117618
H69	H	1.980284	-0.863165	0.052065
H70	H	1.926801	-0.798809	0.033698
H71	H	1.754248	-0.270476	0.951630
O72	O	1.713184	-0.447664	0.635720
C73	C	1.790750	-0.403696	0.711317
H74	H	1.890162	-0.419643	0.711598
H75	H	1.792079	-0.355333	0.672189
C76	C	1.617294	-0.379870	0.846026
C77	C	1.739391	-0.399460	0.846379
H78	H	1.585612	-0.377254	0.929337
H79	H	1.565034	-0.409491	0.795092
H80	H	1.618418	-0.339570	0.813413
H81	H	1.738263	-0.439763	0.878977
H82	H	1.791650	-0.369846	0.897321
H83	H	1.724727	-0.572200	0.622067
H84	H	1.724919	-0.853762	0.622132
O85	O	2.005046	-0.449514	0.295205
C86	C	1.927430	-0.417408	0.219579
H87	H	1.828047	-0.441083	0.219302
H88	H	1.926025	-0.366126	0.258677
C89	C	2.100860	-0.390554	0.084868
C90	C	1.978798	-0.419635	0.084520
H91	H	2.132547	-0.391925	0.001558
H92	H	2.153153	-0.412182	0.135821
H93	H	2.099673	-0.347822	0.117456
H94	H	1.979989	-0.462368	0.051947
H95	H	1.926506	-0.398014	0.033558
O96	O	1.713496	-0.978083	0.635898
C97	C	1.750407	-0.955821	0.758856
H98	H	1.851097	-0.933893	0.757603
H99	H	1.685615	-0.918709	0.796726
C100	C	1.618562	-1.038190	0.845244
C101	C	1.742236	-1.011262	0.843706
H102	H	1.613517	-1.072387	0.897586
H103	H	1.593691	-1.053187	0.762405
H104	H	1.564583	-1.007257	0.876799
H105	H	1.796210	-1.042192	0.812137
H106	H	1.767117	-0.996271	0.926542
O107	O	2.005364	-0.579033	0.295243
C108	C	2.070771	-0.536333	0.219076
H109	H	2.019021	-0.491495	0.218607
H110	H	2.169547	-0.524015	0.257805
C111	C	2.142256	-0.621971	0.084772
C112	C	2.078689	-0.566902	0.084186
H113	H	2.147146	-0.640827	0.001566
H114	H	2.098194	-0.650739	0.136089
H115	H	2.224563	-0.611698	0.117052
H116	H	1.996379	-0.577176	0.051922
H117	H	2.122738	-0.538136	0.032861
