data_functionalizedCrystal
_audit_creation_method	'MofGen! by Chris Wilmer'
_symmetry_space_group_name_H-M	'P1'
_symmetry_Int_Tables_number	1
_symmetry_cell_setting	triclinic
loop_
_symmetry_equiv_pos_as_xyz
  x,y,z
_cell_length_a	6.817900
_cell_length_b	16.305550
_cell_length_c	19.551136
_cell_angle_alpha	95.901577
_cell_angle_beta	101.650842
_cell_angle_gamma	103.455250
loop_
_atom_site_label
_atom_site_type_symbol
_atom_site_fract_x
_atom_site_fract_y
_atom_site_fract_z
V1	V	-4.017232	-0.263449	-0.097267
O2	O	-4.014218	-0.258007	0.004067
O3	O	-3.959878	-0.262059	-0.192281
O4	O	-3.968752	-0.378161	-0.096037
O5	O	-4.005283	-0.141101	-0.092843
V6	V	-4.502030	-0.248765	-0.085115
O7	O	-4.275692	-0.295660	-0.123924
O8	O	-4.693767	-0.216555	-0.058458
O9	O	-4.336178	-0.250156	0.009899
O10	O	-4.622441	-0.254208	-0.186449
O11	O	-4.631377	-0.371114	-0.089540
O12	O	-4.327304	-0.134054	-0.086345
C13	C	-3.802703	-0.258009	-0.215435
C14	C	-3.837096	-0.257636	-0.293112
C15	C	-3.814089	-0.180152	-0.319428
C16	C	-3.846476	-0.179776	-0.392412
C17	C	-3.901830	-0.256888	-0.439076
C18	C	-3.924849	-0.334384	-0.412752
C19	C	-3.892482	-0.334758	-0.339770
C20	C	-3.866302	-0.312801	-0.560212
C21	C	-3.898655	-0.312423	-0.633192
C22	C	-4.001672	-0.255738	-0.664177
C23	C	-4.072299	-0.199415	-0.622171
C24	C	-4.039932	-0.199789	-0.549189
C25	C	-3.936932	-0.256491	-0.518214
C26	C	-4.013783	-0.177841	-0.769630
C27	C	-4.046184	-0.177468	-0.842616
C28	C	-4.124538	-0.332078	-0.862954
C29	C	-4.092156	-0.332448	-0.789970
C30	C	-4.036770	-0.255327	-0.743312
C31	C	-3.814022	-0.406108	-0.092666
C32	C	-3.855608	-0.499888	-0.092289
C33	C	-4.006831	-0.840627	-0.090828
C34	C	-3.771184	-0.799680	-0.086493
C35	C	-3.727928	-0.702188	-0.087174
C36	C	-3.931806	-0.671582	-0.091553
C37	C	-4.092444	-0.722506	-0.160562
C38	C	-4.134344	-0.820053	-0.160172
C39	C	-4.067528	-0.794508	-0.026706
C40	C	-4.019649	-0.696663	-0.026160
C41	C	-3.889418	-0.576046	-0.091964
C42	C	-4.049227	-0.936164	-0.090421
C43	C	-4.156694	-0.254204	0.033049
C44	C	-4.101540	-0.254582	0.110725
C45	C	-4.145376	-0.106103	-0.089719
C46	C	-4.083028	-0.012322	-0.090092
H47	H	-4.156166	-0.153251	-0.647396
F48	F	-3.983771	-0.416452	-0.462416
F49	F	-3.867612	-0.651448	0.040559
F50	F	-3.954847	-0.095763	-0.719971
F51	F	-3.954400	-0.811689	0.041638
H52	H	-3.606028	-0.666951	-0.037556
F53	F	-3.916969	-0.417231	-0.311762
F54	F	-4.021718	-0.094994	-0.870623
F55	F	-3.638503	-0.815447	-0.021278
H56	H	-3.721825	-0.831390	-0.132562
F57	F	-4.014115	-0.700804	-0.224029
F58	F	-4.115105	-0.139852	-0.504486
F59	F	-4.116627	-0.414919	-0.761961
H60	H	-3.657183	-0.686095	-0.133774
H61	H	-3.769005	-0.117354	-0.281443
H62	H	-3.841138	-0.358283	-0.667388
H63	H	-4.167017	-0.675312	-0.025301
F64	F	-4.183467	-0.414148	-0.912613
F65	F	-3.756668	-0.373142	-0.527244
H66	H	-4.093700	-0.850643	-0.208714
H67	H	-4.245072	-0.703617	-0.166262
F68	F	-4.360819	-0.856675	-0.168069
H69	H	-4.239356	-0.821335	-0.029269
H70	H	-3.827737	-0.116676	-0.413843
