data_functionalizedCrystal
_audit_creation_method	'MofGen! by Chris Wilmer'
_symmetry_space_group_name_H-M	'P1'
_symmetry_Int_Tables_number	1
_symmetry_cell_setting	triclinic
loop_
_symmetry_equiv_pos_as_xyz
  x,y,z
_cell_length_a	11.295443
_cell_length_b	11.026607
_cell_length_c	11.026607
_cell_angle_alpha	108.586017
_cell_angle_beta	86.401923
_cell_angle_gamma	86.404776
loop_
_atom_site_label
_atom_site_type_symbol
_atom_site_fract_x
_atom_site_fract_y
_atom_site_fract_z
O1	O	0.099023	-1.736063	-0.542959
O2	O	0.099025	-1.369483	-0.482195
O3	O	0.099020	-1.522391	-0.329287
O4	O	0.099029	-1.583155	-0.695867
O5	O	-0.099033	-1.503713	-0.310606
O6	O	-0.099027	-1.350805	-0.463515
O7	O	-0.099029	-1.717385	-0.524278
Cu8	Cu	-0.117112	-1.532390	-0.492191
Cu9	Cu	0.117108	-1.554479	-0.514283
O10	O	-0.099024	-1.564477	-0.677187
C11	C	-0.000001	-1.312485	-0.461645
C12	C	-0.000000	-1.170471	-0.428228
C13	C	-0.000005	-1.501842	-0.272287
C14	C	-0.000000	-1.468426	-0.130273
N15	N	-0.281850	-1.516863	-0.476654
C16	C	-0.468882	-1.405104	-0.364831
C17	C	-0.344217	-1.416826	-0.376566
C18	C	-0.344157	-1.605185	-0.565011
C19	C	-0.468822	-1.593463	-0.553276
C20	C	-0.531180	-1.493418	-0.453184
C21	C	-0.655847	-1.481691	-0.441455
C22	C	-0.655785	-1.670054	-0.629893
C23	C	-0.531120	-1.681776	-0.641628
N24	N	0.281846	-1.570013	-0.529812
C25	C	-0.000001	-1.774384	-0.544828
C26	C	0.000006	-1.916398	-0.578246
C27	C	0.000003	-1.116822	-0.520498
C28	C	0.000004	-0.970043	-0.485963
C29	C	0.000003	-1.585026	-0.734187
C30	C	0.000007	-1.618443	-0.876201
C31	C	0.000001	-1.560695	-0.076624
C32	C	0.000005	-1.526160	0.070154
H33	H	-0.706617	-1.400226	-0.359958
F34	F	-0.000011	-1.088479	-0.291553
F35	F	0.000017	-1.389480	0.152139
F36	F	0.000011	-1.755126	0.041815
H37	H	-0.000007	-1.665258	-0.139357
F38	F	-0.535251	-1.298622	-0.258316
H39	H	-0.480331	-1.763233	-0.723118
F40	F	-0.277919	-1.322832	-0.282527
F41	F	-0.277771	-1.711660	-0.671518
F42	F	0.000011	-1.331752	-0.048284
H43	H	-0.000002	-1.179554	-0.625061
H44	H	-0.706521	-1.741959	-0.701844
F45	F	-0.000005	-0.998381	-0.714927
H46	H	0.000032	-0.907317	-0.381396
