data_functionalizedCrystal
_audit_creation_method	'MofGen! by Chris Wilmer'
_symmetry_space_group_name_H-M	'P1'
_symmetry_Int_Tables_number	1
_symmetry_cell_setting	triclinic
loop_
_symmetry_equiv_pos_as_xyz
  x,y,z
_cell_length_a	17.038275
_cell_length_b	15.186229
_cell_length_c	17.038272
_cell_angle_alpha	90.000406
_cell_angle_beta	88.889085
_cell_angle_gamma	89.993521
loop_
_atom_site_label
_atom_site_type_symbol
_atom_site_fract_x
_atom_site_fract_y
_atom_site_fract_z
O1	O	-1.048756	0.073248	0.170520
O2	O	-0.820944	0.073246	0.167815
O3	O	-0.933496	0.073240	0.055261
O4	O	-0.936204	0.073254	0.283073
O5	O	-0.933482	-0.073218	0.055267
O6	O	-0.820930	-0.073212	0.167820
O7	O	-1.048742	-0.073210	0.170526
Zn8	Zn	-0.934834	-0.096464	0.169174
Zn9	Zn	-0.934852	0.096500	0.169166
O10	O	-0.936190	-0.073204	0.283079
C11	C	-0.791645	0.000017	0.165355
C12	C	-0.704361	0.000016	0.158008
N13	N	-0.934827	-0.228156	0.169179
C14	C	-0.210935	0.000011	0.112871
C15	C	-0.292947	0.000007	0.119781
C16	C	-0.329347	0.000016	0.194154
C17	C	-0.283730	0.000020	0.261622
C18	C	-0.201720	0.000018	0.254712
C19	C	-0.576734	0.000018	0.218566
C20	C	-0.658751	0.000022	0.225471
C21	C	-0.667962	0.000008	0.083629
C22	C	-0.585949	0.000011	0.076725
C23	C	-0.540340	0.000010	0.144193
C24	C	-0.413176	0.000015	0.201218
C25	C	-0.456513	0.000005	0.137128
C26	C	-0.985639	-0.453876	0.219994
C27	C	-0.985647	-0.546065	0.219989
C28	C	-0.884051	-0.546082	0.118335
C29	C	-0.884047	-0.453894	0.118337
C30	C	-0.934840	-0.407793	0.169171
C31	C	-0.934852	-0.592171	0.169164
C32	C	-0.934860	-0.692127	0.169158
C33	C	-0.934833	-0.307831	0.169176
C34	C	-0.078041	0.000019	0.172986
C35	C	-0.165325	0.000018	0.180334
C36	C	-0.931026	0.000011	0.025972
C37	C	-0.923678	0.000011	-0.061312
N38	N	-0.934864	0.228193	0.169155
C39	C	-0.991142	0.000011	-0.106922
C40	C	-0.984233	0.000019	-0.188934
C41	C	-0.909860	0.000022	-0.225334
C42	C	-0.842391	0.000025	-0.179718
C43	C	-0.849301	0.000023	-0.097708
C44	C	-0.885449	0.000033	-0.472722
C45	C	-0.878544	0.000033	-0.554738
C46	C	-1.020387	0.000029	-0.563948
C47	C	-1.027290	0.000022	-0.481936
C48	C	-0.959821	0.000029	-0.436327
C49	C	-0.902796	0.000027	-0.309163
C50	C	-0.966886	0.000030	-0.352499
C51	C	-0.938660	0.000027	0.312369
C52	C	-0.946008	0.000032	0.399652
H53	H	-0.330080	-0.000002	0.064844
O54	O	-1.034869	-0.409054	0.269450
C55	C	-0.990549	-0.355722	0.319817
H56	H	-0.928620	-0.383513	0.324060
H57	H	-1.019581	-0.354674	0.380657
H58	H	-0.987607	-0.285853	0.295464
O59	O	-0.834623	-0.409260	0.068939
C60	C	-0.789802	-0.469715	0.024062
H61	H	-0.787379	-0.535432	0.056262
H62	H	-0.727725	-0.443085	0.015049
H63	H	-0.818056	-0.479514	-0.035413
O64	O	-0.694237	0.000051	0.297662
C65	C	-0.776401	0.000028	0.289289
H66	H	-0.791561	0.027767	0.229287
H67	H	-0.804636	0.042537	0.337214
H68	H	-0.799446	-0.070237	0.294598
H69	H	-1.027013	-0.583582	0.261373
H70	H	-0.442822	0.000025	0.261774
O71	O	-0.834733	-0.590999	0.069036
C72	C	-0.845595	-0.682250	0.079958
H73	H	-0.871911	-0.694822	0.140956
H74	H	-0.786590	-0.717265	0.074025
H75	H	-0.887065	-0.708452	0.033727
O76	O	-1.063449	0.000050	-0.071692
C77	C	-1.121511	0.000033	-0.129539
H78	H	-1.095795	0.027759	-0.186647
H79	H	-1.173111	0.042556	-0.109067
H80	H	-1.142579	-0.070229	-0.139679
O81	O	-1.049746	0.000175	-0.233269
C82	C	-1.049998	0.076021	-0.280990
H83	H	-1.011838	0.129035	-0.253660
H84	H	-1.112647	0.101481	-0.285987
H85	H	-1.025712	0.058879	-0.341910
O86	O	-0.770084	0.000069	-0.214949
C87	C	-0.712021	0.000049	-0.157103
H88	H	-0.737741	0.027775	-0.099993
H89	H	-0.660429	0.042572	-0.177575
H90	H	-0.690940	-0.070213	-0.146965
O91	O	-0.421247	0.000116	0.064842
C92	C	-0.444076	0.075979	0.023390
H93	H	-0.502315	0.101269	0.048565
H94	H	-0.451087	0.058919	-0.041254
H95	H	-0.397285	0.129092	0.029338
H96	H	-1.087853	0.000020	-0.452305
H97	H	-0.842241	0.000027	-0.338809
H98	H	-1.075316	0.000025	-0.601091
O99	O	-0.806234	0.000084	-0.589972
C100	C	-0.748165	0.000072	-0.532132
H101	H	-0.773883	0.027795	-0.475021
H102	H	-0.696580	0.042601	-0.552609
H103	H	-0.727076	-0.070187	-0.521996
O104	O	-0.532554	0.000061	0.284183
C105	C	-0.582270	0.000051	0.351305
H106	H	-0.642081	0.027781	0.335433
H107	H	-0.555358	0.042575	0.398908
H108	H	-0.589574	-0.070209	0.373852
O109	O	-0.783790	0.000177	-0.053365
C110	C	-0.783563	0.076017	-0.005637
H111	H	-0.821732	0.129032	-0.032967
H112	H	-0.720920	0.101480	-0.000630
H113	H	-0.807852	0.058868	0.055279
O114	O	-0.175706	-0.000034	0.040564
C115	C	-0.233553	-0.000020	-0.017498
H116	H	-0.290659	-0.027744	0.008222
H117	H	-0.213078	-0.042546	-0.069092
H118	H	-0.243700	0.070241	-0.038575
O119	O	-0.550719	-0.000045	0.004418
C120	C	-0.608563	-0.000031	-0.053647
H121	H	-0.665671	-0.027752	-0.027928
H122	H	-0.588086	-0.042562	-0.105238
H123	H	-0.618706	0.070228	-0.074728
H124	H	-0.830511	0.000039	-0.435596
O125	O	-1.039173	-0.000088	-0.317235
C126	C	-1.080613	-0.075953	-0.340058
H127	H	-1.055433	-0.101241	-0.398295
H128	H	-1.145259	-0.058897	-0.347072
H129	H	-1.074658	-0.129066	-0.293263
H130	H	-0.313374	0.000022	0.322179
O131	O	-0.157445	0.000184	0.320269
C132	C	-0.174700	0.076031	0.365105
H133	H	-0.199945	0.129043	0.325505
H134	H	-0.118678	0.101492	0.392727
H135	H	-0.219428	0.058889	0.413339
H136	H	-0.705105	0.000007	0.028700
