data_functionalizedCrystal
_audit_creation_method	'MofGen! by Chris Wilmer'
_symmetry_space_group_name_H-M	'P1'
_symmetry_Int_Tables_number	1
_symmetry_cell_setting	triclinic
loop_
_symmetry_equiv_pos_as_xyz
  x,y,z
_cell_length_a	19.077236
_cell_length_b	29.839132
_cell_length_c	19.077258
_cell_angle_alpha	87.684023
_cell_angle_beta	89.918181
_cell_angle_gamma	87.662196
loop_
_atom_site_label
_atom_site_type_symbol
_atom_site_fract_x
_atom_site_fract_y
_atom_site_fract_z
Zn1	Zn	1.058141	0.140570	0.440521
Zn2	Zn	1.062756	0.218572	0.322999
Zn3	Zn	0.945373	0.146580	0.318299
Zn4	Zn	0.940557	0.218805	0.435738
O5	O	1.001706	0.181132	0.379389
O6	O	1.157087	0.148305	0.428900
O7	O	1.051132	0.211440	0.224044
O8	O	0.960416	0.082913	0.334546
O9	O	1.160478	0.205613	0.342557
O10	O	1.043266	0.078498	0.424342
O11	O	0.964891	0.158548	0.220590
O12	O	0.846399	0.158774	0.329909
O13	O	0.952207	0.206009	0.534705
O14	O	0.842861	0.211837	0.416191
O15	O	1.038596	0.148531	0.538218
O16	O	1.046462	0.281473	0.337920
O17	O	0.956683	0.281644	0.420749
C18	C	0.819133	0.185983	0.372021
C19	C	0.741027	0.188069	0.368886
C20	C	0.702565	0.159255	0.412435
C21	C	0.629176	0.161213	0.409483
C22	C	0.594250	0.191986	0.362985
C23	C	0.632717	0.220801	0.319430
C24	C	0.706105	0.218841	0.322379
C25	C	0.374954	0.201042	0.349333
C26	C	0.301561	0.203001	0.346389
C27	C	0.298024	0.143412	0.436441
C28	C	0.371413	0.141456	0.439389
C29	C	0.409874	0.170269	0.395832
N30	N	0.519235	0.193989	0.359967
N31	N	0.484888	0.168264	0.398847
C32	C	1.001569	0.297859	0.379342
C33	C	1.001574	0.347793	0.379347
C34	C	1.048485	0.657329	0.336298
C35	C	1.048551	0.845000	0.336317
O36	O	1.088362	0.869175	0.299700
N37	N	1.001780	0.868572	0.379404
C38	C	0.954991	0.845223	0.422492
O39	O	0.915216	0.869578	0.459146
C40	C	0.954929	0.657553	0.422477
C41	C	1.001699	0.633984	0.379382
C42	C	1.095251	0.633760	0.293208
C43	C	1.095232	0.586845	0.293201
C44	C	1.048445	0.563499	0.336284
C45	C	1.001679	0.587069	0.379375
C46	C	0.908144	0.634205	0.465568
C47	C	0.908134	0.587284	0.465562
C48	C	0.954904	0.563715	0.422467
C49	C	0.954873	0.516809	0.422451
N50	N	1.001645	0.493237	0.379365
C51	C	1.048431	0.516582	0.336281
C52	C	0.955026	0.943753	0.422496
C53	C	0.955041	0.990670	0.422499
C54	C	1.048602	0.990444	0.336325
C55	C	1.048583	0.943526	0.336319
C56	C	1.001798	0.920181	0.379409
C57	C	1.048386	0.418058	0.336269
C58	C	1.048360	0.371139	0.336264
C59	C	0.954802	0.371369	0.422441
C60	C	0.954825	0.418284	0.422443
C61	C	1.001622	0.441627	0.379356
O62	O	0.915089	0.492604	0.459055
O63	O	1.088211	0.492218	0.299644
C64	C	1.048504	0.704244	0.336305
C65	C	1.001738	0.727813	0.379396
C66	C	0.954952	0.704468	0.422479
C67	C	1.001753	0.774730	0.379399
C68	C	1.048539	0.798076	0.336315
C69	C	1.095310	0.774504	0.293229
C70	C	1.095291	0.727589	0.293222
C71	C	0.908180	0.728040	0.465566
C72	C	0.908203	0.774954	0.465569
C73	C	0.954989	0.798300	0.422485
C74	C	1.184993	0.176262	0.386786
C75	C	1.263098	0.174187	0.389939
C76	C	0.994350	0.176625	0.562671
C77	C	0.991214	0.174705	0.640775
C78	C	1.001837	1.063949	0.379437
C79	C	1.001827	1.014015	0.379415
C80	C	1.034639	0.201339	0.679269
C81	C	1.031693	0.199529	0.752655
C82	C	0.985319	0.171087	0.787547
C83	C	0.941892	0.144450	0.749047
C84	C	0.944842	0.146258	0.675662
C85	C	0.971685	0.162725	1.006832
C86	C	0.968737	0.160920	1.080222
C87	C	1.058540	0.215999	1.083825
C88	C	1.061482	0.217807	1.010438
C89	C	1.018059	0.191168	0.971946
N90	N	0.982305	0.169237	0.862559
N91	N	1.021076	0.193015	0.896934
C92	C	1.009029	0.185632	1.196820
C93	C	1.012162	0.187554	1.118716
H94	H	0.730996	0.134197	0.450301
H95	H	0.597863	0.137751	0.444947
H96	H	0.406260	0.224503	0.313867
H97	H	1.133354	0.652762	0.258124
H98	H	0.399844	0.116399	0.477256
H99	H	1.133403	0.793520	0.258146
H100	H	0.930975	0.137755	1.108629
H101	H	0.870111	0.794141	0.500661
H102	H	0.909483	0.124568	0.644321
H103	H	0.916707	0.352354	0.457517
H104	H	1.086668	0.924338	0.301228
H105	H	0.266701	0.119954	0.471902
H106	H	0.936324	0.141035	0.975500
H107	H	0.870082	0.709035	0.500651
H108	H	1.072405	0.224499	0.650866
H109	H	1.086697	1.009459	0.301245
H110	H	0.916950	1.009856	0.457584
H111	H	1.093894	0.237686	1.115174
H112	H	0.904136	0.121289	0.777462
H113	H	0.273126	0.228062	0.308524
H114	H	0.737420	0.242303	0.286916
H115	H	0.604275	0.245855	0.281567
H116	H	1.133318	0.567657	0.258111
H117	H	0.916926	0.924748	0.457587
H118	H	1.099234	0.240975	0.982035
H119	H	1.086494	0.437058	0.301185
H120	H	1.086445	0.351950	0.301168
H121	H	1.067055	0.221218	0.783994
H122	H	0.870056	0.653387	0.500657
H123	H	0.870036	0.568279	0.500654
H124	H	1.133375	0.708402	0.258130
H125	H	0.916743	0.437475	0.457537
