data_functionalizedCrystal
_audit_creation_method	'MofGen! by Chris Wilmer'
_symmetry_space_group_name_H-M	'P1'
_symmetry_Int_Tables_number	1
_symmetry_cell_setting	triclinic
loop_
_symmetry_equiv_pos_as_xyz
  x,y,z
_cell_length_a	17.917559
_cell_length_b	23.096457
_cell_length_c	17.917559
_cell_angle_alpha	90.001221
_cell_angle_beta	60.143536
_cell_angle_gamma	63.039500
loop_
_atom_site_label
_atom_site_type_symbol
_atom_site_fract_x
_atom_site_fract_y
_atom_site_fract_z
Zr1	Zr	0.806761	0.590893	-0.128981
O2	O	0.951770	0.507833	-0.249493
O3	O	0.654554	0.612373	-0.087351
O4	O	0.796384	0.622879	-0.242740
O5	O	0.820636	0.493570	0.023138
O6	O	0.796386	0.718160	-0.242744
O7	O	0.809940	0.497327	-0.094104
O8	O	0.542678	0.699367	0.035218
O9	O	1.074343	0.512363	-0.254824
O10	O	0.719826	0.697453	-0.075262
O11	O	0.727806	0.623542	0.012238
O12	O	0.894793	0.635911	-0.170713
O13	O	0.902773	0.562000	-0.083213
Zr14	Zr	0.823821	0.736863	0.057999
Zr15	Zr	0.806763	0.742855	-0.128988
Zr16	Zr	0.823818	0.584901	0.058006
Zr17	Zr	1.002251	0.598118	-0.137484
Zr18	Zr	0.628331	0.729638	0.066503
O19	O	0.976028	0.715383	0.016369
O20	O	0.951774	0.723903	-0.249503
O21	O	0.976024	0.499313	0.016379
O22	O	0.678811	0.819923	0.178511
O23	O	0.654558	0.828443	-0.087361
O24	O	0.678808	0.603853	0.178521
O25	O	0.809946	0.834186	-0.094119
O26	O	0.834198	0.704877	0.171758
O27	O	0.834196	0.609596	0.171763
O28	O	0.820641	0.830429	0.023123
O29	O	1.074346	0.633152	-0.254830
O30	O	0.556236	0.694604	0.183848
O31	O	0.556238	0.815393	0.183843
O32	O	0.542680	0.820156	0.035213
O33	O	1.087902	0.507600	-0.106194
O34	O	1.087904	0.628389	-0.106200
O35	O	0.735789	0.691845	0.099731
O36	O	0.727809	0.765756	0.012231
O37	O	0.902776	0.704214	-0.083219
O38	O	0.910756	0.630303	0.004280
C39	C	0.570763	0.654841	-0.024855
C40	C	0.487772	0.651773	-0.021245
C41	C	0.294816	0.681536	-0.056386
C42	C	0.335771	0.646222	-0.014597
C43	C	0.420352	0.649312	-0.018297
C44	C	0.210227	0.678447	-0.052687
C45	C	0.815288	0.473797	-0.035482
C46	C	0.815286	0.409286	-0.035479
C47	C	0.723958	0.411104	0.014337
C48	C	0.723956	0.350489	0.014341
C49	C	0.815288	0.288055	-0.035489
C50	C	0.906629	0.286240	-0.085307
C51	C	0.906628	0.346855	-0.085302
N52	N	0.879591	0.170269	-0.112915
N53	N	0.879586	0.112689	-0.112918
C54	C	0.815296	0.105424	-0.035504
N55	N	0.750996	0.157918	0.041911
N56	N	0.750998	0.215504	0.041912
C57	C	0.815299	0.222325	-0.035499
C58	C	0.723960	0.041518	0.014320
C59	C	0.723963	-0.019100	0.014326
C60	C	0.906638	-0.083349	-0.085330
C61	C	0.906633	-0.022731	-0.085328
C62	C	0.815290	0.039700	-0.035504
C63	C	1.059819	0.672915	-0.046127
C64	C	1.142810	0.675983	-0.049737
C65	C	0.793954	0.671373	-0.269384
C66	C	0.786713	0.673917	-0.348765
C67	C	0.815294	0.853959	-0.035499
C68	C	0.815295	0.918470	-0.035502
C69	C	0.857084	0.649179	-0.576855
C70	C	0.773502	0.678575	-0.494124
C71	C	0.780855	0.675983	-0.413239
C72	C	0.849733	0.651771	-0.657748
C73	C	0.836627	0.656383	0.198402
C74	C	0.843869	0.653839	0.277783
C75	C	0.570766	0.844921	-0.024863
C76	C	0.487776	0.906366	-0.021257
C77	C	0.592099	0.647346	0.209038
C78	C	0.516350	0.641735	0.292029
C79	C	0.592102	0.837426	0.209029
C80	C	0.516354	0.896327	0.292017
C81	C	1.038479	0.490330	-0.280011
C82	C	1.114227	0.431429	-0.362999
C83	C	1.059816	0.482835	-0.046118
C84	C	1.142805	0.421390	-0.049725
C85	C	1.038483	0.680411	-0.280020
C86	C	1.114232	0.686022	-0.363010
C87	C	0.444636	0.899568	-0.065241
C88	C	0.366668	0.957296	-0.061870
C89	C	0.331836	1.021822	-0.014509
C90	C	0.374985	1.028619	0.029477
C91	C	0.452956	0.970892	0.026100
C92	C	0.484945	0.674753	0.376681
C93	C	0.413782	0.669478	0.454666
C94	C	0.374020	0.631189	0.447998
C95	C	0.405432	0.598167	0.363337
C96	C	0.476599	0.603438	0.285354
C97	C	0.476617	0.962574	0.285315
C98	C	0.405453	1.017924	0.363284
C99	C	0.374024	1.007025	0.447953
C100	C	0.413769	0.940771	0.454653
C101	C	0.484937	0.885423	0.376685
C102	C	1.153975	0.365182	-0.356297
C103	C	1.225162	0.309833	-0.434267
C104	C	1.256596	0.320732	-0.518936
C105	C	1.216845	0.386986	-0.525636
C106	C	1.145664	0.442334	-0.447668
C107	C	1.185953	0.428189	-0.005748
C108	C	1.263941	0.370462	-0.009141
C109	C	1.298775	0.305936	-0.056505
C110	C	1.255623	0.299139	-0.100487
C111	C	1.177642	0.356866	-0.097099
C112	C	1.153972	0.724316	-0.356313
C113	C	1.225137	0.729602	-0.434284
C114	C	1.256565	0.696588	-0.518952
C115	C	1.216818	0.658292	-0.525647
C116	C	1.145649	0.653011	-0.447677
H117	H	0.649583	0.351969	0.054907
C118	C	1.293937	0.228160	-0.152577
H119	H	1.257079	0.232371	-0.178291
H120	H	1.284754	0.201242	-0.112588
H121	H	1.363618	0.207079	-0.199001
C122	C	0.500406	0.978374	0.074486
H123	H	0.551839	0.934757	0.065691
H124	H	0.449900	0.999572	0.137004
H125	H	0.528770	1.005408	0.050595
H126	H	1.128386	0.356294	-0.287362
C127	C	1.334852	0.702398	-0.604714
H128	H	1.347878	0.677257	-0.656103
H129	H	1.395686	0.684779	-0.607356
H130	H	1.309276	0.748749	-0.603597
H131	H	1.142512	0.351320	-0.132908
C132	C	1.007094	0.344855	-0.140109
H133	H	1.061490	0.298992	-0.169790
H134	H	1.014661	0.365841	-0.100861
H135	H	1.007117	0.368490	-0.183506
H136	H	0.316074	1.052099	0.511432
H137	H	0.649589	-0.017614	0.054898
C138	C	1.268866	0.236962	-0.426881
H139	H	1.239933	0.238403	-0.365286
H140	H	1.340002	0.215360	-0.457263
H141	H	1.253602	0.212170	-0.453523
H142	H	0.346614	1.081164	0.068037
H143	H	1.314556	0.275659	-0.582416
C144	C	1.119409	0.760638	-0.263189
H145	H	1.153269	0.784205	-0.270380
H146	H	1.135019	0.728083	-0.232745
H147	H	1.048613	0.792049	-0.228997
C148	C	1.007091	0.217567	-0.140120
H149	H	0.994011	0.181727	-0.132996
H150	H	1.048389	0.212973	-0.119271
H151	H	1.040846	0.215631	-0.201917
H152	H	1.242418	0.631414	-0.594594
C153	C	0.482941	0.828597	-0.117348
H154	H	0.446081	0.832827	-0.143065
H155	H	0.473755	0.801668	-0.077375
H156	H	0.552622	0.807518	-0.163770
C157	C	0.361736	1.090795	0.355898
H158	H	0.390637	1.089353	0.294305
H159	H	0.377001	1.115592	0.382524
H160	H	0.290593	1.112391	0.386298
H161	H	1.242448	0.395853	-0.594583
H162	H	1.299063	0.376009	0.026678
C163	C	0.528684	0.716863	0.384033
H164	H	0.499791	0.735760	0.445622
H165	H	0.513429	0.752391	0.357397
H166	H	0.599826	0.688405	0.353631
H167	H	0.388169	0.931906	0.523602
C168	C	0.333255	0.725511	-0.108472
H169	H	0.296435	0.747267	-0.134203
H170	H	0.402933	0.697540	-0.154867
H171	H	0.324101	0.758867	-0.068468
H172	H	0.934158	0.622067	-0.586936
H173	H	0.268346	1.068822	-0.011765
H174	H	0.502195	0.971462	0.216380
H175	H	0.517282	0.831482	0.382155
H176	H	1.257492	0.760785	-0.428816
C177	C	0.297338	0.602237	0.037479
H178	H	0.244715	0.605897	0.033157
H179	H	0.272379	0.617493	0.098900
H180	H	0.351213	0.556176	0.012489
C181	C	1.384549	0.242440	-0.060224
H182	H	1.399125	0.203034	-0.094734
H183	H	1.364293	0.239635	-0.000919
H184	H	1.443157	0.245476	-0.087327
H185	H	0.331545	0.951749	-0.097689
H186	H	1.113302	0.496274	-0.453135
C187	C	0.669373	0.715196	-0.480498
H188	H	0.678028	0.712149	-0.537442
H189	H	0.632918	0.761595	-0.447822
H190	H	0.632939	0.694421	-0.447838
H191	H	0.981002	-0.024215	-0.125899
C192	C	1.147650	0.499160	0.046356
H193	H	1.184531	0.494932	0.072050
H194	H	1.077975	0.520243	0.092782
H195	H	1.156836	0.526085	0.006373
H196	H	0.388215	0.696372	0.523593
C197	C	0.295732	0.625401	0.533785
H198	H	0.282721	0.650557	0.585153
H199	H	0.321281	0.579058	0.532692
H200	H	0.234882	0.643033	0.536444
C201	C	1.007101	-0.152017	-0.140138
H202	H	0.994023	-0.187858	-0.133010
H203	H	1.048397	-0.156607	-0.119289
H204	H	1.040858	-0.153957	-0.201936
H205	H	0.502158	0.576552	0.216430
C206	C	1.101957	0.610873	-0.455050
H207	H	1.055067	0.612452	-0.396493
H208	H	1.155126	0.565108	-0.488481
H209	H	1.068706	0.629071	-0.484720
C210	C	0.623489	0.479775	0.069149
H211	H	0.636565	0.515617	0.062016
H212	H	0.589732	0.481710	0.130941
H213	H	0.582193	0.484368	0.048294
C214	C	0.623492	0.110191	0.069138
H215	H	0.569098	0.102591	0.098821
H216	H	0.615916	0.136504	0.029897
H217	H	0.623474	0.133841	0.112533
C218	C	0.361676	0.556060	0.356014
H219	H	0.314785	0.557662	0.414587
H220	H	0.414810	0.510286	0.322593
H221	H	0.328412	0.574271	0.326358
