data_functionalizedCrystal
_audit_creation_method	'MofGen! by Chris Wilmer'
_symmetry_space_group_name_H-M	'P1'
_symmetry_Int_Tables_number	1
_symmetry_cell_setting	triclinic
loop_
_symmetry_equiv_pos_as_xyz
  x,y,z
_cell_length_a	14.971482
_cell_length_b	10.654550
_cell_length_c	14.048226
_cell_angle_alpha	90.006871
_cell_angle_beta	90.005902
_cell_angle_gamma	84.048776
loop_
_atom_site_label
_atom_site_type_symbol
_atom_site_fract_x
_atom_site_fract_y
_atom_site_fract_z
O1	O	1.187840	0.163637	0.079149
O2	O	1.687840	0.663637	0.579149
O3	O	0.927546	0.183240	0.079154
O4	O	1.427546	0.683240	0.579154
O5	O	1.063677	-0.009365	0.079144
O6	O	1.563677	0.490635	0.579144
O7	O	1.051708	0.356242	0.079159
O8	O	1.551708	0.856242	0.579159
O9	O	1.063661	-0.009377	-0.079177
O10	O	1.563661	0.490623	0.420823
O11	O	0.927529	0.183229	-0.079167
O12	O	1.427529	0.683229	0.420833
O13	O	1.187823	0.163625	-0.079172
O14	O	1.687823	0.663625	0.420828
Zn15	Zn	1.057673	0.173425	-0.104307
Zn16	Zn	1.557673	0.673425	0.395693
Zn17	Zn	1.057695	0.173440	0.104289
Zn18	Zn	1.557695	0.673440	0.604289
O19	O	1.051691	0.356231	-0.079162
O20	O	1.551691	0.856231	0.420838
C21	C	0.894208	0.182359	-0.000006
C22	C	1.394208	0.682359	0.499994
C23	C	0.794896	0.179734	-0.000004
C24	C	1.294896	0.679734	0.499996
C25	C	1.062790	-0.056159	-0.000016
C26	C	1.562790	0.443841	0.499984
C27	C	1.060161	-0.195574	-0.000016
C28	C	1.560161	0.304426	0.499984
C29	C	0.748236	0.178491	-0.086306
C30	C	1.248236	0.678491	0.413694
C31	C	0.654924	0.176005	-0.086308
C32	C	1.154924	0.676005	0.413692
C33	C	0.608273	0.174770	-0.000006
C34	C	1.108273	0.674770	0.499994
C35	C	0.654940	0.176009	0.086303
C36	C	1.154940	0.676009	0.586303
C37	C	0.748252	0.178486	0.086303
C38	C	1.248252	0.678486	0.586303
C39	C	0.460450	0.170849	0.086297
C40	C	0.960450	0.670849	0.586297
C41	C	0.367133	0.168374	0.086297
C42	C	0.867133	0.668374	0.586297
C43	C	0.367123	0.168368	-0.086314
C44	C	0.867123	0.668368	0.413686
C45	C	0.460434	0.170845	-0.086314
C46	C	0.960434	0.670845	0.413686
C47	C	0.507094	0.172086	-0.000005
C48	C	1.007094	0.672086	0.499995
C49	C	1.056439	-0.392094	-0.086301
C50	C	1.556439	0.107906	0.413699
C51	C	1.058913	-0.261099	-0.086313
C52	C	1.558913	0.238901	0.413687
C53	C	1.058926	-0.261049	0.086298
C54	C	1.558926	0.238951	0.586298
C55	C	1.056447	-0.392041	0.086309
C56	C	1.556447	0.107959	0.586309
C57	C	1.056435	-0.392122	-0.185956
C58	C	1.556435	0.107878	0.314044
C59	C	1.058908	-0.261127	-0.185968
C60	C	1.558908	0.238873	0.314032
C61	C	1.221161	0.164507	-0.000010
C62	C	1.721161	0.664507	0.499990
C63	C	1.320472	0.167132	-0.000005
C64	C	1.820472	0.667132	0.499995
C65	C	1.052579	0.403025	0.000001
C66	C	1.552579	0.903025	0.500001
C67	C	1.055208	0.542440	0.000006
C68	C	1.555208	1.042440	0.500006
N69	N	1.057665	0.173414	-0.246667
N70	N	1.557665	0.673414	0.253333
C71	C	1.117963	0.088164	-0.296490
C72	C	1.617963	0.588164	0.203510
C73	C	1.117969	0.088163	-0.396147
C74	C	1.617969	0.588163	0.103853
C75	C	1.057681	0.173420	-0.445981
C76	C	1.557681	0.673420	0.054019
C77	C	0.997376	0.258674	-0.396151
C78	C	1.497376	0.758674	0.103849
C79	C	0.997366	0.258668	-0.296495
C80	C	1.497366	0.758668	0.203505
C81	C	0.997402	0.258683	-0.603866
C82	C	1.497402	0.758683	-0.103866
C83	C	0.997412	0.258692	-0.703528
C84	C	1.497412	0.758692	-0.203528
C85	C	1.118005	0.088179	-0.703517
C86	C	1.618005	0.588179	-0.203517
C87	C	1.117995	0.088172	-0.603862
C88	C	1.617995	0.588172	-0.103862
C89	C	1.057691	0.173429	-0.554039
C90	C	1.557691	0.673429	-0.054039
N91	N	1.057711	0.173441	0.246649
N92	N	1.557711	0.673441	0.746649
H93	H	0.786211	0.179507	-0.156584
H94	H	1.286211	0.679507	0.343416
F95	F	0.317462	0.167047	-0.178171
F96	F	0.817462	0.667047	0.321829
H97	H	0.948293	0.328104	-0.563303
H98	H	1.448293	0.828104	-0.063303
F99	F	0.973883	-0.423697	-0.235964
F100	F	1.473883	0.076303	0.264036
H101	H	0.498439	0.171860	0.156579
H102	H	0.998439	0.671860	0.656579
H103	H	0.616939	0.174973	-0.156583
H104	H	1.116939	0.674973	0.343417
H105	H	1.120132	-0.444530	-0.216875
H106	H	1.620132	0.055470	0.283125
H107	H	1.122063	-0.236994	-0.224233
H108	H	1.622063	0.263006	0.275767
H109	H	0.995203	-0.208740	-0.216896
H110	H	1.495203	0.291260	0.283104
F111	F	1.182185	-0.002555	-0.756546
F112	F	1.682185	0.497445	-0.256546
H113	H	0.498414	0.171858	-0.156589
H114	H	0.998414	0.671858	0.343411
H115	H	0.329152	0.167369	0.156572
H116	H	0.829152	0.667369	0.656572
H117	H	1.167091	0.018756	-0.563287
H118	H	1.667091	0.518756	-0.063287
F119	F	0.605292	0.174656	0.178152
F120	F	1.105292	0.674656	0.678152
H121	H	0.786241	0.179500	0.156579
H122	H	1.286241	0.679500	0.656579
F123	F	0.933243	0.349432	-0.756558
F124	F	1.433243	0.849432	-0.256558
F125	F	1.055122	-0.461708	0.178168
F126	F	1.555122	0.038292	0.678168
H127	H	1.167068	0.018745	-0.436712
H128	H	1.667068	0.518745	0.063288
F129	F	0.933207	0.349406	-0.449188
F130	F	1.433207	0.849406	0.050812
F131	F	0.933185	0.349400	-0.243472
F132	F	1.433185	0.849400	0.256528
F133	F	1.060252	-0.191309	0.178142
F134	F	1.560252	0.308691	0.678142
F135	F	1.182137	-0.002574	-0.243463
F136	F	1.682137	0.497426	0.256537
