data_functionalizedCrystal
_audit_creation_method	'MofGen! by Chris Wilmer'
_symmetry_space_group_name_H-M	'P1'
_symmetry_Int_Tables_number	1
_symmetry_cell_setting	triclinic
loop_
_symmetry_equiv_pos_as_xyz
  x,y,z
_cell_length_a	19.288864
_cell_length_b	16.109301
_cell_length_c	17.766277
_cell_angle_alpha	89.992214
_cell_angle_beta	89.976791
_cell_angle_gamma	83.298863
loop_
_atom_site_label
_atom_site_type_symbol
_atom_site_fract_x
_atom_site_fract_y
_atom_site_fract_z
O1	O	0.921601	0.103716	-0.062838
O2	O	0.719373	0.117707	-0.062787
O3	O	0.826042	-0.010338	-0.062806
O4	O	0.814932	0.231761	-0.062819
O5	O	0.826024	-0.010345	0.062382
O6	O	0.719355	0.117701	0.062402
O7	O	0.921582	0.103710	0.062351
Cu8	Cu	0.820467	0.110704	0.073807
Cu9	Cu	0.820489	0.110712	-0.074243
O10	O	0.814913	0.231755	0.062370
C11	C	0.693487	0.117254	-0.000186
C12	C	0.616380	0.115902	-0.000166
C13	C	0.571863	0.191034	-0.000182
C14	C	0.499413	0.189764	-0.000190
C15	C	0.471483	0.113359	-0.000198
C16	C	0.516009	0.038218	-0.000178
C17	C	0.588458	0.039489	-0.000162
C18	C	0.363084	0.053298	-0.044079
C19	C	0.290636	0.052029	-0.044100
C20	C	0.248028	0.109433	-0.000243
C21	C	0.277874	0.168120	0.043624
C22	C	0.350323	0.169391	0.043640
C23	C	0.392925	0.111971	-0.000214
C24	C	0.124952	0.183193	-0.000267
C25	C	0.052501	0.181920	-0.000270
C26	C	0.069099	0.030372	-0.000266
C27	C	0.141548	0.031647	-0.000254
C28	C	0.169470	0.108060	-0.000259
C29	C	0.825583	-0.041315	-0.000211
C30	C	0.824234	-0.133606	-0.000210
C31	C	0.884391	-0.356084	-0.000237
C32	C	0.883118	-0.442800	-0.000243
C33	C	0.756559	-0.422493	-0.000208
C34	C	0.757833	-0.335778	-0.000208
C35	C	0.821751	-0.302577	-0.000218
C36	C	0.819204	-0.476007	-0.000225
C37	C	0.817823	-0.570028	-0.000231
C38	C	0.823133	-0.208549	-0.000213
C39	C	0.947469	0.104163	-0.000252
C40	C	1.024576	0.105514	-0.000277
C41	C	0.815372	0.262732	-0.000227
C42	C	0.816722	0.355022	-0.000233
N43	N	0.820456	0.110699	0.177937
N44	N	0.820505	0.110711	-0.178373
C45	C	0.867704	0.054028	0.217315
C46	C	0.867708	0.054024	0.296117
C47	C	0.820471	0.110705	0.335538
C48	C	0.773214	0.167380	0.296150
C49	C	0.773206	0.167377	0.217350
C50	C	0.811353	0.186459	0.460373
C51	C	0.811365	0.186463	0.539172
C52	C	0.820489	0.110715	0.578584
C53	C	0.829616	0.034960	0.539188
C54	C	0.829609	0.034956	0.460387
C55	C	0.820473	0.110715	0.420983
C56	C	0.867745	0.054035	0.703408
C57	C	0.867744	0.054030	0.782212
C58	C	0.773252	0.167394	0.782243
C59	C	0.773250	0.167392	0.703441
C60	C	0.820500	0.110713	0.664028
H61	H	0.243183	0.214863	0.079337
C62	C	0.919685	-0.008315	0.339443
H63	H	0.947825	-0.042068	0.304684
H64	H	0.894715	-0.042848	0.370204
H65	H	0.948591	0.021518	0.370159
C66	C	0.801321	0.269787	0.417027
H67	H	0.795898	0.314902	0.451774
H68	H	0.760876	0.271597	0.386307
H69	H	0.841010	0.274272	0.386268
H70	H	0.837046	-0.026722	0.571275
H71	H	0.463160	0.250947	-0.000201
H72	H	0.706821	-0.292210	-0.000194
C73	C	0.919721	-0.008309	0.825528
H74	H	0.947863	-0.042057	0.790766
H75	H	0.894754	-0.042847	0.856287
H76	H	0.948626	0.021523	0.856247
H77	H	0.147687	0.245413	-0.000259
C78	C	0.383153	0.233933	0.091896
H79	H	0.347405	0.267938	0.118019
H80	H	0.407759	0.268000	0.060284
H81	H	0.414541	0.205673	0.127172
H82	H	0.594592	0.253255	-0.000187
H83	H	0.734730	0.213526	0.185287
C84	C	0.919709	-0.008315	0.660052
H85	H	0.947843	-0.042077	0.694793
H86	H	0.948612	0.021502	0.629291
H87	H	0.894725	-0.042851	0.629331
C88	C	0.801331	0.269789	0.582501
H89	H	0.795884	0.314901	0.547745
H90	H	0.841019	0.274286	0.613216
H91	H	0.760888	0.271593	0.613265
H92	H	0.734751	0.213530	0.328250
H93	H	0.016255	0.243104	-0.000279
H94	H	0.906176	0.007875	0.185228
C95	C	0.954698	-0.319564	-0.000257
H96	H	0.991821	-0.363854	-0.000276
H97	H	0.957824	-0.286165	0.043397
H98	H	0.957829	-0.286154	-0.043920
C99	C	0.721291	0.229743	0.825595
H100	H	0.728064	0.221632	0.878167
H101	H	0.674939	0.220856	0.812707
H102	H	0.728823	0.285211	0.812669
H103	H	0.837038	-0.026726	0.428314
H104	H	0.046359	-0.031839	-0.000318
H105	H	0.177795	-0.029534	-0.000246
H106	H	0.704519	-0.449537	-0.000198
H107	H	0.734778	0.213542	0.671377
H108	H	0.397771	0.006551	-0.079797
C109	C	0.257808	-0.012515	-0.092354
H110	H	0.208557	-0.005044	-0.086091
H111	H	0.275693	-0.067315	-0.076928
H112	H	0.268912	-0.004994	-0.143820
C113	C	0.485290	-0.045826	-0.000191
H114	H	0.435766	-0.035823	-0.000211
H115	H	0.500546	-0.076755	0.043469
H116	H	0.500598	-0.076745	-0.043849
H117	H	0.624704	-0.021694	-0.000150
H118	H	0.934126	-0.486363	-0.000260
