data_functionalizedCrystal
_audit_creation_method	'MofGen! by Chris Wilmer'
_symmetry_space_group_name_H-M	'P1'
_symmetry_Int_Tables_number	1
_symmetry_cell_setting	triclinic
loop_
_symmetry_equiv_pos_as_xyz
  x,y,z
_cell_length_a	15.995350
_cell_length_b	15.944551
_cell_length_c	14.472310
_cell_angle_alpha	89.997979
_cell_angle_beta	89.990621
_cell_angle_gamma	83.495557
loop_
_atom_site_label
_atom_site_type_symbol
_atom_site_fract_x
_atom_site_fract_y
_atom_site_fract_z
O1	O	1.111003	0.108264	-0.076765
O2	O	0.867228	0.121634	-0.076784
O3	O	0.995772	-0.007326	-0.076765
O4	O	0.982458	0.237224	-0.076783
O5	O	0.995739	-0.007319	0.076917
O6	O	0.867195	0.121641	0.076898
O7	O	1.110969	0.108272	0.076917
Cu8	Cu	0.989079	0.114957	0.090940
Cu9	Cu	0.989118	0.114948	-0.090807
O10	O	0.982425	0.237232	0.076899
C11	C	0.836017	0.121085	0.000055
C12	C	0.743066	0.119428	0.000048
C13	C	0.405318	0.113477	0.000067
C14	C	0.452747	0.021634	0.000417
C15	C	0.549438	0.023291	0.000064
C16	C	0.572879	0.116429	0.000058
C17	C	0.531813	0.161724	-0.087701
C18	C	0.435178	0.159417	-0.087768
C19	C	0.434801	0.161323	0.086997
C20	C	0.531746	0.161302	0.088150
C21	C	0.667577	0.118102	0.000050
C22	C	0.310620	0.111806	0.000069
C23	C	0.995203	-0.038616	0.000076
C24	C	0.993546	-0.131862	0.000076
C25	C	0.909908	-0.346714	0.000057
C26	C	0.948730	-0.407730	0.075834
C27	C	0.990548	-0.302588	0.000069
C28	C	0.948782	-0.407721	-0.075684
C29	C	0.987647	-0.467501	0.000058
C30	C	1.029393	-0.362376	0.075909
C31	C	1.029433	-0.362360	-0.075678
C32	C	1.068315	-0.423358	0.000119
C33	C	0.992217	-0.207586	0.000076
C34	C	0.985984	-0.562502	0.000057
C35	C	1.142181	0.108821	0.000077
C36	C	1.235131	0.110478	0.000078
C37	C	0.982995	0.268522	0.000056
C38	C	0.984652	0.361768	0.000049
N39	N	0.989058	0.114963	0.218771
N40	N	0.989146	0.114936	-0.218638
C41	C	0.989117	0.114945	0.592862
C42	C	0.920105	0.183717	0.553686
C43	C	0.920264	0.183968	0.446598
C44	C	0.989087	0.114954	0.407271
C45	C	1.076453	0.134096	0.446114
C46	C	1.076065	0.134585	0.553235
C47	C	0.971543	0.026826	0.553396
C48	C	0.969539	0.027414	0.446269
C49	C	0.989075	0.114957	0.302383
C50	C	0.989135	0.114943	0.697750
H51	H	0.403043	0.229039	0.087586
O52	O	0.821250	-0.302577	0.000143
H53	H	0.787962	-0.320621	0.063138
O54	O	0.428191	-0.026992	0.083784
H55	H	0.399660	-0.083725	0.060675
H56	H	0.931173	0.248741	0.580592
H57	H	1.135309	-0.456521	0.000167
H58	H	0.433165	-0.014912	-0.062167
O59	O	0.407588	0.121558	0.175115
H60	H	0.463929	0.099307	0.216931
H61	H	0.914677	-0.427799	-0.139753
O62	O	1.038184	-0.040956	0.587019
H63	H	1.008014	-0.088564	0.627310
O64	O	0.935135	0.270582	0.412624
H65	H	0.942249	0.312450	0.472707
H66	H	0.402934	0.226847	-0.091755
O67	O	0.410944	0.115644	-0.174655
H68	H	0.366594	0.159534	-0.215614
O69	O	1.074594	-0.335687	-0.160529
H70	H	1.041002	-0.353634	-0.223342
O71	O	0.586365	-0.024189	-0.083408
H72	H	0.535150	-0.048418	-0.123686
H73	H	1.091551	0.198850	0.578207
O74	O	1.146134	0.070769	0.587573
H75	H	1.180151	0.039700	0.527664
O76	O	0.903536	-0.434357	0.160690
H77	H	0.903254	-0.503936	0.160250
O78	O	0.567904	0.117511	0.174157
H79	H	0.614977	0.064011	0.154258
H80	H	1.063458	-0.342384	0.140043
O81	O	0.888976	0.002454	0.589222
H82	H	0.878039	-0.059886	0.560404
H83	H	0.855324	0.172563	0.420338
H84	H	0.854954	0.172500	0.579470
O85	O	0.550530	0.252361	-0.092047
H86	H	0.589397	0.266116	-0.031560
H87	H	0.560200	0.130258	-0.153010
O88	O	0.552097	0.251271	0.095167
H89	H	0.522126	0.281060	0.158051
O90	O	1.146112	0.069518	0.412374
H91	H	1.119138	0.022985	0.367451
H92	H	1.092308	0.197628	0.419273
H93	H	0.905272	0.012886	0.420882
O94	O	1.031804	-0.043549	0.410817
H95	H	0.997802	-0.089072	0.371744
O96	O	0.587084	-0.023860	0.083399
H97	H	0.536234	-0.048060	0.124312
