data_functionalizedCrystal
_audit_creation_method	'MofGen! by Chris Wilmer'
_symmetry_space_group_name_H-M	'P1'
_symmetry_Int_Tables_number	1
_symmetry_cell_setting	triclinic
loop_
_symmetry_equiv_pos_as_xyz
  x,y,z
_cell_length_a	27.732048
_cell_length_b	16.109301
_cell_length_c	15.186229
_cell_angle_alpha	90.000638
_cell_angle_beta	89.991324
_cell_angle_gamma	96.947932
loop_
_atom_site_label
_atom_site_type_symbol
_atom_site_fract_x
_atom_site_fract_y
_atom_site_fract_z
O1	O	0.062130	-1.102361	-0.073183
O2	O	0.069862	-0.860204	-0.073198
O3	O	-0.004369	-0.988803	-0.073173
O4	O	0.136361	-0.973762	-0.073208
O5	O	-0.004370	-0.988795	0.073284
O6	O	0.069861	-0.860195	0.073259
O7	O	0.062129	-1.102353	0.073275
Zn8	Zn	0.065995	-0.981273	0.096520
Zn9	Zn	0.065996	-0.981284	-0.096444
O10	O	0.136360	-0.973753	0.073250
C11	C	0.069548	-0.829228	0.000029
C12	C	0.068609	-0.736945	0.000024
N13	N	0.065994	-0.981271	0.228213
C14	C	-0.022378	-0.988483	0.000058
C15	C	-0.076037	-0.987533	0.000065
C16	C	-0.414559	-1.057541	0.000024
C17	C	-0.616233	-1.054013	0.000012
O18	O	-0.647221	-1.118031	-0.000023
N19	N	-0.635676	-0.977759	0.000008
C20	C	-0.604697	-0.902381	0.000001
O21	O	-0.625862	-0.837441	-0.000011
C22	C	-0.403024	-0.905910	0.000008
C23	C	-0.383584	-0.982169	0.000020
C24	C	-0.395119	-1.133794	0.000036
C25	C	-0.344703	-1.134675	0.000044
C26	C	-0.313728	-1.059303	0.000040
C27	C	-0.333168	-0.983050	0.000028
C28	C	-0.372045	-0.830533	-0.000005
C29	C	-0.321624	-0.831422	-0.000006
C30	C	-0.302184	-0.907681	0.000007
C31	C	-0.251777	-0.908559	0.000032
N32	N	-0.232334	-0.984814	0.000036
C33	C	-0.263310	-1.060186	0.000040
C34	C	-0.710579	-0.900534	-0.000000
C35	C	-0.760997	-0.899652	-0.000000
C36	C	-0.772530	-1.051284	0.000009
C37	C	-0.722111	-1.052166	0.000015
C38	C	-0.691136	-0.976789	0.000004
C39	C	-0.157433	-1.062030	0.000058
C40	C	-0.107012	-1.062905	0.000069
C41	C	-0.095484	-0.911273	0.000056
C42	C	-0.145900	-0.910398	0.000049
C43	C	-0.176874	-0.985783	0.000047
O44	O	-0.220761	-0.844576	0.000057
O45	O	-0.242135	-1.125116	0.000033
C46	C	-0.464975	-1.056660	0.000016
C47	C	-0.484415	-0.980407	0.000005
C48	C	-0.453440	-0.905035	0.000001
C49	C	-0.534833	-0.979525	0.000005
C50	C	-0.565808	-1.054897	0.000009
C51	C	-0.546365	-1.131151	0.000013
C52	C	-0.495950	-1.132032	0.000020
C53	C	-0.472883	-0.828781	-0.000003
C54	C	-0.523299	-0.827906	-0.000010
C55	C	-0.554274	-0.903278	-0.000006
C56	C	0.154369	-0.974073	0.000017
C57	C	0.208028	-0.975024	0.000004
C58	C	0.062443	-1.133328	0.000046
C59	C	0.063382	-1.225612	0.000045
C60	C	0.110473	-0.514154	0.000024
C61	C	0.109587	-0.427445	0.000030
C62	C	0.021514	-0.448409	0.000048
C63	C	0.022401	-0.535117	0.000048
C64	C	0.066882	-0.567987	0.000032
C65	C	0.065109	-0.394570	0.000037
C66	C	0.064148	-0.300556	0.000044
C67	C	0.067843	-0.662007	0.000027
N68	N	0.065994	-0.981292	-0.228136
C69	C	0.033135	-1.038234	0.453947
C70	C	0.033134	-1.038237	0.546136
C71	C	0.098854	-0.924323	0.546124
C72	C	0.098852	-0.924317	0.453936
C73	C	0.065993	-0.981277	0.407850
C74	C	0.065994	-0.981286	0.592227
C75	C	0.065993	-0.981288	0.692183
C76	C	0.065994	-0.981274	0.307887
H77	H	-0.091187	-1.125007	0.000082
H78	H	-0.182646	-1.123416	0.000053
H79	H	0.006377	-1.084615	0.583666
O80	O	0.153710	-0.545985	-0.000102
C81	C	0.229249	-0.554631	-0.076013
C82	C	0.180303	-0.518516	-0.075973
H83	H	0.250758	-0.532451	-0.137358
H84	H	0.250820	-0.532388	-0.014765
H85	H	0.222385	-0.625850	-0.075971
H86	H	0.187122	-0.447297	-0.076047
H87	H	0.158747	-0.540824	-0.137216
H88	H	0.006379	-1.084613	0.416426
H89	H	0.125607	-0.877948	0.583656
O90	O	0.130820	-0.868954	0.409287
C91	C	0.195985	-0.755934	0.418995
C92	C	0.159820	-0.818598	0.469669
H93	H	0.219434	-0.715192	0.467791
H94	H	0.220170	-0.791470	0.375846
H95	H	0.175097	-0.714708	0.375823
H96	H	0.180669	-0.859839	0.512889
H97	H	0.135635	-0.783009	0.512762
O98	O	-0.021734	-0.416616	0.000091
C99	C	-0.108997	-0.446563	0.000044
C100	C	-0.060051	-0.482677	0.000021
H101	H	-0.139989	-0.499955	-0.000032
H102	H	-0.111651	-0.406520	0.061348
H103	H	-0.111583	-0.406467	-0.061237
H104	H	-0.057432	-0.522810	0.061260
H105	H	-0.057418	-0.522673	-0.061324
O106	O	-0.325903	-1.208828	0.000010
C107	C	-0.342682	-1.359131	0.000067
C108	C	-0.364032	-1.275208	0.000088
H109	H	-0.373499	-1.412822	0.000148
H110	H	-0.319379	-1.363400	-0.061239
H111	H	-0.319356	-1.363295	0.061346
H112	H	-0.387381	-1.270988	-0.061149
H113	H	-0.387308	-1.270975	0.061434
O114	O	-0.425223	-1.206996	-0.000114
C115	C	-0.488847	-1.294013	-0.075945
C116	C	-0.454779	-1.211084	-0.075903
H117	H	-0.512758	-1.297338	-0.137205
H118	H	-0.466306	-1.348687	-0.075995
H119	H	-0.512721	-1.297382	-0.014623
H120	H	-0.430898	-1.207634	-0.137215
H121	H	-0.477348	-1.156449	-0.075808
H122	H	-0.296407	-0.770039	-0.000017
O123	O	0.151901	-0.375069	-0.000101
C124	C	0.202029	-0.265045	-0.076017
C125	C	0.154084	-0.324298	-0.075969
H126	H	0.203814	-0.223994	-0.137358
H127	H	0.203824	-0.223869	-0.014766
H128	H	0.233961	-0.303454	-0.075986
H129	H	0.122124	-0.285955	-0.076031
H130	H	0.152331	-0.365477	-0.137214
O131	O	-0.019915	-0.587500	-0.000064
C132	C	-0.070036	-0.697533	-0.075955
C133	C	-0.022094	-0.638271	-0.075931
H134	H	-0.071818	-0.738584	-0.137296
H135	H	-0.071830	-0.738707	-0.014703
H136	H	-0.101971	-0.659129	-0.075908
H137	H	0.009869	-0.676609	-0.076009
H138	H	-0.020342	-0.597094	-0.137177
H139	H	-0.797759	-1.112655	0.000012
O140	O	-0.703309	-1.126317	-0.000020
C141	C	-0.720083	-1.276620	0.000039
C142	C	-0.741437	-1.192701	0.000063
H143	H	-0.750899	-1.330314	0.000125
H144	H	-0.696783	-1.280888	-0.061270
H145	H	-0.696754	-1.280782	0.061314
H146	H	-0.764788	-1.188483	-0.061171
H147	H	-0.764709	-1.188469	0.061412
H148	H	-0.776820	-0.837554	0.000005
O149	O	-0.680543	-0.827252	-0.000121
C150	C	-0.655244	-0.697938	-0.076021
C151	C	-0.689291	-0.780890	-0.075989
H152	H	-0.662298	-0.660439	-0.137363
H153	H	-0.662329	-0.660325	-0.014770
H154	H	-0.615871	-0.711672	-0.075977
H155	H	-0.728677	-0.767233	-0.076064
H156	H	-0.682165	-0.818479	-0.137234
O157	O	-0.390897	-0.756431	-0.000180
C158	C	-0.396411	-0.626549	-0.076060
C159	C	-0.375042	-0.710454	-0.075980
H160	H	-0.383592	-0.589346	-0.137329
H161	H	-0.437769	-0.638797	-0.076120
H162	H	-0.383663	-0.589363	-0.014747
H163	H	-0.387752	-0.747683	-0.137283
H164	H	-0.333685	-0.698148	-0.075875
O165	O	-0.164765	-0.836302	-0.000115
C166	C	-0.170296	-0.706421	-0.075987
C167	C	-0.148912	-0.790313	-0.075909
H168	H	-0.157479	-0.669207	-0.137250
H169	H	-0.211654	-0.718688	-0.076056
H170	H	-0.157558	-0.669235	-0.014669
H171	H	-0.161612	-0.827541	-0.137217
H172	H	-0.107556	-0.777986	-0.075794
O173	O	-0.576480	-1.204346	-0.000142
C174	C	-0.640115	-1.291311	-0.076001
C175	C	-0.606029	-1.208403	-0.075938
H176	H	-0.664021	-1.294610	-0.137266
H177	H	-0.617589	-1.346005	-0.076052
H178	H	-0.663994	-1.294672	-0.014685
H179	H	-0.582143	-1.204961	-0.137244
H180	H	-0.628584	-1.153749	-0.075841
O181	O	-0.065410	-0.838037	0.000202
C182	C	-0.040142	-0.708672	0.076018
C183	C	-0.074220	-0.791589	0.075983
H184	H	-0.047259	-0.671087	0.137270
H185	H	-0.000759	-0.722357	0.076076
H186	H	-0.047201	-0.671158	0.014689
H187	H	-0.067204	-0.829143	0.137301
H188	H	-0.113592	-0.777845	0.075879
O189	O	-0.542099	-0.753748	-0.000061
C190	C	-0.525325	-0.603444	-0.000035
C191	C	-0.503971	-0.687364	0.000012
H192	H	-0.494509	-0.549751	0.000043
H193	H	-0.548613	-0.599188	-0.061348
H194	H	-0.548666	-0.599271	0.061236
H195	H	-0.480608	-0.691593	-0.061217
H196	H	-0.480711	-0.691584	0.061366
H197	H	-0.447667	-0.767402	-0.000009
H198	H	-0.480127	-1.194130	0.000031
