data_functionalizedCrystal
_audit_creation_method	'MofGen! by Chris Wilmer'
_symmetry_space_group_name_H-M	'P1'
_symmetry_Int_Tables_number	1
_symmetry_cell_setting	triclinic
loop_
_symmetry_equiv_pos_as_xyz
  x,y,z
_cell_length_a	12.594517
_cell_length_b	12.594516
_cell_length_c	12.759393
_cell_angle_alpha	90.030800
_cell_angle_beta	90.012150
_cell_angle_gamma	90.007702
loop_
_atom_site_label
_atom_site_type_symbol
_atom_site_fract_x
_atom_site_fract_y
_atom_site_fract_z
Zn1	Zn	1.627305	-0.423796	0.593809
Zn2	Zn	1.627207	-0.601816	0.418131
Zn3	Zn	1.449307	-0.423839	0.418168
Zn4	Zn	1.449305	-0.601720	0.593792
O5	O	1.538281	-0.512793	0.505975
O6	O	1.776238	-0.447433	0.570497
O7	O	1.603568	-0.578264	0.271115
O8	O	1.472961	-0.274887	0.441489
O9	O	1.776166	-0.578223	0.441427
O10	O	1.603736	-0.274856	0.570532
O11	O	1.472866	-0.447505	0.271142
O12	O	1.300361	-0.447413	0.441473
O13	O	1.472957	-0.578061	0.740816
O14	O	1.300359	-0.578102	0.570504
O15	O	1.603733	-0.447341	0.740828
O16	O	1.603566	-0.750749	0.441411
O17	O	1.472862	-0.750679	0.570468
C18	C	1.261740	-0.512752	0.505991
C19	C	1.143435	-0.512761	0.506023
C20	C	1.074211	-0.583982	0.576067
C21	C	1.003396	-0.486935	0.601906
C22	C	1.003451	-0.609888	0.480160
C23	C	1.074177	-0.415662	0.531912
C24	C	1.074239	-0.538681	0.410122
C25	C	1.003455	-0.441567	0.435925
C26	C	1.538232	-0.789334	0.505957
C27	C	1.538308	-0.907639	0.505984
C28	C	1.609481	-0.976892	0.435865
C29	C	1.635492	-1.047585	0.531754
C30	C	1.512429	-1.047745	0.410156
C31	C	1.564369	-0.976774	0.601924
C32	C	1.441261	-0.976928	0.480261
C33	C	1.467236	-1.047589	0.576216
C34	C	1.815902	-0.512834	0.505960
C35	C	1.934207	-0.512851	0.505953
C36	C	1.538356	-0.512685	0.780009
C37	C	1.538387	-0.512640	0.896785
C38	C	1.538360	-0.235172	0.506016
C39	C	1.538393	-0.116866	0.506034
C40	C	1.538268	-0.512823	0.233008
C41	C	1.538442	-0.512569	0.116232
C42	C	1.606492	-0.444567	0.951655
C43	C	1.606517	-0.444529	1.061380
C44	C	1.470330	-0.580644	1.061354
C45	C	1.470300	-0.580677	0.951632
C46	C	1.685122	-0.365985	0.951671
C47	C	1.685147	-0.365947	1.061395
H48	H	0.972584	-0.381307	0.376661
O49	O	1.404093	-0.646886	0.898493
C50	C	1.268938	-0.781810	0.910051
C51	C	1.343890	-0.706904	0.970360
H52	H	1.220228	-0.830338	0.968129
H53	H	1.317701	-0.837570	0.858686
H54	H	1.213340	-0.732911	0.858676
H55	H	1.399503	-0.755717	1.021792
H56	H	1.295060	-0.651141	1.021659
O57	O	0.966261	-0.707750	0.453965
C58	C	0.862752	-0.811348	0.332344
C59	C	0.904773	-0.700456	0.361892
H60	H	0.813049	-0.805492	0.257889
H61	H	0.811610	-0.843476	0.398872
H62	H	0.932563	-0.867192	0.318361
H63	H	0.835027	-0.644533	0.375858
H64	H	0.955947	-0.668416	0.295348
H65	H	1.105380	-0.560602	0.329073
O66	O	1.110949	-0.317679	0.558239
C67	C	1.115835	-0.179394	0.688741
C68	C	1.074098	-0.290352	0.659045
H69	H	1.086077	-0.157275	0.770253
H70	H	1.086055	-0.118615	0.629442
H71	H	1.206349	-0.180180	0.688535
H72	H	0.983587	-0.289669	0.659262
H73	H	1.103959	-0.351083	0.718351
H74	H	1.407084	-1.078436	0.635604
O75	O	1.343370	-0.939910	0.454057
C76	C	1.205338	-0.934064	0.323383
C77	C	1.316218	-0.976039	0.352930
H78	H	1.183342	-0.963276	0.241630
H79	H	1.206035	-0.843552	0.324300
H80	H	1.144515	-0.964352	0.382390
H81	H	1.377103	-0.945830	0.293952
H82	H	1.315433	-1.066550	0.352047
H83	H	0.972278	-0.465043	0.682978
H84	H	1.490506	-1.078917	0.329094
O85	O	1.783454	-0.392482	1.096876
C86	C	1.922043	-0.524326	1.100152
C87	C	1.810700	-0.494422	1.059916
H88	H	1.944115	-0.606737	1.070269
H89	H	1.922102	-0.524371	1.189501
H90	H	1.982378	-0.463964	1.070414
H91	H	1.750302	-0.554755	1.089578
H92	H	1.810729	-0.494344	0.970568
O93	O	1.681369	-0.940026	0.365174
C94	C	1.813793	-0.984526	0.236146
C95	C	1.732435	-1.026420	0.316176
H96	H	1.855086	-1.054354	0.196493
H97	H	1.875290	-0.933449	0.278108
H98	H	1.771174	-0.934748	0.174532
H99	H	1.774963	-1.076243	0.377810
H100	H	1.670943	-1.077439	0.274140
O101	O	1.733378	-1.084652	0.557937
C102	C	1.836998	-1.188129	0.679433
C103	C	1.726084	-1.146221	0.649915
H104	H	1.831135	-1.237935	0.753787
H105	H	1.892873	-1.118339	0.693514
H106	H	1.869089	-1.239200	0.612795
H107	H	1.693897	-1.095167	0.716515
H108	H	1.670281	-1.216059	0.635798
H109	H	1.414894	-0.636035	1.106023
H110	H	1.655648	-0.287623	1.095445
O111	O	1.590673	-0.939574	0.698585
C112	C	1.620073	-0.785641	0.807016
C113	C	1.590290	-0.827629	0.697499
H114	H	1.619751	-0.695129	0.806180
H115	H	1.702606	-0.815298	0.829126
H116	H	1.559830	-0.815426	0.866847
H117	H	1.650461	-0.797862	0.637595
H118	H	1.507730	-0.797981	0.675477
H119	H	1.663064	-0.283554	0.921917
H120	H	1.763407	-0.395541	0.917627
H121	H	1.105282	-0.644095	0.635377
