data_functionalizedCrystal
_audit_creation_method	'MofGen! by Chris Wilmer'
_symmetry_space_group_name_H-M	'P1'
_symmetry_Int_Tables_number	1
_symmetry_cell_setting	triclinic
loop_
_symmetry_equiv_pos_as_xyz
  x,y,z
_cell_length_a	16.109301
_cell_length_b	16.109301
_cell_length_c	14.586319
_cell_angle_alpha	90.005214
_cell_angle_beta	89.996501
_cell_angle_gamma	96.538519
loop_
_atom_site_label
_atom_site_type_symbol
_atom_site_fract_x
_atom_site_fract_y
_atom_site_fract_z
O1	O	1.103131	-0.106866	-0.076243
O2	O	0.861069	-0.120165	-0.076245
O3	O	0.988749	0.007515	-0.076235
O4	O	0.975450	-0.234547	-0.076254
O5	O	0.988741	0.007517	0.076246
O6	O	0.861060	-0.120164	0.076236
O7	O	1.103122	-0.106864	0.076238
Cu8	Cu	0.982090	-0.113514	0.090159
Cu9	Cu	0.982101	-0.113516	-0.090167
O10	O	0.975441	-0.234545	0.076227
C11	C	0.830090	-0.119626	-0.000005
C12	C	0.737794	-0.118011	-0.000006
C13	C	1.134101	-0.107404	-0.000004
C14	C	1.226397	-0.109019	-0.000010
C15	C	0.988206	0.038491	0.000006
C16	C	0.986591	0.130786	0.000007
C17	C	0.975984	-0.265521	-0.000016
C18	C	0.977600	-0.357816	-0.000023
C19	C	1.448669	-0.037011	0.000000
C20	C	1.535389	-0.038535	0.000003
C21	C	1.515515	-0.190024	-0.000013
C22	C	1.428796	-0.188499	-0.000010
C23	C	1.395376	-0.111990	-0.000008
C24	C	1.568815	-0.115039	-0.000008
C25	C	1.662841	-0.116692	-0.000005
C26	C	1.301344	-0.110337	-0.000009
N27	N	0.982089	-0.113512	0.216991
C28	C	1.058599	0.353059	-0.000006
C29	C	1.057075	0.439779	-0.000014
C30	C	0.905586	0.419905	-0.000012
C31	C	0.907111	0.333186	-0.000011
C32	C	0.983620	0.299766	-0.000003
C33	C	0.980571	0.473205	-0.000012
C34	C	0.978918	0.567231	-0.000020
C35	C	0.985273	0.205734	0.000003
N36	N	0.982109	-0.113511	-0.216999
C37	C	1.038645	-0.056994	0.452002
C38	C	1.038647	-0.056992	0.547983
C39	C	0.925547	-0.170032	0.547984
C40	C	0.925541	-0.170030	0.452004
C41	C	0.982095	-0.113511	0.404016
C42	C	0.982103	-0.113512	0.595977
C43	C	0.982105	-0.113510	0.700044
C44	C	0.982092	-0.113512	0.299942
H45	H	1.421461	0.025287	0.000004
H46	H	1.542737	-0.252315	-0.000017
O47	O	0.834327	0.281326	0.000114
C48	C	0.830665	0.230588	0.079095
H49	H	0.896656	0.226231	0.105424
H50	H	0.799687	0.165399	0.061331
H51	H	0.792693	0.259105	0.134394
O52	O	1.587242	0.034245	-0.000116
C53	C	1.637988	0.037905	-0.079099
H54	H	1.642355	-0.028087	-0.105431
H55	H	1.703172	0.068892	-0.061336
H56	H	1.609472	0.075867	-0.134395
O57	O	1.129854	0.491633	0.000106
C58	C	1.133512	0.542387	0.079085
H59	H	1.067520	0.546755	0.105413
H60	H	1.164498	0.607570	0.061318
H61	H	1.171476	0.513877	0.134385
O62	O	0.831342	0.452510	0.000030
C63	C	0.846072	0.540478	0.000009
H64	H	0.910958	0.560864	0.028874
H65	H	0.797119	0.567092	0.044282
H66	H	0.842049	0.564612	-0.073143
O67	O	1.093604	-0.002009	0.405528
C68	C	1.143529	0.047862	0.468469
H69	H	1.109447	0.048806	0.536891
H70	H	1.156228	0.114257	0.440746
H71	H	1.205282	0.020851	0.478664
O72	O	0.870721	-0.224972	0.405285
C73	C	0.915229	-0.276287	0.349770
H74	H	0.980292	-0.243190	0.335389
H75	H	0.880522	-0.289428	0.282279
H76	H	0.920862	-0.337738	0.386749
H77	H	1.084694	-0.010969	0.587051
H78	H	0.879503	-0.216049	0.587065
O79	O	1.377140	-0.261415	-0.000059
C80	C	1.425231	-0.329271	-0.000046
H81	H	1.489961	-0.308157	-0.028916
H82	H	1.393222	-0.381803	-0.044319
H83	H	1.431396	-0.352723	0.073104
O84	O	1.132989	0.320731	-0.000051
C85	C	1.198839	0.386369	-0.000036
H86	H	1.175544	0.445269	-0.028900
H87	H	1.252252	0.368261	-0.044311
H88	H	1.221970	0.398654	0.073114
