data_functionalizedCrystal
_audit_creation_method	'MofGen! by Chris Wilmer'
_symmetry_space_group_name_H-M	'P1'
_symmetry_Int_Tables_number	1
_symmetry_cell_setting	triclinic
loop_
_symmetry_equiv_pos_as_xyz
  x,y,z
_cell_length_a	15.995292
_cell_length_b	15.995350
_cell_length_c	9.730223
_cell_angle_alpha	90.000899
_cell_angle_beta	89.998623
_cell_angle_gamma	83.480495
loop_
_atom_site_label
_atom_site_type_symbol
_atom_site_fract_x
_atom_site_fract_y
_atom_site_fract_z
O1	O	1.111011	0.107691	-0.114320
O2	O	0.867229	0.121070	-0.114314
O3	O	0.995784	-0.007509	-0.114316
O4	O	0.982456	0.236269	-0.114318
O5	O	0.995783	-0.007505	0.114264
O6	O	0.867228	0.121073	0.114266
O7	O	1.111010	0.107694	0.114260
Zn8	Zn	0.989118	0.114384	0.150555
Zn9	Zn	0.989120	0.114380	-0.150609
O10	O	0.982455	0.236273	0.114262
C11	C	0.836033	0.120527	-0.000023
C12	C	0.743080	0.118894	-0.000021
C13	C	0.995232	-0.038702	-0.000029
C14	C	0.993580	-0.131652	-0.000036
C15	C	0.405341	0.112893	-0.000037
C16	C	0.428654	0.205697	-0.000548
C17	C	0.525329	0.207461	-0.000027
C18	C	0.572897	0.115871	-0.000030
C19	C	0.543795	0.069475	0.130496
C20	C	0.447004	0.068358	0.130600
C21	C	0.447150	0.066459	-0.129338
C22	C	0.543643	0.069898	-0.131057
C23	C	0.667593	0.117549	-0.000021
C24	C	0.310646	0.111212	-0.000036
C25	C	0.987648	-0.469398	-0.000032
C26	C	0.896094	-0.421945	-0.000542
C27	C	0.897746	-0.325255	-0.000027
C28	C	0.990591	-0.301838	-0.000035
C29	C	1.035748	-0.342923	0.130492
C30	C	1.033448	-0.439558	0.130601
C31	C	1.035341	-0.439921	-0.129337
C32	C	1.035319	-0.342975	-0.131062
C33	C	0.992259	-0.207141	-0.000032
C34	C	0.985983	-0.564095	-0.000025
C35	C	1.142206	0.108237	-0.000034
C36	C	1.235159	0.109870	-0.000045
C37	C	0.983006	0.267466	-0.000029
C38	C	0.984658	0.360416	-0.000030
N39	N	0.989123	0.114386	0.356091
N40	N	0.989122	0.114371	-0.356145
C41	C	1.046062	0.057471	0.428016
C42	C	1.046060	0.057461	0.571899
C43	C	0.932178	0.171289	0.571919
C44	C	0.932176	0.171294	0.428039
C45	C	1.111813	-0.008244	0.428006
C46	C	1.111811	-0.008254	0.571889
H47	H	0.544356	0.243792	-0.093596
H48	H	0.432454	0.000313	0.136527
H49	H	1.091996	-0.068894	0.616506
H50	H	0.576613	0.003046	-0.138943
H51	H	0.400658	0.241467	-0.094155
H52	H	0.885805	0.217632	0.369479
H53	H	1.176036	0.005519	0.610938
H54	H	0.862249	-0.296827	-0.093593
H55	H	1.005408	-0.460455	-0.228268
H56	H	0.399634	0.241271	0.092532
H57	H	0.563853	0.101697	0.227636
H58	H	1.002303	-0.315721	-0.227622
H59	H	0.543732	0.244019	0.093698
H60	H	0.862010	-0.297381	0.093701
H61	H	0.562213	0.103679	-0.227620
H62	H	1.098077	-0.072478	0.388953
H63	H	1.100666	-0.471820	0.136518
H64	H	0.420186	0.100492	0.228173
H65	H	1.000518	-0.457852	0.228178
H66	H	0.418824	0.095465	-0.228270
H67	H	0.575663	0.002077	0.135348
H68	H	1.103025	-0.327628	-0.138949
H69	H	0.885812	0.217621	0.630515
H70	H	0.433157	-0.001851	-0.130223
H71	H	0.859501	-0.440470	-0.094145
H72	H	0.859662	-0.441530	0.092542
H73	H	1.102843	-0.471695	-0.130220
H74	H	1.103958	-0.328812	0.135340
H75	H	1.004383	-0.314534	0.227631
H76	H	1.172433	0.011608	0.383378
