data_functionalizedCrystal
_audit_creation_method	'MofGen! by Chris Wilmer'
_symmetry_space_group_name_H-M	'P1'
_symmetry_Int_Tables_number	1
_symmetry_cell_setting	triclinic
loop_
_symmetry_equiv_pos_as_xyz
  x,y,z
_cell_length_a	14.519731
_cell_length_b	10.540510
_cell_length_c	13.596369
_cell_angle_alpha	89.996501
_cell_angle_beta	89.994584
_cell_angle_gamma	84.101082
loop_
_atom_site_label
_atom_site_type_symbol
_atom_site_fract_x
_atom_site_fract_y
_atom_site_fract_z
O1	O	1.224741	0.166531	-0.081788
O2	O	1.474741	0.416531	0.168212
O3	O	1.724741	0.666531	0.418212
O4	O	1.974741	0.916531	0.668212
O5	O	0.956370	0.186098	-0.081789
O6	O	1.206370	0.436098	0.168211
O7	O	1.456370	0.686098	0.418211
O8	O	1.706370	0.936098	0.668211
O9	O	1.096693	-0.008456	-0.081788
O10	O	1.346693	0.241544	0.168212
O11	O	1.596693	0.491544	0.418212
O12	O	1.846693	0.741544	0.668212
O13	O	1.084418	0.361086	-0.081789
O14	O	1.334418	0.611086	0.168211
O15	O	1.584418	0.861086	0.418211
O16	O	1.834418	1.111086	0.668211
O17	O	1.096678	-0.008467	0.081795
O18	O	1.346678	0.241533	0.331795
O19	O	1.596678	0.491533	0.581795
O20	O	1.846678	0.741533	0.831795
O21	O	0.956356	0.186088	0.081794
O22	O	1.206356	0.436088	0.331794
O23	O	1.456356	0.686088	0.581794
O24	O	1.706356	0.936088	0.831794
O25	O	1.224727	0.166521	0.081795
O26	O	1.474727	0.416521	0.331795
O27	O	1.724727	0.666521	0.581795
O28	O	1.974727	0.916521	0.831795
Zn29	Zn	1.090539	0.176303	0.107767
Zn30	Zn	1.340539	0.426303	0.357767
Zn31	Zn	1.590539	0.676303	0.607767
Zn32	Zn	1.840539	0.926303	0.857767
Zn33	Zn	1.090558	0.176316	-0.107761
Zn34	Zn	1.340558	0.426316	0.142239
Zn35	Zn	1.590558	0.676316	0.392239
Zn36	Zn	1.840558	0.926316	0.642239
O37	O	1.084404	0.361075	0.081794
O38	O	1.334404	0.611075	0.331794
O39	O	1.584404	0.861075	0.581794
O40	O	1.834404	1.111075	0.831794
C41	C	0.921999	0.185176	0.000002
C42	C	1.171999	0.435176	0.250002
C43	C	1.421999	0.685176	0.500002
C44	C	1.671999	0.935176	0.750002
C45	C	0.819604	0.182429	0.000002
C46	C	1.069604	0.432429	0.250002
C47	C	1.319604	0.682429	0.500002
C48	C	1.569604	0.932429	0.750002
C49	C	0.736448	0.180197	-0.000002
C50	C	0.986448	0.430197	0.249998
C51	C	1.236448	0.680197	0.499998
C52	C	1.486448	0.930197	0.749998
C53	C	0.632125	0.177407	-0.000002
C54	C	0.882125	0.427407	0.249998
C55	C	1.132125	0.677407	0.499998
C56	C	1.382125	0.927407	0.749998
C57	C	0.548974	0.175193	-0.000002
C58	C	0.798974	0.425193	0.249998
C59	C	1.048974	0.675193	0.499998
C60	C	1.298974	0.925193	0.749998
C61	C	0.444644	0.172404	-0.000005
C62	C	0.694644	0.422404	0.249995
C63	C	0.944644	0.672404	0.499995
C64	C	1.194644	0.922404	0.749995
C65	C	1.095771	-0.055756	0.000001
C66	C	1.345771	0.194244	0.250001
C67	C	1.595771	0.444244	0.500001
C68	C	1.845771	0.694244	0.750001
C69	C	1.093034	-0.196678	-0.000005
C70	C	1.343034	0.053322	0.249995
C71	C	1.593034	0.303322	0.499995
C72	C	1.843034	0.553322	0.749995
C73	C	1.190516	-0.415118	0.000370
C74	C	1.440516	-0.165118	0.250370
C75	C	1.690516	0.084882	0.500370
C76	C	1.940516	0.334882	0.750370
C77	C	1.193435	-0.268552	-0.000003
C78	C	1.443435	-0.018552	0.249997
C79	C	1.693435	0.231448	0.499997
C80	C	1.943435	0.481448	0.749997
C81	C	1.041647	-0.240912	-0.093417
C82	C	1.291647	0.009088	0.156583
C83	C	1.541647	0.259088	0.406583
C84	C	1.791647	0.509088	0.656583
C85	C	1.039439	-0.387650	-0.093490
C86	C	1.289439	-0.137650	0.156510
C87	C	1.539439	0.112350	0.406510
C88	C	1.789439	0.362350	0.656510
C89	C	1.037332	-0.387449	0.092535
C90	C	1.287332	-0.137449	0.342535
C91	C	1.537332	0.112551	0.592535
C92	C	1.787332	0.362551	0.842535
C93	C	1.042094	-0.241156	0.093764
C94	C	1.292094	0.008844	0.343764
C95	C	1.542094	0.258844	0.593764
C96	C	1.792094	0.508844	0.843764
C97	C	1.259098	0.167443	0.000001
C98	C	1.509098	0.417443	0.250001
C99	C	1.759098	0.667443	0.500001
C100	C	2.009098	0.917443	0.750001
C101	C	1.361493	0.170190	-0.000004
C102	C	1.611493	0.420190	0.249996
C103	C	1.861493	0.670190	0.499996
C104	C	2.111493	0.920190	0.749996
C105	C	1.085326	0.408375	0.000002
C106	C	1.335326	0.658375	0.250002
C107	C	1.585326	0.908375	0.500002
C108	C	1.835326	1.158375	0.750002
C109	C	1.088063	0.549297	0.000002
C110	C	1.338063	0.799297	0.250002
C111	C	1.588063	1.049297	0.500002
C112	C	1.838063	1.299297	0.750002
N113	N	1.090533	0.176293	0.254859
N114	N	1.340533	0.426293	0.504859
N115	N	1.590533	0.676293	0.754859
N116	N	1.840533	0.926293	1.004859
N117	N	1.090571	0.176316	-0.254853
N118	N	1.340571	0.426316	-0.004853
N119	N	1.590571	0.676316	0.245147
N120	N	1.840571	0.926316	0.495147
C121	C	1.090557	0.176318	0.656150
C122	C	1.340557	0.426318	0.906150
C123	C	1.590557	0.676318	1.156150
C124	C	1.840557	0.926318	1.406150
C125	C	1.090547	0.176315	0.544498
C126	C	1.340547	0.426315	0.794498
C127	C	1.590547	0.676315	1.044498
C128	C	1.840547	0.926315	1.294498
C129	C	1.090545	0.176306	0.455508
C130	C	1.340545	0.426306	0.705508
C131	C	1.590545	0.676306	0.955508
C132	C	1.840545	0.926306	1.205508
C133	C	1.090535	0.176301	0.343849
C134	C	1.340535	0.426301	0.593849
C135	C	1.590535	0.676301	0.843849
C136	C	1.840535	0.926301	1.093849
H137	H	1.233642	-0.239619	0.066957
H138	H	1.483642	0.010381	0.316957
H139	H	1.733642	0.260381	0.566957
H140	H	1.983642	0.510381	0.816957
H141	H	1.069232	-0.429958	0.163341
H142	H	1.319232	-0.179958	0.413341
H143	H	1.569232	0.070042	0.663341
H144	H	1.819232	0.320042	0.913341
H145	H	1.077345	-0.210411	-0.162933
H146	H	1.327345	0.039589	0.087067
H147	H	1.577345	0.289589	0.337067
H148	H	1.827345	0.539589	0.587067
H149	H	1.229625	-0.457473	0.067361
H150	H	1.479625	-0.207473	0.317361
H151	H	1.729625	0.042527	0.567361
H152	H	1.979625	0.292527	0.817361
H153	H	1.079486	-0.212927	0.162870
H154	H	1.329486	0.037073	0.412870
H155	H	1.579486	0.287073	0.662870
H156	H	1.829486	0.537073	0.912870
H157	H	0.964346	-0.409886	-0.097722
H158	H	1.214346	-0.159886	0.152278
H159	H	1.464346	0.090114	0.402278
H160	H	1.714346	0.340114	0.652278
H161	H	1.229411	-0.459013	-0.066241
H162	H	1.479411	-0.209013	0.183759
H163	H	1.729411	0.040987	0.433759
H164	H	1.979411	0.290987	0.683759
H165	H	0.967734	-0.192776	-0.096890
H166	H	1.217734	0.057224	0.153110
H167	H	1.467734	0.307224	0.403110
H168	H	1.717734	0.557224	0.653110
H169	H	1.074569	-0.428216	-0.163316
H170	H	1.324569	-0.178216	0.086684
H171	H	1.574569	0.071784	0.336684
H172	H	1.824569	0.321784	0.586684
Cl173	Cl	0.928920	-0.164265	0.102474
Cl174	Cl	1.178920	0.085735	0.352474
Cl175	Cl	1.428920	0.335735	0.602474
Cl176	Cl	1.678920	0.585735	0.852474
H177	H	0.961951	-0.408838	0.093164
H178	H	1.211951	-0.158838	0.343164
H179	H	1.461951	0.091162	0.593164
H180	H	1.711951	0.341162	0.843164
H181	H	1.233887	-0.240551	-0.067080
H182	H	1.483887	0.009449	0.182920
H183	H	1.733887	0.259449	0.432920
H184	H	1.983887	0.509449	0.682920
