data_functionalizedCrystal
_audit_creation_method	'MofGen! by Chris Wilmer'
_symmetry_space_group_name_H-M	'P1'
_symmetry_Int_Tables_number	1
_symmetry_cell_setting	triclinic
loop_
_symmetry_equiv_pos_as_xyz
  x,y,z
_cell_length_a	14.044220
_cell_length_b	10.654550
_cell_length_c	9.730223
_cell_angle_alpha	89.995747
_cell_angle_beta	90.001660
_cell_angle_gamma	88.836904
loop_
_atom_site_label
_atom_site_type_symbol
_atom_site_fract_x
_atom_site_fract_y
_atom_site_fract_z
O1	O	1.259697	0.302986	-0.114143
O2	O	0.983656	0.292052	-0.114178
O3	O	1.128023	0.115418	-0.114151
O4	O	1.115330	0.479621	-0.114170
O5	O	1.128014	0.115411	0.114429
O6	O	0.983646	0.292046	0.114402
O7	O	1.259688	0.302980	0.114437
Zn8	Zn	1.121665	0.297512	0.150711
Zn9	Zn	1.121678	0.297520	-0.150453
O10	O	1.115320	0.479614	0.114410
C11	C	1.127086	0.068523	0.000138
C12	C	1.124298	-0.071201	0.000136
C13	C	0.948305	0.287263	0.000108
C14	C	0.842986	0.272988	0.000095
C15	C	1.209299	-0.142144	0.000146
C16	C	1.206673	-0.273429	0.000129
C17	C	1.034038	-0.262814	0.000097
C18	C	1.036665	-0.131532	0.000104
C19	C	0.650153	0.246889	0.000123
C20	C	0.593185	0.348137	0.000124
C21	C	0.485886	0.333615	0.000140
C22	C	0.757462	0.261409	0.000107
C23	C	1.295038	0.307769	0.000148
C24	C	1.400358	0.322044	0.000152
C25	C	1.116257	0.526509	0.000118
C26	C	1.119045	0.666233	0.000111
N27	N	1.121664	0.297506	0.356248
N28	N	1.121687	0.297517	-0.355989
C29	C	1.185612	0.219331	0.428186
C30	C	1.185621	0.219332	0.572069
C31	C	1.057732	0.375696	0.572063
C32	C	1.057719	0.375687	0.428183
H33	H	1.280656	-0.093027	0.000168
C34	C	0.636149	0.479978	0.000104
C35	C	0.701337	0.520211	0.118784
C36	C	0.744305	0.652047	0.118761
C37	C	0.722084	0.743649	0.000059
C38	C	0.656893	0.703417	-0.118630
C39	C	0.613926	0.571581	-0.118608
H40	H	0.717789	0.452400	0.206662
H41	H	0.792564	0.681829	0.206623
H42	H	0.753891	0.841242	0.000042
H43	H	0.640442	0.771228	-0.206508
H44	H	0.565667	0.541800	-0.206469
H45	H	1.275890	-0.331186	0.000134
C46	C	0.943156	-0.053484	0.000097
C47	C	0.871590	-0.067142	-0.118610
C48	C	0.778087	0.010905	-0.118623
C49	C	0.756150	0.102610	0.000070
C50	C	0.827718	0.116272	0.118786
C51	C	0.921221	0.038225	0.118799
H52	H	0.887828	-0.135031	-0.206482
H53	H	0.725108	0.000791	-0.206505
H54	H	0.686933	0.160385	0.000060
H55	H	0.811480	0.184161	0.206657
H56	H	0.974200	0.048339	0.206680
H57	H	0.962690	-0.311952	0.000074
C58	C	0.607182	0.115061	0.000128
C59	C	0.629386	0.023440	0.118819
C60	C	0.586401	-0.108385	0.118818
C61	C	0.521212	-0.148590	0.000127
C62	C	0.499005	-0.056967	-0.118573
C63	C	0.541990	0.074859	-0.118573
H64	H	0.677645	0.053200	0.206689
H65	H	0.602840	-0.176210	0.206688
H66	H	0.489392	-0.246175	0.000126
H67	H	0.450745	-0.086726	-0.206443
H68	H	0.525551	0.142684	-0.206443
C69	C	1.255942	0.133324	0.349056
C70	C	1.326279	0.047327	0.428195
C71	C	1.396609	-0.038686	0.349070
C72	C	1.396603	-0.038701	0.190808
C73	C	1.326264	0.047299	0.111660
C74	C	1.255933	0.133312	0.190785
H75	H	1.326286	0.047336	0.545358
H76	H	1.448679	-0.102349	0.407661
H77	H	1.448666	-0.102373	0.132235
H78	H	1.326257	0.047291	-0.005503
H79	H	1.203864	0.196975	0.132194
C80	C	0.987402	0.461702	0.651193
C81	C	0.987466	0.461800	0.809455
C82	C	0.917136	0.547813	0.888579
C83	C	0.846741	0.633727	0.809441
C84	C	0.846674	0.633632	0.651170
C85	C	0.917004	0.547620	0.572045
H86	H	1.039579	0.398198	0.868046
H87	H	0.917186	0.547883	1.005743
H88	H	0.794678	0.697399	0.868014
H89	H	0.794561	0.697234	0.592579
H90	H	0.916954	0.547550	0.454882
H91	H	1.237692	0.155673	0.630636
H92	H	1.005640	0.439347	0.369607
