data_functionalizedCrystal
_audit_creation_method	'MofGen! by Chris Wilmer'
_symmetry_space_group_name_H-M	'P1'
_symmetry_Int_Tables_number	1
_symmetry_cell_setting	triclinic
loop_
_symmetry_equiv_pos_as_xyz
  x,y,z
_cell_length_a	15.995350
_cell_length_b	26.210047
_cell_length_c	15.995350
_cell_angle_alpha	89.993267
_cell_angle_beta	83.492375
_cell_angle_gamma	90.005390
loop_
_atom_site_label
_atom_site_type_symbol
_atom_site_fract_x
_atom_site_fract_y
_atom_site_fract_z
O1	O	1.110992	0.042383	0.107915
O2	O	0.867217	0.042393	0.121242
O3	O	0.995769	0.042388	-0.007309
O4	O	0.982441	0.042389	0.236466
O5	O	0.995744	-0.042470	-0.007289
O6	O	0.867192	-0.042465	0.121262
O7	O	1.110968	-0.042475	0.107935
Cu8	Cu	0.989078	-0.050218	0.114600
Cu9	Cu	0.989107	0.050137	0.114577
O10	O	0.982416	-0.042469	0.236486
C11	C	0.836010	-0.000034	0.120701
C12	C	0.743060	-0.000030	0.119049
C13	C	0.405312	-0.000041	0.113117
C14	C	0.452746	-0.000231	0.021565
C15	C	0.549436	-0.000036	0.023217
C16	C	0.572873	-0.000036	0.116060
C17	C	0.531800	0.048420	0.161205
C18	C	0.435164	0.048457	0.158905
C19	C	0.434797	-0.048042	0.160819
C20	C	0.531742	-0.048679	0.160798
C21	C	0.667570	-0.000031	0.117727
C22	C	0.310614	-0.000042	0.111452
N23	N	0.989063	-0.120802	0.114616
C24	C	1.046024	-0.473319	0.057667
C25	C	1.046042	-0.686977	0.057655
O26	O	1.094440	-0.714601	0.009238
N27	N	0.989111	-0.713696	0.114558
C28	C	0.932168	-0.686997	0.171464
O29	O	0.883740	-0.714625	0.219858
C30	C	0.932147	-0.473339	0.171471
C31	C	0.989087	-0.446623	0.114570
C32	C	1.102959	-0.446603	0.000770
C33	C	1.102957	-0.393191	0.000776
C34	C	1.046020	-0.366496	0.057680
C35	C	0.989085	-0.393212	0.114577
C36	C	0.875200	-0.446641	0.228373
C37	C	0.875198	-0.393223	0.228368
C38	C	0.932139	-0.366507	0.171467
C39	C	0.932146	-0.313105	0.171487
N40	N	0.989076	-0.286386	0.114584
C41	C	1.046013	-0.313081	0.057680
C42	C	0.932185	-0.799170	0.171458
C43	C	0.932191	-0.852584	0.171457
C44	C	1.046064	-0.852561	0.057647
C45	C	1.046061	-0.799146	0.057652
C46	C	0.989116	-0.772451	0.114555
C47	C	1.046005	-0.200914	0.057699
C48	C	1.046000	-0.147497	0.057713
C49	C	0.932125	-0.147525	0.171520
C50	C	0.932132	-0.200937	0.171509
C51	C	0.989075	-0.227630	0.114592
O52	O	0.883767	-0.285448	0.219872
O53	O	1.094422	-0.285444	0.009282
C54	C	1.046026	-0.526730	0.057660
C55	C	0.989091	-0.553446	0.114557
C56	C	0.932154	-0.526750	0.171461
C57	C	0.989097	-0.606860	0.114557
C58	C	1.046034	-0.633556	0.057653
C59	C	1.102965	-0.606837	0.000750
C60	C	1.102963	-0.553425	0.000757
C61	C	0.875223	-0.553469	0.228364
C62	C	0.875231	-0.606881	0.228353
C63	C	0.932168	-0.633576	0.171450
C64	C	1.142175	-0.000046	0.108476
C65	C	1.235125	-0.000047	0.110127
C66	C	0.995205	-0.000040	-0.038494
C67	C	0.993553	-0.000038	-0.131444
N68	N	0.989128	0.120720	0.114554
C69	C	0.987621	-0.000039	-0.469192
C70	C	0.896069	0.000155	-0.421758
C71	C	0.897721	-0.000036	-0.325068
C72	C	0.990564	-0.000038	-0.301631
C73	C	1.035706	-0.048497	-0.342697
C74	C	1.033406	-0.048538	-0.439333
C75	C	1.035326	0.047962	-0.439714
C76	C	1.035304	0.048602	-0.342769
C77	C	0.992231	-0.000039	-0.206934
C78	C	0.985956	-0.000041	-0.563890
C79	C	0.982980	-0.000040	0.267671
C80	C	0.984631	-0.000039	0.360621
H81	H	0.414251	-0.084771	0.130897
H82	H	1.002299	0.084451	-0.315529
H83	H	0.828824	-0.371491	0.274704
H84	H	0.547106	-0.051606	0.228502
H85	H	1.005404	0.084691	-0.460262
C86	C	0.391895	-0.048486	0.252006
H87	H	0.356182	-0.019578	0.260997
H88	H	0.433564	-0.047420	0.289826
H89	H	0.359455	-0.078729	0.261444
H90	H	0.861976	-0.034830	-0.297195
C91	C	0.570134	0.097138	0.118823
H92	H	0.611159	0.088052	0.073622
H93	H	0.595874	0.116744	0.158808
H94	H	0.527014	0.116670	0.097871
H95	H	0.828834	-0.468385	0.274706
C96	C	0.587837	-0.046955	-0.024730
H97	H	0.647117	-0.046899	-0.023781
H98	H	0.575343	-0.045754	-0.081357
H99	H	0.564748	-0.077162	0.001378
C100	C	1.108633	-0.118113	-0.004884
H101	H	1.142535	-0.141665	-0.038780
H102	H	1.143486	-0.097276	0.025254
H103	H	1.078510	-0.097276	-0.039759
H104	H	0.416866	0.084680	0.125966
H105	H	0.859487	0.034906	-0.440298
C106	C	0.846841	-0.046527	-0.448204
H107	H	0.881841	-0.066135	-0.488025
H108	H	0.798646	-0.035385	-0.472752
H109	H	0.829681	-0.066867	-0.400146
H110	H	1.102827	0.048286	-0.471475
H111	H	0.577304	0.034760	-0.012526
C112	C	0.988899	-0.097466	-0.464049
H113	H	0.972388	-0.117130	-0.415052
H114	H	1.026300	-0.116842	-0.502015
H115	H	0.940535	-0.088609	-0.490313
C116	C	0.568622	-0.097108	0.116278
H117	H	0.608921	-0.087727	0.070619
H118	H	0.524723	-0.116139	0.095715
H119	H	0.594996	-0.117330	0.155037
H120	H	1.004332	-0.084557	-0.314307
C121	C	0.427707	-0.047173	-0.027864
H122	H	0.388095	-0.067076	0.006886
H123	H	0.476284	-0.067125	-0.044693
H124	H	0.403272	-0.036277	-0.076275
H125	H	1.100622	-0.050737	-0.471581
H126	H	1.092373	-0.222641	0.011351
C127	C	1.165581	-0.363810	-0.061825
H128	H	1.199480	-0.387365	-0.095717
H129	H	1.200438	-0.342971	-0.031695
H130	H	1.135456	-0.342976	-0.096702
H131	H	0.885774	-0.222689	0.217851
C132	C	1.165599	-0.475960	-0.061825
H133	H	1.199505	-0.452391	-0.095701
H134	H	1.135499	-0.496799	-0.096707
H135	H	1.200459	-0.496792	-0.031678
C136	C	1.108688	-0.769763	-0.004944
H137	H	1.142593	-0.793317	-0.038834
H138	H	1.143539	-0.748923	0.025191
H139	H	1.078565	-0.748930	-0.039824
C140	C	1.126770	0.052554	-0.322025
H141	H	1.138925	0.024464	-0.287857
H142	H	1.133871	0.083482	-0.292687
H143	H	1.163949	0.052141	-0.372741
C144	C	1.127847	-0.050939	-0.323612
H145	H	1.139630	-0.022360	-0.290346
H146	H	1.164152	-0.050491	-0.374899
H147	H	1.136596	-0.081472	-0.293797
H148	H	0.885812	-0.777439	0.217797
H149	H	0.402916	0.050656	0.226120
C150	C	0.426295	0.046450	-0.027665
H151	H	0.455241	0.046041	-0.082908
H152	H	0.439959	0.076795	0.000282
H153	H	0.367361	0.045307	-0.030750
C154	C	0.550885	0.050861	0.253345
H155	H	0.584155	0.022282	0.265127
H156	H	0.499598	0.050410	0.289651
H157	H	0.580695	0.081395	0.262096
H158	H	0.885834	-0.874332	0.217800
C159	C	1.108687	-0.881932	-0.004952
H160	H	1.100525	-0.917569	0.003197
H161	H	1.164569	-0.873179	0.004160
H162	H	1.099581	-0.873176	-0.060840
H163	H	0.885769	-0.125781	0.217853
C164	C	1.165591	-0.636209	-0.061845
H165	H	1.157426	-0.671846	-0.053698
H166	H	1.221472	-0.627456	-0.052727
H167	H	1.156491	-0.627452	-0.117735
H168	H	1.149329	-0.531677	-0.045577
H169	H	0.828865	-0.628629	0.274696
C170	C	0.812594	-0.524111	0.290966
H171	H	0.778698	-0.547678	0.324855
H172	H	0.777736	-0.503271	0.260839
H173	H	0.842717	-0.503279	0.325846
H174	H	0.862235	0.034701	-0.296654
