data_functionalizedCrystal
_audit_creation_method	'MofGen! by Chris Wilmer'
_symmetry_space_group_name_H-M	'P1'
_symmetry_Int_Tables_number	1
_symmetry_cell_setting	triclinic
loop_
_symmetry_equiv_pos_as_xyz
  x,y,z
_cell_length_a	14.853567
_cell_length_b	17.019294
_cell_length_c	13.330367
_cell_angle_alpha	86.116384
_cell_angle_beta	89.995418
_cell_angle_gamma	83.514509
loop_
_atom_site_label
_atom_site_type_symbol
_atom_site_fract_x
_atom_site_fract_y
_atom_site_fract_z
O1	O	1.196089	0.102989	-0.092250
O2	O	0.933597	0.115258	-0.093326
O3	O	1.072165	-0.005701	-0.082863
O4	O	1.057521	0.223948	-0.102712
O5	O	1.072145	-0.005704	0.083984
O6	O	0.933577	0.115255	0.073521
O7	O	1.196069	0.102987	0.074598
Cu8	Cu	1.064821	0.109121	0.089294
Cu9	Cu	1.064845	0.109124	-0.108022
O10	O	1.057501	0.223946	0.064135
C11	C	0.899999	0.114701	-0.009857
C12	C	0.799920	0.113035	-0.009719
C13	C	1.071600	-0.035092	0.003098
C14	C	1.069933	-0.122664	0.010660
C15	C	0.387600	0.034141	-0.002878
C16	C	0.365930	0.177843	-0.015299
C17	C	0.459959	0.179409	-0.015438
C18	C	0.517814	0.108340	-0.009298
C19	C	0.481639	0.035705	-0.003019
C20	C	0.496141	0.252043	-0.021727
C21	C	0.590176	0.253613	-0.021866
C22	C	0.648033	0.182543	-0.015719
C23	C	0.611852	0.109904	-0.009439
C24	C	0.669707	0.038836	-0.003299
C25	C	0.633529	-0.033804	0.002988
C26	C	0.539495	-0.035365	0.003128
C27	C	0.742066	0.184104	-0.015859
C28	C	0.763745	0.040400	-0.003441
C29	C	1.069163	-0.163800	-0.076735
C30	C	1.067592	-0.246083	-0.069626
C31	C	1.066797	-0.287229	0.024878
C32	C	1.067564	-0.246087	0.112280
C33	C	1.069129	-0.163805	0.105170
C34	C	1.062065	-0.535667	0.050895
C35	C	1.060503	-0.617955	0.057998
C36	C	1.060529	-0.617945	-0.123910
C37	C	1.062099	-0.535662	-0.131011
C38	C	1.062862	-0.494527	-0.043609
C39	C	1.065193	-0.371336	0.032147
C40	C	1.064459	-0.410421	-0.050879
C41	C	1.229667	0.103544	-0.008874
C42	C	1.329746	0.105210	-0.009018
C43	C	1.058067	0.253337	-0.021829
C44	C	1.059733	0.340909	-0.029398
N45	N	1.064811	0.109118	0.228076
N46	N	1.064862	0.109121	-0.246804
C47	C	1.003484	0.162664	0.696067
C48	C	1.126230	0.055578	0.705298
C49	C	1.126220	0.055576	0.600280
C50	C	1.064842	0.109119	0.543150
C51	C	1.003474	0.162664	0.591039
C52	C	1.187593	0.002037	0.552383
C53	C	1.187586	0.002033	0.447358
C54	C	1.126202	0.055573	0.390227
C55	C	1.064831	0.109120	0.438122
C56	C	1.003453	0.162663	0.380992
C57	C	0.942077	0.216207	0.428886
C58	C	0.942091	0.216204	0.533908
C59	C	1.126189	0.055575	0.285205
C60	C	1.003443	0.162664	0.275964
H61	H	0.810846	-0.017474	0.001563
H62	H	0.680646	-0.091668	0.007980
H63	H	1.237560	-0.041566	0.408370
H64	H	0.449030	0.309904	-0.026736
H65	H	1.176165	0.011984	0.246215
O66	O	1.247329	-0.049904	0.607816
C67	C	1.404137	-0.095939	0.643854
C68	C	1.336588	-0.037048	0.581025
H69	H	1.476317	-0.085577	0.622202
H70	H	1.393680	-0.086757	0.727157
H71	H	1.392412	-0.159127	0.628665
H72	H	1.348272	0.026163	0.596128
H73	H	1.347061	-0.046300	0.497742
H74	H	1.064549	-0.404846	0.109093
H75	H	1.176207	0.011989	0.751815
H76	H	0.619624	0.312759	-0.026986
H77	H	0.510030	-0.094504	0.008270
H78	H	1.069743	-0.130312	0.176337
O79	O	0.777360	0.254587	-0.022003
C80	C	0.912618	0.320685	-0.027659
C81	C	0.872770	0.240804	-0.020723
H82	H	0.989761	0.309569	-0.026605
H83	H	0.888856	0.355821	-0.100539
H84	H	0.888726	0.355810	0.039112
H85	H	0.896643	0.205615	-0.087441
H86	H	0.896527	0.205729	0.052199
H87	H	1.065100	-0.376915	-0.127824
H88	H	1.069816	-0.130305	-0.153691
O89	O	1.059688	-0.657799	0.149884
C90	C	1.059872	-0.649137	0.329562
C91	C	1.060773	-0.603913	0.225573
H92	H	1.060768	-0.605592	0.390785
H93	H	0.996065	-0.680490	0.336874
H94	H	1.122188	-0.694826	0.338007
H95	H	0.998501	-0.558186	0.217057
H96	H	1.124621	-0.572614	0.218308
O97	O	1.066833	-0.286181	0.204004
C98	C	1.064372	-0.412938	0.295576
C99	C	1.065212	-0.367635	0.191634
H100	H	1.063042	-0.478799	0.285611
H101	H	1.127750	-0.403967	0.339667
H102	H	1.001629	-0.389570	0.338408
H103	H	1.127913	-0.390973	0.148720
H104	H	1.001792	-0.376605	0.147620
O105	O	0.352418	-0.036397	0.003048
C106	C	0.258788	-0.121545	-0.075986
C107	C	0.298589	-0.041642	-0.082835
H108	H	0.215243	-0.125805	-0.145403
H109	H	0.316257	-0.172101	-0.071686
H110	H	0.215347	-0.125861	-0.005750
H111	H	0.342020	-0.037249	-0.153065
H112	H	0.241078	0.008876	-0.087080
O113	O	0.309641	0.246822	-0.021394
C114	C	0.190933	0.328475	-0.114915
C115	C	0.254619	0.250316	-0.108125
H116	H	0.146445	0.331333	-0.185043
H117	H	0.146301	0.331341	-0.045384
H118	H	0.232960	0.380646	-0.119375
H119	H	0.212664	0.198102	-0.103697
H120	H	0.299254	0.247520	-0.177656
H121	H	1.062704	-0.502187	0.122064
O122	O	1.066976	-0.286155	-0.154440
C123	C	1.143339	-0.387887	-0.251196
C124	C	1.144134	-0.342573	-0.155094
H125	H	1.205724	-0.433500	-0.251767
H126	H	1.079590	-0.419321	-0.253049
H127	H	1.144143	-0.344340	-0.319959
H128	H	1.143363	-0.386067	-0.086278
H129	H	1.207878	-0.311126	-0.153329
H130	H	1.062748	-0.502166	-0.207966
O131	O	0.882423	0.268294	0.373535
C132	C	0.760636	0.374477	0.375439
C133	C	0.828155	0.315545	0.438249
H134	H	0.716730	0.412682	0.427735
H135	H	0.799458	0.414002	0.322878
H136	H	0.715691	0.340329	0.329198
H137	H	0.873117	0.349628	0.484550
H138	H	0.789276	0.276020	0.490747
H139	H	1.059907	-0.651446	-0.195067
H140	H	0.953458	0.206262	0.229455
H141	H	0.892121	0.259799	0.572909
O142	O	0.943742	0.214594	0.742548
C143	C	0.786928	0.260589	0.770681
C144	C	0.854487	0.201723	0.718000
H145	H	0.714751	0.250214	0.750837
H146	H	0.797394	0.251391	0.855569
H147	H	0.798632	0.323785	0.744581
H148	H	0.842824	0.138503	0.744018
H149	H	0.844004	0.210990	0.633120
