data_functionalizedCrystal
_audit_creation_method	'MofGen! by Chris Wilmer'
_symmetry_space_group_name_H-M	'P1'
_symmetry_Int_Tables_number	1
_symmetry_cell_setting	triclinic
loop_
_symmetry_equiv_pos_as_xyz
  x,y,z
_cell_length_a	17.699083
_cell_length_b	14.044220
_cell_length_c	16.776229
_cell_angle_alpha	89.992645
_cell_angle_beta	89.998886
_cell_angle_gamma	88.235946
loop_
_atom_site_label
_atom_site_type_symbol
_atom_site_fract_x
_atom_site_fract_y
_atom_site_fract_z
O1	O	1.012346	0.119850	-0.066178
O2	O	0.793043	0.135443	-0.066204
O3	O	0.899403	-0.010330	-0.066183
O4	O	0.905986	0.265624	-0.066198
O5	O	0.899387	-0.010339	0.066393
O6	O	0.793027	0.135434	0.066372
O7	O	1.012330	0.119841	0.066399
Zn8	Zn	0.902676	0.127636	0.087435
Zn9	Zn	0.902697	0.127648	-0.087240
O10	O	0.905970	0.265615	0.066378
C11	C	0.764800	0.134880	0.000081
C12	C	0.680666	0.133204	0.000071
C13	C	0.637948	0.218769	0.000067
C14	C	0.558895	0.217189	0.000077
C15	C	0.522563	0.130041	0.000086
C16	C	0.565287	0.044469	0.000093
C17	C	0.644338	0.046050	0.000088
C18	C	0.246484	0.038089	0.000113
C19	C	0.167427	0.036514	0.000115
C20	C	0.161041	0.209227	0.000102
C21	C	0.240092	0.210809	0.000097
C22	C	0.282809	0.125237	0.000108
C23	C	0.368527	0.126952	0.000098
C24	C	0.436847	0.128325	0.000090
C25	C	0.896513	-0.045643	0.000105
C26	C	0.887917	-0.150849	0.000105
C27	C	0.872202	-0.343474	0.000091
C28	C	0.933168	-0.401248	0.000096
C29	C	0.924424	-0.508431	0.000089
C30	C	0.880945	-0.236281	0.000099
C31	C	1.040574	0.120404	0.000112
C32	C	1.124707	0.122081	0.000117
C33	C	0.908860	0.300927	0.000088
C34	C	0.917456	0.406133	0.000083
N35	N	0.902667	0.127628	0.206646
N36	N	0.902712	0.127649	-0.206452
C37	C	0.949781	0.063106	0.248372
C38	C	0.949785	0.063105	0.331825
C39	C	0.902679	0.127631	0.373549
C40	C	0.855560	0.192156	0.331817
C41	C	0.855552	0.192152	0.248366
C42	C	0.855589	0.192175	0.668364
C43	C	0.855601	0.192176	0.751821
C44	C	0.949821	0.063128	0.751822
C45	C	0.949813	0.063123	0.668372
C46	C	0.902692	0.127645	0.626647
C47	C	0.902687	0.127644	0.536159
C48	C	0.902687	0.127638	0.464036
H49	H	0.524117	0.286865	0.000073
H50	H	0.269670	0.281773	0.000086
O51	O	0.995631	0.000403	0.372234
C52	C	1.037200	-0.056557	0.317512
H53	H	1.040660	-0.017705	0.258018
H54	H	1.007891	-0.126934	0.308654
C55	C	1.113275	-0.123911	0.423140
C56	C	1.117531	-0.076189	0.350071
H57	H	1.162826	-0.136026	0.443225
H58	H	1.085268	-0.085540	0.460008
H59	H	1.088848	-0.182553	0.415749
H60	H	1.141949	-0.017543	0.357465
H61	H	1.145544	-0.114551	0.313205
H62	H	0.991930	-0.370212	0.000050
O63	O	0.802158	-0.380648	0.000122
C64	C	0.808913	-0.480942	0.000099
H65	H	0.866429	-0.504174	0.025197
H66	H	0.803426	-0.508451	-0.063506
C67	C	0.675365	-0.493420	0.021262
C68	C	0.746005	-0.521954	0.052095
H69	H	0.636559	-0.518720	0.053333
H70	H	0.670813	-0.425850	0.021275
H71	H	0.670804	-0.516346	-0.031741
H72	H	0.750569	-0.499018	0.105093
H73	H	0.750556	-0.589521	0.052093
O74	O	0.685869	-0.037044	0.000230
C75	C	0.731802	-0.041290	0.068881
H76	H	0.706167	0.007237	0.116870
H77	H	0.790854	-0.016891	0.053353
C78	C	0.768319	-0.204044	0.041081
C79	C	0.736830	-0.144448	0.100025
H80	H	0.771424	-0.267676	0.060291
H81	H	0.737376	-0.201182	-0.005172
H82	H	0.817526	-0.183699	0.028147
H83	H	0.687621	-0.164786	0.112951
H84	H	0.767766	-0.147315	0.146281
H85	H	0.126251	0.278904	0.000097
H86	H	0.988143	0.010565	0.214406
H87	H	0.988174	0.010583	0.634402
H88	H	0.535699	-0.026488	0.000112
H89	H	0.988187	0.010588	0.785804
O90	O	0.809837	0.254966	0.372256
C91	C	0.828475	0.348766	0.351861
H92	H	0.857633	0.348600	0.291268
H93	H	0.868121	0.378023	0.398820
C94	C	0.720076	0.412134	0.422422
C95	C	0.755884	0.411931	0.347997
H96	H	0.675300	0.451100	0.420042
H97	H	0.707521	0.348940	0.436165
H98	H	0.753123	0.436513	0.461546
H99	H	0.722841	0.387542	0.308876
H100	H	0.768432	0.475123	0.334247
H101	H	0.817239	0.244723	0.785791
O102	O	0.132253	-0.048230	0.000164
C103	C	0.186906	-0.123420	0.000155
H104	H	0.242322	-0.096980	0.025250
H105	H	0.196295	-0.149809	-0.063445
C106	C	0.091006	-0.238094	0.021336
C107	C	0.159066	-0.205623	0.052165
H108	H	0.073832	-0.288803	0.053415
H109	H	0.054184	-0.187438	0.021340
H110	H	0.098839	-0.260079	-0.031663
H111	H	0.151230	-0.183628	0.105159
H112	H	0.195886	-0.256277	0.052172
O113	O	0.809705	0.254701	0.207795
C114	C	0.759603	0.204014	0.159524
H115	H	0.753286	0.129274	0.184685
H116	H	0.782945	0.199006	0.096276
C117	C	0.689635	0.348167	0.127340
C118	C	0.681871	0.256374	0.158248
H119	H	0.641687	0.380467	0.126550
H120	H	0.723391	0.382318	0.159859
H121	H	0.709089	0.343981	0.074636
H122	H	0.662426	0.260561	0.210954
H123	H	0.648110	0.222225	0.125738
H124	H	0.667523	0.289735	0.000059
O125	O	0.288051	-0.044972	0.000008
C126	C	0.333952	-0.049235	-0.068667
H127	H	0.343028	0.025982	-0.091560
H128	H	0.305056	-0.092449	-0.116746
C129	C	0.399717	-0.189507	-0.019697
C130	C	0.410870	-0.097123	-0.047810
H131	H	0.447163	-0.219050	-0.006833
H132	H	0.368791	-0.186638	0.026570
H133	H	0.375635	-0.225506	-0.059767
H134	H	0.434942	-0.061122	-0.007737
H135	H	0.441802	-0.099987	-0.094070
H136	H	0.817222	0.244712	0.634398
