data_functionalizedCrystal
_audit_creation_method	'MofGen! by Chris Wilmer'
_symmetry_space_group_name_H-M	'P1'
_symmetry_Int_Tables_number	1
_symmetry_cell_setting	triclinic
loop_
_symmetry_equiv_pos_as_xyz
  x,y,z
_cell_length_a	6.817900
_cell_length_b	19.551786
_cell_length_c	9.582880
_cell_angle_alpha	93.823021
_cell_angle_beta	111.207034
_cell_angle_gamma	101.662645
loop_
_atom_site_label
_atom_site_type_symbol
_atom_site_fract_x
_atom_site_fract_y
_atom_site_fract_z
V1	V	-4.107761	-0.096379	-0.467294
O2	O	-4.102841	0.004935	-0.457684
O3	O	-4.049964	-0.191396	-0.464786
O4	O	-4.098683	-0.094764	-0.670783
O5	O	-4.053784	-0.092366	-0.250260
V6	V	-4.587511	-0.084277	-0.441251
O7	O	-4.377295	-0.122927	-0.524420
O8	O	-4.768174	-0.057729	-0.384125
O9	O	-4.422102	0.010740	-0.443760
O10	O	-4.709828	-0.185591	-0.450862
O11	O	-4.758885	-0.088290	-0.658285
O12	O	-4.373382	-0.085892	-0.237762
C13	C	-3.891406	-0.214563	-0.457591
C14	C	-3.925699	-0.292239	-0.456897
C15	C	-4.109030	-0.842085	-0.314946
C16	C	-4.076787	-0.769098	-0.315583
C17	C	-4.124506	-0.742453	-0.452939
C18	C	-4.204424	-0.788799	-0.589664
C19	C	-4.236645	-0.861784	-0.589022
C20	C	-4.240546	-0.636720	-0.564667
C21	C	-4.208336	-0.563737	-0.565304
C22	C	-4.025120	-0.517345	-0.454925
C23	C	-3.874133	-0.543943	-0.343884
C24	C	-3.906354	-0.616928	-0.343241
C25	C	-4.089574	-0.663314	-0.453650
C26	C	-3.910234	-0.391867	-0.318898
C27	C	-3.877980	-0.318879	-0.319540
C28	C	-4.005640	-0.338582	-0.593626
C29	C	-4.037871	-0.411568	-0.592979
C30	C	-3.990174	-0.438206	-0.455611
C31	C	-3.953551	-0.091298	-0.720360
C32	C	-4.027351	-0.090606	-0.886718
C33	C	-4.244000	0.033903	-0.450950
C34	C	-4.188947	0.111579	-0.451654
C35	C	-4.181854	-0.089360	-0.188178
C36	C	-4.087293	-0.090049	-0.021818
H37	H	-3.783410	-0.638581	-0.252831
H38	H	-3.724942	-0.506172	-0.254002
H39	H	-4.011696	-0.731363	-0.204255
H40	H	-3.871381	-0.413556	-0.207044
C41	C	-4.125816	-0.462541	-0.743362
H42	H	-4.149637	-0.436222	-0.825260
H43	H	-4.023402	-0.489085	-0.743113
H44	H	-4.258699	-0.493759	-0.754502
C45	C	-4.058012	-0.309279	-0.744709
H46	H	-4.027350	-0.259174	-0.725513
H47	H	-3.971820	-0.322960	-0.795152
H48	H	-4.207161	-0.327614	-0.806664
H49	H	-4.331283	-0.542086	-0.655719
C50	C	-3.790063	-0.267908	-0.169153
H51	H	-3.766293	-0.294229	-0.087257
H52	H	-3.657189	-0.236689	-0.157996
H53	H	-3.892501	-0.241366	-0.169417
H54	H	-4.389744	-0.674489	-0.654562
H55	H	-4.070184	-0.863768	-0.203090
H56	H	-4.243271	-0.767100	-0.701500
H57	H	-4.301721	-0.899512	-0.700350
