data_functionalizedCrystal
_audit_creation_method	'MofGen! by Chris Wilmer'
_symmetry_space_group_name_H-M	'P1'
_symmetry_Int_Tables_number	1
_symmetry_cell_setting	triclinic
loop_
_symmetry_equiv_pos_as_xyz
  x,y,z
_cell_length_a	6.817900
_cell_length_b	19.453103
_cell_length_c	23.753023
_cell_angle_alpha	96.732430
_cell_angle_beta	100.067528
_cell_angle_gamma	101.709178
loop_
_atom_site_label
_atom_site_type_symbol
_atom_site_fract_x
_atom_site_fract_y
_atom_site_fract_z
V1	V	-3.979890	-0.098070	-0.178657
O2	O	-3.977363	0.003800	-0.174982
O3	O	-3.923007	-0.193578	-0.177698
O4	O	-3.915026	-0.096961	-0.256455
O5	O	-3.985399	-0.093485	-0.095680
V6	V	-4.466751	-0.085837	-0.168700
O7	O	-4.233827	-0.124902	-0.200497
O8	O	-4.663011	-0.059005	-0.146859
O9	O	-4.300427	0.009671	-0.169659
O10	O	-4.586674	-0.187707	-0.172374
O11	O	-4.578638	-0.090422	-0.251677
O12	O	-4.308408	-0.086945	-0.090902
C13	C	-3.766476	-0.216848	-0.174947
C14	C	-3.801145	-0.294930	-0.174682
C15	C	-3.756295	-0.093603	-0.275409
C16	C	-3.784489	-0.093330	-0.339011
C17	C	-3.998600	-0.335199	-0.177419
C18	C	-4.031178	-0.408566	-0.177175
C19	C	-3.866283	-0.441659	-0.174184
C20	C	-3.668801	-0.401381	-0.171450
C21	C	-3.636232	-0.328016	-0.171699
N22	N	-3.764977	-0.547748	-0.138925
N23	N	-3.795928	-0.617441	-0.138687
C24	C	-3.964401	-0.662702	-0.173434
N25	N	-4.100781	-0.635636	-0.208420
N26	N	-4.069832	-0.565936	-0.208656
C27	C	-3.901579	-0.521210	-0.173913
C28	C	-4.197195	-0.782525	-0.175907
C29	C	-4.229768	-0.855894	-0.175667
C30	C	-3.867382	-0.848706	-0.169936
C31	C	-3.834818	-0.775340	-0.170182
C32	C	-3.999730	-0.742253	-0.173165
C33	C	-3.992186	-0.156079	-0.741773
C34	C	-4.018711	-0.155833	-0.801536
O35	O	-4.060243	-0.210444	-0.839546
N36	N	-3.999339	-0.091344	-0.823078
C37	C	-3.953460	-0.027097	-0.784853
O38	O	-3.939421	0.027779	-0.808663
C39	C	-3.926950	-0.027344	-0.725091
C40	C	-3.946305	-0.091838	-0.703553
C41	C	-4.011540	-0.220567	-0.720234
C42	C	-3.985013	-0.220813	-0.660476
C43	C	-3.939132	-0.156572	-0.622256
C44	C	-3.919778	-0.092084	-0.643795
C45	C	-3.881086	0.036901	-0.686868
C46	C	-3.854579	0.036648	-0.627104
C47	C	-3.873934	-0.027845	-0.605565
C48	C	-3.847370	-0.028088	-0.545816
N49	N	-3.866742	-0.092577	-0.524274
C50	C	-3.912623	-0.156819	-0.562494
C51	C	-4.009138	-0.026582	-0.910356
C52	C	-4.035633	-0.026334	-0.970116
C53	C	-4.100885	-0.155070	-0.986796
C54	C	-4.074376	-0.155317	-0.927034
C55	C	-4.028509	-0.091071	-0.888815
C56	C	-3.856910	-0.157331	-0.436996
C57	C	-3.830370	-0.157571	-0.377231
C58	C	-3.765130	-0.028836	-0.360557
C59	C	-3.791658	-0.028595	-0.420317
C60	C	-3.837557	-0.092848	-0.458535
O61	O	-3.805844	0.026495	-0.507772
O62	O	-3.926680	-0.211686	-0.538676
C63	C	-4.120300	0.032937	-0.172407
C64	C	-4.064869	0.111018	-0.172676
C65	C	-4.130481	-0.090306	-0.071945
C66	C	-4.081527	-0.090576	-0.008342
H67	H	-4.191975	-0.441359	-0.179403
C68	C	-3.421725	-0.284303	-0.168603
C69	C	-3.293776	-0.290258	-0.117329
C70	C	-3.096163	-0.249991	-0.114451
H71	H	-3.370354	-0.301388	-0.200879
H72	H	-3.425839	-0.235856	-0.169144
H73	H	-3.289656	-0.338696	-0.116793
H74	H	-3.345082	-0.273169	-0.085044
H75	H	-3.100277	-0.201544	-0.114993
H76	H	-3.044812	-0.267080	-0.146730
H77	H	-3.009330	-0.254021	-0.079660
C78	C	-3.860089	0.106996	-0.710131
C79	C	-3.814296	0.163193	-0.663859
C80	C	-3.794963	0.227778	-0.685265
H81	H	-3.753154	0.112130	-0.731219
H82	H	-3.985002	0.107557	-0.734946
H83	H	-3.689399	0.162633	-0.639054
H84	H	-3.921211	0.158082	-0.642766
H85	H	-3.919876	0.228338	-0.710079
H86	H	-3.688029	0.232905	-0.706353
H87	H	-3.763910	0.265914	-0.653873
H88	H	-4.331476	-0.755584	-0.178335
H89	H	-4.390565	-0.888681	-0.177899
H90	H	-3.733122	-0.875650	-0.167504
H91	H	-3.674027	-0.742551	-0.167950
H92	H	-3.817236	0.088966	-0.595988
C93	C	-3.490015	-0.437432	-0.168174
C94	C	-3.560789	-0.510298	-0.168524
C95	C	-3.396141	-0.543528	-0.165502
H96	H	-3.428132	-0.430598	-0.200564
H97	H	-3.392211	-0.417384	-0.133487
H98	H	-3.658558	-0.530339	-0.203207
H99	H	-3.622654	-0.517152	-0.136137
H100	H	-3.298336	-0.523481	-0.130815
H101	H	-3.334269	-0.536689	-0.197893
H102	H	-3.444135	-0.592969	-0.165734
C103	C	-3.851491	-0.227670	-0.353961
C104	C	-3.897371	-0.283876	-0.400229
C105	C	-3.916834	-0.348458	-0.378817
H106	H	-3.726649	-0.228274	-0.329148
H107	H	-3.958453	-0.232755	-0.332871
H108	H	-3.790417	-0.278793	-0.421309
H109	H	-4.022218	-0.283295	-0.425046
H110	H	-4.023796	-0.353542	-0.357727
H111	H	-3.791986	-0.349055	-0.354004
H112	H	-3.947983	-0.386601	-0.410206
H113	H	-3.775908	0.023920	-0.437854
C114	C	-4.150310	-0.224835	-1.028266
C115	C	-3.992537	-0.260405	-1.016025
C116	C	-4.037981	-0.324664	-1.054222
H117	H	-4.275194	-0.253655	-1.023801
H118	H	-4.163240	-0.215472	-1.066948
H119	H	-3.979630	-0.269769	-0.977353
H120	H	-3.867638	-0.231605	-1.020494
H121	H	-4.050911	-0.315302	-1.092904
H122	H	-4.162868	-0.353479	-1.049754
H123	H	-3.930933	-0.348804	-1.045926
C124	C	-3.907142	-0.227077	-0.478519
C125	C	-4.095296	-0.234039	-0.516060
C126	C	-4.141633	-0.298283	-0.554312
H127	H	-3.803134	-0.227478	-0.500370
H128	H	-3.914987	-0.265537	-0.457147
H129	H	-4.087437	-0.195589	-0.537429
H130	H	-4.199344	-0.233651	-0.494224
H131	H	-4.149479	-0.336743	-0.532941
H132	H	-4.037614	-0.298678	-0.576160
H133	H	-4.269308	-0.303018	-0.579785
H134	H	-4.000788	-0.273330	-0.642945
C135	C	-4.061234	-0.290395	-0.761629
C136	C	-4.072451	-0.346913	-0.729962
C137	C	-4.118180	-0.411253	-0.768070
H138	H	-4.188856	-0.295338	-0.787174
H139	H	-3.956991	-0.290762	-0.783411
H140	H	-4.176687	-0.346547	-0.708190
H141	H	-3.944849	-0.341995	-0.704419
H142	H	-4.013937	-0.411620	-0.789852
H143	H	-4.245799	-0.416188	-0.793613
H144	H	-4.125778	-0.449608	-0.746589
H145	H	-4.090137	-0.207833	-0.909502
H146	H	-4.019842	0.026184	-0.987647
C147	C	-3.959212	0.043253	-0.868955
C148	C	-3.947873	0.099778	-0.900616
C149	C	-3.901863	0.164120	-0.862500
H150	H	-4.063326	0.043690	-0.847145
H151	H	-3.831547	0.048126	-0.843435
H152	H	-4.075521	0.094907	-0.926126
H153	H	-3.843757	0.099364	-0.922425
H154	H	-3.774198	0.168992	-0.836981
H155	H	-4.005983	0.164549	-0.840692
H156	H	-3.894145	0.202479	-0.883977
C157	C	-3.715728	0.040879	-0.319033
C158	C	-3.869626	0.041171	-0.287002
C159	C	-3.824213	0.105384	-0.248748
H160	H	-3.588206	0.045776	-0.293452
H161	H	-3.708085	0.079346	-0.340396
H162	H	-3.877247	0.002715	-0.265641
H163	H	-3.997162	0.036286	-0.312567
H164	H	-3.816570	0.143851	-0.270111
H165	H	-3.696689	0.110275	-0.223172
H166	H	-3.928634	0.105593	-0.227015
H167	H	-4.132890	-0.308265	-0.179851
