data_functionalizedCrystal
_audit_creation_method	'MofGen! by Chris Wilmer'
_symmetry_space_group_name_H-M	'P1'
_symmetry_Int_Tables_number	1
_symmetry_cell_setting	triclinic
loop_
_symmetry_equiv_pos_as_xyz
  x,y,z
_cell_length_a	21.295418
_cell_length_b	16.994747
_cell_length_c	21.295411
_cell_angle_alpha	89.994024
_cell_angle_beta	90.043738
_cell_angle_gamma	90.026880
loop_
_atom_site_label
_atom_site_type_symbol
_atom_site_fract_x
_atom_site_fract_y
_atom_site_fract_z
Zn1	Zn	0.962441	-0.313785	0.356354
Zn2	Zn	0.962379	-0.445672	0.251131
Zn3	Zn	0.857164	-0.313822	0.251064
Zn4	Zn	0.857169	-0.445687	0.356327
O5	O	0.909788	-0.379741	0.303719
O6	O	1.050522	-0.331258	0.342435
O7	O	0.948394	-0.428190	0.163032
O8	O	0.871153	-0.203436	0.265015
O9	O	1.050477	-0.428155	0.265128
O10	O	0.948499	-0.203409	0.342371
O11	O	0.871093	-0.331321	0.162984
O12	O	0.769075	-0.331336	0.264988
O13	O	0.871162	-0.428181	0.444420
O14	O	0.769079	-0.428217	0.342324
O15	O	0.948504	-0.331273	0.444440
O16	O	0.948399	-0.556055	0.265101
O17	O	0.871102	-0.556066	0.342389
C18	C	0.746237	-0.379783	0.303647
C19	C	0.676268	-0.379820	0.303631
C20	C	0.909752	-0.584681	0.303747
C21	C	0.909756	-0.674003	0.303746
Zn22	Zn	0.857182	-0.944908	0.251047
Zn23	Zn	0.962469	-0.944850	0.356327
Zn24	Zn	0.857191	-0.813080	0.356316
Zn25	Zn	0.962390	-0.812927	0.251110
O26	O	0.909808	-0.878941	0.303700
O27	O	0.871178	-1.055282	0.264990
O28	O	0.948540	-0.927410	0.444415
O29	O	0.769100	-0.830655	0.342321
O30	O	0.948532	-1.055239	0.342339
O31	O	0.769094	-0.927510	0.264980
O32	O	0.871192	-0.830599	0.444407
O33	O	0.871116	-0.702678	0.342383
O34	O	0.948398	-0.830395	0.163012
O35	O	0.948406	-0.702566	0.265088
O36	O	0.871102	-0.927361	0.162966
O37	O	1.050548	-0.927262	0.342400
O38	O	1.050490	-0.830338	0.265098
C39	C	0.643420	-0.430332	0.343839
C40	C	0.577678	-0.430313	0.343868
C41	C	0.544786	-0.379789	0.303676
C42	C	0.577642	-0.329267	0.263464
C43	C	0.643383	-0.329282	0.263442
N44	N	0.441508	-0.373615	0.248616
N45	N	0.379057	-0.373605	0.248639
C46	C	0.346711	-0.379739	0.303743
N47	N	0.379176	-0.385898	0.358823
N48	N	0.441634	-0.385912	0.358799
C49	C	0.473501	-0.379767	0.303696
C50	C	0.242578	-0.430233	0.343985
C51	C	0.176834	-0.430208	0.344015
C52	C	0.176800	-0.329166	0.263606
C53	C	0.242542	-0.329187	0.263582
C54	C	0.275427	-0.379725	0.303771
C55	C	1.073979	-0.379700	0.303792
C56	C	1.143947	-0.379683	0.303823
C57	C	0.909840	-0.379725	0.467909
C58	C	0.909863	-0.379718	0.537878
C59	C	0.909828	-0.174001	0.303687
C60	C	0.909847	-0.084679	0.303674
C61	C	0.909772	-0.379701	0.140167
C62	C	0.909872	-0.379486	0.070200
C63	C	0.950133	-0.329255	0.570756
C64	C	0.950132	-0.329221	0.636498
C65	C	0.909868	-0.379663	0.669360
C66	C	0.869589	-0.430129	0.636474
C67	C	0.869587	-0.430156	0.570733
N68	N	0.905030	-0.448668	0.772600
N69	N	0.905036	-0.448640	0.835052
C70	C	0.909872	-0.379583	0.867435
N71	N	0.914714	-0.310554	0.835007
N72	N	0.914711	-0.310583	0.772550
C73	C	0.909866	-0.379639	0.740645
C74	C	0.950143	-0.329080	0.971599
C75	C	0.950138	-0.329044	1.037342
C76	C	0.869598	-0.429959	1.037317
C77	C	0.869600	-0.429988	0.971574
C78	C	0.909876	-0.379549	0.938719
C79	C	1.073360	-0.878779	0.303759
C80	C	1.143328	-0.878733	0.303802
C81	C	0.909740	-0.878868	0.139510
C82	C	0.909711	-0.878836	0.069541
C83	C	0.745618	-0.879106	0.303642
C84	C	0.675650	-0.879176	0.303618
C85	C	0.909831	-0.879059	0.467251
C86	C	0.909684	-0.879241	0.537219
C87	C	1.176197	-0.929221	0.344037
C88	C	1.241940	-0.929193	0.344079
C89	C	1.274812	-0.878672	0.303887
C90	C	1.241938	-0.828182	0.263648
C91	C	1.176196	-0.828214	0.263604
C92	C	0.869449	-0.929307	0.036656
C93	C	0.869409	-0.929278	-0.029087
C94	C	0.909636	-0.878781	-0.061942
C95	C	0.949900	-0.828305	-0.029052
C96	C	0.949936	-0.828331	0.036689
C97	C	0.642792	-0.828777	0.343874
C98	C	0.577049	-0.828827	0.343851
C99	C	0.544166	-0.879282	0.303575
C100	C	0.577028	-0.929684	0.263314
C101	C	0.642770	-0.929629	0.263334
C102	C	0.869633	-0.828557	0.570046
C103	C	0.869483	-0.828727	0.635788
C104	C	0.909387	-0.879579	0.668702
C105	C	0.949440	-0.930269	0.635871
C106	C	0.949587	-0.930102	0.570130
H107	H	0.670191	-0.471483	0.376565
H108	H	0.982928	-0.288183	0.544009
O109	O	0.545163	-0.779954	0.383057
C110	C	0.525133	-0.741716	0.490142
C111	C	0.561269	-0.797124	0.445813
H112	H	0.538151	-0.755567	0.540888
H113	H	0.472489	-0.750415	0.483268
H114	H	0.538041	-0.678102	0.479079
H115	H	0.548413	-0.860760	0.456848
H116	H	0.613904	-0.788356	0.452695
H117	H	0.836691	-0.970430	0.063399
O118	O	1.273971	-0.779129	0.224671
C119	C	1.375257	-0.734347	0.189090
C120	C	1.339056	-0.789929	0.233268
H121	H	1.427884	-0.743071	0.196015
H122	H	1.362384	-0.670750	0.200196
H123	H	1.362297	-0.748111	0.138313
H124	H	1.351997	-0.776237	0.284059
H125	H	1.351932	-0.853510	0.222107
H126	H	0.982924	-0.288124	0.663273
O127	O	1.273962	-0.978209	0.383116
C128	C	1.375234	-1.022894	0.418874
C129	C	1.339050	-0.967360	0.374621
H130	H	1.427864	-1.014131	0.412031
H131	H	1.362348	-1.086507	0.407764
H132	H	1.362272	-1.009118	0.469625
H133	H	1.351993	-0.981065	0.323855
H134	H	1.351940	-0.903764	0.385785
O135	O	0.144954	-0.280011	0.224543
C136	C	0.151858	-0.179827	0.144762
C137	C	0.188005	-0.235446	0.188977
H138	H	0.186649	-0.143794	0.115986
H139	H	0.121152	-0.138575	0.173689
H140	H	0.121005	-0.215986	0.111845
H141	H	0.218891	-0.199352	0.221902
H142	H	0.218671	-0.276701	0.160011
H143	H	0.836803	-0.471197	0.663234
O144	O	0.830450	-0.479258	0.538889
C145	C	0.750543	-0.579317	0.545801
C146	C	0.794841	-0.523760	0.581944
H147	H	0.721732	-0.615299	0.580595
H148	H	0.779408	-0.620620	0.515080
H149	H	0.717663	-0.543114	0.514965
H150	H	0.827730	-0.559899	0.612814
H151	H	0.765937	-0.482454	0.612626
O152	O	0.830281	-0.978395	-0.060930
C153	C	0.750439	-1.078535	-0.054011
C154	C	0.794727	-1.022962	-0.017872
H155	H	0.721673	-1.114570	-0.019214
H156	H	0.779307	-1.119788	-0.084772
H157	H	0.717516	-1.042341	-0.084807
H158	H	0.827659	-1.059093	0.012958
H159	H	0.765820	-0.981707	0.012849
H160	H	0.909601	-0.878769	-0.115473
O161	O	0.674782	-0.978524	0.224254
C162	C	0.776042	-1.023201	0.188619
C163	C	0.739872	-0.967770	0.232901
H164	H	0.828674	-1.014537	0.195604
H165	H	0.763138	-1.009343	0.137844
H166	H	0.763086	-1.086807	0.199658
H167	H	0.752810	-0.904146	0.221918
H168	H	0.752780	-0.981696	0.283662
H169	H	0.982651	-0.787192	-0.055813
H170	H	0.269354	-0.471380	0.376713
O171	O	0.274523	-0.280235	0.224485
C172	C	0.348627	-0.269489	0.139455
C173	C	0.312460	-0.325021	0.183703
H174	H	0.379298	-0.305677	0.106462
H175	H	0.379502	-0.228317	0.168354
H176	H	0.313815	-0.233358	0.110762
H177	H	0.347226	-0.361204	0.212405
H178	H	0.281575	-0.366141	0.154768
O179	O	0.989280	-0.280005	0.939776
C180	C	1.069187	-0.179940	0.946738
C181	C	1.024887	-0.235463	0.982853
H182	H	1.097996	-0.143925	0.981550
H183	H	1.040324	-0.138665	0.915939
H184	H	1.102068	-0.216172	0.915981
H185	H	0.991997	-0.199295	1.013644
H186	H	1.053789	-0.276740	1.013612
O187	O	0.989195	-0.280041	1.069380
C188	C	1.024908	-0.235295	1.170668
C189	C	0.980637	-0.290822	1.134464
H190	H	1.018014	-0.244004	1.223295
H191	H	1.013866	-0.171684	1.157753
H192	H	1.075658	-0.249130	1.157752
H193	H	0.929872	-0.277058	1.147360
H194	H	0.991734	-0.354416	1.147382
O195	O	0.830548	-0.478940	1.069328
C196	C	0.794840	-0.523602	1.170595
C197	C	0.839106	-0.468101	1.134417
H198	H	0.801734	-0.514845	1.223226
H199	H	0.805888	-0.587222	1.157743
H200	H	0.744089	-0.509785	1.157592
H201	H	0.889872	-0.481846	1.147401
H202	H	0.828003	-0.404497	1.147272
H203	H	0.836811	-0.471084	0.944805
O204	O	0.545667	-0.280304	0.224351
C205	C	0.471333	-0.269523	0.139418
C206	C	0.507514	-0.325068	0.183665
H207	H	0.440468	-0.305692	0.106521
H208	H	0.506080	-0.233438	0.110628
H209	H	0.440633	-0.228309	0.168383
H210	H	0.538215	-0.366330	0.154748
H211	H	0.472733	-0.361098	0.212457
O212	O	0.989114	-0.779282	0.068533
C213	C	1.068927	-0.679106	0.061611
C214	C	1.024598	-0.734630	0.025474
H215	H	1.097618	-0.642979	0.026813
H216	H	1.101912	-0.715264	0.092369
H217	H	1.040030	-0.637930	0.092410
H218	H	1.053444	-0.775817	-0.005359
H219	H	0.991611	-0.698423	-0.005245
H220	H	1.149439	-0.787096	0.230842
O221	O	0.545857	-0.479454	0.382951
C222	C	0.552825	-0.579638	0.462731
C223	C	0.588936	-0.524044	0.418489
H224	H	0.587638	-0.615692	0.491484
H225	H	0.522007	-0.620873	0.433827
H226	H	0.522086	-0.543459	0.495668
H227	H	0.619709	-0.560159	0.385543
H228	H	0.619714	-0.482806	0.447432
O229	O	0.674756	-0.779872	0.383066
C230	C	0.749038	-0.769208	0.468059
C231	C	0.712872	-0.824690	0.423725
H232	H	0.779873	-0.805420	0.500934
H233	H	0.714281	-0.733210	0.496868
H234	H	0.779767	-0.727909	0.439161
H235	H	0.682142	-0.866036	0.452575
H236	H	0.747663	-0.860633	0.394914
O237	O	0.544984	-0.978671	0.224254
C238	C	0.443688	-1.023417	0.188525
C239	C	0.479902	-0.967909	0.232798
H240	H	0.391063	-1.014724	0.195408
H241	H	0.456580	-1.087032	0.199575
H242	H	0.456618	-1.009550	0.137776
H243	H	0.466991	-0.981705	0.283562
H244	H	0.467006	-0.904311	0.221694
O245	O	0.830558	-0.779405	0.667575
C246	C	0.751253	-0.678691	0.660538
C247	C	0.795312	-0.734495	0.624465
H248	H	0.722735	-0.642378	0.625700
H249	H	0.780284	-0.637708	0.691450
H250	H	0.718089	-0.714720	0.691178
H251	H	0.828484	-0.698529	0.593791
H252	H	0.766241	-0.775479	0.593593
O253	O	0.909186	-0.879609	0.732563
C254	C	0.865073	-0.824147	0.826850
C255	C	0.865250	-0.824027	0.754529
H256	H	0.829546	-0.779225	0.844631
H257	H	0.913852	-0.808168	0.844902
H258	H	0.851662	-0.885186	0.844557
H259	H	0.878635	-0.763006	0.736768
H260	H	0.816466	-0.840049	0.736519
H261	H	0.490635	-0.879316	0.303562
H262	H	0.837138	-0.787143	0.543256
H263	H	0.670128	-0.288146	0.230699
H264	H	0.981928	-0.971673	0.662680
H265	H	0.150090	-0.471340	0.376761
H266	H	0.982205	-0.971373	0.543408
H267	H	1.149441	-0.970361	0.376769
H268	H	1.328342	-0.878653	0.303930
