data_functionalizedCrystal
_audit_creation_method	'MofGen! by Chris Wilmer'
_symmetry_space_group_name_H-M	'P1'
_symmetry_Int_Tables_number	1
_symmetry_cell_setting	triclinic
loop_
_symmetry_equiv_pos_as_xyz
  x,y,z
_cell_length_a	17.077404
_cell_length_b	19.805405
_cell_length_c	17.077396
_cell_angle_alpha	90.031650
_cell_angle_beta	90.019501
_cell_angle_gamma	90.026635
loop_
_atom_site_label
_atom_site_type_symbol
_atom_site_fract_x
_atom_site_fract_y
_atom_site_fract_z
Zn1	Zn	1.200035	-0.269459	0.443825
Zn2	Zn	1.199934	-0.382652	0.312552
Zn3	Zn	1.068767	-0.269483	0.312573
Zn4	Zn	1.068727	-0.382612	0.443776
O5	O	1.134366	-0.326052	0.378182
O6	O	1.309869	-0.284481	0.426424
O7	O	1.182509	-0.367667	0.202708
O8	O	1.086239	-0.174763	0.330014
O9	O	1.309795	-0.367644	0.329978
O10	O	1.182681	-0.174746	0.426444
O11	O	1.086141	-0.284522	0.202724
O12	O	0.958915	-0.284483	0.329966
O13	O	1.086171	-0.367575	0.553629
O14	O	0.958886	-0.367598	0.426360
O15	O	1.182643	-0.284442	0.553666
O16	O	1.182470	-0.477363	0.329930
O17	O	1.086073	-0.477334	0.426339
C18	C	0.930418	-0.326039	0.378160
C19	C	0.843168	-0.326050	0.378169
C20	C	0.802183	-0.369394	0.428281
C21	C	0.720203	-0.369395	0.428294
C22	C	0.679209	-0.326056	0.378190
C23	C	0.720200	-0.282708	0.328076
C24	C	0.802179	-0.282703	0.328068
C25	C	0.549330	-0.282721	0.328095
C26	C	0.467345	-0.282726	0.328102
C27	C	0.467354	-0.369413	0.428321
C28	C	0.549333	-0.369409	0.428313
C29	C	0.590318	-0.326061	0.378197
C30	C	1.134278	-0.501908	0.378144
C31	C	1.134312	-0.577140	0.378154
C32	C	1.184555	-0.612477	0.328006
C33	C	1.184588	-0.683165	0.328023
C34	C	1.134374	-0.718515	0.378185
C35	C	1.084129	-0.683173	0.428338
C36	C	1.084100	-0.612486	0.428324
C37	C	1.084245	-0.968246	0.428397
C38	C	1.084276	-1.038938	0.428405
C39	C	1.184733	-1.038925	0.328095
C40	C	1.184704	-0.968238	0.328081
C41	C	1.134462	-0.932902	0.378237
C42	C	1.134427	-0.856254	0.378219
C43	C	1.134404	-0.795162	0.378200
C44	C	1.339110	-0.326064	0.378204
C45	C	1.426360	-0.326070	0.378213
C46	C	1.134414	-0.326002	0.582926
C47	C	1.134434	-0.325980	0.670176
C48	C	1.134476	-0.149509	0.378237
C49	C	1.134523	-0.074277	0.378261
C50	C	1.134364	-0.326052	0.174234
C51	C	1.134496	-0.325883	0.086984
C52	C	1.184668	-0.282690	0.711186
C53	C	1.184678	-0.282667	0.793167
C54	C	1.134456	-0.325939	0.834135
C55	C	1.084216	-0.369232	0.793119
C56	C	1.084203	-0.369251	0.711140
C57	C	1.084248	-0.369191	0.963989
C58	C	1.084261	-0.369174	1.045974
C59	C	1.184722	-0.282608	1.046016
C60	C	1.184709	-0.282626	0.964037
C61	C	1.134470	-0.325920	0.923026
H62	H	0.582697	-0.247417	0.287293
C63	C	1.239914	-0.235089	0.666124
C64	C	1.205925	-0.181961	0.609776
C65	C	1.261171	-0.134357	0.564716
C66	C	1.350406	-0.139881	0.576005
C67	C	1.384400	-0.193011	0.632356
C68	C	1.329154	-0.240615	0.677416
H69	H	1.139864	-0.177870	0.601417
H70	H	1.236006	-0.095027	0.523001
H71	H	1.391302	-0.104642	0.542649
H72	H	1.450461	-0.197103	0.640715
H73	H	1.354319	-0.279945	0.719130
C74	C	1.239955	-0.235027	0.918971
C75	C	1.233599	-0.158079	0.930263
C76	C	1.288844	-0.110477	0.885198
C77	C	1.350443	-0.139825	0.828841
C78	C	1.356802	-0.216778	0.817547
C79	C	1.301557	-0.264379	0.862612
H80	H	1.187997	-0.136350	0.971984
H81	H	1.284137	-0.053512	0.893560
H82	H	1.391339	-0.104588	0.795481
H83	H	1.402404	-0.238506	0.775826
H84	H	1.306264	-0.321345	0.854251
H85	H	0.582708	-0.404703	0.469107
H86	H	0.686816	-0.247417	0.287284
C87	C	1.240007	-1.077796	0.272927
C88	C	1.329236	-1.068004	0.279407
C89	C	1.384507	-1.106871	0.224237
C90	C	1.350549	-1.155531	0.162589
C91	C	1.261315	-1.165325	0.156107
C92	C	1.206045	-1.126458	0.211276
H93	H	1.354378	-1.031981	0.325045
H94	H	1.450563	-1.099621	0.229036
H95	H	1.391463	-1.184303	0.121750
H96	H	1.236173	-1.201348	0.110469
H97	H	1.139988	-1.133708	0.206477
C98	C	0.847267	-0.235025	0.272945
C99	C	0.836032	-0.158088	0.279519
C100	C	0.881120	-0.110404	0.224400
C101	C	0.937444	-0.139658	0.162706
C102	C	0.948682	-0.216599	0.156130
C103	C	0.903593	-0.264283	0.211250
H104	H	0.794335	-0.136429	0.325191
H105	H	0.872801	-0.053447	0.229268
H106	H	0.970821	-0.104360	0.121903
H107	H	0.990378	-0.238258	0.110458
H108	H	0.911913	-0.321240	0.206381
C109	C	1.029045	-0.416796	1.091042
C110	C	0.973800	-0.464432	1.045936
C111	C	0.918598	-0.512068	1.091004
C112	C	0.918642	-0.512069	1.181178
C113	C	0.973889	-0.464431	1.226288
C114	C	1.029091	-0.416795	1.181220
H115	H	0.973766	-0.464433	0.979179
H116	H	0.877701	-0.547332	1.057609
H117	H	0.877778	-0.547332	1.214540
H118	H	0.973923	-0.464430	1.293045
H119	H	1.069988	-0.381531	1.214615
H120	H	1.225500	-0.711933	0.287187
C121	C	1.028977	-0.416843	0.838176
C122	C	0.939740	-0.411328	0.826893
C123	C	0.884505	-0.458947	0.871944
C124	C	0.918506	-0.512081	0.928278
C125	C	1.007748	-0.517598	0.939563
C126	C	1.062983	-0.469979	0.894512
H127	H	0.914567	-0.371993	0.785189
H128	H	0.818443	-0.454862	0.863590
H129	H	0.877618	-0.547331	0.961627
H130	H	1.032921	-0.556933	0.981267
H131	H	1.129045	-0.474064	0.902866
C132	C	0.675116	-0.417078	0.483411
C133	C	0.618799	-0.387825	0.545111
C134	C	0.573711	-0.435509	0.600229
C135	C	0.584939	-0.512446	0.593647
C136	C	0.641258	-0.541703	0.531945
C137	C	0.686347	-0.494019	0.476826
H138	H	0.610485	-0.330868	0.549985
H139	H	0.532019	-0.413851	0.645905
H140	H	0.551562	-0.547745	0.634449
H141	H	0.649573	-0.598660	0.527070
H142	H	0.728038	-0.515677	0.431150
C143	C	1.028977	-0.929387	0.483568
C144	C	0.939748	-0.939176	0.477086
C145	C	0.884479	-0.900316	0.532264
C146	C	0.918439	-0.851667	0.593923
C147	C	1.007672	-0.841876	0.600407
C148	C	1.062942	-0.880736	0.545230
H149	H	0.914605	-0.975191	0.431440
H150	H	0.818422	-0.907564	0.527463
H151	H	0.877525	-0.822900	0.634769
H152	H	1.032815	-0.805862	0.646054
H153	H	1.128998	-0.873488	0.550031
C154	C	1.239792	-0.573594	0.272826
C155	C	1.233446	-0.583375	0.183586
C156	C	1.288687	-0.544495	0.128407
C157	C	1.350274	-0.495834	0.162469
C158	C	1.356623	-0.486050	0.251714
C159	C	1.301382	-0.524931	0.306893
H160	H	1.187853	-0.619399	0.158367
H161	H	1.283987	-0.551737	0.062341
H162	H	1.391167	-0.467052	0.121622
H163	H	1.402216	-0.450026	0.276933
H164	H	1.306082	-0.517688	0.372959
C165	C	1.028948	-0.416873	0.666022
C166	C	0.939716	-0.411343	0.677277
C167	C	0.884458	-0.458964	0.632159
C168	C	0.918432	-0.512115	0.575785
C169	C	1.007669	-0.517647	0.564528
C170	C	1.062927	-0.470026	0.609646
H171	H	0.914563	-0.371996	0.719011
H172	H	0.818399	-0.454869	0.640493
H173	H	0.877527	-0.547367	0.542386
H174	H	1.032822	-0.556995	0.522794
H175	H	1.128986	-0.474122	0.601312
H176	H	1.225590	-0.939458	0.287232
C177	C	0.422275	-0.417096	0.483449
C178	C	0.332101	-0.417103	0.483465
C179	C	0.287018	-0.464788	0.538587
C180	C	0.332108	-0.512467	0.593692
C181	C	0.422287	-0.512462	0.593679
C182	C	0.467370	-0.464776	0.538557
H183	H	0.298718	-0.381807	0.442670
H184	H	0.220261	-0.464792	0.538596
H185	H	0.298735	-0.547766	0.634497
H186	H	0.455670	-0.547757	0.634473
H187	H	0.534127	-0.464773	0.538547
H188	H	0.433970	-0.247428	0.287312
H189	H	1.043386	-1.067719	0.469259
H190	H	1.043247	-0.711961	0.469184
H191	H	1.225586	-0.247417	0.826554
H192	H	0.835555	-0.404688	0.469079
H193	H	1.043188	-0.583715	0.469161
H194	H	1.225628	-0.247355	1.079411
H195	H	1.043325	-0.404435	0.930601
