data_functionalizedCrystal
_audit_creation_method	'MofGen! by Chris Wilmer'
_symmetry_space_group_name_H-M	'P1'
_symmetry_Int_Tables_number	1
_symmetry_cell_setting	triclinic
loop_
_symmetry_equiv_pos_as_xyz
  x,y,z
_cell_length_a	23.532407
_cell_length_b	22.610064
_cell_length_c	23.532407
_cell_angle_alpha	89.999397
_cell_angle_beta	97.151322
_cell_angle_gamma	90.002839
loop_
_atom_site_label
_atom_site_type_symbol
_atom_site_fract_x
_atom_site_fract_y
_atom_site_fract_z
O1	O	0.755263	0.049117	-0.069127
O2	O	0.589400	0.049135	-0.079130
O3	O	0.677333	0.049114	0.008803
O4	O	0.667330	0.049137	-0.157060
O5	O	0.677318	-0.049255	0.008790
O6	O	0.589385	-0.049234	-0.079143
O7	O	0.755248	-0.049252	-0.069140
Zn8	Zn	0.672314	-0.064862	-0.074144
Zn9	Zn	0.672334	0.064744	-0.074127
O10	O	0.667315	-0.049232	-0.157073
C11	C	0.568176	-0.000048	-0.078882
C12	C	0.504959	-0.000041	-0.078116
N13	N	0.672304	-0.153314	-0.074155
C14	C	0.105856	-0.000061	-0.125350
C15	C	0.046456	-0.000065	-0.124638
O16	O	0.009711	-0.000081	-0.168424
N17	N	0.023830	-0.000071	-0.072362
C18	C	0.060607	-0.000080	-0.020794
O19	O	0.035908	-0.000086	0.023737
C20	C	0.120006	-0.000080	-0.021506
C21	C	0.142629	-0.000068	-0.073785
C22	C	0.128479	-0.000050	-0.177625
C23	C	0.187876	-0.000045	-0.178336
C24	C	0.224649	-0.000052	-0.126772
C25	C	0.202025	-0.000063	-0.074497
C26	C	0.156783	-0.000093	0.030062
C27	C	0.216185	-0.000094	0.029345
C28	C	0.238808	-0.000082	-0.022934
C29	C	0.298194	-0.000065	-0.023643
N30	N	0.320820	-0.000059	-0.075920
C31	C	0.284048	-0.000052	-0.127484
C32	C	-0.064135	-0.000080	-0.019302
C33	C	-0.123533	-0.000075	-0.018589
C34	C	-0.137680	-0.000061	-0.122434
C35	C	-0.078281	-0.000062	-0.123146
C36	C	-0.041509	-0.000074	-0.071578
C37	C	0.408784	-0.000042	-0.128974
C38	C	0.468186	-0.000034	-0.129680
C39	C	0.482329	-0.000051	-0.025836
C40	C	0.422932	-0.000055	-0.025129
C41	C	0.386160	-0.000052	-0.076702
O42	O	0.334974	-0.000052	0.020119
O43	O	0.308755	-0.000054	-0.172007
C44	C	0.711273	-0.561965	-0.035196
C45	C	0.711276	-0.623884	-0.035192
O46	O	0.744384	-0.655911	-0.002076
N47	N	0.672334	-0.654851	-0.074115
C48	C	0.633383	-0.623895	-0.113041
O49	O	0.600259	-0.655920	-0.146147
C50	C	0.633377	-0.561976	-0.113042
C51	C	0.672326	-0.531013	-0.074120
C52	C	0.750218	-0.531001	0.003724
C53	C	0.750215	-0.469085	0.003719
C54	C	0.711268	-0.438133	-0.035206
C55	C	0.672323	-0.469097	-0.074125
C56	C	0.594424	-0.531021	-0.151965
C57	C	0.594422	-0.469098	-0.151962
C58	C	0.633370	-0.438134	-0.113040
C59	C	0.633374	-0.376229	-0.113054
N60	N	0.672316	-0.345262	-0.074131
C61	C	0.711263	-0.376214	-0.035207
C62	C	0.633396	-0.753928	-0.113035
C63	C	0.633403	-0.815846	-0.113037
C64	C	0.711296	-0.815831	-0.035187
C65	C	0.711291	-0.753913	-0.035188
C66	C	0.672338	-0.722962	-0.074112
C67	C	0.711255	-0.246187	-0.035220
C68	C	0.711251	-0.184266	-0.035230
C69	C	0.633357	-0.184286	-0.113078
C70	C	0.633363	-0.246202	-0.113071
C71	C	0.672314	-0.277151	-0.074137
O72	O	0.600281	-0.344163	-0.146152
O73	O	0.744376	-0.344182	-0.002101
C74	C	0.776472	-0.000069	-0.069388
C75	C	0.839689	-0.000071	-0.070154
C76	C	0.677071	-0.000072	0.030013
C77	C	0.676305	-0.000076	0.093230
N78	N	0.672349	0.153196	-0.074111
C79	C	0.667577	-0.000045	-0.178283
C80	C	0.668343	-0.000036	-0.241500
C81	C	0.723539	-0.000049	0.492333
C82	C	0.722827	-0.000044	0.551733
O83	O	0.766613	-0.000027	0.588478
N84	N	0.670551	-0.000039	0.574359
C85	C	0.618983	-0.000032	0.537582
O86	O	0.574452	-0.000027	0.562281
C87	C	0.619695	-0.000033	0.478182
C88	C	0.671974	-0.000044	0.455560
C89	C	0.775814	-0.000060	0.469710
C90	C	0.776525	-0.000065	0.410313
C91	C	0.724961	-0.000060	0.373540
C92	C	0.672685	-0.000050	0.396164
C93	C	0.568127	-0.000022	0.441406
C94	C	0.568844	-0.000021	0.382004
C95	C	0.621123	-0.000033	0.359381
C96	C	0.621832	-0.000050	0.299995
N97	N	0.674109	-0.000056	0.277368
C98	C	0.725673	-0.000061	0.314141
C99	C	0.617491	-0.000031	0.662324
C100	C	0.616778	-0.000034	0.721722
C101	C	0.720623	-0.000045	0.735869
C102	C	0.721335	-0.000046	0.676470
C103	C	0.669767	-0.000036	0.639698
C104	C	0.727163	-0.000073	0.189405
C105	C	0.727869	-0.000081	0.130003
C106	C	0.624025	-0.000067	0.115860
C107	C	0.623318	-0.000062	0.175257
C108	C	0.674891	-0.000063	0.212029
O109	O	0.578070	-0.000065	0.263215
O110	O	0.770196	-0.000058	0.289433
H111	H	0.378851	-0.000041	-0.170970
H112	H	-0.034198	-0.000084	0.022693
H113	H	0.575496	-0.000028	0.632386
H114	H	0.206289	-0.000035	-0.220908
C115	C	0.088036	-0.000040	-0.234352
C116	C	0.090382	0.051051	-0.277272
C117	C	0.049943	0.051066	-0.334003
C118	C	0.007158	-0.000009	-0.347816
C119	C	0.004810	-0.051104	-0.304896
C120	C	0.045249	-0.051119	-0.248164
H121	H	0.122055	0.088863	-0.267048
H122	H	0.051681	0.088890	-0.365776
H123	H	-0.022778	0.000002	-0.389813
H124	H	-0.026863	-0.088916	-0.315120
H125	H	0.043511	-0.088943	-0.216392
H126	H	0.525555	-0.000009	0.459814
C127	C	0.590514	-0.150233	-0.155893
C128	C	0.525671	-0.158751	-0.155259
C129	C	0.482824	-0.124697	-0.198070
C130	C	0.504820	-0.082124	-0.241515
C131	C	0.569667	-0.073604	-0.242150
C132	C	0.612514	-0.107658	-0.199339
H133	H	0.509384	-0.190268	-0.123098
H134	H	0.434820	-0.131005	-0.197600
H135	H	0.473103	-0.056915	-0.273206
H136	H	0.585953	-0.042087	-0.274311
H137	H	0.660518	-0.101350	-0.199809
C138	C	0.754135	-0.849887	0.007635
C139	C	0.753547	-0.841377	0.072485
C140	C	0.796384	-0.875435	0.115303
C141	C	0.839808	-0.918003	0.093271
C142	C	0.840398	-0.926515	0.028418
C143	C	0.797561	-0.892457	-0.014400
H144	H	0.721401	-0.809864	0.088797
H145	H	0.795947	-0.869134	0.163312
H146	H	0.871518	-0.943215	0.124968
H147	H	0.872544	-0.958028	0.012106
H148	H	0.797998	-0.898759	-0.062409
H149	H	-0.059867	-0.000055	-0.165717
C150	C	0.256635	-0.000104	0.086072
C151	C	0.299415	-0.051184	0.099858
C152	C	0.339863	-0.051192	0.156584
C153	C	0.337531	-0.000120	0.199524
C154	C	0.294749	0.050965	0.185740
C155	C	0.254301	0.050973	0.129014
H156	H	0.301142	-0.088995	0.068070
H157	H	0.371533	-0.089009	0.166788
H158	H	0.367473	-0.000126	0.241516
H159	H	0.293022	0.088775	0.217528
H160	H	0.222632	0.088789	0.118810
C161	C	0.551577	-0.565072	-0.194776
C162	C	0.486734	-0.556557	-0.194138
C163	C	0.443883	-0.590608	-0.236950
C164	C	0.465874	-0.633175	-0.280401
C165	C	0.530720	-0.641691	-0.281041
C166	C	0.573571	-0.607640	-0.238228
H167	H	0.470452	-0.525045	-0.161972
H168	H	0.395880	-0.584303	-0.236476
H169	H	0.434153	-0.658381	-0.312093
H170	H	0.547002	-0.673203	-0.313207
H171	H	0.621574	-0.613945	-0.238702
C172	C	0.131911	-0.000109	0.087573
C173	C	0.145924	-0.051200	0.130295
C174	C	0.121055	-0.051217	0.187810
C175	C	0.082173	-0.000141	0.202604
C176	C	0.068159	0.050954	0.159881
C177	C	0.093028	0.050970	0.102365
H178	H	0.174708	-0.089013	0.119345
H179	H	0.131430	-0.089041	0.219437
H180	H	0.063764	-0.000154	0.245180
H181	H	0.039374	0.088766	0.170831
H182	H	0.082653	0.088795	0.070739
C183	C	0.783893	-0.000079	0.229847
C184	C	0.826811	-0.051170	0.227512
C185	C	0.883541	-0.051180	0.267954
C186	C	0.897352	-0.000100	0.310733
C187	C	0.854433	0.050994	0.313070
C188	C	0.797703	0.051005	0.272627
H189	H	0.816588	-0.088985	0.195843
H190	H	0.915312	-0.089004	0.266224
H191	H	0.939347	-0.000108	0.340671
H192	H	0.864656	0.088810	0.344738
H193	H	0.765932	0.088829	0.274358
C194	C	0.778843	-0.000053	0.651588
C195	C	0.821571	-0.051138	0.665596
C196	C	0.879082	-0.051144	0.640717
C197	C	0.893864	-0.000065	0.601831
C198	C	0.851135	0.051025	0.587822
C199	C	0.793624	0.051030	0.612700
H200	H	0.810630	-0.088954	0.694383
H201	H	0.910713	-0.088964	0.651088
H202	H	0.936436	-0.000069	0.583415
H203	H	0.862076	0.088840	0.559034
H204	H	0.761993	0.088850	0.602329
C205	C	0.590523	-0.280263	-0.155888
C206	C	0.525679	-0.271747	-0.155261
C207	C	0.482833	-0.305803	-0.198075
C208	C	0.504831	-0.348374	-0.241517
C209	C	0.569678	-0.356891	-0.242147
C210	C	0.612524	-0.322836	-0.199332
H211	H	0.509392	-0.240232	-0.123101
H212	H	0.434829	-0.299497	-0.197609
H213	H	0.473115	-0.373583	-0.273211
H214	H	0.585966	-0.388407	-0.274307
H215	H	0.660528	-0.329142	-0.199798
C216	C	0.565813	-0.000053	0.200150
C217	C	0.523064	-0.051126	0.186157
C218	C	0.465560	-0.051109	0.211047
C219	C	0.450805	-0.000019	0.249930
C220	C	0.493555	0.051059	0.263925
C221	C	0.551059	0.051042	0.239035
H222	H	0.533986	-0.088950	0.157372
H223	H	0.433913	-0.088921	0.200686
H224	H	0.408236	-0.000006	0.268355
H225	H	0.482633	0.088883	0.292710
H226	H	0.582706	0.088853	0.249395
H227	H	0.486602	-0.000024	-0.172255
H228	H	0.512280	-0.000054	0.016146
H229	H	0.601694	-0.841052	-0.144737
C230	C	0.754095	-0.150206	0.007588
C231	C	0.796932	-0.184257	0.050406
C232	C	0.839774	-0.150200	0.093223
C233	C	0.839777	-0.082092	0.093222
C234	C	0.796938	-0.048037	0.050403
C235	C	0.754097	-0.082094	0.007585
H236	H	0.796931	-0.234679	0.050407
H237	H	0.871486	-0.175410	0.124921
H238	H	0.871491	-0.056881	0.124918
H239	H	0.796939	0.002384	0.050401
H240	H	0.722384	-0.056884	-0.024112
C241	C	0.793053	-0.435029	0.046539
C242	C	0.792462	-0.443548	0.111387
C243	C	0.835300	-0.409495	0.154211
C244	C	0.878729	-0.366923	0.132187
C245	C	0.879322	-0.358401	0.067335
C246	C	0.836484	-0.392454	0.024511
H247	H	0.760311	-0.475064	0.127694
H248	H	0.834860	-0.415803	0.202219
H249	H	0.910440	-0.341715	0.163888
H250	H	0.911472	-0.326885	0.051028
H251	H	0.836923	-0.386146	-0.023497
C252	C	0.754131	-0.719856	0.007630
C253	C	0.753546	-0.728376	0.072479
C254	C	0.796387	-0.694324	0.115300
C255	C	0.839812	-0.651750	0.093272
C256	C	0.840399	-0.643228	0.028420
C257	C	0.797558	-0.677281	-0.014402
H258	H	0.721398	-0.759893	0.088789
H259	H	0.795952	-0.700633	0.163309
H260	H	0.871526	-0.626542	0.124971
H261	H	0.872547	-0.611711	0.012110
H262	H	0.797993	-0.670972	-0.062410
H263	H	-0.167632	-0.000059	-0.164421
H264	H	0.404512	-0.000056	0.017441
H265	H	-0.141947	-0.000076	0.023982
H266	H	0.742973	-0.271379	-0.003516
H267	H	0.526850	-0.000013	0.352066
H268	H	0.781933	-0.556197	0.035423
H269	H	0.582043	-0.000065	0.085909
H270	H	0.601677	-0.728731	-0.144736
H271	H	0.819097	-0.000072	0.391900
H272	H	0.562700	-0.443901	-0.183658
H273	H	0.770443	-0.000092	0.111587
H274	H	0.817806	-0.000061	0.499645
H275	H	0.762610	-0.000047	0.765821
H276	H	0.574207	-0.000035	0.740136
