data_functionalizedCrystal
_audit_creation_method	'MofGen! by Chris Wilmer'
_symmetry_space_group_name_H-M	'P1'
_symmetry_Int_Tables_number	1
_symmetry_cell_setting	triclinic
loop_
_symmetry_equiv_pos_as_xyz
  x,y,z
_cell_length_a	16.959455
_cell_length_b	16.959454
_cell_length_c	12.759393
_cell_angle_alpha	90.030714
_cell_angle_beta	90.022962
_cell_angle_gamma	90.019023
loop_
_atom_site_label
_atom_site_type_symbol
_atom_site_fract_x
_atom_site_fract_y
_atom_site_fract_z
Zn1	Zn	1.208432	-0.314657	0.594113
Zn2	Zn	1.208341	-0.446859	0.418435
Zn3	Zn	1.076247	-0.314696	0.418438
Zn4	Zn	1.076226	-0.446795	0.594063
O5	O	1.142311	-0.380752	0.506262
O6	O	1.319031	-0.332204	0.570828
O7	O	1.190788	-0.429370	0.271415
O8	O	1.093829	-0.204080	0.441764
O9	O	1.318964	-0.429332	0.441759
O10	O	1.190945	-0.204051	0.570831
O11	O	1.093739	-0.332270	0.271417
O12	O	0.965633	-0.332208	0.441716
O13	O	1.093793	-0.429224	0.741091
O14	O	0.965618	-0.429261	0.570747
O15	O	1.190925	-0.332143	0.741127
O16	O	1.190768	-0.557461	0.441711
O17	O	1.093704	-0.557414	0.570744
C18	C	0.936945	-0.380733	0.506227
C19	C	0.849088	-0.380744	0.506237
C20	C	1.142245	-0.586118	0.506245
C21	C	1.142289	-0.673974	0.506272
C22	C	0.807799	-0.330141	0.439164
C23	C	0.807824	-0.431353	0.573325
C24	C	0.725278	-0.431362	0.573340
C25	C	0.683989	-0.380759	0.506268
C26	C	0.725245	-0.330146	0.439179
C27	C	0.684016	-0.481967	0.640435
C28	C	0.601465	-0.481978	0.640454
C29	C	0.560174	-0.431378	0.573375
C30	C	0.601435	-0.380764	0.506283
C31	C	0.560146	-0.330161	0.439210
C32	C	0.601406	-0.279551	0.372113
C33	C	0.683955	-0.279547	0.372101
C34	C	0.477626	-0.431383	0.573387
C35	C	0.477593	-0.330167	0.439226
C36	C	1.091843	-1.045456	0.573443
C37	C	1.193000	-1.045444	0.439189
C38	C	1.192972	-0.962899	0.439180
C39	C	1.142378	-0.921627	0.506301
C40	C	1.091812	-0.962902	0.573433
C41	C	1.243531	-0.921618	0.372042
C42	C	1.243505	-0.839067	0.372029
C43	C	1.192915	-0.797794	0.439157
C44	C	1.142348	-0.839074	0.506292
C45	C	1.091754	-0.797803	0.573413
C46	C	1.041190	-0.839081	0.640555
C47	C	1.041222	-0.921629	0.640561
C48	C	1.192883	-0.715246	0.439150
C49	C	1.091723	-0.715249	0.573404
C50	C	1.348479	-0.380771	0.506299
C51	C	1.436336	-0.380779	0.506314
C52	C	1.142367	-0.380672	0.780296
C53	C	1.142390	-0.380638	0.897073
C54	C	1.142399	-0.174583	0.506303
C55	C	1.142437	-0.086727	0.506321
C56	C	1.142302	-0.380774	0.233295
C57	C	1.142431	-0.380585	0.116519
C58	C	1.192974	-0.330083	0.951955
C59	C	1.192993	-0.330054	1.061679
C60	C	1.091842	-0.431143	1.061629
C61	C	1.091820	-0.431167	0.951906
C62	C	1.243544	-0.279554	0.897122
C63	C	1.294132	-0.228996	0.952004
C64	C	1.294151	-0.228967	1.061728
C65	C	1.243582	-0.279497	1.116570
H66	H	0.567777	-0.238347	0.317507
H67	H	1.234047	-0.681641	0.384480
H68	H	1.243536	-0.279573	0.807779
O69	O	1.042803	-0.480204	1.115061
C70	C	0.997984	-0.524940	1.284073
C71	C	1.053572	-0.469347	1.223695
H72	H	1.006660	-0.516169	1.371915
H73	H	1.011836	-0.588699	1.262558
H74	H	0.934257	-0.511069	1.262435
H75	H	1.117317	-0.483147	1.245301
H76	H	1.039652	-0.405604	1.245215
H77	H	1.335337	-0.187794	1.106411
O78	O	1.292587	-0.961635	0.306651
C79	C	1.331023	-0.986809	0.127948
C80	C	1.275404	-0.941473	0.201912
H81	H	1.317161	-0.970512	0.043252
H82	H	1.322389	-1.052918	0.139341
H83	H	1.394739	-0.970516	0.146508
H84	H	1.211666	-0.957700	0.183398
H85	H	1.284105	-0.875375	0.190505
O86	O	1.243725	-0.279542	1.223156
C87	C	1.319536	-0.299776	1.380622
C88	C	1.319475	-0.299768	1.259917
H89	H	1.380778	-0.316111	1.410380
H90	H	1.274756	-0.344604	1.410443
H91	H	1.303127	-0.238557	1.410403
H92	H	1.335904	-0.360954	1.230047
H93	H	1.364239	-0.254898	1.230168
H94	H	0.717640	-0.523163	0.695045
O95	O	1.042676	-0.480366	0.898749
C96	C	0.942352	-0.580631	0.910268
C97	C	0.997974	-0.524959	0.970599
H98	H	0.906185	-0.616687	0.968332
H99	H	0.978595	-0.622021	0.858934
H100	H	0.901056	-0.544352	0.858860
H101	H	1.039281	-0.561174	1.022064
H102	H	0.961682	-0.483567	1.021867
H103	H	0.717556	-0.238342	0.317474
H104	H	0.443980	-0.288961	0.384605
H105	H	0.841397	-0.288937	0.384532
O106	O	0.848052	-0.480480	0.638377
C107	C	0.975237	-0.525290	0.697855
C108	C	0.929775	-0.469622	0.624113
H109	H	1.041319	-0.516519	0.686365
H110	H	0.959045	-0.589030	0.679264
H111	H	0.958997	-0.511494	0.782594
H112	H	0.945992	-0.483348	0.539350
H113	H	0.945971	-0.405899	0.642795
O114	O	0.561511	-0.531218	0.705654
C115	C	0.570255	-0.631581	0.838759
C116	C	0.615602	-0.575866	0.764962
H117	H	0.613968	-0.667681	0.886744
H118	H	0.531605	-0.672928	0.790485
H119	H	0.531613	-0.595333	0.893736
H120	H	0.654287	-0.612051	0.709970
H121	H	0.654203	-0.534517	0.813301
H122	H	0.444035	-0.472584	0.628023
O123	O	1.343166	-0.179797	0.898785
C124	C	1.381622	-0.045358	0.865313
C125	C	1.326029	-0.100987	0.925625
H126	H	1.367797	0.018371	0.887007
H127	H	1.372920	-0.053991	0.777450
H128	H	1.445350	-0.059281	0.886887
H129	H	1.262280	-0.087098	0.904139
H130	H	1.334799	-0.092343	1.013472
O131	O	0.992158	-0.798949	0.705866
C132	C	0.981441	-0.705634	0.847625
C133	C	1.037056	-0.751053	0.773746
H134	H	1.017717	-0.666886	0.902509
H135	H	0.945320	-0.749273	0.895695
H136	H	0.940101	-0.667077	0.799304
H137	H	1.078443	-0.789611	0.821985
H138	H	1.073121	-0.707371	0.725671
H139	H	1.050526	-0.681651	0.628067
O140	O	1.292512	-0.798939	0.306704
C141	C	1.303182	-0.705760	0.164906
C142	C	1.247590	-0.751170	0.238799
H143	H	1.266886	-0.667116	0.110001
H144	H	1.339332	-0.749404	0.116858
H145	H	1.344496	-0.667100	0.213214
H146	H	1.206228	-0.789831	0.190573
H147	H	1.211496	-0.707483	0.286851
H148	H	1.000055	-0.955246	0.695222
H149	H	1.050678	-1.079068	0.628110
H150	H	1.234186	-1.079052	0.384535
