data_functionalizedCrystal
_audit_creation_method	'MofGen! by Chris Wilmer'
_symmetry_space_group_name_H-M	'P1'
_symmetry_Int_Tables_number	1
_symmetry_cell_setting	triclinic
loop_
_symmetry_equiv_pos_as_xyz
  x,y,z
_cell_length_a	16.625546
_cell_length_b	12.759401
_cell_length_c	12.759393
_cell_angle_alpha	89.980596
_cell_angle_beta	89.963806
_cell_angle_gamma	90.022390
loop_
_atom_site_label
_atom_site_type_symbol
_atom_site_fract_x
_atom_site_fract_y
_atom_site_fract_z
Zn1	Zn	-0.320956	1.606199	-0.593973
Zn2	Zn	-0.455813	1.606069	-0.418279
Zn3	Zn	-0.320997	1.430501	-0.418310
Zn4	Zn	-0.455750	1.430465	-0.593918
O5	O	-0.388379	1.518308	-0.506120
O6	O	-0.338854	1.753203	-0.570677
O7	O	-0.437973	1.582740	-0.271262
O8	O	-0.208159	1.453876	-0.441648
O9	O	-0.437932	1.753107	-0.441595
O10	O	-0.208129	1.582961	-0.570707
O11	O	-0.338925	1.453751	-0.271284
O12	O	-0.338864	1.283475	-0.441594
O13	O	-0.437826	1.453816	-0.740946
O14	O	-0.437866	1.283449	-0.570612
O15	O	-0.338793	1.582927	-0.740987
O16	O	-0.568637	1.582706	-0.441542
O17	O	-0.568591	1.453691	-0.570583
C18	C	-0.388363	1.245341	-0.506101
C19	C	-0.388376	1.128564	-0.506118
C20	C	-0.597870	1.518209	-0.506076
C21	C	-0.687491	1.518263	-0.506092
C22	C	-0.336773	0.963960	-0.439070
C23	C	-0.336757	1.073684	-0.439058
C24	C	-0.440007	1.073715	-0.573203
C25	C	-0.440018	0.963993	-0.573220
C26	C	-0.277165	0.963943	-0.361619
C27	C	-0.277149	1.073668	-0.361606
C28	C	-1.015666	1.518446	-0.506202
C29	C	-0.924358	1.518392	-0.506174
C30	C	-0.851582	1.518353	-0.506146
C31	C	-0.760267	1.518301	-0.506120
C32	C	-0.178070	1.518437	-0.506187
C33	C	-0.088449	1.518492	-0.506216
C34	C	-0.388298	1.518382	-0.780153
C35	C	-0.388263	1.518413	-0.896930
C36	C	-0.388395	1.792342	-0.506139
C37	C	-0.388402	1.909118	-0.506147
C38	C	-0.336692	1.585650	-0.951815
C39	C	-0.336663	1.585675	-1.061539
C40	C	-0.439783	1.451223	-1.061484
C41	C	-0.439807	1.451194	-0.951762
C42	C	-0.277158	1.663279	-0.951848
C43	C	-0.277129	1.663304	-1.061572
C44	C	-0.388402	1.518296	-0.233152
C45	C	-0.388209	1.518468	-0.116376
H46	H	-0.482030	1.118407	-0.627812
H47	H	-0.293802	1.103401	-0.280193
H48	H	-0.214738	0.934200	-0.383557
O49	O	-0.303969	1.755457	-0.911357
C50	C	-0.383354	1.773845	-0.945524
H51	H	-0.394843	1.728317	-1.020906
H52	H	-0.427438	1.746925	-0.882548
C53	C	-0.380890	1.947717	-0.873505
C54	C	-0.394998	1.891805	-0.966095
H55	H	-0.388074	2.020480	-0.886190
H56	H	-0.327408	1.935328	-0.850482
H57	H	-0.417628	1.925271	-0.821034
H58	H	-0.358254	1.914241	-1.018559
H59	H	-0.448475	1.904200	-0.989127
H60	H	-0.217798	1.634200	-1.095626
O61	O	-0.297173	1.760289	-1.097239
C62	C	-0.367501	1.753504	-1.158561
H63	H	-0.374290	1.670267	-1.189776
H64	H	-0.422003	1.774181	-1.108412
C65	C	-0.353189	1.932834	-1.212786
C66	C	-0.361524	1.830603	-1.251132
H67	H	-0.349505	1.980395	-1.269885
H68	H	-0.305810	1.937407	-1.171469
H69	H	-0.398610	1.950050	-1.170995
H70	H	-0.316099	1.813384	-1.292910
H71	H	-0.408895	1.826029	-1.292458
H72	H	-0.217849	1.107731	-0.390886
O73	O	-0.490245	0.910881	-0.638414
C74	C	-0.535785	0.982847	-0.697623
H75	H	-0.538531	1.061039	-0.654573
H76	H	-0.506325	0.994563	-0.777481
C77	C	-0.618247	0.843969	-0.765451
C78	C	-0.621624	0.940004	-0.712572
H79	H	-0.671195	0.817540	-0.774677
H80	H	-0.587564	0.795483	-0.725565
H81	H	-0.593693	0.853745	-0.831994
H82	H	-0.646168	0.930224	-0.646026
H83	H	-0.652314	0.988487	-0.752447
H84	H	-0.214715	1.641521	-0.922098
O85	O	-0.489967	1.385830	-0.898608
C86	C	-0.535435	1.326488	-0.970536
H87	H	-0.538227	1.369546	-1.048747
H88	H	-0.505882	1.246729	-0.982222
C89	C	-0.617825	1.258358	-0.831607
C90	C	-0.621259	1.311247	-0.927665
H91	H	-0.670764	1.248952	-0.805162
H92	H	-0.587190	1.298335	-0.783147
H93	H	-0.593194	1.191898	-0.841358
H94	H	-0.645880	1.377710	-0.917910
H95	H	-0.651900	1.271281	-0.976123
H96	H	-0.481747	1.396493	-1.106141
H97	H	-0.299469	0.929865	-0.284279
