data_functionalizedCrystal
_audit_creation_method	'MofGen! by Chris Wilmer'
_symmetry_space_group_name_H-M	'P1'
_symmetry_Int_Tables_number	1
_symmetry_cell_setting	triclinic
loop_
_symmetry_equiv_pos_as_xyz
  x,y,z
_cell_length_a	23.532407
_cell_length_b	14.519709
_cell_length_c	12.996460
_cell_angle_alpha	90.007090
_cell_angle_beta	89.991953
_cell_angle_gamma	96.735589
loop_
_atom_site_label
_atom_site_type_symbol
_atom_site_fract_x
_atom_site_fract_y
_atom_site_fract_z
O1	O	0.755765	-0.111951	-0.085627
O2	O	1.255765	0.388049	0.414373
O3	O	0.589975	-0.128149	-0.085617
O4	O	1.089975	0.371851	0.414383
O5	O	0.677266	0.014240	-0.085613
O6	O	1.177266	0.514240	0.414387
O7	O	0.668475	-0.254341	-0.085631
O8	O	1.168475	0.245659	0.414369
O9	O	0.677257	0.014248	0.085521
O10	O	1.177257	0.514248	0.585521
O11	O	0.589966	-0.128141	0.085517
O12	O	1.089966	0.371859	0.585517
O13	O	0.755756	-0.111943	0.085507
O14	O	1.255756	0.388057	0.585507
Cu15	Cu	0.672860	-0.120042	0.101138
Cu16	Cu	1.172860	0.379958	0.601138
Cu17	Cu	0.672871	-0.120051	-0.101248
Cu18	Cu	1.172871	0.379949	0.398752
O19	O	0.668465	-0.254333	0.085503
O20	O	1.168465	0.245667	0.585503
C21	C	0.568753	-0.127733	-0.000048
C22	C	1.068753	0.372267	0.499952
C23	C	0.505530	-0.126493	-0.000044
C24	C	1.005530	0.373507	0.499956
C25	C	0.676852	0.048599	-0.000046
C26	C	1.176852	0.548599	0.499954
C27	C	0.675624	0.150966	-0.000045
C28	C	1.175624	0.650966	0.499955
C29	C	0.776979	-0.112360	-0.000064
C30	C	1.276979	0.387640	0.499936
C31	C	0.840201	-0.113600	-0.000075
C32	C	1.340201	0.386400	0.499925
C33	C	1.238959	-0.037115	-0.000034
C34	C	1.738959	0.462885	0.499966
C35	C	1.298365	-0.038267	-0.000029
C36	C	1.798365	0.461733	0.499971
O37	O	1.334789	0.032635	0.000012
O38	O	1.834789	0.532635	0.500012
N39	N	1.321373	-0.122918	-0.000038
N40	N	1.821373	0.377082	0.499962
C41	C	1.284972	-0.206422	-0.000041
C42	C	1.784972	0.293578	0.499959
O43	O	1.309997	-0.278529	-0.000047
O44	O	1.809997	0.221471	0.499953
C45	C	1.225568	-0.205269	-0.000038
C46	C	1.725568	0.294731	0.499962
C47	C	1.202563	-0.120613	-0.000040
C48	C	1.702563	0.379387	0.499960
C49	C	1.215954	0.047534	-0.000034
C50	C	1.715954	0.547534	0.499966
C51	C	1.156553	0.048686	-0.000041
C52	C	1.656553	0.548686	0.499959
C53	C	1.120157	-0.034812	-0.000047
C54	C	1.620157	0.465188	0.499953
C55	C	1.143162	-0.119461	-0.000046
C56	C	1.643162	0.380539	0.499954
C57	C	1.189168	-0.288771	-0.000033
C58	C	1.689168	0.211229	0.499967
C59	C	1.129760	-0.287611	-0.000030
C60	C	1.629760	0.212389	0.499970
C61	C	1.106756	-0.202955	-0.000031
C62	C	1.606756	0.297045	0.499969
C63	C	1.047364	-0.201807	-0.000058
C64	C	1.547364	0.298193	0.499942
N65	N	1.024356	-0.117156	-0.000050
N66	N	1.524356	0.382844	0.499950
C67	C	1.060752	-0.033659	-0.000044
C68	C	1.560752	0.466341	0.499956
C69	C	1.409726	-0.208837	-0.000045
C70	C	1.909726	0.291163	0.499955
C71	C	1.469129	-0.209991	-0.000055
C72	C	1.969129	0.290009	0.499945
C73	C	1.482517	-0.041836	-0.000042
C74	C	1.982517	0.458164	0.499958
C75	C	1.423113	-0.040683	-0.000039
C76	C	1.923113	0.459317	0.499961
C77	C	1.386717	-0.124186	-0.000036
C78	C	1.886717	0.375814	0.499964
C79	C	0.936005	-0.031247	-0.000058
C80	C	1.436005	0.468753	0.499942
C81	C	0.876598	-0.030102	-0.000069
C82	C	1.376598	0.469898	0.499931
C83	C	0.863214	-0.198257	-0.000077
C84	C	1.363214	0.301743	0.499923
C85	C	0.922616	-0.199401	-0.000071
C86	C	1.422616	0.300599	0.499929
C87	C	0.959011	-0.115889	-0.000059
C88	C	1.459011	0.384111	0.499941
O89	O	1.010905	-0.272672	-0.000096
O90	O	1.510905	0.227328	0.499904
O91	O	1.035719	0.038437	-0.000024
O92	O	1.535719	0.538437	0.499976
C93	C	0.668880	-0.288692	-0.000066
C94	C	1.168880	0.211308	0.499934
C95	C	0.670107	-0.391058	-0.000074
C96	C	1.170107	0.108942	0.499926
N97	N	0.672857	-0.120035	0.243485
N98	N	1.172857	0.379965	0.743485
C99	C	0.671104	0.525808	-0.000071
C100	C	1.171104	1.025808	0.499929
C101	C	0.672359	0.421515	-0.000064
C102	C	1.172359	0.921515	0.499936
C103	C	0.673364	0.338390	-0.000057
C104	C	1.173364	0.838390	0.499943
C105	C	0.674619	0.234091	-0.000051
C106	C	1.174619	0.734091	0.499949
N107	N	0.672879	-0.120050	-0.243595
N108	N	1.172879	0.379950	0.256405
C109	C	0.672870	-0.120052	0.663299
C110	C	1.172870	0.379948	1.163299
C111	C	0.672865	-0.120050	0.546494
C112	C	1.172865	0.379950	1.046494
C113	C	0.672864	-0.120044	0.453396
C114	C	1.172864	0.379956	0.953396
C115	C	0.672858	-0.120041	0.336583
C116	C	1.172858	0.379959	0.836583
H117	H	0.857871	0.038838	-0.000073
H118	H	1.357871	0.538838	0.499927
H119	H	1.245583	0.115532	-0.000026
H120	H	1.745583	0.615532	0.499974
C121	C	1.494130	-0.301879	-0.000288
C122	C	1.994130	0.198121	0.499712
C123	C	1.527836	-0.307470	-0.088347
C124	C	2.027836	0.192530	0.411653
C125	C	1.550866	-0.392113	-0.088602
C126	C	2.050866	0.107887	0.411398
H127	H	1.517059	-0.305927	0.059319
H128	H	2.017059	0.194073	0.559319
H129	H	1.463955	-0.351461	-0.000352
H130	H	1.963955	0.148539	0.499648
H131	H	1.558007	-0.257901	-0.088274
H132	H	2.058007	0.242099	0.411726
H133	H	1.504920	-0.303439	-0.147968
H134	H	2.004920	0.196561	0.352032
H135	H	1.520691	-0.441695	-0.088666
H136	H	2.020691	0.058305	0.411334
H137	H	1.573792	-0.396153	-0.028991
H138	H	2.073792	0.103847	0.471009
H139	H	1.573734	-0.395921	-0.148353
H140	H	2.073734	0.104079	0.351647
C141	C	0.947632	-0.291281	-0.000279
C142	C	1.447632	0.208719	0.499721
C143	C	0.981349	-0.296878	-0.088323
C144	C	1.481349	0.203122	0.411677
C145	C	1.004394	-0.381509	-0.088541
C146	C	1.504394	0.118491	0.411459
H147	H	0.970556	-0.295305	0.059338
H148	H	1.470556	0.204695	0.559338
H149	H	0.917464	-0.340875	-0.000340
H150	H	1.417464	0.159125	0.499660
H151	H	1.011514	-0.247299	-0.088253
H152	H	1.511514	0.252701	0.411747
H153	H	0.958438	-0.292871	-0.147955
H154	H	1.458438	0.207129	0.352045
H155	H	0.974226	-0.431103	-0.088601
H156	H	1.474226	0.068897	0.411399
H157	H	1.027315	-0.385525	-0.028919
H158	H	1.527315	0.114475	0.471081
H159	H	1.027269	-0.385321	-0.148281
H160	H	1.527269	0.114679	0.351719
C161	C	1.370307	-0.299604	-0.000112
C162	C	1.870307	0.200396	0.499888
C163	C	1.403178	-0.373975	-0.000149
C164	C	1.903178	0.126025	0.499851
C165	C	1.366889	-0.457602	-0.000225
C166	C	1.866889	0.042398	0.499775
H167	H	1.346837	-0.302789	0.059548
H168	H	1.846837	0.197211	0.559548
H169	H	1.346869	-0.302704	-0.059816
H170	H	1.846869	0.197296	0.440184
H171	H	1.426606	-0.370877	0.059548
H172	H	1.926606	0.129123	0.559548
H173	H	1.426647	-0.370821	-0.059805
H174	H	1.926647	0.129179	0.440195
H175	H	1.343451	-0.460702	-0.059928
H176	H	1.843451	0.039298	0.440072
H177	H	1.343420	-0.460777	0.059437
H178	H	1.843420	0.039223	0.559437
H179	H	1.389186	-0.508073	-0.000259
H180	H	1.889186	-0.008073	0.499741
H181	H	1.207888	-0.357707	-0.000036
H182	H	1.707888	0.142293	0.499964
H183	H	1.100129	-0.355611	-0.000023
H184	H	1.600129	0.144389	0.499977
H185	H	1.404387	0.028252	-0.000040
H186	H	1.904387	0.528252	0.499960
C187	C	0.823623	-0.288837	-0.000238
C188	C	1.323623	0.211163	0.499762
C189	C	0.789123	-0.293082	-0.088268
C190	C	1.289123	0.206918	0.411732
C191	C	0.752638	-0.376504	-0.088436
C192	C	1.252638	0.123496	0.411564
H193	H	0.845756	-0.339501	-0.000289
H194	H	1.345756	0.160499	0.499711
H195	H	0.800135	-0.291873	0.059411
H196	H	1.300135	0.208127	0.559411
H197	H	0.812609	-0.290054	-0.147901
H198	H	1.312609	0.209946	0.352099
H199	H	0.766978	-0.242437	-0.088236
H200	H	1.266978	0.257563	0.411764
H201	H	0.729149	-0.379541	-0.028787
H202	H	1.229149	0.120459	0.471213
H203	H	0.774775	-0.427162	-0.088483
H204	H	1.274775	0.072838	0.411517
H205	H	0.729221	-0.379392	-0.148157
H206	H	1.229221	0.120608	0.351843
C207	C	0.975418	0.059522	-0.000107
C208	C	1.475418	0.559522	0.499893
C209	C	0.942546	0.133891	-0.000139
C210	C	1.442546	0.633891	0.499861
C211	C	0.978833	0.217520	-0.000207
C212	C	1.478833	0.717520	0.499793
H213	H	0.998879	0.062716	0.059554
H214	H	1.498879	0.562716	0.559554
H215	H	0.998865	0.062616	-0.059810
H216	H	1.498865	0.562616	0.440190
H217	H	0.919108	0.130799	0.059558
H218	H	1.419108	0.630799	0.559558
H219	H	0.919086	0.130728	-0.059796
H220	H	1.419086	0.630728	0.440204
H221	H	1.002280	0.220613	-0.059910
H222	H	1.502280	0.720613	0.440090
H223	H	1.002292	0.220704	0.059455
H224	H	1.502292	0.720704	0.559455
H225	H	0.956535	0.267989	-0.000238
H226	H	1.456535	0.767989	0.499762
H227	H	1.512162	0.026152	-0.000037
H228	H	2.012162	0.526152	0.499963
H229	H	1.137828	0.117621	-0.000038
H230	H	1.637828	0.617621	0.499962
