data_functionalizedCrystal
_audit_creation_method	'MofGen! by Chris Wilmer'
_symmetry_space_group_name_H-M	'P1'
_symmetry_Int_Tables_number	1
_symmetry_cell_setting	triclinic
loop_
_symmetry_equiv_pos_as_xyz
  x,y,z
_cell_length_a	12.759401
_cell_length_b	12.759400
_cell_length_c	12.759393
_cell_angle_alpha	90.030490
_cell_angle_beta	90.020938
_cell_angle_gamma	90.016209
loop_
_atom_site_label
_atom_site_type_symbol
_atom_site_fract_x
_atom_site_fract_y
_atom_site_fract_z
Zn1	Zn	1.606266	-0.418173	0.594020
Zn2	Zn	1.606158	-0.593888	0.418340
Zn3	Zn	1.430565	-0.418229	0.418355
Zn4	Zn	1.430557	-0.593815	0.593978
O5	O	1.518387	-0.506026	0.506173
O6	O	1.753273	-0.441489	0.570727
O7	O	1.582823	-0.570641	0.271321
O8	O	1.453921	-0.271200	0.441682
O9	O	1.753193	-0.570587	0.441656
O10	O	1.583008	-0.271159	0.570742
O11	O	1.453816	-0.441584	0.271332
O12	O	1.283543	-0.441513	0.441640
O13	O	1.453908	-0.570461	0.741004
O14	O	1.283537	-0.570516	0.570669
O15	O	1.583000	-0.441418	0.741036
O16	O	1.582815	-0.740900	0.441615
O17	O	1.453802	-0.740846	0.570655
C18	C	1.245419	-0.506013	0.506152
C19	C	1.128643	-0.506033	0.506168
C20	C	1.073805	-0.573307	0.573248
C21	C	0.964081	-0.573311	0.573269
C22	C	0.964042	-0.438764	0.439122
C23	C	1.073764	-0.438756	0.439107
C24	C	1.518324	-0.778994	0.506151
C25	C	1.518394	-0.895770	0.506177
C26	C	1.585645	-0.950625	0.439060
C27	C	1.585710	-1.060349	0.439093
C28	C	1.451262	-1.060353	0.573362
C29	C	1.451204	-0.950631	0.573334
C30	C	1.652835	-0.895764	0.371904
C31	C	1.720091	-0.950619	0.304781
C32	C	1.720156	-1.060343	0.304813
C33	C	1.652964	-1.115212	0.371969
C34	C	1.792420	-0.506040	0.506195
C35	C	1.909197	-0.506046	0.506204
C36	C	1.518465	-0.505925	0.780207
C37	C	1.518499	-0.505882	0.896984
C38	C	1.518478	-0.231993	0.506218
C39	C	1.518517	-0.115216	0.506238
C40	C	1.518369	-0.506051	0.233206
C41	C	1.518539	-0.505798	0.116430
C42	C	1.585722	-0.438679	0.951864
C43	C	1.585740	-0.438633	1.061588
C44	C	1.451308	-0.573004	1.061542
C45	C	1.451285	-0.573044	0.951820
H46	H	1.118484	-0.628086	0.627857
H47	H	1.640449	-0.383989	0.907219
C48	C	1.794004	-0.890270	0.230917
C49	C	1.793938	-0.769580	0.230876
C50	C	1.867854	-0.709232	0.157013
C51	C	1.941836	-0.769575	0.083191
C52	C	1.941905	-0.890272	0.083229
C53	C	1.867989	-0.950619	0.157093
H54	H	1.739169	-0.724904	0.285526
H55	H	1.867802	-0.619884	0.156985
H56	H	1.996553	-0.724903	0.028513
H57	H	1.996673	-0.934947	0.028579
H58	H	1.868040	-1.039967	0.157121
H59	H	0.919437	-0.628090	0.627893
H60	H	1.640479	-0.383908	1.106266
H61	H	1.396587	-0.627687	1.106203
H62	H	1.396536	-0.627768	0.907136
C63	C	1.134091	-0.364753	0.365309
C64	C	1.119035	-0.245328	0.374086
C65	C	1.179362	-0.171327	0.300293
C66	C	1.254744	-0.216750	0.217724
C67	C	1.269804	-0.336182	0.208943
C68	C	1.209477	-0.410183	0.282736
H69	H	1.063229	-0.211697	0.435212
H70	H	1.168213	-0.082915	0.306793
H71	H	1.299402	-0.161970	0.163098
H72	H	1.325609	-0.369813	0.147817
H73	H	1.220625	-0.498594	0.276236
H74	H	1.652787	-0.806421	0.371867
C75	C	0.903672	-0.364771	0.365348
C76	C	0.782982	-0.364781	0.365355
C77	C	0.722616	-0.290789	0.291576
C78	C	0.782939	-0.216787	0.217790
C79	C	0.903636	-0.216774	0.217781
C80	C	0.964002	-0.290766	0.291559
H81	H	0.738321	-0.419565	0.419977
H82	H	0.633268	-0.290799	0.291583
H83	H	0.738252	-0.162013	0.163175
H84	H	0.948296	-0.161990	0.163158
H85	H	1.053350	-0.290756	0.291552
H86	H	1.396442	-0.905968	0.627988
H87	H	1.396557	-1.105036	0.628036
H88	H	1.774926	-1.105004	0.250166
H89	H	1.653031	-1.204557	0.371998
