data_functionalizedCrystal
_audit_creation_method	'MofGen! by Chris Wilmer'
_symmetry_space_group_name_H-M	'P1'
_symmetry_Int_Tables_number	1
_symmetry_cell_setting	triclinic
loop_
_symmetry_equiv_pos_as_xyz
  x,y,z
_cell_length_a	16.992694
_cell_length_b	9.130313
_cell_length_c	16.974813
_cell_angle_alpha	93.655805
_cell_angle_beta	87.024634
_cell_angle_gamma	89.994745
loop_
_atom_site_label
_atom_site_type_symbol
_atom_site_fract_x
_atom_site_fract_y
_atom_site_fract_z
O1	O	1.040206	0.141483	0.167645
O2	O	0.811922	0.141308	0.165806
O3	O	0.932428	0.127792	0.052024
O4	O	0.919700	0.154999	0.281426
O5	O	0.932427	-0.115806	0.052028
O6	O	0.811921	-0.102290	0.165809
O7	O	1.040204	-0.102115	0.167648
Cu8	Cu	0.926062	-0.124445	0.166729
Cu9	Cu	0.926064	0.163638	0.166725
O10	O	0.919698	-0.088599	0.281429
C11	C	0.782712	0.019234	0.163441
C12	C	0.695675	0.018414	0.156382
N13	N	0.926067	-0.327068	0.166731
C14	C	0.645361	0.026491	0.224497
C15	C	0.563581	0.025683	0.217859
C16	C	0.532118	0.016809	0.143105
C17	C	0.582438	0.008727	0.074985
C18	C	0.664216	0.009524	0.081623
C19	C	0.288550	0.013507	0.115590
C20	C	0.206765	0.012715	0.108957
C21	C	0.187914	0.029669	0.251832
C22	C	0.269695	0.030474	0.258464
C23	C	0.320008	0.022384	0.190344
N24	N	0.448526	0.015988	0.136318
N25	N	0.403598	0.023194	0.197131
C26	C	0.979440	-0.409702	0.116368
C27	C	0.979438	-0.563040	0.116358
C28	C	0.872687	-0.551095	0.217082
C29	C	0.872685	-0.397760	0.217087
C30	C	1.032822	-0.339010	0.066012
C31	C	1.086200	-0.421645	0.015645
C32	C	1.086198	-0.574983	0.015636
C33	C	1.032818	-0.645686	0.065993
C34	C	1.069415	0.019962	0.170013
C35	C	1.156451	0.020792	0.177072
C36	C	0.931943	0.002499	0.022537
C37	C	0.930492	-0.007912	-0.065331
N38	N	0.926066	0.366260	0.166717
C39	C	0.929812	0.119982	-0.106609
C40	C	0.928443	0.110196	-0.189170
C41	C	0.927759	-0.027486	-0.230453
C42	C	0.928436	-0.155389	-0.189169
C43	C	0.929800	-0.145601	-0.106609
C44	C	0.923675	-0.070998	-0.477371
C45	C	0.922314	-0.080776	-0.559937
C46	C	0.922320	0.184810	-0.559933
C47	C	0.923688	0.194585	-0.477371
C48	C	0.924361	0.066682	-0.436094
N49	N	0.926362	-0.037493	-0.314844
N50	N	0.925752	0.076690	-0.351705
C51	C	0.920183	0.036697	0.310917
C52	C	0.921635	0.047117	0.398785
H53	H	0.670972	0.033719	0.285370
H54	H	1.032815	-0.770545	0.065975
C55	C	0.853408	0.328404	-0.648146
C56	C	0.921563	0.325385	-0.605313
H57	H	0.852936	0.415196	-0.676159
H58	H	0.852816	0.245007	-0.684538
H59	H	0.808249	0.327080	-0.612785
H60	H	0.966722	0.326698	-0.640674
H61	H	0.922163	0.408804	-0.568917
C62	C	0.522325	0.165130	0.337583
C63	C	0.508278	0.034573	0.292735
H64	H	0.488180	0.170619	0.383809
H65	H	0.575527	0.166868	0.352229
H66	H	0.512783	0.246449	0.307130
H67	H	0.517826	-0.046746	0.323187
H68	H	0.455064	0.032822	0.278091
C69	C	0.995378	-0.385337	-0.219208
C70	C	0.927685	-0.306737	-0.234540
H71	H	0.994912	-0.478779	-0.247214
H72	H	1.040845	-0.332764	-0.235884
H73	H	0.996277	-0.397795	-0.164128
H74	H	0.926789	-0.294270	-0.289620
H75	H	0.882205	-0.359322	-0.217870
C76	C	0.329776	0.124535	-0.004146
C77	C	0.343846	0.004629	0.040712
H78	H	0.363919	0.119057	-0.050373
H79	H	0.276574	0.122785	-0.018789
H80	H	0.339306	0.213085	0.026300
H81	H	0.334309	-0.083920	0.010267
H82	H	0.397060	0.006367	0.055353
C83	C	1.192909	-0.748674	0.005277
C84	C	1.144866	-0.665823	-0.039728
H85	H	1.229127	-0.804758	-0.028903
H86	H	1.221070	-0.684754	0.039984
H87	H	1.161112	-0.812718	0.035262
H88	H	1.176663	-0.601771	-0.069708
H89	H	1.116703	-0.729750	-0.074449
C90	C	0.998691	-0.289246	-0.018389
C91	C	0.930545	-0.286189	-0.061235
H92	H	0.999143	-0.376039	0.009624
H93	H	1.043851	-0.287935	-0.053736
H94	H	0.999285	-0.205844	0.018011
H95	H	0.929954	-0.369585	-0.097640
H96	H	0.885373	-0.287513	-0.025885
C97	C	0.767118	0.125810	0.006205
C98	C	0.719528	0.000650	0.006751
H99	H	0.801267	0.120320	-0.040018
H100	H	0.734818	0.210784	0.006576
H101	H	0.797553	0.131193	0.051680
H102	H	0.689088	-0.004726	-0.038722
H103	H	0.751832	-0.084347	0.006372
C104	C	0.242843	0.047127	0.399024
C105	C	0.304277	0.040215	0.340637
H106	H	0.264195	0.053135	0.449753
H107	H	0.211334	0.131408	0.393464
H108	H	0.211344	-0.038490	0.393458
H109	H	0.335772	0.125837	0.346199
H110	H	0.335799	-0.044075	0.346199
H111	H	0.556814	0.001480	0.014118
C112	C	0.054184	0.035962	0.305099
C113	C	0.132608	0.038541	0.326707
H114	H	0.020042	0.041427	0.351327
H115	H	0.044650	0.117296	0.274666
H116	H	0.044671	-0.052602	0.274659
H117	H	0.142123	0.127111	0.357142
H118	H	0.142146	-0.042800	0.357152
H119	H	0.924246	0.306700	-0.443765
H120	H	0.921753	-0.192899	-0.593547
H121	H	0.181152	0.005489	0.048080
C122	C	0.857844	-0.213555	-0.379918
C123	C	0.924427	-0.211599	-0.432016
H124	H	0.858310	-0.300369	-0.351923
H125	H	0.858449	-0.130183	-0.343511
H126	H	0.811618	-0.211465	-0.408992
H127	H	0.970653	-0.213678	-0.402942
H128	H	0.923830	-0.294994	-0.468429
C129	C	1.133561	-0.191901	-0.029112
C130	C	1.144840	-0.343939	-0.039741
H131	H	1.169758	-0.143936	-0.063315
H132	H	1.081241	-0.168209	-0.041006
H133	H	1.142048	-0.160449	0.024192
H134	H	1.136347	-0.375393	-0.093044
H135	H	1.197173	-0.367642	-0.027853
H136	H	0.829227	-0.608671	0.258082
H137	H	0.829223	-0.330478	0.258097
H138	H	0.927893	0.214340	-0.222775
C139	C	0.929671	0.381516	-0.114906
C140	C	0.930562	0.271328	-0.061235
H141	H	0.930127	0.474951	-0.086893
H142	H	0.974836	0.371796	-0.150245
H143	H	0.883438	0.372539	-0.143968
H144	H	0.976799	0.280298	-0.032177
H145	H	0.885392	0.281052	-0.025882
H146	H	1.032830	-0.214155	0.066017
