data_functionalizedCrystal
_audit_creation_method	'MofGen! by Chris Wilmer'
_symmetry_space_group_name_H-M	'P1'
_symmetry_Int_Tables_number	1
_symmetry_cell_setting	triclinic
loop_
_symmetry_equiv_pos_as_xyz
  x,y,z
_cell_length_a	19.077105
_cell_length_b	12.827892
_cell_length_c	19.076919
_cell_angle_alpha	87.724465
_cell_angle_beta	89.923776
_cell_angle_gamma	87.711903
loop_
_atom_site_label
_atom_site_type_symbol
_atom_site_fract_x
_atom_site_fract_y
_atom_site_fract_z
Zn1	Zn	1.058323	-0.505562	0.440440
Zn2	Zn	1.391657	-0.172229	0.773773
Zn3	Zn	1.724990	0.161105	1.107107
Zn4	Zn	1.062981	-0.673587	0.322941
Zn5	Zn	1.396314	-0.340254	0.656274
Zn6	Zn	1.729647	-0.006920	0.989607
Zn7	Zn	0.945540	-0.491563	0.318233
Zn8	Zn	1.278873	-0.158230	0.651566
Zn9	Zn	1.612206	0.175104	0.984900
Zn10	Zn	0.940802	-0.672957	0.435693
Zn11	Zn	1.274136	-0.339624	0.769027
Zn12	Zn	1.607469	-0.006290	1.102360
O13	O	1.001912	-0.585917	0.379327
O14	O	1.335245	-0.252584	0.712660
O15	O	1.668578	0.080749	1.045993
O16	O	1.157274	-0.533973	0.428810
O17	O	1.490607	-0.200640	0.762144
O18	O	1.823940	0.132693	1.095477
O19	O	1.051334	-0.643846	0.223985
O20	O	1.384667	-0.310513	0.557318
O21	O	1.718000	0.022820	0.890651
O22	O	0.960534	-0.347187	0.334460
O23	O	1.293867	-0.013853	0.667794
O24	O	1.627201	0.319480	1.001127
O25	O	1.160695	-0.657421	0.342484
O26	O	1.494029	-0.324087	0.675817
O27	O	1.827362	0.009246	1.009151
O28	O	1.043396	-0.357472	0.424245
O29	O	1.376729	-0.024139	0.757579
O30	O	1.710062	0.309195	1.090912
O31	O	0.965050	-0.510114	0.220526
O32	O	1.298384	-0.176780	0.553859
O33	O	1.631717	0.156553	0.887193
O34	O	0.846579	-0.509503	0.329857
O35	O	1.179912	-0.176169	0.663191
O36	O	1.513246	0.157164	0.996524
O37	O	0.952460	-0.656347	0.534655
O38	O	1.285793	-0.323013	0.867988
O39	O	1.619127	0.010320	1.201321
O40	O	0.843098	-0.642772	0.416155
O41	O	1.176432	-0.309439	0.749488
O42	O	1.509765	0.023895	1.082822
O43	O	1.038802	-0.533362	0.538142
O44	O	1.372136	-0.200029	0.871475
O45	O	1.705469	0.133304	1.204809
O46	O	1.046740	-0.819737	0.337881
O47	O	1.380074	-0.486403	0.671215
O48	O	1.713407	-0.153070	1.004548
O49	O	0.956976	-0.819274	0.420720
O50	O	1.290310	-0.485940	0.754053
O51	O	1.623643	-0.152607	1.087387
C52	C	0.819342	-0.574551	0.371981
C53	C	1.152675	-0.241217	0.705314
C54	C	1.486009	0.092116	1.038647
C55	C	0.741237	-0.569714	0.368855
C56	C	1.074571	-0.236381	0.702188
C57	C	1.407904	0.096952	1.035521
C58	C	1.001868	-0.857424	0.379313
C59	C	1.335201	-0.524090	0.712646
C60	C	1.668535	-0.190757	1.045979
C61	C	1.001913	-0.973581	0.379333
C62	C	1.335246	-0.640247	0.712666
C63	C	1.668580	-0.306914	1.045999
C64	C	0.702753	-0.636925	0.412246
C65	C	1.036086	-0.303592	0.745579
C66	C	1.369420	0.029742	1.078913
C67	C	0.629365	-0.632367	0.409312
C68	C	0.962698	-0.299034	0.742646
C69	C	1.296032	0.034300	1.075979
C70	C	0.594463	-0.560602	0.362983
C71	C	0.927797	-0.227269	0.696316
C72	C	1.261130	0.106064	1.029650
C73	C	0.632953	-0.493385	0.319590
C74	C	0.966286	-0.160051	0.652923
C75	C	1.299620	0.173282	0.986257
C76	C	0.706339	-0.497938	0.322528
C77	C	1.039673	-0.164605	0.655861
C78	C	1.373006	0.168728	0.989194
C79	C	0.375174	-0.539528	0.349389
C80	C	0.708507	-0.206194	0.682723
C81	C	1.041841	0.127139	1.016056
C82	C	0.301782	-0.534981	0.346453
C83	C	0.635116	-0.201648	0.679787
C84	C	0.968449	0.131686	1.013120
C85	C	0.298199	-0.673963	0.436177
C86	C	0.631533	-0.340629	0.769510
C87	C	0.964866	-0.007296	1.102844
C88	C	0.371587	-0.678514	0.439108
C89	C	0.704921	-0.345181	0.772441
C90	C	1.038254	-0.011848	1.105774
C91	C	0.410071	-0.611293	0.395717
C92	C	0.743404	-0.277959	0.729051
C93	C	1.076737	0.055374	1.062384
N94	N	0.519449	-0.555944	0.359982
N95	N	0.852783	-0.222611	0.693315
N96	N	1.186116	0.110723	1.026648
N97	N	0.485083	-0.615947	0.398723
N98	N	0.818416	-0.282614	0.732056
N99	N	1.151750	0.050720	1.065390
C100	C	1.046380	-1.025566	0.338391
C101	C	1.379713	-0.692232	0.671724
C102	C	1.713046	-0.358899	1.005057
C103	C	1.046427	-1.145620	0.338411
C104	C	1.379760	-0.812287	0.671744
C105	C	1.713094	-0.478953	1.005077
C106	C	1.185194	-0.597329	0.386702
C107	C	1.518527	-0.263996	0.720035
C108	C	1.851861	0.069338	1.053369
C109	C	1.263298	-0.602192	0.389845
C110	C	1.596631	-0.268859	0.723178
C111	C	1.929965	0.064475	1.056511
C112	C	0.994583	-0.596346	0.562607
C113	C	1.327917	-0.263012	0.895941
C114	C	1.661250	0.070321	1.229274
C115	C	0.991460	-0.600790	0.640711
C116	C	1.324794	-0.267456	0.974044
C117	C	1.658127	0.065877	1.307377
C118	C	1.001974	-0.313353	0.379357
C119	C	1.335307	0.019981	0.712690
C120	C	1.668640	0.353314	1.046024
C121	C	1.002000	-0.197202	0.379370
C122	C	1.335334	0.136132	0.712703
C123	C	1.668667	0.469465	1.046037
C124	C	1.009252	-0.575456	0.196761
C125	C	1.342585	-0.242123	0.530094
C126	C	1.675918	0.091210	0.863427
C127	C	1.012511	-0.570727	0.118663
C128	C	1.345844	-0.237393	0.451997
C129	C	1.679178	0.095940	0.785330
C130	C	1.034945	-0.538849	0.679221
C131	C	1.368278	-0.205516	1.012554
C132	C	1.701611	0.127818	1.345887
C133	C	1.032002	-0.543020	0.752607
C134	C	1.365335	-0.209687	1.085940
C135	C	1.698668	0.123646	1.419273
C136	C	0.985578	-0.609138	0.787481
C137	C	1.318911	-0.275805	1.120815
C138	C	1.652244	0.057529	1.454148
C139	C	0.942089	-0.671081	0.748966
C140	C	1.275422	-0.337748	1.082300
C141	C	1.608755	-0.004414	1.415633
C142	C	0.945028	-0.666904	0.675581
C143	C	1.278362	-0.333570	1.008915
C144	C	1.611695	-0.000237	1.342248
C145	C	0.971962	-0.628492	1.006763
C146	C	1.305295	-0.295159	1.340097
C147	C	1.638628	0.038174	1.673430
C148	C	0.969027	-0.632667	1.080153
C149	C	1.302360	-0.299334	1.413487
C150	C	1.635693	0.034000	1.746820
C151	C	1.058939	-0.504604	1.083789
C152	C	1.392272	-0.171271	1.417122
C153	C	1.725606	0.162062	1.750455
C154	C	1.061878	-0.500438	1.010402
C155	C	1.395211	-0.167104	1.343736
C156	C	1.728544	0.166229	1.677069
C157	C	1.018386	-0.562376	0.971894
C158	C	1.351720	-0.229043	1.305227
C159	C	1.685053	0.104290	1.638560
N160	N	0.982570	-0.613406	0.862494
N161	N	1.315903	-0.280072	1.195827
N162	N	1.649237	0.053261	1.529160
N163	N	1.021391	-0.558103	0.896882
N164	N	1.354724	-0.224769	1.230216
N165	N	1.688057	0.108564	1.563549
H166	H	0.731165	-0.695367	0.449970
H167	H	1.064498	-0.362033	0.783303
H168	H	1.397831	-0.028700	1.116637
H169	H	1.067413	-0.492584	0.783958
H170	H	1.400746	-0.159251	1.117292
H171	H	1.734080	0.174083	1.450625
H172	H	0.909612	-0.717331	0.644227
H173	H	1.242945	-0.383998	0.977561
H174	H	1.576278	-0.050665	1.310894
H175	H	0.931220	-0.686511	1.108546
H176	H	1.264554	-0.353177	1.441880
H177	H	1.597887	-0.019844	1.775213
H178	H	1.084418	-0.981195	0.303327
H179	H	1.417751	-0.647862	0.636660
H180	H	1.751084	-0.314529	0.969993
H181	H	1.099683	-0.446600	0.982013
H182	H	1.433016	-0.113267	1.315346
H183	H	1.766350	0.220066	1.648679
H184	H	0.936558	-0.678943	0.975419
H185	H	1.269891	-0.345610	1.308752
H186	H	1.603225	-0.012277	1.642085
H187	H	0.598034	-0.687098	0.444645
H188	H	0.931367	-0.353765	0.777979
H189	H	1.264701	-0.020431	1.111312
H190	H	1.094347	-0.454176	1.115150
H191	H	1.427680	-0.120843	1.448484
H192	H	1.761013	0.212491	1.781817
H193	H	0.963881	-1.017954	0.414402
H194	H	1.297214	-0.684621	0.747735
H195	H	1.630548	-0.351288	1.081069
H196	H	1.072750	-0.485012	0.650831
H197	H	1.406084	-0.151679	0.984164
H198	H	1.739417	0.181655	1.317498
H199	H	0.737673	-0.443203	0.287198
H200	H	1.071006	-0.109869	0.620531
H201	H	1.404339	0.223464	0.953864
H202	H	0.904287	-0.724912	0.777367
H203	H	1.237620	-0.391578	1.110700
H204	H	1.570953	-0.058245	1.444034
H205	H	0.399999	-0.736955	0.476832
H206	H	0.733333	-0.403622	0.810166
H207	H	1.066666	-0.070288	1.143499
H208	H	0.266859	-0.728689	0.471504
H209	H	0.600192	-0.395356	0.804837
H210	H	0.933525	-0.062023	1.138171
H211	H	0.406498	-0.484799	0.314053
H212	H	0.739832	-0.151465	0.647386
H213	H	1.073165	0.181868	0.980719
H214	H	0.604530	-0.434948	0.281871
H215	H	0.937864	-0.101615	0.615204
H216	H	1.271197	0.231719	0.948537
H217	H	0.273368	-0.476530	0.308731
H218	H	0.606701	-0.143197	0.642064
H219	H	0.940034	0.190137	0.975397
H220	H	0.963926	-1.152504	0.414421
H221	H	1.297259	-0.819171	0.747754
H222	H	1.630592	-0.485837	1.081088
H223	H	1.084495	-1.190325	0.303357
H224	H	1.417828	-0.856992	0.636690
H225	H	1.751161	-0.523658	0.970023
