data_functionalizedCrystal
_audit_creation_method	'MofGen! by Chris Wilmer'
_symmetry_space_group_name_H-M	'P1'
_symmetry_Int_Tables_number	1
_symmetry_cell_setting	triclinic
loop_
_symmetry_equiv_pos_as_xyz
  x,y,z
_cell_length_a	14.044191
_cell_length_b	19.188924
_cell_length_c	12.503572
_cell_angle_alpha	93.509187
_cell_angle_beta	86.162165
_cell_angle_gamma	88.166870
loop_
_atom_site_label
_atom_site_type_symbol
_atom_site_fract_x
_atom_site_fract_y
_atom_site_fract_z
O1	O	1.262484	0.164611	-0.089277
O2	O	1.595817	0.497944	0.244056
O3	O	1.929150	0.831277	0.577389
O4	O	0.986540	0.158532	-0.089291
O5	O	1.319874	0.491866	0.244043
O6	O	1.653207	0.825199	0.577376
O7	O	1.132478	0.060430	-0.089271
O8	O	1.465811	0.393764	0.244062
O9	O	1.799145	0.727097	0.577396
O10	O	1.116546	0.262713	-0.089297
O11	O	1.449880	0.596046	0.244036
O12	O	1.783213	0.929379	0.577370
O13	O	1.121502	0.067821	0.089369
O14	O	1.454836	0.401155	0.422703
O15	O	1.788169	0.734488	0.756036
O16	O	0.975565	0.165924	0.089350
O17	O	1.308898	0.499257	0.422683
O18	O	1.642232	0.832590	0.756016
O19	O	1.251508	0.172002	0.089363
O20	O	1.584842	0.505335	0.422696
O21	O	1.918175	0.838668	0.756030
Cu22	Cu	1.112535	0.169638	0.105668
Cu23	Cu	1.445868	0.502971	0.439001
Cu24	Cu	1.779201	0.836304	0.772334
Cu25	Cu	1.125514	0.160897	-0.105595
Cu26	Cu	1.458848	0.494230	0.227738
Cu27	Cu	1.792181	0.827563	0.561071
O28	O	1.105571	0.270104	0.089343
O29	O	1.438904	0.603437	0.422677
O30	O	1.772238	0.936771	0.756010
C31	C	0.945749	0.159569	0.000028
C32	C	1.279083	0.492902	0.333361
C33	C	1.612416	0.826236	0.666695
C34	C	0.840557	0.151638	0.000023
C35	C	1.173890	0.484971	0.333357
C36	C	1.507224	0.818305	0.666690
C37	C	1.126475	0.038082	0.000050
C38	C	1.459809	0.371415	0.333384
C39	C	1.793142	0.704748	0.666717
C40	C	1.124929	-0.039523	0.000053
C41	C	1.458263	0.293810	0.333386
C42	C	1.791596	0.627144	0.666720
C43	C	0.590096	0.193386	0.000029
C44	C	0.923429	0.526720	0.333362
C45	C	1.256762	0.860053	0.666695
C46	C	0.647959	0.137151	0.000034
C47	C	0.981293	0.470484	0.333368
C48	C	1.314626	0.803817	0.666701
C49	C	0.755130	0.145213	0.000028
C50	C	1.088464	0.478547	0.333362
C51	C	1.421797	0.811880	0.666695
C52	C	0.482915	0.185325	0.000035
C53	C	0.816248	0.518658	0.333368
C54	C	1.149581	0.851991	0.666701
C55	C	1.130191	-0.079997	-0.097324
C56	C	1.463524	0.253336	0.236009
C57	C	1.796858	0.586669	0.569342
C58	C	1.128726	-0.152915	-0.097332
C59	C	1.462059	0.180418	0.236001
C60	C	1.795392	0.513752	0.569334
C61	C	1.122018	-0.185356	0.000042
C62	C	1.455351	0.147978	0.333375
C63	C	1.788684	0.481311	0.666709
C64	C	1.116750	-0.144872	0.097432
C65	C	1.450084	0.188461	0.430765
C66	C	1.783417	0.521795	0.764099
C67	C	1.118206	-0.071955	0.097438
C68	C	1.451540	0.261378	0.430771
C69	C	1.784873	0.594711	0.764104
N70	N	1.169205	-0.298687	0.072518
N71	N	1.502539	0.034646	0.405851
N72	N	1.835872	0.367980	0.739185
N73	N	1.167825	-0.367955	0.072506
N74	N	1.501158	-0.034622	0.405840
N75	N	1.834491	0.298712	0.739173
C76	C	1.117629	-0.405049	0.000032
C77	C	1.450962	-0.071715	0.333365
C78	C	1.784296	0.261618	0.666698
N79	N	1.068879	-0.370259	-0.072447
N80	N	1.402212	-0.036926	0.260886
N81	N	1.735546	0.296408	0.594219
N82	N	1.070264	-0.300985	-0.072439
N83	N	1.403597	0.032349	0.260895
N84	N	1.736931	0.365682	0.594228
C85	C	1.120438	-0.264421	0.000047
C86	C	1.453771	0.068912	0.333380
C87	C	1.787105	0.402246	0.666714
C88	C	1.121301	-0.524589	-0.097361
C89	C	1.454634	-0.191256	0.235972
C90	C	1.787967	0.142078	0.569305
C91	C	1.119829	-0.597508	-0.097365
C92	C	1.453163	-0.264174	0.235968
C93	C	1.786496	0.069159	0.569301
C94	C	1.107864	-0.589463	0.097402
C95	C	1.441197	-0.256130	0.430735
C96	C	1.774530	0.077203	0.764069
C97	C	1.109325	-0.516546	0.097403
C98	C	1.442659	-0.183213	0.430737
C99	C	1.775992	0.150121	0.764070
C100	C	1.116049	-0.484113	0.000019
C101	C	1.449382	-0.150780	0.333352
C102	C	1.782715	0.182553	0.666685
C103	C	1.292300	0.170965	0.000042
C104	C	1.625633	0.504298	0.333375
C105	C	1.958966	0.837632	0.666709
C106	C	1.397492	0.178896	0.000040
C107	C	1.730826	0.512229	0.333373
C108	C	2.064159	0.845562	0.666706
N109	N	1.103412	0.175785	0.254259
N110	N	1.436746	0.509119	0.587592
N111	N	1.770079	0.842452	0.920925
C112	C	1.111574	0.292452	0.000020
C113	C	1.444907	0.625786	0.333353
C114	C	1.778240	0.959119	0.666687
C115	C	1.113120	0.370057	0.000010
C116	C	1.446453	0.703390	0.333343
C117	C	1.779787	1.036723	0.666677
N118	N	1.134644	0.154744	-0.254186
N119	N	1.467977	0.488077	0.079147
N120	N	1.801311	0.821410	0.412480
C121	C	1.089993	0.184835	0.473372
C122	C	1.423326	0.518169	0.806706
C123	C	1.756660	0.851502	1.140039
C124	C	1.148060	0.145696	0.526707
C125	C	1.481394	0.479029	0.860040
C126	C	1.814727	0.812363	1.193374
C127	C	1.140594	0.150731	0.648629
C128	C	1.473927	0.484065	0.981963
C129	C	1.807260	0.817398	1.315296
C130	C	1.097458	0.179801	0.351439
C131	C	1.430792	0.513134	0.684772
C132	C	1.764125	0.846467	1.018106
H133	H	0.617015	0.082947	-0.000034
H134	H	0.950348	0.416280	0.333299
H135	H	1.283681	0.749614	0.666632
F136	F	1.017690	0.233574	0.533368
F137	F	1.351023	0.566908	0.866701
F138	F	1.684357	0.900241	1.200035
F139	F	0.630547	0.264225	0.000010
F140	F	0.963880	0.597559	0.333344
F141	F	1.297213	0.930892	0.666677
F142	F	1.220652	0.097182	0.466710
F143	F	1.553985	0.430516	0.800043
F144	F	1.887319	0.763849	1.133376
H145	H	1.124109	-0.630461	-0.176665
H146	H	1.457443	-0.297128	0.156668
H147	H	1.790776	0.036206	0.490002
H148	H	1.135663	-0.053595	-0.176622
H149	H	1.468996	0.279738	0.156711
H150	H	1.802329	0.613071	0.490044
F151	F	1.134325	-0.195999	-0.200979
F152	F	1.467658	0.137334	0.132355
F153	F	1.800991	0.470668	0.465688
H154	H	1.111286	-0.171290	0.176715
H155	H	1.444619	0.162044	0.510048
H156	H	1.777953	0.495377	0.843382
H157	H	1.113918	-0.039001	0.176736
H158	H	1.447251	0.294333	0.510070
H159	H	1.780584	0.627666	0.843403
F160	F	1.128450	-0.490069	-0.201005
F161	F	1.461783	-0.156736	0.132329
F162	F	1.795117	0.176597	0.465662
H163	H	1.102395	-0.615876	0.176686
H164	H	1.435728	-0.282542	0.510019
H165	H	1.769061	0.050791	0.843353
H166	H	1.105049	-0.483591	0.176698
H167	H	1.438382	-0.150258	0.510032
H168	H	1.771716	0.183076	0.843365
