data_functionalizedCrystal
_audit_creation_method	'MofGen! by Chris Wilmer'
_symmetry_space_group_name_H-M	'P1'
_symmetry_Int_Tables_number	1
_symmetry_cell_setting	triclinic
loop_
_symmetry_equiv_pos_as_xyz
  x,y,z
_cell_length_a	17.699077
_cell_length_b	10.654558
_cell_length_c	16.776229
_cell_angle_alpha	89.994314
_cell_angle_beta	89.993415
_cell_angle_gamma	83.884401
loop_
_atom_site_label
_atom_site_type_symbol
_atom_site_fract_x
_atom_site_fract_y
_atom_site_fract_z
O1	O	1.005094	0.158772	-0.066276
O2	O	0.784846	0.179441	-0.066280
O3	O	0.900031	-0.013720	-0.066274
O4	O	0.889909	0.351934	-0.066281
O5	O	0.900015	-0.013732	0.066302
O6	O	0.784831	0.179430	0.066297
O7	O	1.005078	0.158761	0.066300
Zn8	Zn	0.894952	0.169093	0.087348
Zn9	Zn	0.894972	0.169109	-0.087327
O10	O	0.889894	0.351922	0.066295
C11	C	0.756637	0.178696	0.000008
C12	C	0.672604	0.176478	0.000007
C13	C	0.633122	0.175427	0.072275
C14	C	0.554166	0.173322	0.072276
C15	C	0.514693	0.172279	0.000008
C16	C	0.554181	0.173327	-0.072266
C17	C	0.633137	0.175422	-0.072266
C18	C	0.235764	0.164876	-0.072268
C19	C	0.156803	0.162784	-0.072262
C20	C	0.156793	0.162776	0.072275
C21	C	0.235749	0.164871	0.072275
C22	C	0.275231	0.165913	0.000001
C23	C	0.360844	0.168192	0.000001
C24	C	0.429081	0.170009	0.000007
C25	C	0.899278	-0.060511	0.000013
C26	C	0.897051	-0.199915	0.000011
C27	C	0.895995	-0.265416	0.072277
C28	C	0.893908	-0.396402	0.072274
C29	C	0.893932	-0.396373	-0.072269
C30	C	0.896024	-0.265391	-0.072265
C31	C	0.897022	-0.199941	0.144552
C32	C	0.895965	-0.265442	0.216824
C33	C	0.893879	-0.396428	0.216821
C34	C	0.892850	-0.461913	0.144545
C35	C	1.033288	0.159506	0.000011
C36	C	1.117320	0.161724	0.000007
C37	C	0.890646	0.398713	0.000006
C38	C	0.892873	0.538117	0.000003
N39	N	0.894944	0.169082	0.206559
N40	N	0.894987	0.169110	-0.206538
C41	C	0.945963	0.083585	0.248279
C42	C	0.945967	0.083584	0.331731
C43	C	0.894955	0.169087	0.373462
C44	C	0.843930	0.254588	0.331737
C45	C	0.843923	0.254582	0.248286
C46	C	0.843958	0.254612	0.668284
C47	C	0.843970	0.254614	0.751741
C48	C	0.946002	0.083614	0.751729
C49	C	0.945995	0.083608	0.668278
C50	C	0.894967	0.169104	0.626560
C51	C	0.894963	0.169103	0.536072
C52	C	0.894963	0.169095	0.463949
H53	H	0.665254	0.176287	0.131124
O54	O	0.278314	0.166012	0.150226
H55	H	0.320591	0.081416	0.153691
H56	H	0.896884	-0.212058	-0.131110
O57	O	0.899348	-0.058681	0.144603
H58	H	0.951423	-0.035565	0.113423
H59	H	0.665282	0.176281	-0.131115
H60	H	0.891157	-0.568572	0.144549
H61	H	0.896809	-0.212117	0.275668
O62	O	0.788949	0.346836	0.796759
H63	H	0.821139	0.407808	0.834755
H64	H	0.893093	-0.449701	-0.131112
O65	O	0.278343	0.166007	-0.150216
H66	H	0.256897	0.251174	-0.184867
H67	H	0.987536	0.013988	0.634303
O68	O	1.001011	-0.008616	0.376722
H69	H	0.990871	-0.106500	0.360709
O70	O	1.000981	-0.008642	0.203269
H71	H	1.036452	-0.068102	0.246303
H72	H	0.522037	0.172468	-0.131108
O73	O	0.892750	-0.467075	0.294769
H74	H	0.891134	-0.569159	0.282628
H75	H	0.802411	0.324229	0.634324
H76	H	0.987549	0.013994	0.785704
H77	H	0.802377	0.324201	0.214319
H78	H	0.522024	0.172445	0.131124
H79	H	0.802391	0.324202	0.365719
H80	H	0.124667	0.161934	-0.131115
O81	O	0.114169	0.162231	0.150231
H82	H	0.052620	0.160801	0.138094
