data_functionalizedCrystal
_audit_creation_method	'MofGen! by Chris Wilmer'
_symmetry_space_group_name_H-M	'P1'
_symmetry_Int_Tables_number	1
_symmetry_cell_setting	triclinic
loop_
_symmetry_equiv_pos_as_xyz
  x,y,z
_cell_length_a	16.974885
_cell_length_b	15.455313
_cell_length_c	15.538191
_cell_angle_alpha	91.603349
_cell_angle_beta	65.372169
_cell_angle_gamma	90.969048
loop_
_atom_site_label
_atom_site_type_symbol
_atom_site_fract_x
_atom_site_fract_y
_atom_site_fract_z
O1	O	1.014735	-0.000957	0.120019
O2	O	1.514735	0.499043	0.620019
O3	O	0.781195	-0.017336	0.134388
O4	O	1.281195	0.482664	0.634388
O5	O	0.943426	-0.005962	-0.009805
O6	O	1.443426	0.494038	0.490195
O7	O	0.852504	-0.012331	0.264211
O8	O	1.352504	0.487669	0.764211
O9	O	0.934158	0.137650	-0.001593
O10	O	1.434158	0.637650	0.498407
O11	O	0.771927	0.126276	0.142599
O12	O	1.271927	0.626276	0.642599
O13	O	1.005468	0.142655	0.128230
O14	O	1.505468	0.642655	0.628230
Cu15	Cu	0.887851	0.147579	0.136165
Cu16	Cu	1.387851	0.647579	0.636165
Cu17	Cu	0.898811	-0.022260	0.126454
Cu18	Cu	1.398811	0.477740	0.626454
O19	O	0.843237	0.131281	0.272423
O20	O	1.343237	0.631281	0.772423
C21	C	0.747401	0.052424	0.137796
C22	C	1.247401	0.552424	0.637796
C23	C	0.660519	0.046331	0.135705
C24	C	1.160519	0.546331	0.635705
C25	C	0.948305	0.066508	-0.040769
C26	C	1.448305	0.566508	0.459231
C27	C	0.976641	0.068487	-0.145267
C28	C	1.476641	0.568487	0.354733
C29	C	0.172020	0.003566	0.123420
C30	C	0.672020	0.503566	0.623420
C31	C	0.253655	0.009304	0.125385
C32	C	0.753655	0.509304	0.625385
C33	C	0.289409	0.090456	0.130851
C34	C	0.789409	0.590456	0.630851
C35	C	0.243529	0.165876	0.134342
C36	C	0.743529	0.665876	0.634342
C37	C	0.161898	0.160138	0.132370
C38	C	0.661898	0.660138	0.632370
C39	C	0.533007	0.116012	0.137223
C40	C	1.033007	0.616012	0.637223
C41	C	0.614643	0.121745	0.139198
C42	C	1.114643	0.621745	0.639198
C43	C	0.624764	-0.034828	0.130240
C44	C	1.124764	0.465172	0.630240
C45	C	0.543129	-0.040559	0.128273
C46	C	1.043129	0.459441	0.628273
C47	C	0.497257	0.034861	0.131760
C48	C	0.997257	0.534861	0.631760
N49	N	0.372852	0.096323	0.132863
N50	N	0.872852	0.596323	0.632863
N51	N	0.413819	0.028993	0.129741
N52	N	0.913819	0.528993	0.629741
C53	C	1.039261	0.072892	0.124823
C54	C	1.539261	0.572892	0.624823
C55	C	1.126144	0.078981	0.126913
C56	C	1.626144	0.578981	0.626913
N57	N	0.880149	0.267034	0.142994
N58	N	1.380149	0.767034	0.642994
N59	N	0.906522	-0.141715	0.119616
N60	N	1.406522	0.358285	0.619616
C61	C	0.949082	0.317261	0.081759
C62	C	1.449082	0.817261	0.581759
C63	C	0.943261	0.407661	0.086933
C64	C	1.443261	0.907661	0.586933
C65	C	0.868510	0.447832	0.153347
C66	C	1.368510	0.947832	0.653347
C67	C	0.799571	0.397598	0.214585
C68	C	1.299571	0.897598	0.714585
C69	C	0.805389	0.307200	0.209406
C70	C	1.305389	0.807200	0.709406
C71	C	0.843402	0.717653	0.175676
C72	C	1.343402	1.217653	0.675676
C73	C	0.837589	0.808058	0.180852
C74	C	1.337589	1.308058	0.680852
C75	C	0.981280	0.818115	0.053198
C76	C	1.481280	1.318115	0.553198
C77	C	0.987094	0.727714	0.048028
C78	C	1.487094	1.227714	0.548028
C79	C	0.918153	0.677488	0.109263
C80	C	1.418153	1.177488	0.609263
N81	N	0.862560	0.540235	0.158639
N82	N	1.362560	1.040235	0.658639
N83	N	0.924101	0.585087	0.103966
N84	N	1.424101	1.085087	0.603966
C85	C	0.695135	0.048762	-0.433811
C86	C	1.195135	0.548762	0.066189
C87	C	0.721780	0.050633	-0.532005
C88	C	1.221780	0.550633	-0.032005
C89	C	0.871654	0.061144	-0.554047
C90	C	1.371654	0.561144	-0.054047
C91	C	0.845021	0.059270	-0.455852
C92	C	1.345021	0.559270	0.044148
C93	C	0.756761	0.053080	-0.395742
C94	C	1.256761	0.553080	0.104258
C95	C	0.906647	0.063587	-0.417783
C96	C	1.406647	0.563587	0.082217
C97	C	0.880016	0.061718	-0.319597
C98	C	1.380016	0.561718	0.180403
C99	C	0.791760	0.055531	-0.259480
C100	C	1.291760	0.555531	0.240520
C101	C	0.730130	0.051210	-0.297556
C102	C	1.230130	0.551210	0.202444
C103	C	0.994907	0.069783	-0.477896
C104	C	1.494907	0.569783	0.022104
C105	C	1.056533	0.074101	-0.439827
C106	C	1.556533	0.574101	0.060173
C107	C	1.029902	0.072225	-0.341639
C108	C	1.529902	0.572225	0.158361
C109	C	0.941646	0.066038	-0.281522
C110	C	1.441646	0.566038	0.218478
C111	C	1.091532	0.076546	-0.303564
C112	C	1.591532	0.576546	0.196436
C113	C	1.064901	0.074677	-0.205378
C114	C	1.564901	0.574677	0.294622
C115	C	0.915015	0.064169	-0.183336
C116	C	1.415015	0.564169	0.316664
C117	C	0.838357	0.058809	0.303387
C118	C	1.338357	0.558809	0.803387
C119	C	0.810022	0.056825	0.407885
C120	C	1.310022	0.556825	0.907885
H121	H	0.142912	-0.062517	0.118975
H122	H	0.642912	0.437483	0.618975
F123	F	0.652694	0.208123	0.145015
F124	F	1.152694	0.708123	0.645015
F125	F	0.656182	0.046041	-0.572516
F126	F	1.156182	0.546041	-0.072516
F127	F	0.281585	0.252246	0.140156
F128	F	0.781585	0.752246	0.640156
F129	F	0.636193	0.044614	-0.233576
F130	F	1.136193	0.544614	0.266424
H131	H	0.124543	0.221549	0.135224
H132	H	0.624543	0.721549	0.635224
H133	H	0.749256	0.266306	0.259269
H134	H	1.249256	0.766306	0.759269
F135	F	0.302477	-0.070963	0.121662
F136	F	0.802477	0.429037	0.621662
F137	F	0.770032	0.664206	0.240848
F138	F	1.270032	1.164206	0.740848
F139	F	0.763416	0.053548	-0.154980
F140	F	1.263416	0.553548	0.345020
H141	H	0.495674	0.177425	0.140048
H142	H	0.995674	0.677425	0.640048
F143	F	0.505082	-0.126933	0.122457
F144	F	1.005082	0.373067	0.622457
H145	H	1.047962	0.695009	-0.006051
H146	H	1.547962	1.195009	0.493949
H147	H	0.662121	-0.096231	0.127400
H148	H	1.162121	0.403769	0.627400
H149	H	1.009954	0.284560	0.027681
H150	H	1.509954	0.784560	0.527681
H151	H	0.999391	0.448556	0.037069
H152	H	1.499391	0.948556	0.537069
F153	F	1.130489	0.079285	-0.164859
F154	F	1.630489	0.579285	0.335141
H155	H	1.037408	0.859017	0.003342
H156	H	1.537408	1.359017	0.503342
H157	H	0.776714	0.840761	0.234938
H158	H	1.276714	1.340761	0.734938
F159	F	1.185461	0.083148	-0.367549
F160	F	1.685461	0.583148	0.132451
H161	H	0.738703	0.430311	0.268658
H162	H	1.238703	0.930311	0.768658
H163	H	0.843145	0.059122	-0.134390
H164	H	1.343145	0.559122	0.365610
H165	H	0.623265	0.043715	-0.384865
H166	H	1.123265	0.543715	0.115135
F167	F	0.965583	0.067738	-0.618030
F168	F	1.465583	0.567738	-0.118030
F169	F	1.023248	0.071778	-0.582394
F170	F	1.523248	0.571778	-0.082394
F171	F	1.150462	0.080695	-0.503810
F172	F	1.650462	0.580695	-0.003810
