data_functionalizedCrystal
_audit_creation_method	'MofGen! by Chris Wilmer'
_symmetry_space_group_name_H-M	'P1'
_symmetry_Int_Tables_number	1
_symmetry_cell_setting	triclinic
loop_
_symmetry_equiv_pos_as_xyz
  x,y,z
_cell_length_a	9.065218
_cell_length_b	15.944551
_cell_length_c	8.140239
_cell_angle_alpha	89.995530
_cell_angle_beta	89.997198
_cell_angle_gamma	84.257312
loop_
_atom_site_label
_atom_site_type_symbol
_atom_site_fract_x
_atom_site_fract_y
_atom_site_fract_z
O1	O	1.957519	0.123161	-0.136622
O2	O	1.527998	0.133263	-0.136625
O3	O	1.754488	0.006026	-0.136608
O4	O	1.731029	0.250398	-0.136638
O5	O	1.754475	0.006024	0.136619
O6	O	1.527986	0.133261	0.136603
O7	O	1.957507	0.123159	0.136605
Zn8	Zn	1.742744	0.128210	0.179985
Zn9	Zn	1.742761	0.128212	-0.180004
O10	O	1.731017	0.250396	0.136589
C11	C	1.473028	0.132291	-0.000011
C12	C	1.309253	0.129388	-0.000012
C13	C	1.753508	-0.025276	0.000005
C14	C	1.750588	-0.118544	0.000006
C15	C	1.603221	-0.334518	-0.000017
C16	C	1.671647	-0.395017	0.134701
C17	C	1.745306	-0.289310	-0.000006
C18	C	1.671693	-0.394999	-0.134680
C19	C	1.740194	-0.454262	-0.000026
C20	C	1.813772	-0.348581	0.134823
C21	C	1.813798	-0.348557	-0.134679
C22	C	1.882327	-0.409038	0.000072
C23	C	1.748247	-0.194286	0.000006
C24	C	1.737264	-0.549285	-0.000026
C25	C	2.012477	0.124131	-0.000012
C26	C	2.176252	0.127034	-0.000022
C27	C	1.731997	0.281698	-0.000028
C28	C	1.734917	0.374966	-0.000040
N29	N	1.742744	0.128208	0.425667
N30	N	1.742773	0.128207	-0.425687
H31	H	1.611545	-0.415581	0.248593
C32	C	1.894101	-0.321230	-0.286490
C33	C	2.039335	-0.360489	-0.287532
C34	C	2.113335	-0.335341	-0.427379
H35	H	1.896317	-0.261800	-0.284981
H36	H	1.843571	-0.336987	-0.382166
H37	H	2.089852	-0.344726	-0.191881
H38	H	2.037163	-0.419918	-0.289065
H39	H	2.062805	-0.351098	-0.523055
H40	H	2.115540	-0.275910	-0.425858
H41	H	2.211879	-0.361980	-0.428112
C42	C	1.591782	-0.422521	-0.286601
C43	C	1.688957	-0.477299	-0.379789
C44	C	1.615378	-0.502675	-0.519728
H45	H	1.558853	-0.374459	-0.350639
H46	H	1.508888	-0.450656	-0.254269
H47	H	1.771824	-0.449164	-0.412123
H48	H	1.721890	-0.525374	-0.315800
H49	H	1.532485	-0.530810	-0.487397
H50	H	1.582453	-0.454607	-0.583752
H51	H	1.681296	-0.539850	-0.582966
C52	C	1.445939	-0.291334	0.000490
C53	C	1.372221	-0.314748	0.141876
C54	C	1.227343	-0.274974	0.142417
H55	H	1.394781	-0.307861	-0.094130
H56	H	1.448830	-0.231938	-0.000401
H57	H	1.369322	-0.374131	0.142751
H58	H	1.423334	-0.298220	0.236519
H59	H	1.230234	-0.215578	0.141527
H60	H	1.176199	-0.291505	0.047791
H61	H	1.177312	-0.290849	0.238353
H62	H	1.873813	-0.328137	0.248841
H63	H	2.000369	-0.441303	0.000149
