data_functionalizedCrystal
_audit_creation_method	'MofGen! by Chris Wilmer'
_symmetry_space_group_name_H-M	'P1'
_symmetry_Int_Tables_number	1
_symmetry_cell_setting	triclinic
loop_
_symmetry_equiv_pos_as_xyz
  x,y,z
_cell_length_a	16.120530
_cell_length_b	16.120444
_cell_length_c	16.120297
_cell_angle_alpha	95.615117
_cell_angle_beta	90.128140
_cell_angle_gamma	90.168401
loop_
_atom_site_label
_atom_site_type_symbol
_atom_site_fract_x
_atom_site_fract_y
_atom_site_fract_z
Zn1	Zn	1.224979	-0.422266	-0.554818
Zn2	Zn	1.474979	-0.172266	-0.304818
Zn3	Zn	1.724979	0.077734	-0.054818
Zn4	Zn	1.974979	0.327734	0.195182
Zn5	Zn	1.224872	-0.554951	-0.422125
Zn6	Zn	1.474872	-0.304951	-0.172125
Zn7	Zn	1.724872	-0.054951	0.077875
Zn8	Zn	1.974872	0.195049	0.327875
Zn9	Zn	1.093719	-0.408182	-0.408061
Zn10	Zn	1.343719	-0.158182	-0.158061
Zn11	Zn	1.593719	0.091818	0.091939
Zn12	Zn	1.843719	0.341818	0.341939
Zn13	Zn	1.078869	-0.554183	-0.554057
Zn14	Zn	1.328869	-0.304183	-0.304057
Zn15	Zn	1.578869	-0.054183	-0.054057
Zn16	Zn	1.828869	0.195817	0.195943
O17	O	1.155610	-0.484895	-0.484765
O18	O	1.405610	-0.234895	-0.234765
O19	O	1.655610	0.015105	0.015235
O20	O	1.905610	0.265105	0.265235
O21	O	1.341001	-0.446082	-0.543421
O22	O	1.591001	-0.196082	-0.293421
O23	O	1.841001	0.053918	-0.043421
O24	O	2.091001	0.303918	0.206579
O25	O	1.213644	-0.529908	-0.303627
O26	O	1.463644	-0.279908	-0.053627
O27	O	1.713644	-0.029908	0.196373
O28	O	1.963644	0.220092	0.446373
O29	O	1.117390	-0.293419	-0.421961
O30	O	1.367390	-0.043419	-0.171961
O31	O	1.617390	0.206581	0.078039
O32	O	1.867390	0.456581	0.328039
O33	O	1.340922	-0.543565	-0.445931
O34	O	1.590922	-0.293565	-0.195931
O35	O	1.840922	-0.043565	0.054069
O36	O	2.090922	0.206435	0.304069
O37	O	1.213826	-0.303767	-0.529783
O38	O	1.463826	-0.053767	-0.279783
O39	O	1.713826	0.196233	-0.029783
O40	O	1.963826	0.446233	0.220217
O41	O	1.117286	-0.422078	-0.293294
O42	O	1.367286	-0.172078	-0.043294
O43	O	1.617286	0.077922	0.206706
O44	O	1.867286	0.327922	0.456706
O45	O	0.975713	-0.421333	-0.421223
O46	O	1.225713	-0.171333	-0.171223
O47	O	1.475713	0.078667	0.078777
O48	O	1.725713	0.328667	0.328777
O49	O	1.092082	-0.542257	-0.670791
O50	O	1.342082	-0.292257	-0.420791
O51	O	1.592082	-0.042257	-0.170791
O52	O	1.842082	0.207743	0.079209
O53	O	0.964804	-0.528600	-0.528486
O54	O	1.214804	-0.278600	-0.278486
O55	O	1.464804	-0.028600	-0.028486
O56	O	1.714804	0.221400	0.221514
O57	O	1.199428	-0.445338	-0.671350
O58	O	1.449428	-0.195338	-0.421350
O59	O	1.699428	0.054662	-0.171350
O60	O	1.949428	0.304662	0.078650
O61	O	1.199245	-0.671480	-0.445193
O62	O	1.449245	-0.421480	-0.195193
O63	O	1.699245	-0.171480	0.054807
O64	O	1.949245	0.078520	0.304807
O65	O	1.091978	-0.670916	-0.542124
O66	O	1.341978	-0.420916	-0.292124
O67	O	1.591978	-0.170916	-0.042124
O68	O	1.841978	0.079084	0.207876
C69	C	0.940172	-0.473356	-0.473247
C70	C	1.190172	-0.223356	-0.223247
C71	C	1.440172	0.026644	0.026753
C72	C	1.690172	0.276644	0.276753
C73	C	0.848004	-0.468440	-0.468340
C74	C	1.098004	-0.218440	-0.218340
C75	C	1.348004	0.031560	0.031660
C76	C	1.598004	0.281560	0.281660
C77	C	0.679253	-0.459446	-0.459387
C78	C	0.929253	-0.209446	-0.209387
C79	C	1.179253	0.040554	0.040613
C80	C	1.429253	0.290554	0.290613
C81	C	0.632801	-0.510409	-0.510208
C82	C	0.882801	-0.260409	-0.260208
C83	C	1.132801	-0.010409	-0.010208
C84	C	1.382801	0.239591	0.239792
C85	C	0.538902	-0.505404	-0.505226
C86	C	0.788902	-0.255404	-0.255226
C87	C	1.038902	-0.005404	-0.005226
C88	C	1.288902	0.244596	0.244774
C89	C	0.773160	-0.464449	-0.464367
C90	C	1.023160	-0.214449	-0.214367
C91	C	1.273160	0.035551	0.035633
C92	C	1.523160	0.285551	0.285633
C93	C	1.144010	-0.701441	-0.495121
C94	C	1.394010	-0.451441	-0.245121
C95	C	1.644010	-0.201441	0.004879
C96	C	1.894010	0.048559	0.254879
C97	C	1.139122	-0.794086	-0.499584
C98	C	1.389122	-0.544086	-0.249584
C99	C	1.639122	-0.294086	0.000416
C100	C	1.889122	-0.044086	0.250416
C101	C	1.181160	-1.005244	-0.461807
C102	C	1.431160	-0.755244	-0.211807
C103	C	1.681160	-0.505244	0.038193
C104	C	1.931160	-0.255244	0.288193
C105	C	1.130213	-0.963704	-0.507740
C106	C	1.380213	-0.713704	-0.257740
C107	C	1.630213	-0.463704	-0.007740
C108	C	1.880213	-0.213704	0.242260
C109	C	1.135171	-0.869320	-0.503201
C110	C	1.385171	-0.619320	-0.253201
C111	C	1.635171	-0.369320	-0.003201
C112	C	1.885171	-0.119320	0.246799
C113	C	1.176203	-1.099637	-0.466346
C114	C	1.426203	-0.849637	-0.216346
C115	C	1.676203	-0.599637	0.033654
C116	C	1.926203	-0.349637	0.283654
C117	C	1.371889	-0.496481	-0.496330
C118	C	1.621889	-0.246481	-0.246330
C119	C	1.871889	0.003519	0.003670
C120	C	2.121889	0.253519	0.253670
C121	C	1.464055	-0.501417	-0.501258
C122	C	1.714055	-0.251417	-0.251258
C123	C	1.964055	-0.001417	-0.001258
C124	C	2.214055	0.248583	0.248742
C125	C	1.144110	-0.495283	-0.702158
C126	C	1.394110	-0.245283	-0.452158
C127	C	1.644110	0.004717	-0.202158
C128	C	1.894110	0.254717	0.047842
C129	C	1.139210	-0.499710	-0.794797
C130	C	1.389210	-0.249710	-0.544797
C131	C	1.639210	0.000290	-0.294797
C132	C	1.889210	0.250290	-0.044797
C133	C	1.167277	-0.267506	-0.474388
C134	C	1.417277	-0.017506	-0.224388
C135	C	1.667277	0.232494	0.025612
C136	C	1.917277	0.482494	0.275612
C137	C	1.172248	-0.174868	-0.469966
C138	C	1.422248	0.075132	-0.219966
C139	C	1.672248	0.325132	0.030034
C140	C	1.922248	0.575132	0.280034
C141	C	1.130233	-0.507771	-0.964409
C142	C	1.380233	-0.257771	-0.714409
C143	C	1.630233	-0.007771	-0.464409
C144	C	1.880233	0.242229	-0.214409
C145	C	1.181163	-0.461778	-1.005971
C146	C	1.431163	-0.211778	-0.755971
C147	C	1.681163	0.038222	-0.505971
C148	C	1.931163	0.288222	-0.255971
C149	C	1.176169	-0.466264	-1.100348
C150	C	1.426169	-0.216264	-0.850348
C151	C	1.676169	0.033736	-0.600348
C152	C	1.926169	0.283736	-0.350348
C153	C	1.135227	-0.503287	-0.870023
C154	C	1.385227	-0.253287	-0.620023
C155	C	1.635227	-0.003287	-0.370023
C156	C	1.885227	0.246713	-0.120023
C157	C	1.167116	-0.474490	-0.268218
C158	C	1.417116	-0.224490	-0.018218
C159	C	1.667116	0.025510	0.231782
C160	C	1.917116	0.275510	0.481782
C161	C	1.172189	-0.469838	-0.175577
C162	C	1.422189	-0.219838	0.074423
C163	C	1.672189	0.030162	0.324423
C164	C	1.922189	0.280162	0.574423
H165	H	0.648503	-0.412062	-0.412140
H166	H	0.898503	-0.162062	-0.162140
H167	H	1.148503	0.087938	0.087860
H168	H	1.398503	0.337938	0.337860
N169	N	1.070818	-0.561382	-1.008675
N170	N	1.320818	-0.311382	-0.758675
N171	N	1.570818	-0.061382	-0.508675
N172	N	1.820818	0.188618	-0.258675
N173	N	0.995101	-0.551299	-0.994670
N174	N	1.245101	-0.301299	-0.744670
N175	N	1.495101	-0.051299	-0.494670
N176	N	1.745101	0.198701	-0.244670
H177	H	0.953137	-0.589157	-1.025943
H178	H	1.203137	-0.339157	-0.775943
H179	H	1.453137	-0.089157	-0.525943
H180	H	1.703137	0.160843	-0.275943
H181	H	0.663552	-0.557796	-0.557459
H182	H	0.913552	-0.307796	-0.307459
H183	H	1.163552	-0.057796	-0.057459
H184	H	1.413552	0.192204	0.192541
N185	N	1.240541	-0.960952	-0.408182
N186	N	1.490541	-0.710952	-0.158182
N187	N	1.740541	-0.460952	0.091818
N188	N	1.990541	-0.210952	0.341818
N189	N	1.288440	-0.999948	-0.364984
N190	N	1.538440	-0.749948	-0.114984
N191	N	1.788440	-0.499948	0.135016
N192	N	2.038440	-0.249948	0.385016
H193	H	1.330375	-0.968660	-0.327109
H194	H	1.580375	-0.718660	-0.077109
H195	H	1.830375	-0.468660	0.172891
H196	H	2.080375	-0.218660	0.422891
N197	N	1.070825	-1.008021	-0.561346
N198	N	1.320825	-0.758021	-0.311346
N199	N	1.570825	-0.508021	-0.061346
N200	N	1.820825	-0.258021	0.188654
N201	N	1.066827	-1.085742	-0.565002
N202	N	1.316827	-0.835742	-0.315002
N203	N	1.566827	-0.585742	-0.065002
N204	N	1.816827	-0.335742	0.184998
H205	H	1.024884	-1.117045	-0.602856
H206	H	1.274884	-0.867045	-0.352856
H207	H	1.524884	-0.617045	-0.102856
H208	H	1.774884	-0.367045	0.147144
N209	N	1.240586	-0.408173	-0.961697
N210	N	1.490586	-0.158173	-0.711697
N211	N	1.740586	0.091827	-0.461697
N212	N	1.990586	0.341827	-0.211697
N213	N	1.316301	-0.418262	-0.975707
N214	N	1.566301	-0.168262	-0.725707
N215	N	1.816301	0.081738	-0.475707
N216	N	2.066301	0.331738	-0.225707
H217	H	1.358270	-0.380409	-0.944436
H218	H	1.608270	-0.130409	-0.694436
H219	H	1.858270	0.119591	-0.444436
H220	H	2.108270	0.369591	-0.194436
