data_functionalizedCrystal
_audit_creation_method	'MofGen! by Chris Wilmer'
_symmetry_space_group_name_H-M	'P1'
_symmetry_Int_Tables_number	1
_symmetry_cell_setting	triclinic
loop_
_symmetry_equiv_pos_as_xyz
  x,y,z
_cell_length_a	16.992694
_cell_length_b	15.995350
_cell_length_c	15.455313
_cell_angle_alpha	92.667328
_cell_angle_beta	87.142206
_cell_angle_gamma	87.080299
loop_
_atom_site_label
_atom_site_type_symbol
_atom_site_fract_x
_atom_site_fract_y
_atom_site_fract_z
O1	O	1.043823	0.174116	-0.072015
O2	O	1.543823	0.674116	0.427985
O3	O	0.815539	0.172167	-0.072041
O4	O	1.315539	0.672167	0.427959
O5	O	0.935921	0.051671	-0.072026
O6	O	1.435921	0.551671	0.427974
O7	O	0.923440	0.294611	-0.072029
O8	O	1.423440	0.794611	0.427971
O9	O	0.929037	0.058531	0.072235
O10	O	1.429037	0.558531	0.572235
O11	O	0.808655	0.179027	0.072221
O12	O	1.308655	0.679027	0.572221
O13	O	1.036939	0.180976	0.072246
O14	O	1.536939	0.680976	0.572246
Cu15	Cu	0.922168	0.180628	0.085406
Cu16	Cu	1.422168	0.680628	0.585406
Cu17	Cu	0.930309	0.172515	-0.085200
Cu18	Cu	1.430309	0.672515	0.414800
O19	O	0.916556	0.301471	0.072232
O20	O	1.416556	0.801471	0.572232
C21	C	0.782884	0.173091	0.000087
C22	C	1.282884	0.673091	0.500087
C23	C	0.695840	0.165614	0.000077
C24	C	1.195840	0.665614	0.500077
C25	C	0.645600	0.237750	0.000077
C26	C	1.145600	0.737750	0.500077
C27	C	0.563813	0.230720	0.000089
C28	C	1.063813	0.730720	0.500089
C29	C	0.532268	0.151555	0.000095
C30	C	1.032268	0.651555	0.500095
C31	C	0.582515	0.079414	0.000098
C32	C	1.082515	0.579414	0.500098
C33	C	0.664300	0.086445	0.000092
C34	C	1.164300	0.586445	0.500092
C35	C	0.288669	0.122418	0.000118
C36	C	0.788669	0.622418	0.500118
C37	C	0.206878	0.115393	0.000122
C38	C	0.706878	0.615393	0.500122
C39	C	0.188181	0.266700	0.000114
C40	C	0.688181	0.766700	0.500114
C41	C	0.269969	0.273723	0.000103
C42	C	0.769969	0.773723	0.500103
C43	C	0.320208	0.201582	0.000111
C44	C	0.820208	0.701582	0.500111
N45	N	0.448669	0.144368	0.000104
N46	N	0.948669	0.644368	0.500104
N47	N	0.403806	0.208770	0.000107
N48	N	0.903806	0.708770	0.500107
C49	C	0.931963	0.023872	0.000103
C50	C	1.431963	0.523872	0.500103
C51	C	0.930416	-0.069182	0.000098
C52	C	1.430416	0.430818	0.500098
C53	C	0.924861	-0.407301	0.000100
C54	C	1.424861	0.092699	0.500100
C55	C	0.839142	-0.365620	-0.000233
C56	C	1.339142	0.134380	0.499767
C57	C	0.840674	-0.268811	0.000092
C58	C	1.340674	0.231189	0.500092
C59	C	0.927617	-0.239556	0.000098
C60	C	1.427617	0.260444	0.500098
C61	C	0.965973	-0.273887	0.082482
C62	C	1.465973	0.226113	0.582482
C63	C	0.963816	-0.370663	0.082550
C64	C	1.463816	0.129337	0.582550
C65	C	0.973415	-0.378704	-0.081501
C66	C	1.473415	0.121296	0.418499
C67	C	0.973447	-0.281812	-0.082590
C68	C	1.473447	0.218188	0.417410
C69	C	0.929178	-0.144754	0.000100
C70	C	1.429178	0.355246	0.500100
C71	C	0.923301	-0.502103	0.000104
C72	C	1.423301	-0.002103	0.500104
C73	C	1.069593	0.180052	0.000117
C74	C	1.569593	0.680052	0.500117
C75	C	1.156637	0.187528	0.000121
C76	C	1.656637	0.687528	0.500121
C77	C	0.920514	0.329271	0.000101
C78	C	1.420514	0.829271	0.500101
C79	C	0.922061	0.422324	0.000101
C80	C	1.422061	0.922324	0.500101
N81	N	0.916448	0.186334	0.205401
N82	N	1.416448	0.686334	0.705401
N83	N	0.936036	0.166802	-0.205195
N84	N	1.436036	0.666802	0.294805
C85	C	0.967608	0.135164	0.250801
C86	C	1.467608	0.635164	0.750801
C87	C	0.963289	0.139488	0.341608
C88	C	1.463289	0.639488	0.841608
C89	C	0.907813	0.194986	0.387014
C90	C	1.407813	0.694986	0.887014
C91	C	0.856647	0.246157	0.341607
C92	C	1.356647	0.746157	0.841607
C93	C	0.860963	0.241829	0.250801
C94	C	1.360963	0.741829	0.750801
C95	C	0.889185	0.213646	0.658593
C96	C	1.389185	0.713646	1.158593
C97	C	0.884875	0.217972	0.749405
C98	C	1.384875	0.717972	1.249405
C99	C	0.991517	0.111301	0.749400
C100	C	1.491517	0.611301	1.249400
C101	C	0.995831	0.106981	0.658592
C102	C	1.495831	0.606981	1.158592
C103	C	0.944662	0.158150	0.613194
C104	C	1.444662	0.658150	1.113194
N105	N	0.903399	0.199408	0.479833
N106	N	1.403399	0.699408	0.979833
N107	N	0.949073	0.153722	0.520376
N108	N	1.449073	0.653722	1.020376
H109	H	0.295647	0.338187	0.000088
H110	H	0.795647	0.838187	0.500088
H111	H	0.802224	-0.384703	0.058509
H112	H	1.302224	0.115297	0.558509
C113	C	1.084506	-0.280387	0.160766
C114	C	1.584506	0.219613	0.660766
C115	C	1.052004	-0.248854	0.086633
C116	C	1.552004	0.251146	0.586633
H117	H	1.137619	-0.264935	0.163323
H118	H	1.637619	0.235065	0.663323
H119	H	1.054830	-0.257871	0.210954
H120	H	1.554830	0.242129	0.710954
H121	H	1.083122	-0.339743	0.158287
H122	H	1.583122	0.160257	0.658287
H123	H	1.053382	-0.189497	0.089115
H124	H	1.553382	0.310503	0.589115
H125	H	1.081688	-0.271366	0.036432
H126	H	1.581688	0.228634	0.536432
C127	C	0.792828	-0.142912	0.080631
C128	C	1.292828	0.357088	0.580631
C129	C	0.791694	-0.230411	0.079943
C130	C	1.291694	0.269589	0.579943
H131	H	0.762584	-0.119208	0.129928
H132	H	1.262584	0.380792	0.629928
H133	H	0.845700	-0.126686	0.083053
H134	H	1.345700	0.373314	0.583053
H135	H	0.770954	-0.123502	0.029382
H136	H	1.270954	0.376498	0.529382
H137	H	0.813573	-0.249821	0.131189
H138	H	1.313573	0.250179	0.631189
H139	H	0.738811	-0.246644	0.077529
H140	H	1.238811	0.253356	0.577529
C141	C	1.036228	-0.029209	0.777363
C142	C	1.536228	0.470791	1.277363
C143	C	1.047749	0.055049	0.799305
C144	C	1.547749	0.555049	1.299305
H145	H	1.070946	-0.063939	0.808169
H146	H	1.570946	0.436061	1.308169
H147	H	0.983197	-0.041115	0.792255
H148	H	1.483197	0.458885	1.292255
H149	H	1.046740	-0.039717	0.716783
H150	H	1.546740	0.460283	1.216783
H151	H	1.037231	0.065558	0.859884
H152	H	1.537231	0.565558	1.359884
H153	H	1.100792	0.066959	0.784419
H154	H	1.600792	0.566959	1.284419
H155	H	0.522910	0.289461	0.000087
H156	H	1.022910	0.789461	0.500087
H157	H	0.329565	0.063675	0.000125
H158	H	0.829565	0.563675	0.500125
C159	C	0.504923	-0.019797	-0.074057
C160	C	1.004923	0.480203	0.425943
C161	C	0.547843	-0.007607	0.000102
C162	C	1.047843	0.492393	0.500102
H163	H	0.483524	-0.073524	-0.074057
H164	H	0.983524	0.426476	0.425943
H165	H	0.463299	0.022153	-0.074050
H166	H	0.963299	0.522153	0.425950
H167	H	0.538842	-0.016301	-0.124359
H168	H	1.038842	0.483699	0.375641
H169	H	0.513922	-0.011097	0.050404
H170	H	1.013922	0.488903	0.550404
H171	H	0.589473	-0.049569	0.000103
H172	H	1.089473	0.450431	0.500103
C173	C	0.233569	-0.033469	0.000138
C174	C	0.733569	0.466531	0.500138
C175	C	0.172202	0.028367	0.000130
C176	C	0.672202	0.528367	0.500130
H177	H	0.212159	-0.087190	0.000145
H178	H	0.712159	0.412810	0.500145
H179	H	0.267475	-0.029977	-0.050166
H180	H	0.767475	0.470023	0.449834
H181	H	0.262683	-0.025182	0.050449
H182	H	0.762683	0.474818	0.550449
H183	H	0.143091	0.020084	-0.050185
H184	H	0.643091	0.520084	0.449815
H185	H	0.138283	0.024873	0.050439
H186	H	0.638283	0.524873	0.550439
C187	C	0.893089	-0.321177	0.214939
C188	C	1.393089	0.178823	0.714939
C189	C	0.918212	-0.394208	0.165671
C190	C	1.418212	0.105792	0.665671
H191	H	0.864929	-0.335712	0.266252
H192	H	1.364929	0.164288	0.766252
H193	H	0.937656	-0.291174	0.229991
H194	H	1.437656	0.208826	0.729991
H195	H	0.859630	-0.287124	0.181991
H196	H	1.359630	0.212876	0.681991
H197	H	0.951676	-0.428259	0.198618
H198	H	1.451676	0.071741	0.698618
H199	H	0.873639	-0.424225	0.150621
H200	H	1.373639	0.075775	0.650621
H201	H	0.933677	-0.244555	0.143784
H202	H	1.433677	0.255445	0.643784
C203	C	0.674572	-0.063821	0.000084
C204	C	1.174572	0.436179	0.500084
C205	C	0.719528	0.007151	0.000084
C206	C	1.219528	0.507151	0.500084
H207	H	0.708669	-0.112774	0.000076
H208	H	1.208669	0.387226	0.500076
H209	H	0.639893	-0.061025	0.050391
H210	H	1.139893	0.438975	0.550391
H211	H	0.644674	-0.065802	-0.050224
H212	H	1.144674	0.434198	0.449776
H213	H	0.749422	0.009135	0.050395
H214	H	1.249422	0.509135	0.550395
H215	H	0.754221	0.004354	-0.050228
H216	H	1.254221	0.504354	0.449772
H217	H	1.026582	-0.398522	0.086293
H218	H	1.526582	0.101478	0.586293
H219	H	0.810251	-0.245421	-0.058964
H220	H	1.310251	0.254579	0.441036
C221	C	0.054508	0.323110	0.000128
C222	C	0.554508	0.823110	0.500128
C223	C	0.132956	0.345993	0.000118
C224	C	0.632956	0.845993	0.500118
H225	H	0.020416	0.372067	0.000138
H226	H	0.520416	0.872067	0.500138
H227	H	0.047341	0.288491	-0.050176
H228	H	0.547341	0.788491	0.449824
H229	H	0.042562	0.293265	0.050439
H230	H	0.542562	0.793265	0.550439
H231	H	0.144904	0.375833	-0.050197
H232	H	0.644904	0.875833	0.449803
H233	H	0.140126	0.380627	0.050427
H234	H	0.640126	0.880627	0.550427
C235	C	0.874656	-0.460247	-0.145508
C236	C	1.374656	0.039753	0.354492
C237	C	0.939596	-0.412964	-0.165798
C238	C	1.439596	0.087036	0.334202
H239	H	0.853770	-0.481392	-0.197547
H240	H	1.353770	0.018608	0.302453
H241	H	0.890856	-0.505645	-0.111883
H242	H	1.390856	-0.005645	0.388117
H243	H	0.835296	-0.425766	-0.113345
H244	H	1.335296	0.074234	0.386655
H245	H	0.978959	-0.447447	-0.197956
H246	H	1.478959	0.052553	0.302044
H247	H	0.923398	-0.367560	-0.199437
H248	H	1.423398	0.132440	0.300563
C249	C	1.107071	0.090590	0.555955
C250	C	1.607071	0.590590	1.055955
C251	C	1.056445	0.045734	0.608453
C252	C	1.556445	0.545734	1.108453
H253	H	1.144388	0.052707	0.524937
H254	H	1.644388	0.552707	1.024937
H255	H	1.077189	0.120654	0.516112
H256	H	1.577189	0.620654	1.016112
H257	H	1.133981	0.128821	0.591218
H258	H	1.633981	0.628821	1.091218
H259	H	1.029530	0.007507	0.573189
H260	H	1.529530	0.507507	1.073189
H261	H	1.086331	0.015655	0.648301
H262	H	1.586331	0.515655	1.148301
C263	C	0.938915	-0.164480	-0.167092
C264	C	1.438915	0.335520	0.332908
C265	C	0.935697	-0.251658	-0.164869
C266	C	1.435697	0.248342	0.335131
H267	H	0.915612	-0.145862	-0.217890
H268	H	1.415612	0.354138	0.282110
H269	H	0.910936	-0.138717	-0.117298
H270	H	1.410936	0.361283	0.382702
H271	H	0.992383	-0.149741	-0.167612
H272	H	1.492383	0.350259	0.332388
H273	H	0.882228	-0.266397	-0.164344
H274	H	1.382228	0.233603	0.335656
H275	H	0.963674	-0.277430	-0.214677
H276	H	1.463674	0.222570	0.285323
H277	H	0.807694	-0.389254	-0.059312
H278	H	1.307694	0.110746	0.440688
H279	H	1.012786	0.089976	0.213838
H280	H	1.512786	0.589976	0.713838
H281	H	1.004948	0.097821	0.378573
H282	H	1.504948	0.597821	0.878573
H283	H	0.819302	0.283495	0.213837
H284	H	1.319302	0.783495	0.713837
H285	H	0.839698	0.263168	0.786370
H286	H	1.339698	0.763168	1.286370
H287	H	0.847523	0.255311	0.621636
H288	H	1.347523	0.755311	1.121636
C289	C	1.098014	-0.294575	-0.163805
C290	C	1.598014	0.205425	0.336195
C291	C	1.059344	-0.255622	-0.089341
C292	C	1.559344	0.244378	0.410659
H293	H	1.151039	-0.278387	-0.167979
H294	H	1.651039	0.221613	0.332021
H295	H	1.097483	-0.353676	-0.160335
H296	H	1.597483	0.146324	0.339665
H297	H	1.071752	-0.278067	-0.213604
H298	H	1.571752	0.221933	0.286396
H299	H	1.085602	-0.272134	-0.039541
H300	H	1.585602	0.227866	0.460459
H301	H	1.059880	-0.196508	-0.092804
H302	H	1.559880	0.303492	0.407196
H303	H	1.036653	-0.406261	-0.082051
H304	H	1.536653	0.093739	0.417949
C305	C	0.802687	0.300163	0.480806
C306	C	1.302687	0.800163	0.980806
C307	C	0.795668	0.307164	0.391515
C308	C	1.295668	0.807164	0.891515
H309	H	0.765044	0.337833	0.511614
H310	H	1.265044	0.837833	1.011614
H311	H	0.793464	0.244423	0.495694
H312	H	1.293464	0.744423	0.995694
H313	H	0.854311	0.313501	0.495668
H314	H	1.354311	0.813501	0.995668
H315	H	0.744046	0.293821	0.376652
H316	H	1.244046	0.793821	0.876652
H317	H	0.804885	0.362917	0.376621
H318	H	1.304885	0.862917	0.876621
H319	H	0.671277	0.302214	0.000071
H320	H	1.171277	0.802214	0.500071
