data_functionalizedCrystal
_audit_creation_method	'MofGen! by Chris Wilmer'
_symmetry_space_group_name_H-M	'P1'
_symmetry_Int_Tables_number	1
_symmetry_cell_setting	triclinic
loop_
_symmetry_equiv_pos_as_xyz
  x,y,z
_cell_length_a	18.101398
_cell_length_b	13.897448
_cell_length_c	13.897441
_cell_angle_alpha	89.969401
_cell_angle_beta	90.027689
_cell_angle_gamma	89.984577
loop_
_atom_site_label
_atom_site_type_symbol
_atom_site_fract_x
_atom_site_fract_y
_atom_site_fract_z
Zn1	Zn	1.132211	0.384042	0.545560
Zn2	Zn	1.132130	0.545364	0.384262
Zn3	Zn	1.008364	0.384078	0.384259
Zn4	Zn	1.008350	0.545291	0.545495
O5	O	1.070264	0.464694	0.464894
O6	O	1.235833	0.405458	0.524192
O7	O	1.115684	0.524015	0.249279
O8	O	1.024832	0.249092	0.405682
O9	O	1.235773	0.523980	0.405687
O10	O	1.115823	0.249066	0.524190
O11	O	1.024754	0.405519	0.249278
O12	O	0.904729	0.405448	0.405619
O13	O	1.024809	0.523855	0.680485
O14	O	0.904719	0.523890	0.524078
O15	O	1.115809	0.405387	0.680533
O16	O	1.115670	0.680336	0.405623
O17	O	1.024730	0.680282	0.524080
C18	C	0.877853	0.464666	0.464841
C19	C	0.795539	0.464677	0.464842
C20	C	1.070210	0.715308	0.464866
C21	C	1.070254	0.822522	0.464886
C22	C	1.070316	0.464609	0.716487
C23	C	1.070339	0.464572	0.823701
C24	C	0.644831	0.464696	0.464885
C25	C	0.613459	0.390069	0.390478
C26	C	0.527840	0.389788	0.390722
C27	C	0.496448	0.464716	0.464926
C28	C	0.527587	0.437574	0.566697
C29	C	0.613232	0.437022	0.566242
C30	C	0.613244	0.566658	0.438420
C31	C	0.527593	0.566121	0.436202
C32	C	0.412589	0.464728	0.464956
C33	C	0.728690	0.464681	0.464863
C34	C	1.263426	0.464723	0.464947
C35	C	1.345740	0.464736	0.464970
C36	C	1.070338	0.213101	0.464943
C37	C	1.070370	0.105887	0.464964
C38	C	1.070332	1.018817	0.464947
C39	C	1.070287	0.909585	0.464916
C40	C	1.070254	0.464709	0.214279
C41	C	1.070375	0.464474	0.107066
C42	C	1.070359	0.464507	1.019996
C43	C	1.070345	0.464546	0.910764
H44	H	0.506783	0.406723	0.315274
H45	H	0.634000	0.406810	0.314778
Cl46	Cl	0.494499	0.323796	0.601848
H47	H	0.506217	0.624672	0.486409
H48	H	0.507258	0.490273	0.623671
Cl49	Cl	0.496164	0.597737	0.320566
Cl50	Cl	0.646703	0.274080	0.417255
Cl51	Cl	0.644589	0.652502	0.522066
H52	H	0.634807	0.591442	0.365448
H53	H	0.507365	0.314241	0.408293
H54	H	0.633990	0.489036	0.623601
Cl55	Cl	0.644102	0.321971	0.600780
