data_functionalizedCrystal
_audit_creation_method	'MofGen! by Chris Wilmer'
_symmetry_space_group_name_H-M	'P1'
_symmetry_Int_Tables_number	1
_symmetry_cell_setting	triclinic
loop_
_symmetry_equiv_pos_as_xyz
  x,y,z
_cell_length_a	10.654549
_cell_length_b	16.776229
_cell_length_c	10.654550
_cell_angle_alpha	89.993527
_cell_angle_beta	95.515146
_cell_angle_gamma	90.006104
loop_
_atom_site_label
_atom_site_type_symbol
_atom_site_fract_x
_atom_site_fract_y
_atom_site_fract_z
O1	O	1.667846	0.066270	-0.176400
O2	O	2.167846	0.566270	0.323600
O3	O	1.302367	0.066275	-0.193206
O4	O	1.802367	0.566275	0.306794
O5	O	1.493510	0.066267	-0.002064
O6	O	1.993510	0.566267	0.497936
O7	O	1.476704	0.066278	-0.367542
O8	O	1.976704	0.566278	0.132458
O9	O	1.493484	-0.066309	-0.002052
O10	O	1.993484	0.433691	0.497948
O11	O	1.302342	-0.066301	-0.193194
O12	O	1.802342	0.433699	0.306806
O13	O	1.667820	-0.066307	-0.176388
O14	O	2.167820	0.433693	0.323612
Zn15	Zn	1.485077	-0.087353	-0.184789
Zn16	Zn	1.985077	0.412647	0.315211
Zn17	Zn	1.485111	0.087322	-0.184805
Zn18	Zn	1.985111	0.587322	0.315195
O19	O	1.476678	-0.066299	-0.367530
O20	O	1.976678	0.433701	0.132470
C21	C	1.255557	-0.000012	-0.191966
C22	C	1.755557	0.499988	0.308034
C23	C	1.116113	-0.000010	-0.188275
C24	C	1.616113	0.499990	0.311725
N25	N	1.485063	-0.206565	-0.184777
N26	N	1.985063	0.293435	0.315223
C27	C	0.905599	-0.000010	-0.297338
C28	C	1.405599	0.499990	0.202662
C29	C	1.036619	-0.000006	-0.300816
C30	C	1.536619	0.499994	0.199184
C31	C	1.064581	-0.000012	-0.072247
C32	C	1.564581	0.499988	0.427753
C33	C	0.933563	-0.000011	-0.068770
C34	C	1.433563	0.499989	0.431230
C35	C	1.569727	-0.248285	-0.100175
C36	C	2.069727	0.251715	0.399825
C37	C	1.569734	-0.331737	-0.100174
C38	C	2.069734	0.168263	0.399826
C39	C	1.485082	-0.373468	-0.184783
C40	C	1.985082	0.126532	0.315217
C41	C	1.400409	-0.331741	-0.269389
C42	C	1.900409	0.168259	0.230611
C43	C	1.400397	-0.248290	-0.269383
C44	C	1.900397	0.251710	0.230617
C45	C	1.400454	-0.668288	-0.269414
C46	C	1.900454	-0.168288	0.230586
C47	C	1.400476	-0.751745	-0.269416
C48	C	1.900476	-0.251745	0.230584
C49	C	1.569792	-0.751735	-0.100205
C50	C	2.069792	-0.251735	0.399795
C51	C	1.569780	-0.668285	-0.100199
C52	C	2.069780	-0.168285	0.399801
C53	C	1.485103	-0.626566	-0.184801
C54	C	1.985103	-0.126566	0.315199
C55	C	1.485094	-0.536077	-0.184799
C56	C	1.985094	-0.036077	0.315201
C57	C	1.485095	-0.463954	-0.184791
C58	C	1.985095	0.036046	0.315209
C59	C	1.714631	-0.000018	-0.177628
C60	C	2.214631	0.499982	0.322372
C61	C	1.854074	-0.000014	-0.181319
C62	C	2.354074	0.499986	0.318681
C63	C	1.492263	-0.000021	0.044740
C64	C	1.992263	0.499979	0.544740
C65	C	1.488571	-0.000019	0.184183
C66	C	1.988571	0.499981	0.684183
N67	N	1.485135	0.206533	-0.184807
N68	N	1.985135	0.706533	0.315193
C69	C	1.477925	-0.000009	-0.414334
C70	C	1.977925	0.499991	0.085666
C71	C	1.481617	-0.000005	-0.553777
C72	C	1.981617	0.499995	-0.053777
C73	C	1.601113	-0.000021	0.263669
C74	C	2.101113	0.499979	0.763669
C75	C	1.597636	-0.000011	0.394690
C76	C	2.097636	0.499989	0.894690
C77	C	1.369067	-0.000002	0.366727
C78	C	1.869067	0.499998	0.866727
C79	C	1.372544	-0.000006	0.235708
C80	C	1.872544	0.499994	0.735708
H81	H	0.840882	-0.000013	-0.388983
H82	H	1.340882	0.499987	0.111017
H83	H	1.331537	-0.785720	-0.338317
H84	H	1.831537	-0.285720	0.161683
H85	H	1.280894	-0.000002	0.170987
H86	H	1.780894	0.499998	0.670987
Br87	Br	1.172465	-0.000014	0.080491
Br88	Br	1.672465	0.499986	0.580491
H89	H	1.331510	-0.634327	-0.338302
H90	H	1.831510	-0.134327	0.161698
Br91	Br	0.863630	-0.000002	0.088696
Br92	Br	1.363630	0.499998	0.588696
H93	H	1.638673	-0.365706	-0.031283
H94	H	2.138673	0.134294	0.468717
H95	H	1.078563	-0.000002	-0.395290
H96	H	1.578563	0.499998	0.104710
Br97	Br	1.684712	-0.808358	0.014616
Br98	Br	2.184712	-0.308358	0.514616
Br99	Br	1.684628	-0.191660	0.014649
Br100	Br	2.184628	0.308340	0.514649
H101	H	1.638715	-0.634311	-0.031307
H102	H	2.138715	-0.134311	0.468693
Br103	Br	1.285511	-0.388372	-0.384209
Br104	Br	1.785511	0.111628	0.115791
H105	H	1.331453	-0.214322	-0.338274
H106	H	1.831453	0.285678	0.161726
H107	H	1.695589	-0.000030	0.221722
H108	H	2.195589	0.499970	0.721722
Br109	Br	1.750378	-0.000008	0.502560
Br110	Br	2.250378	0.499992	1.002560
H111	H	1.274601	0.000008	0.408694
H112	H	1.774601	0.500008	0.908694
