data_functionalizedCrystal
_audit_creation_method	'MofGen! by Chris Wilmer'
_symmetry_space_group_name_H-M	'P1'
_symmetry_Int_Tables_number	1
_symmetry_cell_setting	triclinic
loop_
_symmetry_equiv_pos_as_xyz
  x,y,z
_cell_length_a	21.395362
_cell_length_b	16.120484
_cell_length_c	21.395355
_cell_angle_alpha	87.119279
_cell_angle_beta	90.043940
_cell_angle_gamma	92.942400
loop_
_atom_site_label
_atom_site_type_symbol
_atom_site_fract_x
_atom_site_fract_y
_atom_site_fract_z
Zn1	Zn	0.945244	-0.331659	0.367215
Zn2	Zn	1.445244	0.168341	0.867215
Zn3	Zn	0.939845	-0.471058	0.267746
Zn4	Zn	1.439845	0.028942	0.767746
Zn5	Zn	0.840458	-0.331698	0.262418
Zn6	Zn	1.340458	0.168302	0.762418
Zn7	Zn	0.835126	-0.471075	0.372451
Zn8	Zn	1.335126	0.028925	0.872451
O9	O	0.890168	-0.401372	0.317458
O10	O	1.390168	0.098628	0.817458
O11	O	1.032207	-0.350127	0.354059
O12	O	1.532207	0.149873	0.854059
O13	O	0.926633	-0.452580	0.179362
O14	O	1.426633	0.047420	0.679362
O15	O	0.858849	-0.215024	0.271898
O16	O	1.358849	0.284976	0.771898
O17	O	1.028240	-0.452543	0.280979
O18	O	1.528240	0.047457	0.780979
O19	O	0.935836	-0.214995	0.348892
O20	O	1.435836	0.285005	0.848892
O21	O	0.853614	-0.350193	0.175447
O22	O	1.353614	0.149807	0.675447
O23	O	0.752072	-0.350210	0.276976
O24	O	1.252072	0.149790	0.776976
O25	O	0.849761	-0.452572	0.459434
O26	O	1.349761	0.047428	0.959434
O27	O	0.748154	-0.452609	0.357817
O28	O	1.248154	0.047391	0.857817
O29	O	0.930665	-0.350144	0.455587
O30	O	1.430665	0.149856	0.955587
O31	O	0.921462	-0.587728	0.286057
O32	O	1.421462	-0.087728	0.786057
O33	O	0.844526	-0.587741	0.362983
O34	O	1.344526	-0.087741	0.862983
C35	C	0.727379	-0.401416	0.317387
C36	C	1.227379	0.098584	0.817387
C37	C	0.657736	-0.401455	0.317372
C38	C	1.157736	0.098545	0.817372
C39	C	0.622997	-0.454845	0.359409
C40	C	1.122997	0.045155	0.859409
C41	C	0.557562	-0.454825	0.359436
C42	C	1.057562	0.045175	0.859436
C43	C	0.526869	-0.401423	0.317415
C44	C	1.026869	0.098577	0.817415
C45	C	0.561617	-0.348022	0.275375
C46	C	1.061617	0.151978	0.775375
C47	C	0.627050	-0.348039	0.275354
C48	C	1.127050	0.151961	0.775354
C49	C	0.423400	-0.394707	0.260754
C50	C	0.923400	0.105293	0.760754
C51	C	0.357967	-0.394696	0.260775
C52	C	0.857967	0.105304	0.760775
C53	C	0.325050	-0.401369	0.317482
C54	C	0.825050	0.098631	0.817482
C55	C	0.357574	-0.408069	0.374171
C56	C	0.857574	0.091931	0.874171
C57	C	0.423007	-0.408085	0.374149
C58	C	0.923007	0.091915	0.874149
C59	C	0.455918	-0.401399	0.317434
C60	C	0.955918	0.098601	0.817434
C61	C	0.219359	-0.454740	0.359552
C62	C	0.719359	0.045260	0.859552
C63	C	0.153924	-0.454713	0.359580
C64	C	0.653924	0.045287	0.859580
C65	C	0.157979	-0.347915	0.275514
C66	C	0.657979	0.152085	0.775514
C67	C	0.223414	-0.347937	0.275492
C68	C	0.723414	0.152063	0.775492
C69	C	0.254100	-0.401354	0.317510
C70	C	0.754100	0.098646	0.817510
C71	C	0.881846	-0.617986	0.325680
C72	C	1.381846	-0.117986	0.825680
C73	C	0.878344	-0.710654	0.329218
C74	C	1.378344	-0.210654	0.829218
C75	C	0.871952	-0.880320	0.335692
C76	C	1.371952	-0.380320	0.835692
C77	C	0.908497	-0.921584	0.299234
C78	C	1.408497	-0.421584	0.799234
C79	C	0.904940	-1.015992	0.302836
C80	C	1.404940	-0.515992	0.802836
C81	C	0.875507	-0.785903	0.332091
C82	C	1.375507	-0.285903	0.832091
C83	C	1.053593	-0.401328	0.317529
C84	C	1.553593	0.098672	0.817529
C85	C	1.123235	-0.401310	0.317560
C86	C	1.623235	0.098690	0.817560
C87	C	0.890221	-0.401355	0.480880
C88	C	1.390221	0.098645	0.980880
C89	C	0.890243	-0.401348	0.550521
C90	C	1.390243	0.098652	1.050521
C91	C	0.898540	-0.183913	0.309217
C92	C	1.398540	0.316087	0.809217
C93	C	0.902107	-0.091245	0.305705
C94	C	1.402107	0.408755	0.805705
C95	C	0.890154	-0.401329	0.154668
C96	C	1.390154	0.098671	0.654668
C97	C	0.890262	-0.401101	0.085019
C98	C	1.390262	0.098899	0.585019
C99	C	0.932368	-0.348011	0.581232
C100	C	1.432368	0.151989	1.081232
C101	C	0.932369	-0.347976	0.646666
C102	C	1.432369	0.152024	1.146666
C103	C	0.890250	-0.401291	0.681388
C104	C	1.390250	0.098709	1.181388
C105	C	0.848117	-0.454632	0.650669
C106	C	1.348117	0.045368	1.150669
C107	C	0.848114	-0.454660	0.585236
C108	C	1.348114	0.045340	1.085236
C109	C	0.882419	-0.476362	0.787910
C110	C	1.382419	0.023638	1.287910
C111	C	0.882427	-0.476335	0.853342
C112	C	1.382427	0.023665	1.353342
C113	C	0.890258	-0.401203	0.883205
C114	C	1.390258	0.098797	1.383205
C115	C	0.898094	-0.326096	0.847628
C116	C	1.398094	0.173904	1.347628
C117	C	0.898090	-0.326124	0.782195
C118	C	1.398090	0.173876	1.282195
C119	C	0.890249	-0.401266	0.752339
C120	C	1.390249	0.098734	1.252339
C121	C	0.932385	-0.347823	0.984867
C122	C	1.432385	0.152177	1.484867
C123	C	0.932382	-0.347786	1.050302
C124	C	1.432382	0.152214	1.550302
C125	C	0.848133	-0.454449	1.054304
C126	C	1.348133	0.045551	1.554304
C127	C	0.848134	-0.454479	0.988870
C128	C	1.348134	0.045521	1.488870
C129	C	0.890263	-0.401167	0.954155
C130	C	1.390263	0.098833	1.454155
H131	H	0.251699	-0.304465	0.241258
H132	H	0.751699	0.195535	0.741258
H133	H	0.966673	-0.304600	0.552972
H134	H	1.466673	0.195400	1.052972
C135	C	0.115710	-0.513457	0.405814
C136	C	0.615710	-0.013457	0.905814
H137	H	0.143359	-0.545279	0.430827
H138	H	0.643359	-0.045279	0.930827
H139	H	0.091445	-0.481627	0.431960
H140	H	0.591445	0.018373	0.931960
H141	H	0.088755	-0.549725	0.383173
H142	H	0.588755	-0.049725	0.883173
H143	H	0.536622	-0.304541	0.241163
H144	H	1.036622	0.195459	0.741163
H145	H	0.875875	-0.537528	0.763601
H146	H	1.375875	-0.037528	1.263601
C147	C	0.665268	-0.289311	0.229111
C148	C	1.165268	0.210689	0.729111
H149	H	0.708633	-0.296967	0.235118
H150	H	1.208633	0.203033	0.735118
H151	H	0.654027	-0.301423	0.187461
H152	H	1.154027	0.198577	0.687461
H153	H	0.656729	-0.233306	0.236234
H154	H	1.156729	0.266694	0.736234
H155	H	0.837996	-0.915892	0.369606
H156	H	1.337996	-0.415892	0.869606
H157	H	0.813835	-0.497917	0.963865
H158	H	1.313835	0.002083	1.463865
C159	C	0.801788	-0.513279	0.688857
C160	C	1.301788	-0.013279	1.188857
H161	H	0.776695	-0.545046	0.661192
H162	H	1.276695	-0.045046	1.161192
H163	H	0.824357	-0.549589	0.715782
H164	H	1.324357	-0.049589	1.215782
H165	H	0.775716	-0.481377	0.713147
H166	H	1.275716	0.018623	1.213147
H167	H	0.813808	-0.498092	0.560232
H168	H	1.313808	0.001908	1.060232
C169	C	0.978713	-0.289310	0.680456
C170	C	1.478713	0.210690	1.180456
H171	H	1.003805	-0.257568	0.650410
H172	H	1.503805	0.242432	1.150410
H173	H	0.956150	-0.252977	0.704585
H174	H	1.456150	0.247023	1.204585
H175	H	1.004784	-0.321199	0.707213
H176	H	1.504784	0.178801	1.207213
C177	C	0.906701	-0.243516	0.743060
C178	C	1.406701	0.256484	1.243060
H179	H	0.905581	-0.254297	0.699814
H180	H	1.405581	0.245703	1.199814
H181	H	0.873968	-0.208451	0.752422
H182	H	1.373968	0.291549	1.252422
H183	H	0.945876	-0.216841	0.752792
H184	H	1.445876	0.283159	1.252792
H185	H	0.132990	-0.304430	0.241303
H186	H	0.632990	0.195570	0.741303
C187	C	0.906707	-0.243444	0.880465
C188	C	1.406707	0.256556	1.380465
H189	H	0.911378	-0.198721	0.849906
H190	H	1.411378	0.301279	1.349906
H191	H	0.871082	-0.236111	0.905684
H192	H	1.371082	0.263889	1.405684
H193	H	0.942989	-0.244507	0.906059
H194	H	1.442989	0.255493	1.406059
C195	C	0.978727	-0.289124	1.084088
C196	C	1.478727	0.210876	1.584088
H197	H	0.972694	-0.296737	1.128029
H198	H	1.472694	0.203263	1.628029
H199	H	1.020351	-0.301333	1.073858
H200	H	1.520351	0.198667	1.573858
H201	H	0.971721	-0.233106	1.071226
H202	H	1.471721	0.266894	1.571226
C203	C	0.978719	-0.289179	0.946676
C204	C	1.478719	0.210821	1.446676
H205	H	0.972690	-0.296843	0.903307
H206	H	1.472690	0.203157	1.403307
H207	H	0.971707	-0.233159	0.955256
H208	H	1.471707	0.266841	1.455256
H209	H	1.020349	-0.301370	0.957897
H210	H	1.520349	0.198630	1.457897
C211	C	0.458783	-0.415451	0.436499
C212	C	0.958783	0.084549	0.936499
H213	H	0.502466	-0.414511	0.428362
H214	H	1.002466	0.085489	0.928362
H215	H	0.449849	-0.370149	0.461197
H216	H	0.949849	0.129851	0.961197
H217	H	0.446113	-0.466250	0.458401
H218	H	0.946113	0.033750	0.958401
C219	C	0.954353	-0.873531	0.253396
C220	C	1.454353	-0.373531	0.753396
H221	H	0.950747	-0.815463	0.256947
H222	H	1.450747	-0.315463	0.756947
H223	H	0.995930	-0.887667	0.263129
H224	H	1.495930	-0.387667	0.763129
H225	H	0.944655	-0.887808	0.211825
H226	H	1.444655	-0.387808	0.711825
C227	C	0.322198	-0.387325	0.198422
C228	C	0.822198	0.112675	0.698422
H229	H	0.351172	-0.383338	0.164646
H230	H	0.851172	0.116662	0.664646
H231	H	0.294813	-0.435088	0.194671
H232	H	0.794813	0.064912	0.694671
H233	H	0.298548	-0.338988	0.197475
H234	H	0.798548	0.161012	0.697475
H235	H	0.813834	-0.497852	1.082573
H236	H	1.313834	0.002148	1.582573
C237	C	0.873805	-0.558948	0.892471
C238	C	1.373805	-0.058948	1.392471
H239	H	0.869129	-0.603696	0.865315
H240	H	1.369129	-0.103696	1.365315
H241	H	0.909431	-0.566264	0.918302
H242	H	1.409431	-0.066264	1.418302
H243	H	0.837525	-0.557855	0.917927
H244	H	1.337525	-0.057855	1.417927
H245	H	0.529272	-0.498301	0.393669
H246	H	1.029272	0.001699	0.893669
C247	C	0.656748	-0.513592	0.405633
C248	C	1.156748	-0.013592	0.905633
H249	H	0.626684	-0.545381	0.430677
H250	H	1.126684	-0.045381	0.930677
H251	H	0.680843	-0.549877	0.382993
H252	H	1.180843	-0.049877	0.882993
H253	H	0.683536	-0.481752	0.431758
H254	H	1.183536	0.018248	0.931758
H255	H	0.330774	-0.413500	0.420348
H256	H	0.830774	0.086500	0.920348
H257	H	0.244345	-0.498230	0.393769
H258	H	0.744345	0.001770	0.893769
H259	H	0.450195	-0.389270	0.214573
H260	H	0.950195	0.110730	0.714573
