data_functionalizedCrystal
_audit_creation_method	'MofGen! by Chris Wilmer'
_symmetry_space_group_name_H-M	'P1'
_symmetry_Int_Tables_number	1
_symmetry_cell_setting	triclinic
loop_
_symmetry_equiv_pos_as_xyz
  x,y,z
_cell_length_a	21.395364
_cell_length_b	29.839131
_cell_length_c	21.395355
_cell_angle_alpha	89.972174
_cell_angle_beta	89.975273
_cell_angle_gamma	90.033561
loop_
_atom_site_label
_atom_site_type_symbol
_atom_site_fract_x
_atom_site_fract_y
_atom_site_fract_z
Zn1	Zn	0.957839	-0.178925	-0.354224
Zn2	Zn	0.957734	-0.254041	-0.249429
Zn3	Zn	0.853054	-0.178923	-0.249460
Zn4	Zn	0.853015	-0.254027	-0.354169
O5	O	0.905411	-0.216479	-0.301821
O6	O	1.045503	-0.188896	-0.340332
O7	O	0.943820	-0.244081	-0.161755
O8	O	0.867015	-0.116056	-0.263393
O9	O	1.045425	-0.244083	-0.263340
O10	O	0.944000	-0.116058	-0.340362
O11	O	0.866912	-0.188893	-0.161778
O12	O	0.765371	-0.188879	-0.263340
O13	O	0.866948	-0.244060	-0.441854
O14	O	0.765343	-0.244058	-0.340269
O15	O	0.943962	-0.188883	-0.441894
O16	O	0.943782	-0.316906	-0.263287
O17	O	0.866846	-0.316896	-0.340239
C18	C	0.742623	-0.216467	-0.301802
C19	C	0.672982	-0.216473	-0.301810
C20	C	0.171187	-0.245263	-0.341839
C21	C	0.236622	-0.245263	-0.341832
C22	C	0.269343	-0.216489	-0.301840
C23	C	0.236624	-0.187721	-0.261841
C24	C	0.171189	-0.187724	-0.261844
C25	C	0.373037	-0.176002	-0.296998
C26	C	0.438470	-0.175997	-0.296999
C27	C	0.471164	-0.216477	-0.301827
C28	C	0.438418	-0.256963	-0.306666
C29	C	0.372984	-0.256967	-0.306669
C30	C	0.340296	-0.216482	-0.301832
C31	C	0.574829	-0.245246	-0.341814
C32	C	0.640265	-0.245247	-0.341803
C33	C	0.640265	-0.187700	-0.261814
C34	C	0.574830	-0.187703	-0.261822
C35	C	0.542115	-0.216476	-0.301825
C36	C	0.905315	-0.333202	-0.301768
C37	C	0.905331	-0.383136	-0.301766
C38	C	0.945488	-0.692745	-0.341956
C39	C	0.945556	-0.880418	-0.341993
O40	O	0.979605	-0.904654	-0.376125
N41	N	0.905517	-0.903921	-0.301890
C42	C	0.865455	-0.880503	-0.261778
O43	O	0.831397	-0.904799	-0.227673
C44	C	0.865385	-0.692830	-0.261744
C45	C	0.905431	-0.669330	-0.301845
C46	C	0.985530	-0.669245	-0.382054
C47	C	0.985515	-0.622330	-0.382042
C48	C	0.945458	-0.598914	-0.341931
C49	C	0.905416	-0.622415	-0.301833
C50	C	0.825320	-0.669413	-0.221635
C51	C	0.825305	-0.622492	-0.221631
C52	C	0.865351	-0.598992	-0.261732
C53	C	0.865343	-0.552084	-0.261710
N54	N	0.905382	-0.528581	-0.301813
C55	C	0.945440	-0.551997	-0.341924
C56	C	0.865496	-0.979033	-0.261797
C57	C	0.865514	-1.025951	-0.261805
C58	C	0.945615	-1.025864	-0.342022
C59	C	0.945599	-0.978945	-0.342010
C60	C	0.905535	-0.955531	-0.301901
C61	C	0.945406	-0.453471	-0.341895
C62	C	0.945389	-0.406551	-0.341877
C63	C	0.865287	-0.406643	-0.261663
C64	C	0.865305	-0.453558	-0.261678
C65	C	0.905367	-0.476971	-0.301799
O66	O	0.831307	-0.527819	-0.227601
O67	O	0.979483	-0.527692	-0.376033
C68	C	0.945503	-0.739661	-0.341968
C69	C	0.905461	-0.763161	-0.301869
C70	C	0.865403	-0.739746	-0.261759
C71	C	0.905479	-0.810079	-0.301877
C72	C	0.945536	-0.833494	-0.341988
C73	C	0.985575	-0.809991	-0.382091
C74	C	0.985560	-0.763076	-0.382079
C75	C	0.825364	-0.763249	-0.221655
C76	C	0.825383	-0.810164	-0.221670
C77	C	0.865440	-0.833579	-0.261781
C78	C	1.068834	-0.216491	-0.301839
C79	C	1.138475	-0.216497	-0.301847
C80	C	0.905463	-0.216470	-0.465244
C81	C	0.905485	-0.216466	-0.534885
C82	C	0.905524	-0.099301	-0.301887
C83	C	0.905572	-0.049366	-0.301916
C84	C	0.945584	-0.187734	-0.567620
C85	C	0.945583	-0.187715	-0.633056
C86	C	0.905490	-0.216435	-0.665754
C87	C	0.865383	-0.245169	-0.633011
C88	C	0.865380	-0.245185	-0.567576
C89	C	0.900509	-0.256886	-0.769410
C90	C	0.900516	-0.256872	-0.834843
C91	C	0.905494	-0.216388	-0.867574
C92	C	0.910477	-0.175917	-0.834865
C93	C	0.910475	-0.175933	-0.769431
C94	C	0.905488	-0.216422	-0.736706
C95	C	0.945594	-0.187633	-0.971262
C96	C	0.945589	-0.187613	-1.036699
C97	C	0.865391	-0.245071	-1.036652
C98	C	0.865393	-0.245087	-0.971217
C99	C	0.905498	-0.216369	-0.938526
C100	C	0.905395	-0.216456	-0.139033
C101	C	0.905494	-0.216333	-0.069392
H102	H	0.144555	-0.268693	-0.374410
C103	C	0.821429	-0.953283	-0.217667
H104	H	0.797595	-0.974004	-0.193783
H105	H	0.794106	-0.934986	-0.241598
H106	H	0.845408	-0.934980	-0.190383
C107	C	0.989690	-0.156142	-0.531660
H108	H	0.983949	-0.160266	-0.488001
H109	H	0.980550	-0.125954	-0.542390
H110	H	1.031784	-0.162720	-0.542398
H111	H	0.978236	-0.164316	-0.659714
C112	C	0.272613	-0.276904	-0.385829
H113	H	0.243758	-0.294038	-0.409656
H114	H	0.298117	-0.296453	-0.361813
H115	H	0.298161	-0.259738	-0.413172
C116	C	0.821258	-0.479410	-0.217567
H117	H	0.797397	-0.458743	-0.193679
H118	H	0.845238	-0.497715	-0.190294
H119	H	0.793948	-0.497712	-0.241522
C120	C	0.989478	-0.479218	-0.386021
H121	H	1.013325	-0.458497	-0.409892
H122	H	0.965511	-0.497524	-0.413308
H123	H	1.016799	-0.497513	-0.362077
C124	C	0.821469	-1.051798	-0.217691
H125	H	0.827215	-1.083095	-0.223434
H126	H	0.779365	-1.044128	-0.226823
H127	H	0.830659	-1.044121	-0.175599
H128	H	0.548195	-0.164277	-0.229258
C129	C	0.989700	-0.156042	-0.935296
H130	H	0.983963	-0.160171	-0.891637
H131	H	0.980561	-0.125854	-0.946020
H132	H	1.031794	-0.162620	-0.946038
H133	H	0.792710	-0.688539	-0.188980
C134	C	0.135205	-0.156077	-0.217856
H135	H	0.164061	-0.138938	-0.194038
H136	H	0.109650	-0.173234	-0.190513
H137	H	0.109708	-0.136526	-0.241884
H138	H	0.832674	-0.387571	-0.229003
C139	C	1.029564	-0.596485	-0.426156
H140	H	1.053416	-0.617155	-0.450046
H141	H	1.056872	-0.578177	-0.402214
H142	H	1.005576	-0.578186	-0.453435
C143	C	0.821288	-0.276696	-0.935207
H144	H	0.797412	-0.293801	-0.964050
H145	H	0.794005	-0.259514	-0.909673
H146	H	0.845240	-0.296280	-0.909687
C147	C	0.915949	-0.131420	-0.733449
H148	H	0.915238	-0.137230	-0.689793
H149	H	0.881884	-0.112518	-0.744163
H150	H	0.954110	-0.117055	-0.744188
H151	H	0.465127	-0.143031	-0.293066
C152	C	0.474370	-0.301494	-0.311975
H153	H	0.445496	-0.325604	-0.314861
H154	H	0.499874	-0.305406	-0.276054
H155	H	0.499914	-0.300946	-0.348297
C156	C	0.538837	-0.276896	-0.385808
H157	H	0.495182	-0.272774	-0.380088
H158	H	0.549533	-0.307071	-0.376557
H159	H	0.549588	-0.270361	-0.427924
C160	C	0.676249	-0.276891	-0.385797
H161	H	0.647391	-0.294023	-0.409624
H162	H	0.701748	-0.296442	-0.361779
H163	H	0.701800	-0.259727	-0.413140
H164	H	1.018150	-0.688305	-0.414721
H165	H	0.346324	-0.289931	-0.310608
H166	H	0.832723	-0.268581	-0.540924
H167	H	0.666906	-0.164273	-0.229250
C168	C	0.781235	-0.596739	-0.177507
H169	H	0.757394	-0.617457	-0.153626
H170	H	0.753918	-0.578441	-0.201444
H171	H	0.805211	-0.578436	-0.150220
H172	H	0.896462	-0.289826	-0.861470
H173	H	0.263269	-0.164293	-0.229278
C174	C	0.989638	-0.953099	-0.386132
H175	H	1.013491	-0.973768	-0.410024
H176	H	1.016946	-0.934785	-0.362197
H177	H	0.965640	-0.934804	-0.413410
H178	H	0.346422	-0.143037	-0.293057
C179	C	0.989674	-1.051626	-0.386145
H180	H	0.983942	-1.082933	-0.380406
H181	H	1.031776	-1.043918	-0.377022
H182	H	0.980471	-1.043926	-0.428235
H183	H	0.896288	-0.289845	-0.742766
H184	H	0.978001	-0.387419	-0.374532
C185	C	1.029605	-0.737231	-0.426197
H186	H	1.053456	-0.757902	-0.450088
H187	H	1.056914	-0.718922	-0.402258
H188	H	1.005613	-0.718933	-0.453475
H189	H	0.914531	-0.142951	-0.861513
C190	C	1.029636	-0.835754	-0.426213
H191	H	1.023902	-0.867061	-0.420475
H192	H	1.071737	-0.828048	-0.417086
H193	H	1.020437	-0.828053	-0.468303
H194	H	0.792774	-0.829294	-0.189009
C195	C	0.781303	-0.737498	-0.177526
H196	H	0.757467	-0.758219	-0.153644
H197	H	0.753982	-0.719198	-0.201455
H198	H	0.805285	-0.719198	-0.150241
C199	C	0.989701	-0.156006	-1.072708
H200	H	1.013588	-0.138910	-1.043864
H201	H	0.965757	-0.136422	-1.098227
H202	H	1.016984	-0.173193	-1.098241
H203	H	0.832740	-0.268451	-1.063274
H204	H	0.832736	-0.268552	-0.659637
