data_functionalizedCrystal
_audit_creation_method	'MofGen! by Chris Wilmer'
_symmetry_space_group_name_H-M	'P1'
_symmetry_Int_Tables_number	1
_symmetry_cell_setting	triclinic
loop_
_symmetry_equiv_pos_as_xyz
  x,y,z
_cell_length_a	21.395362
_cell_length_b	21.395361
_cell_length_c	21.395356
_cell_angle_alpha	90.028614
_cell_angle_beta	90.035770
_cell_angle_gamma	90.046585
loop_
_atom_site_label
_atom_site_type_symbol
_atom_site_fract_x
_atom_site_fract_y
_atom_site_fract_z
Zn1	Zn	0.957809	-0.249202	0.354573
Zn2	Zn	1.457809	0.250798	0.854573
Zn3	Zn	0.957726	-0.353974	0.249790
Zn4	Zn	1.457726	0.146026	0.749790
Zn5	Zn	0.853039	-0.249244	0.249774
Zn6	Zn	1.353039	0.250756	0.749774
Zn7	Zn	0.852993	-0.353974	0.354494
Zn8	Zn	1.352993	0.146026	0.854494
O9	O	0.905392	-0.301599	0.302158
O10	O	1.405392	0.198401	0.802158
O11	O	1.045476	-0.263082	0.340712
O12	O	1.545476	0.236918	0.840712
O13	O	0.943824	-0.340099	0.162110
O14	O	1.443824	0.159901	0.662110
O15	O	0.866991	-0.161560	0.263702
O16	O	1.366991	0.338440	0.763702
O17	O	1.045415	-0.340059	0.263729
O18	O	1.545415	0.159941	0.763729
O19	O	0.943965	-0.161529	0.340697
O20	O	1.443965	0.338471	0.840697
O21	O	0.866910	-0.263154	0.162098
O22	O	1.366910	0.236846	0.662098
O23	O	0.765355	-0.263154	0.263626
O24	O	1.265355	0.236846	0.763626
O25	O	0.866913	-0.340058	0.442183
O26	O	1.366913	0.159942	0.942183
O27	O	0.765321	-0.340099	0.340564
O28	O	1.265321	0.159901	0.840564
O29	O	0.943920	-0.263082	0.442240
O30	O	1.443920	0.236918	0.942240
O31	O	0.943780	-0.441652	0.263653
O32	O	1.443780	0.058348	0.763653
O33	O	0.866832	-0.441652	0.340579
O34	O	1.366832	0.058348	0.840579
C35	C	0.742604	-0.301632	0.302085
C36	C	1.242604	0.198368	0.802085
C37	C	0.672963	-0.301661	0.302069
C38	C	1.172963	0.198339	0.802069
C39	C	0.640249	-0.341779	0.342070
C40	C	1.140249	0.158221	0.842070
C41	C	0.574813	-0.341764	0.342098
C42	C	1.074813	0.158236	0.842098
C43	C	0.542095	-0.301637	0.302113
C44	C	1.042095	0.198363	0.802113
C45	C	0.574817	-0.261511	0.262109
C46	C	1.074817	0.238489	0.762109
C47	C	0.640251	-0.261523	0.262087
C48	C	1.140251	0.238477	0.762087
C49	C	0.438378	-0.296596	0.245708
C50	C	0.938378	0.203404	0.745708
C51	C	0.372945	-0.296589	0.245730
C52	C	0.872945	0.203411	0.745730
C53	C	0.340274	-0.301596	0.302182
C54	C	0.840274	0.198404	0.802182
C55	C	0.373044	-0.306624	0.358616
C56	C	0.873044	0.193376	0.858616
C57	C	0.438478	-0.306636	0.358593
C58	C	0.938478	0.193364	0.858593
C59	C	0.471142	-0.301619	0.302133
C60	C	0.971142	0.198381	0.802133
C61	C	0.236607	-0.341700	0.342218
C62	C	0.736607	0.158300	0.842218
C63	C	0.171171	-0.341680	0.342247
C64	C	0.671171	0.158320	0.842247
C65	C	0.171175	-0.261430	0.262252
C66	C	0.671175	0.238570	0.762252
C67	C	0.236611	-0.261446	0.262229
C68	C	0.736611	0.238554	0.762229
C69	C	0.269323	-0.301585	0.302211
C70	C	0.769323	0.198415	0.802211
C71	C	0.905309	-0.464386	0.302123
C72	C	1.405309	0.035614	0.802123
C73	C	0.905331	-0.534027	0.302129
C74	C	1.405331	-0.034027	0.802129
C75	C	0.945433	-0.566720	0.262114
C76	C	1.445433	-0.066720	0.762114
C77	C	0.945462	-0.632155	0.262128
C78	C	1.445462	-0.132155	0.762128
C79	C	0.905378	-0.664896	0.302150
C80	C	1.405378	-0.164896	0.802150
C81	C	0.865273	-0.632196	0.342172
C82	C	1.365273	-0.132196	0.842172
C83	C	0.865250	-0.566761	0.342162
C84	C	1.365250	-0.066761	0.842162
C85	C	0.848963	-0.768626	0.307041
C86	C	1.348963	-0.268626	0.807041
C87	C	0.848985	-0.834059	0.307047
C88	C	1.348985	-0.334059	0.807047
C89	C	0.905451	-0.866716	0.302187
C90	C	1.405451	-0.366716	0.802187
C91	C	0.961896	-0.833933	0.297307
C92	C	1.461896	-0.333933	0.797307
C93	C	0.961873	-0.768499	0.297296
C94	C	1.461873	-0.268499	0.797296
C95	C	0.905399	-0.735848	0.302167
C96	C	1.405399	-0.235848	0.802167
C97	C	0.945588	-0.970361	0.262186
C98	C	1.445588	-0.470361	0.762186
C99	C	0.945618	-1.035798	0.262204
C100	C	1.445618	-0.535798	0.762204
C101	C	0.865424	-1.035837	0.342245
C102	C	1.365424	-0.535837	0.842245
C103	C	0.865399	-0.970402	0.342230
C104	C	1.365399	-0.470402	0.842230
C105	C	0.905481	-0.937668	0.302197
C106	C	1.405481	-0.437668	0.802197
C107	C	1.068815	-0.301566	0.302231
C108	C	1.568815	0.198434	0.802231
C109	C	1.138456	-0.301552	0.302262
C110	C	1.638456	0.198448	0.802262
C111	C	0.905421	-0.301566	0.465581
C112	C	1.405421	0.198434	0.965581
C113	C	0.905433	-0.301552	0.535222
C114	C	1.405433	0.198448	1.035222
C115	C	0.905492	-0.138175	0.302206
C116	C	1.405492	0.361825	0.802206
C117	C	0.905535	-0.068534	0.302227
C118	C	1.405535	0.431466	0.802227
C119	C	0.905399	-0.301586	0.139370
C120	C	1.405399	0.198414	0.639370
C121	C	0.905508	-0.301424	0.069729
C122	C	1.405508	0.198576	0.569729
C123	C	0.945552	-0.341486	1.037025
C124	C	1.445552	0.158514	1.537025
C125	C	0.945541	-0.341505	0.971590
C126	C	1.445541	0.158495	1.471590
C127	C	0.905493	-0.301452	0.938861
C128	C	1.405493	0.198548	1.438861
C129	C	0.865441	-0.261388	0.971573
C130	C	1.365441	0.238612	1.471573
C131	C	0.865449	-0.261373	1.037007
C132	C	1.365449	0.238627	1.537007
C133	C	0.900567	-0.245027	0.835207
C134	C	1.400567	0.254973	1.335207
C135	C	0.900563	-0.245040	0.769774
C136	C	1.400563	0.254960	1.269774
C137	C	0.905464	-0.301497	0.737040
C138	C	1.405464	0.198503	1.237040
C139	C	0.910382	-0.357942	0.769747
C140	C	1.410382	0.142058	1.269747
C141	C	0.910390	-0.357928	0.835181
C142	C	1.410390	0.142072	1.335181
C143	C	0.905479	-0.301464	0.867908
C144	C	1.405479	0.198536	1.367908
C145	C	0.945498	-0.341584	0.633383
C146	C	1.445498	0.158416	1.133383
C147	C	0.945482	-0.341604	0.567947
C148	C	1.445482	0.158396	1.067947
C149	C	0.865386	-0.261481	0.567931
C150	C	1.365386	0.238519	1.067931
C151	C	0.865398	-0.261466	0.633366
C152	C	1.365398	0.238534	1.133366
C153	C	0.905458	-0.301516	0.666089
C154	C	1.405458	0.198484	1.166089
H155	H	0.263247	-0.228781	0.229652
H156	H	0.763247	0.271219	0.729652
H157	H	0.832776	-0.228870	0.541284
H158	H	1.332776	0.271130	1.041284
O159	O	0.788057	-0.733403	0.312280
O160	O	1.288057	-0.233403	0.812280
H161	H	0.748812	-0.767191	0.315663
H162	H	1.248812	-0.267191	0.815663
O163	O	0.539537	-0.218228	0.218979
O164	O	1.039537	0.281772	0.718979
H165	H	0.552049	-0.228909	0.169783
H166	H	1.052049	0.271091	0.669783
O167	O	1.022751	-0.733143	0.292039
O168	O	1.522751	-0.233143	0.792039
H169	H	1.021775	-0.703365	0.249585
H170	H	1.521775	-0.203365	0.749585
O171	O	0.915683	-0.418806	0.870454
O172	O	1.415683	0.081194	1.370454
H173	H	0.958133	-0.417802	0.900286
H174	H	1.458133	0.082198	1.400286
O175	O	0.822217	-0.218247	0.668647
O176	O	1.322217	0.281753	1.168647
H177	H	0.794371	-0.190393	0.634897
H178	H	1.294371	0.309607	1.134897
H179	H	0.914374	-0.403915	0.743096
H180	H	1.414374	0.096085	1.243096
O181	O	1.022799	-0.869155	0.292059
O182	O	1.522799	-0.369155	0.792059
H183	H	1.046190	-0.856605	0.247502
H184	H	1.546190	-0.356605	0.747502
O185	O	0.988826	-0.935043	0.219026
O186	O	1.488826	-0.435043	0.719026
H187	H	0.978130	-0.947645	0.169837
H188	H	1.478130	-0.447645	0.669837
O189	O	0.988872	-1.071064	0.219043
O190	O	1.488872	-0.571064	0.719043
H191	H	1.016732	-1.037306	0.191201
H192	H	1.516732	-0.537306	0.691201
H193	H	0.144536	-0.374348	0.374824
H194	H	0.644536	0.125652	0.874824
H195	H	0.666879	-0.374462	0.374627
H196	H	1.166879	0.125538	0.874627
H197	H	0.832790	-1.062494	0.374834
H198	H	1.332790	-0.562494	0.874834
O199	O	0.473615	-0.291197	0.184816
O200	O	0.973615	0.208803	0.684816
H201	H	0.439837	-0.287709	0.145580
H202	H	0.939837	0.212291	0.645580
O203	O	0.988734	-0.384715	0.936305
O204	O	1.488734	0.115285	1.436305
H205	H	1.020615	-0.356663	0.906516
H206	H	1.520615	0.143337	1.406516
H207	H	0.548172	-0.374433	0.374674
H208	H	1.048172	0.125567	0.874674
H209	H	0.896617	-0.199046	0.861853
H210	H	1.396617	0.300954	1.361853
O211	O	0.822133	-0.935144	0.385383
O212	O	1.322133	-0.435144	0.885383
H213	H	0.850140	-0.905281	0.417298
H214	H	1.350140	-0.405281	0.917298
O215	O	0.788110	-0.869417	0.312310
O216	O	1.288110	-0.369417	0.812310
H217	H	0.748842	-0.835717	0.315701
H218	H	1.248842	-0.335717	0.815701
H219	H	0.144536	-0.228755	0.229699
H220	H	0.644536	0.271245	0.729699
O221	O	0.822032	-0.667503	0.385333
O222	O	1.322032	-0.167503	0.885333
H223	H	0.828778	-0.718496	0.378612
H224	H	1.328778	-0.218496	0.878612
H225	H	0.832833	-0.228777	0.944920
H226	H	1.332833	0.271223	1.444920
H227	H	0.832840	-0.228749	1.063634
H228	H	1.332840	0.271251	1.563634
H229	H	0.832594	-0.540143	0.374747
H230	H	1.332594	-0.040143	0.874747
H231	H	0.666886	-0.228852	0.229513
H232	H	1.166886	0.271148	0.729513
O233	O	0.337601	-0.291163	0.184867
O234	O	0.837601	0.208837	0.684867
H235	H	0.371310	-0.287668	0.145609
H236	H	0.871310	0.212332	0.645609
H237	H	0.896563	-0.199078	0.743149
H238	H	1.396563	0.300922	1.243149
H239	H	0.978115	-0.374197	0.660027
H240	H	1.478115	0.125803	1.160027
H241	H	0.978071	-0.540070	0.229519
H242	H	1.478071	-0.040070	0.729519
O243	O	0.988739	-0.384698	1.072320
O244	O	1.488739	0.115302	1.572320
H245	H	1.016574	-0.412567	1.038581
H246	H	1.516574	0.087433	1.538581
O247	O	0.988683	-0.384812	0.532674
O248	O	1.488683	0.115188	1.032674
H249	H	0.977925	-0.433988	0.545220
H250	H	1.477925	0.066012	1.045220
O251	O	0.473826	-0.312046	0.419455
O252	O	0.973826	0.187954	0.919455
H253	H	0.440120	-0.315520	0.458718
H254	H	0.940120	0.184480	0.958718
O255	O	0.988714	-0.667437	0.218973
O256	O	1.488714	-0.167437	0.718973
H257	H	0.977990	-0.654935	0.169781
H258	H	1.477990	-0.154935	0.669781
O259	O	0.337818	-0.312020	0.419512
O260	O	0.837818	0.187980	0.919512
H261	H	0.286812	-0.311158	0.410051
H262	H	0.786812	0.188842	0.910051
H263	H	0.263243	-0.374380	0.374776
H264	H	0.763243	0.125620	0.874776
