data_functionalizedCrystal
_audit_creation_method	'MofGen! by Chris Wilmer'
_symmetry_space_group_name_H-M	'P1'
_symmetry_Int_Tables_number	1
_symmetry_cell_setting	triclinic
loop_
_symmetry_equiv_pos_as_xyz
  x,y,z
_cell_length_a	17.000383
_cell_length_b	15.500227
_cell_length_c	17.000383
_cell_angle_alpha	87.396892
_cell_angle_beta	75.600303
_cell_angle_gamma	92.622316
loop_
_atom_site_label
_atom_site_type_symbol
_atom_site_fract_x
_atom_site_fract_y
_atom_site_fract_z
O1	O	1.058066	0.072003	0.024855
O2	O	1.558066	0.572003	0.524855
O3	O	0.824302	0.071991	0.053883
O4	O	1.324302	0.571991	0.553883
O5	O	0.955698	0.071994	-0.077513
O6	O	1.455698	0.571994	0.422487
O7	O	0.926671	0.072000	0.156251
O8	O	1.426671	0.572000	0.656251
O9	O	0.947726	-0.071894	-0.069568
O10	O	1.447726	0.428106	0.430432
O11	O	0.816331	-0.071898	0.061827
O12	O	1.316331	0.428102	0.561827
O13	O	1.050095	-0.071886	0.032799
O14	O	1.550095	0.428114	0.532799
Cu15	Cu	0.932485	-0.085030	0.048039
Cu16	Cu	1.432485	0.414970	0.548039
Cu17	Cu	0.941912	0.085135	0.038644
Cu18	Cu	1.441912	0.585135	0.538644
O19	O	0.918699	-0.071889	0.164195
O20	O	1.418699	0.428111	0.664195
C21	C	0.790554	0.000045	0.059414
C22	C	1.290554	0.500045	0.559414
C23	C	0.701871	0.000041	0.064050
C24	C	1.201871	0.500041	0.564050
N25	N	0.925860	-0.204715	0.054645
N26	N	1.425860	0.295285	0.554645
C27	C	0.199561	0.000073	0.093982
C28	C	0.699561	0.500073	0.593982
C29	C	0.282889	0.000073	0.089620
C30	C	0.782889	0.500073	0.589620
C31	C	0.339181	0.000064	0.013907
C32	C	0.839181	0.500064	0.513907
C33	C	0.312143	0.000066	-0.057448
C34	C	0.812143	0.500066	0.442552
C35	C	0.228817	0.000073	-0.053086
C36	C	0.728817	0.500073	0.446914
C37	C	0.591506	0.000049	-0.002943
C38	C	1.091506	0.500049	0.497057
C39	C	0.674837	0.000039	-0.007300
C40	C	1.174837	0.500039	0.492700
C41	C	0.645577	0.000048	0.139769
C42	C	1.145577	0.500048	0.639769
C43	C	0.562250	0.000050	0.144125
C44	C	1.062250	0.500050	0.644125
C45	C	0.535219	0.000055	0.072769
C46	C	1.035219	0.500055	0.572769
C47	C	0.424356	0.000061	0.009447
C48	C	0.924356	0.500061	0.509447
C49	C	0.450046	0.000065	0.077230
C50	C	0.950046	0.500065	0.577230
C51	C	0.981554	-0.249990	-0.001014
C52	C	1.481554	0.250010	0.498986
C53	C	0.976551	-0.340563	0.003990
C54	C	1.476551	0.159437	0.503990
C55	C	0.915857	-0.385859	0.064657
C56	C	1.415857	0.114141	0.564657
C57	C	0.860157	-0.340578	0.120319
C58	C	1.360157	0.159422	0.620319
C59	C	0.865158	-0.250007	0.115311
C60	C	1.365158	0.249993	0.615311
C61	C	0.897844	-0.659327	0.082684
C62	C	1.397844	-0.159327	0.582684
C63	C	0.892850	-0.749904	0.087689
C64	C	1.392850	-0.249904	0.587689
C65	C	1.009243	-0.749884	-0.028641
C66	C	1.509243	-0.249884	0.471359
C67	C	1.014241	-0.659311	-0.033641
C68	C	1.514241	-0.159311	0.466359
C69	C	0.958539	-0.614037	0.022018
C70	C	1.458539	-0.114037	0.522018
C71	C	0.910743	-0.478440	0.069774
C72	C	1.410743	0.021560	0.569774
C73	C	0.963650	-0.521458	0.016897
C74	C	1.463650	-0.021458	0.516897
C75	C	1.083843	0.000062	0.027268
C76	C	1.583843	0.500062	0.527268
C77	C	1.172527	0.000072	0.022632
C78	C	1.672527	0.500072	0.522632
C79	C	0.953271	0.000051	-0.103303
C80	C	1.453271	0.500051	0.396697
C81	C	0.957907	0.000054	-0.191986
C82	C	1.457907	0.500054	0.308014
N83	N	0.948543	0.204820	0.032030
N84	N	1.448543	0.704820	0.532030
C85	C	0.987841	0.000059	-0.694298
C86	C	1.487841	0.500059	-0.194298
C87	C	0.983478	0.000054	-0.610970
C88	C	1.483478	0.500054	-0.110970
C89	C	0.907765	0.000054	-0.554677
C90	C	1.407765	0.500054	-0.054677
C91	C	0.836410	0.000051	-0.581715
C92	C	1.336410	0.500051	-0.081715
C93	C	0.840772	0.000050	-0.665042
C94	C	1.340772	0.500050	-0.165042
C95	C	0.890914	0.000050	-0.302351
C96	C	1.390914	0.500050	0.197649
C97	C	0.886557	0.000054	-0.219020
C98	C	1.386557	0.500054	0.280980
C99	C	1.033626	0.000055	-0.248280
C100	C	1.533626	0.500055	0.251720
C101	C	1.037982	0.000059	-0.331608
C102	C	1.537982	0.500059	0.168392
C103	C	0.966626	0.000052	-0.358639
C104	C	1.466626	0.500052	0.141361
C105	C	0.903305	0.000051	-0.469501
C106	C	1.403305	0.500051	0.030499
C107	C	0.971087	0.000048	-0.443812
C108	C	1.471087	0.500048	0.056188
C109	C	0.921126	0.000056	0.189985
C110	C	1.421126	0.500056	0.689985
C111	C	0.916490	0.000059	0.278668
C112	C	1.416490	0.500059	0.778668
H113	H	0.153731	0.000074	0.155636
H114	H	0.653731	0.500074	0.655636
F115	F	0.764831	0.000045	-0.693812
F116	F	1.264831	0.500045	-0.193812
F117	F	0.805969	0.000051	-0.159109
F118	F	1.305969	0.500051	0.340891
F119	F	1.046157	-0.201791	-0.065581
F120	F	1.546157	0.298209	0.434419
F121	F	0.562749	0.000071	-0.078888
F122	F	1.062749	0.500071	0.421112
F123	F	0.390134	0.000079	0.157805
F124	F	0.890134	0.500079	0.657805
F125	F	0.755829	0.000047	-0.521801
F126	F	1.255829	0.500047	-0.021801
F127	F	1.118566	0.000057	-0.391514
F128	F	1.618566	0.500057	0.108486
H129	H	0.206808	0.000073	-0.111187
H130	H	0.706808	0.500073	0.388813
F131	F	1.051664	0.000042	-0.503724
F132	F	1.551664	0.500042	-0.003724
H133	H	0.304895	0.000082	0.147720
H134	H	0.804895	0.500082	0.647720
F135	F	1.035825	-0.388749	-0.055249
F136	F	1.535825	0.111251	0.444751
H137	H	1.013064	-0.484576	-0.032501
H138	H	1.513064	0.015424	0.467499
H139	H	0.819805	-0.213144	0.160633
H140	H	1.319805	0.286856	0.660633
F141	F	1.078838	-0.611104	-0.098208
F142	F	1.578838	-0.111104	0.401792
F143	F	0.846149	-0.526652	0.134341
F144	F	1.346149	-0.026652	0.634341
H145	H	0.843423	-0.786780	0.137095
H146	H	1.343423	-0.286780	0.637095
H147	H	1.054592	-0.786754	-0.073957
H148	H	1.554592	-0.286754	0.426043
F149	F	1.068426	0.000065	-0.754204
F150	F	1.568426	0.500065	-0.254204
H151	H	1.091720	0.000068	-0.226263
H152	H	1.591720	0.500068	0.273737
F153	F	0.814970	0.000048	-0.331109
F154	F	1.314970	0.500048	0.168891
H155	H	0.852491	-0.622472	0.128005
H156	H	1.352491	-0.122472	0.628005
H157	H	0.470199	0.000051	-0.052198
H158	H	0.970199	0.500051	0.447802
F159	F	1.059421	0.000071	-0.582204
F160	F	1.559421	0.500071	-0.082204
F161	F	0.795558	-0.388786	0.184882
F162	F	1.295558	0.111214	0.684882
H163	H	0.516421	0.000059	0.205778
H164	H	1.016421	0.500059	0.705778
F165	F	0.674352	0.000046	0.215705
F166	F	1.174352	0.500046	0.715705
F167	F	0.822728	0.000056	-0.409584
F168	F	1.322728	0.500056	0.090416
H169	H	0.720670	0.000037	-0.068958
H170	H	1.220670	0.500037	0.431042
H171	H	0.357984	0.000064	-0.119096
H172	H	0.857984	0.500064	0.380904
