data_functionalizedCrystal
_audit_creation_method	'MofGen! by Chris Wilmer'
_symmetry_space_group_name_H-M	'P1'
_symmetry_Int_Tables_number	1
_symmetry_cell_setting	triclinic
loop_
_symmetry_equiv_pos_as_xyz
  x,y,z
_cell_length_a	6.817900
_cell_length_b	11.102188
_cell_length_c	16.305550
_cell_angle_alpha	93.872451
_cell_angle_beta	103.455250
_cell_angle_gamma	108.603875
loop_
_atom_site_label
_atom_site_type_symbol
_atom_site_fract_x
_atom_site_fract_y
_atom_site_fract_z
V1	V	-4.052576	-0.176911	-0.263031
O2	O	-4.012740	0.007398	-0.258024
O3	O	-4.029746	-0.349724	-0.261233
O4	O	-4.003649	-0.174674	-0.377748
O5	O	-4.039018	-0.168864	-0.140702
V6	V	-4.532958	-0.154809	-0.248400
O7	O	-4.320722	-0.225395	-0.295127
O8	O	-4.715009	-0.106325	-0.216304
O9	O	-4.332581	0.018004	-0.250199
O10	O	-4.690191	-0.339118	-0.253407
O11	O	-4.663912	-0.162856	-0.370729
O12	O	-4.358679	-0.157046	-0.133683
C13	C	-3.880985	-0.391837	-0.257083
C14	C	-3.943603	-0.533117	-0.256377
C15	C	-3.930165	-0.581026	-0.178790
C16	C	-3.989024	-0.713775	-0.178130
C17	C	-4.074749	-0.750694	-0.332650
C18	C	-4.015905	-0.617948	-0.333310
C19	C	-4.135615	-0.877181	-0.087116
C20	C	-4.122142	-0.925092	-0.009525
C21	C	-3.947519	-0.861542	0.061179
C22	C	-3.786319	-0.750081	0.054294
C23	C	-3.799778	-0.702175	-0.023298
C24	C	-3.974445	-0.765724	-0.093999
C25	C	-3.869293	-0.454538	-0.424318
C26	C	-3.882737	-0.406630	-0.501911
C27	C	-4.057350	-0.470179	-0.572621
C28	C	-4.218526	-0.581646	-0.565745
C29	C	-4.205083	-0.629554	-0.488152
C30	C	-4.030469	-0.565996	-0.417441
C31	C	-3.847693	-0.168542	-0.405710
C32	C	-3.889143	-0.167857	-0.499492
C33	C	-4.039835	-0.165200	-0.840237
C34	C	-3.802613	-0.157314	-0.799308
C35	C	-3.759604	-0.158553	-0.701814
C36	C	-3.965073	-0.166517	-0.671189
C37	C	-4.150787	-0.292033	-0.721816
C38	C	-4.192545	-0.291323	-0.819365
C39	C	-4.077232	-0.048574	-0.794394
C40	C	-4.029155	-0.047580	-0.696551
C41	C	-3.922835	-0.167266	-0.575651
C42	C	-4.082084	-0.164460	-0.935776
C43	C	-4.144685	0.060110	-0.254346
C44	C	-4.061306	0.201389	-0.255057
C45	C	-4.177977	-0.163182	-0.105717
C46	C	-4.115765	-0.163861	-0.011935
H47	H	-3.727100	-0.402782	-0.366742
H48	H	-3.769993	-0.241106	-0.830821
H49	H	-3.644119	-0.698353	0.111868
H50	H	-3.705792	-0.243311	-0.685520
N51	N	-4.148532	-0.837351	-0.411228
N52	N	-4.029072	-0.829867	-0.459770
H53	H	-4.081169	-0.891067	-0.515267
N54	N	-3.859961	0.068878	-0.653420
N55	N	-3.692754	0.064399	-0.604172
H56	H	-3.573259	0.146646	-0.573702
N57	N	-4.097769	-0.402840	-0.700751
N58	N	-4.225812	-0.512826	-0.734607
H59	H	-4.188360	-0.591084	-0.719733
H60	H	-3.668527	-0.611429	-0.028904
N61	N	-4.396862	-0.646569	-0.637985
N62	N	-4.408831	-0.603789	-0.707259
H63	H	-4.534769	-0.649644	-0.758284
H64	H	-4.249991	-0.053235	-0.821209
H65	H	-3.971677	0.046528	-0.807761
H66	H	-4.169540	-0.379612	-0.849747
H67	H	-3.936555	-0.900562	0.124355
H68	H	-4.368019	-0.302331	-0.847357
N69	N	-4.344885	-0.305066	-0.698108
N70	N	-4.509774	-0.309203	-0.753105
H71	H	-4.646858	-0.318407	-0.736362
N72	N	-4.286808	-1.038947	-0.002507
N73	N	-4.442736	-1.095674	-0.065639
H74	H	-4.559021	-1.176087	-0.060682
H75	H	-4.176210	-0.046019	-0.675203
H76	H	-4.068270	-0.431167	-0.635803
H77	H	-4.277832	-0.928925	-0.144680
H78	H	-3.871294	-0.511958	-0.116147
H79	H	-4.336329	-0.720320	-0.482557
N80	N	-3.718052	-0.292787	-0.508930
N81	N	-3.562145	-0.236056	-0.445791
H82	H	-3.445831	-0.155658	-0.450749
H83	H	-3.619675	-0.068308	-0.666790
N84	N	-3.652546	-0.043562	-0.814820
N85	N	-3.718668	0.033023	-0.856224
H86	H	-3.612684	0.113366	-0.867183
