data_functionalizedCrystal
_audit_creation_method	'MofGen! by Chris Wilmer'
_symmetry_space_group_name_H-M	'P1'
_symmetry_Int_Tables_number	1
_symmetry_cell_setting	triclinic
loop_
_symmetry_equiv_pos_as_xyz
  x,y,z
_cell_length_a	18.215405
_cell_length_b	19.805407
_cell_length_c	18.215399
_cell_angle_alpha	90.022125
_cell_angle_beta	89.970580
_cell_angle_gamma	89.977195
loop_
_atom_site_label
_atom_site_type_symbol
_atom_site_fract_x
_atom_site_fract_y
_atom_site_fract_z
Zn1	Zn	-0.293012	-1.034755	-0.416153
Zn2	Zn	-0.416083	-1.034673	-0.293084
Zn3	Zn	-0.293033	-0.921567	-0.293096
Zn4	Zn	-0.416039	-0.921538	-0.416104
O5	O	-0.354542	-0.978133	-0.354609
O6	O	-0.309347	-1.129461	-0.399844
O7	O	-0.399787	-1.019647	-0.190101
O8	O	-0.190046	-0.936629	-0.309445
O9	O	-0.399767	-1.129400	-0.309425
O10	O	-0.190030	-1.019787	-0.399855
O11	O	-0.309383	-0.936549	-0.190110
O12	O	-0.309340	-0.826847	-0.309397
O13	O	-0.399692	-0.936579	-0.519095
O14	O	-0.399712	-0.826826	-0.399771
O15	O	-0.309304	-1.019759	-0.519131
O16	O	-0.519061	-1.019619	-0.309377
O17	O	-0.519029	-0.936499	-0.399759
C18	C	-0.354524	-0.802277	-0.354580
C19	C	-0.354534	-0.727045	-0.354586
C20	C	-0.401661	-0.691708	-0.401566
C21	C	-0.401661	-0.621019	-0.401574
C22	C	-0.354537	-0.585670	-0.354598
C23	C	-0.307405	-0.621012	-0.307616
C24	C	-0.307402	-0.691700	-0.307612
C25	C	-0.307416	-0.335939	-0.307632
C26	C	-0.307424	-0.265247	-0.307638
C27	C	-0.401675	-0.265259	-0.401595
C28	C	-0.401672	-0.335946	-0.401591
C29	C	-0.354537	-0.371282	-0.354611
C30	C	-0.354537	-0.447931	-0.354604
C31	C	-0.354541	-0.509023	-0.354601
C32	C	-0.545748	-0.978065	-0.354578
C33	C	-0.627547	-0.978098	-0.354589
C34	C	-0.892597	-1.021505	-0.307626
C35	C	-0.815738	-1.021477	-0.307609
C36	C	-0.815745	-0.934845	-0.401642
C37	C	-0.892602	-0.934870	-0.401655
C38	C	-0.931026	-0.978204	-0.354648
C39	C	-0.777310	-0.978151	-0.354618
C40	C	-0.693977	-0.978121	-0.354600
C41	C	-1.014365	-0.978234	-0.354665
C42	C	-0.162589	-0.978220	-0.354657
C43	C	-0.080790	-0.978257	-0.354677
C44	C	-0.354491	-0.978175	-0.546562
C45	C	-0.354469	-0.978192	-0.628361
C46	C	-0.354555	-0.154676	-0.354631
C47	C	-0.354548	-0.229908	-0.354623
C48	C	-0.307360	-1.021519	-0.816575
C49	C	-0.307339	-1.021528	-0.893434
C50	C	-0.401464	-0.934913	-0.893385
C51	C	-0.401481	-0.934902	-0.816528
C52	C	-0.354431	-0.978209	-0.778125
C53	C	-0.354392	-0.978228	-0.931841
C54	C	-0.354369	-0.978236	-1.015175
C55	C	-0.354452	-0.978200	-0.694786
C56	C	-0.354539	-0.978131	-0.163403
C57	C	-0.354353	-0.978245	-0.081605
H58	H	-0.440052	-0.236479	-0.439850
H59	H	-0.269009	-1.056794	-0.924737
H60	H	-0.440048	-0.364724	-0.439841
H61	H	-0.269042	-0.364701	-0.269373
H62	H	-0.923893	-0.899607	-0.439947
H63	H	-0.269047	-1.056781	-0.785310
H64	H	-0.439773	-0.899655	-0.924662
H65	H	-0.439811	-0.899628	-0.785220
O66	O	-0.261547	-0.726058	-0.262077
C67	C	-0.214077	-0.766990	-0.304058
H68	H	-0.209608	-0.745714	-0.362029
H69	H	-0.236831	-0.820557	-0.306548
C70	C	-0.143015	-0.794216	-0.197040
C71	C	-0.137521	-0.768081	-0.268240
H72	H	-0.095793	-0.794892	-0.174945
H73	H	-0.174998	-0.766641	-0.168756
H74	H	-0.161979	-0.838853	-0.199125
H75	H	-0.118566	-0.723443	-0.266154
H76	H	-0.105534	-0.795649	-0.296523
H77	H	-0.440038	-0.720484	-0.439817
H78	H	-0.269046	-0.236467	-0.269384
H79	H	-0.440037	-0.592250	-0.439830
H80	H	-0.784453	-0.899565	-0.439915
H81	H	-0.269033	-0.592225	-0.269370
O82	O	-0.778294	-1.063477	-0.261957
C83	C	-0.702218	-1.054176	-0.272033
H84	H	-0.691747	-1.001923	-0.296073
H85	H	-0.680345	-1.094292	-0.311265
C86	C	-0.675669	-1.124590	-0.168044
C87	C	-0.662807	-1.060409	-0.197564
H88	H	-0.651357	-1.128438	-0.122109
H89	H	-0.726922	-1.130859	-0.161257
H90	H	-0.657441	-1.158013	-0.200744
H91	H	-0.681043	-1.026988	-0.164869
H92	H	-0.611555	-1.054135	-0.204345
O93	O	-0.929808	-1.063615	-0.261891
C94	C	-0.879404	-1.101838	-0.220398
H95	H	-0.824643	-1.074097	-0.217811
H96	H	-0.871169	-1.153225	-0.247402
C97	C	-0.976703	-1.145720	-0.145264
C98	C	-0.909445	-1.111645	-0.142083
H99	H	-0.995234	-1.151772	-0.096957
H100	H	-1.010662	-1.119970	-0.173221
H101	H	-0.969831	-1.188539	-0.167771
H102	H	-0.916319	-1.068823	-0.119585
H103	H	-0.875488	-1.137387	-0.114120
