data_functionalizedCrystal
_audit_creation_method	'MofGen! by Chris Wilmer'
_symmetry_space_group_name_H-M	'P1'
_symmetry_Int_Tables_number	1
_symmetry_cell_setting	triclinic
loop_
_symmetry_equiv_pos_as_xyz
  x,y,z
_cell_length_a	28.938199
_cell_length_b	28.937346
_cell_length_c	28.934044
_cell_angle_alpha	60.005004
_cell_angle_beta	60.009897
_cell_angle_gamma	59.994060
loop_
_atom_site_label
_atom_site_type_symbol
_atom_site_fract_x
_atom_site_fract_y
_atom_site_fract_z
O1	O	0.064043	-0.675186	0.564597
O2	O	0.564043	-0.175186	1.064597
O3	O	0.024124	-0.525682	0.454913
O4	O	0.524124	-0.025682	0.954913
O5	O	0.118795	-0.620275	0.454833
O6	O	0.618795	-0.120275	0.954833
O7	O	-0.030629	-0.580593	0.564678
O8	O	0.469371	-0.080593	1.064678
O9	O	0.150204	-0.588870	0.486157
O10	O	0.650204	-0.088870	0.986157
O11	O	0.055533	-0.494276	0.486238
O12	O	0.555533	0.005724	0.986238
O13	O	0.095452	-0.643780	0.595921
O14	O	0.595452	-0.143780	1.095921
Cu15	Cu	0.078360	-0.566161	0.543940
Cu16	Cu	0.578360	-0.066161	1.043940
Cu17	Cu	0.041215	-0.603301	0.506895
Cu18	Cu	0.541215	-0.103301	1.006895
O19	O	0.000780	-0.549187	0.596002
O20	O	0.500780	-0.049187	1.096002
N21	N	0.104487	-0.540042	0.569998
N22	N	0.604487	-0.040042	1.069998
N23	N	0.015094	-0.629425	0.480837
N24	N	0.515094	-0.129425	0.980837
C25	C	0.165467	-0.323909	0.630915
C26	C	0.665467	0.176091	1.130915
C27	C	0.165587	-0.479117	0.786068
C28	C	0.665587	0.020883	1.286068
C29	C	0.165481	-0.479095	0.630906
C30	C	0.665481	0.020905	1.130906
C31	C	0.320696	-0.479083	0.630835
C32	C	0.820696	0.020917	1.130835
C33	C	0.182557	-0.375118	0.647971
C34	C	0.682557	0.124882	1.147971
C35	C	0.182626	-0.462038	0.734858
C36	C	0.682626	0.037962	1.234858
C37	C	0.269485	-0.462018	0.647928
C38	C	0.769485	0.037982	1.147928
C39	C	0.182566	-0.462025	0.647966
C40	C	0.682566	0.037975	1.147966
C41	C	0.143714	-0.258726	0.609206
C42	C	0.643714	0.241274	1.109206
C43	C	0.143738	-0.500820	0.609192
C44	C	0.643738	-0.000820	1.109192
C45	C	0.204309	-0.440300	0.669680
C46	C	0.704309	0.059700	1.169680
C47	C	0.415481	-0.462740	0.580919
C48	C	0.915481	0.037260	1.080919
C49	C	0.474732	-0.482485	0.561145
C50	C	0.974732	0.017515	1.061145
C51	C	0.474757	-0.578356	0.597704
C52	C	0.974757	-0.078356	1.097704
C53	C	0.415508	-0.558609	0.617479
C54	C	0.915508	-0.058609	1.117479
C55	C	0.157989	-0.229089	0.550957
C56	C	0.657989	0.270911	1.050957
C57	C	0.138212	-0.169834	0.531225
C58	C	0.638212	0.330166	1.031225
C59	C	0.089890	-0.169857	0.627992
C60	C	0.589890	0.330143	1.127992
C61	C	0.109667	-0.229112	0.647725
C62	C	0.609667	0.270888	1.147725
C63	C	0.085482	-0.486515	0.623535
C64	C	0.585482	0.013485	1.123535
C65	C	0.065722	-0.506265	0.603789
C66	C	0.565722	-0.006265	1.103789
C67	C	0.162467	-0.554625	0.555370
C68	C	0.662467	-0.054625	1.055370
C69	C	0.182230	-0.534875	0.575110
C70	C	0.682230	-0.034875	1.075110
C71	C	0.085661	-0.486557	0.880902
C72	C	0.585661	0.013443	1.380902
C73	C	0.065952	-0.506323	0.940155
C74	C	0.565952	-0.006323	1.440155
C75	C	0.162734	-0.554693	0.940102
C76	C	0.662734	-0.054693	1.440102
C77	C	0.182441	-0.534928	0.880847
C78	C	0.682441	-0.034928	1.380847
C79	C	0.143904	-0.500859	0.851249
C80	C	0.643904	-0.000859	1.351249
C81	C	0.385871	-0.500801	0.609083
C82	C	0.885871	-0.000801	1.109083
C83	C	-0.110907	-0.668480	0.441278
C84	C	0.389093	-0.168480	0.941278
C85	C	-0.024049	-0.668588	0.441475
C86	C	0.475951	-0.168588	0.941475
C87	C	-0.045729	-0.690282	0.419668
C88	C	0.454271	-0.190282	0.919668
C89	C	-0.062146	-0.785032	0.469507
C90	C	0.437854	-0.285032	0.969507
C91	C	-0.042446	-0.844287	0.489286
C92	C	0.457554	-0.344287	0.989286
C93	C	0.053426	-0.844399	0.452899
C94	C	0.553426	-0.344399	0.952899
C95	C	0.033725	-0.785144	0.433120
C96	C	0.533725	-0.285144	0.933120
C97	C	-0.140617	-0.682751	0.499509
C98	C	0.359383	-0.182751	0.999509
C99	C	-0.199867	-0.662928	0.519152
C100	C	0.300133	-0.162928	1.019152
C101	C	-0.199694	-0.614571	0.422330
C102	C	0.300306	-0.114571	0.922330
C103	C	-0.140443	-0.634393	0.402687
C104	C	0.359557	-0.134393	0.902687
C105	C	-0.038320	-0.610337	0.427144
C106	C	0.461680	-0.110337	0.927144
C107	C	-0.018610	-0.590621	0.446974
C108	C	0.481390	-0.090621	0.946974
C109	C	0.029642	-0.687402	0.495454
C110	C	0.529642	-0.187402	0.995454
C111	C	0.009933	-0.707121	0.475630
C112	C	0.509933	-0.207121	0.975630
C113	C	-0.038148	-0.610347	0.324832
C114	C	0.461852	-0.110347	0.824832
C115	C	-0.018301	-0.590634	0.265579
C116	C	0.481699	-0.090634	0.765579
C117	C	0.030035	-0.687421	0.265643
C118	C	0.530035	-0.187421	0.765643
C119	C	0.010190	-0.707133	0.324897
C120	C	0.510190	-0.207133	0.824897
C121	C	-0.023903	-0.668595	0.354491
C122	C	0.476097	-0.168595	0.854491
C123	C	-0.024062	-0.755463	0.441426
C124	C	0.475938	-0.255463	0.941426
N125	N	0.503527	-0.540005	0.569810
N126	N	1.003527	-0.040005	1.069810
O127	O	0.684453	-0.545211	0.434650
O128	O	1.184453	-0.045211	0.934650
O129	O	0.684643	-0.655237	0.584005
O130	O	1.184643	-0.155237	1.084005
O131	O	0.684567	-0.654986	0.489282
O132	O	1.184567	-0.154986	0.989282
O133	O	0.684529	-0.545462	0.529373
O134	O	1.184529	-0.045462	1.029373
O135	O	0.590438	-0.623674	0.520735
O136	O	1.090438	-0.123674	1.020735
O137	O	0.590513	-0.623924	0.615457
O138	O	1.090513	-0.123924	1.115457
O139	O	0.590323	-0.513899	0.466102
O140	O	1.090323	-0.013899	0.966102
Cu141	Cu	0.581823	-0.566053	0.543652
Cu142	Cu	1.081823	-0.066053	1.043652
Cu143	Cu	0.693143	-0.603083	0.506456
Cu144	Cu	1.193143	-0.103083	1.006456
O145	O	0.590399	-0.514149	0.560825
O146	O	1.090399	-0.014149	1.060825
N147	N	0.771439	-0.629131	0.480292
N148	N	1.271439	-0.129131	0.980292
N149	N	0.104456	-0.141061	0.570015
N150	N	0.604456	0.358939	1.070015
O151	O	-0.030629	0.039964	0.564688
O152	O	0.469371	0.539964	1.064688
O153	O	0.118732	0.039984	0.454661
O154	O	0.618732	0.539984	0.954661
O155	O	0.023980	0.039958	0.454946
O156	O	0.523980	0.539958	0.954946
O157	O	0.064123	0.039990	0.564403
O158	O	0.564123	0.539990	1.064403
O159	O	0.055392	-0.054179	0.486321
O160	O	0.555392	0.445821	0.986321
O161	O	0.150144	-0.054153	0.486036
O162	O	0.650144	0.445847	0.986036
O163	O	0.000784	-0.054173	0.596063
O164	O	0.500784	0.445827	1.096063
Cu165	Cu	0.078332	-0.062759	0.543914
Cu166	Cu	0.578332	0.437241	1.043914
Cu167	Cu	0.041183	0.048570	0.506810
Cu168	Cu	0.541183	0.548570	1.006810
O169	O	0.095535	-0.054147	0.595778
O170	O	0.595535	0.445853	1.095778
N171	N	0.015053	0.126872	0.480710
N172	N	0.515053	0.626872	0.980710
N173	N	0.104760	-0.540096	0.968910
N174	N	0.604760	-0.040096	1.468910
O175	O	0.099447	-0.675167	1.149923
O176	O	0.599447	-0.175167	1.649923
O177	O	-0.010552	-0.525757	1.149951
O178	O	0.489448	-0.025757	1.649951
O179	O	-0.010297	-0.620493	1.149918
O180	O	0.489703	-0.120493	1.649918
O181	O	0.099192	-0.580431	1.149956
O182	O	0.599192	-0.080431	1.649956
O183	O	0.021064	-0.589100	1.055785
O184	O	0.521064	-0.089100	1.555785
O185	O	0.020809	-0.494365	1.055818
O186	O	0.520809	0.005635	1.555818
O187	O	0.130808	-0.643774	1.055790
O188	O	0.630808	-0.143774	1.555790
Cu189	Cu	0.078672	-0.566203	1.047209
Cu190	Cu	0.578672	-0.066203	1.547209
Cu191	Cu	0.041584	-0.603328	1.158532
Cu192	Cu	0.541584	-0.103328	1.658532
O193	O	0.130553	-0.549038	1.055823
O194	O	0.630553	-0.049038	1.555823
N195	N	0.015495	-0.629442	1.236831
N196	N	0.515495	-0.129442	1.736831
C197	C	0.036087	-0.491140	0.455465
C198	C	0.536087	0.008860	0.955465
C199	C	0.153325	-0.608283	0.455364
C200	C	0.653325	-0.108283	0.955364
C201	C	0.083488	-0.678322	0.595370
C202	C	0.583488	-0.178322	1.095370
C203	C	-0.033750	-0.561180	0.595470
C204	C	0.466250	-0.061180	1.095470
C205	C	0.637601	-0.654732	0.618548
C206	C	1.137601	-0.154732	1.118548
C207	C	0.637509	-0.654422	0.501245
C208	C	1.137509	-0.154422	1.001245
C209	C	0.637362	-0.514403	0.431560
C210	C	1.137362	-0.014403	0.931560
C211	C	0.637458	-0.514713	0.548862
C212	C	1.137458	-0.014713	1.048862
C213	C	0.153215	-0.006966	0.455158
C214	C	0.653215	0.493034	0.955158
C215	C	0.035916	-0.007114	0.455550
C216	C	0.535916	0.492886	0.955550
C217	C	-0.033739	-0.007106	0.595527
C218	C	0.466261	0.492894	1.095527
C219	C	0.083600	-0.007076	0.595174
C220	C	0.583600	0.492924	1.095174
C221	C	-0.010020	-0.491238	1.102888
C222	C	0.489980	0.008762	1.602888
C223	C	-0.009698	-0.608550	1.102828
C224	C	0.490302	-0.108550	1.602828
C225	C	0.130276	-0.678293	1.102853
C226	C	0.630276	-0.178293	1.602853
C227	C	0.129961	-0.560974	1.102892
C228	C	0.629961	-0.060974	1.602892
H229	H	0.018524	-0.494668	0.964293
H230	H	0.518524	0.005332	1.464293
H231	H	0.637649	-0.689271	0.661445
H232	H	1.137649	-0.189271	1.161445
C233	C	0.024310	-0.007130	0.409096
C234	C	0.524310	0.492870	0.909096
H235	H	-0.013167	-0.007142	0.422941
H236	H	0.486833	0.492858	0.922941
H237	H	0.028513	0.025696	0.376903
H238	H	0.528513	0.525696	0.876903
H239	H	0.050421	-0.039963	0.398794
H240	H	0.550421	0.460037	0.898794
C241	C	0.067528	-0.729815	0.233097
C242	C	0.567528	-0.229815	0.733097
H243	H	0.073169	-0.767328	0.259249
H244	H	0.573169	-0.267328	0.759249
H245	H	0.049486	-0.724104	0.209922
H246	H	0.549486	-0.224104	0.709922
H247	H	0.103067	-0.724174	0.210046
H248	H	0.603067	-0.224174	0.710046
H249	H	0.196022	-0.006699	0.420530
H250	H	0.696022	0.493301	0.920530
H251	H	-0.044080	-0.617108	1.102779
H252	H	0.455920	-0.117108	1.602779
H253	H	-0.076633	-0.007113	0.630069
H254	H	0.423367	0.492887	1.130069
C255	C	0.095208	-0.007067	0.641631
C256	C	0.595208	0.492933	1.141631
H257	H	0.132688	-0.007064	0.627789
H258	H	0.632688	0.492936	1.127789
H259	H	0.069098	0.025759	0.651942
H260	H	0.569098	0.525759	1.151942
H261	H	0.091009	-0.039901	0.673821
H262	H	0.591009	0.460099	1.173821
C263	C	0.507306	-0.440617	0.530159
C264	C	1.007306	0.059383	1.030159
H265	H	0.481170	-0.403359	0.527986
H266	H	0.981170	0.096641	1.027986
H267	H	0.530441	-0.450528	0.550331
H268	H	1.030441	0.049472	1.050331
H269	H	0.530396	-0.442130	0.493033
H270	H	1.030396	0.057870	0.993033
H271	H	0.637525	-0.688829	0.492664
H272	H	1.137525	-0.188829	0.992664
H273	H	-0.044554	-0.448327	1.102896
H274	H	0.455446	0.051673	1.602896
C275	C	0.637281	-0.467735	0.373618
C276	C	1.137281	0.032265	0.873618
H277	H	0.637273	-0.481410	0.349837
H278	H	1.137273	0.018590	0.849837
H279	H	0.604437	-0.435587	0.378604
H280	H	1.104437	0.064413	0.878604
H281	H	0.670091	-0.457425	0.356662
H282	H	1.170091	0.042575	0.856662
C283	C	0.176932	-0.736259	1.102840
C284	C	0.676932	-0.236259	1.602840
H285	H	0.163262	-0.760039	1.102831
H286	H	0.663262	-0.260039	1.602831
H287	H	0.209092	-0.731302	1.070016
H288	H	0.709092	-0.231302	1.570016
H289	H	0.187217	-0.753201	1.135673
H290	H	0.687217	-0.253201	1.635673
C291	C	0.176432	-0.549397	1.102896
C292	C	0.676432	-0.049397	1.602896
H293	H	0.162600	-0.511914	1.102900
H294	H	0.662600	-0.011914	1.602900
H295	H	0.186751	-0.575510	1.135718
H296	H	0.686751	-0.075510	1.635718
H297	H	0.208613	-0.553615	1.070061
H298	H	0.708613	-0.053615	1.570061
H299	H	0.194117	-0.582425	0.964198
H300	H	0.694117	-0.082425	1.464198
C301	C	0.043269	-0.449080	0.848347
C302	C	0.543269	0.050920	1.348347
H303	H	0.063346	-0.439352	0.808811
H304	H	0.563346	0.060648	1.308811
H305	H	0.020157	-0.469183	0.858068
H306	H	0.520157	0.030817	1.358068
H307	H	0.020157	-0.415576	0.858071
H308	H	0.520157	0.084424	1.358071
C309	C	0.246511	-0.550659	0.848232
C310	C	0.746511	-0.050659	1.348232
H311	H	0.266637	-0.573773	0.874347
H312	H	0.766637	-0.073773	1.374347
H313	H	0.256218	-0.570758	0.825113
H314	H	0.756218	-0.070758	1.325113
H315	H	0.256205	-0.517146	0.825121
H316	H	0.756205	-0.017146	1.325121
C317	C	0.637437	-0.468229	0.560446
C318	C	1.137437	0.031771	1.060446
H319	H	0.637393	-0.435279	0.527737
H320	H	1.137393	0.064721	1.027737
H321	H	0.604629	-0.459446	0.591339
H322	H	1.104629	0.040554	1.091339
H323	H	0.670284	-0.481284	0.569399
H324	H	1.170284	0.018716	1.069399
C325	C	0.043141	-0.449055	0.661020
C326	C	0.543141	0.050945	1.161020
H327	H	0.005616	-0.443359	0.666726
H328	H	0.505616	0.056641	1.166726
H329	H	0.048858	-0.467153	0.696526
H330	H	0.548858	0.032847	1.196526
H331	H	0.048820	-0.413535	0.642928
H332	H	0.548820	0.086465	1.142928
H333	H	0.018285	-0.494604	0.615454
H334	H	0.518285	0.005396	1.115454
C335	C	0.095001	-0.736337	0.641911
C336	C	0.595001	-0.236337	1.141911
H337	H	0.062267	-0.736489	0.674830
H338	H	0.562267	-0.236489	1.174830
H339	H	0.103965	-0.765106	0.628885
H340	H	0.603965	-0.265106	1.128885
H341	H	0.125870	-0.743201	0.650736
H342	H	0.625870	-0.243201	1.150736
C343	C	0.204813	-0.592088	0.517883
C344	C	0.704813	-0.092088	1.017883
H345	H	0.242338	-0.597775	0.512169
H346	H	0.742338	-0.097775	1.012169
H347	H	0.199134	-0.627605	0.535970
H348	H	0.699134	-0.127605	1.035970
H349	H	0.199094	-0.573985	0.482375
H350	H	0.699094	-0.073985	0.982375
C351	C	-0.091726	-0.549759	0.642069
C352	C	0.408274	-0.049759	1.142069
H353	H	-0.115474	-0.512293	0.628343
H354	H	0.384526	-0.012293	1.128343
H355	H	-0.108690	-0.575918	0.652384
H356	H	0.391310	-0.075918	1.152384
H357	H	-0.086781	-0.554011	0.674229
H358	H	0.413219	-0.054011	1.174229
C359	C	0.211298	-0.619703	0.408761
C360	C	0.711298	-0.119703	0.908761
H361	H	0.211389	-0.586936	0.375868
H362	H	0.711389	-0.086936	0.875868
H363	H	0.240091	-0.628657	0.421750
H364	H	0.740091	-0.128657	0.921750
H365	H	0.218174	-0.650558	0.399907
H366	H	0.718174	-0.150558	0.899907
C367	C	0.246311	-0.550606	0.559333
C368	C	0.746311	-0.050606	1.059333
H369	H	0.266405	-0.573719	0.536209
H370	H	0.766405	-0.073719	1.036209
H371	H	0.256008	-0.517097	0.539232
H372	H	0.756008	-0.017097	1.039232
H373	H	0.256054	-0.570719	0.592826
H374	H	0.756054	-0.070719	1.092826
H375	H	0.498884	-0.625426	0.604536
H376	H	0.998884	-0.125426	1.104536
C377	C	0.382939	-0.600478	0.648462
C378	C	0.882939	-0.100478	1.148462
H379	H	0.343406	-0.580443	0.659043
H380	H	0.843406	-0.080443	1.159043
H381	H	0.392635	-0.619209	0.624084
H382	H	0.892635	-0.119209	1.124084
H383	H	0.392676	-0.627610	0.681385
H384	H	0.892676	-0.127610	1.181385
C385	C	0.382882	-0.399151	0.571687
C386	C	0.882882	0.100849	1.071687
H387	H	0.409006	-0.379313	0.552086
H388	H	0.909006	0.120687	1.052086
H389	H	0.359749	-0.385251	0.549990
H390	H	0.859749	0.114749	1.049990
H391	H	0.359787	-0.393658	0.607294
H392	H	0.859787	0.106342	1.107294
H393	H	0.149834	-0.145702	0.483792
H394	H	0.649834	0.354298	0.983792
C395	C	0.195437	-0.261661	0.508586
C396	C	0.695437	0.238339	1.008586
H397	H	0.201098	-0.235522	0.471068
H398	H	0.701098	0.264478	0.971068
H399	H	0.230963	-0.284772	0.514256
H400	H	0.730963	0.215228	1.014256
H401	H	0.177343	-0.284779	0.514289
H402	H	0.677343	0.215221	1.014289
H403	H	0.098041	-0.253238	0.695156
H404	H	0.598041	0.246762	1.195156
C405	C	0.052443	-0.137280	0.670362
C406	C	0.552443	0.362720	1.170362
H407	H	0.046775	-0.163419	0.707880
H408	H	0.546775	0.336581	1.207880
H409	H	0.070529	-0.114158	0.664659
H410	H	0.570529	0.385842	1.164659
H411	H	0.016913	-0.114173	0.664692
H412	H	0.516913	0.385827	1.164692
H413	H	-0.029909	-0.543201	0.241439
H414	H	0.470091	-0.043201	0.741439
H415	H	-0.065911	-0.578960	0.348925
H416	H	0.434089	-0.078960	0.848925
H417	H	0.021795	-0.754566	0.349042
H418	H	0.521795	-0.254566	0.849042
H419	H	-0.030233	-0.543188	0.435308
H420	H	0.469767	-0.043188	0.935308
C421	C	0.067026	-0.729787	0.533016
C422	C	0.567026	-0.229787	1.033016
H423	H	0.076726	-0.709704	0.542770
H424	H	0.576726	-0.209704	1.042770
H425	H	0.046879	-0.752871	0.566492
H426	H	0.546879	-0.252871	1.066492
H427	H	0.100544	-0.752932	0.512951
H428	H	0.600544	-0.252932	1.012951
C429	C	0.025631	-0.771196	0.491388
C430	C	0.525631	-0.271196	0.991388
H431	H	0.048696	-0.791322	0.514565
H432	H	0.548696	-0.291322	1.014565
H433	H	-0.007888	-0.780866	0.511425
H434	H	0.492112	-0.280866	1.011425
H435	H	0.045783	-0.780930	0.457889
H436	H	0.545783	-0.280930	0.957889
C437	C	0.075620	-0.752619	0.402233
C438	C	0.575620	-0.252619	0.902233
H439	H	0.112856	-0.778785	0.400126
H440	H	0.612856	-0.278785	0.900126
H441	H	0.074173	-0.729512	0.365089
H442	H	0.574173	-0.229512	0.865089
H443	H	0.065682	-0.729501	0.422436
H444	H	0.565682	-0.229501	0.922436
H445	H	0.100481	-0.868567	0.446139
H446	H	0.600481	-0.368567	0.946139
C447	C	-0.084338	-0.876815	0.520188
C448	C	0.415662	-0.376815	1.020188
H449	H	-0.064328	-0.916357	0.530776
H450	H	0.435672	-0.416357	1.030776
H451	H	-0.111500	-0.867072	0.553093
H452	H	0.388500	-0.367072	1.053093
H453	H	-0.103026	-0.867092	0.495755
H454	H	0.396974	-0.367092	0.995755
C455	C	-0.125708	-0.752387	0.478635
C456	C	0.374292	-0.252387	0.978635
H457	H	-0.145566	-0.778486	0.498187
H458	H	0.354434	-0.278486	0.998187
H459	H	-0.139638	-0.729258	0.500345
H460	H	0.360362	-0.229258	1.000345
H461	H	-0.131135	-0.729280	0.442997
H462	H	0.368865	-0.229280	0.942997
H463	H	-0.065985	-0.578958	0.399332
H464	H	0.434015	-0.078958	0.899332
H465	H	-0.116569	-0.710512	0.530934
H466	H	0.383431	-0.210512	1.030934
H467	H	0.027560	-0.448192	0.421017
H468	H	0.527560	0.051808	0.921017
H469	H	-0.223743	-0.586821	0.390905
H470	H	0.276257	-0.086821	0.890905
C471	C	-0.232553	-0.678618	0.583209
C472	C	0.267447	-0.178618	1.083209
H473	H	-0.272070	-0.661928	0.589380
H474	H	0.227930	-0.161928	1.089380
H475	H	-0.222885	-0.718593	0.599870
H476	H	0.277115	-0.218593	1.099870
H477	H	-0.222873	-0.665001	0.599892
H478	H	0.277127	-0.165001	1.099892
C479	C	-0.107760	-0.618703	0.338630
C480	C	0.392240	-0.118703	0.838630
H481	H	-0.133837	-0.595567	0.318460
H482	H	0.366163	-0.095567	0.818460
H483	H	-0.084634	-0.598639	0.328965
H484	H	0.415366	-0.098639	0.828965
H485	H	-0.084652	-0.652229	0.328945
H486	H	0.415348	-0.152229	0.828945
