data_functionalizedCrystal
_audit_creation_method	'MofGen! by Chris Wilmer'
_symmetry_space_group_name_H-M	'P1'
_symmetry_Int_Tables_number	1
_symmetry_cell_setting	triclinic
loop_
_symmetry_equiv_pos_as_xyz
  x,y,z
_cell_length_a	13.033293
_cell_length_b	12.759394
_cell_length_c	12.759387
_cell_angle_alpha	89.968340
_cell_angle_beta	82.788503
_cell_angle_gamma	97.184672
loop_
_atom_site_label
_atom_site_type_symbol
_atom_site_fract_x
_atom_site_fract_y
_atom_site_fract_z
Zn1	Zn	1.597812	-0.214390	-0.798419
Zn2	Zn	1.597702	-0.390120	-0.622723
Zn3	Zn	1.423035	-0.236737	-0.600396
Zn4	Zn	1.423027	-0.412323	-0.776015
O5	O	1.510394	-0.313393	-0.699388
O6	O	1.744044	-0.219056	-0.793833
O7	O	1.574490	-0.369834	-0.472735
O8	O	1.446268	-0.086745	-0.626696
O9	O	1.743964	-0.348165	-0.664750
O10	O	1.574676	-0.070327	-0.772183
O11	O	1.446162	-0.257144	-0.456331
O12	O	1.276787	-0.278673	-0.604971
O13	O	1.446255	-0.386006	-0.926013
O14	O	1.276781	-0.407676	-0.733998
O15	O	1.574668	-0.240585	-0.942474
O16	O	1.574482	-0.540093	-0.643025
O17	O	1.446149	-0.556405	-0.755648
C18	C	1.238863	-0.348010	-0.664631
C19	C	1.122701	-0.362844	-0.649787
C20	C	1.070952	-0.305677	-0.707135
C21	C	0.950893	-0.321008	-0.691794
C22	C	1.510331	-0.586368	-0.699355
C23	C	1.510400	-0.703136	-0.699388
C24	C	1.644134	-0.686084	-0.582227
C25	C	1.711028	-0.732415	-0.523663
C26	C	1.711089	-0.842129	-0.523699
C27	C	1.644251	-0.905515	-0.582309
C28	C	1.577357	-0.859183	-0.640873
C29	C	1.577301	-0.749466	-0.640828
C30	C	1.443630	-0.876235	-0.758038
C31	C	1.443562	-0.766522	-0.757997
C32	C	1.376792	-0.939620	-0.816648
C33	C	1.309891	-0.893290	-0.875208
C34	C	1.309832	-0.783569	-0.875168
C35	C	1.376668	-0.720190	-0.816562
C36	C	1.782985	-0.278641	-0.734281
C37	C	1.899146	-0.263832	-0.749151
C38	C	1.510473	-0.313280	-0.973432
C39	C	1.510506	-0.313231	-1.090213
C40	C	1.510485	-0.039347	-0.699448
C41	C	1.510524	0.077434	-0.699474
C42	C	1.644233	-0.161812	-1.107374
C43	C	1.711110	-0.086085	-1.170818
C44	C	1.711136	-0.086043	-1.280543
C45	C	1.644274	-0.161735	-1.326825
C46	C	1.577396	-0.237462	-1.263382
C47	C	1.577380	-0.237498	-1.153656
C48	C	1.443666	-0.388875	-1.246220
C49	C	1.443645	-0.388923	-1.136496
C50	C	1.376805	-0.464567	-1.292503
C51	C	1.309931	-0.540301	-1.229060
C52	C	1.309909	-0.540340	-1.119329
C53	C	1.376767	-0.464650	-1.073052
C54	C	1.510375	-0.313422	-0.426418
C55	C	1.510544	-0.313148	-0.309664
H56	H	1.644077	-0.596750	-0.582176
H57	H	1.255492	-0.601918	-1.266752
H58	H	1.765587	-0.024374	-1.332198
H59	H	1.376826	-0.464524	-1.381847
Cl60	Cl	1.225823	-0.635541	-1.039580
H61	H	0.943720	-0.203529	-0.809606
Cl62	Cl	1.376427	-1.077602	-0.816192
Cl63	Cl	1.225737	-0.725333	-0.948803
H64	H	1.115531	-0.245380	-0.767587
Cl65	Cl	1.644299	-0.161672	-1.464765
Cl66	Cl	1.225883	-0.972976	-0.948887
Cl67	Cl	1.644221	-0.161871	-0.969436
Cl68	Cl	0.882079	-0.414098	-0.598442
Cl69	Cl	1.053884	-0.455930	-0.556439
H70	H	1.376760	-0.464679	-0.983710
Cl71	Cl	1.376903	-0.582224	-0.816851
H72	H	1.765565	-0.879850	-0.476017
Cl73	Cl	1.795053	-0.652726	-0.449992
H74	H	1.644316	-0.994847	-0.582344
H75	H	1.765546	-0.024457	-1.133122
