data_functionalizedCrystal
_audit_creation_method	'MofGen! by Chris Wilmer'
_symmetry_space_group_name_H-M	'P1'
_symmetry_Int_Tables_number	1
_symmetry_cell_setting	triclinic
loop_
_symmetry_equiv_pos_as_xyz
  x,y,z
_cell_length_a	17.639181
_cell_length_b	17.638516
_cell_length_c	17.640968
_cell_angle_alpha	87.860832
_cell_angle_beta	87.836484
_cell_angle_gamma	92.118618
loop_
_atom_site_label
_atom_site_type_symbol
_atom_site_fract_x
_atom_site_fract_y
_atom_site_fract_z
Zn1	Zn	1.171668	0.488993	-0.308382
Zn2	Zn	1.671668	0.988993	0.191618
Zn3	Zn	1.123950	0.630537	-0.214455
Zn4	Zn	1.623950	1.130537	0.285545
Zn5	Zn	1.020518	0.479415	-0.204894
Zn6	Zn	1.520518	0.979415	0.295106
Zn7	Zn	1.030099	0.582916	-0.355989
Zn8	Zn	1.530099	1.082916	0.144011
O9	O	1.086559	0.545465	-0.270930
O10	O	1.586559	1.045465	0.229070
O11	O	1.267871	0.531707	-0.279999
O12	O	1.767871	1.031707	0.220001
O13	O	1.086250	0.626411	-0.110644
O14	O	1.586250	1.126411	0.389356
O15	O	1.056529	0.378134	-0.194697
O16	O	1.556529	0.878134	0.305303
O17	O	1.232814	0.635699	-0.210992
O18	O	1.732814	1.135699	0.289008
O19	O	1.167577	0.385171	-0.270729
O20	O	1.667577	0.885171	0.229271
O21	O	1.010259	0.515383	-0.103620
O22	O	1.510259	1.015383	0.396380
O23	O	0.919255	0.469207	-0.240860
O24	O	1.419255	0.969207	0.259140
O25	O	1.072858	0.554536	-0.452217
O26	O	1.572858	1.054536	0.047783
O27	O	0.926294	0.545248	-0.351869
O28	O	1.426294	1.045248	0.148131
O29	O	1.176868	0.485531	-0.417239
O30	O	1.676868	0.985531	0.082761
O31	O	1.095541	0.726771	-0.257155
O32	O	1.595541	1.226771	0.242845
O33	O	1.026588	0.691785	-0.361139
O34	O	1.526588	1.191785	0.138861
C35	C	0.896189	0.501021	-0.300494
C36	C	1.396189	1.001021	0.199506
C37	C	0.814749	0.482022	-0.313163
C38	C	1.314749	0.982022	0.186837
C39	C	0.455638	0.689956	-0.174732
C40	C	0.955638	1.189956	0.325268
C41	C	0.379116	0.672093	-0.186640
C42	C	0.879116	1.172093	0.313360
C43	C	0.415630	0.563937	-0.258673
C44	C	0.915630	1.063937	0.241327
C45	C	0.492156	0.581788	-0.246767
C46	C	0.992156	1.081788	0.253233
C47	C	0.512154	0.644799	-0.204797
C48	C	1.012154	1.144799	0.295203
C49	C	0.548672	0.536632	-0.276832
C50	C	1.048672	1.036632	0.223168
C51	C	0.625192	0.554484	-0.264931
C52	C	1.125192	1.054484	0.235069
C53	C	0.645196	0.617494	-0.222964
C54	C	1.145196	1.117494	0.277036
C55	C	0.588674	0.662652	-0.192895
C56	C	1.088674	1.162652	0.307105
C57	C	0.528673	0.473624	-0.318807
C58	C	1.028673	0.973624	0.181193
C59	C	0.585189	0.428467	-0.348872
C60	C	1.085189	0.928467	0.151128
C61	C	0.661710	0.446317	-0.336966
C62	C	1.161710	0.946317	0.163034
C63	C	0.681714	0.509326	-0.294999
C64	C	1.181714	1.009326	0.205001
C65	C	0.718232	0.401158	-0.367035
C66	C	1.218232	0.901158	0.132965
C67	C	0.794752	0.419011	-0.355133
C68	C	1.294752	0.919011	0.144867
C69	C	0.758234	0.527179	-0.283098
C70	C	1.258234	1.027179	0.216902
C71	C	1.056950	0.735871	-0.315363
C72	C	1.556950	1.235871	0.184637
C73	C	1.044356	0.817339	-0.334386
C74	C	1.544356	1.317339	0.165614
C75	C	1.131254	0.515790	-0.462060
C76	C	1.631254	1.015790	0.037940
C77	C	1.150301	0.503144	-0.543508
C78	C	1.650301	1.003144	-0.043508
C79	C	1.277672	0.590083	-0.241251
C80	C	1.777672	1.090083	0.258749
C81	C	1.359113	0.609097	-0.228604
C82	C	1.859113	1.109097	0.271396
C83	C	1.116307	0.354318	-0.226336
C84	C	1.616307	0.854318	0.273664
C85	C	1.128984	0.272863	-0.207333
C86	C	1.628984	0.772863	0.292667
C87	C	1.182688	1.176240	-0.126402
C88	C	1.682688	1.676240	0.373598
C89	C	1.170844	1.252787	-0.144291
C90	C	1.670844	1.752787	0.355709
C91	C	1.098948	1.216393	-0.252509
C92	C	1.598948	1.716393	0.247491
C93	C	1.110783	1.139841	-0.234627
C94	C	1.610783	1.639841	0.265373
C95	C	1.152654	1.119771	-0.171573
C96	C	1.652654	1.619771	0.328427
C97	C	1.080749	1.083372	-0.279797
C98	C	1.580749	1.583372	0.220203
C99	C	1.092586	1.006828	-0.261919
C100	C	1.592586	1.506828	0.238081
C101	C	1.134457	0.986751	-0.198870
C102	C	1.634457	1.486751	0.301130
C103	C	1.164491	1.043227	-0.153695
C104	C	1.664491	1.543227	0.346305
C105	C	1.038882	1.103444	-0.342854
C106	C	1.538882	1.603444	0.157146
C107	C	1.008848	1.046975	-0.388025
C108	C	1.508848	1.546975	0.111975
C109	C	1.020681	0.970428	-0.370143
C110	C	1.520681	1.470428	0.129857
C111	C	1.062552	0.950352	-0.307094
C112	C	1.562552	1.450352	0.192906
C113	C	0.990647	0.913953	-0.415318
C114	C	1.490647	1.413953	0.084682
C115	C	1.002484	0.837408	-0.397440
C116	C	1.502484	1.337408	0.102560
C117	C	1.074390	0.873807	-0.289216
C118	C	1.574390	1.373807	0.210784
C119	C	0.942208	0.641201	-0.902430
C120	C	1.442208	1.141201	-0.402430
C121	C	0.960122	0.629313	-0.978958
C122	C	1.460122	1.129313	-0.478958
C123	C	1.068418	0.557464	-0.942529
C124	C	1.568418	1.057464	-0.442529
C125	C	1.050511	0.569344	-0.865996
C126	C	1.550511	1.069344	-0.365996
C127	C	0.987405	0.611213	-0.845953
C128	C	1.487405	1.111213	-0.345953
C129	C	1.095708	0.539356	-0.809520
C130	C	1.595708	1.039356	-0.309520
C131	C	1.077805	0.551238	-0.732994
C132	C	1.577805	1.051238	-0.232994
C133	C	1.014704	0.593107	-0.712944
C134	C	1.514704	1.093107	-0.212944
C135	C	0.969502	0.623095	-0.769427
C136	C	1.469502	1.123095	-0.269427
C137	C	1.158817	0.497491	-0.829564
C138	C	1.658817	0.997491	-0.329564
C139	C	1.204014	0.467503	-0.773088
C140	C	1.704014	0.967503	-0.273088
C141	C	1.186108	0.479380	-0.696560
C142	C	1.686108	0.979380	-0.196560
C143	C	1.123007	0.521250	-0.676510
C144	C	1.623007	1.021250	-0.176510
C145	C	1.231310	0.449393	-0.640076
C146	C	1.731310	0.949393	-0.140076
C147	C	1.213406	0.461275	-0.563550
C148	C	1.713406	0.961275	-0.063550
C149	C	1.105103	0.533132	-0.599984
C150	C	1.605103	1.033132	-0.099984
C151	C	1.042088	0.574982	-0.080525
C152	C	1.542088	1.074982	0.419475
C153	C	1.023215	0.587454	0.000992
C154	C	1.523215	1.087454	0.500992
H155	H	0.471920	0.741262	-0.140550
H156	H	0.971920	1.241262	0.359450
H157	H	1.216777	1.159900	-0.075053
H158	H	1.716777	1.659900	0.424947
N159	N	0.318158	0.720804	-0.154215
N160	N	0.818158	1.220804	0.345785
H161	H	0.342441	0.763429	-0.125824
H162	H	0.842441	1.263429	0.374176
H163	H	0.283126	0.688772	-0.118317
H164	H	0.783126	1.188772	0.381683
H165	H	0.604956	0.713958	-0.158713
H166	H	1.104956	1.213958	0.341287
H167	H	0.568896	0.377165	-0.383046
H168	H	1.068896	0.877165	0.116954
H169	H	0.923311	0.653736	-1.024942
H170	H	1.423311	1.153736	-0.524942
N171	N	0.874144	0.686361	-0.880803
N172	N	1.374144	1.186361	-0.380803
H173	H	0.837399	0.653580	-0.847378
H174	H	1.337399	1.153580	-0.347378
H175	H	0.848285	0.703549	-0.928228
H176	H	1.348285	1.203549	-0.428228
H177	H	0.707504	0.632023	-0.213267
H178	H	1.207504	1.132023	0.286733
N179	N	1.037037	0.578290	-0.578363
N180	N	1.537037	1.078290	-0.078363
H181	H	1.054102	0.624132	-0.549908
H182	H	1.554102	1.124132	-0.049908
H183	H	1.000320	0.545452	-0.544966
H184	H	1.500320	1.045452	-0.044966
N185	N	0.995374	0.605930	-0.630411
N186	N	1.495374	1.105930	-0.130411
H187	H	1.039220	0.634000	-0.607299
H188	H	1.539220	1.134000	-0.107299
H189	H	0.985393	0.555350	-0.602400
H190	H	1.485393	1.055350	-0.102400
H191	H	1.119800	0.523377	-0.958860
H192	H	1.619800	1.023377	-0.458860
H193	H	0.974759	1.063327	-0.439364
H194	H	1.474759	1.563327	0.060636
N195	N	0.394059	0.495979	-0.303942
N196	N	0.894059	0.995979	0.196058
H197	H	0.337008	0.491521	-0.306921
H198	H	0.837008	0.991521	0.193079
H199	H	0.412920	0.448500	-0.278320
H200	H	0.912920	0.948500	0.221680
H201	H	0.956562	0.930307	-0.466660
H202	H	1.456562	1.430307	0.033340
N203	N	0.901434	0.668249	-0.747800
N204	N	1.401434	1.168249	-0.247800
H205	H	0.875514	0.685444	-0.795189
H206	H	1.375514	1.185444	-0.295189
H207	H	0.918557	0.714056	-0.719328
H208	H	1.418557	1.214056	-0.219328
N209	N	1.026102	1.186002	-0.362130
N210	N	1.526102	1.686002	0.137870
H211	H	0.995023	1.190148	-0.408928
H212	H	1.495023	1.690148	0.091072
H213	H	1.076696	1.213985	-0.372088
H214	H	1.576696	1.713985	0.127912
N215	N	1.203244	1.313696	-0.095571
N216	N	1.703244	1.813696	0.404429
H217	H	1.231565	1.289363	-0.052916
H218	H	1.731565	1.789363	0.447084
H219	H	1.160595	1.343809	-0.073688
H220	H	1.660595	1.843809	0.426312
H221	H	0.978028	0.791430	-0.434223
H222	H	1.478028	1.291430	0.065777
N223	N	0.855718	0.370322	-0.387571
N224	N	1.355718	0.870322	0.112429
H225	H	0.885807	0.348339	-0.344982
H226	H	1.385807	0.848339	0.155018
H227	H	0.890699	0.402364	-0.423509
H228	H	1.390699	0.902364	0.076491
N229	N	0.446140	0.454359	-0.331631
N230	N	0.946140	0.954359	0.168369
H231	H	0.442047	0.407591	-0.362782
H232	H	0.942047	0.907591	0.137218
H233	H	0.423064	0.498314	-0.359590
H234	H	0.923064	0.998314	0.140410
H235	H	1.108479	0.857467	-0.237866
H236	H	1.608479	1.357467	0.262134
H237	H	1.173393	0.487821	-0.891878
H238	H	1.673393	0.987821	-0.391878
H239	H	0.774516	0.578485	-0.248916
H240	H	1.274516	1.078485	0.251084
N241	N	1.053789	1.238042	-0.320514
N242	N	1.553789	1.738042	0.179486
H243	H	1.050847	1.295101	-0.324987
H244	H	1.550847	1.795101	0.175013
H245	H	1.000853	1.214276	-0.314072
H246	H	1.500853	1.714276	0.185928
N247	N	1.272077	0.422349	-0.794708
N248	N	1.772077	0.922349	-0.294708
H249	H	1.276562	0.419372	-0.851757
H250	H	1.776562	0.919372	-0.351757
H251	H	1.265684	0.369424	-0.770894
H252	H	1.765684	0.869424	-0.270894
H253	H	1.250210	0.436854	-0.517565
H254	H	1.750210	0.936854	-0.017565
N255	N	0.696660	0.333206	-0.412309
N256	N	1.196660	0.833206	0.087691
H257	H	0.639609	0.328751	-0.415290
H258	H	1.139609	0.828751	0.084710
H259	H	0.715518	0.285722	-0.386693
H260	H	1.215518	0.785722	0.113307
N261	N	1.147231	0.904195	-0.179577
N262	N	1.647231	1.404195	0.320423
H263	H	1.175272	0.881049	-0.223455
H264	H	1.675272	1.381049	0.276545
H265	H	1.096637	0.876232	-0.169556
H266	H	1.596637	1.376232	0.330444
N267	N	1.209640	1.021570	-0.085679
N268	N	1.709640	1.521570	0.414321
H269	H	1.226868	1.068957	-0.059769
H270	H	1.726868	1.568957	0.440231
H271	H	1.255424	0.993043	-0.102841
H272	H	1.755424	1.493043	0.397159
N273	N	1.299376	0.404244	-0.661699
N274	N	1.799376	0.904244	-0.161699
H275	H	1.303862	0.401271	-0.718748
H276	H	1.803862	0.901271	-0.218748
H277	H	1.292990	0.351318	-0.637888
H278	H	1.792990	0.851318	-0.137888
