data_functionalizedCrystal
_audit_creation_method	'MofGen! by Chris Wilmer'
_symmetry_space_group_name_H-M	'P1'
_symmetry_Int_Tables_number	1
_symmetry_cell_setting	triclinic
loop_
_symmetry_equiv_pos_as_xyz
  x,y,z
_cell_length_a	15.944551
_cell_length_b	14.853567
_cell_length_c	13.330367
_cell_angle_alpha	89.999156
_cell_angle_beta	89.996937
_cell_angle_gamma	83.566834
loop_
_atom_site_label
_atom_site_type_symbol
_atom_site_fract_x
_atom_site_fract_y
_atom_site_fract_z
O1	O	1.114658	0.116273	-0.083310
O2	O	0.870124	0.130608	-0.083334
O3	O	0.998923	-0.007798	-0.083325
O4	O	0.985859	0.254678	-0.083320
O5	O	0.998904	-0.007801	0.083522
O6	O	0.870105	0.130605	0.083513
O7	O	1.114639	0.116270	0.083537
Cu8	Cu	0.992370	0.123437	0.098759
Cu9	Cu	0.992392	0.123441	-0.098557
O10	O	0.985840	0.254675	0.083527
C11	C	0.998321	-0.041387	0.000096
C12	C	0.996547	-0.141469	0.000087
C13	C	0.838820	0.130011	0.000086
C14	C	0.745572	0.128227	0.000077
C15	C	0.912540	-0.553895	0.000098
C16	C	1.065556	-0.575372	0.000113
C17	C	1.067224	-0.481341	0.000107
C18	C	0.991549	-0.423582	0.000098
C19	C	0.914206	-0.459854	0.000095
C20	C	1.144565	-0.445061	0.000120
C21	C	1.146236	-0.351024	0.000116
C22	C	1.070560	-0.293263	0.000100
C23	C	0.993214	-0.329541	0.000096
C24	C	0.917539	-0.271782	0.000087
C25	C	0.840192	-0.308058	0.000075
C26	C	0.838530	-0.402093	0.000079
C27	C	1.072223	-0.199228	0.000096
C28	C	0.919205	-0.177741	0.000084
C29	C	0.530615	0.038172	0.000094
C30	C	0.469651	0.079992	-0.082169
C31	C	0.574842	0.124999	0.000088
C32	C	0.469654	0.080010	0.082329
C33	C	0.409926	0.121875	0.000104
C34	C	0.515106	0.166843	-0.082243
C35	C	0.515116	0.166849	0.082329
C36	C	0.454170	0.208732	0.000045
C37	C	0.669847	0.126797	0.000078
C38	C	0.314923	0.120085	0.000107
C39	C	1.145943	0.116866	0.000114
C40	C	1.239191	0.118650	0.000117
C41	C	0.986441	0.288265	0.000104
C42	C	0.988215	0.388346	0.000107
N43	N	0.992361	0.123434	0.237541
N44	N	0.992408	0.123437	-0.237338
C45	C	0.935358	0.184703	0.710159
C46	C	1.049450	0.062172	0.710136
C47	C	1.049440	0.062169	0.605118
C48	C	0.992389	0.123435	0.552615
C49	C	0.935348	0.184704	0.605131
C50	C	1.106486	0.000907	0.552594
C51	C	1.106479	0.000903	0.447569
C52	C	1.049424	0.062165	0.395065
C53	C	0.992380	0.123436	0.447587
C54	C	0.935329	0.184702	0.395085
C55	C	0.878280	0.245969	0.447606
C56	C	0.878293	0.245966	0.552627
C57	C	1.049411	0.062168	0.290043
C58	C	0.935320	0.184703	0.290057
H59	H	0.857580	-0.130719	0.000072
O60	O	0.766706	-0.251909	-0.000110
C61	C	0.763120	-0.196853	-0.086506
H62	H	0.806038	-0.231290	-0.146899
H63	H	0.695476	-0.186275	-0.115520
H64	H	0.784943	-0.128477	-0.066962
H65	H	0.563867	-0.033887	-0.000009
H66	H	1.206176	-0.492094	0.000137
H67	H	1.152939	-0.048970	0.595344
H68	H	1.095863	0.012289	0.247286
O69	O	0.414795	0.294824	0.000130
C70	C	0.438997	0.340792	0.086111
H71	H	0.502264	0.306982	0.114503
H72	H	0.445096	0.414428	0.066263
H73	H	0.389202	0.338137	0.147093
H74	H	1.209217	-0.321496	0.000124
H75	H	1.127167	-0.622405	0.000128
H76	H	0.775558	-0.431638	0.000071
O77	O	1.104823	0.002535	0.761028
C78	C	1.091041	-0.086719	0.735393
H79	H	1.058666	-0.086629	0.659141
H80	H	1.154120	-0.131085	0.731800
H81	H	1.049195	-0.114615	0.794506
H82	H	1.135197	-0.169696	0.000112
H83	H	0.535281	0.203541	0.151882
H84	H	0.888859	0.234590	0.247316
H85	H	0.449507	0.043269	-0.151719
H86	H	0.888907	0.234583	0.752924
H87	H	0.535143	0.203541	-0.151866
O88	O	0.445745	0.036061	0.165268
C89	C	0.485037	-0.053832	0.164935
H90	H	0.544438	-0.058152	0.116778
H91	H	0.502711	-0.075448	0.244938
H92	H	0.439737	-0.100586	0.132821
O93	O	1.161920	-0.058701	0.396711
C94	C	1.212290	-0.112758	0.465573
H95	H	1.177862	-0.113795	0.540445
H96	H	1.225018	-0.184750	0.435232
H97	H	1.274720	-0.083443	0.476724
H98	H	0.831833	0.295856	0.404846
H99	H	0.849566	-0.583435	0.000085
H100	H	0.831847	0.295848	0.595396
