data_functionalizedCrystal
_audit_creation_method	'MofGen! by Chris Wilmer'
_symmetry_space_group_name_H-M	'P1'
_symmetry_Int_Tables_number	1
_symmetry_cell_setting	triclinic
loop_
_symmetry_equiv_pos_as_xyz
  x,y,z
_cell_length_a	8.597340
_cell_length_b	10.540510
_cell_length_c	7.681481
_cell_angle_alpha	84.203102
_cell_angle_beta	103.474906
_cell_angle_gamma	84.924190
loop_
_atom_site_label
_atom_site_type_symbol
_atom_site_fract_x
_atom_site_fract_y
_atom_site_fract_z
O1	O	2.101822	0.175545	0.172465
O2	O	1.637989	0.195770	0.102091
O3	O	1.880512	0.000872	0.138888
O4	O	1.859299	0.370444	0.135668
O5	O	1.910362	-0.023171	0.436275
O6	O	1.667839	0.171727	0.399478
O7	O	2.131672	0.151502	0.469852
Zn8	Zn	1.904495	0.157797	0.481882
Zn9	Zn	1.865166	0.189475	0.090062
O10	O	1.889149	0.346401	0.433055
C11	C	1.593521	0.182916	0.241773
C12	C	1.416548	0.180420	0.214922
C13	C	1.893856	-0.058442	0.287338
C14	C	1.889125	-0.199356	0.286610
C15	C	2.057674	-0.418091	0.312853
C16	C	2.062651	-0.271477	0.312939
C17	C	1.783252	-0.229740	0.103314
C18	C	1.779423	-0.376463	0.102602
C19	C	1.809754	-0.403587	0.440238
C20	C	1.818209	-0.257486	0.443722
C21	C	2.176140	0.164356	0.330166
C22	C	2.353111	0.166854	0.357006
C23	C	1.875804	0.405714	0.284601
C24	C	1.880534	0.546630	0.285318
N25	N	1.931347	0.136177	0.749290
N26	N	1.838326	0.211085	-0.177345
H27	H	1.434190	0.157139	0.499199
H28	H	1.335462	0.190125	0.072720
H29	H	2.026321	0.059723	0.838906
H30	H	2.144371	-0.252479	0.445214
H31	H	2.137502	-0.470383	0.444896
C32	C	2.175255	-0.358879	0.066249
C33	C	2.132007	-0.464245	0.163137
H34	H	2.221148	-0.387377	-0.026175
H35	H	2.082302	-0.299618	0.013696
H36	H	2.251668	-0.318198	0.145520
H37	H	2.055584	-0.504921	0.083868
H38	H	2.224972	-0.523528	0.215691
C39	C	1.886062	-0.309956	-0.149992
C40	C	1.844186	-0.417505	-0.056317
H41	H	1.926056	-0.335294	-0.248094
H42	H	1.793753	-0.248682	-0.194546
H43	H	1.966799	-0.272966	-0.070865
H44	H	1.763439	-0.454490	-0.135441
H45	H	1.936507	-0.478801	-0.011764
H46	H	1.654872	-0.180913	0.077617
C47	C	1.501497	-0.290611	0.044113
C48	C	1.603176	-0.405399	0.065566
H49	H	1.392692	-0.308473	0.021223
H50	H	1.526828	-0.250693	0.151072
H51	H	1.515997	-0.234829	-0.054530
H52	H	1.588684	-0.461178	0.164217
H53	H	1.577835	-0.445336	-0.041406
C54	C	1.604399	-0.096317	0.282053
C55	C	1.648575	-0.191128	0.431632
H56	H	1.499666	-0.055355	0.274579
H57	H	1.679111	-0.034645	0.294801
H58	H	1.604436	-0.134658	0.175330
H59	H	1.648549	-0.152786	0.538356
H60	H	1.573843	-0.252810	0.418897
C61	C	1.571974	-0.387666	0.553676
C62	C	1.634034	-0.432337	0.415116
H63	H	1.463493	-0.405414	0.538147
H64	H	1.634365	-0.429602	0.666868
H65	H	1.575952	-0.297678	0.549960
H66	H	1.630067	-0.522327	0.418840
H67	H	1.571626	-0.390405	0.301895
C68	C	1.628084	0.380380	0.808923
C69	C	1.710130	0.314302	0.701703
H70	H	1.548948	0.444108	0.734242
H71	H	1.577340	0.321734	0.873136
H72	H	1.702325	0.420129	0.892088
H73	H	1.635891	0.274545	0.618547
H74	H	1.760875	0.372957	0.637460
H75	H	2.120317	-0.233720	0.201603
H76	H	1.832255	-0.189114	-0.013706
H77	H	1.877819	-0.456576	0.577328
H78	H	1.895454	-0.239500	0.579159
