data_functionalizedCrystal
_audit_creation_method	'MofGen! by Chris Wilmer'
_symmetry_space_group_name_H-M	'P1'
_symmetry_Int_Tables_number	1
_symmetry_cell_setting	triclinic
loop_
_symmetry_equiv_pos_as_xyz
  x,y,z
_cell_length_a	10.540510
_cell_length_b	15.944493
_cell_length_c	9.616153
_cell_angle_alpha	89.994148
_cell_angle_beta	90.003559
_cell_angle_gamma	83.994177
loop_
_atom_site_label
_atom_site_type_symbol
_atom_site_fract_x
_atom_site_fract_y
_atom_site_fract_z
O1	O	1.684261	0.118251	0.115634
O2	O	1.314687	0.129431	0.115633
O3	O	1.509604	0.001623	0.115645
O4	O	1.489343	0.246059	0.115622
O5	O	1.509590	0.001630	-0.115646
O6	O	1.314673	0.129438	-0.115658
O7	O	1.684246	0.118259	-0.115657
Zn8	Zn	1.499457	0.123849	-0.152380
Zn9	Zn	1.499476	0.123840	0.152356
O10	O	1.489329	0.246067	-0.115669
C11	C	1.267388	0.128601	-0.000012
C12	C	1.126473	0.126109	-0.000012
C13	C	0.907780	0.214897	0.000511
C14	C	1.054339	0.217555	-0.000019
C15	C	1.082357	0.079301	-0.132083
C16	C	0.935624	0.077290	-0.132185
C17	C	0.935860	0.075377	0.130837
C18	C	1.082141	0.079715	0.132574
C19	C	1.508769	-0.029674	0.000006
C20	C	1.506286	-0.122937	0.000023
C21	C	1.621019	-0.358021	-0.000003
C22	C	1.559155	-0.408957	0.114035
C23	C	1.501686	-0.293685	0.000006
C24	C	1.559113	-0.408926	-0.114000
C25	C	1.497251	-0.458621	-0.000016
C26	C	1.439854	-0.343393	0.114138
C27	C	1.439830	-0.343358	-0.113999
C28	C	1.377878	-0.394262	0.000066
C29	C	1.504244	-0.198670	0.000020
C30	C	1.494684	-0.553633	-0.000021
C31	C	1.731545	0.119088	-0.000009
C32	C	1.872461	0.121580	0.000000
C33	C	1.490164	0.277363	-0.000026
C34	C	1.492647	0.370626	-0.000035
N35	N	1.499454	0.123855	-0.360355
C36	C	1.395141	0.192214	-0.419403
C37	C	1.394792	0.192017	-0.580570
C38	C	1.471123	0.035909	-0.581131
C39	C	1.470354	0.036326	-0.419914
C40	C	1.632457	0.142623	-0.419742
C41	C	1.631585	0.144593	-0.580971
N42	N	1.499490	0.123827	0.360331
H43	H	1.132140	0.012952	0.140556
H44	H	1.130684	0.011980	-0.136989
N45	N	1.120495	0.120091	-0.255384
N46	N	1.180152	0.183624	-0.246334
H47	H	1.207086	0.212436	-0.333413
H48	H	0.914663	0.006720	0.131736
H49	H	1.543470	-0.016129	-0.380847
N50	N	1.622362	-0.444922	0.234978
N51	N	1.562568	-0.484950	0.320339
H52	H	1.607213	-0.510351	0.405751
N53	N	1.350877	0.014883	-0.631793
N54	N	1.345385	-0.050385	-0.702580
H55	H	1.260457	-0.065232	-0.738358
H56	H	1.659837	0.205433	-0.379100
H57	H	1.275008	-0.410334	0.000128
H58	H	0.865337	0.250520	0.095227
H59	H	1.710079	0.092788	-0.381543
N60	N	1.376683	-0.307609	0.235211
N61	N	1.368465	-0.229729	0.254784
H62	H	1.323855	-0.204454	0.340292
N63	N	0.882108	0.111634	0.256411
N64	N	0.796407	0.171974	0.250998
H65	H	0.758440	0.197589	0.339678
H66	H	1.411605	0.257333	-0.620152
H67	H	1.723809	-0.341787	0.000112
H68	H	1.389471	-0.314691	-0.210415
N69	N	1.089359	0.263757	-0.119005
N70	N	1.203825	0.273751	-0.140076
H71	H	1.228560	0.306380	-0.224118
N72	N	1.622368	-0.444839	-0.234933
N73	N	1.737417	-0.436217	-0.255218
H74	H	1.782100	-0.461580	-0.340621
H75	H	1.653111	0.209282	-0.619210
N76	N	1.733500	0.086272	-0.631392
N77	N	1.802037	0.041916	-0.547714
H78	H	1.874015	0.000720	-0.583319
N79	N	1.415872	0.274431	-0.370791
N80	N	1.507764	0.283609	-0.292054
H81	H	1.522409	0.341677	-0.257712
N82	N	1.270973	0.176817	-0.628976
N83	N	1.184549	0.166315	-0.543691
H84	H	1.097096	0.155577	-0.577874
H85	H	1.083181	0.254174	0.094658
H86	H	1.296986	0.180272	-0.378916
N87	N	1.348679	0.015821	-0.372770
N88	N	1.249655	0.061453	-0.406089
H89	H	1.163716	0.046979	-0.372798
N90	N	0.852574	0.259330	-0.117648
N91	N	0.787331	0.222569	-0.202232
H92	H	0.748340	0.253947	-0.285686
N93	N	0.884617	0.117426	-0.256047
N94	N	0.957426	0.146726	-0.341813
H95	H	0.921409	0.175074	-0.429294
H96	H	1.545116	-0.016239	-0.619405
H97	H	0.913581	0.008894	-0.138178
H98	H	1.110291	0.113772	0.230279
