data_functionalizedCrystal
_audit_creation_method	'MofGen! by Chris Wilmer'
_symmetry_space_group_name_H-M	'P1'
_symmetry_Int_Tables_number	1
_symmetry_cell_setting	triclinic
loop_
_symmetry_equiv_pos_as_xyz
  x,y,z
_cell_length_a	25.639239
_cell_length_b	12.759401
_cell_length_c	12.759393
_cell_angle_alpha	89.979062
_cell_angle_beta	90.035978
_cell_angle_gamma	89.959789
loop_
_atom_site_label
_atom_site_type_symbol
_atom_site_fract_x
_atom_site_fract_y
_atom_site_fract_z
Zn1	Zn	-0.208104	-1.606091	0.593980
Zn2	Zn	-0.295549	-1.605909	0.418283
Zn3	Zn	-0.208132	-1.430390	0.418315
Zn4	Zn	-0.295513	-1.430308	0.593921
O5	O	-0.251825	-1.518175	0.506125
O6	O	-0.219708	-1.753088	0.570685
O7	O	-0.283980	-1.582584	0.271266
O8	O	-0.134963	-1.453808	0.441656
O9	O	-0.283953	-1.752954	0.441601
O10	O	-0.134943	-1.582895	0.570716
O11	O	-0.219755	-1.453631	0.271290
O12	O	-0.219720	-1.283358	0.441598
O13	O	-0.283891	-1.453669	0.740950
O14	O	-0.283918	-1.283298	0.570615
O15	O	-0.219672	-1.582816	0.740993
O16	O	-0.368710	-1.582505	0.441544
O17	O	-0.368683	-1.453492	0.570584
C18	C	-0.251818	-1.245207	0.506104
C19	C	-0.251828	-1.128431	0.506120
C20	C	-0.387667	-1.517998	0.506077
C21	C	-0.445781	-1.518018	0.506091
C22	C	-0.251774	-1.518253	0.780158
C23	C	-0.251753	-1.518287	0.896935
C24	C	-0.806146	-1.585527	0.439048
C25	C	-0.860750	-1.585568	0.439062
O26	O	-0.888988	-1.642783	0.382007
N27	N	-0.888064	-1.518359	0.506194
C28	C	-0.860770	-1.451113	0.573324
O29	O	-0.889017	-1.393952	0.630428
C30	C	-0.806167	-1.451079	0.573315
C31	C	-0.778856	-1.518284	0.506171
C32	C	-0.778835	-1.652728	0.371910
C33	C	-0.724234	-1.652685	0.371895
C34	C	-0.696945	-1.585442	0.439018
C35	C	-0.724255	-1.518242	0.506156
C36	C	-0.778874	-1.383839	0.640449
C37	C	-0.724267	-1.383810	0.640435
C38	C	-0.696957	-1.451016	0.573291
C39	C	-0.642365	-1.450956	0.573263
N40	N	-0.615052	-1.518165	0.506131
C41	C	-0.642341	-1.585408	0.439008
C42	C	-0.975441	-1.451192	0.573341
C43	C	-1.030043	-1.451221	0.573346
C44	C	-1.030019	-1.585677	0.439085
C45	C	-0.975416	-1.585642	0.439075
C46	C	-0.948127	-1.518401	0.506208
C47	C	-0.527676	-1.585313	0.438981
C48	C	-0.473071	-1.585261	0.438969
C49	C	-0.473100	-1.450810	0.573233
C50	C	-0.527700	-1.450857	0.573242
C51	C	-0.554987	-1.518117	0.506112
O52	O	-0.614093	-1.393774	0.630292
O53	O	-0.614088	-1.642569	0.381925
C54	C	-0.115452	-1.518381	0.506196
C55	C	-0.057337	-1.518468	0.506226
C56	C	-0.251831	-1.792208	0.506146
C57	C	-0.251834	-1.908984	0.506156
C58	C	-0.285307	-1.073565	0.573193
C59	C	-0.285309	-0.963841	0.573214
C60	C	-0.218352	-0.963858	0.439079
C61	C	-0.218347	-1.073580	0.439065
C62	C	-0.304070	-0.813929	0.697071
C63	C	-0.337557	-0.759060	0.764135
C64	C	-0.388581	-0.794614	0.780073
C65	C	-0.406129	-0.885037	0.728931
C66	C	-0.372645	-0.939901	0.661860
C67	C	-0.321613	-0.904348	0.645942
C68	C	-0.199592	-1.223494	0.315206
C69	C	-0.166110	-1.278359	0.248129
C70	C	-0.115085	-1.242807	0.232180
C71	C	-0.097539	-1.152381	0.283303
C72	C	-0.131021	-1.097515	0.350380
C73	C	-0.182046	-1.133075	0.366331
C74	C	-0.251837	-1.518157	0.233157
C75	C	-0.251711	-1.518327	0.116381
C76	C	-0.218309	-1.585539	0.951821
C77	C	-0.218286	-1.585556	1.061546
C78	C	-0.285156	-1.451068	1.061487
C79	C	-0.285176	-1.451045	0.951765
C80	C	-0.156599	-1.623220	1.211536
C81	C	-0.123160	-1.690489	1.266426
C82	C	-0.115142	-1.793008	1.230836
C83	C	-0.140572	-1.828280	1.140358
C84	C	-0.174015	-1.761018	1.085473
C85	C	-0.182023	-1.658484	1.121061
C86	C	-0.346864	-1.413392	0.801773
C87	C	-0.380310	-1.346134	0.746887
C88	C	-0.388333	-1.243613	0.782474
C89	C	-0.362913	-1.208344	0.872956
C90	C	-0.329466	-1.275603	0.927843
C91	C	-0.321443	-1.378123	0.892247
H92	H	-0.450836	-1.639988	0.384288
F93	F	-0.302411	-1.238063	1.024142
H94	H	-0.312369	-1.396324	1.106143
F95	F	-0.556709	-1.656898	0.367534
H96	H	-0.262520	-0.784979	0.684111
H97	H	-0.801102	-1.329108	0.695120
H98	H	-0.702052	-1.329055	0.695106
H99	H	-0.549938	-1.396136	0.627919
H100	H	-0.415573	-1.188856	0.737781
F101	F	-0.407370	-1.383677	0.650593
F102	F	-0.182736	-1.657100	0.893471
F103	F	-0.320939	-1.131937	0.644562
H104	H	-0.194722	-1.789737	1.011811
F105	F	-0.043232	-1.114534	0.266322
H106	H	-0.087826	-1.287484	0.177550
H107	H	-0.953182	-1.640367	0.384401
H108	H	-0.102455	-1.661760	1.340093
F109	F	-0.165123	-1.514101	1.249412
F110	F	-1.059103	-1.379680	0.644798
F111	F	-0.253921	-1.261264	0.332074
H112	H	-0.369447	-1.124864	0.901935
F113	F	-0.338314	-1.522499	0.763871
H114	H	-0.450872	-1.396058	0.627881
H115	H	-0.953225	-1.396428	0.628006
F116	F	-0.112346	-1.001271	0.404785
H117	H	-0.134045	-1.911766	1.111393
H118	H	-0.801048	-1.707491	0.317251
F119	F	-0.695175	-1.724227	0.300443
F120	F	-1.059072	-1.657242	0.367645
H121	H	-0.386932	-1.013520	0.620221
H122	H	-0.447681	-0.913972	0.741905
F123	F	-0.182722	-0.905473	0.367717
H124	H	-0.415847	-0.749932	0.834679
H125	H	-0.323264	-0.685438	0.805775
H126	H	-0.087915	-1.847778	1.275535
H127	H	-0.180401	-1.351989	0.206501
