data_functionalizedCrystal
_audit_creation_method	'MofGen! by Chris Wilmer'
_symmetry_space_group_name_H-M	'P1'
_symmetry_Int_Tables_number	1
_symmetry_cell_setting	triclinic
loop_
_symmetry_equiv_pos_as_xyz
  x,y,z
_cell_length_a	12.594517
_cell_length_b	12.594517
_cell_length_c	10.685880
_cell_angle_alpha	85.655852
_cell_angle_beta	85.602337
_cell_angle_gamma	89.993934
loop_
_atom_site_label
_atom_site_type_symbol
_atom_site_fract_x
_atom_site_fract_y
_atom_site_fract_z
Zn1	Zn	1.673523	0.469824	-0.713591
Zn2	Zn	1.659788	0.634205	-0.502613
Zn3	Zn	1.481871	0.456239	-0.502600
Zn4	Zn	1.495536	0.647757	-0.713549
O5	O	1.577680	0.552006	-0.608088
O6	O	1.820649	0.491644	-0.685628
O7	O	1.624720	0.599241	-0.326034
O8	O	1.507323	0.309096	-0.530600
O9	O	1.810557	0.612414	-0.530623
O10	O	1.648130	0.319077	-0.685614
O11	O	1.494005	0.468489	-0.326024
O12	O	1.334736	0.481630	-0.530560
O13	O	1.530613	0.635511	-0.890133
O14	O	1.344776	0.622337	-0.685543
O15	O	1.661380	0.504785	-0.890163
O16	O	1.637970	0.784948	-0.530583
O17	O	1.517295	0.794904	-0.685556
C18	C	1.301136	0.551980	-0.608046
C19	C	1.182831	0.551997	-0.608058
C20	C	1.037335	0.475401	-0.523955
C21	C	1.115642	0.456905	-0.639097
C22	C	1.106097	0.570445	-0.492929
C23	C	1.050362	0.533503	-0.723353
C24	C	1.040806	0.647083	-0.577107
C25	C	1.119086	0.628630	-0.692328
C26	C	1.577734	0.274387	-0.608110
C27	C	1.577758	0.156082	-0.608120
C28	C	1.654334	0.092258	-0.692437
C29	C	1.672891	0.014066	-0.577324
C30	C	1.559236	0.023476	-0.723239
C31	C	1.596360	0.079444	-0.492946
C32	C	1.482666	0.088865	-0.638938
C33	C	1.501180	0.010700	-0.523746
C34	C	1.855303	0.552033	-0.608132
C35	C	1.973610	0.552044	-0.608150
C36	C	1.577656	0.828548	-0.608094
C37	C	1.577746	0.946856	-0.608139
C38	C	1.599053	0.573175	-0.937213
C39	C	1.608161	0.582195	-1.077466
C40	C	1.556450	0.530843	-0.280244
C41	C	1.547548	0.521523	-0.139992
H42	H	1.001629	0.410566	-0.452881
C43	C	1.617653	0.112806	-0.361398
N44	N	1.633695	0.137937	-0.262320
C45	C	1.687602	0.661793	-1.150107
N46	N	1.747403	0.721777	-1.204822
C47	C	1.374069	0.133206	-0.674202
N48	N	1.292275	0.166608	-0.700777
H49	H	1.148432	0.376511	-0.665337
H50	H	1.488678	0.462680	-1.086224
H51	H	1.130829	0.586029	-0.395526
C52	C	1.741880	0.140399	-0.788629
N53	N	1.807821	0.176662	-0.861074
C54	C	1.017134	0.512316	-0.854977
N55	N	0.992104	0.496353	-0.954112
H56	H	1.543575	-0.001356	-0.820585
H57	H	1.007973	0.727449	-0.550848
C58	C	1.167067	0.716181	-0.788570
N59	N	1.203204	0.782124	-0.861062
H60	H	1.753302	-0.018725	-0.551257
H61	H	1.436411	-0.024742	-0.452367
