data_functionalizedCrystal
_audit_creation_method	'MofGen! by Chris Wilmer'
_symmetry_space_group_name_H-M	'P1'
_symmetry_Int_Tables_number	1
_symmetry_cell_setting	triclinic
loop_
_symmetry_equiv_pos_as_xyz
  x,y,z
_cell_length_a	17.699104
_cell_length_b	14.519709
_cell_length_c	16.176319
_cell_angle_alpha	89.992256
_cell_angle_beta	90.009138
_cell_angle_gamma	96.514169
loop_
_atom_site_label
_atom_site_type_symbol
_atom_site_fract_x
_atom_site_fract_y
_atom_site_fract_z
O1	O	-1.004403	0.116716	-0.068781
O2	O	-0.784070	0.131869	-0.068776
O3	O	-0.900078	-0.009970	-0.068771
O4	O	-0.888395	0.258555	-0.068786
O5	O	-0.900062	-0.009979	0.068722
O6	O	-0.784054	0.131860	0.068717
O7	O	-1.004387	0.116707	0.068712
Cu8	Cu	-0.894219	0.124283	0.081269
Cu9	Cu	-0.894238	0.124293	-0.081333
O10	O	-0.888379	0.258546	0.068708
C11	C	-0.755864	0.131318	-0.000028
C12	C	-0.671842	0.129679	-0.000026
C13	C	-0.899526	-0.044332	-0.000024
C14	C	-0.897894	-0.146707	-0.000024
C15	C	-0.147183	0.203695	-0.000031
C16	C	-0.226131	0.205229	-0.000034
C17	C	-0.274510	0.121964	-0.000030
C18	C	-0.243938	0.037159	-0.000031
C19	C	-0.164991	0.035626	-0.000033
C20	C	-0.562321	0.043340	-0.000023
C21	C	-0.641273	0.044880	-0.000018
C22	C	-0.623461	0.212943	-0.000024
C23	C	-0.544515	0.211410	-0.000026
C24	C	-0.513949	0.126606	-0.000031
C25	C	-0.428344	0.124944	-0.000029
C26	C	-0.360113	0.123625	-0.000027
C27	C	-0.891887	-0.521578	-0.000045
C28	C	-0.893555	-0.417277	-0.000039
C29	C	-0.894891	-0.334146	-0.000034
C30	C	-0.896559	-0.229838	-0.000029
C31	C	-0.032593	0.117258	-0.000033
C32	C	-0.116615	0.118896	-0.000029
C33	C	-0.888931	0.292908	-0.000041
C34	C	-0.890563	0.395283	-0.000047
N35	N	-0.894211	0.124275	0.195634
N36	N	-0.894252	0.124294	-0.195698
C37	C	-0.945595	0.061494	0.238900
C38	C	-0.945599	0.061493	0.325448
C39	C	-0.894222	0.124278	0.368727
C40	C	-0.842833	0.187061	0.325455
C41	C	-0.842826	0.187057	0.238909
C42	C	-0.842858	0.187079	0.674483
C43	C	-0.842871	0.187080	0.761034
C44	C	-0.945632	0.061514	0.761021
C45	C	-0.945625	0.061510	0.674476
C46	C	-0.894233	0.124290	0.631211
C47	C	-0.894229	0.124289	0.537367
C48	C	-0.894230	0.124284	0.462569
H49	H	-0.107797	0.271499	-0.000028
F50	F	-0.529801	-0.046916	-0.000044
F51	F	-0.692761	-0.043746	-0.000015
F52	F	-1.000283	-0.005328	0.192848
H53	H	-0.801031	0.238209	0.796271
H54	H	-0.283334	-0.030637	-0.000033
H55	H	-0.800996	0.238179	0.360697
F56	F	-0.132459	-0.054628	-0.000031
F57	F	-0.788133	0.253875	0.192863
F58	F	-1.000310	-0.005310	0.628418
H59	H	-0.987439	0.010371	0.360675
H60	H	-0.987476	0.010392	0.796257
H61	H	-0.251015	0.274280	-0.000043
F62	F	-0.493030	0.300032	-0.000028
H63	H	-0.801015	0.238198	0.639263
H64	H	-0.648357	0.281995	-0.000024
