data_functionalizedCrystal
_audit_creation_method	'MofGen! by Chris Wilmer'
_symmetry_space_group_name_H-M	'P1'
_symmetry_Int_Tables_number	1
_symmetry_cell_setting	triclinic
loop_
_symmetry_equiv_pos_as_xyz
  x,y,z
_cell_length_a	14.421503
_cell_length_b	9.065218
_cell_length_c	9.065218
_cell_angle_alpha	94.984115
_cell_angle_beta	89.996731
_cell_angle_gamma	90.006947
loop_
_atom_site_label
_atom_site_type_symbol
_atom_site_fract_x
_atom_site_fract_y
_atom_site_fract_z
O1	O	0.077110	-1.960378	0.216346
O2	O	0.077111	-1.531093	0.234092
O3	O	0.077108	-1.754609	0.010577
O4	O	0.077112	-1.736862	0.439861
O5	O	-0.077115	-1.754636	0.010592
O6	O	-0.077113	-1.531121	0.234107
O7	O	-0.077114	-1.960406	0.216361
Cu8	Cu	-0.091195	-1.745766	0.225235
Cu9	Cu	0.091192	-1.745733	0.225218
O10	O	-0.077111	-1.736890	0.439876
C11	C	-0.000001	-1.476120	0.232394
C12	C	-0.000000	-1.312277	0.227294
N13	N	-0.219476	-1.745799	0.225247
C14	C	-0.000002	-1.752917	-0.044403
C15	C	0.000003	-1.747817	-0.208245
C16	C	-0.469106	-1.849175	0.121871
C17	C	-0.530903	-1.715462	0.091432
C18	C	-0.408638	-1.745766	0.225229
C19	C	-0.530935	-1.879447	0.255580
C20	C	-0.591359	-1.745746	0.225208
C21	C	-0.469074	-1.611985	0.194724
C22	C	-0.469100	-1.776058	0.358931
C23	C	-0.530869	-1.642250	0.328548
C24	C	-0.303376	-1.745780	0.225237
C25	C	-0.696618	-1.745717	0.225201
N26	N	0.219473	-1.745711	0.225194
C27	C	0.000000	-2.015378	0.218059
C28	C	0.000006	-2.179221	0.223158
C29	C	0.000001	-1.738582	0.494855
C30	C	0.000003	-1.743681	0.658698
H31	H	-0.558051	-1.689822	-0.021645
H32	H	-0.442015	-1.498897	0.168915
H33	H	-0.557816	-1.554695	0.415950
H34	H	-0.441932	-1.801740	0.471974
O35	O	-0.563176	-2.014383	0.286366
C36	C	-0.487697	-2.109407	0.306531
H37	H	-0.423520	-2.040596	0.338823
H38	H	-0.504811	-2.183669	0.398064
H39	H	-0.473727	-2.180792	0.199018
O40	O	-0.436787	-1.953230	0.017349
C41	C	-0.468298	-1.920730	-0.123451
H42	H	-0.485624	-1.797844	-0.120936
H43	H	-0.411756	-1.949177	-0.209113
H44	H	-0.532992	-1.988886	-0.154160
