data_functionalizedCrystal
_audit_creation_method	'MofGen! by Chris Wilmer'
_symmetry_space_group_name_H-M	'P1'
_symmetry_Int_Tables_number	1
_symmetry_cell_setting	triclinic
loop_
_symmetry_equiv_pos_as_xyz
  x,y,z
_cell_length_a	12.827893
_cell_length_b	19.121063
_cell_length_c	12.827893
_cell_angle_alpha	87.574376
_cell_angle_beta	90.003786
_cell_angle_gamma	92.469061
loop_
_atom_site_label
_atom_site_type_symbol
_atom_site_fract_x
_atom_site_fract_y
_atom_site_fract_z
Zn1	Zn	1.579663	-0.279735	0.608543
Zn2	Zn	2.079663	0.220265	1.108543
Zn3	Zn	1.572111	-0.397158	0.441233
Zn4	Zn	2.072111	0.102842	0.941233
Zn5	Zn	1.404952	-0.279724	0.433817
Zn6	Zn	1.904952	0.220276	0.933817
Zn7	Zn	1.397398	-0.397152	0.615933
Zn8	Zn	1.897398	0.102848	1.115933
O9	O	1.488531	-0.338442	0.524882
O10	O	1.988531	0.161558	1.024882
O11	O	1.724897	-0.295319	0.586360
O12	O	2.224897	0.204681	1.086360
O13	O	1.549938	-0.381578	0.294013
O14	O	2.049938	0.118422	0.794013
O15	O	1.434449	-0.181440	0.450798
O16	O	1.934449	0.318560	0.950798
O17	O	1.719349	-0.381589	0.463438
O18	O	2.219349	0.118411	0.963438
O19	O	1.562809	-0.181448	0.579168
O20	O	2.062809	0.318552	1.079168
O21	O	1.427127	-0.295300	0.288564
O22	O	1.927127	0.204700	0.788564
O23	O	1.257714	-0.295294	0.457964
O24	O	1.757714	0.204706	0.957964
O25	O	1.421575	-0.381579	0.761189
O26	O	1.921575	0.118421	1.261189
O27	O	1.252164	-0.381568	0.591764
O28	O	1.752164	0.118432	1.091764
O29	O	1.555484	-0.295313	0.755760
O30	O	2.055484	0.204687	1.255760
O31	O	1.542614	-0.495443	0.470604
O32	O	2.042614	0.004557	0.970604
O33	O	1.414252	-0.495439	0.598956
O34	O	1.914252	0.004561	1.098956
C35	C	1.217022	-0.338429	0.524862
C36	C	1.717022	0.161571	1.024862
C37	C	1.100868	-0.338441	0.524879
C38	C	1.600868	0.161559	1.024879
C39	C	1.051806	-0.295693	0.458780
C40	C	1.551806	0.204307	0.958780
C41	C	0.931755	-0.295704	0.458796
C42	C	1.431755	0.204296	0.958796
C43	C	1.476822	-0.520925	0.536410
C44	C	1.976822	-0.020925	1.036410
C45	C	1.471909	-0.598992	0.541376
C46	C	1.971909	-0.098992	1.041376
C47	C	1.536483	-0.635647	0.476939
C48	C	2.036483	-0.135647	0.976939
C49	C	1.531868	-0.709000	0.481617
C50	C	2.031868	-0.209000	0.981617
C51	C	1.462673	-0.745695	0.550726
C52	C	1.962673	-0.245695	1.050726
C53	C	1.398096	-0.709035	0.615170
C54	C	1.898096	-0.209035	1.115170
C55	C	1.402716	-0.635684	0.610498
C56	C	1.902716	-0.135684	1.110498
C57	C	1.445379	-0.967169	0.568181
C58	C	1.945379	-0.467169	1.068181
C59	C	1.440761	-1.040525	0.572846
C60	C	1.940761	-0.540525	1.072846
C61	C	1.574535	-1.040484	0.439293
C62	C	2.074535	-0.540484	0.939293
C63	C	1.579146	-0.967132	0.434622
C64	C	2.079146	-0.467132	0.934622
C65	C	1.514573	-0.930478	0.499070
C66	C	2.014573	-0.430478	0.999070
C67	C	1.457951	-0.820673	0.555507
C68	C	1.957951	-0.320673	1.055507
C69	C	1.519300	-0.855502	0.494294
C70	C	2.019300	-0.355502	0.994294
C71	C	1.761100	-0.338456	0.524902
C72	C	2.261100	0.161544	1.024902
C73	C	1.877253	-0.338462	0.524911
C74	C	2.377253	0.161538	1.024911
C75	C	1.488529	-0.338446	0.797452
C76	C	1.988529	0.161554	1.297452
C77	C	1.488528	-0.338448	0.913605
C78	C	1.988528	0.161552	1.413605
C79	C	1.500314	-0.155247	0.513331
C80	C	2.000314	0.344753	1.013331
C81	C	1.505335	-0.077180	0.508409
C82	C	2.005335	0.422820	1.008409
C83	C	1.554781	-0.295769	1.082748
C84	C	2.054781	0.204231	1.582748
C85	C	1.554783	-0.295766	0.962697
C86	C	2.054783	0.204234	1.462697
C87	C	1.488524	-0.338454	1.253372
C88	C	1.988524	0.161546	1.753372
C89	C	1.488525	-0.338452	1.137219
C90	C	1.988525	0.161548	1.637219
H91	H	1.053995	-0.375049	0.581479
H92	H	1.553995	0.124951	1.081479
H93	H	1.611507	-0.259231	1.124990
H94	H	2.111507	0.240769	1.624990
H95	H	1.098679	-0.259090	0.402173
H96	H	1.598679	0.240910	0.902173
H97	H	1.431806	-0.374996	1.094977
H98	H	1.931806	0.125004	1.594977
Cl99	Cl	0.942398	-0.394967	0.612296
Cl100	Cl	1.442398	0.105033	1.112296
Cl101	Cl	1.623470	-0.589523	0.390047
Cl102	Cl	2.123470	-0.089523	0.890047
H103	H	1.431794	-0.374988	0.960432
H104	H	1.931794	0.125012	1.460432
H105	H	1.584451	-0.738841	0.429145
H106	H	2.084451	-0.238841	0.929145
Cl107	Cl	1.666153	-0.921005	0.347753
Cl108	Cl	2.166153	-0.421005	0.847753
Cl109	Cl	0.866603	-0.239193	0.371426
Cl110	Cl	1.366603	0.260807	0.871426
Cl111	Cl	1.606289	-0.809369	0.407421
Cl112	Cl	2.106289	-0.309369	0.907421
Cl113	Cl	1.655714	-1.086567	0.358286
Cl114	Cl	2.155714	-0.586567	0.858286
H115	H	1.384426	-1.070401	0.629142
H116	H	1.884426	-0.570401	1.129142
H117	H	1.392799	-0.937331	0.620655
H118	H	1.892799	-0.437331	1.120655
H119	H	1.611503	-0.259221	0.915864
H120	H	2.111503	0.240779	1.415864
Cl121	Cl	1.311112	-0.755167	0.702058
Cl122	Cl	1.811112	-0.255167	1.202058
H123	H	1.350135	-0.605840	0.662970
H124	H	1.850135	-0.105840	1.162970
H125	H	1.401610	-0.850559	0.611774
H126	H	1.901610	-0.350559	1.111774
