data_functionalizedCrystal
_audit_creation_method	'MofGen! by Chris Wilmer'
_symmetry_space_group_name_H-M	'P1'
_symmetry_Int_Tables_number	1
_symmetry_cell_setting	triclinic
loop_
_symmetry_equiv_pos_as_xyz
  x,y,z
_cell_length_a	10.540510
_cell_length_b	15.995350
_cell_length_c	9.616153
_cell_angle_alpha	89.999971
_cell_angle_beta	89.992871
_cell_angle_gamma	84.002843
loop_
_atom_site_label
_atom_site_type_symbol
_atom_site_fract_x
_atom_site_fract_y
_atom_site_fract_z
O1	O	1.684294	0.117876	-0.115647
O2	O	1.314723	0.129019	-0.115647
O3	O	1.509611	0.001620	-0.115646
O4	O	1.489406	0.245276	-0.115648
O5	O	1.509584	0.001622	0.115646
O6	O	1.314696	0.129022	0.115645
O7	O	1.684267	0.117878	0.115645
Zn8	Zn	1.499478	0.123451	0.152367
Zn9	Zn	1.499513	0.123447	-0.152369
O10	O	1.489379	0.245278	0.115643
C11	C	1.267417	0.128190	-0.000001
C12	C	1.126502	0.125706	-0.000002
C13	C	1.508762	-0.029579	-0.000002
C14	C	1.506258	-0.122544	-0.000010
C15	C	0.907830	0.214210	-0.000534
C16	C	1.054389	0.216860	-0.000004
C17	C	1.082368	0.079045	0.132074
C18	C	0.935635	0.077041	0.132177
C19	C	0.935885	0.075139	-0.130845
C20	C	1.082167	0.079463	-0.132582
C21	C	1.497265	-0.460345	-0.000006
C22	C	1.358469	-0.413731	-0.000524
C23	C	1.360974	-0.317026	-0.000003
C24	C	1.501726	-0.292758	-0.000009
C25	C	1.570169	-0.333429	0.132068
C26	C	1.566683	-0.430085	0.132178
C27	C	1.569580	-0.430430	-0.130844
C28	C	1.569547	-0.333484	-0.132589
C29	C	1.504254	-0.198045	-0.000006
C30	C	1.494740	-0.555057	0.000001
C31	C	1.731573	0.118707	-0.000004
C32	C	1.872489	0.121192	-0.000013
C33	C	1.490228	0.276477	-0.000003
C34	C	1.492732	0.369442	-0.000004
N35	N	1.499463	0.123453	0.360342
N36	N	1.499538	0.123439	-0.360344
C37	C	1.394898	0.191374	0.580711
C38	C	1.395123	0.191629	0.419543
C39	C	1.631915	0.143318	0.418791
C40	C	1.631344	0.143799	0.580009
C41	C	1.472900	0.035442	0.580254
C42	C	1.469846	0.036013	0.419027
H43	H	1.083244	0.253364	-0.094685
H44	H	1.549208	-0.015123	0.618371
Cl45	Cl	1.327006	0.006263	0.643100
H46	H	0.865399	0.249722	-0.095254
Cl47	Cl	1.421322	0.292435	0.359968
H48	H	1.372413	0.020955	0.380827
H49	H	1.110330	0.113413	-0.230291
H50	H	1.673575	-0.318692	0.136975
Cl51	Cl	1.272828	-0.442848	-0.146758
H52	H	0.863827	0.249519	0.093648
H53	H	1.303229	-0.433650	0.093662
Cl54	Cl	1.277311	-0.274491	0.146419
Cl55	Cl	1.579872	-0.045790	0.356838
H56	H	1.672190	-0.317516	-0.140568
Cl57	Cl	1.727573	-0.478534	-0.132225
H58	H	1.654816	0.207999	0.617596
H59	H	0.913576	0.008863	0.138177
Cl60	Cl	1.242402	0.173195	0.640598
Cl61	Cl	1.156942	-0.024566	0.139659
H62	H	1.516751	-0.448681	0.230911
Cl63	Cl	1.754998	0.069010	0.359587
Cl64	Cl	1.097457	0.273558	0.146423
Cl65	Cl	0.872843	0.126281	0.284600
Cl66	Cl	1.129293	0.129078	0.283832
Cl67	Cl	1.420811	0.291605	0.643204
H68	H	0.892953	0.103884	-0.230952
Cl69	Cl	0.903141	-0.030525	-0.132220
Cl70	Cl	1.159325	-0.023290	-0.144893
Cl71	Cl	1.243094	0.173231	0.358529
H72	H	1.519506	-0.306533	-0.230295
H73	H	1.711640	0.096311	0.618998
Cl74	Cl	1.669014	0.241317	0.356436
Cl75	Cl	1.724004	-0.478948	0.141444
Cl76	Cl	1.496743	-0.290047	0.283825
Cl77	Cl	1.499524	-0.462544	-0.285401
Cl78	Cl	1.277905	-0.273633	-0.146176
