data_functionalizedCrystal
_audit_creation_method	'MofGen! by Chris Wilmer'
_symmetry_space_group_name_H-M	'P1'
_symmetry_Int_Tables_number	1
_symmetry_cell_setting	triclinic
loop_
_symmetry_equiv_pos_as_xyz
  x,y,z
_cell_length_a	6.817900
_cell_length_b	14.858565
_cell_length_c	10.992410
_cell_angle_alpha	93.421726
_cell_angle_beta	108.764651
_cell_angle_gamma	104.523916
loop_
_atom_site_label
_atom_site_type_symbol
_atom_site_fract_x
_atom_site_fract_y
_atom_site_fract_z
V1	V	-4.092572	-0.128670	-0.400951
V2	V	-3.592572	0.371330	0.099049
O3	O	-4.073418	0.006183	-0.392950
O4	O	-3.573418	0.506183	0.107050
O5	O	-4.048847	-0.255131	-0.398564
O6	O	-3.548847	0.244869	0.101436
O7	O	-4.070498	-0.126691	-0.575658
O8	O	-3.570498	0.373309	-0.075658
O9	O	-4.051617	-0.123146	-0.214630
O10	O	-3.551617	0.376854	0.285370
V11	V	-4.572183	-0.112540	-0.378623
V12	V	-4.072183	0.387460	0.121377
O13	O	-4.362412	-0.164052	-0.449931
O14	O	-3.862412	0.335948	0.050069
O15	O	-4.752541	-0.077158	-0.329643
O16	O	-4.252541	0.422842	0.170357
O17	O	-4.392702	0.013921	-0.381010
O18	O	-3.892702	0.513921	0.118990
O19	O	-4.708735	-0.247393	-0.386624
O20	O	-4.208735	0.252607	0.113376
O21	O	-4.730535	-0.118064	-0.564944
O22	O	-4.230535	0.381936	-0.064944
O23	O	-4.371051	-0.114519	-0.203916
O24	O	-3.871051	0.385481	0.296084
C25	C	-3.894134	-0.285959	-0.392330
C26	C	-3.394134	0.214041	0.107670
C27	C	-3.939846	-0.389343	-0.391542
C28	C	-3.439846	0.110657	0.108458
C29	C	-4.107159	-0.767914	-0.388676
C30	C	-3.607159	-0.267914	0.111324
C31	C	-4.060599	-0.662584	-0.389473
C32	C	-3.560599	-0.162584	0.110527
C33	C	-4.023503	-0.578632	-0.390108
C34	C	-3.523503	-0.078632	0.109892
C35	C	-3.976941	-0.473295	-0.390907
C36	C	-3.476941	0.026705	0.109093
C37	C	-3.921750	-0.122120	-0.618230
C38	C	-3.421750	0.377880	-0.118230
C39	C	-3.985016	-0.121339	-0.761056
C40	C	-3.485016	0.378661	-0.261056
C41	C	-3.853338	-0.114218	-0.956160
C42	C	-3.353338	0.385782	-0.456160
C43	C	-3.787586	-0.115417	-0.807680
C44	C	-3.287586	0.384583	-0.307680
C45	C	-4.167585	-0.213035	-0.838416
C46	C	-3.667585	0.286965	-0.338416
C47	C	-4.232035	-0.212224	-0.986980
C48	C	-3.732035	0.287776	-0.486980
C49	C	-4.139712	-0.034667	-0.948454
C50	C	-3.639712	0.465333	-0.448454
C51	C	-4.069076	-0.034232	-0.799440
C52	C	-3.569076	0.465768	-0.299440
C53	C	-4.210757	0.044745	-0.387241
C54	C	-3.710757	0.544745	0.112759
C55	C	-4.144285	0.148127	-0.388037
C56	C	-3.644285	0.648127	0.111963
C57	C	-4.183140	-0.119093	-0.161337
C58	C	-3.683140	0.380907	0.338663
C59	C	-4.099112	-0.119870	-0.018510
C60	C	-3.599112	0.380130	0.481490
H61	H	-3.650238	-0.049483	-0.754156
H62	H	-3.150238	0.450517	-0.254156
H63	H	-3.719950	-0.177485	-0.783038
H64	H	-3.219950	0.322515	-0.283038
H65	H	-4.316672	-0.220679	-0.809634
H66	H	-3.816672	0.279321	-0.309634
H67	H	-4.205604	-0.276737	-1.033430
H68	H	-3.705604	0.223263	-0.533430
H69	H	-3.747318	-0.047832	-0.974804
H70	H	-3.247318	0.452168	-0.474804
C71	C	-3.890997	0.057406	-0.728464
C72	C	-3.390997	0.557406	-0.228464
H73	H	-3.765938	0.042653	-0.675650
H74	H	-3.265938	0.542653	-0.175650
H75	H	-3.856077	0.094046	-0.790530
H76	H	-3.356077	0.594046	-0.290530
H77	H	-3.941105	0.092047	-0.675396
H78	H	-3.441105	0.592047	-0.175396
H79	H	-4.110928	-0.277707	-0.812990
H80	H	-3.610928	0.222293	-0.312990
H81	H	-3.818088	-0.175437	-1.004323
H82	H	-3.318088	0.324563	-0.504323
H83	H	-4.048528	0.034965	-0.968618
H84	H	-3.548528	0.534965	-0.468618
H85	H	-4.412693	-0.220197	-1.029634
H86	H	-3.912693	0.279803	-0.529634
H87	H	-4.211371	-0.033156	-0.766925
H88	H	-3.711371	0.466844	-0.266925
H89	H	-4.318135	-0.038000	-0.989304
H90	H	-3.818135	0.462000	-0.489304
