data_functionalizedCrystal
_audit_creation_method	'MofGen! by Chris Wilmer'
_symmetry_space_group_name_H-M	'P1'
_symmetry_Int_Tables_number	1
_symmetry_cell_setting	triclinic
loop_
_symmetry_equiv_pos_as_xyz
  x,y,z
_cell_length_a	15.995350
_cell_length_b	15.944551
_cell_length_c	15.072220
_cell_angle_alpha	89.997918
_cell_angle_beta	89.991149
_cell_angle_gamma	83.495557
loop_
_atom_site_label
_atom_site_type_symbol
_atom_site_fract_x
_atom_site_fract_y
_atom_site_fract_z
O1	O	1.111002	0.108264	-0.073709
O2	O	0.867227	0.121634	-0.073728
O3	O	0.995772	-0.007326	-0.073710
O4	O	0.982458	0.237224	-0.073727
O5	O	0.995740	-0.007319	0.073855
O6	O	0.867196	0.121641	0.073837
O7	O	1.110970	0.108271	0.073856
Zn8	Zn	0.989078	0.114957	0.097276
Zn9	Zn	0.989120	0.114948	-0.097148
O10	O	0.982426	0.237232	0.073838
C11	C	0.836017	0.121085	0.000053
C12	C	0.743066	0.119428	0.000046
C13	C	0.405318	0.113477	0.000065
C14	C	0.452747	0.021634	0.000400
C15	C	0.549438	0.023291	0.000061
C16	C	0.572879	0.116429	0.000056
C17	C	0.531813	0.161725	-0.084211
C18	C	0.435177	0.159417	-0.084275
C19	C	0.434802	0.161323	0.083534
C20	C	0.531747	0.161301	0.084642
C21	C	0.667577	0.118102	0.000048
C22	C	0.310620	0.111806	0.000067
C23	C	0.995203	-0.038616	0.000073
C24	C	0.993546	-0.131862	0.000073
C25	C	0.909908	-0.346714	0.000054
C26	C	0.948731	-0.407730	0.072816
C27	C	0.990548	-0.302588	0.000066
C28	C	0.948781	-0.407721	-0.072672
C29	C	0.987647	-0.467501	0.000055
C30	C	1.029394	-0.362376	0.072888
C31	C	1.029433	-0.362360	-0.072665
C32	C	1.068315	-0.423358	0.000114
C33	C	0.992217	-0.207586	0.000073
C34	C	0.985984	-0.562502	0.000055
C35	C	1.142181	0.108821	0.000074
C36	C	1.235131	0.110478	0.000075
C37	C	0.982995	0.268522	0.000053
C38	C	0.984652	0.361768	0.000047
N39	N	0.989055	0.114963	0.229965
N40	N	0.989149	0.114935	-0.229836
C41	C	0.989118	0.114945	0.589166
C42	C	0.920105	0.183717	0.551550
C43	C	0.920264	0.183968	0.448724
C44	C	0.989086	0.114954	0.410962
C45	C	1.076452	0.134096	0.448258
C46	C	1.076065	0.134585	0.551116
C47	C	0.971544	0.026826	0.551271
C48	C	0.969539	0.027414	0.448407
C49	C	0.989074	0.114958	0.310249
C50	C	0.989136	0.114943	0.689879
H51	H	0.416880	0.126380	-0.147262
O52	O	1.074627	-0.335753	-0.154145
H53	H	1.130309	-0.304786	-0.133674
H54	H	0.931174	0.248741	0.577385
O55	O	0.903612	-0.434339	-0.154154
H56	H	0.881818	-0.377774	-0.194413
O57	O	0.567905	0.117511	0.167226
H58	H	0.614978	0.064011	0.148118
H59	H	1.063459	-0.342384	0.134469
O60	O	1.157050	-0.467300	0.000169
H61	H	1.190299	-0.449145	0.060625
H62	H	0.402933	0.226847	-0.088103
H63	H	0.545942	0.230150	-0.087348
H64	H	0.855323	0.172563	0.423509
O65	O	0.935134	0.270583	0.416102
H66	H	0.942249	0.312450	0.473794
H67	H	1.129033	0.085338	0.423796
H68	H	0.403044	0.229038	0.084100
O69	O	0.569396	0.120043	-0.167283
H70	H	0.617312	0.067075	-0.148767
O71	O	0.833802	0.168879	0.584353
H72	H	0.839169	0.112332	0.627822
O73	O	0.426802	-0.026787	-0.079188
H74	H	0.442797	0.006013	-0.140816
H75	H	1.091551	0.198850	0.575095
H76	H	1.129024	0.086469	0.575998
O77	O	1.097459	0.218256	0.414138
H78	H	1.045817	0.246579	0.370628
O79	O	0.903541	-0.434357	0.154297
H80	H	0.848575	-0.466435	0.133804
O81	O	0.821252	-0.302571	0.000138
H82	H	0.775885	-0.350339	0.000806
O83	O	0.407602	0.121550	0.168146
H84	H	0.372760	0.067230	0.151646
O85	O	0.552103	0.251268	0.091393
H86	H	0.592025	0.265471	0.034305
H87	H	0.909220	0.008419	0.577258
H88	H	0.905272	0.012886	0.424031
O89	O	1.031805	-0.043559	0.414389
H90	H	1.077863	-0.017430	0.370066
H91	H	1.021871	-0.024352	0.575596
H92	H	0.577852	-0.012314	0.060467
H93	H	0.577307	-0.012561	-0.060445
O94	O	0.428195	-0.026995	0.080448
H95	H	0.359394	-0.031076	0.079088
