data_functionalizedCrystal
_audit_creation_method	'MofGen! by Chris Wilmer'
_symmetry_space_group_name_H-M	'P1'
_symmetry_Int_Tables_number	1
_symmetry_cell_setting	triclinic
loop_
_symmetry_equiv_pos_as_xyz
  x,y,z
_cell_length_a	10.654550
_cell_length_b	19.188930
_cell_length_c	9.730223
_cell_angle_alpha	89.993564
_cell_angle_beta	89.996251
_cell_angle_gamma	83.814841
loop_
_atom_site_label
_atom_site_type_symbol
_atom_site_fract_x
_atom_site_fract_y
_atom_site_fract_z
O1	O	1.665759	0.098059	-0.114420
O2	O	1.300083	0.107401	-0.114400
O3	O	1.493474	0.001144	-0.114384
O4	O	1.472368	0.204317	-0.114436
O5	O	1.493471	0.001146	0.114196
O6	O	1.300081	0.107404	0.114180
O7	O	1.665757	0.098061	0.114160
Zn8	Zn	1.482918	0.102733	0.150462
Zn9	Zn	1.482921	0.102730	-0.150702
O10	O	1.472366	0.204319	0.114144
C11	C	1.253298	0.106717	-0.000107
C12	C	1.113898	0.104664	-0.000098
C13	C	1.033089	0.167227	-0.000134
C14	C	0.902109	0.165295	-0.000157
C15	C	0.932761	0.038231	-0.000114
C16	C	1.063738	0.040164	-0.000081
C17	C	1.015391	0.240587	-0.000165
C18	C	0.884411	0.238654	-0.000188
C19	C	1.492789	-0.024871	-0.000090
C20	C	1.490737	-0.102389	-0.000078
C21	C	1.604213	-0.146570	-0.000078
C22	C	1.602285	-0.219407	-0.000099
C23	C	1.486876	-0.248058	-0.000094
C24	C	1.373386	-0.203867	-0.000102
C25	C	1.375316	-0.131032	-0.000094
N26	N	1.398658	-0.356639	0.077701
N27	N	1.396832	-0.425830	0.077696
C28	C	1.481052	-0.467505	-0.000121
N29	N	1.567186	-0.437377	-0.077917
N30	N	1.569016	-0.368180	-0.077906
C31	C	1.484770	-0.327034	-0.000104
C32	C	1.592445	-0.590665	-0.000147
C33	C	1.590513	-0.663502	-0.000177
C34	C	1.361610	-0.647960	-0.000166
C35	C	1.363545	-0.575125	-0.000149
C36	C	1.478966	-0.546481	-0.000133
C37	C	1.712541	0.098746	-0.000136
C38	C	1.851941	0.100798	-0.000154
C39	C	1.473051	0.230334	-0.000153
C40	C	1.475102	0.307852	-0.000174
N41	N	1.482925	0.102735	0.355998
N42	N	1.482924	0.102722	-0.356238
C43	C	1.568581	0.055700	0.427932
C44	C	1.568577	0.055692	0.571815
C45	C	1.397260	0.149759	0.571818
C46	C	1.397258	0.149764	0.427938
C47	C	1.667493	0.001393	0.427930
C48	C	1.667490	0.001385	0.571813
H49	H	0.891904	-0.014283	-0.000121
H50	H	0.838270	0.260826	0.098490
C51	C	1.053460	0.278831	0.127498
C52	C	0.945803	0.300293	0.205557
C53	C	0.980826	0.335515	0.323175
H54	H	1.093368	0.318708	0.101108
H55	H	1.110327	0.248280	0.180741
H56	H	0.888957	0.330843	0.152324
H57	H	0.905882	0.260430	0.231983
H58	H	1.037692	0.304964	0.376418
H59	H	1.020734	0.375388	0.296772
H60	H	0.907788	0.350075	0.376159
C61	C	1.062035	0.271786	-0.131824
C62	C	0.959425	0.290477	-0.219086
C63	C	1.002344	0.319226	-0.340376
H64	H	1.120334	0.238183	-0.176262
H65	H	1.102438	0.312223	-0.110467
H66	H	0.919041	0.250046	-0.240444
H67	H	0.901116	0.324087	-0.174691
H68	H	1.042747	0.359663	-0.319019
H69	H	1.060643	0.285619	-0.384801
H70	H	0.932729	0.331917	-0.399592
H71	H	1.129530	-0.010781	-0.000032
C72	C	1.240243	-0.527235	-0.000345
C73	C	1.170711	-0.540266	-0.117924
C74	C	1.057106	-0.496171	-0.118145
H75	H	1.257740	-0.479731	-0.000410
H76	H	1.192834	-0.535997	0.079327
H77	H	1.218110	-0.531498	-0.197575
H78	H	1.153181	-0.587762	-0.117883
H79	H	1.009697	-0.504933	-0.038474
H80	H	1.074615	-0.448669	-0.118207
H81	H	1.009910	-0.505011	-0.197914
C82	C	1.717625	-0.559426	-0.000078
C83	C	1.695030	-0.486183	-0.000023
C84	C	1.810314	-0.457384	0.000058
H85	H	1.764428	-0.574467	-0.079773
H86	H	1.764345	-0.574524	0.079659
H87	H	1.648329	-0.471090	-0.079752
H88	H	1.648246	-0.471122	0.079666
H89	H	1.857035	-0.472483	0.079795
H90	H	1.857109	-0.472430	-0.079638
H91	H	1.795000	-0.407686	0.000108
C92	C	1.252011	-0.083141	-0.000299
C93	C	1.182482	-0.096169	-0.117882
C94	C	1.068879	-0.052071	-0.118105
H95	H	1.269511	-0.035638	-0.000360
H96	H	1.204599	-0.091904	0.079370
H97	H	1.229885	-0.087400	-0.197530
H98	H	1.164949	-0.143664	-0.117846
H99	H	1.021467	-0.060834	-0.038437
H100	H	1.086392	-0.004570	-0.118163
H101	H	1.021685	-0.060909	-0.197877
C102	C	1.729652	-0.115607	-0.000140
C103	C	1.828618	-0.169896	-0.000179
C104	C	1.944189	-0.141398	-0.000257
H105	H	1.735340	-0.087533	0.079551
H106	H	1.735238	-0.087532	-0.079881
H107	H	1.823035	-0.197960	0.079553
H108	H	1.822972	-0.197974	-0.079865
H109	H	1.949775	-0.113322	-0.079997
H110	H	1.949864	-0.113324	0.079436
H111	H	2.011351	-0.178228	-0.000296
H112	H	1.638050	-0.049327	0.616444
C113	C	1.248211	-0.235105	-0.000025
C114	C	1.270806	-0.308348	0.000008
C115	C	1.155521	-0.337147	0.000090
H116	H	1.201409	-0.220049	-0.079713
H117	H	1.201488	-0.220021	0.079720
H118	H	1.317508	-0.323426	-0.079728
H119	H	1.317588	-0.323423	0.079690
H120	H	1.108799	-0.322062	0.079834
H121	H	1.108728	-0.322085	-0.079599
H122	H	1.170836	-0.386844	0.000125
H123	H	1.763748	0.013347	0.610855
H124	H	0.842095	0.266294	-0.095863
C125	C	1.304394	0.200941	0.349916
C126	C	1.324383	0.269656	0.384885
C127	C	1.238867	0.316821	0.313027
H128	H	1.220579	0.193012	0.373448
H129	H	1.316660	0.194259	0.253908
H130	H	1.312107	0.276335	0.480871
H131	H	1.408181	0.277607	0.361349
H132	H	1.251133	0.310139	0.217019
H133	H	1.155058	0.308886	0.336565
H134	H	1.252426	0.363449	0.336733
C135	C	1.640328	-0.070192	0.376132
C136	C	1.623714	-0.113986	0.488291
C137	C	1.598671	-0.179929	0.440627
H138	H	1.709191	-0.090120	0.321924
H139	H	1.565726	-0.065289	0.321941
H140	H	1.698308	-0.118891	0.542459
H141	H	1.554849	-0.094080	0.542510
H142	H	1.524069	-0.175026	0.386436
H143	H	1.667537	-0.199850	0.386419
H144	H	1.587384	-0.209649	0.516718
H145	H	1.758317	0.018397	0.383294
H146	H	1.694693	-0.255386	-0.000105
H147	H	1.267641	-0.671287	-0.000168
H148	H	1.682922	-0.699475	-0.000185
H149	H	1.327511	0.188048	0.630407
