data_functionalizedCrystal
_audit_creation_method	'MofGen! by Chris Wilmer'
_symmetry_space_group_name_H-M	'P1'
_symmetry_Int_Tables_number	1
_symmetry_cell_setting	triclinic
loop_
_symmetry_equiv_pos_as_xyz
  x,y,z
_cell_length_a	14.519731
_cell_length_b	19.188930
_cell_length_c	12.996460
_cell_angle_alpha	89.980533
_cell_angle_beta	89.992872
_cell_angle_gamma	83.416816
loop_
_atom_site_label
_atom_site_type_symbol
_atom_site_fract_x
_atom_site_fract_y
_atom_site_fract_z
O1	O	0.115136	0.926562	-0.085900
O2	O	0.615136	1.426562	0.414100
O3	O	0.130635	0.723307	-0.085830
O4	O	0.630635	1.223307	0.414170
O5	O	-0.011385	0.830316	-0.085857
O6	O	0.488615	1.330316	0.414143
O7	O	0.257156	0.819554	-0.085872
O8	O	0.757156	1.319554	0.414128
O9	O	-0.011393	0.830305	0.085276
O10	O	0.488607	1.330305	0.585276
O11	O	0.130627	0.723296	0.085304
O12	O	0.630627	1.223296	0.585304
O13	O	0.115128	0.926551	0.085234
O14	O	0.615128	1.426551	0.585234
Cu15	Cu	0.122877	0.824923	0.100895
Cu16	Cu	0.622877	1.324923	0.600895
Cu17	Cu	0.122886	0.824936	-0.101491
Cu18	Cu	0.622886	1.324936	0.398509
O19	O	0.257148	0.819542	0.085261
O20	O	0.757148	1.319542	0.585261
C21	C	0.130129	0.697289	-0.000254
C22	C	0.630129	1.197289	0.499746
C23	C	0.128623	0.619779	-0.000227
C24	C	0.628623	1.119779	0.499773
C25	C	0.211955	0.575156	-0.000248
C26	C	0.711955	1.075156	0.499752
C27	C	0.210540	0.502327	-0.000259
C28	C	0.710540	1.002327	0.499741
C29	C	0.125787	0.474124	-0.000270
C30	C	0.625787	0.974124	0.499730
C31	C	0.042443	0.518756	-0.000243
C32	C	0.542443	1.018756	0.499757
C33	C	0.043861	0.591584	-0.000222
C34	C	0.543861	1.091584	0.499778
N35	N	0.061006	0.365913	-0.058552
N36	N	0.561006	0.865913	0.441448
N37	N	0.059665	0.296730	-0.058575
N38	N	0.559665	0.796730	0.441425
C39	C	0.121510	0.254700	-0.000333
C40	C	0.621510	0.754700	0.499667
N41	N	0.184760	0.284466	0.057920
N42	N	0.684760	0.784466	0.557920
N43	N	0.186104	0.353655	0.057938
N44	N	0.686104	0.853655	0.557938
C45	C	0.124240	0.395156	-0.000293
C46	C	0.624240	0.895156	0.499707
C47	C	0.203313	0.131108	-0.000364
C48	C	0.703313	0.631108	0.499636
C49	C	0.201894	0.058278	-0.000369
C50	C	0.701894	0.558278	0.499631
C51	C	0.033795	0.074708	-0.000364
C52	C	0.533795	0.574708	0.499636
C53	C	0.035217	0.147537	-0.000349
C54	C	0.535217	0.647537	0.499651
C55	C	0.119978	0.175732	-0.000354
C56	C	0.619978	0.675732	0.499646
C57	C	-0.045745	0.829806	-0.000290
C58	C	0.454255	1.329806	0.499710
C59	C	-0.148116	0.828295	-0.000289
C60	C	0.351884	1.328295	0.499711
C61	C	-0.231253	0.827067	-0.000291
C62	C	0.268747	1.327067	0.499709
C63	C	-0.335552	0.825533	-0.000298
C64	C	0.164448	1.325533	0.499702
C65	C	-0.418683	0.824315	-0.000304
C66	C	0.081317	1.324315	0.499696
C67	C	-0.522989	0.822781	-0.000310
C68	C	-0.022989	1.322781	0.499690
C69	C	0.291508	0.820052	-0.000308
C70	C	0.791508	1.320052	0.499692
C71	C	0.393879	0.821563	-0.000316
C72	C	0.893879	1.321563	0.499684
N73	N	0.122870	0.824918	0.243242
N74	N	0.622870	1.324918	0.743242
C75	C	0.115634	0.952570	-0.000344
C76	C	0.615634	1.452570	0.499656
C77	C	0.117141	1.030080	-0.000378
C78	C	0.617141	1.530080	0.499622
N79	N	0.122886	0.824946	-0.243838
N80	N	0.622886	1.324946	0.256162
C81	C	0.122887	0.824935	0.663056
C82	C	0.622887	1.324935	1.163056
C83	C	0.122885	0.824928	0.546251
C84	C	0.622885	1.324928	1.046251
C85	C	0.122879	0.824927	0.453153
C86	C	0.622879	1.324927	0.953153
C87	C	0.122876	0.824920	0.336340
C88	C	0.622876	1.324920	0.836340
H89	H	0.269757	0.021946	-0.000380
H90	H	0.769757	0.521946	0.499620
O91	O	-0.039967	0.491479	-0.000213
O92	O	0.460033	0.991479	0.499787
C93	C	-0.206545	0.515460	-0.000268
C94	C	0.293455	1.015460	0.499732
C95	C	-0.113278	0.546443	-0.000283
C96	C	0.386722	1.046443	0.499717
H97	H	-0.265842	0.559883	-0.000347
H98	H	0.234158	1.059883	0.499653
H99	H	-0.211479	0.481772	0.071355
H100	H	0.288521	0.981772	0.571355
H101	H	-0.211356	0.481779	-0.071884
H102	H	0.288644	0.981779	0.428116
H103	H	-0.108405	0.580155	0.071284
H104	H	0.391595	1.080155	0.571284
H105	H	-0.108384	0.580091	-0.071954
H106	H	0.391616	1.080091	0.428046
H107	H	-0.024001	0.627916	-0.000205
H108	H	0.475999	1.127916	0.499795
O109	O	-0.045708	0.190917	-0.000161
O110	O	0.454292	0.690917	0.499839
C111	C	-0.141643	0.282677	0.088485
C112	C	0.358357	0.782677	0.588485
C113	C	-0.049967	0.233578	0.088410
C114	C	0.450033	0.733578	0.588410
H115	H	-0.145107	0.317191	0.160076
H116	H	0.354893	0.817191	0.660076
H117	H	-0.202501	0.250048	0.088539
H118	H	0.297499	0.750048	0.588539
H119	H	-0.145161	0.317175	0.016841
H120	H	0.354839	0.817175	0.516841
H121	H	-0.046359	0.199069	0.160042
H122	H	0.453641	0.699069	0.660042
H123	H	0.010847	0.266248	0.088302
H124	H	0.510847	0.766248	0.588302
O125	O	0.285727	0.158386	-0.000313
O126	O	0.785727	0.658386	0.499687
C127	C	0.452305	0.134405	-0.000378
C128	C	0.952305	0.634405	0.499622
C129	C	0.359038	0.103422	-0.000412
C130	C	0.859038	0.603422	0.499588
H131	H	0.511602	0.089982	-0.000480
H132	H	1.011602	0.589982	0.499520
H133	H	0.457230	0.168042	0.071265
H134	H	0.957230	0.668042	0.571265
H135	H	0.457126	0.168137	-0.071974
H136	H	0.957126	0.668137	0.428026
H137	H	0.354155	0.069658	0.071135
H138	H	0.854155	0.569658	0.571135
H139	H	0.354154	0.069825	-0.072102
H140	H	0.854154	0.569825	0.427898
H141	H	-0.035212	0.051746	-0.000437
H142	H	0.464788	0.551746	0.499563
H143	H	0.280975	0.598108	-0.000254
H144	H	0.780975	1.098108	0.499746
O145	O	0.291578	0.459071	-0.000334
O146	O	0.791578	0.959071	0.499666
C147	C	0.458456	0.450454	-0.000308
C148	C	0.958456	0.950454	0.499692
C149	C	0.366751	0.499519	-0.000242
C150	C	0.866751	0.999519	0.499758
H151	H	0.519257	0.483137	-0.000212
H152	H	1.019257	0.983137	0.499788
H153	H	0.462048	0.415991	-0.071958
H154	H	0.962048	0.915991	0.428042
H155	H	0.461948	0.415903	0.071280
H156	H	0.961948	0.915903	0.571280
H157	H	0.363198	0.534114	-0.071782
H158	H	0.863198	1.034114	0.428218
H159	H	0.363197	0.533935	0.071456
H160	H	0.863197	1.033935	0.571456
