data_functionalizedCrystal
_audit_creation_method	'MofGen! by Chris Wilmer'
_symmetry_space_group_name_H-M	'P1'
_symmetry_Int_Tables_number	1
_symmetry_cell_setting	triclinic
loop_
_symmetry_equiv_pos_as_xyz
  x,y,z
_cell_length_a	12.759387
_cell_length_b	19.077105
_cell_length_c	19.076806
_cell_angle_alpha	90.073911
_cell_angle_beta	87.663872
_cell_angle_gamma	92.320263
loop_
_atom_site_label
_atom_site_type_symbol
_atom_site_fract_x
_atom_site_fract_y
_atom_site_fract_z
Zn1	Zn	-0.638320	-1.063038	-0.322956
Zn2	Zn	-0.138320	-0.563038	0.177044
Zn3	Zn	-0.455281	-1.058224	-0.440484
Zn4	Zn	0.044719	-0.558224	0.059516
Zn5	Zn	-0.455892	-0.945522	-0.318262
Zn6	Zn	0.044108	-0.445522	0.181738
Zn7	Zn	-0.624165	-0.940779	-0.435705
Zn8	Zn	-0.124165	-0.440779	0.064295
O9	O	-0.543414	-1.001890	-0.379352
O10	O	-0.043414	-0.501890	0.120648
O11	O	-0.619707	-1.160731	-0.342510
O12	O	-0.119707	-0.660731	0.157490
O13	O	-0.308337	-1.043243	-0.424307
O14	O	0.191663	-0.543243	0.075693
O15	O	-0.486271	-0.965110	-0.220549
O16	O	0.013729	-0.465110	0.279451
O17	O	-0.485229	-1.157194	-0.428858
O18	O	0.014771	-0.657194	0.071142
O19	O	-0.620300	-1.051449	-0.223997
O20	O	-0.120300	-0.551449	0.276003
O21	O	-0.308786	-0.960442	-0.334511
O22	O	0.191214	-0.460442	0.165489
O23	O	-0.472546	-0.846561	-0.329877
O24	O	0.027454	-0.346561	0.170123
O25	O	-0.773067	-0.957027	-0.420713
O26	O	-0.273067	-0.457027	0.079287
O27	O	-0.596175	-0.843076	-0.416162
O28	O	-0.096175	-0.343076	0.083838
O29	O	-0.783467	-1.046850	-0.337876
O30	O	-0.283467	-0.546850	0.162124
O31	O	-0.471504	-1.038645	-0.538186
O32	O	0.028496	-0.538645	-0.038186
O33	O	-0.595582	-0.952359	-0.534675
O34	O	-0.095582	-0.452359	-0.034675
C35	C	-0.532891	-0.819322	-0.371992
C36	C	-0.032891	-0.319322	0.128008
C37	C	-0.528413	-0.741218	-0.368860
C38	C	-0.028413	-0.241218	0.131140
C39	C	-0.817455	-1.001946	-0.379285
C40	C	-0.317455	-0.501946	0.120715
C41	C	-0.934235	-1.001970	-0.379257
C42	C	-0.434235	-0.501970	0.120743
C43	C	-0.531964	-0.994484	-0.561929
C44	C	-0.031964	-0.494484	-0.061929
C45	C	-0.527105	-0.991379	-0.640038
C46	C	-0.027105	-0.491379	-0.140038
C47	C	-0.945084	-1.095509	-0.293005
C48	C	-0.445084	-0.595509	0.206995
C49	C	-1.005370	-1.142288	-0.249870
C50	C	-0.505370	-0.642288	0.250130
C51	C	-1.115095	-1.142306	-0.249845
C52	C	-0.615095	-0.642306	0.250155
C53	C	-1.164534	-1.095539	-0.292959
C54	C	-0.664534	-0.595539	0.207041
C55	C	-1.104248	-1.048759	-0.336094
C56	C	-0.604248	-0.548759	0.163906
C57	C	-0.994522	-1.048747	-0.336116
C58	C	-0.494522	-0.548747	0.163884
C59	C	-1.093399	-0.955218	-0.422341
C60	C	-0.593399	-0.455218	0.077659
C61	C	-0.983675	-0.955202	-0.422371
C62	C	-0.483675	-0.455202	0.077629
C63	C	-1.142839	-0.908450	-0.465455
C64	C	-0.642839	-0.408450	0.034545
C65	C	-1.082552	-0.861673	-0.508595
C66	C	-0.582552	-0.361673	-0.008595
C67	C	-0.972822	-0.861657	-0.508619
C68	C	-0.472822	-0.361657	-0.008619
C69	C	-0.923388	-0.908423	-0.465506
C70	C	-0.423388	-0.408423	0.034494
C71	C	-0.270445	-1.001877	-0.379369
C72	C	0.229555	-0.501877	0.120631
C73	C	-0.153686	-1.001998	-0.379205
C74	C	0.346314	-0.501998	0.120795
C75	C	-0.553979	-1.185172	-0.386741
C76	C	-0.053979	-0.685172	0.113259
C77	C	-0.558481	-1.263275	-0.389890
C78	C	-0.058481	-0.763275	0.110110
C79	C	-0.590567	-0.702726	-0.412381
C80	C	-0.090567	-0.202726	0.087619
C81	C	-0.586365	-0.629339	-0.409429
C82	C	-0.086365	-0.129339	0.090571
C83	C	-0.520004	-0.594445	-0.362960
C84	C	-0.020004	-0.094445	0.137040
C85	C	-0.457848	-0.632942	-0.319435
C86	C	0.042152	-0.132942	0.180565
C87	C	-0.462056	-0.706328	-0.322384
C88	C	0.037944	-0.206328	0.177616
C89	C	-0.500533	-0.375159	-0.349313
C90	C	-0.000533	0.124841	0.150687
C91	C	-0.496327	-0.301767	-0.346369
C92	C	0.003673	0.198233	0.153631
C93	C	-0.624847	-0.298169	-0.436363
C94	C	-0.124847	0.201831	0.063637
C95	C	-0.629044	-0.371556	-0.439310
C96	C	-0.129044	0.128444	0.060690
C97	C	-0.566892	-0.410047	-0.395783
C98	C	-0.066892	0.089953	0.104217
N99	N	-0.515705	-0.519432	-0.359943
N100	N	-0.015705	-0.019432	0.140057
N101	N	-0.571198	-0.485059	-0.398796
N102	N	-0.071198	0.014941	0.101204
C103	C	-0.492288	-0.969064	-1.079527
C104	C	0.007712	-0.469064	-0.579527
C105	C	-0.496853	-0.971983	-1.006134
C106	C	0.003147	-0.471983	-0.506134
C107	C	-0.568969	-1.018363	-0.971173
C108	C	-0.068969	-0.518363	-0.471173
C109	C	-0.636530	-1.061823	-1.009607
C110	C	-0.136530	-0.561823	-0.509607
C111	C	-0.631968	-1.058900	-1.082998
C112	C	-0.131968	-0.558900	-0.582998
C113	C	-0.590104	-1.031917	-0.751864
C114	C	-0.090104	-0.531917	-0.251864
C115	C	-0.594659	-1.034837	-0.678468
C116	C	-0.094659	-0.534837	-0.178468
C117	C	-0.454983	-0.944996	-0.675000
C118	C	0.045017	-0.444996	-0.175000
C119	C	-0.450424	-0.942080	-0.748392
C120	C	0.049576	-0.442080	-0.248392
C121	C	-0.517988	-0.985538	-0.786820
C122	C	-0.017988	-0.485538	-0.286820
N123	N	-0.573635	-1.021349	-0.896154
N124	N	-0.073635	-0.521349	-0.396154
N125	N	-0.513326	-0.982548	-0.861837
N126	N	-0.013326	-0.482548	-0.361837
C127	C	-0.554933	-1.009345	-0.196063
C128	C	-0.054933	-0.509345	0.303937
C129	C	-0.559841	-1.012522	-0.117956
C130	C	-0.059841	-0.512522	0.382044
H131	H	-0.855741	-1.095505	-0.293028
H132	H	-0.355741	-0.595505	0.206972
F133	F	-0.434388	-0.416114	-0.302985
F134	F	0.065612	0.083886	0.197015
H135	H	-0.403819	-0.604526	-0.281596
H136	H	0.096181	-0.104526	0.218404
H137	H	-1.232183	-0.908466	-0.465429
H138	H	-0.732183	-0.408466	0.034571
F139	F	-0.661193	-0.739855	-0.461843
F140	F	-0.161193	-0.239855	0.038157
F141	F	-0.952746	-1.192047	-0.203973
F142	F	-0.452746	-0.692047	0.296027
F143	F	-0.699673	-0.408687	-0.488770
F144	F	-0.199673	0.091313	0.011230
F145	F	-1.179258	-1.192085	-0.203926
F146	F	-0.679258	-0.692085	0.296074
H147	H	-0.923742	-0.823556	-0.543738
H148	H	-0.423742	-0.323556	-0.043738
H149	H	-0.411449	-0.737668	-0.286941
H150	H	0.088551	-0.237668	0.213059
H151	H	-0.433560	-0.931299	-1.107987
H152	H	0.066440	-0.431299	-0.607987
H153	H	-0.441847	-0.936595	-0.974845
H154	H	0.058153	-0.436595	-0.474845
H155	H	-0.636976	-0.598002	-0.444868
H156	H	-0.136976	-0.098002	0.055132
F157	F	-0.373670	-0.892715	-0.785595
F158	F	0.126330	-0.392715	-0.285595
H159	H	-0.675449	-0.266822	-0.471799
H160	H	-0.175449	0.233178	0.028201
F161	F	-0.806610	-0.908413	-0.465531
F162	F	-0.306610	-0.408413	0.034469
F163	F	-0.383084	-0.898747	-0.634097
F164	F	0.116916	-0.398747	-0.134097
H165	H	-0.653387	-1.072609	-0.650006
H166	H	-0.153387	-0.572609	-0.150006
H167	H	-0.442295	-0.273360	-0.308521
H168	H	0.057705	0.226640	0.191479
H169	H	-0.695253	-1.099584	-0.981137
H170	H	-0.195253	-0.599584	-0.481137
F171	F	-1.281313	-1.095555	-0.292924
F172	F	-0.781313	-0.595555	0.207076
F173	F	-0.662021	-1.078163	-0.792752
F174	F	-0.162021	-0.578163	-0.292752
H175	H	-0.686986	-1.094283	-1.114286
H176	H	-0.186986	-0.594283	-0.614286
H177	H	-1.122815	-0.823595	-0.543691
H178	H	-0.622815	-0.323595	-0.043691
