data_functionalizedCrystal
_audit_creation_method	'MofGen! by Chris Wilmer'
_symmetry_space_group_name_H-M	'P1'
_symmetry_Int_Tables_number	1
_symmetry_cell_setting	triclinic
loop_
_symmetry_equiv_pos_as_xyz
  x,y,z
_cell_length_a	19.188930
_cell_length_b	14.519709
_cell_length_c	12.996460
_cell_angle_alpha	90.007090
_cell_angle_beta	89.980533
_cell_angle_gamma	96.587538
loop_
_atom_site_label
_atom_site_type_symbol
_atom_site_fract_x
_atom_site_fract_y
_atom_site_fract_z
O1	O	0.926556	-0.115137	-0.085900
O2	O	1.259889	0.218196	0.247433
O3	O	1.593222	0.551530	0.580767
O4	O	0.723300	-0.130636	-0.085830
O5	O	1.056633	0.202697	0.247504
O6	O	1.389966	0.536030	0.580837
O7	O	0.830317	0.011385	-0.085857
O8	O	1.163650	0.344719	0.247476
O9	O	1.496983	0.678052	0.580809
O10	O	0.819539	-0.257159	-0.085872
O11	O	1.152872	0.076175	0.247461
O12	O	1.486205	0.409508	0.580794
O13	O	0.830306	0.011393	0.085276
O14	O	1.163639	0.344726	0.418610
O15	O	1.496972	0.678060	0.751943
O16	O	0.723288	-0.130629	0.085304
O17	O	1.056622	0.202705	0.418637
O18	O	1.389955	0.536038	0.751971
O19	O	0.926545	-0.115129	0.085234
O20	O	1.259878	0.218204	0.418567
O21	O	1.593211	0.551537	0.751901
Cu22	Cu	0.824915	-0.122878	0.100895
Cu23	Cu	1.158249	0.210455	0.434228
Cu24	Cu	1.491582	0.543788	0.767562
Cu25	Cu	0.824929	-0.122887	-0.101491
Cu26	Cu	1.158262	0.210446	0.231843
Cu27	Cu	1.491595	0.543779	0.565176
O28	O	0.819527	-0.257151	0.085262
O29	O	1.152861	0.076182	0.418595
O30	O	1.486194	0.409516	0.751928
C31	C	0.697281	-0.130131	-0.000254
C32	C	1.030615	0.203203	0.333080
C33	C	1.363948	0.536536	0.666413
C34	C	0.619771	-0.128624	-0.000227
C35	C	0.953105	0.204710	0.333107
C36	C	1.286438	0.538043	0.666440
N37	N	0.824911	-0.122871	0.243242
N38	N	1.158245	0.210462	0.576575
N39	N	1.491578	0.543795	0.909909
C40	C	0.829809	0.045746	-0.000290
C41	C	1.163142	0.379079	0.333043
C42	C	1.496475	0.712412	0.666377
C43	C	0.828304	0.148118	-0.000289
C44	C	1.161637	0.481451	0.333044
C45	C	1.494970	0.814784	0.666378
C46	C	0.575144	-0.211957	-0.000247
C47	C	0.908477	0.121376	0.333086
C48	C	1.241811	0.454709	0.666419
C49	C	0.502315	-0.210542	-0.000259
C50	C	0.835649	0.122791	0.333075
C51	C	1.168982	0.456125	0.666408
C52	C	0.474117	-0.125788	-0.000270
C53	C	0.807450	0.207545	0.333064
C54	C	1.140784	0.540879	0.666397
C55	C	0.518754	-0.042444	-0.000243
C56	C	0.852087	0.290890	0.333090
C57	C	1.185421	0.624223	0.666423
C58	C	0.591581	-0.043861	-0.000222
C59	C	0.924915	0.289472	0.333112
C60	C	1.258248	0.622805	0.666445
N61	N	0.365910	-0.061007	-0.058552
N62	N	0.699243	0.272326	0.274781
N63	N	1.032577	0.605660	0.608115
N64	N	0.296727	-0.059666	-0.058575
N65	N	0.630060	0.273668	0.274759
N66	N	0.963393	0.607001	0.608092
C67	C	0.254693	-0.121511	-0.000332
C68	C	0.588026	0.211822	0.333001
C69	C	0.921360	0.545156	0.666334
N70	N	0.284455	-0.184762	0.057920
N71	N	0.617789	0.148571	0.391254
N72	N	0.951122	0.481904	0.724587
N73	N	0.353645	-0.186106	0.057938
N74	N	0.686978	0.147227	0.391272
N75	N	1.020311	0.480560	0.724605
C76	C	0.395149	-0.124241	-0.000292
C77	C	0.728482	0.209092	0.333041
C78	C	1.061816	0.542425	0.666374
C79	C	0.131096	-0.203315	-0.000364
C80	C	0.464429	0.130018	0.332969
C81	C	0.797763	0.463351	0.666303
C82	C	0.058266	-0.201896	-0.000369
C83	C	0.391599	0.131437	0.332965
C84	C	0.724933	0.464770	0.666298
C85	C	0.074706	-0.033796	-0.000364
C86	C	0.408040	0.299538	0.332970
C87	C	0.741373	0.632871	0.666303
C88	C	0.147535	-0.035217	-0.000348
C89	C	0.480868	0.298116	0.332985
C90	C	0.814201	0.631450	0.666318
C91	C	0.175725	-0.119980	-0.000353
C92	C	0.509058	0.213354	0.332980
C93	C	0.842391	0.546687	0.666313
C94	C	0.952563	-0.115635	-0.000344
C95	C	1.285896	0.217698	0.332989
C96	C	1.619230	0.551032	0.666322
C97	C	1.030073	-0.117142	-0.000378
C98	C	1.363406	0.216191	0.332955
C99	C	1.696740	0.549525	0.666288
C100	C	0.820035	-0.291511	-0.000308
C101	C	1.153369	0.041822	0.333025
C102	C	1.486702	0.375155	0.666359
C103	C	0.821541	-0.393883	-0.000316
C104	C	1.154874	-0.060550	0.333018
C105	C	1.488207	0.272783	0.666351
C106	C	0.822762	0.522979	-0.000314
C107	C	1.156096	0.856312	0.333019
C108	C	1.489429	1.189646	0.666353
C109	C	0.824301	0.418681	-0.000307
C110	C	1.157634	0.752014	0.333027
C111	C	1.490968	1.085347	0.666360
C112	C	0.825533	0.335552	-0.000300
C113	C	1.158866	0.668885	0.333033
C114	C	1.492199	1.002218	0.666366
C115	C	0.827072	0.231247	-0.000295
C116	C	1.160405	0.564580	0.333038
C117	C	1.493739	0.897913	0.666371
N118	N	0.824938	-0.122887	-0.243838
N119	N	1.158272	0.210446	0.089496
N120	N	1.491605	0.543779	0.422829
C121	C	0.824928	-0.122888	0.663056
C122	C	1.158261	0.210445	0.996390
C123	C	1.491594	0.543778	1.329723
C124	C	0.824921	-0.122887	0.546251
C125	C	1.158254	0.210447	0.879584
C126	C	1.491588	0.543780	1.212918
C127	C	0.824920	-0.122880	0.453153
C128	C	1.158253	0.210453	0.786486
C129	C	1.491587	0.543786	1.119820
C130	C	0.824913	-0.122877	0.336340
C131	C	1.158246	0.210456	0.669674
C132	C	1.491579	0.543789	1.003007
H133	H	0.598091	-0.280978	-0.000253
H134	H	0.931425	0.052356	0.333080
H135	H	1.264758	0.385689	0.666413
H136	H	0.627917	0.024001	-0.000205
H137	H	0.961251	0.357334	0.333128
H138	H	1.294584	0.690668	0.666461
H139	H	0.183871	0.032642	-0.000337
H140	H	0.517205	0.365976	0.332996
H141	H	0.850538	0.699309	0.666329
H142	H	0.465973	-0.278404	-0.000273
H143	H	0.799306	0.054929	0.333061
H144	H	1.132640	0.388262	0.666394
O145	O	0.491332	0.039863	-0.000440
O146	O	0.824665	0.373196	0.332894
O147	O	1.157999	0.706530	0.666227
C148	C	0.449718	0.045699	-0.089073
C149	C	0.783051	0.379032	0.244260
C150	C	1.116385	0.712366	0.577594
H151	H	0.467026	-0.002425	-0.151016
H152	H	0.800359	0.330908	0.182317
H153	H	1.133693	0.664242	0.515650
H154	H	0.392308	0.024193	-0.069056
H155	H	0.725641	0.357527	0.264278
H156	H	1.058974	0.690860	0.597611
C157	C	0.437176	0.205239	-0.053177
C158	C	0.770509	0.538572	0.280156
C159	C	1.103842	0.871905	0.613489
C160	C	0.458437	0.146138	-0.129260
C161	C	0.791771	0.479471	0.204073
C162	C	1.125104	0.812804	0.537406
H163	H	0.442551	0.267194	-0.077965
H164	H	0.775884	0.600528	0.255368
H165	H	1.109218	0.933861	0.588701
H166	H	0.465209	0.201307	0.006539
H167	H	0.798543	0.534640	0.339872
H168	H	1.131876	0.867973	0.673206
H169	H	0.389335	0.187306	-0.036503
H170	H	0.722668	0.520639	0.296830
H171	H	1.056002	0.853973	0.630164
H172	H	0.506279	0.164064	-0.145924
H173	H	0.839612	0.497397	0.187409
H174	H	1.172946	0.830730	0.520743
H175	H	0.430412	0.150075	-0.188981
H176	H	0.763745	0.483409	0.144353
H177	H	1.097079	0.816742	0.477686
H178	H	0.021931	-0.269760	-0.000380
H179	H	0.355264	0.063574	0.332954
H180	H	0.688597	0.396907	0.666287
O181	O	0.158369	-0.285730	-0.000312
O182	O	0.491703	0.047604	0.333021
O183	O	0.825036	0.380937	0.666354
C184	C	0.103359	-0.358982	-0.000348
C185	C	0.436692	-0.025648	0.332985
C186	C	0.770025	0.307685	0.666319
H187	H	0.053844	-0.333329	0.032041
H188	H	0.387177	0.000004	0.365374
H189	H	0.720511	0.333337	0.698708
H190	H	0.093112	-0.384679	-0.082452
H191	H	0.426446	-0.051346	0.250882
H192	H	0.759779	0.281987	0.584215
C193	C	0.184810	-0.470443	0.026989
C194	C	0.518144	-0.137110	0.360322
C195	C	0.851477	0.196223	0.693655
C196	C	0.123997	-0.438939	0.066778
C197	C	0.457330	-0.105605	0.400111
C198	C	0.790664	0.227728	0.733444
H199	H	0.197541	-0.519767	0.068390
H200	H	0.530875	-0.186433	0.401724
H201	H	0.864208	0.146900	0.735057
H202	H	0.221873	-0.421093	0.027009
H203	H	0.555206	-0.087760	0.360342
H204	H	0.888539	0.245574	0.693675
H205	H	0.176264	-0.491851	-0.041430
H206	H	0.509597	-0.158518	0.291903
H207	H	0.842930	0.174815	0.625236
H208	H	0.132547	-0.417520	0.135190
H209	H	0.465880	-0.084187	0.468523
H210	H	0.799214	0.249146	0.801856
H211	H	0.086936	-0.488287	0.066770
H212	H	0.420270	-0.154954	0.400104
H213	H	0.753603	0.178379	0.733437
H214	H	0.051748	0.035213	-0.000437
H215	H	0.385082	0.368546	0.332897
H216	H	0.718415	0.701879	0.666230
