data_functionalizedCrystal
_audit_creation_method	'MofGen! by Chris Wilmer'
_symmetry_space_group_name_H-M	'P1'
_symmetry_Int_Tables_number	1
_symmetry_cell_setting	triclinic
loop_
_symmetry_equiv_pos_as_xyz
  x,y,z
_cell_length_a	15.995292
_cell_length_b	10.723024
_cell_length_c	9.198806
_cell_angle_alpha	90.002012
_cell_angle_beta	89.994884
_cell_angle_gamma	96.031757
loop_
_atom_site_label
_atom_site_type_symbol
_atom_site_fract_x
_atom_site_fract_y
_atom_site_fract_z
O1	O	1.111937	-0.160493	-0.120928
O2	O	1.611937	0.339507	0.379072
O3	O	0.868270	-0.180431	-0.120922
O4	O	1.368270	0.319569	0.379078
O5	O	0.995724	0.011187	-0.120920
O6	O	1.495724	0.511187	0.379080
O7	O	0.984483	-0.352112	-0.120930
O8	O	1.484483	0.147888	0.379070
O9	O	0.995714	0.011188	0.120865
O10	O	1.495714	0.511188	0.620865
O11	O	0.868260	-0.180431	0.120863
O12	O	1.368260	0.319569	0.620863
O13	O	1.111927	-0.160493	0.120857
O14	O	1.611927	0.339507	0.620857
Cu15	Cu	0.990092	-0.170462	0.142937
Cu16	Cu	1.490092	0.329538	0.642937
Cu17	Cu	0.990105	-0.170462	-0.143002
Cu18	Cu	1.490105	0.329538	0.356998
O19	O	0.984473	-0.352111	0.120855
O20	O	1.484473	0.147889	0.620855
C21	C	0.994901	0.057677	-0.000029
C22	C	1.494901	0.557677	0.499971
C23	C	0.992453	0.196199	-0.000034
C24	C	1.492453	0.696199	0.499966
C25	C	0.837065	-0.179619	-0.000029
C26	C	1.337065	0.320381	0.499971
C27	C	0.744098	-0.177187	-0.000026
C28	C	1.244098	0.322813	0.499974
C29	C	0.406308	-0.168243	-0.000042
C30	C	0.906308	0.331757	0.499958
C31	C	0.430415	-0.306548	-0.000586
C32	C	0.930415	0.193452	0.499414
C33	C	0.527105	-0.309177	-0.000035
C34	C	1.027105	0.190823	0.499965
C35	C	0.573889	-0.172681	-0.000035
C36	C	1.073889	0.327319	0.499965
C37	C	0.544384	-0.103535	0.138033
C38	C	1.044384	0.396465	0.638033
C39	C	0.447584	-0.101870	0.138143
C40	C	0.947584	0.398130	0.638143
C41	C	0.447724	-0.099046	-0.136812
C42	C	0.947724	0.400954	0.363188
C43	C	0.544246	-0.104171	-0.138631
C44	C	1.044246	0.395829	0.361369
C45	C	0.668600	-0.175182	-0.000026
C46	C	1.168600	0.324818	0.499974
C47	C	0.311598	-0.165738	-0.000042
C48	C	0.811598	0.334262	0.499958
C49	C	1.143132	-0.161305	-0.000040
C50	C	1.643132	0.338695	0.499960
C51	C	1.236099	-0.163737	-0.000051
C52	C	1.736099	0.336263	0.499949
C53	C	0.985296	-0.398601	-0.000039
C54	C	1.485296	0.101399	0.499961
C55	C	0.987743	-0.537123	-0.000044
C56	C	1.487743	-0.037123	0.499956
N57	N	0.990090	-0.170461	0.344051
N58	N	1.490090	0.329539	0.844051
C59	C	1.063770	0.272114	-0.000038
C60	C	1.563770	0.772114	0.499962
C61	C	1.061242	0.415284	-0.000043
C62	C	1.561242	0.915284	0.499957
N63	N	0.990113	-0.170453	-0.344116
N64	N	1.490113	0.329547	0.155884
C65	C	1.043604	-0.089654	0.416249
C66	C	1.543604	0.410346	0.916249
C67	C	1.043617	-0.089649	0.583661
C68	C	1.543617	0.410351	1.083661
H69	H	0.546447	-0.363322	-0.099012
H70	H	1.046447	0.136678	0.400988
F71	F	0.427801	0.030669	0.146406
F72	F	0.927801	0.530669	0.646406
H73	H	0.421038	-0.149757	0.241351
H74	H	0.921038	0.350243	0.741351
H75	H	0.929525	0.237199	-0.000042
H76	H	1.429525	0.737199	0.499958
F77	F	1.103328	0.000991	0.335050
F78	F	1.603328	0.500991	0.835050
H79	H	1.122295	0.480514	-0.000040
H80	H	1.622295	0.980514	0.499960
H81	H	0.576644	-0.004543	-0.146970
H82	H	1.076644	0.495457	0.353030
H83	H	0.944298	-0.239644	0.593806
H84	H	1.444298	0.260356	1.093806
F85	F	0.585276	0.027756	0.144741
F86	F	1.085276	0.527756	0.644741
H87	H	0.926687	0.397654	-0.000031
H88	H	1.426687	0.897654	0.499969
H89	H	1.089437	-0.020472	0.645748
H90	H	1.589437	0.479528	1.145748
H91	H	0.944281	-0.239635	0.406178
H92	H	1.444281	0.260365	0.906178
H93	H	0.564715	-0.151552	0.240783
H94	H	1.064715	0.348448	0.740783
F95	F	0.568931	-0.169944	-0.272143
F96	F	1.068931	0.330056	0.227857
H97	H	0.402729	-0.359857	-0.099602
H98	H	0.902729	0.140143	0.400398
H99	H	0.545817	-0.363656	0.099103
H100	H	1.045817	0.136344	0.599103
F101	F	0.411045	-0.155569	-0.273596
F102	F	0.911045	0.344431	0.226404
F103	F	0.392877	-0.375845	0.128099
F104	F	0.892877	0.124155	0.628099
F105	F	0.428675	0.034018	-0.138030
F106	F	0.928675	0.534018	0.361970
H107	H	1.126699	0.231114	-0.000030
H108	H	1.626699	0.731114	0.499970
