data_functionalizedCrystal
_audit_creation_method	'MofGen! by Chris Wilmer'
_symmetry_space_group_name_H-M	'P1'
_symmetry_Int_Tables_number	1
_symmetry_cell_setting	triclinic
loop_
_symmetry_equiv_pos_as_xyz
  x,y,z
_cell_length_a	17.077404
_cell_length_b	18.050589
_cell_length_c	17.077396
_cell_angle_alpha	89.975358
_cell_angle_beta	89.980499
_cell_angle_gamma	90.028446
loop_
_atom_site_label
_atom_site_type_symbol
_atom_site_fract_x
_atom_site_fract_y
_atom_site_fract_z
Zn1	Zn	1.200026	-0.295655	-0.443864
Zn2	Zn	1.700026	0.204345	0.056136
Zn3	Zn	1.199920	-0.419852	-0.312606
Zn4	Zn	1.699920	0.080148	0.187394
Zn5	Zn	1.068757	-0.295681	-0.312612
Zn6	Zn	1.568757	0.204319	0.187388
Zn7	Zn	1.068713	-0.419808	-0.443830
Zn8	Zn	1.568713	0.080192	0.056170
O9	O	1.134354	-0.357749	-0.378228
O10	O	1.634354	0.142251	0.121772
O11	O	1.309858	-0.312138	-0.426464
O12	O	1.809858	0.187862	0.073536
O13	O	1.182496	-0.403410	-0.202760
O14	O	1.682496	0.096590	0.297240
O15	O	1.086233	-0.191753	-0.330039
O16	O	1.586233	0.308247	0.169961
O17	O	1.309781	-0.403385	-0.330030
O18	O	1.809781	0.096615	0.169970
O19	O	1.182675	-0.191734	-0.426469
O20	O	1.682675	0.308266	0.073531
O21	O	1.086131	-0.312182	-0.202764
O22	O	1.586131	0.187818	0.297236
O23	O	0.958905	-0.312139	-0.330006
O24	O	1.458905	0.187861	0.169994
O25	O	1.086157	-0.403310	-0.553681
O26	O	1.586157	0.096690	-0.053681
O27	O	0.958872	-0.403335	-0.426412
O28	O	1.458872	0.096665	0.073588
O29	O	1.182632	-0.312095	-0.553706
O30	O	1.682632	0.187905	-0.053706
O31	O	1.182453	-0.523771	-0.329997
O32	O	1.682453	-0.023771	0.170003
O33	O	1.086056	-0.523739	-0.426407
O34	O	1.586056	-0.023739	0.073593
C35	C	0.930406	-0.357736	-0.378206
C36	C	1.430406	0.142264	0.121794
C37	C	0.843156	-0.357748	-0.378216
C38	C	1.343156	0.142252	0.121784
C39	C	0.802170	-0.405305	-0.428333
C40	C	1.302170	0.094695	0.071667
C41	C	0.720189	-0.405307	-0.428346
C42	C	1.220189	0.094693	0.071654
C43	C	0.679197	-0.357754	-0.378236
C44	C	1.179197	0.142246	0.121764
C45	C	0.720189	-0.310192	-0.328116
C46	C	1.220189	0.189808	0.171884
C47	C	0.802168	-0.310187	-0.328108
C48	C	1.302168	0.189813	0.171892
C49	C	0.549319	-0.310206	-0.328135
C50	C	1.049319	0.189794	0.171865
C51	C	0.467335	-0.310212	-0.328142
C52	C	0.967335	0.189788	0.171858
C53	C	0.467340	-0.405326	-0.428373
C54	C	0.967340	0.094674	0.071627
C55	C	0.549319	-0.405321	-0.428365
C56	C	1.049319	0.094679	0.071635
C57	C	0.590306	-0.357760	-0.378244
C58	C	1.090306	0.142240	0.121756
C59	C	1.134259	-0.550701	-0.378215
C60	C	1.634259	-0.050701	0.121785
C61	C	1.134291	-0.633247	-0.378236
C62	C	1.634291	-0.133247	0.121764
C63	C	1.081921	-0.832707	-0.430645
C64	C	1.581921	-0.332707	0.069355
C65	C	1.062786	-0.882149	-0.359016
C66	C	1.562786	-0.382149	0.140984
C67	C	1.134368	-0.784377	-0.378246
C68	C	1.634368	-0.284377	0.121754
C69	C	1.153541	-0.882017	-0.449883
C70	C	1.653541	-0.382017	0.050117
C71	C	1.134441	-0.930362	-0.378262
C72	C	1.634441	-0.430362	0.121738
C73	C	1.115195	-0.832732	-0.306579
C74	C	1.615195	-0.332732	0.193421
C75	C	1.205984	-0.832596	-0.397495
C76	C	1.705984	-0.332596	0.102505
C77	C	1.186876	-0.882016	-0.325816
C78	C	1.686876	-0.382016	0.174184
C79	C	1.134324	-0.700279	-0.378238
C80	C	1.634324	-0.200279	0.121762
C81	C	1.134485	-1.014459	-0.378262
C82	C	1.634485	-0.514459	0.121738
C83	C	1.339098	-0.357763	-0.378250
C84	C	1.839098	0.142237	0.121750
C85	C	1.426348	-0.357769	-0.378260
C86	C	1.926348	0.142231	0.121740
C87	C	1.134402	-0.357694	-0.582972
C88	C	1.634402	0.142306	-0.082972
C89	C	1.134422	-0.357671	-0.670222
C90	C	1.634422	0.142329	-0.170222
C91	C	1.134471	-0.164043	-0.378258
C92	C	1.634471	0.335957	0.121742
C93	C	1.134520	-0.081498	-0.378271
C94	C	1.634520	0.418502	0.121729
C95	C	1.184658	-0.310172	-0.711226
C96	C	1.684658	0.189828	-0.211226
C97	C	1.184667	-0.310147	-0.793207
C98	C	1.684667	0.189853	-0.293207
C99	C	1.134444	-0.357626	-0.834182
C100	C	1.634444	0.142374	-0.334182
C101	C	1.084202	-0.405128	-0.793172
C102	C	1.584202	0.094872	-0.293172
C103	C	1.084190	-0.405148	-0.711193
C104	C	1.584190	0.094852	-0.211193
C105	C	1.084234	-0.405083	-0.964042
C106	C	1.584234	0.094917	-0.464042
C107	C	1.084248	-0.405064	-1.046026
C108	C	1.584248	0.094936	-0.546026
C109	C	1.184712	-0.310082	-1.046056
C110	C	1.684712	0.189918	-0.546056
C111	C	1.184699	-0.310102	-0.964077
C112	C	1.684699	0.189898	-0.464077
C113	C	1.134458	-0.357605	-0.923073
C114	C	1.634458	0.142395	-0.423073
C115	C	1.134352	-0.357750	-0.174280
C116	C	1.634352	0.142250	0.325720
C117	C	1.134484	-0.357564	-0.087031
C118	C	1.634484	0.142436	0.412969
H119	H	0.686822	-0.444033	-0.469156
H120	H	1.186822	0.055967	0.030844
H121	H	1.225558	-0.271511	-0.677871
H122	H	1.725558	0.228489	-0.177871
N123	N	1.093654	-0.804180	-0.226317
N124	N	1.593654	-0.304180	0.273683
H125	H	1.083952	-0.847378	-0.189972
H126	H	1.583952	-0.347378	0.310028
H127	H	1.137944	-0.772949	-0.205186
H128	H	1.637944	-0.272949	0.294814
H129	H	1.225577	-0.271470	-0.826589
H130	H	1.725577	0.228530	-0.326589
H131	H	0.835538	-0.271457	-0.287301
H132	H	1.335538	0.228543	0.212699
H133	H	1.002257	-0.903931	-0.342749
H134	H	1.502257	-0.403931	0.157251
N135	N	1.238868	-0.258888	-0.919889
N136	N	1.738868	0.241112	-0.419889
H137	H	1.206980	-0.224481	-0.885877
H138	H	1.706980	0.275519	-0.385877
H139	H	1.275212	-0.289130	-0.885921
H140	H	1.775212	0.210870	-0.385921
H141	H	0.835540	-0.444030	-0.469136
H142	H	1.335540	0.055970	0.030864
H143	H	0.433961	-0.271482	-0.287347
H144	H	0.933961	0.228518	0.212653
H145	H	1.225619	-0.271402	-1.079446
H146	H	1.725619	0.228598	-0.579446
N147	N	1.245662	-0.910526	-0.267065
N148	N	1.745662	-0.410526	0.232935
H149	H	1.286475	-0.941285	-0.294882
H150	H	1.786475	-0.441285	0.205118
H151	H	1.271831	-0.867273	-0.240190
H152	H	1.771831	-0.367273	0.259810
H153	H	1.043307	-0.443783	-0.826540
H154	H	1.543307	0.056217	-0.326540
N155	N	1.030080	-0.456272	-1.090224
N156	N	1.530080	0.043728	-0.590224
H157	H	0.998247	-0.486364	-1.051810
H158	H	1.498247	0.013636	-0.551810
H159	H	0.993783	-0.426026	-1.124239
H160	H	1.493783	0.073974	-0.624239
H161	H	1.043310	-0.443753	-0.930658
H162	H	1.543310	0.056247	-0.430658
H163	H	1.043274	-0.443819	-0.677808
H164	H	1.543274	0.056181	-0.177808
N165	N	1.023084	-0.804018	-0.489249
N166	N	1.523084	-0.304018	0.010751
H167	H	1.023825	-0.748069	-0.489179
H168	H	1.523825	-0.248069	0.010821
H169	H	1.037013	-0.822767	-0.543195
H170	H	1.537013	-0.322767	-0.043195
N171	N	1.286144	-0.803743	-0.419079
N172	N	1.786144	-0.303743	0.080921
H173	H	1.300554	-0.821637	-0.473225
H174	H	1.800554	-0.321637	0.026775
H175	H	1.285586	-0.747799	-0.418360
H176	H	1.785586	-0.247799	0.081640
N177	N	1.174983	-0.910699	-0.530120
N178	N	1.674983	-0.410699	-0.030120
H179	H	1.184192	-0.867560	-0.566671
H180	H	1.684192	-0.367560	-0.066671
H181	H	1.224226	-0.941457	-0.526363
H182	H	1.724226	-0.441457	-0.026363
N183	N	0.593536	-0.456615	-0.482403
N184	N	1.093536	0.043385	0.017597
H185	H	0.555133	-0.486746	-0.514156
H186	H	1.055133	0.013254	-0.014156
H187	H	0.627581	-0.426427	-0.518780
H188	H	1.127581	0.073573	-0.018780
H189	H	0.433965	-0.444050	-0.469186
H190	H	0.933965	0.055950	0.030814
H191	H	0.582688	-0.271470	-0.287328
H192	H	1.082688	0.228530	0.212672
H193	H	0.686807	-0.271471	-0.287319
H194	H	1.186807	0.228529	0.212681
