data_functionalizedCrystal
_audit_creation_method	'MofGen! by Chris Wilmer'
_symmetry_space_group_name_H-M	'P1'
_symmetry_Int_Tables_number	1
_symmetry_cell_setting	triclinic
loop_
_symmetry_equiv_pos_as_xyz
  x,y,z
_cell_length_a	19.288864
_cell_length_b	16.974813
_cell_length_c	18.366186
_cell_angle_alpha	86.339196
_cell_angle_beta	89.977106
_cell_angle_gamma	83.265128
loop_
_atom_site_label
_atom_site_type_symbol
_atom_site_fract_x
_atom_site_fract_y
_atom_site_fract_z
O1	O	0.921530	0.098638	-0.066594
O2	O	0.719293	0.111944	-0.067328
O3	O	0.826049	-0.009832	-0.060176
O4	O	0.814775	0.220415	-0.073747
O5	O	0.826031	-0.009838	0.060924
O6	O	0.719275	0.111938	0.053771
O7	O	0.921512	0.098632	0.054506
Zn8	Zn	0.820391	0.105284	0.073366
Zn9	Zn	0.820415	0.105292	-0.086188
O10	O	0.814756	0.220409	0.047353
C11	C	0.693407	0.111513	-0.006747
C12	C	0.616301	0.110228	-0.006652
C13	C	0.571734	0.181681	-0.010875
C14	C	0.499284	0.180474	-0.010812
C15	C	0.471406	0.107809	-0.006540
C16	C	0.515984	0.036347	-0.002312
C17	C	0.588431	0.037556	-0.002368
C18	C	0.363048	0.050689	-0.045624
C19	C	0.290601	0.049482	-0.045573
C20	C	0.247954	0.104076	-0.006364
C21	C	0.277761	0.159889	0.032783
C22	C	0.350208	0.161098	0.032727
C23	C	0.392850	0.106489	-0.006479
C24	C	0.124828	0.174224	-0.010518
C25	C	0.052377	0.173014	-0.010450
C26	C	0.069078	0.028885	-0.001958
C27	C	0.141527	0.030097	-0.002019
C28	C	0.169397	0.102769	-0.006302
C29	C	0.825611	-0.039292	0.002109
C30	C	0.824324	-0.127065	0.007280
C31	C	0.823731	-0.168293	-0.056302
C32	C	0.822517	-0.250763	-0.051442
C33	C	0.821902	-0.292006	0.017001
C34	C	0.822493	-0.250772	0.080587
C35	C	0.823702	-0.168302	0.075727
C36	C	0.818281	-0.538655	0.038617
C37	C	0.817075	-0.621131	0.043473
C38	C	0.817098	-0.621117	-0.088557
C39	C	0.818311	-0.538646	-0.093412
C40	C	0.818898	-0.497418	-0.029825
N41	N	0.820663	-0.376304	0.021970
N42	N	0.820131	-0.413120	-0.034795
C43	C	0.947398	0.099063	-0.006078
C44	C	1.024504	0.100349	-0.006177
C45	C	0.815195	0.249869	-0.014934
C46	C	0.816482	0.337641	-0.020109
N47	N	0.820380	0.105279	0.182257
N48	N	0.820431	0.105292	-0.195080
C49	C	0.867666	0.051382	0.223523
C50	C	0.867671	0.051379	0.299751
C51	C	0.820395	0.105285	0.334710
C52	C	0.773099	0.159185	0.293434
C53	C	0.773092	0.159182	0.217208
C54	C	0.811226	0.177330	0.451225
C55	C	0.811239	0.177334	0.527450
C56	C	0.820415	0.105295	0.569816
C57	C	0.829593	0.033248	0.535950
C58	C	0.829585	0.033245	0.459723
C59	C	0.820398	0.105294	0.417364
C60	C	0.867709	0.051390	0.693738
C61	C	0.867709	0.051386	0.769967
C62	C	0.773140	0.159199	0.763648
C63	C	0.773137	0.159197	0.687421
C64	C	0.820425	0.105293	0.652470
H65	H	0.624719	-0.020632	0.001070
C66	C	0.816560	-0.665967	0.117773
C67	C	0.875612	-0.722394	0.124944
C68	C	0.875175	-0.763702	0.193380
H69	H	0.775656	-0.692047	0.122144
H70	H	0.817124	-0.629627	0.154965
H71	H	0.875042	-0.758729	0.087763
H72	H	0.916526	-0.696335	0.120586
H73	H	0.875738	-0.727362	0.230571
H74	H	0.834268	-0.789777	0.197744
H75	H	0.915243	-0.801988	0.198256
C76	C	0.824250	-0.123546	-0.130639
C77	C	0.764222	-0.134489	-0.169788
C78	C	0.764668	-0.093276	-0.238269
H79	H	0.864492	-0.143194	-0.156703
H80	H	0.825017	-0.068509	-0.124468
H81	H	0.763462	-0.189514	-0.175961
H82	H	0.723971	-0.114837	-0.143746
H83	H	0.765435	-0.038240	-0.232098
H84	H	0.804912	-0.112929	-0.264327
H85	H	0.723937	-0.100690	-0.264838
C86	C	0.818786	-0.493957	-0.167779
C87	C	0.758741	-0.504974	-0.206864
C88	C	0.759133	-0.463841	-0.275385
H89	H	0.859016	-0.513623	-0.193853
H90	H	0.819541	-0.438906	-0.161671
H91	H	0.757992	-0.560013	-0.212974
H92	H	0.718501	-0.485305	-0.180812
H93	H	0.759888	-0.408790	-0.269278
H94	H	0.799365	-0.483510	-0.301453
H95	H	0.718390	-0.471304	-0.301910
C96	C	0.816580	-0.665846	-0.157620
C97	C	0.876609	-0.654908	-0.198113
C98	C	0.876150	-0.696102	-0.261738
H99	H	0.776339	-0.646182	-0.185964
H100	H	0.815804	-0.720883	-0.144964
H101	H	0.877378	-0.599882	-0.210769
H102	H	0.916860	-0.674576	-0.169790
H103	H	0.875373	-0.751139	-0.249083
H104	H	0.835906	-0.676434	-0.290076
H105	H	0.916881	-0.688692	-0.289217
H106	H	0.016090	0.231202	-0.013885
H107	H	0.906212	0.007496	0.665280
C108	C	0.721659	0.217621	0.331353
C109	C	0.653419	0.204976	0.313611
C110	C	0.606010	0.258783	0.348536
H111	H	0.729050	0.270408	0.315771
H112	H	0.728390	0.209901	0.382669
H113	H	0.646690	0.212703	0.262307
H114	H	0.646006	0.152201	0.329195
H115	H	0.612741	0.251063	0.399852
H116	H	0.613407	0.311566	0.332951
H117	H	0.559704	0.250206	0.336509
H118	H	0.906213	0.007493	0.803567
H119	H	0.822037	-0.284328	-0.103218
C120	C	0.824202	-0.123468	0.144731
C121	C	0.765155	-0.067032	0.145276
C122	C	0.765583	-0.025723	0.208836
H123	H	0.865109	-0.097395	0.145999
H124	H	0.823625	-0.159806	0.186212
H125	H	0.765738	-0.030699	0.103806
H126	H	0.724238	-0.093084	0.144018
H127	H	0.765006	-0.062061	0.250317
H128	H	0.806493	0.000346	0.210099
H129	H	0.725517	0.012569	0.209217
C130	C	0.818978	-0.494052	0.107737
C131	C	0.818211	-0.547830	0.168714
C132	C	0.818872	-0.506770	0.232403
H133	H	0.778981	-0.455700	0.108352
H134	H	0.859956	-0.468082	0.108968
H135	H	0.777238	-0.573787	0.167484
H136	H	0.858205	-0.586183	0.168124
H137	H	0.859850	-0.480800	0.233634
H138	H	0.778874	-0.468420	0.233010
H139	H	0.818358	-0.543253	0.273783
H140	H	0.821987	-0.284357	0.136315
C141	C	0.839464	-0.045039	0.581842
C142	C	0.785910	-0.090405	0.565990
C143	C	0.794992	-0.162530	0.608245
H144	H	0.838134	-0.034843	0.632110
H145	H	0.883283	-0.073397	0.570981
H146	H	0.742102	-0.062053	0.576856
H147	H	0.787230	-0.100623	0.515730
H148	H	0.838811	-0.190888	0.597383
H149	H	0.793663	-0.152326	0.658510
H150	H	0.758661	-0.193323	0.597490
H151	H	0.734645	0.203088	0.792111
H152	H	0.147521	0.233398	-0.013995
H153	H	0.374474	0.206541	0.064605
H154	H	0.906169	0.007489	0.195069
C155	C	0.919088	-0.007180	0.344437
C156	C	0.960506	-0.054377	0.297513
C157	C	1.007882	-0.108325	0.338648
H158	H	0.894218	-0.040096	0.376131
H159	H	0.948012	0.021162	0.372470
H160	H	0.931586	-0.082718	0.269492
H161	H	0.985392	-0.021483	0.265818
H162	H	1.036806	-0.079983	0.366681
H163	H	0.983006	-0.141235	0.370341
H164	H	1.035994	-0.140350	0.306816
C165	C	0.721771	0.217811	0.642738
C166	C	0.680380	0.265034	0.689665
C167	C	0.633057	0.319045	0.648530
H168	H	0.692818	0.189542	0.614684
H169	H	0.746704	0.250696	0.611063
H170	H	0.655449	0.232153	0.721327
H171	H	0.709314	0.293320	0.717720
H172	H	0.657989	0.351931	0.616855
H173	H	0.604109	0.290770	0.620477
H174	H	0.604972	0.351097	0.680362
H175	H	0.803770	0.235999	0.555018
H176	H	0.837056	-0.025418	0.432152
C177	C	0.801298	0.255635	0.405357
C178	C	0.793293	0.318729	0.451328
C179	C	0.784158	0.390872	0.409102
H180	H	0.760850	0.257474	0.375527
H181	H	0.840992	0.259940	0.375365
H182	H	0.753603	0.314425	0.481307
H183	H	0.833735	0.316916	0.481158
H184	H	0.823852	0.395177	0.379110
H185	H	0.743710	0.392702	0.379273
H186	H	0.778732	0.433689	0.440287
H187	H	0.734584	0.203072	0.183608
H188	H	0.462990	0.238661	-0.014249
C189	C	0.601857	0.260661	-0.015484
C190	C	0.547314	0.322979	-0.019149
C191	C	0.575038	0.395745	-0.023383
H192	H	0.629787	0.264246	-0.057906
H193	H	0.629726	0.264170	0.026564
H194	H	0.519457	0.319472	-0.061192
H195	H	0.519379	0.319420	0.023269
H196	H	0.602907	0.399254	0.018665
H197	H	0.602968	0.399322	-0.065806
H198	H	0.538035	0.438037	-0.025864
H199	H	0.243038	0.204344	0.064712
C200	C	0.038782	-0.049988	0.002528
C201	C	-0.002273	-0.054899	-0.059503
C202	C	-0.030188	-0.127551	-0.055398
H203	H	0.010797	-0.053538	0.044912
H204	H	0.075687	-0.092393	0.004993
H205	H	-0.039172	-0.012505	-0.061961
H206	H	0.025697	-0.051362	-0.101896
H207	H	0.006717	-0.169957	-0.052933
H208	H	-0.058170	-0.131095	-0.013012
H209	H	-0.058041	-0.130896	-0.097488
C210	C	0.189804	-0.047568	0.002526
C211	C	0.149887	-0.111465	0.006262
C212	C	0.194336	-0.183025	0.010442
H213	H	0.218406	-0.050207	0.044905
H214	H	0.218427	-0.050132	-0.039565
H215	H	0.121277	-0.108902	0.048348
H216	H	0.121287	-0.108852	-0.036113
H217	H	0.222958	-0.185589	-0.031649
H218	H	0.222935	-0.185656	0.052821
H219	H	0.167258	-0.226387	0.012970
H220	H	0.266338	0.004039	-0.077452
C221	C	0.485815	-0.042605	0.002213
C222	C	0.508527	-0.085792	-0.057531
C223	C	0.480758	-0.158532	-0.053378
H224	H	0.436287	-0.033205	0.001608
H225	H	0.501112	-0.072061	0.046160
H226	H	0.493226	-0.056342	-0.101467
H227	H	0.558051	-0.095213	-0.056938
H228	H	0.496056	-0.187988	-0.009431
H229	H	0.431231	-0.149124	-0.053982
H230	H	0.496170	-0.187846	-0.093909
C231	C	0.409226	-0.008623	-0.088279
C232	C	0.367616	-0.057737	-0.122573
C233	C	0.410128	-0.112373	-0.161881
H234	H	0.441185	-0.040161	-0.055910
H235	H	0.434323	0.019174	-0.124062
H236	H	0.342531	-0.085532	-0.086795
H237	H	0.335658	-0.026221	-0.154954
H238	H	0.435226	-0.084576	-0.197663
H239	H	0.442086	-0.143905	-0.129507
H240	H	0.381902	-0.145698	-0.185160
