data_functionalizedCrystal
_audit_creation_method	'MofGen! by Chris Wilmer'
_symmetry_space_group_name_H-M	'P1'
_symmetry_Int_Tables_number	1
_symmetry_cell_setting	triclinic
loop_
_symmetry_equiv_pos_as_xyz
  x,y,z
_cell_length_a	12.759401
_cell_length_b	21.295417
_cell_length_c	21.295411
_cell_angle_alpha	90.028718
_cell_angle_beta	90.013236
_cell_angle_gamma	90.030668
loop_
_atom_site_label
_atom_site_type_symbol
_atom_site_fract_x
_atom_site_fract_y
_atom_site_fract_z
Zn1	Zn	1.606085	-0.250634	0.355857
Zn2	Zn	2.106085	0.249366	0.855857
Zn3	Zn	1.605947	-0.355899	0.250583
Zn4	Zn	2.105947	0.144101	0.750583
Zn5	Zn	1.430404	-0.250648	0.250608
Zn6	Zn	1.930404	0.249352	0.750608
Zn7	Zn	1.430328	-0.355870	0.355821
Zn8	Zn	1.930328	0.144130	0.855821
O9	O	1.518191	-0.303263	0.303217
O10	O	2.018191	0.196737	0.803217
O11	O	1.753088	-0.264604	0.341897
O12	O	2.253088	0.235396	0.841897
O13	O	1.582635	-0.341955	0.162497
O14	O	2.082635	0.158045	0.662497
O15	O	1.453798	-0.162557	0.264596
O16	O	1.953798	0.337443	0.764596
O17	O	1.752987	-0.341942	0.264553
O18	O	2.252987	0.158058	0.764553
O19	O	1.582870	-0.162547	0.341922
O20	O	2.082870	0.337453	0.841922
O21	O	1.453664	-0.264628	0.162516
O22	O	1.953664	0.235372	0.662516
O23	O	1.283372	-0.264599	0.264560
O24	O	1.783372	0.235401	0.764560
O25	O	1.453668	-0.341892	0.443915
O26	O	1.953668	0.158108	0.943915
O27	O	1.283317	-0.341906	0.341859
O28	O	1.783317	0.158094	0.841859
O29	O	1.582797	-0.264576	0.443942
O30	O	2.082797	0.235424	0.943942
O31	O	1.582562	-0.443985	0.264517
O32	O	2.082562	0.056015	0.764517
O33	O	1.453534	-0.443963	0.341834
O34	O	1.953534	0.056037	0.841834
C35	C	1.245224	-0.303251	0.303209
C36	C	1.745224	0.196749	0.803209
C37	C	1.128447	-0.303261	0.303220
C38	C	1.628447	0.196739	0.803220
C39	C	1.073583	-0.343579	0.343403
C40	C	1.573583	0.156421	0.843403
C41	C	0.963859	-0.343587	0.343410
C42	C	1.463859	0.156413	0.843410
C43	C	0.963872	-0.262958	0.263045
C44	C	1.463872	0.237042	0.763045
C45	C	1.073594	-0.262947	0.263042
C46	C	1.573594	0.237053	0.763042
C47	C	1.073575	-0.390132	0.389799
C48	C	1.573575	0.109868	0.889799
C49	C	0.963851	-0.390140	0.389806
C50	C	1.463851	0.109860	0.889806
C51	C	1.518053	-0.466815	0.303182
C52	C	2.018053	0.033185	0.803182
C53	C	1.518090	-0.536783	0.303189
C54	C	2.018090	-0.036783	0.803189
C55	C	1.585335	-0.569640	0.262971
C56	C	2.085335	-0.069640	0.762971
C57	C	1.585384	-0.635382	0.262985
C58	C	2.085384	-0.135382	0.762985
C59	C	1.518170	-0.668265	0.303210
C60	C	2.018170	-0.168265	0.803210
C61	C	1.450921	-0.635400	0.343436
C62	C	1.950921	-0.135400	0.843436
C63	C	1.450881	-0.569659	0.343425
C64	C	1.950881	-0.069659	0.843425
N65	N	1.426262	-0.771531	0.308006
N66	N	1.926262	-0.271531	0.808006
N67	N	1.426303	-0.833983	0.308013
N68	N	1.926303	-0.333983	0.808013
C69	C	1.518288	-0.866340	0.303246
C70	C	2.018288	-0.366340	0.803246
N71	N	1.610232	-0.833886	0.298461
N72	N	2.110232	-0.333886	0.798461
N73	N	1.610190	-0.771429	0.298451
N74	N	2.110190	-0.271429	0.798451
C75	C	1.518206	-0.739550	0.303227
C76	C	2.018206	-0.239550	0.803227
C77	C	1.585591	-0.970482	0.263042
C78	C	2.085591	-0.470482	0.763042
C79	C	1.585642	-1.036226	0.263060
C80	C	2.085642	-0.536226	0.763060
C81	C	1.451170	-1.036243	0.343508
C82	C	1.951170	-0.536243	0.843508
C83	C	1.451129	-0.970500	0.343493
C84	C	1.951129	-0.470500	0.843493
C85	C	1.518338	-0.937624	0.303256
C86	C	2.018338	-0.437624	0.803256
C87	C	1.792224	-0.303275	0.303226
C88	C	2.292224	0.196725	0.803226
C89	C	1.909001	-0.303280	0.303230
C90	C	2.409001	0.196720	0.803230
C91	C	1.518239	-0.303229	0.467408
C92	C	2.018239	0.196771	0.967408
C93	C	1.518260	-0.303215	0.537376
C94	C	2.018260	0.196785	1.037376
C95	C	1.518358	-0.139073	0.303266
C96	C	2.018358	0.360927	0.803266
C97	C	1.518429	-0.069104	0.303287
C98	C	2.018429	0.430896	0.803287
C99	C	1.518203	-0.303251	0.139666
C100	C	2.018203	0.196749	0.639666
C101	C	1.518386	-0.303088	0.069698
C102	C	2.018386	0.196912	0.569698
C103	C	1.585533	-0.343349	1.036825
C104	C	2.085533	0.156651	1.536825
C105	C	1.585514	-0.343369	0.971082
C106	C	2.085514	0.156631	1.471082
C107	C	1.518359	-0.303117	0.938215
C108	C	2.018359	0.196883	1.438215
C109	C	1.451200	-0.262853	0.971097
C110	C	1.951200	0.237147	1.471097
C111	C	1.451213	-0.262838	1.036838
C112	C	1.951213	0.237162	1.536838
N113	N	1.510334	-0.248037	0.835010
N114	N	2.010334	0.251963	1.335010
N115	N	1.510328	-0.248053	0.772559
N116	N	2.010328	0.251947	1.272559
C117	C	1.518313	-0.303159	0.740141
C118	C	2.018313	0.196841	1.240141
N119	N	1.526326	-0.358251	0.772533
N120	N	2.026326	0.141749	1.272533
N121	N	1.526338	-0.358234	0.834990
N122	N	2.026338	0.141766	1.334990
C123	C	1.518337	-0.303128	0.866930
C124	C	2.018337	0.196872	1.366930
C125	C	1.585443	-0.343446	0.635982
C126	C	2.085443	0.156554	1.135982
C127	C	1.585416	-0.343467	0.570238
C128	C	2.085416	0.156533	1.070238
C129	C	1.451108	-0.262945	0.570254
C130	C	1.951108	0.237055	1.070254
C131	C	1.451129	-0.262930	0.635996
C132	C	1.951129	0.237070	1.135996
C133	C	1.518302	-0.303179	0.668856
C134	C	2.018302	0.196821	1.168856
H135	H	1.118260	-0.230113	0.230326
H136	H	1.618260	0.269887	0.730326
H137	H	1.640227	-0.376125	1.063575
H138	H	2.140227	0.123875	1.563575
C139	C	1.085568	-0.501617	0.404942
C140	C	1.585568	-0.001617	0.904942
C141	C	1.119479	-0.452612	0.366110
C142	C	1.619479	0.047388	0.866110
H143	H	1.113914	-0.540188	0.390317
H144	H	1.613914	-0.040188	0.890317
H145	H	1.011223	-0.503748	0.404133
H146	H	1.511223	-0.003748	0.904133
H147	H	1.108588	-0.494153	0.446711
H148	H	1.608588	0.005847	0.946711
H149	H	1.096452	-0.460074	0.324342
H150	H	1.596452	0.039926	0.824342
H151	H	1.193840	-0.450482	0.366912
H152	H	1.693840	0.049518	0.866912
H153	H	1.396521	-0.230080	0.944332
H154	H	1.896521	0.269920	1.444332
H155	H	0.919198	-0.230135	0.230335
H156	H	1.419198	0.269865	0.730335
C157	C	1.391265	-0.736186	0.379165
C158	C	1.891265	-0.236186	0.879165
C159	C	1.377035	-0.671543	0.387651
C160	C	1.877035	-0.171543	0.887651
H161	H	1.345646	-0.758496	0.406462
H162	H	1.845646	-0.258496	0.906462
H163	H	1.461843	-0.746913	0.388417
H164	H	1.961843	-0.246913	0.888417
H165	H	1.375937	-0.746988	0.336862
H166	H	1.875937	-0.246988	0.836862
H167	H	1.392371	-0.660740	0.429954
H168	H	1.892371	-0.160740	0.929954
H169	H	1.306441	-0.660811	0.378404
H170	H	1.806441	-0.160811	0.878404
H171	H	1.103382	-0.377139	0.438576
H172	H	1.603382	0.122861	0.938576
H173	H	1.396534	-0.230052	1.063603
H174	H	1.896534	0.269948	1.563603
H175	H	1.640136	-0.376221	0.662738
H176	H	2.140136	0.123779	1.162738
H177	H	1.640320	-0.943713	0.230280
H178	H	2.140320	-0.443713	0.730280
C179	C	0.808343	-0.367852	0.449225
C180	C	1.308343	0.132148	0.949225
C181	C	0.917944	-0.366662	0.452372
C182	C	1.417944	0.133338	0.952372
H183	H	0.780003	-0.353354	0.487848
H184	H	1.280003	0.146646	0.987848
H185	H	0.785331	-0.409597	0.441635
H186	H	1.285331	0.090403	0.941635
H187	H	0.785367	-0.341403	0.416063
H188	H	1.285367	0.158597	0.916063
H189	H	0.940921	-0.393115	0.485532
H190	H	1.440921	0.106885	0.985532
H191	H	0.940965	-0.324911	0.459969
H192	H	1.440965	0.175089	0.959969
H193	H	1.396368	-0.943746	0.376240
H194	H	1.896368	-0.443746	0.876240
C195	C	0.862590	-0.451936	0.317533
C196	C	1.362590	0.048064	0.817533
C197	C	0.923589	-0.455931	0.372052
C198	C	1.423589	0.044069	0.872052
H199	H	0.837731	-0.492551	0.306576
H200	H	1.337731	0.007449	0.806576
H201	H	0.903944	-0.435692	0.284201
H202	H	1.403944	0.064308	0.784201
H203	H	0.804715	-0.424864	0.324854
H204	H	1.304715	0.075136	0.824854
H205	H	0.981469	-0.482999	0.364730
H206	H	1.481469	0.017001	0.864730
H207	H	0.882233	-0.472184	0.405391
H208	H	1.382233	0.027816	0.905391
H209	H	1.640063	-0.542874	0.230209
H210	H	2.140063	-0.042874	0.730209
H211	H	1.640146	-0.662139	0.230235
H212	H	2.140146	-0.162139	0.730235
C213	C	1.317968	-0.576281	0.422946
C214	C	1.817968	-0.076281	0.922946
C215	C	1.376955	-0.533539	0.387632
C216	C	1.876955	-0.033539	0.887632
H217	H	1.272324	-0.553979	0.450234
H218	H	1.772324	-0.053979	0.950234
H219	H	1.363734	-0.601877	0.447053
H220	H	1.863734	-0.101877	0.947053
H221	H	1.277828	-0.601966	0.395497
H222	H	1.777828	-0.101966	0.895497
H223	H	1.417101	-0.507856	0.415081
H224	H	1.917101	-0.007856	0.915081
H225	H	1.331183	-0.507931	0.363523
H226	H	1.831183	-0.007931	0.863523
C227	C	1.718536	-1.029602	0.183529
C228	C	2.218536	-0.529602	0.683529
C229	C	1.659562	-1.072345	0.218848
C230	C	2.159562	-0.572345	0.718848
H231	H	1.764165	-1.051902	0.156232
H232	H	2.264165	-0.551902	0.656232
H233	H	1.758681	-1.003920	0.210968
H234	H	2.258681	-0.503920	0.710968
H235	H	1.672753	-1.004001	0.159426
H236	H	2.172753	-0.504001	0.659426
H237	H	1.705344	-1.097943	0.242955
H238	H	2.205344	-0.597943	0.742955
H239	H	1.619414	-1.098037	0.191405
H240	H	2.119414	-0.598037	0.691405
H241	H	1.396448	-1.063016	0.376264
H242	H	1.896448	-0.563016	0.876264
C243	C	1.718285	-0.422953	0.977663
C244	C	2.218285	0.077047	1.477663
C245	C	1.659326	-0.387627	0.934938
C246	C	2.159326	0.112373	1.434938
H247	H	1.763856	-0.450273	0.955349
H248	H	2.263856	0.049727	1.455349
H249	H	1.672497	-0.447026	1.003294
H250	H	2.172497	0.052974	1.503294
H251	H	1.758502	-0.395514	1.003317
H252	H	2.258502	0.104486	1.503317
H253	H	1.619104	-0.415065	0.909287
H254	H	2.119104	0.084935	1.409287
H255	H	1.705120	-0.363551	0.909297
H256	H	2.205120	0.136449	1.409297
C257	C	1.718196	-0.423043	0.576830
C258	C	2.218196	0.076957	1.076830
C259	C	1.659233	-0.387724	0.534101
C260	C	2.159233	0.112276	1.034101
H261	H	1.763773	-0.450361	0.554519
H262	H	2.263773	0.049639	1.054519
H263	H	1.672411	-0.447118	0.602461
H264	H	2.172411	0.052882	1.102461
H265	H	1.758407	-0.395600	0.602482
H266	H	2.258407	0.104400	1.102482
H267	H	1.619017	-0.415166	0.508452
H268	H	2.119017	0.084834	1.008452
H269	H	1.705024	-0.363647	0.508459
H270	H	2.205024	0.136353	1.008459
H271	H	1.396455	-0.230142	0.662762
H272	H	1.896455	0.269858	1.162762
C273	C	1.391452	-0.227214	0.469488
C274	C	1.891452	0.272786	0.969488
C275	C	1.377288	-0.218699	0.534134
C276	C	1.877288	0.281301	1.034134
H277	H	1.345878	-0.199896	0.447188
H278	H	1.845878	0.300104	0.947188
H279	H	1.376033	-0.269507	0.458706
H280	H	1.876033	0.230493	0.958706
H281	H	1.462052	-0.218003	0.458726
H282	H	1.962052	0.281997	0.958726
H283	H	1.306690	-0.227915	0.544897
H284	H	1.806690	0.272085	1.044897
H285	H	1.392700	-0.176397	0.544920
H286	H	1.892700	0.323603	1.044920
