data_functionalizedCrystal
_audit_creation_method	'MofGen! by Chris Wilmer'
_symmetry_space_group_name_H-M	'P1'
_symmetry_Int_Tables_number	1
_symmetry_cell_setting	triclinic
loop_
_symmetry_equiv_pos_as_xyz
  x,y,z
_cell_length_a	10.654541
_cell_length_b	19.188930
_cell_length_c	9.130307
_cell_angle_alpha	89.991600
_cell_angle_beta	89.999822
_cell_angle_gamma	83.814355
loop_
_atom_site_label
_atom_site_type_symbol
_atom_site_fract_x
_atom_site_fract_y
_atom_site_fract_z
O1	O	1.665764	0.098053	-0.121773
O2	O	1.300087	0.107397	-0.121788
O3	O	1.493478	0.001138	-0.121751
O4	O	1.472373	0.204312	-0.121809
O5	O	1.493472	0.001137	0.121848
O6	O	1.300081	0.107396	0.121811
O7	O	1.665758	0.098052	0.121826
Cu8	Cu	1.482919	0.102724	0.144061
Cu9	Cu	1.482926	0.102725	-0.144023
O10	O	1.472367	0.204311	0.121790
C11	C	1.253300	0.106711	0.000011
C12	C	1.113900	0.104659	0.000006
C13	C	1.083241	0.231721	-0.000048
C14	C	1.002423	0.294284	-0.000081
C15	C	0.871446	0.292352	-0.000082
C16	C	0.821285	0.227849	-0.000046
C17	C	0.902103	0.165286	-0.000013
C18	C	1.033082	0.167225	-0.000016
C19	C	0.932762	0.038226	0.000052
C20	C	1.063740	0.040156	0.000043
C21	C	0.882602	-0.026277	0.000089
C22	C	0.963421	-0.088842	0.000111
C23	C	1.094405	-0.086908	0.000111
C24	C	1.144558	-0.022408	0.000076
C25	C	1.492792	-0.024878	0.000052
C26	C	1.490740	-0.102396	0.000065
C27	C	1.604215	-0.146578	0.000076
C28	C	1.602288	-0.219414	0.000053
C29	C	1.486878	-0.248065	0.000047
C30	C	1.373388	-0.203873	0.000028
C31	C	1.375319	-0.131038	0.000036
N32	N	1.398659	-0.356647	0.082945
N33	N	1.396833	-0.425838	0.082940
C34	C	1.481054	-0.467512	0.000017
N35	N	1.567190	-0.437383	-0.082881
N36	N	1.569020	-0.368186	-0.082869
C37	C	1.484772	-0.327041	0.000037
C38	C	1.592448	-0.590672	0.000001
C39	C	1.590515	-0.663510	-0.000031
C40	C	1.361612	-0.647967	-0.000042
C41	C	1.363548	-0.575131	-0.000024
C42	C	1.478969	-0.546488	0.000005
C43	C	1.712544	0.098738	0.000025
C44	C	1.851944	0.100790	0.000019
C45	C	1.473053	0.230327	-0.000017
C46	C	1.475105	0.307845	-0.000039
N47	N	1.482923	0.102723	0.346684
N48	N	1.482932	0.102721	-0.346646
C49	C	1.654240	0.008658	0.346706
C50	C	1.739906	-0.038372	0.423384
C51	C	1.739919	-0.038373	0.576717
C52	C	1.654253	0.008661	0.653377
C53	C	1.568586	0.055691	0.576699
C54	C	1.568585	0.055688	0.423362
C55	C	1.397265	0.149751	0.576677
C56	C	1.397257	0.149756	0.423343
C57	C	1.311599	0.196785	0.653336
C58	C	1.225937	0.243819	0.576658
C59	C	1.225929	0.243818	0.423315
C60	C	1.311590	0.196786	0.346665
H61	H	1.043278	0.346802	-0.000107
H62	H	1.694696	-0.255395	0.000056
C63	C	1.240207	-0.527273	0.000059
C64	C	1.138720	-0.567951	0.000088
C65	C	1.025075	-0.523889	0.000180
H66	H	1.236023	-0.498513	-0.084861
H67	H	1.236134	-0.498557	0.085047
H68	H	1.142791	-0.596655	-0.084891
H69	H	1.142862	-0.596709	0.085001
H70	H	1.021002	-0.495173	0.085167
H71	H	1.020904	-0.495131	-0.084742
H72	H	0.956203	-0.551481	0.000213
H73	H	1.698200	-0.123262	0.000095
H74	H	1.160201	-0.137855	0.000143
C75	C	1.248213	-0.235111	0.000097
C76	C	1.270808	-0.308354	0.000134
C77	C	1.155523	-0.337152	0.000211
H78	H	1.201412	-0.220053	-0.084831
H79	H	1.201489	-0.220028	0.085077
H80	H	1.317512	-0.323431	-0.084836
H81	H	1.317589	-0.323431	0.085056
H82	H	1.108800	-0.322069	0.085190
H83	H	1.108732	-0.322089	-0.084719
H84	H	1.170838	-0.386850	0.000249
C85	C	1.132876	0.294766	0.660077
C86	C	1.056248	0.257168	0.748142
C87	C	0.970517	0.304077	0.825029
H88	H	1.081733	0.322799	0.592626
H89	H	1.177851	0.324051	0.719973
H90	H	1.011276	0.227894	0.688251
H91	H	1.107355	0.229137	0.815620
H92	H	1.015492	0.333363	0.884925
H93	H	0.919384	0.332108	0.757567
H94	H	0.918523	0.278574	0.884800
H95	H	1.311595	0.196784	0.221813
H96	H	1.809653	-0.076668	0.360955
C97	C	0.909132	-0.158916	-0.000078
C98	C	0.950254	-0.196786	-0.125373
C99	C	0.900278	-0.261346	-0.125591
H100	H	0.819558	-0.151205	-0.000149
H101	H	0.936935	-0.184740	0.084835
H102	H	0.922444	-0.170969	-0.210264
H103	H	1.039821	-0.204516	-0.125329
H104	H	0.928080	-0.287169	-0.040678
H105	H	0.810705	-0.253628	-0.125658
H106	H	0.928180	-0.287051	-0.210594
C107	C	1.833059	-0.089468	0.659712
C108	C	1.908094	-0.130651	0.559769
C109	C	1.993914	-0.177722	0.636170
H110	H	1.788195	-0.118829	0.719545
H111	H	1.885260	-0.064099	0.719486
H112	H	1.855899	-0.156019	0.500020
H113	H	1.952985	-0.101309	0.499933
H114	H	2.046115	-0.152353	0.695944
H115	H	1.949040	-0.207078	0.696000
H116	H	2.044843	-0.205666	0.568371
H117	H	0.775953	-0.027846	0.000096
H118	H	1.282910	-0.095064	0.000027
C119	C	1.717663	-0.559471	-0.000217
C120	C	1.725439	-0.518080	-0.125515
C121	C	1.840760	-0.489320	-0.125758
H122	H	1.785083	-0.596144	-0.000302
H123	H	1.723184	-0.531351	0.084694
H124	H	1.719930	-0.546198	-0.210404
H125	H	1.658046	-0.481395	-0.125457
H126	H	1.846281	-0.461200	-0.040847
H127	H	1.908170	-0.525998	-0.125838
H128	H	1.846046	-0.461228	-0.210763
C129	C	1.132860	0.294960	0.340335
C130	C	1.057868	0.336156	0.440295
C131	C	0.972130	0.383282	0.363914
H132	H	1.080610	0.269653	0.280523
H133	H	1.177826	0.324301	0.280541
H134	H	1.012905	0.306819	0.500063
H135	H	1.110083	0.361478	0.500110
H136	H	1.017097	0.412623	0.304120
H137	H	0.919890	0.357970	0.304104
H138	H	0.921246	0.411244	0.431724
H139	H	0.714635	0.226282	-0.000029
H140	H	1.251205	-0.020826	0.000058
H141	H	1.682925	-0.699483	-0.000030
H142	H	1.189888	0.233300	-0.000080
H143	H	0.805642	0.343297	-0.000099
H144	H	1.267643	-0.671293	-0.000054
H145	H	1.654248	0.008659	0.221854
H146	H	1.654258	0.008652	0.778229
H147	H	1.311608	0.196779	0.778188
