data_functionalizedCrystal
_audit_creation_method	'MofGen! by Chris Wilmer'
_symmetry_space_group_name_H-M	'P1'
_symmetry_Int_Tables_number	1
_symmetry_cell_setting	triclinic
loop_
_symmetry_equiv_pos_as_xyz
  x,y,z
_cell_length_a	21.395362
_cell_length_b	16.120484
_cell_length_c	21.395355
_cell_angle_alpha	92.880721
_cell_angle_beta	89.956060
_cell_angle_gamma	92.942400
loop_
_atom_site_label
_atom_site_type_symbol
_atom_site_fract_x
_atom_site_fract_y
_atom_site_fract_z
Zn1	Zn	0.945244	-0.331659	-0.367215
Zn2	Zn	0.939845	-0.471058	-0.267746
Zn3	Zn	0.840458	-0.331698	-0.262418
Zn4	Zn	0.835126	-0.471075	-0.372451
O5	O	0.890168	-0.401372	-0.317458
O6	O	1.032207	-0.350127	-0.354059
O7	O	0.926633	-0.452580	-0.179362
O8	O	0.858849	-0.215024	-0.271898
O9	O	1.028240	-0.452543	-0.280979
O10	O	0.935836	-0.214995	-0.348892
O11	O	0.853614	-0.350193	-0.175447
O12	O	0.752072	-0.350210	-0.276976
O13	O	0.849761	-0.452572	-0.459434
O14	O	0.748154	-0.452609	-0.357817
O15	O	0.930665	-0.350144	-0.455587
O16	O	0.921462	-0.587728	-0.286057
O17	O	0.844526	-0.587741	-0.362983
C18	C	0.727379	-0.401416	-0.317387
C19	C	0.657736	-0.401455	-0.317372
C20	C	0.622997	-0.454845	-0.359409
C21	C	0.557562	-0.454825	-0.359436
C22	C	0.526869	-0.401423	-0.317415
C23	C	0.561617	-0.348022	-0.275375
C24	C	0.627050	-0.348039	-0.275354
C25	C	0.423400	-0.394707	-0.260754
C26	C	0.357967	-0.394696	-0.260775
C27	C	0.325050	-0.401369	-0.317482
C28	C	0.357574	-0.408069	-0.374171
C29	C	0.423007	-0.408085	-0.374149
C30	C	0.455918	-0.401399	-0.317434
C31	C	0.219359	-0.454740	-0.359552
C32	C	0.153924	-0.454713	-0.359580
C33	C	0.157979	-0.347915	-0.275514
C34	C	0.223414	-0.347937	-0.275492
C35	C	0.254100	-0.401354	-0.317510
C36	C	0.881846	-0.617986	-0.325680
C37	C	0.878344	-0.710654	-0.329218
C38	C	0.871952	-0.880320	-0.335692
C39	C	0.908497	-0.921584	-0.299234
C40	C	0.904940	-1.015992	-0.302836
C41	C	0.875507	-0.785903	-0.332091
C42	C	1.053593	-0.401328	-0.317529
C43	C	1.123235	-0.401310	-0.317560
C44	C	0.890221	-0.401355	-0.480880
C45	C	0.890243	-0.401348	-0.550521
C46	C	0.898540	-0.183913	-0.309217
C47	C	0.902107	-0.091245	-0.305705
C48	C	0.932368	-0.348011	-0.581232
C49	C	0.932369	-0.347976	-0.646666
C50	C	0.890250	-0.401291	-0.681388
C51	C	0.848117	-0.454632	-0.650669
C52	C	0.848114	-0.454660	-0.585236
C53	C	0.882419	-0.476362	-0.787910
C54	C	0.882427	-0.476335	-0.853342
C55	C	0.890258	-0.401203	-0.883205
C56	C	0.898094	-0.326096	-0.847628
C57	C	0.898090	-0.326124	-0.782195
C58	C	0.890249	-0.401266	-0.752339
C59	C	0.932385	-0.347823	-0.984867
C60	C	0.932382	-0.347786	-1.050302
C61	C	0.848133	-0.454449	-1.054304
C62	C	0.848134	-0.454479	-0.988870
C63	C	0.890263	-0.401167	-0.954155
C64	C	0.890154	-0.401329	-0.154668
C65	C	0.890262	-0.401101	-0.085019
H66	H	0.529272	-0.498301	-0.393669
H67	H	0.449485	-0.413538	-0.420307
H68	H	0.876050	-0.537492	-0.882304
H69	H	0.837996	-0.915892	-0.369606
C70	C	0.954368	-0.873530	-0.253408
C71	C	1.025160	-0.885279	-0.259041
C72	C	1.071026	-0.837220	-0.213215
C73	C	1.046100	-0.777411	-0.161756
C74	C	0.975304	-0.765658	-0.156120
C75	C	0.929438	-0.813718	-0.201946
H76	H	1.043615	-0.929556	-0.297137
H77	H	1.123434	-0.845920	-0.217387
H78	H	1.080052	-0.741834	-0.127832
H79	H	0.956848	-0.721382	-0.118025
H80	H	0.877029	-0.805018	-0.197774
C81	C	0.978705	-0.289361	-0.543049
C82	C	0.977240	-0.194581	-0.548438
C83	C	1.023577	-0.135928	-0.510254
C84	C	1.071377	-0.172055	-0.466682
C85	C	1.072844	-0.266841	-0.461291
C86	C	1.026508	-0.325493	-0.499475
H87	H	0.941854	-0.167833	-0.580694
H88	H	1.022491	-0.065762	-0.514245
H89	H	1.105678	-0.128637	-0.438416
H90	H	1.108230	-0.293589	-0.429035
H91	H	1.027593	-0.395660	-0.495484
C92	C	0.321374	-0.415412	-0.436555
C93	C	0.249400	-0.415391	-0.436585
C94	C	0.213198	-0.422740	-0.498966
C95	C	0.248970	-0.430111	-0.561318
C96	C	0.320948	-0.430133	-0.561291
C97	C	0.357150	-0.422784	-0.498910
H98	H	0.222916	-0.409934	-0.390426
H99	H	0.159915	-0.422724	-0.498986
H100	H	0.222171	-0.435552	-0.607496
H101	H	0.347432	-0.435590	-0.607450
H102	H	0.410433	-0.422800	-0.498890
C103	C	0.801792	-0.513153	-0.955089
C104	C	0.753986	-0.477049	-0.908701
C105	C	0.707636	-0.535720	-0.874923
C106	C	0.709090	-0.630495	-0.887532
C107	C	0.756898	-0.666603	-0.933922
C108	C	0.803248	-0.607932	-0.967700
H109	H	0.752908	-0.406887	-0.899365
H110	H	0.672245	-0.508990	-0.840582
H111	H	0.674779	-0.673926	-0.862527
H112	H	0.757977	-0.736765	-0.943258
H113	H	0.838639	-0.634662	-1.002041
H114	H	0.966671	-0.304538	-0.671676
C115	C	0.906703	-0.243510	-0.743062
C116	C	0.855319	-0.216627	-0.697015
C117	C	0.863929	-0.134011	-0.657883
C118	C	0.923923	-0.078279	-0.664798
C119	C	0.975311	-0.105160	-0.710846
C120	C	0.966701	-0.187776	-0.749979
H121	H	0.810903	-0.257885	-0.691895
H122	H	0.825887	-0.114112	-0.623794
H123	H	0.930297	-0.017121	-0.635830
H124	H	1.019727	-0.063903	-0.715967
H125	H	1.004743	-0.207676	-0.784067
H126	H	0.904471	-0.264916	-0.871941
C127	C	0.978719	-0.289175	-0.946674
C128	C	0.977251	-0.194394	-0.952052
C129	C	1.023584	-0.135746	-0.913860
C130	C	1.071385	-0.171879	-0.870291
C131	C	1.072854	-0.266666	-0.864912
C132	C	1.026521	-0.325314	-0.903103
H133	H	0.941865	-0.167641	-0.984306
H134	H	1.022496	-0.065578	-0.917843
H135	H	1.105683	-0.128464	-0.842019
H136	H	1.108241	-0.293419	-0.832657
H137	H	1.027610	-0.395481	-0.899121
H138	H	0.244345	-0.498230	-0.393769
C139	C	0.978720	-0.289108	-1.084087
C140	C	1.025057	-0.230470	-1.045899
C141	C	1.071396	-0.171791	-1.079684
C142	C	1.071397	-0.171749	-1.151658
C143	C	1.025058	-0.230389	-1.189850
C144	C	0.978719	-0.289069	-1.156064
H145	H	1.025058	-0.230499	-0.992616
H146	H	1.105699	-0.128381	-1.051411
H147	H	1.105700	-0.128311	-1.176668
H148	H	1.025057	-0.230360	-1.243133
H149	H	0.944416	-0.332478	-1.184337
H150	H	0.125640	-0.498188	-0.393815
H151	H	0.813834	-0.497852	-1.082573
H152	H	0.331492	-0.389246	-0.214616
H153	H	0.251699	-0.304465	-0.241258
H154	H	0.875875	-0.537528	-0.763601
C155	C	0.459605	-0.387361	-0.198371
C156	C	0.423835	-0.380000	-0.136018
C157	C	0.460039	-0.372650	-0.073638
C158	C	0.532014	-0.372661	-0.073611
C159	C	0.567788	-0.380022	-0.135967
C160	C	0.531584	-0.387372	-0.198347
H161	H	0.370551	-0.379991	-0.136035
H162	H	0.433556	-0.367200	-0.027478
H163	H	0.558815	-0.367220	-0.027434
H164	H	0.621071	-0.380031	-0.135949
H165	H	0.558066	-0.392822	-0.244507
H166	H	0.536622	-0.304541	-0.241163
C167	C	0.665266	-0.289312	-0.229105
C168	C	0.659955	-0.194540	-0.230738
C169	C	0.698172	-0.135815	-0.184487
C170	C	0.741700	-0.171862	-0.136604
C171	C	0.747014	-0.266638	-0.134970
C172	C	0.708796	-0.325363	-0.181221
H173	H	0.627731	-0.167852	-0.266185
H174	H	0.694239	-0.065655	-0.185697
H175	H	0.769991	-0.128390	-0.102367
H176	H	0.779237	-0.293326	-0.099523
H177	H	0.712730	-0.395523	-0.180011
C178	C	0.801787	-0.513281	-0.688859
C179	C	0.801792	-0.513257	-0.760833
C180	C	0.755457	-0.571905	-0.799023
C181	C	0.709119	-0.630578	-0.765238
C182	C	0.709112	-0.630605	-0.693260
C183	C	0.755447	-0.571956	-0.655070
H184	H	0.836096	-0.469822	-0.785846
H185	H	0.755462	-0.571885	-0.852306
H186	H	0.674819	-0.673993	-0.793508
H187	H	0.674808	-0.674040	-0.668247
H188	H	0.755442	-0.571976	-0.601787
H189	H	0.813808	-0.498092	-0.560232
H190	H	0.132990	-0.304430	-0.241303
C191	C	0.656749	-0.513595	-0.405634
C192	C	0.644068	-0.608361	-0.404007
C193	C	0.677821	-0.667109	-0.450235
C194	C	0.724254	-0.631091	-0.498090
C195	C	0.736937	-0.536320	-0.499719
C196	C	0.703184	-0.477572	-0.453492
H197	H	0.609694	-0.635028	-0.368580
H198	H	0.668432	-0.737265	-0.449028
H199	H	0.749240	-0.674579	-0.532311
H200	H	0.771311	-0.509652	-0.535146
H201	H	0.712573	-0.407416	-0.454698
