data_functionalizedCrystal
_audit_creation_method	'MofGen! by Chris Wilmer'
_symmetry_space_group_name_H-M	'P1'
_symmetry_Int_Tables_number	1
_symmetry_cell_setting	triclinic
loop_
_symmetry_equiv_pos_as_xyz
  x,y,z
_cell_length_a	16.992694
_cell_length_b	16.053802
_cell_length_c	16.974875
_cell_angle_alpha	96.211142
_cell_angle_beta	92.975842
_cell_angle_gamma	92.750953
loop_
_atom_site_label
_atom_site_type_symbol
_atom_site_fract_x
_atom_site_fract_y
_atom_site_fract_z
O1	O	1.042985	0.058180	-0.165032
O2	O	0.814708	0.058329	-0.163187
O3	O	0.935581	0.066018	-0.049061
O4	O	0.922112	0.050492	-0.279158
O5	O	0.928928	-0.073263	-0.055315
O6	O	0.808055	-0.080951	-0.169441
O7	O	1.036332	-0.081100	-0.171287
Zn8	Zn	0.921137	-0.103139	-0.171357
Zn9	Zn	0.929903	0.080368	-0.163116
O10	O	0.915459	-0.088789	-0.285412
C11	C	0.782180	-0.011148	-0.163940
C12	C	0.695166	-0.010660	-0.156859
C13	C	0.644632	-0.015271	-0.225181
C14	C	0.562874	-0.014833	-0.218523
C15	C	0.531651	-0.009779	-0.143543
C16	C	0.582192	-0.005170	-0.075216
C17	C	0.663948	-0.005614	-0.081874
C18	C	0.288171	-0.007939	-0.115946
C19	C	0.206408	-0.007493	-0.109292
C20	C	0.187096	-0.017158	-0.252600
C21	C	0.268855	-0.017596	-0.259252
C22	C	0.319388	-0.012992	-0.190925
N23	N	0.448081	-0.009328	-0.136736
N24	N	0.402956	-0.013448	-0.197733
N25	N	0.915161	-0.228379	-0.176980
C26	C	0.966611	-0.268802	-0.128439
C27	C	0.962437	-0.356475	-0.132381
C28	C	0.906817	-0.403722	-0.184868
C29	C	0.855361	-0.363292	-0.233411
C30	C	0.859532	-0.275621	-0.229465
C31	C	0.888600	-0.666291	-0.202084
C32	C	0.884436	-0.753968	-0.206028
C33	C	0.991511	-0.747145	-0.104996
C34	C	0.995680	-0.659473	-0.101058
C35	C	0.944221	-0.619050	-0.149598
N36	N	0.902551	-0.493337	-0.188900
N37	N	0.948484	-0.529436	-0.145561
C38	C	1.068860	-0.011622	-0.170533
C39	C	1.155874	-0.012104	-0.177614
C40	C	0.931866	-0.001625	-0.022610
C41	C	0.930698	0.004328	0.065525
N42	N	0.935886	0.205608	-0.157487
C43	C	0.926521	-0.068793	0.103529
C44	C	0.925429	-0.063192	0.186342
C45	C	0.928509	0.015531	0.231149
C46	C	0.932688	0.088657	0.193139
C47	C	0.933786	0.083056	0.110328
C48	C	0.925621	0.040425	0.479182
C49	C	0.924520	0.046021	0.561998
C50	C	0.917263	-0.105829	0.555195
C51	C	0.918356	-0.111424	0.472382
C52	C	0.922540	-0.038297	0.434381
N53	N	0.927390	0.021257	0.315796
N54	N	0.923664	-0.044025	0.349735
C55	C	0.919175	-0.021147	0.688137
C56	C	0.920343	-0.027100	0.600002
H57	H	0.329306	-0.004190	-0.060309
H58	H	0.839140	-0.792434	-0.248773
N59	N	0.927853	0.130934	0.610326
H60	H	0.926520	0.123383	0.668552
H61	H	0.881042	0.162896	0.593987
N62	N	0.718451	-0.000638	-0.008181
H63	H	0.755263	0.051022	-0.005428
H64	H	0.750288	-0.052277	-0.010114
N65	N	0.172730	-0.002036	-0.028417
H66	H	0.217147	0.000813	0.013858
H67	H	0.136766	-0.053271	-0.024855
N68	N	1.055678	-0.608518	-0.044453
H69	H	1.050518	-0.546845	-0.049325
H70	H	1.110509	-0.624701	-0.057877
N71	N	0.912763	-0.184698	0.596183
H72	H	0.912539	-0.169208	0.655442
H73	H	0.959967	-0.218601	0.583568
N74	N	0.833098	-0.622699	-0.254431
H75	H	0.797232	-0.665935	-0.288279
H76	H	0.864676	-0.588805	-0.289775
H77	H	0.935201	0.152755	0.229628
H78	H	1.033405	-0.780065	-0.065477
H79	H	0.817634	-0.242709	-0.268991
N80	N	1.017938	-0.400073	-0.080033
H81	H	1.006857	-0.462781	-0.090493
H82	H	1.009863	-0.380919	-0.022504
N83	N	0.930131	0.119293	0.438199
H84	H	0.931911	0.170011	0.479152
H85	H	0.882154	0.120058	0.400637
H86	H	0.556763	-0.001067	-0.014166
N87	N	1.026588	-0.217836	-0.071819
H88	H	1.062895	-0.183643	-0.102701
H89	H	1.058492	-0.256797	-0.041671
N90	N	0.795364	-0.414246	-0.290018
H91	H	0.800529	-0.475920	-0.285154
H92	H	0.804901	-0.402748	-0.346167
N93	N	0.923194	-0.153702	0.055204
H94	H	0.920384	-0.199173	0.091849
H95	H	0.972083	-0.159113	0.024047
H96	H	0.922031	-0.122735	0.217281
N97	N	0.938296	0.161921	0.069334
H98	H	0.940079	0.212643	0.110283
H99	H	0.890320	0.162687	0.031771
H100	H	0.670047	-0.019386	-0.286238
H101	H	0.915865	-0.175528	0.435907
H102	H	0.521732	-0.018587	-0.274158
H103	H	0.294270	-0.021702	-0.320308
H104	H	0.145943	-0.020908	-0.308228
