data_functionalizedCrystal
_audit_creation_method	'MofGen! by Chris Wilmer'
_symmetry_space_group_name_H-M	'P1'
_symmetry_Int_Tables_number	1
_symmetry_cell_setting	triclinic
loop_
_symmetry_equiv_pos_as_xyz
  x,y,z
_cell_length_a	19.077105
_cell_length_b	16.120484
_cell_length_c	19.076919
_cell_angle_alpha	84.953390
_cell_angle_beta	89.923776
_cell_angle_gamma	90.738523
loop_
_atom_site_label
_atom_site_type_symbol
_atom_site_fract_x
_atom_site_fract_y
_atom_site_fract_z
Zn1	Zn	1.040337	-0.403262	0.456942
Zn2	Zn	1.373670	-0.069928	0.790275
Zn3	Zn	1.707004	0.263405	1.123609
Zn4	Zn	1.039017	-0.537287	0.344927
Zn5	Zn	1.372350	-0.203953	0.678260
Zn6	Zn	1.705683	0.129380	1.011594
Zn7	Zn	0.928051	-0.392095	0.334278
Zn8	Zn	1.261385	-0.058762	0.667611
Zn9	Zn	1.594718	0.274572	1.000944
Zn10	Zn	0.916861	-0.536784	0.457659
Zn11	Zn	1.250194	-0.203451	0.790992
Zn12	Zn	1.583527	0.129883	1.124326
O13	O	0.981066	-0.467357	0.398451
O14	O	1.314400	-0.134024	0.731785
O15	O	1.647733	0.199310	1.065118
O16	O	1.138276	-0.425924	0.446240
O17	O	1.471610	-0.092591	0.779573
O18	O	1.804943	0.240743	1.112906
O19	O	1.028428	-0.513564	0.245000
O20	O	1.361761	-0.180231	0.578334
O21	O	1.695094	0.153103	0.911667
O22	O	0.948182	-0.276934	0.345793
O23	O	1.281515	0.056400	0.679126
O24	O	1.614849	0.389733	1.012459
O25	O	1.137306	-0.524392	0.363943
O26	O	1.470640	-0.191058	0.697276
O27	O	1.803973	0.142275	1.030609
O28	O	1.030678	-0.285138	0.435913
O29	O	1.364011	0.048196	0.769247
O30	O	1.697344	0.381529	1.102580
O31	O	0.946902	-0.406892	0.237176
O32	O	1.280235	-0.073559	0.570510
O33	O	1.613568	0.259774	0.903843
O34	O	0.828452	-0.406405	0.346488
O35	O	1.161786	-0.073072	0.679821
O36	O	1.495119	0.260262	1.013155
O37	O	0.929109	-0.523535	0.556078
O38	O	1.262443	-0.190202	0.889411
O39	O	1.595776	0.143132	1.222745
O40	O	0.820230	-0.512707	0.437136
O41	O	1.153564	-0.179374	0.770469
O42	O	1.486897	0.153959	1.103802
O43	O	1.019827	-0.425436	0.555551
O44	O	1.353160	-0.092103	0.888885
O45	O	1.686493	0.241230	1.222218
O46	O	1.017576	-0.653863	0.364638
O47	O	1.350910	-0.320530	0.697971
O48	O	1.684243	0.012804	1.031305
O49	O	0.927829	-0.653494	0.447462
O50	O	1.261162	-0.320160	0.780795
O51	O	1.594496	0.013173	1.114128
C52	C	0.798901	-0.458290	0.390734
C53	C	1.132235	-0.124957	0.724068
C54	C	1.465568	0.208376	1.057401
C55	C	0.720969	-0.454433	0.387451
C56	C	1.054302	-0.121099	0.720784
C57	C	1.387635	0.212234	1.054117
C58	C	0.971363	-0.683924	0.407299
C59	C	1.304697	-0.350591	0.740633
C60	C	1.638030	-0.017257	1.073966
C61	C	0.967276	-0.776577	0.411111
C62	C	1.300609	-0.443243	0.744444
C63	C	1.633942	-0.109910	1.077778
C64	C	0.680093	-0.508043	0.433036
C65	C	1.013426	-0.174710	0.766369
C66	C	1.346760	0.158623	1.099702
C67	C	0.606867	-0.504408	0.429953
C68	C	0.940201	-0.171074	0.763286
C69	C	1.273534	0.162259	1.096620
C70	C	0.574519	-0.447165	0.381281
C71	C	0.907852	-0.113831	0.714615
C72	C	1.241185	0.219502	1.047948
C73	C	0.615400	-0.393548	0.335694
C74	C	0.948733	-0.060215	0.669028
C75	C	1.282067	0.273118	1.002361
C76	C	0.688624	-0.397180	0.338781
C77	C	1.021958	-0.063847	0.672114
C78	C	1.355291	0.269486	1.005447
C79	C	0.355979	-0.430354	0.367000
C80	C	0.689312	-0.097021	0.700333
C81	C	1.022646	0.236312	1.033667
C82	C	0.282749	-0.426728	0.363916
C83	C	0.616083	-0.093394	0.697249
C84	C	0.949416	0.239939	1.030582
C85	C	0.274222	-0.537586	0.458176
C86	C	0.607555	-0.204253	0.791509
C87	C	0.940888	0.129080	1.124842
C88	C	0.347448	-0.541217	0.461255
C89	C	0.680781	-0.207884	0.794588
C90	C	1.014114	0.125450	1.127922
C91	C	0.388323	-0.487598	0.415670
C92	C	0.721656	-0.154264	0.749004
C93	C	1.054989	0.179069	1.082337
N94	N	0.499670	-0.443449	0.378128
N95	N	0.833004	-0.110115	0.711461
N96	N	1.166337	0.223218	1.044795
N97	N	0.463169	-0.491310	0.418828
N98	N	0.796503	-0.157977	0.752161
N99	N	1.129836	0.175357	1.085494
C100	C	0.959816	-0.946215	0.418084
C101	C	1.293149	-0.612882	0.751418
C102	C	1.626483	-0.279548	1.084751
C103	C	1.002442	-0.987665	0.378836
C104	C	1.335775	-0.654332	0.712169
C105	C	1.669109	-0.320998	1.045502
C106	C	0.998291	-1.082058	0.382716
C107	C	1.331625	-0.748724	0.716049
C108	C	1.664958	-0.415391	1.049382
C109	C	0.963966	-0.851814	0.414205
C110	C	1.297299	-0.518481	0.747538
C111	C	1.630632	-0.185147	1.080872
C112	C	1.163943	-0.476459	0.406199
C113	C	1.497276	-0.143126	0.739532
C114	C	1.830609	0.190207	1.072866
C115	C	1.241874	-0.480338	0.409501
C116	C	1.575207	-0.147005	0.742834
C117	C	1.908540	0.186328	1.076167
C118	C	0.973367	-0.475675	0.582072
C119	C	1.306700	-0.142342	0.915406
C120	C	1.640034	0.190991	1.248739
C121	C	0.970086	-0.479220	0.660321
C122	C	1.303419	-0.145887	0.993654
C123	C	1.636753	0.187447	1.326988
C124	C	0.990826	-0.249946	0.389585
C125	C	1.324159	0.083388	0.722918
C126	C	1.657492	0.416721	1.056252
C127	C	0.994984	-0.157298	0.385807
C128	C	1.328318	0.176035	0.719140
C129	C	1.661651	0.509369	1.052474
C130	C	0.988779	-0.459013	0.215544
C131	C	1.322112	-0.125680	0.548877
C132	C	1.655445	0.207654	0.882211
C133	C	0.992206	-0.455240	0.137292
C134	C	1.325539	-0.121907	0.470626
C135	C	1.658873	0.211427	0.803959
C136	C	1.015774	-0.429813	0.696809
C137	C	1.349107	-0.096480	1.030142
C138	C	1.682440	0.236854	1.363476
C139	C	1.012683	-0.433140	0.770331
C140	C	1.346016	-0.099807	1.103664
C141	C	1.679349	0.233527	1.436998
C142	C	0.963906	-0.485879	0.807364
C143	C	1.297240	-0.152546	1.140697
C144	C	1.630573	0.180788	1.474031
C145	C	0.918214	-0.535288	0.770871
C146	C	1.251547	-0.201955	1.104204
C147	C	1.584880	0.131379	1.437537
C148	C	0.921302	-0.531956	0.697350
C149	C	1.254635	-0.198623	1.030683
C150	C	1.587969	0.134711	1.364016
C151	C	0.949602	-0.501317	1.027278
C152	C	1.282935	-0.167984	1.360611
C153	C	1.616268	0.165350	1.693944
C154	C	0.946518	-0.504647	1.100804
C155	C	1.279851	-0.171314	1.434137
C156	C	1.613185	0.162020	1.767471
C157	C	1.040987	-0.402498	1.100259
C158	C	1.374320	-0.069164	1.433593
C159	C	1.707653	0.264169	1.766926
C160	C	1.044074	-0.399174	1.026737
C161	C	1.377407	-0.065841	1.360070
C162	C	1.710740	0.267493	1.693404
C163	C	0.998378	-0.448580	0.990250
C164	C	1.331712	-0.115246	1.323583
C165	C	1.665045	0.218087	1.656917
N166	N	0.960747	-0.489283	0.882516
N167	N	1.294080	-0.155950	1.215849
N168	N	1.627413	0.177384	1.549182
N169	N	1.001535	-0.445171	0.915099
N170	N	1.334868	-0.111837	1.248433
N171	N	1.668202	0.221496	1.581766
H172	H	0.706425	-0.554659	0.472667
H173	H	1.039759	-0.221326	0.806001
H174	H	1.373092	0.112007	1.139334
N175	N	0.907341	-0.993105	0.466441
N176	N	1.240674	-0.659772	0.799774
N177	N	1.574008	-0.326438	1.133107
H178	H	0.879466	-0.952293	0.492094
H179	H	1.212800	-0.618960	0.825427
H180	H	1.546133	-0.285626	1.158761
H181	H	0.932928	-1.032079	0.501706
H182	H	1.266261	-0.698746	0.835039
H183	H	1.599595	-0.365413	1.168372
N184	N	1.096671	-0.342260	0.986812
N185	N	1.430004	-0.008927	1.320145
N186	N	1.763338	0.324406	1.653478
H187	H	1.071182	-0.300834	0.953532
H188	H	1.404515	0.032500	1.286865
H189	H	1.737848	0.365833	1.620199
H190	H	1.128923	-0.376404	0.959102
H191	H	1.462257	-0.043071	1.292435
H192	H	1.795590	0.290262	1.625768
N193	N	0.562779	-0.562242	0.479110
N194	N	0.896112	-0.228908	0.812443
N195	N	1.229446	0.104425	1.145777
H196	H	0.594383	-0.599063	0.510405
H197	H	0.927716	-0.265730	0.843738
H198	H	1.261049	0.067603	1.177071
H199	H	0.531876	-0.597947	0.450681
H200	H	0.865209	-0.264614	0.784014
H201	H	1.198543	0.068719	1.117348
H202	H	0.884091	-0.572180	0.667641
H203	H	1.217425	-0.238846	1.000975
H204	H	1.550758	0.094487	1.334308
N205	N	1.054911	-0.940774	0.330465
N206	N	1.388244	-0.607441	0.663798
N207	N	1.721578	-0.274107	0.997132
H208	H	1.029366	-0.901806	0.295159
H209	H	1.362699	-0.568473	0.628492
H210	H	1.696032	-0.235139	0.961825
H211	H	1.082766	-0.981645	0.304860
H212	H	1.416099	-0.648312	0.638193
H213	H	1.749432	-0.314978	0.971527
H214	H	0.906796	-0.547595	1.130954
H215	H	1.240130	-0.214262	1.464288
H216	H	1.573463	0.119071	1.797621
N217	N	0.382337	-0.602962	0.513747
N218	N	0.715670	-0.269629	0.847080
N219	N	1.049003	0.063705	1.180414
H220	H	0.345330	-0.636374	0.542158
H221	H	0.678663	-0.303041	0.875491
H222	H	1.011997	0.030293	1.208824
H223	H	0.412876	-0.572081	0.546271
H224	H	0.746209	-0.238748	0.879604
H225	H	1.079542	0.094586	1.212937
N226	N	0.865589	-0.592152	0.810808
N227	N	1.198922	-0.258819	1.144141
N228	N	1.532255	0.074515	1.477475
H229	H	0.870562	-0.586764	0.862920
H230	H	1.203895	-0.253431	1.196254
H231	H	1.537228	0.079903	1.529587
H232	H	0.874355	-0.651648	0.800852
H233	H	1.207688	-0.318315	1.134185
H234	H	1.541022	0.015019	1.467519
H235	H	1.055495	-0.386870	0.666662
H236	H	1.388828	-0.053537	0.999995
H237	H	1.722162	0.279797	1.333329
H238	H	1.078188	-0.362273	1.129975
H239	H	1.411522	-0.028940	1.463308
H240	H	1.744855	0.304393	1.796642
N241	N	1.061947	-0.379834	0.809686
N242	N	1.395280	-0.046501	1.143019
N243	N	1.728614	0.286832	1.476352
H244	H	1.093314	-0.345918	0.775069
H245	H	1.426647	-0.012585	1.108403
H246	H	1.759980	0.320749	1.441736
H247	H	1.091592	-0.416748	0.842959
H248	H	1.424925	-0.083414	1.176292
H249	H	1.758258	0.249919	1.509626
H250	H	0.256414	-0.380104	0.324285
H251	H	0.589747	-0.046771	0.657618
H252	H	0.923081	0.286562	0.990952
H253	H	0.912403	-0.541559	0.997580
H254	H	1.245736	-0.208226	1.330913
H255	H	1.579070	0.125108	1.664246
H256	H	0.240934	-0.581239	0.495289
H257	H	0.574267	-0.247906	0.828622
H258	H	0.907600	0.085428	1.161956
H259	H	0.389251	-0.386700	0.329877
H260	H	0.722584	-0.053366	0.663210
H261	H	1.055917	0.279967	0.996543
N262	N	0.580508	-0.331822	0.283188
N263	N	0.913842	0.001511	0.616521
N264	N	1.247175	0.334844	0.949855
H265	H	0.550649	-0.293038	0.308984
H266	H	0.883983	0.040295	0.642317
H267	H	1.217316	0.373628	0.975650
H268	H	0.550022	-0.362732	0.250639
H269	H	0.883355	-0.029399	0.583972
H270	H	1.216688	0.303935	0.917306
N271	N	0.732715	-0.339353	0.289619
N272	N	1.066049	-0.006019	0.622952
N273	N	1.399382	0.327314	0.956286
H274	H	0.701113	-0.302538	0.258317
H275	H	1.034446	0.030796	0.591651
H276	H	1.367780	0.364129	0.924984
H277	H	0.762945	-0.373246	0.259656
H278	H	1.096278	-0.039913	0.592990
H279	H	1.429611	0.293421	0.926323
