data_functionalizedCrystal
_audit_creation_method	'MofGen! by Chris Wilmer'
_symmetry_space_group_name_H-M	'P1'
_symmetry_Int_Tables_number	1
_symmetry_cell_setting	triclinic
loop_
_symmetry_equiv_pos_as_xyz
  x,y,z
_cell_length_a	16.120484
_cell_length_b	12.827893
_cell_length_c	12.827885
_cell_angle_alpha	89.980919
_cell_angle_beta	92.863928
_cell_angle_gamma	92.925421
loop_
_atom_site_label
_atom_site_type_symbol
_atom_site_fract_x
_atom_site_fract_y
_atom_site_fract_z
Zn1	Zn	-0.331866	1.576504	-0.611890
Zn2	Zn	-0.471301	1.567505	-0.445993
Zn3	Zn	-0.331907	1.401742	-0.437167
Zn4	Zn	-0.471239	1.392841	-0.620690
O5	O	-0.401579	1.484648	-0.528935
O6	O	-0.350372	1.721545	-0.589895
O7	O	-0.452853	1.545475	-0.298589
O8	O	-0.215236	1.432416	-0.452968
O9	O	-0.452814	1.714934	-0.468011
O10	O	-0.215206	1.560812	-0.581336
O11	O	-0.350441	1.423690	-0.292104
O12	O	-0.350381	1.254326	-0.461500
O13	O	-0.452708	1.417245	-0.765756
O14	O	-0.452748	1.247787	-0.596334
O15	O	-0.350311	1.552181	-0.759291
O16	O	-0.587959	1.536844	-0.476544
O17	O	-0.587913	1.408520	-0.604893
C18	C	-0.401562	1.213139	-0.528915
C19	C	-0.401576	1.096985	-0.528932
C20	C	-0.452189	1.041934	-0.468531
C21	C	-0.452204	0.921883	-0.468548
C22	C	-0.618186	1.470768	-0.542654
C23	C	-0.710851	1.464925	-0.548557
C24	C	-0.880512	1.454265	-0.559358
C25	C	-0.921804	1.515219	-0.498529
C26	C	-1.016209	1.509287	-0.504539
C27	C	-0.786099	1.460195	-0.553350
C28	C	-0.184125	1.498611	-0.515186
C29	C	-0.091460	1.504561	-0.509327
C30	C	-0.401498	1.484724	-0.801500
C31	C	-0.401464	1.484757	-0.917651
C32	C	-0.401595	1.757217	-0.528956
C33	C	-0.401602	1.873370	-0.528965
C34	C	-0.350785	1.551535	-0.966236
C35	C	-0.350749	1.551570	-1.086284
C36	C	-0.401598	1.484636	-0.257426
C37	C	-0.401397	1.484821	-0.141261
H38	H	-0.495513	1.083680	-0.416811
O39	O	-0.922878	1.386807	-0.627008
C40	C	-0.901581	1.410869	-0.729856
H41	H	-0.877510	1.495830	-0.733716
H42	H	-0.851144	1.357926	-0.753975
C43	C	-1.008533	1.289551	-0.799665
C44	C	-0.978974	1.393904	-0.804408
H45	H	-1.056271	1.279083	-0.845654
H46	H	-1.022879	1.273336	-0.730375
H47	H	-0.966494	1.245444	-0.819762
H48	H	-1.021009	1.438008	-0.784299
H49	H	-0.964637	1.410126	-0.873697
H50	H	-0.307363	1.608744	-1.128079
H51	H	-0.307421	1.608676	-0.918956
H52	H	-0.444791	1.427651	-1.099474
O53	O	-0.453314	1.416623	-0.973936
C54	C	-0.536435	1.434113	-0.952619
H55	H	-0.538245	1.474078	-0.873462
H56	H	-0.564455	1.486113	-1.015802
C57	C	-0.584713	1.279906	-1.048131
C58	C	-0.586937	1.328983	-0.950906
H59	H	-0.615867	1.215058	-1.047079
H60	H	-0.528714	1.268124	-1.062497
H61	H	-0.608062	1.323249	-1.100774
H62	H	-0.563580	1.285646	-0.898268
H63	H	-0.642934	1.340756	-0.936531
H64	H	-0.495535	0.874553	-0.416834
H65	H	-0.358264	0.920693	-0.580674
O66	O	-0.350007	1.047070	-0.590702
C67	C	-0.397591	0.980946	-0.661083
H68	H	-0.460751	0.960648	-0.628084
H69	H	-0.406788	1.022397	-0.739121
C70	C	-0.274255	0.905072	-0.717650
C71	C	-0.351826	0.880135	-0.677117
H72	H	-0.246024	0.842888	-0.727545
H73	H	-0.242196	0.949624	-0.670236
H74	H	-0.281930	0.939616	-0.782677
H75	H	-0.344150	0.845604	-0.612085
H76	H	-0.383883	0.835575	-0.724520
H77	H	-0.886255	1.571857	-0.441939
