data_functionalizedCrystal
_audit_creation_method	'MofGen! by Chris Wilmer'
_symmetry_space_group_name_H-M	'P1'
_symmetry_Int_Tables_number	1
_symmetry_cell_setting	triclinic
loop_
_symmetry_equiv_pos_as_xyz
  x,y,z
_cell_length_a	6.394989
_cell_length_b	14.971486
_cell_length_c	13.448316
_cell_angle_alpha	90.006811
_cell_angle_beta	90.006174
_cell_angle_gamma	85.055920
loop_
_atom_site_label
_atom_site_type_symbol
_atom_site_fract_x
_atom_site_fract_y
_atom_site_fract_z
O1	O	-2.771867	-0.146542	-0.082682
O2	O	-2.163757	-0.153924	-0.082687
O3	O	-2.484111	-0.020209	-0.082677
O4	O	-2.451513	-0.280256	-0.082692
O5	O	-2.484071	-0.020200	0.082706
O6	O	-2.163717	-0.153915	0.082697
O7	O	-2.771827	-0.146533	0.082701
Cu8	Cu	-2.467768	-0.150223	0.097800
Cu9	Cu	-2.467816	-0.150233	-0.097785
O10	O	-2.451473	-0.280248	0.082692
C11	C	-2.482633	0.013136	0.000014
C12	C	-2.478264	0.112480	0.000013
C13	C	-2.452951	-0.313593	-0.000002
C14	C	-2.457320	-0.412937	-0.000007
N15	N	-2.467750	-0.150215	0.235364
C16	C	-2.085912	-0.152460	0.000010
C17	C	-1.849666	-0.147999	0.000014
N18	N	-2.467851	-0.150234	-0.235350
C19	C	-2.666464	0.167670	0.000015
C20	C	-2.662346	0.261014	0.000005
C21	C	-2.470028	0.299167	0.000000
C22	C	-2.281814	0.243969	-0.000005
C23	C	-2.285933	0.150627	-0.000002
C24	C	-2.273241	0.438525	-0.000008
C25	C	-2.269120	0.531873	-0.000009
C26	C	-2.649654	0.548912	-0.000001
C27	C	-2.653773	0.455570	0.000002
C28	C	-2.465559	0.400379	-0.000001
C29	C	-2.609647	-0.091032	0.287409
C30	C	-2.609660	-0.091031	0.391512
C31	C	-2.467784	-0.150219	0.443569
C32	C	-2.325872	-0.209405	0.391517
C33	C	-2.325851	-0.209401	0.287416
C34	C	-2.325930	-0.209412	0.608497
C35	C	-2.325954	-0.209418	0.712606
C36	C	-2.609739	-0.091042	0.712594
C37	C	-2.609718	-0.091038	0.608492
C38	C	-2.467808	-0.150225	0.556448
H39	H	-2.815597	0.305947	0.000009
H40	H	-2.210422	-0.257614	0.754985
H41	H	-2.823072	0.136615	0.000025
O42	O	-2.747724	-0.033519	0.441914
C43	C	-2.872925	0.018729	0.373644
H44	H	-2.875326	-0.017968	0.299428
H45	H	-2.804984	0.085969	0.362597
C46	C	-3.095275	0.079615	0.505400
C47	C	-3.098238	0.034539	0.414249
H48	H	-3.234257	0.089372	0.530448
H49	H	-3.010921	0.044418	0.551396
H50	H	-3.038648	0.135643	0.496181
H51	H	-3.154840	-0.021492	0.423471
H52	H	-3.182607	0.069728	0.368256
O53	O	-2.832296	0.602649	-0.000054
C54	C	-2.787431	0.693216	-0.000041
H55	H	-2.623361	0.698636	-0.031354
H56	H	-2.795265	0.720125	0.079298
C57	C	-3.150986	0.741819	-0.026447
C58	C	-2.949479	0.748477	-0.064913
H59	H	-3.250948	0.775909	-0.066458
H60	H	-3.181215	0.680803	-0.026451
H61	H	-3.157485	0.764242	0.039669
H62	H	-2.942975	0.726044	-0.131022
H63	H	-2.919252	0.809492	-0.064921
H64	H	-2.725253	-0.042847	0.566108
H65	H	-2.112518	0.562933	0.000003
H66	H	-2.210302	-0.257593	0.245042
O67	O	-2.103253	0.096921	0.000131
C68	C	-2.094195	0.042441	0.085796
H69	H	-2.259995	0.035859	0.114358
H70	H	-1.998696	0.074215	0.145772
C71	C	-1.785700	-0.043014	0.024694
C72	C	-1.989340	-0.051105	0.059768
H73	H	-1.721011	-0.100717	0.008641
H74	H	-1.791796	-0.006308	-0.033019
H75	H	-1.706143	-0.016533	0.074679
H76	H	-2.068899	-0.077575	0.009779
H77	H	-1.983254	-0.087818	0.117473
O78	O	-2.747508	-0.033421	0.763031
C79	C	-2.713329	0.055521	0.737628
H80	H	-2.632795	0.056342	0.662053
H81	H	-2.609323	0.084388	0.796234
C82	C	-3.024193	0.111566	0.825621
C83	C	-2.925295	0.112574	0.732795
H84	H	-3.154941	0.146761	0.822644
H85	H	-3.047217	0.051644	0.842740
H86	H	-2.937500	0.135619	0.874450
H87	H	-3.011976	0.088511	0.683971
H88	H	-2.902291	0.172493	0.715668
H89	H	-2.210344	-0.257594	0.433908
O90	O	-2.188006	-0.266994	0.558094
C91	C	-2.062758	-0.319224	0.626361
H92	H	-2.148407	-0.321221	0.700560
H93	H	-1.907523	-0.288396	0.637451
C94	C	-1.914746	-0.412770	0.494586
C95	C	-2.019950	-0.415230	0.585717
H96	H	-1.888330	-0.471990	0.469514
H97	H	-1.999121	-0.377580	0.448592
H98	H	-1.785395	-0.387076	0.503841
H99	H	-2.149309	-0.440913	0.576459
H100	H	-1.935595	-0.450427	0.631708
H101	H	-2.810376	0.424509	0.000013
H102	H	-2.119976	0.393590	-0.000013
H103	H	-2.125224	0.275040	-0.000015
H104	H	-2.725186	-0.042838	0.245031
