data_functionalizedCrystal
_audit_creation_method	'MofGen! by Chris Wilmer'
_symmetry_space_group_name_H-M	'P1'
_symmetry_Int_Tables_number	1
_symmetry_cell_setting	triclinic
loop_
_symmetry_equiv_pos_as_xyz
  x,y,z
_cell_length_a	19.077442
_cell_length_b	19.077300
_cell_length_c	19.076919
_cell_angle_alpha	94.667263
_cell_angle_beta	89.933452
_cell_angle_gamma	94.472516
loop_
_atom_site_label
_atom_site_type_symbol
_atom_site_fract_x
_atom_site_fract_y
_atom_site_fract_z
Zn1	Zn	-0.337082	-1.075751	0.341207
Zn2	Zn	0.162918	-0.575751	0.841207
Zn3	Zn	-0.450230	-1.085139	0.218595
Zn4	Zn	0.049770	-0.585139	0.718595
Zn5	Zn	-0.328017	-0.962229	0.228450
Zn6	Zn	0.171983	-0.462229	0.728450
Zn7	Zn	-0.450199	-0.962569	0.341176
Zn8	Zn	0.049801	-0.462569	0.841176
O9	O	-0.391382	-1.021422	0.282357
O10	O	0.108618	-0.521422	0.782357
O11	O	-0.355898	-1.175801	0.320831
O12	O	0.144102	-0.675801	0.820831
O13	O	-0.430237	-1.072621	0.121413
O14	O	0.069763	-0.572621	0.621413
O15	O	-0.230733	-0.973217	0.247545
O16	O	0.269267	-0.473217	0.747545
O17	O	-0.439027	-1.182698	0.230749
O18	O	0.060973	-0.682698	0.730749
O19	O	-0.237393	-1.056620	0.330387
O20	O	0.262607	-0.556620	0.830387
O21	O	-0.340448	-0.982320	0.128654
O22	O	0.159552	-0.482320	0.628654
O23	O	-0.340418	-0.863469	0.247515
O24	O	0.159582	-0.363469	0.747515
O25	O	-0.438975	-0.973796	0.439669
O26	O	0.061025	-0.473796	0.939669
O27	O	-0.430185	-0.863719	0.330334
O28	O	0.069815	-0.363719	0.830334
O29	O	-0.355868	-1.056950	0.439692
O30	O	0.144132	-0.556950	0.939692
O31	O	-0.548712	-1.072951	0.230718
O32	O	-0.048712	-0.572951	0.730718
O33	O	-0.548690	-0.982899	0.320778
O34	O	-0.048690	-0.482899	0.820778
C35	C	-0.384315	-0.837975	0.289991
C36	C	0.115685	-0.337975	0.789991
C37	C	-0.381309	-0.759496	0.293272
C38	C	0.118691	-0.259496	0.793272
C39	C	-0.574239	-1.028999	0.274690
C40	C	-0.074239	-0.528999	0.774690
C41	C	-0.652469	-1.032304	0.271430
C42	C	-0.152469	-0.532304	0.771430
C43	C	-0.359696	-0.317352	0.316822
C44	C	0.140304	0.182648	0.816822
C45	C	-0.362534	-0.391092	0.313734
C46	C	0.137466	0.108908	0.813734
C47	C	-0.407156	-0.431544	0.265219
C48	C	0.092844	0.068456	0.765219
C49	C	-0.448950	-0.398252	0.219794
C50	C	0.051050	0.101748	0.719794
C51	C	-0.446116	-0.324513	0.222886
C52	C	0.053884	0.175487	0.722886
C53	C	-0.420268	-0.652465	0.250939
C54	C	0.079732	-0.152465	0.750939
C55	C	-0.423098	-0.726209	0.247849
C56	C	0.076902	-0.226209	0.747849
C57	C	-0.336682	-0.719043	0.341790
C58	C	0.163318	-0.219043	0.841790
C59	C	-0.333849	-0.645303	0.344875
C60	C	0.166151	-0.145303	0.844875
C61	C	-0.375645	-0.612018	0.299453
C62	C	0.124355	-0.112018	0.799453
N63	N	-0.410056	-0.506919	0.262060
N64	N	0.089944	-0.006919	0.762060
N65	N	-0.372749	-0.536645	0.302616
N66	N	0.127251	-0.036645	0.802616
C67	C	-1.092821	-1.055962	0.248035
C68	C	-0.592821	-0.555962	0.748035
C69	C	-1.019315	-1.052850	0.251099
C70	C	-0.519315	-0.552850	0.751099
C71	C	-0.982576	-1.004379	0.299488
C72	C	-0.482576	-0.504379	0.799488
C73	C	-1.019346	-0.959011	0.344810
C74	C	-0.519346	-0.459011	0.844810
C75	C	-1.092850	-0.962121	0.341742
C76	C	-0.592850	-0.462121	0.841742
C77	C	-0.762743	-0.990046	0.313685
C78	C	-0.262743	-0.490046	0.813685
C79	C	-0.689234	-0.986942	0.316751
C80	C	-0.189234	-0.486942	0.816751
C81	C	-0.689208	-1.080780	0.223039
C82	C	-0.189208	-0.580780	0.723039
C83	C	-0.762714	-1.083888	0.219978
C84	C	-0.262714	-0.583888	0.719978
C85	C	-0.799477	-1.038518	0.265298
C86	C	-0.299477	-0.538518	0.765298
N87	N	-0.907441	-1.001198	0.302622
N88	N	-0.407441	-0.501198	0.802622
N89	N	-0.874610	-1.041696	0.262159
N90	N	-0.374610	-0.541696	0.762159
C91	C	-0.207813	-1.013833	0.290069
C92	C	0.292187	-0.513833	0.790069
C93	C	-0.129586	-1.010600	0.293355
C94	C	0.370414	-0.510600	0.793355
C95	C	-0.398429	-1.014364	0.465932
C96	C	0.101571	-0.514364	0.965932
C97	C	-0.401432	-1.011356	0.544161
C98	C	0.098568	-0.511356	1.044161
C99	C	-0.398473	-0.205585	0.274687
C100	C	0.101527	0.294415	0.774687
C101	C	-0.401485	-0.284065	0.271399
C102	C	0.098515	0.215935	0.771399
C103	C	-0.384313	-1.028491	0.099497
C104	C	0.115687	-0.528491	0.599497
C105	C	-0.381117	-1.031627	0.021271
C106	C	0.118883	-0.531627	0.521271
C107	C	-0.359576	-1.053235	0.580926
C108	C	0.140424	-0.553235	1.080926
C109	C	-0.362394	-1.050400	0.654431
C110	C	0.137606	-0.550400	1.154431
C111	C	-0.407074	-1.005690	0.691168
C112	C	0.092926	-0.505690	1.191168
C113	C	-0.448931	-0.963806	0.654398
C114	C	0.051069	-0.463806	1.154398
C115	C	-0.446109	-0.966638	0.580895
C116	C	0.053891	-0.466638	1.080895
C117	C	-0.420152	-0.992575	0.910998
C118	C	0.079848	-0.492575	1.410998
C119	C	-0.422973	-0.989748	0.984506
C120	C	0.077027	-0.489748	1.484506
C121	C	-0.336435	-1.076341	0.984533
C122	C	0.163565	-0.576341	1.484533
C123	C	-0.333619	-1.079172	0.911029
C124	C	0.166381	-0.579172	1.411029
C125	C	-0.375474	-1.037286	0.874265
C126	C	0.124526	-0.537286	1.374265
N127	N	-0.409957	-1.002793	0.766302
N128	N	0.090043	-0.502793	1.266302
N129	N	-0.372586	-1.040180	0.799133
N130	N	0.127414	-0.540180	1.299133
H131	H	-0.323355	-0.284421	0.356324
H132	H	0.176645	0.215579	0.856324
H133	H	-0.459437	-0.759143	0.208341
H134	H	0.040563	-0.259143	0.708341
O135	O	-0.653652	-0.939797	0.363784
O136	O	-0.153652	-0.439797	0.863784
C137	C	-0.701862	-0.900434	0.403143
C138	C	-0.201862	-0.400434	0.903143
H139	H	-0.753066	-0.901322	0.372224
H140	H	-0.253066	-0.401322	0.872224
H141	H	-0.678809	-0.843620	0.413819
H142	H	-0.178809	-0.343620	0.913819
H143	H	-0.712694	-0.924531	0.455212
H144	H	-0.212694	-0.424531	0.955212
O145	O	-0.290525	-0.605905	0.391946
O146	O	0.209475	-0.105905	0.891946
C147	C	-0.296999	-0.533683	0.384948
C148	C	0.203001	-0.033683	0.884948
H149	H	-0.317482	-0.526635	0.330052
H150	H	0.182518	-0.026635	0.830052
H151	H	-0.243402	-0.503287	0.393202
H152	H	0.256598	-0.003287	0.893202
H153	H	-0.335347	-0.512727	0.425930
H154	H	0.164653	-0.012727	0.925930
H155	H	-0.480146	-0.297412	0.185899
H156	H	0.019854	0.202588	0.685899
H157	H	-0.989382	-1.089787	0.214196
H158	H	-0.489382	-0.589787	0.714196
H159	H	-0.659269	-1.117717	0.186141
H160	H	-0.159269	-0.617717	0.686141
O161	O	-0.321865	-0.423314	0.357883
O162	O	0.178135	0.076686	0.857883
C163	C	-0.281880	-0.371798	0.401373
C164	C	0.218120	0.128202	0.901373
H165	H	-0.276275	-0.320231	0.374857
H166	H	0.223725	0.179769	0.874857
H167	H	-0.227549	-0.390517	0.410398
H168	H	0.272451	0.109483	0.910398
H169	H	-0.309481	-0.362990	0.454031
H170	H	0.190519	0.137010	0.954031
O171	O	-0.296158	-0.751490	0.385885
O172	O	0.203842	-0.251490	0.885885
C173	C	-0.308212	-0.825248	0.372744
C174	C	0.191788	-0.325248	0.872744
H175	H	-0.361986	-0.838452	0.346902
H176	H	0.138014	-0.338452	0.846902
H177	H	-0.306627	-0.851067	0.424493
H178	H	0.193373	-0.351067	0.924493
H179	H	-0.265772	-0.845869	0.336214
H180	H	0.234228	-0.345869	0.836214
O181	O	-1.128396	-1.103069	0.200968
O182	O	-0.628396	-0.603069	0.700968
C183	C	-1.080181	-1.142450	0.161636
C184	C	-0.580181	-0.642450	0.661636
H185	H	-1.026606	-1.111410	0.162568
H186	H	-0.526606	-0.611410	0.662568
H187	H	-1.099591	-1.153054	0.104987
H188	H	-0.599591	-0.653054	0.604987
H189	H	-1.075360	-1.194730	0.185548
H190	H	-0.575360	-0.694730	0.685548
O191	O	-0.460966	-0.620221	0.206838
O192	O	0.039034	-0.120221	0.706838
C193	C	-0.532413	-0.640557	0.218413
C194	C	-0.032413	-0.140557	0.718413
H195	H	-0.537007	-0.693124	0.243164
H196	H	-0.037007	-0.193124	0.743164
H197	H	-0.562032	-0.646331	0.166139
H198	H	-0.062032	-0.146331	0.666139
H199	H	-0.555976	-0.598662	0.255296
H200	H	-0.055976	-0.098662	0.755296
H201	H	-0.792667	-0.953098	0.350582
H202	H	-0.292667	-0.453098	0.850582
O203	O	-0.983553	-0.911988	0.391793
O204	O	-0.483553	-0.411988	0.891793
C205	C	-0.910791	-0.918959	0.384774
C206	C	-0.410791	-0.418959	0.884774
H207	H	-0.901923	-0.973925	0.359918
H208	H	-0.401923	-0.473925	0.859918
H209	H	-0.884682	-0.910922	0.438857
H210	H	-0.384682	-0.410922	0.938857
H211	H	-0.886930	-0.877670	0.349873
H212	H	-0.386930	-0.377670	0.849873
O213	O	-1.128459	-0.918028	0.385840
O214	O	-0.628459	-0.418028	0.885840
C215	C	-1.080271	-0.874568	0.429196
C216	C	-0.580271	-0.374568	0.929196
H217	H	-1.029055	-0.901174	0.432640
H218	H	-0.529055	-0.401174	0.932640
H219	H	-1.103337	-0.865759	0.484072
H220	H	-0.603337	-0.365759	0.984072
H221	H	-1.069457	-0.821627	0.405936
H222	H	-0.569457	-0.321627	0.905936
O223	O	-0.798290	-1.130991	0.172908
O224	O	-0.298290	-0.630991	0.672908
C225	C	-0.750078	-1.170376	0.133575
C226	C	-0.250078	-0.670376	0.633575
H227	H	-0.696501	-1.139338	0.134504
H228	H	-0.196501	-0.639338	0.634504
H229	H	-0.769491	-1.180980	0.076927
H230	H	-0.269491	-0.680980	0.576927
H231	H	-0.745258	-1.222655	0.157487
H232	H	-0.245258	-0.722655	0.657487
H233	H	-0.328312	-1.084504	0.684361
H234	H	0.171688	-0.584504	1.184361
O235	O	-0.316113	-1.096683	0.545353
O236	O	0.183887	-0.596683	1.045353
C237	C	-0.279786	-1.133049	0.593567
C238	C	0.220214	-0.633049	1.093567
H239	H	-0.278249	-1.102009	0.647266
H240	H	0.221751	-0.602009	1.147266
H241	H	-0.223809	-1.139106	0.574349
H242	H	0.276191	-0.639106	1.074349
H243	H	-0.307925	-1.187438	0.598075
H244	H	0.192075	-0.687438	1.098075
H245	H	-0.459358	-0.953338	1.014416
H246	H	0.040642	-0.453338	1.514416
H247	H	-0.297239	-1.115582	0.881121
H248	H	0.202761	-0.615582	1.381121
H249	H	-0.302358	-1.110442	1.014474
H250	H	0.197642	-0.610442	1.514474
O251	O	-0.492236	-0.437651	0.172688
O252	O	0.007764	0.062349	0.672688
C253	C	-0.485789	-0.509873	0.179708
C254	C	0.014211	-0.009873	0.679708
H255	H	-0.432787	-0.516814	0.204703
H256	H	0.067213	-0.016814	0.704703
H257	H	-0.489529	-0.540101	0.125610
H258	H	0.010471	-0.040101	0.625610
H259	H	-0.529835	-0.531106	0.214485
H260	H	-0.029835	-0.031106	0.714485
H261	H	-0.454244	-0.958480	0.881073
H262	H	0.045756	-0.458480	1.381073
O263	O	-0.492316	-0.920434	0.690190
O264	O	0.007684	-0.420434	1.190190
C265	C	-0.485821	-0.926902	0.762951
C266	C	0.014179	-0.426902	1.262951
H267	H	-0.465259	-0.980053	0.771696
H268	H	0.034741	-0.480053	1.271696
H269	H	-0.539426	-0.923214	0.788869
H270	H	-0.039426	-0.423214	1.288869
H271	H	-0.447529	-0.882670	0.787125
H272	H	0.052471	-0.382670	1.287125
O273	O	-0.486847	-0.925943	0.545285
O274	O	0.013153	-0.425943	1.045285
C275	C	-0.526880	-0.885864	0.593471
C276	C	-0.026880	-0.385864	1.093471
H277	H	-0.532435	-0.912863	0.644566
H278	H	-0.032435	-0.412863	1.144566
H279	H	-0.581228	-0.881454	0.570219
H280	H	-0.081228	-0.381454	1.070219
H281	H	-0.499349	-0.830869	0.604594
H282	H	0.000651	-0.330869	1.104594
