data_functionalizedCrystal
_audit_creation_method	'MofGen! by Chris Wilmer'
_symmetry_space_group_name_H-M	'P1'
_symmetry_Int_Tables_number	1
_symmetry_cell_setting	triclinic
loop_
_symmetry_equiv_pos_as_xyz
  x,y,z
_cell_length_a	19.805407
_cell_length_b	25.639239
_cell_length_c	19.805399
_cell_angle_alpha	89.971274
_cell_angle_beta	89.980427
_cell_angle_gamma	90.038686
loop_
_atom_site_label
_atom_site_type_symbol
_atom_site_fract_x
_atom_site_fract_y
_atom_site_fract_z
Zn1	Zn	1.034678	-0.208163	-0.382714
Zn2	Zn	1.534678	0.291837	0.117286
Zn3	Zn	1.034569	-0.295597	-0.269524
Zn4	Zn	1.534569	0.204403	0.230476
Zn5	Zn	0.921493	-0.208177	-0.269539
Zn6	Zn	1.421493	0.291823	0.230461
Zn7	Zn	0.921432	-0.295569	-0.382670
Zn8	Zn	1.421432	0.204431	0.117330
O9	O	0.978043	-0.251877	-0.326112
O10	O	1.478043	0.248123	0.173888
O11	O	1.129380	-0.219767	-0.367711
O12	O	1.629380	0.280233	0.132289
O13	O	1.019548	-0.284018	-0.174809
O14	O	1.519548	0.215982	0.325191
O15	O	0.936578	-0.135010	-0.284576
O16	O	1.436578	0.364990	0.215424
O17	O	1.129300	-0.284004	-0.284551
O18	O	1.629300	0.215996	0.215449
O19	O	1.019735	-0.135000	-0.367726
O20	O	1.519735	0.365000	0.132274
O21	O	0.936472	-0.219791	-0.174820
O22	O	1.436472	0.280209	0.325180
O23	O	0.826768	-0.219764	-0.284534
O24	O	1.326768	0.280236	0.215466
O25	O	0.936475	-0.283957	-0.477393
O26	O	1.436475	0.216043	0.022607
O27	O	0.826723	-0.283971	-0.367651
O28	O	1.326723	0.216029	0.132349
O29	O	1.019676	-0.219740	-0.477425
O30	O	1.519676	0.280260	0.022575
O31	O	1.019489	-0.368758	-0.284508
O32	O	1.519489	0.131242	0.215492
O33	O	0.936368	-0.368738	-0.367637
O34	O	1.436368	0.131262	0.132363
C35	C	0.802187	-0.251867	-0.326090
C36	C	1.302187	0.248133	0.173910
C37	C	0.726955	-0.251875	-0.326097
C38	C	1.226955	0.248125	0.173903
C39	C	0.691605	-0.285357	-0.369306
C40	C	1.191605	0.214643	0.130694
C41	C	0.620917	-0.285358	-0.369315
C42	C	1.120917	0.214642	0.130685
C43	C	0.585579	-0.251879	-0.326112
C44	C	1.085579	0.248121	0.173888
C45	C	0.620934	-0.218393	-0.282901
C46	C	1.120934	0.281607	0.217099
C47	C	0.691621	-0.218390	-0.282895
C48	C	1.191621	0.281610	0.217105
C49	C	0.335860	-0.218404	-0.282923
C50	C	0.835860	0.281596	0.217077
C51	C	0.265168	-0.218411	-0.282931
C52	C	0.765168	0.281589	0.217069
C53	C	0.265156	-0.285373	-0.369343
C54	C	0.765156	0.214627	0.130657
C55	C	0.335843	-0.285370	-0.369338
C56	C	0.835843	0.214630	0.130662
C57	C	0.371192	-0.251882	-0.326129
C58	C	0.871192	0.248118	0.173871
C59	C	0.447840	-0.251881	-0.326121
C60	C	0.947840	0.248119	0.173879
C61	C	0.508932	-0.251883	-0.326117
C62	C	1.008932	0.248117	0.173883
C63	C	0.977929	-0.387719	-0.326081
C64	C	1.477929	0.112281	0.173919
C65	C	0.977942	-0.445833	-0.326090
C66	C	1.477942	0.054167	0.173910
C67	C	1.021437	-0.806194	-0.282901
C68	C	1.521437	-0.306194	0.217099
C69	C	1.021463	-0.860799	-0.282910
C70	C	1.521463	-0.360799	0.217090
O71	O	1.058326	-0.889034	-0.246154
O72	O	1.558326	-0.389034	0.253846
N73	N	0.978162	-0.888116	-0.326157
N74	N	1.478162	-0.388116	0.173843
C75	C	0.934836	-0.860825	-0.369402
C76	C	1.434836	-0.360825	0.130598
O77	O	0.898008	-0.889075	-0.406189
O78	O	1.398008	-0.389075	0.093811
C79	C	0.934814	-0.806222	-0.369396
C80	C	1.434814	-0.306222	0.130604
C81	C	0.978113	-0.778908	-0.326141
C82	C	1.478113	-0.278908	0.173859
C83	C	1.064733	-0.778880	-0.239650
C84	C	1.564733	-0.278880	0.260350
C85	C	1.064706	-0.724279	-0.239640
C86	C	1.564706	-0.224279	0.260360
C87	C	1.021382	-0.696993	-0.282881
C88	C	1.521382	-0.196993	0.217119
C89	C	0.978086	-0.724307	-0.326132
C90	C	1.478086	-0.224307	0.173868
C91	C	0.891492	-0.778933	-0.412645
C92	C	1.391492	-0.278933	0.087355
C93	C	0.891474	-0.724326	-0.412635
C94	C	1.391474	-0.224326	0.087365
C95	C	0.934773	-0.697012	-0.369381
C96	C	1.434773	-0.197012	0.130619
C97	C	0.934735	-0.642421	-0.369363
C98	C	1.434735	-0.142421	0.130637
N99	N	0.978036	-0.615104	-0.326116
N100	N	1.478036	-0.115104	0.173884
C101	C	1.021360	-0.642390	-0.282875
C102	C	1.521360	-0.142390	0.217125
C103	C	0.934887	-0.975496	-0.369413
C104	C	1.434887	-0.475496	0.130587
C105	C	0.934906	-1.030098	-0.369416
C106	C	1.434906	-0.530098	0.130584
C107	C	1.021533	-1.030068	-0.282924
C108	C	1.521533	-0.530068	0.217076
C109	C	1.021511	-0.975464	-0.282918
C110	C	1.521511	-0.475464	0.217082
C111	C	0.978188	-0.948179	-0.326166
C112	C	1.478188	-0.448179	0.173834
C113	C	1.021299	-0.527725	-0.282857
C114	C	1.521299	-0.027725	0.217143
C115	C	1.021266	-0.473119	-0.282849
C116	C	1.521266	0.026881	0.217151
C117	C	0.934641	-0.473155	-0.369343
C118	C	1.434641	0.026845	0.130657
C119	C	0.934671	-0.527756	-0.369349
C120	C	1.434671	-0.027756	0.130651
C121	C	0.978006	-0.555039	-0.326104
C122	C	1.478006	-0.055039	0.173896
O123	O	0.897893	-0.614151	-0.406101
O124	O	1.397893	-0.114151	0.093899
O125	O	1.058188	-0.614134	-0.246101
O126	O	1.558188	-0.114134	0.253899
C127	C	1.154585	-0.251887	-0.326134
C128	C	1.654585	0.248113	0.173866
C129	C	1.229817	-0.251891	-0.326144
C130	C	1.729817	0.248109	0.173856
C131	C	0.978081	-0.251844	-0.502655
C132	C	1.478081	0.248156	-0.002655
C133	C	0.978097	-0.251830	-0.577887
C134	C	1.478097	0.248170	-0.077887
C135	C	0.978175	-0.115504	-0.326158
C136	C	1.478175	0.384496	0.173842
C137	C	0.978232	-0.057389	-0.326177
C138	C	1.478232	0.442611	0.173823
C139	C	1.021421	-0.218390	-0.613249
C140	C	1.521421	0.281610	-0.113249
C141	C	1.021428	-0.218375	-0.683937
C142	C	1.521428	0.281625	-0.183937
C143	C	0.978114	-0.251802	-0.719262
C144	C	1.478114	0.248198	-0.219262
C145	C	0.934785	-0.285243	-0.683895
C146	C	1.434785	0.214757	-0.183895
C147	C	0.934775	-0.285255	-0.613208
C148	C	1.434775	0.214745	-0.113208
C149	C	0.934823	-0.285194	-0.968969
C150	C	1.434823	0.214806	-0.468969
C151	C	0.934838	-0.285181	-1.039661
C152	C	1.434838	0.214819	-0.539661
C153	C	1.021476	-0.218314	-1.039698
C154	C	1.521476	0.281686	-0.539698
C155	C	1.021466	-0.218326	-0.969011
C156	C	1.521466	0.281674	-0.469011
C157	C	0.978135	-0.251765	-0.933650
C158	C	1.478135	0.248235	-0.433650
C159	C	0.978127	-0.251780	-0.857001
C160	C	1.478127	0.248220	-0.357001
C161	C	0.978125	-0.251790	-0.795909
C162	C	1.478125	0.248210	-0.295909
C163	C	0.978044	-0.251872	-0.150256
C164	C	1.478044	0.248128	0.349744
C165	C	0.978159	-0.251738	-0.075024
C166	C	1.478159	0.248262	0.424976
H167	H	0.236367	-0.312639	-0.404528
H168	H	0.736367	0.187361	0.095472
H169	H	0.364633	-0.191140	-0.247735
H170	H	0.864633	0.308860	0.252265
O171	O	1.063579	-0.185877	-0.718183
O172	O	1.563579	0.314123	-0.218183
C173	C	1.101799	-0.156370	-0.671846
C174	C	1.601799	0.343630	-0.171846
H175	H	1.104112	-0.177796	-0.621452
H176	H	1.604112	0.322204	-0.121452
H177	H	1.077055	-0.116660	-0.664336
H178	H	1.577055	0.383340	-0.164336
C179	C	1.171007	-0.122523	-0.761346
C180	C	1.671007	0.377477	-0.261346
C181	C	1.173853	-0.148841	-0.699452
C182	C	1.673853	0.351159	-0.199452
H183	H	1.215452	-0.117876	-0.778376
H184	H	1.715452	0.382124	-0.278376
H185	H	1.145256	-0.142400	-0.792565
H186	H	1.645256	0.357600	-0.292565
H187	H	1.150384	-0.089433	-0.755079
H188	H	1.650384	0.410567	-0.255079
H189	H	1.194467	-0.181932	-0.705722
H190	H	1.694467	0.318068	-0.205722
H191	H	1.199608	-0.128968	-0.668235
H192	H	1.699608	0.371032	-0.168235
O193	O	0.586504	-0.185917	-0.240958
O194	O	1.086504	0.314083	0.259042
C195	C	0.516533	-0.193089	-0.250239
C196	C	1.016533	0.306911	0.249761
H197	H	0.506855	-0.233463	-0.272308
H198	H	1.006855	0.266537	0.227692
H199	H	0.496515	-0.162116	-0.286362
H200	H	0.996515	0.337884	0.213638
C201	C	0.492103	-0.138637	-0.154665
C202	C	0.992103	0.361363	0.345335
C203	C	0.480216	-0.188226	-0.181765
C204	C	0.980216	0.311774	0.318235
H205	H	0.469699	-0.135635	-0.112429
H206	H	0.969699	0.364365	0.387571
H207	H	0.539244	-0.133803	-0.148413
H208	H	1.039244	0.366197	0.351587
H209	H	0.475421	-0.112831	-0.184774
H210	H	0.975421	0.387169	0.315226
H211	H	0.496905	-0.214030	-0.151661
H212	H	0.996905	0.285970	0.348339
H213	H	0.433077	-0.193064	-0.188011
H214	H	0.933077	0.306936	0.311989
H215	H	0.236399	-0.191145	-0.247749
H216	H	0.736399	0.308855	0.252251
H217	H	0.899489	-0.312480	-0.584417
H218	H	1.399489	0.187520	-0.084417
O219	O	0.892658	-0.446618	-0.411419
O220	O	1.392658	0.053382	0.088581
C221	C	0.931167	-0.414974	-0.455145
C222	C	1.431167	0.085026	0.044855
H223	H	0.984477	-0.431392	-0.459374
H224	H	1.484477	0.068608	0.040626
H225	H	0.933499	-0.373601	-0.434207
H226	H	1.433499	0.126399	0.065793
C227	C	0.832591	-0.393951	-0.520289
C228	C	1.332591	0.106049	-0.020289
C229	C	0.898066	-0.414119	-0.525487
C230	C	1.398066	0.085881	-0.025487
H231	H	0.812172	-0.393422	-0.563678
H232	H	1.312172	0.106578	-0.063678
H233	H	0.806646	-0.415269	-0.490829
H234	H	1.306646	0.084731	0.009171
H235	H	0.834543	-0.359476	-0.502838
H236	H	1.334543	0.140524	-0.002838
H237	H	0.896112	-0.448596	-0.542929
H238	H	1.396112	0.051404	-0.042929
H239	H	0.924010	-0.392807	-0.554952
H240	H	1.424010	0.107193	-0.054952
O241	O	1.063402	-0.185891	-0.578864
O242	O	1.563402	0.314109	-0.078864
C243	C	1.024891	-0.152118	-0.537994
C244	C	1.524891	0.347882	-0.037994
H245	H	0.973579	-0.170559	-0.527385
H246	H	1.473579	0.329441	-0.027385
H247	H	1.017491	-0.113368	-0.565252
H248	H	1.517491	0.386632	-0.065252
C249	C	1.125153	-0.120010	-0.483892
C250	C	1.625153	0.379990	0.016108
C251	C	1.062134	-0.142661	-0.470856
C252	C	1.562134	0.357339	0.029144
H253	H	1.148127	-0.114174	-0.442479
H254	H	1.648127	0.385826	0.057521
H255	H	1.151100	-0.142761	-0.511428
H256	H	1.651100	0.357239	-0.011428
H257	H	1.118978	-0.087721	-0.506608
H258	H	1.618978	0.412279	-0.006608
H259	H	1.068310	-0.174952	-0.448148
H260	H	1.568310	0.325048	0.051852
H261	H	1.036189	-0.119914	-0.443315
H262	H	1.536189	0.380086	0.056685
O263	O	0.892823	-0.317637	-1.074082
O264	O	1.392823	0.182363	-0.574082
C265	C	0.902117	-0.310447	-1.144054
C266	C	1.402117	0.189553	-0.644054
H267	H	0.954372	-0.293326	-1.153719
H268	H	1.454372	0.206674	-0.653719
H269	H	0.862003	-0.282597	-1.164120
H270	H	1.362003	0.217403	-0.664120
C271	C	0.831690	-0.384369	-1.168456
C272	C	1.331690	0.115631	-0.668456
C273	C	0.895872	-0.363345	-1.180327
C274	C	1.395872	0.136655	-0.680327
H275	H	0.827835	-0.416999	-1.190832
H276	H	1.327835	0.083001	-0.690832
H277	H	0.825425	-0.389212	-1.121314
H278	H	1.325425	0.110788	-0.621314
H279	H	0.798268	-0.361156	-1.185178
H280	H	1.298268	0.138844	-0.685178
H281	H	0.929291	-0.386555	-1.163598
H282	H	1.429291	0.113445	-0.663598
H283	H	0.902142	-0.358507	-1.227467
H284	H	1.402142	0.141493	-0.727467
H285	H	0.856196	-0.702113	-0.447855
H286	H	1.356196	-0.202113	0.052145
O287	O	0.586683	-0.317939	-0.411302
O288	O	1.086683	0.182061	0.088698
C289	C	0.633030	-0.347484	-0.449438
C290	C	1.133030	0.152516	0.050562
H291	H	0.683406	-0.349256	-0.421707
H292	H	1.183406	0.150744	0.078293
H293	H	0.640582	-0.328398	-0.500894
H294	H	1.140582	0.171602	-0.000894
C295	C	0.543534	-0.400967	-0.493107
C296	C	1.043534	0.099033	0.006893
C297	C	0.605405	-0.403148	-0.459045
C298	C	1.105405	0.096852	0.040955
H299	H	0.526492	-0.435302	-0.499036
H300	H	1.026492	0.064698	0.000964
H301	H	0.512308	-0.381061	-0.467417
H302	H	1.012308	0.118939	0.032583
H303	H	0.549835	-0.385060	-0.535984
H304	H	1.049835	0.114940	-0.035984
H305	H	0.599101	-0.419048	-0.416166
H306	H	1.099101	0.080952	0.083834
H307	H	0.636629	-0.423058	-0.484729
H308	H	1.136629	0.076942	0.015271
H309	H	1.099966	-0.702043	-0.204421
H310	H	1.599966	-0.202043	0.295579
O311	O	0.370065	-0.317908	-0.411370
O312	O	0.870065	0.182092	0.088630
C313	C	0.323705	-0.347471	-0.449499
C314	C	0.823705	0.152529	0.050501
H315	H	0.273334	-0.326061	-0.451897
H316	H	0.773334	0.173939	0.048103
H317	H	0.316147	-0.387156	-0.424622
H318	H	0.816147	0.112844	0.075378
C319	C	0.413185	-0.381371	-0.518572
C320	C	0.913185	0.118629	-0.018572
C321	C	0.351320	-0.355073	-0.521521
C322	C	0.851320	0.144927	-0.021521
H323	H	0.430219	-0.386063	-0.562998
H324	H	0.930219	0.113937	-0.062998
H325	H	0.444419	-0.361456	-0.492882
H326	H	0.944419	0.138544	0.007118
H327	H	0.406878	-0.414439	-0.497838
H328	H	0.906878	0.085561	0.002162
H329	H	0.357629	-0.322004	-0.542247
H330	H	0.857629	0.177996	-0.042247
H331	H	0.320087	-0.374983	-0.547217
H332	H	0.820087	0.125017	-0.047217
H333	H	0.899515	-0.312458	-0.712663
H334	H	1.399515	0.187542	-0.212663
O335	O	1.063627	-0.185809	-1.073944
O336	O	1.563627	0.314191	-0.573944
C337	C	1.101844	-0.156302	-1.027606
C338	C	1.601844	0.343698	-0.527606
H339	H	1.104158	-0.177729	-0.977212
H340	H	1.604158	0.322271	-0.477212
H341	H	1.077097	-0.116592	-1.020094
H342	H	1.577097	0.383408	-0.520094
C343	C	1.171050	-0.122448	-1.117104
C344	C	1.671050	0.377552	-0.617104
C345	C	1.173897	-0.148768	-1.055211
C346	C	1.673897	0.351232	-0.555211
H347	H	1.215495	-0.117799	-1.134132
H348	H	1.715495	0.382201	-0.634132
H349	H	1.145301	-0.142327	-1.148323
H350	H	1.645301	0.357673	-0.648323
H351	H	1.150424	-0.089360	-1.110835
H352	H	1.650424	0.410640	-0.610835
H353	H	1.194515	-0.181858	-1.061481
H354	H	1.694515	0.318142	-0.561481
H355	H	1.199651	-0.128895	-1.023993
H356	H	1.699651	0.371105	-0.523993
H357	H	0.720402	-0.191122	-0.247713
H358	H	1.220402	0.308878	0.252287
H359	H	1.056587	-0.549933	-0.247644
H360	H	1.556587	-0.049933	0.252356
H361	H	1.056739	-0.191108	-0.940252
H362	H	1.556739	0.308892	-0.440252
O363	O	1.063394	-0.446668	-0.240809
O364	O	1.563394	0.053332	0.259191
C365	C	1.101626	-0.482465	-0.202637
C366	C	1.601626	0.017535	0.297363
H367	H	1.103970	-0.521371	-0.230372
H368	H	1.603970	-0.021371	0.269628
H369	H	1.076873	-0.488319	-0.151209
H370	H	1.576873	0.011681	0.348791
C371	C	1.170781	-0.413318	-0.158879
C372	C	1.670781	0.086682	0.341121
C373	C	1.173664	-0.461102	-0.192947
C374	C	1.673664	0.038898	0.307053
H375	H	1.215217	-0.400140	-0.152898
H376	H	1.715217	0.099860	0.347102
H377	H	1.145022	-0.389200	-0.184594
H378	H	1.645022	0.110800	0.315406
H379	H	1.150151	-0.418203	-0.116026
H380	H	1.650151	0.081797	0.383974
H381	H	1.194287	-0.456216	-0.235802
H382	H	1.694287	0.043784	0.264198
H383	H	1.199429	-0.485219	-0.167239
H384	H	1.699429	0.014781	0.332761
O385	O	1.106841	-0.805300	-0.197577
O386	O	1.606841	-0.305300	0.302423
C387	C	1.145057	-0.769472	-0.159421
C388	C	1.645057	-0.269472	0.340579
H389	H	1.117313	-0.730573	-0.157059
H390	H	1.617313	-0.230573	0.342941
H391	H	1.196447	-0.763613	-0.184251
H392	H	1.696447	-0.263613	0.315749
C393	C	1.188937	-0.838572	-0.090289
C394	C	1.688937	-0.338572	0.409711
C395	C	1.154858	-0.790797	-0.087384
C396	C	1.654858	-0.290797	0.412616
H397	H	1.194986	-0.851726	-0.045854
H398	H	1.694986	-0.351726	0.454146
H399	H	1.163193	-0.862710	-0.115997
H400	H	1.663193	-0.362710	0.384003
H401	H	1.231758	-0.833683	-0.110984
H402	H	1.731758	-0.333683	0.389016
H403	H	1.112035	-0.795688	-0.066697
H404	H	1.612035	-0.295688	0.433303
H405	H	1.180596	-0.766660	-0.061671
H406	H	1.680596	-0.266660	0.438329
H407	H	0.899550	-0.312430	-0.940187
H408	H	1.399550	0.187570	-0.440187
H409	H	0.720372	-0.312622	-0.404485
H410	H	1.220372	0.187378	0.095515
H411	H	1.056769	-0.953228	-0.247697
H412	H	1.556769	-0.453228	0.252303
H413	H	1.056812	-1.052294	-0.247717
H414	H	1.556812	-0.552294	0.252283
O415	O	0.892818	-1.056547	-0.411492
O416	O	1.392818	-0.556547	0.088508
C417	C	0.854564	-1.020748	-0.449639
C418	C	1.354564	-0.520748	0.050361
H419	H	0.882271	-0.981803	-0.451997
H420	H	1.382271	-0.481803	0.048003
H421	H	0.803171	-1.014993	-0.424802
H422	H	1.303171	-0.514993	0.075198
C423	C	0.810742	-1.089858	-0.518776
C424	C	1.310742	-0.589858	-0.018776
C425	C	0.844775	-1.042026	-0.521678
C426	C	1.344775	-0.542026	-0.021678
H427	H	0.804701	-1.102984	-0.563213
H428	H	1.304701	-0.602984	-0.063213
H429	H	0.836512	-1.113978	-0.493075
H430	H	1.336512	-0.613978	0.006925
H431	H	0.767918	-1.085056	-0.498076
H432	H	1.267918	-0.585056	0.001924
H433	H	0.887601	-1.046830	-0.542370
H434	H	1.387601	-0.546830	-0.042370
H435	H	0.819012	-1.017908	-0.547385
H436	H	1.319012	-0.517908	-0.047385
O437	O	0.849411	-0.805377	-0.454729
O438	O	1.349411	-0.305377	0.045271
C439	C	0.811166	-0.769573	-0.492878
C440	C	1.311166	-0.269573	0.007122
H441	H	0.838877	-0.730629	-0.495230
H442	H	1.338877	-0.230629	0.004770
H443	H	0.759770	-0.763817	-0.468048
H444	H	1.259770	-0.263817	0.031952
C445	C	0.767347	-0.838678	-0.562027
C446	C	1.267347	-0.338678	-0.062027
C447	C	0.801385	-0.790848	-0.564920
C448	C	1.301385	-0.290848	-0.064920
H449	H	0.761311	-0.851802	-0.606465
H450	H	1.261311	-0.351802	-0.106465
H451	H	0.793112	-0.862800	-0.536324
H452	H	1.293112	-0.362800	-0.036324
H453	H	0.724521	-0.833875	-0.541332
H454	H	1.224521	-0.333875	-0.041332
H455	H	0.844213	-0.795653	-0.585607
H456	H	1.344213	-0.295653	-0.085607
H457	H	0.775628	-0.766727	-0.590629
H458	H	1.275628	-0.266727	-0.090629
O459	O	0.892587	-0.554211	-0.411427
O460	O	1.392587	-0.054211	0.088573
C461	C	0.854329	-0.518415	-0.449576
C462	C	1.354329	-0.018415	0.050424
H463	H	0.882029	-0.479467	-0.451931
H464	H	1.382029	0.020533	0.048069
H465	H	0.802934	-0.512667	-0.424743
H466	H	1.302934	-0.012667	0.075257
C467	C	0.810527	-0.587530	-0.518719
C468	C	1.310527	-0.087530	-0.018719
C469	C	0.844551	-0.539693	-0.521616
C470	C	1.344551	-0.039693	-0.021616
H471	H	0.804492	-0.600655	-0.563156
H472	H	1.304492	-0.100655	-0.063156
H473	H	0.836300	-0.611646	-0.493016
H474	H	1.336300	-0.111646	0.006984
H475	H	0.767700	-0.582733	-0.498022
H476	H	1.267700	-0.082733	0.001978
H477	H	0.887379	-0.544492	-0.542305
H478	H	1.387379	-0.044492	-0.042305
H479	H	0.818785	-0.515578	-0.547324
H480	H	1.318785	-0.015578	-0.047324
H481	H	0.899603	-0.953283	-0.404628
H482	H	1.399603	-0.453283	0.095372
