data_functionalizedCrystal
_audit_creation_method	'MofGen! by Chris Wilmer'
_symmetry_space_group_name_H-M	'P1'
_symmetry_Int_Tables_number	1
_symmetry_cell_setting	triclinic
loop_
_symmetry_equiv_pos_as_xyz
  x,y,z
_cell_length_a	11.792254
_cell_length_b	11.792254
_cell_length_c	9.798715
_cell_angle_alpha	89.996677
_cell_angle_beta	89.996361
_cell_angle_gamma	84.198598
loop_
_atom_site_label
_atom_site_type_symbol
_atom_site_fract_x
_atom_site_fract_y
_atom_site_fract_z
O1	O	1.506906	0.155633	-0.113491
O2	O	2.006906	0.655633	0.386509
O3	O	1.176568	0.171651	-0.113494
O4	O	1.676568	0.671651	0.386506
O5	O	1.349746	-0.001527	-0.113482
O6	O	1.849746	0.498473	0.386518
O7	O	1.333728	0.328811	-0.113502
O8	O	1.833728	0.828811	0.386498
O9	O	1.349733	-0.001528	0.113500
O10	O	1.849733	0.498472	0.613500
O11	O	1.176555	0.171650	0.113489
O12	O	1.676555	0.671650	0.613489
O13	O	1.506893	0.155632	0.113492
O14	O	2.006893	0.655632	0.613492
Zn15	Zn	1.341722	0.163641	0.149528
Zn16	Zn	1.841722	0.663641	0.649528
Zn17	Zn	1.341739	0.163642	-0.149530
Zn18	Zn	1.841739	0.663642	0.350470
O19	O	1.333715	0.328811	0.113480
O20	O	1.833715	0.828811	0.613480
C21	C	1.134271	0.170642	-0.000003
C22	C	1.634271	0.670642	0.499997
C23	C	1.008257	0.167621	-0.000004
C24	C	1.508257	0.667621	0.499996
C25	C	0.905921	0.165168	-0.000009
C26	C	1.405921	0.665168	0.499991
C27	C	0.777534	0.162099	-0.000010
C28	C	1.277534	0.662099	0.499990
C29	C	1.348730	-0.043818	0.000008
C30	C	1.848730	0.456182	0.500008
C31	C	1.345710	-0.169832	0.000007
C32	C	1.845710	0.330168	0.500007
C33	C	1.343256	-0.272168	0.000002
C34	C	1.843256	0.227832	0.500002
C35	C	1.340188	-0.400555	-0.000010
C36	C	1.840188	0.099445	0.499990
C37	C	1.549190	0.156642	-0.000002
C38	C	2.049190	0.656642	0.499998
C39	C	1.675204	0.159662	-0.000010
C40	C	2.175204	0.659662	0.499990
C41	C	1.334731	0.371102	-0.000013
C42	C	1.834731	0.871102	0.499987
C43	C	1.337751	0.497115	-0.000021
C44	C	1.837751	0.997115	0.499979
N45	N	1.341719	0.163640	0.353628
N46	N	1.841719	0.663640	0.853628
N47	N	1.341751	0.163634	-0.353630
N48	N	1.841751	0.663634	0.146370
C49	C	1.414432	0.090608	0.421410
C50	C	1.914432	0.590608	0.921410
C51	C	1.414450	0.090604	0.578572
C52	C	1.914450	0.590604	1.078572
H53	H	1.476668	0.028080	0.363091
H54	H	1.976668	0.528080	0.863091
H55	H	1.476708	0.028082	0.636862
H56	H	1.976708	0.528082	1.136862
Cl57	Cl	1.245635	0.260183	0.556390
Cl58	Cl	1.745635	0.760183	1.056390
H59	H	1.279475	0.226159	0.411949
H60	H	1.779475	0.726159	0.911949
