data_functionalizedCrystal
_audit_creation_method	'MofGen! by Chris Wilmer'
_symmetry_space_group_name_H-M	'P1'
_symmetry_Int_Tables_number	1
_symmetry_cell_setting	triclinic
loop_
_symmetry_equiv_pos_as_xyz
  x,y,z
_cell_length_a	10.968023
_cell_length_b	10.908878
_cell_length_c	10.065875
_cell_angle_alpha	83.417915
_cell_angle_beta	93.096618
_cell_angle_gamma	107.317001
loop_
_atom_site_label
_atom_site_type_symbol
_atom_site_fract_x
_atom_site_fract_y
_atom_site_fract_z
O1	O	-1.568481	0.221656	-0.255308
O2	O	-1.217730	0.225329	-0.172833
O3	O	-1.439601	0.038784	-0.225008
O4	O	-1.346610	0.408201	-0.203132
O5	O	-1.397210	0.074429	-0.442028
O6	O	-1.175339	0.260974	-0.389853
O7	O	-1.526090	0.257301	-0.472328
Zn8	Zn	-1.343984	0.264797	-0.465547
Zn9	Zn	-1.399836	0.217833	-0.179614
O10	O	-1.304219	0.443846	-0.420152
C11	C	-1.152336	0.240194	-0.270950
C12	C	-1.020641	0.231366	-0.239984
C13	C	-0.803852	0.236756	-0.306588
C14	C	-0.939960	0.245892	-0.338606
C15	C	-1.427096	0.009180	-0.335560
C16	C	-1.452978	-0.132136	-0.341641
C17	C	-1.358544	-0.185659	-0.319434
C18	C	-1.385292	-0.331717	-0.325718
C19	C	-0.591482	0.242440	-0.374215
C20	C	-0.723171	0.251280	-0.405196
C21	C	-1.316724	0.473450	-0.309598
C22	C	-1.290844	0.614764	-0.303508
N23	N	-1.305875	0.296849	-0.660691
C24	C	-1.357260	0.253644	-0.897717
C25	C	-1.386583	0.228966	-0.747445
N26	N	-1.437956	0.185772	0.015527
H27	H	-0.971646	0.265085	-0.446739
C28	C	-1.224232	-0.102800	-0.287917
C29	C	-1.142288	-0.180480	-0.268676
C30	C	-1.018546	-0.104196	-0.239655
H31	H	-1.224780	-0.062991	-0.208913
H32	H	-1.195320	-0.038178	-0.360308
H33	H	-1.171192	-0.245079	-0.196292
H34	H	-1.141701	-0.220289	-0.347665
H35	H	-0.989634	-0.039574	-0.312046
H36	H	-1.019107	-0.064390	-0.160653
H37	H	-0.962929	-0.156888	-0.226609
H38	H	-1.485949	-0.394019	-0.349391
C39	C	-0.978148	0.205841	-0.095878
C40	C	-0.851584	0.201898	-0.092761
C41	C	-0.812391	0.178406	0.039964
H42	H	-1.031649	0.125513	-0.057487
H43	H	-0.983894	0.272929	-0.046351
H44	H	-0.845849	0.134814	-0.142268
H45	H	-0.798054	0.282214	-0.131124
H46	H	-0.818136	0.245494	0.089491
H47	H	-0.865900	0.098079	0.078343
H48	H	-0.726510	0.175739	0.042097
C49	C	-0.765631	0.276932	-0.549285
C50	C	-0.892176	0.280935	-0.552392
C51	C	-0.931323	0.304580	-0.685104
H52	H	-0.759925	0.209916	-0.598915
H53	H	-0.712059	0.357293	-0.587566
H54	H	-0.945733	0.200585	-0.514129
H55	H	-0.897915	0.347951	-0.502790
H56	H	-0.877751	0.384940	-0.723385
H57	H	-0.925610	0.237560	-0.734723
H58	H	-1.017183	0.307311	-0.687229
H59	H	-0.772165	0.217550	-0.198463
C60	C	-1.587118	-0.215432	-0.373109
C61	C	-1.586989	-0.343748	-0.373040
C62	C	-1.710541	-0.420516	-0.402004
H63	H	-1.614336	-0.185574	-0.458641
H64	H	-1.643800	-0.210340	-0.307248
H65	H	-1.530326	-0.348834	-0.438897
H66	H	-1.559795	-0.373644	-0.287519
H67	H	-1.767223	-0.415424	-0.336143
H68	H	-1.737748	-0.390646	-0.487536
H69	H	-1.710472	-0.507587	-0.401949
H70	H	-1.266462	0.330018	-0.934689
C71	C	-1.507546	0.126872	-0.698277
C72	C	-1.506631	0.006415	-0.732783
C73	C	-1.618029	-0.087684	-0.687524
H74	H	-1.580037	0.147934	-0.738613
H75	H	-1.511228	0.123675	-0.603817
H76	H	-1.502961	0.009614	-0.827224
H77	H	-1.434165	-0.014688	-0.692449
H78	H	-1.621711	-0.090882	-0.593065
H79	H	-1.690511	-0.066610	-0.727864
H80	H	-1.617418	-0.169427	-0.710919
H81	H	-1.190183	-0.322932	-0.279852
H82	H	-1.215071	0.373227	-0.697658
C83	C	-1.558914	0.083682	-0.935297
C84	C	-1.557999	-0.036775	-0.969804
C85	C	-1.669397	-0.130874	-0.924545
H86	H	-1.631405	0.104744	-0.975634
H87	H	-1.562596	0.080485	-0.840838
H88	H	-1.554329	-0.033575	-1.064245
H89	H	-1.485533	-0.057877	-0.929469
H90	H	-1.673079	-0.134071	-0.830085
H91	H	-1.741879	-0.109800	-0.964885
H92	H	-1.668785	-0.212617	-0.947940
