data_functionalizedCrystal
_audit_creation_method	'MofGen! by Chris Wilmer'
_symmetry_space_group_name_H-M	'P1'
_symmetry_Int_Tables_number	1
_symmetry_cell_setting	triclinic
loop_
_symmetry_equiv_pos_as_xyz
  x,y,z
_cell_length_a	14.971506
_cell_length_b	14.185328
_cell_length_c	14.971486
_cell_angle_alpha	104.763431
_cell_angle_beta	83.618258
_cell_angle_gamma	104.763280
loop_
_atom_site_label
_atom_site_type_symbol
_atom_site_fract_x
_atom_site_fract_y
_atom_site_fract_z
O1	O	1.205057	0.083430	0.134772
O2	O	1.705057	0.583430	0.634772
O3	O	0.944659	0.083430	0.148712
O4	O	1.444659	0.583430	0.648712
O5	O	1.081836	0.083423	0.011541
O6	O	1.581836	0.583423	0.511541
O7	O	1.067880	0.083437	0.271943
O8	O	1.567880	0.583437	0.771943
O9	O	1.045581	-0.083422	-0.024706
O10	O	1.545581	0.416578	0.475294
O11	O	0.908404	-0.083414	0.112465
O12	O	1.408404	0.416586	0.612465
O13	O	1.168802	-0.083415	0.098525
O14	O	1.668802	0.416585	0.598525
Cu15	Cu	1.035293	-0.098649	0.102185
Cu16	Cu	1.535293	0.401351	0.602185
Cu17	Cu	1.078168	0.098664	0.145051
Cu18	Cu	1.578168	0.598664	0.645051
O19	O	1.031625	-0.083407	0.235696
O20	O	1.531625	0.416593	0.735696
C21	C	0.893207	0.000008	0.129962
C22	C	1.393207	0.500008	0.629962
C23	C	0.793911	0.000008	0.128084
C24	C	1.293911	0.500008	0.628084
N25	N	1.005143	-0.237428	0.072035
N26	N	1.505143	0.262572	0.572035
C27	C	0.355632	0.000022	0.201505
C28	C	0.855632	0.500022	0.701505
C29	C	0.448933	0.000027	0.203263
C30	C	0.948933	0.500027	0.703263
C31	C	0.506151	0.000018	0.122669
C32	C	1.006151	0.500018	0.622669
C33	C	0.470066	0.000015	0.040313
C34	C	0.970066	0.500015	0.540313
C35	C	0.376768	0.000018	0.038557
C36	C	0.876768	0.500018	0.538557
C37	C	0.664527	0.000007	0.043978
C38	C	1.164527	0.500007	0.543978
C39	C	0.757831	0.000002	0.045734
C40	C	1.257831	0.500002	0.545734
C41	C	0.736692	0.000016	0.208684
C42	C	1.236692	0.500016	0.708684
C43	C	0.643394	0.000019	0.206928
C44	C	1.143394	0.500019	0.706928
C45	C	0.607315	0.000014	0.124572
C46	C	1.107315	0.500014	0.624572
C47	C	1.196832	-0.605025	0.263802
C48	C	1.696832	-0.105025	0.763802
C49	C	1.174015	-0.710053	0.240950
C50	C	1.674015	-0.210053	0.740950
C51	C	1.065422	-0.710044	0.132270
C52	C	1.565422	-0.210044	0.632270
C53	C	1.088227	-0.605014	0.155116
C54	C	1.588227	-0.105014	0.655116
C55	C	1.153933	-0.552513	0.220882
C56	C	1.653933	-0.052513	0.720882
C57	C	1.045328	-0.552502	0.112196
C58	C	1.545328	-0.052502	0.612196
C59	C	1.068135	-0.447481	0.135038
C60	C	1.568135	0.052519	0.635038
C61	C	1.133841	-0.394972	0.200799
C62	C	1.633841	0.105028	0.700799
C63	C	1.176740	-0.447492	0.243724
C64	C	1.676740	0.052508	0.743724
C65	C	0.979627	-0.605005	0.046426
C66	C	1.479627	-0.105005	0.546426
C67	C	0.936728	-0.552493	0.003506
C68	C	1.436728	-0.052493	0.503506
C69	C	0.959529	-0.447470	0.026352
C70	C	1.459529	0.052530	0.526352
C71	C	1.025235	-0.394961	0.092113
C72	C	1.525235	0.105039	0.592113
C73	C	0.916630	-0.394950	-0.016573
C74	C	1.416630	0.105050	0.483427
C75	C	0.939437	-0.289929	0.006269
C76	C	1.439437	0.210071	0.506269
C77	C	1.048042	-0.289940	0.114955
C78	C	1.548042	0.210060	0.614955
C79	C	1.220254	0.000010	0.117275
C80	C	1.720254	0.500010	0.617275
C81	C	1.319552	0.000016	0.119155
C82	C	1.819552	0.500016	0.619155
C83	C	1.063084	0.000001	-0.039908
C84	C	1.563084	0.500001	0.460092
C85	C	1.061214	0.000002	-0.139205
C86	C	1.561214	0.500002	0.360795
N87	N	1.108325	0.237444	0.175195
N88	N	1.608325	0.737444	0.675195
C89	C	1.141802	0.000001	-0.196424
C90	C	1.641802	0.500001	0.303576
C91	C	1.140041	0.000011	-0.289722
C92	C	1.640041	0.500011	0.210278
C93	C	1.057689	0.000015	-0.325799
C94	C	1.557689	0.500015	0.174201
C95	C	0.977095	0.000019	-0.268571
C96	C	1.477095	0.500019	0.231429
C97	C	0.978859	0.000016	-0.175274
C98	C	1.478859	0.500016	0.324726
C99	C	0.973425	0.000022	-0.463033
C100	C	1.473425	0.500022	0.036967
C101	C	0.971661	0.000023	-0.556337
C102	C	1.471661	0.500023	-0.056337
C103	C	1.134607	0.000018	-0.577481
C104	C	1.634607	0.500018	-0.077481
C105	C	1.136371	0.000015	-0.484184
C106	C	1.636371	0.500015	0.015816
C107	C	1.055776	0.000017	-0.426963
C108	C	1.555776	0.500017	0.073037
C109	C	1.050377	0.000017	0.287145
C110	C	1.550377	0.500017	0.787145
C111	C	1.052249	0.000023	0.386443
C112	C	1.552249	0.500023	0.886443
H113	H	0.309049	0.000022	0.267133
H114	H	0.809049	0.500022	0.767133
Cl115	Cl	0.331410	0.000010	-0.064973
Cl116	Cl	0.831410	0.500010	0.435027
H117	H	1.208861	-0.000008	-0.167059
H118	H	1.708861	0.499992	0.332941
Cl119	Cl	0.950963	-0.737033	0.017703
Cl120	Cl	1.450963	-0.237033	0.517703
H121	H	1.205664	0.000008	-0.336307
H122	H	1.705664	0.500008	0.163693
H123	H	0.766072	0.000019	0.275742
H124	H	1.266072	0.500019	0.775742
Cl125	Cl	0.877544	0.000021	-0.103339
Cl126	Cl	1.377544	0.500021	0.396661
H127	H	0.596807	0.000019	0.272554
H128	H	1.096807	0.500019	0.772554
Cl129	Cl	0.494287	0.000040	0.306795
Cl130	Cl	0.994287	0.500040	0.806795
H131	H	0.883232	-0.595253	-0.050044
H132	H	1.383232	-0.095253	0.449956
Cl133	Cl	0.619170	-0.000007	-0.059559
Cl134	Cl	1.119170	0.499993	0.440441
H135	H	1.203427	0.000004	-0.454814
H136	H	1.703427	0.500004	0.045186
H137	H	0.804418	0.000003	-0.019892
H138	H	1.304418	0.500003	0.480108
Cl139	Cl	0.541998	0.000006	-0.061006
Cl140	Cl	1.041998	0.500006	0.438994
H141	H	1.152411	-0.309457	0.219394
H142	H	1.652411	0.190543	0.719394
Cl143	Cl	1.235927	0.000020	-0.649414
Cl144	Cl	1.735927	0.500020	-0.149414
H145	H	1.101537	-0.247191	0.168517
H146	H	1.601537	0.252809	0.668517
Cl147	Cl	1.259354	-0.381482	0.326394
Cl148	Cl	1.759354	0.118518	0.826394
Cl149	Cl	1.279446	-0.539015	0.346472
Cl150	Cl	1.779446	-0.039015	0.846472
Cl151	Cl	0.834038	-0.460964	-0.099254
Cl152	Cl	1.334038	0.039036	0.400746
H153	H	0.904600	0.000010	-0.585712
H154	H	1.404600	0.500010	-0.085712
H155	H	0.904502	-0.247173	-0.028680
H156	H	1.404502	0.252827	0.471320
Cl157	Cl	0.873569	0.000036	-0.313923
Cl158	Cl	1.373569	0.500036	0.186077
Cl159	Cl	1.227958	-0.776065	0.294910
Cl160	Cl	1.727958	-0.276065	0.794910
Cl161	Cl	0.982822	-0.776055	0.049596
Cl162	Cl	1.482822	-0.276055	0.549596
Cl163	Cl	0.872105	0.000025	-0.391100
Cl164	Cl	1.372105	0.500025	0.108900
