data_functionalizedCrystal
_audit_creation_method	'MofGen! by Chris Wilmer'
_symmetry_space_group_name_H-M	'P1'
_symmetry_Int_Tables_number	1
_symmetry_cell_setting	triclinic
loop_
_symmetry_equiv_pos_as_xyz
  x,y,z
_cell_length_a	16.109318
_cell_length_b	16.776229
_cell_length_c	16.109301
_cell_angle_alpha	90.008074
_cell_angle_beta	83.465022
_cell_angle_gamma	90.003560
loop_
_atom_site_label
_atom_site_type_symbol
_atom_site_fract_x
_atom_site_fract_y
_atom_site_fract_z
O1	O	1.103126	0.066224	0.106938
O2	O	0.861066	0.066241	0.120222
O3	O	0.988745	0.066224	-0.007451
O4	O	0.975446	0.066241	0.234610
O5	O	0.988728	-0.066352	-0.007459
O6	O	0.861049	-0.066336	0.120214
O7	O	1.103109	-0.066352	0.106930
Zn8	Zn	0.982076	-0.087393	0.113571
Zn9	Zn	0.982099	0.087282	0.113581
O10	O	0.975429	-0.066335	0.234603
C11	C	0.830083	-0.000045	0.119677
C12	C	0.737788	-0.000039	0.118057
N13	N	0.982067	-0.206604	0.113563
C14	C	0.438724	0.072214	0.112826
C15	C	0.525445	0.072219	0.114343
C16	C	0.525445	-0.072323	0.114323
C17	C	0.438726	-0.072328	0.112800
C18	C	0.395367	-0.000057	0.112056
C19	C	0.568807	-0.000048	0.115096
C20	C	0.662835	-0.000043	0.116742
C21	C	0.301334	-0.000061	0.110409
C22	C	1.038621	-0.248329	0.057053
C23	C	1.038625	-0.331781	0.057052
C24	C	0.982080	-0.373507	0.113566
C25	C	0.925520	-0.331777	0.170079
C26	C	0.925512	-0.248326	0.170075
C27	C	0.925550	-0.668324	0.170096
C28	C	0.925564	-0.751781	0.170097
C29	C	1.038663	-0.751779	0.057072
C30	C	1.038655	-0.668328	0.057069
C31	C	0.982093	-0.626605	0.113578
C32	C	0.982088	-0.536117	0.113577
C33	C	0.982088	-0.463994	0.113572
C34	C	1.134092	-0.000064	0.107474
C35	C	1.226387	-0.000065	0.109095
C36	C	0.988198	-0.000065	-0.038430
C37	C	0.986583	-0.000066	-0.130725
N38	N	0.982114	0.206493	0.113582
C39	C	1.058590	-0.000058	-0.352993
C40	C	1.057066	-0.000051	-0.439713
C41	C	0.905579	-0.000044	-0.419848
C42	C	0.907104	-0.000045	-0.333130
C43	C	0.983612	-0.000056	-0.299704
C44	C	0.980563	-0.000048	-0.473144
C45	C	0.978910	-0.000041	-0.567170
C46	C	0.985265	-0.000062	-0.205672
C47	C	0.975976	-0.000045	0.265581
C48	C	0.977592	-0.000039	0.357877
H49	H	0.403423	0.131061	0.112219
C50	C	0.863438	-0.622440	0.232366
N51	N	0.816690	-0.587877	0.279309
H52	H	1.084703	-0.634358	0.011052
C53	C	0.863305	-0.202430	0.232248
N54	N	0.816449	-0.167862	0.279078
C55	C	0.391031	-0.151835	0.111959
N56	N	0.355106	-0.211717	0.111327
C57	C	0.573133	0.151722	0.115188
N58	N	0.609052	0.211607	0.115823
C59	C	1.142751	-0.000061	-0.316228
N60	N	1.206144	-0.000060	-0.288540
H61	H	0.843288	-0.000037	-0.447074
C62	C	0.824617	-0.000039	-0.274508
N63	N	0.762491	-0.000031	-0.230355
H64	H	0.560759	-0.131164	0.114931
H65	H	1.084675	-0.365753	0.011037
C66	C	1.139549	-0.000060	-0.498328
N67	N	1.201678	-0.000069	-0.542476
C68	C	1.100826	-0.202438	-0.005119
N69	N	1.147679	-0.167875	-0.051951
C70	C	1.100877	-0.797682	-0.005097
N71	N	1.147735	-0.832255	-0.051922
H72	H	0.879514	-0.785753	0.216119
H73	H	0.879475	-0.365755	0.216092
