data_functionalizedCrystal
_audit_creation_method	'MofGen! by Chris Wilmer'
_symmetry_space_group_name_H-M	'P1'
_symmetry_Int_Tables_number	1
_symmetry_cell_setting	triclinic
loop_
_symmetry_equiv_pos_as_xyz
  x,y,z
_cell_length_a	12.594517
_cell_length_b	12.594516
_cell_length_c	12.594509
_cell_angle_alpha	89.972932
_cell_angle_beta	90.025818
_cell_angle_gamma	89.986890
loop_
_atom_site_label
_atom_site_type_symbol
_atom_site_fract_x
_atom_site_fract_y
_atom_site_fract_z
Zn1	Zn	-1.627251	-0.423854	-0.601996
Zn2	Zn	-1.627136	-0.601864	-0.424021
Zn3	Zn	-1.449255	-0.423884	-0.424011
Zn4	Zn	-1.449231	-0.601775	-0.601937
O5	O	-1.538218	-0.512844	-0.512991
O6	O	-1.776182	-0.447492	-0.578416
O7	O	-1.603501	-0.578305	-0.275074
O8	O	-1.472925	-0.274934	-0.447642
O9	O	-1.776097	-0.578275	-0.447659
O10	O	-1.603698	-0.274912	-0.578406
O11	O	-1.472813	-0.447544	-0.275067
O12	O	-1.300306	-0.447457	-0.447584
O13	O	-1.472884	-0.578123	-0.750891
O14	O	-1.300288	-0.578153	-0.578306
O15	O	-1.603675	-0.447405	-0.750934
O16	O	-1.603478	-0.750798	-0.447602
O17	O	-1.472772	-0.750733	-0.578316
C18	C	-1.261677	-0.512799	-0.512938
C19	C	-1.143372	-0.512806	-0.512941
C20	C	-1.074098	-0.441618	-0.441972
C21	C	-1.003283	-0.538700	-0.415788
C22	C	-1.003387	-0.415753	-0.539126
C23	C	-1.074115	-0.609940	-0.486707
C24	C	-1.074226	-0.486927	-0.610090
C25	C	-1.003444	-0.584077	-0.583943
C26	C	-1.538138	-0.789385	-0.512977
C27	C	-1.538201	-0.907691	-0.513006
C28	C	-0.815839	-0.512869	-0.513026
C29	C	-0.934144	-0.512825	-0.512990
C30	C	-1.467168	-1.047710	-0.584066
C31	C	-1.564203	-0.976808	-0.610188
C32	C	-1.441176	-0.977022	-0.486931
C33	C	-1.635461	-1.047573	-0.539218
C34	C	-1.512369	-1.047794	-0.415917
C35	C	-1.609471	-0.976923	-0.442002
C36	C	-1.538290	-0.512751	-0.790612
C37	C	-1.538320	-0.512711	-0.908918
C38	C	-1.538328	-0.235223	-0.513029
C39	C	-1.538374	-0.116918	-0.513046
C40	C	-1.467205	-0.583768	-0.978148
C41	C	-1.564325	-0.609783	-1.048946
C42	C	-1.441276	-0.486632	-1.048919
C43	C	-1.635490	-0.538777	-0.978158
C44	C	-1.512376	-0.415581	-0.978124
C45	C	-1.609563	-0.441559	-1.048891
C46	C	-1.538208	-0.512860	-0.236450
C47	C	-1.538384	-0.512600	-0.118146
H48	H	-0.972616	-0.644356	-0.643981
C49	C	-1.689674	-0.935883	-0.361742
C50	C	-1.663175	-0.973464	-0.260496
C51	C	-1.737044	-0.935691	-0.186542
H52	H	-1.688832	-0.860467	-0.361608
H53	H	-1.758604	-0.960204	-0.380382
H54	H	-1.594263	-0.949137	-0.241861
H55	H	-1.664025	-1.048875	-0.260596
H56	H	-1.805974	-0.960012	-0.205182
H57	H	-1.736197	-0.860276	-0.186418
H58	H	-1.719081	-0.961192	-0.117841
H59	H	-1.105054	-0.692048	-0.464489
C60	C	-0.961751	-0.306366	-0.568568
C61	C	-0.850595	-0.308067	-0.569110
C62	C	-0.812206	-0.207315	-0.596202
H63	H	-0.986968	-0.287384	-0.637088
H64	H	-0.985880	-0.255848	-0.518040
H65	H	-0.826476	-0.358568	-0.619636
H66	H	-0.825349	-0.327030	-0.500599
H67	H	-0.836335	-0.156797	-0.545673
H68	H	-0.837431	-0.188341	-0.664721
H69	H	-0.736784	-0.208452	-0.596563
H70	H	-1.586303	-0.691876	-1.080055
C71	C	-1.482949	-1.089559	-0.306544
C72	C	-1.391541	-1.152369	-0.314255
C73	C	-1.364403	-1.190875	-0.213526
H74	H	-1.469742	-1.031582	-0.260175
H75	H	-1.539755	-1.131071	-0.279362
H76	H	-1.334748	-1.110860	-0.341423
H77	H	-1.404723	-1.210362	-0.360605
H78	H	-1.421208	-1.232387	-0.186343
H79	H	-1.351201	-1.132892	-0.167164
H80	H	-1.302386	-1.233504	-0.218745
H81	H	-1.105411	-0.464993	-0.692201
C82	C	-1.331573	-0.935864	-0.457623
C83	C	-1.257442	-0.971767	-0.532243
C84	C	-1.156460	-0.933900	-0.505273
H85	H	-1.332289	-0.860448	-0.457193
H86	H	-1.312633	-0.961260	-0.389142
H87	H	-1.276377	-0.946365	-0.600706
H88	H	-1.256693	-1.047178	-0.532684
H89	H	-1.137520	-0.959296	-0.436792
H90	H	-1.157188	-0.858485	-0.504842
H91	H	-1.106149	-0.958262	-0.555892
H92	H	-1.407113	-0.643952	-0.947087
C93	C	-1.482817	-0.306190	-0.936657
C94	C	-1.381055	-0.279353	-0.972423
C95	C	-1.353770	-0.178597	-0.934230
H96	H	-1.532548	-0.255385	-0.961906
H97	H	-1.483589	-0.306859	-0.861230
H98	H	-1.380291	-0.278675	-1.047835
H99	H	-1.331301	-0.330130	-0.947177
H100	H	-1.354542	-0.179266	-0.858802
H101	H	-1.403508	-0.127801	-0.959481
H102	H	-1.284719	-0.160379	-0.958483
H103	H	-1.669799	-0.381421	-1.079757
C104	C	-1.744910	-0.568469	-0.936838
C105	C	-1.737321	-0.660594	-0.875031
C106	C	-1.838094	-0.687990	-0.836960
H107	H	-1.772069	-0.512117	-0.894737
H108	H	-1.791256	-0.580933	-0.995049
H109	H	-1.690992	-0.648125	-0.816828
H110	H	-1.710180	-0.716966	-0.917110
H111	H	-1.884440	-0.700453	-0.895171
H112	H	-1.865246	-0.631631	-0.794863
H113	H	-1.832961	-0.750504	-0.795028
C114	C	-1.115413	-0.361572	-0.361695
C115	C	-1.079481	-0.389179	-0.260148
C116	C	-1.117531	-0.315479	-0.186169
H117	H	-1.090179	-0.292755	-0.379462
H118	H	-1.190842	-0.361683	-0.362615
H119	H	-1.004068	-0.389057	-0.259231
H120	H	-1.104714	-0.457984	-0.242348
H121	H	-1.192960	-0.315590	-0.187089
H122	H	-1.092294	-0.246666	-0.203946
H123	H	-1.093165	-0.334206	-0.117260
C124	C	-0.961468	-0.567853	-0.306357
C125	C	-0.850315	-0.568380	-0.308159
C126	C	-0.811740	-0.595196	-0.207370
H127	H	-0.985538	-0.517216	-0.255939
H128	H	-0.986619	-0.636340	-0.287190
H129	H	-0.825174	-0.499903	-0.327312
H130	H	-0.826217	-0.619018	-0.358555
H131	H	-0.836891	-0.663682	-0.188204
H132	H	-0.835817	-0.544556	-0.156961
H133	H	-0.736320	-0.595566	-0.208582
C134	C	-1.593409	-0.935435	-0.719773
C135	C	-1.610744	-1.021249	-0.788248
C136	C	-1.637629	-0.983183	-0.889211
H137	H	-1.656199	-0.893899	-0.715158
H138	H	-1.537081	-0.892947	-0.746436
H139	H	-1.667068	-1.063719	-0.761591
H140	H	-1.547968	-1.062793	-0.792895
H141	H	-1.581300	-0.940695	-0.915874
H142	H	-1.700417	-0.941647	-0.884585
H143	H	-1.649384	-1.041401	-0.935686
C144	C	-1.331720	-0.457421	-1.090220
C145	C	-1.257564	-0.532124	-1.054352
C146	C	-1.156627	-0.505252	-1.092363
H147	H	-1.332545	-0.456976	-1.165635
H148	H	-1.312718	-0.388964	-1.064899
H149	H	-1.276560	-0.600563	-1.079678
H150	H	-1.256705	-0.532581	-0.978941
H151	H	-1.137626	-0.436796	-1.067042
H152	H	-1.157464	-0.504807	-1.167777
H153	H	-1.106299	-0.555928	-1.068024
H154	H	-1.717612	-1.078437	-0.561384
H155	H	-1.407100	-1.078789	-0.644187
