data_functionalizedCrystal
_audit_creation_method	'MofGen! by Chris Wilmer'
_symmetry_space_group_name_H-M	'P1'
_symmetry_Int_Tables_number	1
_symmetry_cell_setting	triclinic
loop_
_symmetry_equiv_pos_as_xyz
  x,y,z
_cell_length_a	12.759395
_cell_length_b	15.299816
_cell_length_c	12.759387
_cell_angle_alpha	99.650540
_cell_angle_beta	89.979491
_cell_angle_gamma	80.351966
loop_
_atom_site_label
_atom_site_type_symbol
_atom_site_fract_x
_atom_site_fract_y
_atom_site_fract_z
Zn1	Zn	1.678553	-0.358969	-0.666414
Zn2	Zn	1.708818	-0.509810	-0.521161
Zn3	Zn	1.502861	-0.359018	-0.490761
Zn4	Zn	1.533205	-0.509746	-0.696788
O5	O	1.605859	-0.434386	-0.593781
O6	O	1.829590	-0.378985	-0.647157
O7	O	1.681464	-0.489855	-0.370117
O8	O	1.500802	-0.232804	-0.488628
O9	O	1.851826	-0.489807	-0.540441
O10	O	1.629882	-0.232768	-0.617679
O11	O	1.530149	-0.379069	-0.347782
O12	O	1.359864	-0.379006	-0.518080
O13	O	1.552519	-0.489698	-0.839770
O14	O	1.382157	-0.489746	-0.669446
O15	O	1.659305	-0.378923	-0.817455
O16	O	1.710887	-0.636010	-0.569893
O17	O	1.581865	-0.635962	-0.698924
C18	C	1.332889	-0.434375	-0.593761
C19	C	1.216116	-0.434392	-0.593781
C20	C	1.239407	-0.549891	-0.751220
C21	C	1.196192	-0.607648	-0.829944
C22	C	1.086473	-0.607659	-0.829959
C23	C	1.019964	-0.549905	-0.751243
C24	C	1.063178	-0.492148	-0.672520
C25	C	1.172901	-0.492146	-0.672511
C26	C	1.039887	-0.376646	-0.515087
C27	C	1.149607	-0.376638	-0.515066
C28	C	0.973377	-0.318892	-0.436372
C29	C	1.016592	-0.261139	-0.357642
C30	C	1.126319	-0.261131	-0.357630
C31	C	1.192821	-0.318881	-0.436342
C32	C	1.652982	-0.668710	-0.641026
C33	C	1.673237	-0.768955	-0.661273
C34	C	1.461780	-1.051903	-0.449431
C35	C	1.442744	-0.957718	-0.430410
C36	C	1.500366	-0.910522	-0.488124
C37	C	1.577027	-0.957521	-0.564862
C38	C	1.596059	-1.051716	-0.583890
C39	C	1.634645	-0.910335	-0.622583
C40	C	1.711306	-0.957334	-0.699321
C41	C	1.730335	-1.051520	-0.718345
C42	C	1.672713	-1.098715	-0.660632
C43	C	1.615612	-0.816141	-0.603555
C44	C	1.749891	-0.815954	-0.738015
C45	C	1.768927	-0.910139	-0.757035
C46	C	1.879895	-0.434398	-0.593802
C47	C	1.996673	-0.434403	-0.593811
C48	C	1.605921	-0.434298	-0.867797
C49	C	1.605947	-0.434260	-0.984566
C50	C	1.558581	-0.199147	-0.546374
C51	C	1.538434	-0.098902	-0.526172
C52	C	1.717154	-0.318917	-0.961350
C53	C	1.772770	-0.261232	-1.004601
C54	C	1.772789	-0.261199	-1.114316
C55	C	1.717184	-0.318856	-1.180784
C56	C	1.661568	-0.376541	-1.137534
C57	C	1.661558	-0.376569	-1.027815
C58	C	1.550356	-0.491877	-1.160748
C59	C	1.550342	-0.491916	-1.051034
C60	C	1.494750	-0.549534	-1.227216
C61	C	1.439140	-0.607224	-1.183967
C62	C	1.439124	-0.607256	-1.074245
C63	C	1.494726	-0.549601	-1.007784
C64	C	1.605845	-0.434409	-0.320818
C65	C	1.605971	-0.434193	-0.203998
H66	H	0.930624	-0.549911	-0.751270
N67	N	1.494777	-0.549488	-1.345549
H68	H	1.526519	-0.611351	-1.384450
H69	H	1.419356	-0.532850	-1.368536
H70	H	1.818041	-0.214288	-0.950470
N71	N	1.832780	-0.198989	-1.160970
H72	H	1.824352	-0.207721	-1.240559
H73	H	1.803488	-0.134578	-1.128817
N74	N	0.855039	-0.318908	-0.436377
H75	H	0.825313	-0.302418	-0.505158
H76	H	0.841142	-0.380774	-0.429365
N77	N	1.479856	-0.808938	-0.467604
H78	H	1.455924	-0.786209	-0.535068
H79	H	1.422577	-0.786394	-0.410199
N80	N	1.267931	-0.669941	-0.914833
H81	H	1.261781	-0.734362	-0.911372
H82	H	1.246034	-0.655944	-0.987081
N83	N	1.039854	-0.669947	-0.914868
H84	H	1.098631	-0.706531	-0.964733
H85	H	1.002697	-0.711639	-0.880424
N86	N	1.494682	-0.549611	-0.889444
H87	H	1.451004	-0.594894	-0.872125
H88	H	1.570104	-0.566172	-0.866422
N89	N	1.851594	-0.960846	-0.839809
H90	H	1.831917	-0.944419	-0.911544
H91	H	1.923321	-0.944398	-0.820153
N92	N	1.532941	-0.765463	-0.520783
H93	H	1.567766	-0.726387	-0.464237
H94	H	1.476357	-0.726443	-0.555623
H95	H	0.962432	-0.214116	-0.293563
H96	H	1.717194	-0.318816	-1.270117
N97	N	1.379146	-0.669386	-1.255649
H98	H	1.387585	-0.660603	-1.331713
H99	H	1.408422	-0.733812	-1.249470
N100	N	1.379120	-0.669461	-1.027596
H101	H	1.343896	-0.705973	-1.086353
H102	H	1.430253	-0.711224	-0.990489
H103	H	1.328748	-0.549895	-0.751209
H104	H	1.717156	-0.318947	-0.872015
H105	H	1.792753	-1.089784	-0.780835
H106	H	1.161495	-0.214092	-0.293529
N107	N	1.311163	-0.318882	-0.436331
H108	H	1.334305	-0.302384	-0.505109
H109	H	1.328370	-0.273540	-0.374473
H110	H	1.380326	-0.919454	-0.367932
H111	H	1.414868	-1.090338	-0.402454
H112	H	1.688212	-1.175408	-0.676110
H113	H	1.796810	-0.777528	-0.785012
