data_functionalizedCrystal
_audit_creation_method	'MofGen! by Chris Wilmer'
_symmetry_space_group_name_H-M	'P1'
_symmetry_Int_Tables_number	1
_symmetry_cell_setting	triclinic
loop_
_symmetry_equiv_pos_as_xyz
  x,y,z
_cell_length_a	14.044220
_cell_length_b	27.732048
_cell_length_c	13.101039
_cell_angle_alpha	93.329410
_cell_angle_beta	86.340132
_cell_angle_gamma	87.915767
loop_
_atom_site_label
_atom_site_type_symbol
_atom_site_fract_x
_atom_site_fract_y
_atom_site_fract_z
O1	O	1.261246	0.114020	-0.085126
O2	O	0.985339	0.109817	-0.085151
O3	O	1.131860	0.041925	-0.085119
O4	O	1.114725	0.181913	-0.085159
O5	O	1.121348	0.046805	0.085309
O6	O	0.974827	0.114697	0.085276
O7	O	1.250733	0.118900	0.085301
Zn8	Zn	1.111111	0.117574	0.112348
Zn9	Zn	1.124962	0.111144	-0.112198
O10	O	1.104212	0.186793	0.085268
C11	C	0.944796	0.110418	0.000059
C12	C	0.839651	0.104930	0.000051
C13	C	0.647135	0.094899	0.000074
C14	C	0.588932	0.133816	0.000067
C15	C	0.481810	0.128235	0.000080
C16	C	0.754268	0.100480	0.000061
C17	C	1.126244	0.026341	0.000098
C18	C	1.125160	-0.027364	0.000106
C19	C	1.204929	-0.362438	0.000061
C20	C	1.200910	-0.564286	0.000046
O21	O	1.273853	-0.592120	0.000008
N22	N	1.114029	-0.587487	0.000039
C23	C	1.028146	-0.560223	0.000029
O24	O	0.954156	-0.584589	0.000012
C25	C	1.032166	-0.358376	0.000037
C26	C	1.119052	-0.335177	0.000054
C27	C	1.291808	-0.339239	0.000077
C28	C	1.292812	-0.288779	0.000086
C29	C	1.206935	-0.261519	0.000079
C30	C	1.120056	-0.284718	0.000063
C31	C	0.946285	-0.331113	0.000019
C32	C	0.947297	-0.280648	0.000018
C33	C	1.034184	-0.257449	0.000036
C34	C	1.035183	-0.206998	0.000066
N35	N	1.122064	-0.183797	0.000072
C36	C	1.207941	-0.211057	0.000079
C37	C	1.026042	-0.666196	0.000027
C38	C	1.025036	-0.716658	0.000027
C39	C	1.197801	-0.720717	0.000043
C40	C	1.198805	-0.670255	0.000050
C41	C	1.112923	-0.642995	0.000034
C42	C	1.210041	-0.105089	0.000100
C43	C	1.211037	-0.054625	0.000113
C44	C	1.038273	-0.050570	0.000093
C45	C	1.037276	-0.101030	0.000085
C46	C	1.123168	-0.128288	0.000085
O47	O	0.962280	-0.179134	0.000092
O48	O	1.281921	-0.186683	0.000073
C49	C	1.203925	-0.412897	0.000052
C50	C	1.117046	-0.436096	0.000035
C51	C	1.031169	-0.408835	0.000029
C52	C	1.116040	-0.486557	0.000035
C53	C	1.201917	-0.513818	0.000042
C54	C	1.288798	-0.490617	0.000049
C55	C	1.289802	-0.440157	0.000059
C56	C	0.944288	-0.432037	0.000022
C57	C	0.943292	-0.482496	0.000013
C58	C	1.029168	-0.509756	0.000020
C59	C	1.291277	0.118300	0.000088
C60	C	1.396422	0.123787	0.000090
C61	C	1.109828	0.202376	0.000050
C62	C	1.110913	0.256082	0.000034
N63	N	1.101664	0.121962	0.265594
N64	N	1.134415	0.106752	-0.265444
C65	C	1.088813	0.127936	0.474634
C66	C	1.147264	0.100779	0.525523
C67	C	1.140113	0.104104	0.641839
C68	C	1.095962	0.124612	0.358306
H69	H	0.616514	0.057393	0.000090
H70	H	0.619555	0.171325	0.000051
O71	O	1.295529	-0.032168	0.000080
C72	C	1.371106	-0.067053	0.000106
H73	H	1.347051	-0.103349	-0.032167
H74	H	1.434863	-0.055308	-0.049367
H75	H	1.392517	-0.070712	0.081870
O76	O	1.293405	-0.131611	0.000241
C77	C	1.292564	-0.158392	0.088517
H78	H	1.215600	-0.163355	0.117931
H79	H	1.329655	-0.195300	0.068668
H80	H	1.331755	-0.138178	0.150334
H81	H	1.363564	-0.269896	0.000096
O82	O	1.213421	0.070088	0.473297
C83	C	1.305612	0.082617	0.499249
H84	H	1.300722	0.103389	0.577209
H85	H	1.352430	0.048368	0.502647
H86	H	1.338234	0.106223	0.438880
O87	O	1.375320	-0.365641	0.000133
C88	C	1.452206	-0.334335	0.000120
H89	H	1.425590	-0.296848	0.032376
H90	H	1.509280	-0.348913	0.049613
H91	H	1.483922	-0.331928	-0.081638
O92	O	0.954819	-0.024101	0.000261
C93	C	0.896553	-0.032680	0.088500
H94	H	0.943001	-0.045979	0.150207
H95	H	0.856207	0.002275	0.118115
H96	H	0.843338	-0.061272	0.068529
H97	H	1.358722	-0.512821	0.000060
H98	H	1.269556	-0.651370	0.000063
H99	H	1.267725	-0.742921	0.000049
O100	O	0.940553	-0.739114	-0.000023
C101	C	0.864978	-0.704226	-0.000006
H102	H	0.893017	-0.669774	-0.032266
H103	H	0.807323	-0.718795	-0.049495
H104	H	0.833480	-0.695898	0.081753
O105	O	1.022756	0.158716	0.526749
C106	C	1.039214	0.206454	0.500632
H107	H	1.080446	0.205756	0.422699
H108	H	0.967945	0.227117	0.497096
H109	H	1.082559	0.225093	0.560982
H110	H	0.875533	-0.349993	-0.000001
O111	O	0.942664	-0.639663	0.000155
C112	C	0.932614	-0.607840	0.088434
H113	H	1.005947	-0.601197	0.117865
H114	H	0.897975	-0.572065	0.068580
H115	H	0.885794	-0.624522	0.150238
O116	O	0.863779	-0.254241	0.000049
C117	C	0.786887	-0.285543	0.000005
H118	H	0.809507	-0.321187	0.032271
H119	H	0.723705	-0.268132	0.049475
H120	H	0.765271	-0.292620	-0.081763
O121	O	0.952946	-0.123627	-0.000060
C122	C	0.952634	-0.155201	-0.088349
H123	H	1.029298	-0.165362	-0.117771
H124	H	0.914145	-0.189261	-0.068515
H125	H	0.914205	-0.136513	-0.150154
O126	O	1.374240	-0.417653	-0.000114
C127	C	1.431992	-0.433755	-0.088364
H128	H	1.384972	-0.448195	-0.150061
H129	H	1.473674	-0.402341	-0.117987
H130	H	1.484028	-0.463747	-0.068406
O131	O	0.858802	-0.504953	-0.000047
C132	C	0.783226	-0.470064	-0.000028
H133	H	0.811268	-0.435610	-0.032277
H134	H	0.725576	-0.484631	-0.049526
H135	H	0.751722	-0.461741	0.081730
H136	H	0.874355	-0.409846	0.000014
