data_functionalizedCrystal
_audit_creation_method	'MofGen! by Chris Wilmer'
_symmetry_space_group_name_H-M	'P1'
_symmetry_Int_Tables_number	1
_symmetry_cell_setting	triclinic
loop_
_symmetry_equiv_pos_as_xyz
  x,y,z
_cell_length_a	14.519709
_cell_length_b	12.996460
_cell_length_c	11.026607
_cell_angle_alpha	90.002303
_cell_angle_beta	83.866919
_cell_angle_gamma	90.000602
loop_
_atom_site_label
_atom_site_type_symbol
_atom_site_fract_x
_atom_site_fract_y
_atom_site_fract_z
O1	O	1.250088	0.085427	-0.159123
O2	O	1.583421	0.418760	0.174210
O3	O	1.916755	0.752094	0.507543
O4	O	0.984699	0.085458	-0.177863
O5	O	1.318032	0.418791	0.155470
O6	O	1.651365	0.752125	0.488804
O7	O	1.095398	0.085441	0.008208
O8	O	1.428731	0.418775	0.341541
O9	O	1.762065	0.752108	0.674874
O10	O	1.139388	0.085444	-0.345194
O11	O	1.472722	0.418777	-0.011861
O12	O	1.806055	0.752110	0.321473
O13	O	1.095382	-0.085693	0.008197
O14	O	1.428715	0.247641	0.341530
O15	O	1.762048	0.580974	0.674863
O16	O	0.984682	-0.085676	-0.177874
O17	O	1.318015	0.247657	0.155459
O18	O	1.651349	0.580991	0.488793
O19	O	1.250071	-0.085707	-0.159134
O20	O	1.583405	0.247627	0.174199
O21	O	1.916738	0.580960	0.507533
Cu22	Cu	1.117375	-0.101317	-0.168505
Cu23	Cu	1.450709	0.232016	0.164828
Cu24	Cu	1.784042	0.565349	0.498162
Cu25	Cu	1.117395	0.101068	-0.168492
Cu26	Cu	1.450728	0.434402	0.164841
Cu27	Cu	1.784061	0.767735	0.498174
O28	O	1.139372	-0.085690	-0.345205
O29	O	1.472705	0.247643	-0.011871
O30	O	1.806039	0.580977	0.321462
C31	C	0.950187	-0.000105	-0.176995
C32	C	1.283520	0.333228	0.156338
C33	C	1.616853	0.666562	0.489672
C34	C	0.847374	-0.000093	-0.174378
C35	C	1.180708	0.333240	0.158955
C36	C	1.514041	0.666574	0.492289
N37	N	1.117368	-0.243664	-0.168513
N38	N	1.450702	0.089669	0.164820
N39	N	1.784035	0.423002	0.498153
C40	C	0.470891	-0.000140	-0.164743
C41	C	0.804224	0.333193	0.168590
C42	C	1.137558	0.666527	0.501923
C43	C	0.575640	-0.000127	-0.167419
C44	C	0.908973	0.333207	0.165915
C45	C	1.242306	0.666540	0.499248
C46	C	0.659129	-0.000116	-0.169560
C47	C	0.992463	0.333218	0.163773
C48	C	1.325796	0.666551	0.497106
C49	C	0.763885	-0.000104	-0.172237
C50	C	1.097218	0.333229	0.161097
C51	C	1.430551	0.666563	0.494430
C52	C	1.117373	-0.336770	-0.168516
C53	C	1.450706	-0.003437	0.164817
C54	C	1.784040	0.329896	0.498150
C55	C	1.117380	-0.453575	-0.168508
C56	C	1.450713	-0.120242	0.164825
C57	C	1.784047	0.213091	0.498159
C58	C	1.117389	-0.546674	-0.168495
C59	C	1.450723	-0.213340	0.164839
C60	C	1.784056	0.119993	0.498172
C61	C	1.117398	-0.663486	-0.168488
C62	C	1.450731	-0.330153	0.164846
C63	C	1.784065	0.003180	0.498179
C64	C	1.284583	-0.000142	-0.160002
C65	C	1.617917	0.333192	0.173331
C66	C	1.951250	0.666525	0.506665
C67	C	1.387396	-0.000147	-0.162619
C68	C	1.720729	0.333187	0.170714
C69	C	2.054062	0.666520	0.504048
C70	C	1.087274	-0.000123	0.053431
C71	C	1.420608	0.333210	0.386764
C72	C	1.753941	0.666543	0.720097
C73	C	1.063082	-0.000117	0.188197
C74	C	1.396415	0.333216	0.521531
C75	C	1.729749	0.666550	0.854864
N76	N	1.117408	0.243415	-0.168474
N77	N	1.450741	0.576749	0.164859
N78	N	1.784074	0.910082	0.498192
C79	C	1.147496	-0.000123	-0.390428
C80	C	1.480829	0.333210	-0.057095
C81	C	1.814162	0.666544	0.276239
C82	C	1.171688	-0.000123	-0.525194
C83	C	1.505021	0.333210	-0.191861
C84	C	1.838355	0.666544	0.141472
C85	C	1.129881	-0.000123	0.261858
C86	C	1.463215	0.333210	0.595191
C87	C	1.796548	0.666543	0.928525
C88	C	1.104879	-0.000117	0.401146
C89	C	1.438212	0.333217	0.734480
C90	C	1.771546	0.666550	1.067813
H91	H	1.029175	-0.000101	0.441197
H92	H	1.362508	0.333232	0.774530
H93	H	1.695841	0.666566	1.107863
H94	H	1.205581	-0.000138	0.221802
H95	H	1.538914	0.333195	0.555136
H96	H	1.872247	0.666528	0.888469
C97	C	1.317865	-0.088113	0.459936
C98	C	1.651199	0.245220	0.793269
C99	C	1.984532	0.578553	1.126602
C100	C	1.273889	-0.000137	0.420756
C101	C	1.607223	0.333197	0.754089
C102	C	1.940556	0.666530	1.087423
H103	H	1.380960	-0.088116	0.426572
H104	H	1.714293	0.245217	0.759905
H105	H	2.047626	0.578550	1.093238
H106	H	1.288010	-0.147776	0.433359
H107	H	1.621344	0.185557	0.766693
H108	H	1.954677	0.518890	1.100026
H109	H	1.314462	-0.088101	0.546449
H110	H	1.647795	0.245233	0.879783
H111	H	1.981128	0.578566	1.213116
H112	H	1.277287	-0.000153	0.334242
H113	H	1.610621	0.333180	0.667575
H114	H	1.943954	0.666514	1.000909
H115	H	1.303753	0.059542	0.447325
H116	H	1.637086	0.392875	0.780659
H117	H	1.970420	0.726208	1.113992
C118	C	0.916913	0.087880	0.203083
C119	C	1.250246	0.421213	0.536417
C120	C	1.583580	0.754547	0.869750
C121	C	0.960887	-0.000099	0.242259
C122	C	1.294220	0.333234	0.575592
C123	C	1.627554	0.666568	0.908926
H124	H	0.853822	0.087893	0.236464
H125	H	1.187156	0.421226	0.569797
H126	H	1.520489	0.754559	0.903130
H127	H	0.920307	0.087867	0.116582
H128	H	1.253640	0.421200	0.449915
H129	H	1.586973	0.754534	0.783248
H130	H	0.946780	0.147548	0.229656
H131	H	1.280113	0.480881	0.562989
H132	H	1.613447	0.814214	0.896323
H133	H	0.931024	-0.059767	0.215678
H134	H	1.264357	0.273566	0.549012
H135	H	1.597690	0.606899	0.882345
H136	H	0.957487	-0.000096	0.328779
H137	H	1.290821	0.333238	0.662112
H138	H	1.624154	0.666571	0.995446
