data_functionalizedCrystal
_audit_creation_method	'MofGen! by Chris Wilmer'
_symmetry_space_group_name_H-M	'P1'
_symmetry_Int_Tables_number	1
_symmetry_cell_setting	triclinic
loop_
_symmetry_equiv_pos_as_xyz
  x,y,z
_cell_length_a	12.759399
_cell_length_b	12.759401
_cell_length_c	12.759393
_cell_angle_alpha	89.981870
_cell_angle_beta	90.030330
_cell_angle_gamma	89.986167
loop_
_atom_site_label
_atom_site_type_symbol
_atom_site_fract_x
_atom_site_fract_y
_atom_site_fract_z
Zn1	Zn	-0.418266	-1.606233	0.594013
Zn2	Zn	-0.593982	-1.606129	0.418334
Zn3	Zn	-0.418312	-1.430540	0.418349
Zn4	Zn	-0.593898	-1.430521	0.593972
O5	O	-0.506115	-1.518356	0.506167
O6	O	-0.441591	-1.753241	0.570719
O7	O	-0.570734	-1.582801	0.271315
O8	O	-0.271285	-1.453897	0.441675
O9	O	-0.570689	-1.753164	0.441649
O10	O	-0.271251	-1.582979	0.570734
O11	O	-0.441670	-1.453796	0.271326
O12	O	-0.441588	-1.283516	0.441635
O13	O	-0.570546	-1.453865	0.740999
O14	O	-0.570590	-1.283502	0.570665
O15	O	-0.441510	-1.582961	0.741029
O16	O	-0.740992	-1.582783	0.441609
O17	O	-0.740930	-1.453764	0.570650
C18	C	-0.506086	-1.245388	0.506148
C19	C	-0.506099	-1.128612	0.506164
C20	C	-0.573376	-1.073770	0.573238
C21	C	-0.573385	-0.964046	0.573247
C22	C	-0.438838	-0.964015	0.439101
C23	C	-0.438824	-1.073737	0.439097
C24	C	-0.651059	-1.073787	0.650683
C25	C	-0.651069	-0.964063	0.650693
C26	C	-0.779082	-1.518289	0.506146
C27	C	-0.895859	-1.518356	0.506172
C28	C	-1.060558	-1.451311	0.438965
C29	C	-0.950834	-1.451239	0.438938
C30	C	-0.950613	-1.585541	0.573445
C31	C	-1.060335	-1.585606	0.573475
C32	C	-1.060685	-1.373776	0.361305
C33	C	-0.950961	-1.373704	0.361279
C34	C	-0.232081	-1.518452	0.506211
C35	C	-0.115305	-1.518493	0.506229
C36	C	-0.506013	-1.518423	0.780200
C37	C	-0.505970	-1.518451	0.896977
C38	C	-0.506136	-0.792389	0.506182
C39	C	-0.506122	-0.909166	0.506177
C40	C	-0.506140	-1.518350	0.233200
C41	C	-0.505887	-1.518525	0.116423
C42	C	-0.573102	-1.585674	1.061554
C43	C	-0.573146	-1.585634	0.951830
C44	C	-0.438753	-1.451295	0.951854
C45	C	-0.438714	-1.451329	1.061576
C46	C	-0.650689	-1.663237	1.061539
C47	C	-0.650734	-1.663198	0.951815
H48	H	-0.629362	-1.103594	0.732090
N49	N	-1.100211	-1.266009	0.390093
H50	H	-1.144264	-1.237295	0.330889
H51	H	-1.038655	-1.217945	0.402941
N52	N	-0.905933	-1.271265	0.399768
H53	H	-0.861441	-1.238916	0.342868
H54	H	-0.861360	-1.284511	0.463854
N55	N	-0.758808	-0.924574	0.621622
H56	H	-0.787666	-0.880610	0.680761
H57	H	-0.806807	-0.986147	0.608620
H58	H	-0.628953	-1.744564	0.922040
H59	H	-0.921229	-1.395531	0.279921
H60	H	-0.383993	-1.396639	1.106247
N61	N	-0.366300	-1.378837	0.892686
H62	H	-0.291229	-1.395188	0.911792
H63	H	-0.382689	-1.303798	0.911799
N64	N	-0.612593	-0.918972	0.753125
H65	H	-0.548519	-0.874415	0.739967
H66	H	-0.594042	-0.977935	0.802601
H67	H	-0.728051	-1.634040	0.917772
N68	N	-0.612093	-1.765649	1.106637
H69	H	-0.548006	-1.752457	1.151212
H70	H	-0.593531	-1.815051	1.047665
N71	N	-0.366234	-1.132890	0.366782
H72	H	-0.323617	-1.081476	0.324302
H73	H	-0.408914	-1.178402	0.318076
N74	N	-1.105828	-1.412472	0.258977
H75	H	-1.046938	-1.431119	0.209510
H76	H	-1.150479	-1.355626	0.226663
H77	H	-0.728312	-1.107801	0.621400
H78	H	-0.384064	-0.919323	0.384498
N79	N	-0.758451	-1.634352	1.100975
H80	H	-0.806567	-1.621429	1.039432
H81	H	-0.753673	-1.568745	1.144981
H82	H	-1.104906	-1.640307	0.628254
H83	H	-0.905845	-1.640183	0.628195
