data_functionalizedCrystal
_audit_creation_method	'MofGen! by Chris Wilmer'
_symmetry_space_group_name_H-M	'P1'
_symmetry_Int_Tables_number	1
_symmetry_cell_setting	triclinic
loop_
_symmetry_equiv_pos_as_xyz
  x,y,z
_cell_length_a	12.827893
_cell_length_b	13.897447
_cell_length_c	13.897441
_cell_angle_alpha	89.970673
_cell_angle_beta	89.980094
_cell_angle_gamma	90.019501
loop_
_atom_site_label
_atom_site_type_symbol
_atom_site_fract_x
_atom_site_fract_y
_atom_site_fract_z
Zn1	Zn	1.597646	-0.383985	-0.545368
Zn2	Zn	1.930979	-0.050652	-0.212035
Zn3	Zn	2.264313	0.282682	0.121298
Zn4	Zn	1.597526	-0.545307	-0.384073
Zn5	Zn	1.930859	-0.211973	-0.050740
Zn6	Zn	2.264192	0.121360	0.282593
Zn7	Zn	1.422886	-0.384027	-0.384089
Zn8	Zn	1.756219	-0.050694	-0.050756
Zn9	Zn	2.089552	0.282640	0.282578
Zn10	Zn	1.422860	-0.545240	-0.545328
Zn11	Zn	1.756193	-0.211906	-0.211995
Zn12	Zn	2.089527	0.121427	0.121338
O13	O	1.510229	-0.464640	-0.464715
O14	O	1.843563	-0.131306	-0.131381
O15	O	2.176896	0.202027	0.201952
O16	O	1.743866	-0.405395	-0.523982
O17	O	2.077199	-0.072062	-0.190649
O18	O	2.410533	0.261272	0.142684
O19	O	1.574319	-0.523958	-0.249094
O20	O	1.907653	-0.190625	0.084240
O21	O	2.240986	0.142708	0.417573
O22	O	1.446129	-0.249040	-0.405506
O23	O	1.779462	0.084293	-0.072173
O24	O	2.112796	0.417627	0.261160
O25	O	1.743778	-0.523917	-0.405480
O26	O	2.077111	-0.190584	-0.072146
O27	O	2.410444	0.142749	0.261187
O28	O	1.574525	-0.249009	-0.523998
O29	O	1.907858	0.084324	-0.190664
O30	O	2.241191	0.417658	0.142669
O31	O	1.446012	-0.405467	-0.249105
O32	O	1.779345	-0.072134	0.084228
O33	O	2.112679	0.261200	0.417561
O34	O	1.276646	-0.405402	-0.405468
O35	O	1.609979	-0.072069	-0.072134
O36	O	1.943313	0.261265	0.261199
O37	O	1.446086	-0.523803	-0.680315
O38	O	1.779419	-0.190470	-0.346982
O39	O	2.112752	0.142864	-0.013649
O40	O	1.276627	-0.523844	-0.523929
O41	O	1.609961	-0.190511	-0.190596
O42	O	1.943294	0.142823	0.142737
O43	O	1.574500	-0.405330	-0.680345
O44	O	1.907833	-0.071997	-0.347011
O45	O	2.241167	0.261337	-0.013678
O46	O	1.574295	-0.680279	-0.405441
O47	O	1.907628	-0.346946	-0.072107
O48	O	2.240962	-0.013613	0.261226
O49	O	1.445969	-0.680230	-0.523914
O50	O	1.779302	-0.346897	-0.190581
O51	O	2.112636	-0.013563	0.142753
C52	C	1.238719	-0.464621	-0.464696
C53	C	1.572053	-0.131288	-0.131363
C54	C	1.905386	0.202046	0.201970
C55	C	1.122566	-0.464636	-0.464711
C56	C	1.455900	-0.131303	-0.131378
C57	C	1.789233	0.202030	0.201955
C58	C	1.070800	-0.523337	-0.523240
C59	C	1.404133	-0.190003	-0.189906
C60	C	1.737467	0.143330	0.143427
C61	C	0.950750	-0.523354	-0.523257
C62	C	1.284083	-0.190020	-0.189923
C63	C	1.617416	0.143313	0.143410
C64	C	1.510144	-0.715254	-0.464692
C65	C	1.843478	-0.381921	-0.131359
C66	C	2.176811	-0.048587	0.201974
C67	C	1.510204	-0.822468	-0.464715
C68	C	1.843537	-0.489134	-0.131382
C69	C	2.176870	-0.155801	0.201952
C70	C	1.510254	-0.909538	-0.464737
C71	C	1.843587	-0.576204	-0.131404
C72	C	2.176921	-0.242871	0.201930
C73	C	1.510327	-1.018770	-0.464762
C74	C	1.843661	-0.685437	-0.131429
C75	C	2.176994	-0.352103	0.201905
C76	C	1.782799	-0.464659	-0.464734
C77	C	2.116133	-0.131326	-0.131400
C78	C	2.449466	0.202008	0.201933
C79	C	1.898953	-0.464667	-0.464742
C80	C	2.232286	-0.131334	-0.131409
C81	C	2.565619	0.201999	0.201925
C82	C	1.510303	-0.464554	-0.716308
C83	C	1.843637	-0.131221	-0.382975
C84	C	2.176970	0.202112	-0.049641
C85	C	1.510335	-0.464518	-0.823522
C86	C	1.843668	-0.131185	-0.490189
C87	C	2.177002	0.202149	-0.156855
C88	C	1.510343	-0.213047	-0.464758
C89	C	1.843676	0.120287	-0.131425
C90	C	2.177010	0.453620	0.201908
C91	C	1.510392	-0.105833	-0.464777
C92	C	1.843725	0.227501	-0.131444
C93	C	2.177058	0.560834	0.201890
C94	C	1.510363	-0.464453	-1.019817
C95	C	1.843697	-0.131119	-0.686484
C96	C	2.177030	0.202214	-0.353151
C97	C	1.510344	-0.464492	-0.910585
C98	C	1.843678	-0.131158	-0.577251
C99	C	2.177011	0.202175	-0.243918
C100	C	1.510216	-0.464655	-0.214100
C101	C	1.843549	-0.131322	0.119233
C102	C	2.176882	0.202012	0.452566
C103	C	1.510387	-0.464419	-0.106887
C104	C	1.843720	-0.131086	0.226446
C105	C	2.177053	0.202247	0.559780
H106	H	0.906232	-0.573612	-0.573362
H107	H	1.239565	-0.240279	-0.240029
H108	H	1.572898	0.093054	0.093305
C109	C	1.021752	-0.451195	-0.335103
C110	C	1.355085	-0.117862	-0.001769
C111	C	1.688419	0.215471	0.331564
C112	C	0.959038	-0.396818	-0.397091
C113	C	1.292371	-0.063485	-0.063758
C114	C	1.625704	0.269848	0.269576
H115	H	1.058856	-0.409307	-0.293343
H116	H	1.392189	-0.075973	0.039990
H117	H	1.725522	0.257360	0.373324
H118	H	0.979141	-0.493136	-0.298106
H119	H	1.312474	-0.159802	0.035227
H120	H	1.645807	0.173531	0.368561
H121	H	1.069804	-0.488009	-0.371822
H122	H	1.403138	-0.154676	-0.038489
H123	H	1.736471	0.178657	0.294844
H124	H	0.910980	-0.360010	-0.360371
H125	H	1.244313	-0.026676	-0.027038
H126	H	1.577646	0.306657	0.306295
H127	H	1.001652	-0.354861	-0.434091
H128	H	1.334986	-0.021528	-0.100758
H129	H	1.668319	0.311806	0.232575
C130	C	1.193748	-0.536773	-0.652841
C131	C	1.527081	-0.203439	-0.319507
C132	C	1.860415	0.129894	0.013826
C133	C	1.130944	-0.591166	-0.590870
C134	C	1.464277	-0.257833	-0.257536
C135	C	1.797611	0.075500	0.075797
H136	H	1.230881	-0.578652	-0.694589
H137	H	1.564214	-0.245318	-0.361255
H138	H	1.897547	0.088015	-0.027922
H139	H	1.151194	-0.494845	-0.689850
H140	H	1.484528	-0.161512	-0.356517
H141	H	1.817861	0.171822	-0.023184
H142	H	1.241775	-0.499944	-0.616107
H143	H	1.575108	-0.166611	-0.282774
H144	H	1.908442	0.166722	0.050559
H145	H	1.082912	-0.627990	-0.627603
H146	H	1.416245	-0.294656	-0.294269
H147	H	1.749578	0.038677	0.039064
H148	H	1.173501	-0.633111	-0.553856
H149	H	1.506835	-0.299778	-0.220523
H150	H	1.840168	0.033556	0.112810
H151	H	1.078009	-0.414389	-0.414620
H152	H	1.411342	-0.081056	-0.081286
H153	H	1.744675	0.252277	0.252047
