data_functionalizedCrystal
_audit_creation_method	'MofGen! by Chris Wilmer'
_symmetry_space_group_name_H-M	'P1'
_symmetry_Int_Tables_number	1
_symmetry_cell_setting	triclinic
loop_
_symmetry_equiv_pos_as_xyz
  x,y,z
_cell_length_a	16.992694
_cell_length_b	26.210047
_cell_length_c	16.992695
_cell_angle_alpha	89.995410
_cell_angle_beta	90.668223
_cell_angle_gamma	90.003955
loop_
_atom_site_label
_atom_site_type_symbol
_atom_site_fract_x
_atom_site_fract_y
_atom_site_fract_z
O1	O	1.050856	0.042366	0.166906
O2	O	1.384190	0.375699	0.500239
O3	O	1.717523	0.709032	0.833572
O4	O	0.822456	0.042381	0.165074
O5	O	1.155790	0.375714	0.498408
O6	O	1.489123	0.709047	0.831741
O7	O	0.935741	0.042369	0.051790
O8	O	1.269074	0.375702	0.385123
O9	O	1.602407	0.709036	0.718457
O10	O	0.937572	0.042377	0.280190
O11	O	1.270905	0.375710	0.613523
O12	O	1.604239	0.709044	0.946857
O13	O	0.935719	-0.042489	0.051807
O14	O	1.269052	0.290844	0.385141
O15	O	1.602385	0.624178	0.718474
O16	O	0.822434	-0.042478	0.165092
O17	O	1.155767	0.290856	0.498425
O18	O	1.489101	0.624189	0.831759
O19	O	1.050834	-0.042493	0.166923
O20	O	1.384168	0.290841	0.500256
O21	O	1.717501	0.624174	0.833590
Cu22	Cu	0.936632	-0.050233	0.166009
Cu23	Cu	1.269965	0.283100	0.499342
Cu24	Cu	1.603299	0.616433	0.832676
Cu25	Cu	0.936658	0.050121	0.165989
Cu26	Cu	1.269992	0.383455	0.499322
Cu27	Cu	1.603325	0.716788	0.832655
O28	O	0.937550	-0.042481	0.280208
O29	O	1.270883	0.290852	0.613541
O30	O	1.604216	0.624186	0.946874
C31	C	0.793085	-0.000047	0.162727
C32	C	1.126418	0.333287	0.496061
C33	C	1.459752	0.666620	0.829394
C34	C	0.705600	-0.000041	0.155699
C35	C	1.038934	0.333292	0.489032
C36	C	1.372267	0.666626	0.822365
N37	N	0.936619	-0.120817	0.166023
N38	N	1.269953	0.212516	0.499357
N39	N	1.603286	0.545849	0.832690
C40	C	0.659610	-0.000039	0.223517
C41	C	0.992943	0.333294	0.556850
C42	C	1.326276	0.666628	0.890183
C43	C	0.577409	-0.000046	0.216908
C44	C	0.910742	0.333287	0.550241
C45	C	1.244075	0.666620	0.883574
C46	C	0.541201	-0.000052	0.142480
C47	C	0.874534	0.333281	0.475813
C48	C	1.207867	0.666615	0.809147
C49	C	0.587198	-0.000055	0.074657
C50	C	0.920531	0.333278	0.407990
C51	C	1.253864	0.666611	0.741324
C52	C	0.669397	-0.000052	0.081267
C53	C	1.002730	0.333282	0.414600
C54	C	1.336063	0.666615	0.747933
C55	C	0.295886	-0.000066	0.115086
C56	C	0.629220	0.333267	0.448419
C57	C	0.962553	0.666600	0.781752
C58	C	0.213681	-0.000069	0.108481
C59	C	0.547014	0.333265	0.441814
C60	C	0.880348	0.666598	0.775148
C61	C	0.203898	-0.000060	0.250732
C62	C	0.537231	0.333273	0.584066
C63	C	0.870565	0.666606	0.917399
C64	C	0.286099	-0.000054	0.257336
C65	C	0.619432	0.333280	0.590669
C66	C	0.952766	0.666613	0.924002
C67	C	0.332089	-0.000060	0.189512
C68	C	0.665422	0.333273	0.522846
C69	C	0.998756	0.666607	0.856179
N70	N	0.457178	-0.000058	0.135723
N71	N	0.790512	0.333276	0.469056
N72	N	1.123845	0.666609	0.802390
N73	N	0.416110	-0.000058	0.196270
N74	N	0.749443	0.333276	0.529604
N75	N	1.082776	0.666609	0.862937
C76	C	0.986816	-0.473336	0.115838
C77	C	1.320149	-0.140003	0.449171
C78	C	1.653483	0.193330	0.782505
C79	C	0.986833	-0.686995	0.115828
C80	C	1.320166	-0.353662	0.449161
C81	C	1.653499	-0.020328	0.782495
O82	O	1.029481	-0.714621	0.073160
O83	O	1.362815	-0.381288	0.406493
O84	O	1.696148	-0.047954	0.739827
N85	N	0.936661	-0.713711	0.165972
N86	N	1.269995	-0.380378	0.499305
N87	N	1.603328	-0.047044	0.832638
C88	C	0.886479	-0.687009	0.216117
C89	C	1.219812	-0.353676	0.549451
C90	C	1.553145	-0.020343	0.882784
O91	O	0.843800	-0.714636	0.258761
O92	O	1.177133	-0.381302	0.592095
O93	O	1.510466	-0.047969	0.925428
C94	C	0.886459	-0.473352	0.216123
C95	C	1.219792	-0.140018	0.549456
C96	C	1.553125	0.193315	0.882789
C97	C	0.936639	-0.446638	0.165982
C98	C	1.269972	-0.113305	0.499315
C99	C	1.603306	0.220028	0.832648
C100	C	1.036991	-0.446623	0.065700
C101	C	1.370325	-0.113289	0.399034
C102	C	1.703658	0.220044	0.732367
C103	C	1.036990	-0.393211	0.065706
C104	C	1.370323	-0.059878	0.399040
C105	C	1.703656	0.273455	0.732373
C106	C	0.986813	-0.366513	0.115850
C107	C	1.320146	-0.033180	0.449183
C108	C	1.653479	0.300153	0.782517
C109	C	0.936637	-0.393227	0.165988
C110	C	1.269971	-0.059894	0.499321
C111	C	1.603304	0.273440	0.832654
C112	C	0.836273	-0.446651	0.266264
C113	C	1.169606	-0.113318	0.599597
C114	C	1.502939	0.220016	0.932930
C115	C	0.836271	-0.393233	0.266259
C116	C	1.169604	-0.059900	0.599592
C117	C	1.502937	0.273433	0.932926
C118	C	0.886451	-0.366520	0.216118
C119	C	1.219784	-0.033186	0.549451
C120	C	1.553118	0.300147	0.882785
C121	C	0.886459	-0.313117	0.216137
C122	C	1.219792	0.020216	0.549470
C123	C	1.553125	0.353549	0.882804
N124	N	0.936630	-0.286401	0.165994
N125	N	1.269963	0.046932	0.499327
N126	N	1.603297	0.380265	0.832660
C127	C	0.986807	-0.313099	0.115850
C128	C	1.320140	0.020234	0.449183
C129	C	1.653474	0.353567	0.782517
C130	C	0.886494	-0.799183	0.216112
C131	C	1.219827	-0.465849	0.549445
C132	C	1.553161	-0.132516	0.882779
C133	C	0.886500	-0.852597	0.216112
C134	C	1.219833	-0.519263	0.549445
C135	C	1.553167	-0.185930	0.882779
C136	C	0.986853	-0.852579	0.115822
C137	C	1.320186	-0.519245	0.449155
C138	C	1.653519	-0.185912	0.782488
C139	C	0.986850	-0.799164	0.115826
C140	C	1.320184	-0.465830	0.449160
C141	C	1.653517	-0.132497	0.782493
C142	C	0.936665	-0.772466	0.165969
C143	C	1.269999	-0.439133	0.499302
C144	C	1.603332	-0.105800	0.832635
C145	C	0.986800	-0.200931	0.115867
C146	C	1.320134	0.132402	0.449200
C147	C	1.653467	0.465735	0.782534
C148	C	0.986796	-0.147515	0.115880
C149	C	1.320130	0.185818	0.449213
C150	C	1.653463	0.519152	0.782547
C151	C	0.886441	-0.147538	0.216167
C152	C	1.219774	0.185795	0.549500
C153	C	1.553108	0.519129	0.882834
C154	C	0.886447	-0.200949	0.216157
C155	C	1.219781	0.132384	0.549491
C156	C	1.553114	0.465717	0.882824
C157	C	0.936629	-0.227645	0.166001
C158	C	1.269963	0.105688	0.499334
C159	C	1.603296	0.439022	0.832668
O160	O	0.843826	-0.285458	0.258776
O161	O	1.177159	0.047875	0.592110
O162	O	1.510493	0.381208	0.925443
O163	O	1.029467	-0.285464	0.073200
O164	O	1.362800	0.047870	0.406533
O165	O	1.696134	0.381203	0.739867
C166	C	0.986818	-0.526748	0.115832
C167	C	1.320151	-0.193414	0.449165
C168	C	1.653484	0.139919	0.782499
C169	C	0.936642	-0.553461	0.165969
C170	C	1.269975	-0.220128	0.499303
C171	C	1.603309	0.113205	0.832636
C172	C	0.886465	-0.526763	0.216113
C173	C	1.219798	-0.193430	0.549446
C174	C	1.553132	0.139903	0.882780
C175	C	0.936648	-0.606875	0.165969
C176	C	1.269981	-0.273542	0.499303
C177	C	1.603315	0.059791	0.832636
C178	C	0.986825	-0.633573	0.115826
C179	C	1.320158	-0.300240	0.449159
C180	C	1.653492	0.033093	0.782492
C181	C	1.036996	-0.606857	0.065682
C182	C	1.370330	-0.273524	0.399016
C183	C	1.703663	0.059809	0.732349
C184	C	1.036995	-0.553446	0.065688
C185	C	1.370328	-0.220112	0.399022
C186	C	1.703661	0.113221	0.732355
C187	C	0.836294	-0.553479	0.266256
C188	C	1.169627	-0.220146	0.599590
C189	C	1.502961	0.113187	0.932923
C190	C	0.836300	-0.606891	0.266247
C191	C	1.169634	-0.273558	0.599580
C192	C	1.502967	0.059776	0.932914
C193	C	0.886477	-0.633589	0.216103
C194	C	1.219811	-0.300256	0.549437
C195	C	1.553144	0.033078	0.882770
C196	C	1.080205	-0.000064	0.169270
C197	C	1.413539	0.333269	0.502603
C198	C	1.746872	0.666602	0.835937
C199	C	1.167690	-0.000067	0.176299
C200	C	1.501023	0.333267	0.509632
C201	C	1.834357	0.666600	0.842966
C202	C	0.933374	-0.000060	0.022439
C203	C	1.266707	0.333274	0.355772
C204	C	1.600041	0.666607	0.689105
C205	C	0.926345	-0.000059	-0.065046
C206	C	1.259678	0.333274	0.268287
C207	C	1.593012	0.666608	0.601621
N208	N	0.936677	0.120705	0.165968
N209	N	1.270010	0.454039	0.499302
N210	N	1.603344	0.787372	0.832635
C211	C	0.994163	-0.000064	-0.111037
C212	C	1.327496	0.333269	0.222296
C213	C	1.660830	0.666603	0.555630
C214	C	0.987554	-0.000059	-0.193238
C215	C	1.320887	0.333274	0.140096
C216	C	1.654221	0.666608	0.473429
C217	C	0.913127	-0.000052	-0.229446
C218	C	1.246460	0.333281	0.103887
C219	C	1.579793	0.666614	0.437221
C220	C	0.845303	-0.000046	-0.183449
C221	C	1.178637	0.333288	0.149884
C222	C	1.511970	0.666621	0.483218
C223	C	0.851913	-0.000047	-0.101250
C224	C	1.185246	0.333286	0.232084
C225	C	1.518580	0.666619	0.565417
C226	C	0.885732	-0.000043	-0.474760
C227	C	1.219065	0.333290	-0.141427
C228	C	1.552399	0.666623	0.191906
C229	C	0.879127	-0.000043	-0.556966
C230	C	1.212461	0.333290	-0.223632
C231	C	1.545794	0.666623	0.109701
C232	C	1.021379	-0.000056	-0.566749
C233	C	1.354712	0.333278	-0.233415
C234	C	1.688045	0.666611	0.099918
C235	C	1.027982	-0.000060	-0.484547
C236	C	1.361315	0.333273	-0.151214
C237	C	1.694649	0.666606	0.182119
C238	C	0.960159	-0.000051	-0.438558
C239	C	1.293492	0.333282	-0.105224
C240	C	1.626826	0.666616	0.228109
N241	N	0.906369	-0.000048	-0.313468
N242	N	1.239703	0.333285	0.019865
N243	N	1.573036	0.666618	0.353199
N244	N	0.966917	-0.000051	-0.354537
N245	N	1.300250	0.333282	-0.021204
N246	N	1.633583	0.666616	0.312130
C247	C	0.939917	-0.000051	0.309559
C248	C	1.273250	0.333282	0.642892
C249	C	1.606583	0.666616	0.976226
C250	C	0.946945	-0.000048	0.397044
C251	C	1.280279	0.333285	0.730377
C252	C	1.613612	0.666618	1.063710
H253	H	0.689084	-0.000034	0.284124
H254	H	1.022417	0.333299	0.617457
H255	H	1.355751	0.666633	0.950790
Cl256	Cl	1.087734	-0.000078	-0.065526
Cl257	Cl	1.421067	0.333256	0.267807
Cl258	Cl	1.754401	0.666589	0.601140
H259	H	1.077855	-0.628603	0.024856
H260	H	1.411189	-0.295270	0.358189
H261	H	1.744522	0.038063	0.691523
H262	H	0.539966	-0.000044	0.272133
H263	H	0.873300	0.333289	0.605466
H264	H	1.206633	0.666623	0.938799
Cl265	Cl	0.541678	-0.000066	-0.018910
Cl266	Cl	0.875012	0.333268	0.314423
Cl267	Cl	1.208345	0.666601	0.647757
Cl268	Cl	1.049886	-0.113935	0.052842
Cl269	Cl	1.383219	0.219398	0.386176
Cl270	Cl	1.716552	0.552731	0.719509
H271	H	1.076596	-0.000062	-0.604202
H272	H	1.409930	0.333271	-0.270869
H273	H	1.743263	0.666605	0.062465
H274	H	1.027711	-0.777417	0.074997
H275	H	1.361044	-0.444083	0.408330
H276	H	1.694377	-0.110750	0.741663
H277	H	0.784703	-0.000037	-0.212936
H278	H	1.118036	0.333296	0.120397
H279	H	1.451369	0.666630	0.453731
H280	H	0.795439	-0.628637	0.307085
H281	H	1.128773	-0.295304	0.640418
H282	H	1.462106	0.038029	0.973751
Cl283	Cl	1.072816	-0.000067	-0.251052
Cl284	Cl	1.406149	0.333267	0.082282
Cl285	Cl	1.739482	0.666600	0.415615
H286	H	0.315574	-0.000043	0.317942
H287	H	0.648907	0.333290	0.651276
H288	H	0.982240	0.666623	0.984609
H289	H	1.088589	-0.000066	-0.455073
H290	H	1.421922	0.333268	-0.121739
H291	H	1.755255	0.666601	0.211594
Cl292	Cl	0.146078	-0.000055	0.335990
Cl293	Cl	0.479411	0.333279	0.669323
Cl294	Cl	0.812745	0.666612	1.002656
H295	H	0.796688	-0.000043	-0.063804
H296	H	1.130022	0.333290	0.269529
H297	H	1.463355	0.666623	0.602862
Cl298	Cl	0.773209	-0.519923	0.329301
Cl299	Cl	1.106543	-0.186590	0.662634
Cl300	Cl	1.439876	0.146744	0.995968
Cl301	Cl	1.049889	-0.234483	0.052814
Cl302	Cl	1.383222	0.098851	0.386147
Cl303	Cl	1.716555	0.432184	0.719480
Cl304	Cl	0.785554	-0.000038	-0.602483
Cl305	Cl	1.118887	0.333295	-0.269150
Cl306	Cl	1.452221	0.666629	0.064183
H307	H	0.184203	-0.000073	0.047870
H308	H	0.517536	0.333261	0.381203
H309	H	0.850870	0.666594	0.714537
H310	H	0.333322	-0.000072	0.059859
H311	H	0.666655	0.333261	0.393192
H312	H	0.999988	0.666595	0.726526
Cl313	Cl	0.727214	-0.000056	-0.003994
Cl314	Cl	1.060548	0.333277	0.329339
Cl315	Cl	1.393881	0.666610	0.662673
Cl316	Cl	0.800468	-0.000031	-0.416955
Cl317	Cl	1.133801	0.333303	-0.083622
Cl318	Cl	1.467134	0.666636	0.249712
H319	H	1.077848	-0.371464	0.024875
H320	H	1.411182	-0.038131	0.358208
H321	H	1.744515	0.295202	0.691542
Cl322	Cl	1.100080	-0.480177	0.002655
Cl323	Cl	1.433413	-0.146844	0.335988
Cl324	Cl	1.766746	0.186489	0.669321
H325	H	0.795411	-0.468394	0.307092
H326	H	1.128745	-0.135060	0.640426
H327	H	1.462078	0.198273	0.973759
H328	H	1.077856	-0.531699	0.024859
H329	H	1.411189	-0.198366	0.358192
H330	H	1.744522	0.134967	0.691525
H331	H	1.027710	-0.874325	0.074994
H332	H	1.361044	-0.540992	0.408327
H333	H	1.694377	-0.207658	0.741660
Cl334	Cl	0.823425	-0.886173	0.279160
Cl335	Cl	1.156758	-0.552840	0.612493
Cl336	Cl	1.490092	-0.219507	0.945827
H337	H	0.795401	-0.371499	0.307090
H338	H	1.128735	-0.038166	0.640424
H339	H	1.462068	0.295168	0.973757
Cl340	Cl	0.823401	-0.765627	0.279157
Cl341	Cl	1.156734	-0.432293	0.612490
Cl342	Cl	1.490068	-0.098960	0.945824
Cl343	Cl	0.823364	-0.113966	0.279203
Cl344	Cl	1.156698	0.219367	0.612536
Cl345	Cl	1.490031	0.552700	0.945869
Cl346	Cl	0.823370	-0.234531	0.279203
Cl347	Cl	1.156704	0.098803	0.612536
Cl348	Cl	1.490037	0.432136	0.945869
