data_functionalizedCrystal
_audit_creation_method	'MofGen! by Chris Wilmer'
_symmetry_space_group_name_H-M	'P1'
_symmetry_Int_Tables_number	1
_symmetry_cell_setting	triclinic
loop_
_symmetry_equiv_pos_as_xyz
  x,y,z
_cell_length_a	13.897449
_cell_length_b	12.594516
_cell_length_c	13.897441
_cell_angle_alpha	89.973623
_cell_angle_beta	89.976606
_cell_angle_gamma	90.016879
loop_
_atom_site_label
_atom_site_type_symbol
_atom_site_fract_x
_atom_site_fract_y
_atom_site_fract_z
Zn1	Zn	1.474714	-0.423685	-0.545478
Zn2	Zn	1.474612	-0.601695	-0.384191
Zn3	Zn	1.313403	-0.423734	-0.384189
Zn4	Zn	1.313389	-0.601624	-0.545436
O5	O	1.394029	-0.512685	-0.464824
O6	O	1.609682	-0.447307	-0.524101
O7	O	1.453191	-0.578139	-0.249209
O8	O	1.334849	-0.274782	-0.405601
O9	O	1.609607	-0.578091	-0.405605
O10	O	1.453364	-0.274745	-0.524099
O11	O	1.334751	-0.447391	-0.249207
O12	O	1.178419	-0.447322	-0.405560
O13	O	1.334826	-0.577970	-0.680424
O14	O	1.178409	-0.578017	-0.524028
O15	O	1.453350	-0.447238	-0.680454
O16	O	1.453178	-0.750632	-0.405564
O17	O	1.334728	-0.750579	-0.524030
C18	C	1.143415	-0.512668	-0.464790
C19	C	1.036201	-0.512687	-0.464798
C20	C	0.949131	-0.512690	-0.464815
C21	C	0.839899	-0.512698	-0.464844
C22	C	1.393966	-0.789226	-0.464814
C23	C	1.394027	-0.907531	-0.464842
C24	C	1.329596	-0.976794	-0.529231
C25	C	1.306093	-1.047660	-0.441213
C26	C	1.417619	-1.047464	-0.552875
C27	C	1.370478	-0.976839	-0.376778
C28	C	1.482044	-0.976636	-0.488500
C29	C	1.458574	-1.047470	-0.400421
C30	C	1.645622	-0.512702	-0.464858
C31	C	1.752836	-0.512709	-0.464873
C32	C	1.394098	-0.512590	-0.716417
C33	C	1.394127	-0.512550	-0.823631
C34	C	1.394119	-0.235064	-0.464854
C35	C	1.394157	-0.116758	-0.464867
C36	C	1.394153	-0.512478	-1.019926
C37	C	1.394136	-0.512521	-0.910693
C38	C	1.394017	-0.512701	-0.214209
C39	C	1.394174	-0.512442	-0.106996
H40	H	1.275011	-0.945760	-0.583603
H41	H	1.231719	-1.078881	-0.421223
C42	C	1.343471	-0.935105	-0.276187
N43	N	1.323125	-0.903668	-0.200425
C44	C	1.532256	-1.089139	-0.326791
N45	N	1.587749	-1.120528	-0.271329
C46	C	1.582489	-0.934440	-0.515570
N47	N	1.658142	-0.902650	-0.535973
C48	C	1.444506	-1.089375	-0.653438
N49	N	1.464750	-1.120937	-0.729184
