data_functionalizedCrystal
_audit_creation_method	'MofGen! by Chris Wilmer'
_symmetry_space_group_name_H-M	'P1'
_symmetry_Int_Tables_number	1
_symmetry_cell_setting	triclinic
loop_
_symmetry_equiv_pos_as_xyz
  x,y,z
_cell_length_a	13.032891
_cell_length_b	13.032721
_cell_length_c	19.805399
_cell_angle_alpha	97.155902
_cell_angle_beta	82.810359
_cell_angle_gamma	90.903621
loop_
_atom_site_label
_atom_site_type_symbol
_atom_site_fract_x
_atom_site_fract_y
_atom_site_fract_z
Zn1	Zn	1.520227	-0.609419	-0.557653
Zn2	Zn	1.498271	-0.781386	-0.456807
Zn3	Zn	1.348248	-0.587575	-0.428561
Zn4	Zn	1.326376	-0.759468	-0.554039
O5	O	1.423280	-0.684462	-0.499265
O6	O	1.661227	-0.650546	-0.557608
O7	O	1.478334	-0.755708	-0.358343
O8	O	1.389403	-0.446565	-0.435377
O9	O	1.645096	-0.776889	-0.483518
O10	O	1.515756	-0.462615	-0.530220
O11	O	1.368113	-0.613315	-0.337591
O12	O	1.201434	-0.592062	-0.431873
O13	O	1.352126	-0.739533	-0.649235
O14	O	1.185365	-0.718351	-0.524061
O15	O	1.494548	-0.629293	-0.651890
O16	O	1.457126	-0.922386	-0.480014
O17	O	1.330836	-0.906283	-0.551449
C18	C	1.156085	-0.650459	-0.474510
C19	C	1.041774	-0.635936	-0.463938
C20	C	0.864729	-0.677038	-0.493862
C21	C	0.982874	-0.692052	-0.504788
C22	C	1.389253	-0.951651	-0.518422
C23	C	1.374790	-1.065968	-0.526648
C24	C	1.430883	-1.124874	-0.495007
C25	C	1.415937	-1.243026	-0.503509
C26	C	1.691519	-0.718599	-0.524117
C27	C	1.805827	-0.733146	-0.534707
C28	C	1.423346	-0.684405	-0.675808
C29	C	1.423374	-0.684380	-0.751041
C30	C	1.457469	-0.416233	-0.480051
C31	C	1.472038	-0.301930	-0.471863
C32	C	1.497535	-0.626975	-0.787768
C33	C	1.497549	-0.626946	-0.858456
C34	C	1.423407	-0.684330	-0.892415
C35	C	1.349238	-0.741737	-0.855682
C36	C	1.349220	-0.741759	-0.784995
C37	C	1.349309	-0.741648	-1.140754
C38	C	1.349334	-0.741624	-1.211446
C39	C	1.497638	-0.626836	-1.214214
C40	C	1.497620	-0.626858	-1.143528
C41	C	1.423449	-0.684260	-1.106800
C42	C	1.423433	-0.684289	-1.030153
C43	C	1.423426	-0.684308	-0.969062
C44	C	1.423283	-0.684453	-0.323408
C45	C	1.423491	-0.684213	-0.248174
H46	H	0.827691	-0.617882	-0.450807
H47	H	1.315705	-1.103008	-0.560035
O48	O	1.577547	-0.565038	-0.898069
H49	H	1.538203	-0.506838	-0.922254
H50	H	1.019909	-0.751204	-0.547851
O51	O	1.577504	-0.565083	-0.751141
H52	H	1.629068	-0.525153	-0.788558
O53	O	0.992734	-0.557584	-0.406891
H54	H	0.907633	-0.558093	-0.407254
O55	O	0.854874	-0.811490	-0.591753
H56	H	0.939974	-0.810985	-0.591385
H57	H	1.489977	-1.087837	-0.461626
O58	O	1.550316	-1.252882	-0.427639
H59	H	1.628447	-1.283625	-0.448236
O60	O	1.337649	-1.292068	-0.547728
H61	H	1.338185	-1.377172	-0.547460
H62	H	1.557997	-0.580134	-1.115882
O63	O	1.577616	-0.564886	-1.253821
H64	H	1.565164	-0.574489	-1.308677
H65	H	1.288954	-0.788354	-1.239094
O66	O	1.269268	-0.803499	-1.101135
H67	H	1.217707	-0.843380	-1.136625
H68	H	1.288867	-0.788455	-0.883337
H69	H	1.288822	-0.788492	-0.755091
