data_functionalizedCrystal
_audit_creation_method	'MofGen! by Chris Wilmer'
_symmetry_space_group_name_H-M	'P1'
_symmetry_Int_Tables_number	1
_symmetry_cell_setting	triclinic
loop_
_symmetry_equiv_pos_as_xyz
  x,y,z
_cell_length_a	30.711295
_cell_length_b	30.700791
_cell_length_c	30.700862
_cell_angle_alpha	90.000902
_cell_angle_beta	120.001942
_cell_angle_gamma	59.999927
loop_
_atom_site_label
_atom_site_type_symbol
_atom_site_fract_x
_atom_site_fract_y
_atom_site_fract_z
O1	O	0.311654	0.371252	0.012950
O2	O	0.222490	0.307911	-0.012903
O3	O	0.311654	0.307908	0.076291
O4	O	0.222491	0.371255	-0.076244
O5	O	0.384074	0.235463	0.076291
O6	O	0.294910	0.235466	-0.012903
O7	O	0.384075	0.298806	0.012950
Cu8	Cu	0.346105	0.260521	0.000023
Cu9	Cu	0.260460	0.346196	0.000023
O10	O	0.294911	0.298809	-0.076244
C11	C	0.535517	0.574956	0.039274
C12	C	0.588289	0.548501	0.039643
C13	C	0.535515	0.496081	0.039271
C14	C	0.588287	0.469746	0.039640
C15	C	0.614366	0.496080	0.039274
C16	C	0.509558	0.548502	0.039640
C17	C	0.393522	0.765165	0.024996
C18	C	0.364493	0.819030	0.020959
C19	C	0.389412	0.846051	0.018935
C20	C	0.357933	0.904458	0.014548
C21	C	0.443363	0.819202	0.020951
C22	C	0.472392	0.765339	0.024994
C23	C	0.447469	0.738321	0.027017
C24	C	0.790238	0.447914	0.024998
C25	C	0.840049	0.423088	0.020962
C26	C	0.865035	0.371143	0.018932
C27	C	0.919036	0.344223	0.014547
C28	C	0.840209	0.344024	0.020945
C29	C	0.790406	0.368846	0.024991
C30	C	0.765421	0.420797	0.027014
C31	C	0.393514	0.447919	0.024983
C32	C	0.364479	0.423096	0.020937
C33	C	0.389395	0.371149	0.018909
C34	C	0.357915	0.344232	0.014519
C35	C	0.443342	0.344031	0.020923
C36	C	0.472373	0.368856	0.024967
C37	C	0.447456	0.420800	0.027002
C38	C	0.478947	0.679916	0.031397
C39	C	0.504039	0.633361	0.034890
C40	C	0.504035	0.469167	0.034883
C41	C	0.478941	0.447713	0.031387
C42	C	0.668368	0.469165	0.034889
C43	C	0.711415	0.447710	0.031396
C44	C	0.137099	0.234795	-0.018774
C45	C	0.083362	0.261673	-0.015073
C46	C	0.163178	0.182373	-0.019140
C47	C	0.215945	0.234796	-0.018780
C48	C	0.246510	0.261676	-0.015085
C49	C	0.241904	0.182374	-0.019146
C50	C	0.215949	0.155918	-0.018774
C51	C	0.246517	0.098461	-0.015072
C52	C	0.163174	0.261131	-0.019146
C53	C	0.071059	0.496431	-0.503886
C54	C	0.018287	0.548852	-0.530222
C55	C	0.071059	0.496431	-0.425010
C56	C	0.018287	0.548853	-0.451466
C57	C	-0.007791	0.575308	-0.503888
C58	C	0.097017	0.470095	-0.451464
C59	C	0.213057	0.368664	-0.552047
C60	C	0.242087	0.343662	-0.576872
C61	C	0.217170	0.370614	-0.628819
C62	C	0.248650	0.343511	-0.655736
C63	C	0.163219	0.422568	-0.655941
C64	C	0.134189	0.447563	-0.631118
C65	C	0.159111	0.420609	-0.579168
C66	C	-0.183661	0.765518	-0.631655
C67	C	-0.233472	0.819384	-0.656658
C68	C	-0.258458	0.846409	-0.629708
C69	C	-0.312460	0.904814	-0.656809
C70	C	-0.233633	0.819560	-0.577754
C71	C	-0.183832	0.765694	-0.552757
C72	C	-0.158845	0.738677	-0.579713
C73	C	0.213055	0.368666	-0.234798
C74	C	0.242089	0.343666	-0.180930
C75	C	0.217172	0.370619	-0.153909
C76	C	0.248651	0.343517	-0.095502
C77	C	0.163225	0.422571	-0.180757
C78	C	0.134196	0.447568	-0.234623
C79	C	0.159113	0.420609	-0.261641
C80	C	0.127631	0.447718	-0.552254
C81	C	0.102539	0.469326	-0.530800
C82	C	0.102538	0.469327	-0.366605
C83	C	0.127630	0.447720	-0.320049
C84	C	-0.061792	0.633713	-0.530993
C85	C	-0.104839	0.680269	-0.552601
O86	O	1.063344	0.235463	-0.012891
O87	O	0.936714	0.298799	0.012970
O88	O	0.936698	0.298809	-0.076227
O89	O	1.063359	0.235454	0.076307
O90	O	0.936701	0.371253	-0.076224
O91	O	0.936716	0.371244	0.012974
O92	O	1.063346	0.307907	-0.012887
Cu93	Cu	1.000031	0.346190	0.000044
Cu94	Cu	1.000029	0.260516	0.000040
O95	O	1.063362	0.307898	0.076310
O96	O	0.294917	1.076254	-0.012892
O97	O	0.384086	0.923719	0.012968
O98	O	0.294916	1.012904	-0.076229
O99	O	0.384087	0.987069	0.076305
O100	O	0.222501	1.012902	-0.076220
O101	O	0.311671	0.923717	0.012977
O102	O	0.222502	1.076252	-0.012883
Cu103	Cu	0.260474	0.999984	0.000048
Cu104	Cu	0.346114	0.999987	0.000037
O105	O	0.311672	0.987067	0.076314
O106	O	-0.456782	1.076609	-0.692417
O107	O	-0.330139	0.924075	-0.629070
O108	O	-0.330136	1.013263	-0.629069
O109	O	-0.456785	0.987420	-0.692419
O110	O	-0.330135	1.013262	-0.701513
O111	O	-0.330137	0.924073	-0.701515
O112	O	-0.456781	1.076607	-0.764862
Cu113	Cu	-0.393459	1.000340	-0.739803
Cu114	Cu	-0.393461	1.000342	-0.654129
O115	O	-0.456783	0.987419	-0.764863
O116	O	0.311654	0.307908	-0.764502
O117	O	0.222494	0.371252	-0.701160
O118	O	0.311656	0.371250	-0.701156
O119	O	0.222492	0.307910	-0.764506
O120	O	0.384078	0.298803	-0.628710
O121	O	0.294916	0.298805	-0.628714
O122	O	0.384075	0.235461	-0.692055
Cu123	Cu	0.346108	0.260518	-0.653770
Cu124	Cu	0.260461	0.346195	-0.739446
O125	O	0.294913	0.235463	-0.692059
C126	C	0.469473	0.155917	0.234833
C127	C	0.523212	0.098460	0.261712
C128	C	0.443396	0.182372	0.261167
C129	C	0.390623	0.234794	0.155955
C130	C	0.360055	0.261673	0.098499
C131	C	0.364665	0.261129	0.182410
C132	C	0.390623	0.234794	0.234832
C133	C	0.360056	0.261673	0.261710
C134	C	0.443395	0.182372	0.182411
C135	C	1.215996	0.234768	0.234844
C136	C	1.246568	0.261644	0.261723
C137	C	1.241958	0.182344	0.261175
C138	C	1.137132	0.234776	0.155969
C139	C	1.083382	0.261661	0.098515
C140	C	1.163214	0.182352	0.182421
C141	C	1.215996	0.155892	0.234839
C142	C	1.246567	0.098433	0.261713
C143	C	1.163215	0.261108	0.182425
C144	C	0.390650	0.981199	0.234852
C145	C	0.360087	0.984899	0.261735
C146	C	0.443420	0.980833	0.261183
C147	C	0.390643	0.981193	0.155973
C148	C	0.360072	0.984887	0.098517
C149	C	0.443413	0.980827	0.182423
C150	C	0.469494	0.981201	0.234844
C151	C	0.523231	0.984903	0.261717
C152	C	0.364689	0.980825	0.182432
C153	C	0.535426	0.575012	-0.503847
C154	C	0.509460	0.548561	-0.530182
C155	C	0.614287	0.496128	-0.424976
C156	C	0.588202	0.469797	-0.451431
C157	C	0.535420	0.496138	-0.503850
C158	C	0.588207	0.548551	-0.451428
C159	C	0.473006	0.765220	-0.552001
C160	C	0.444151	0.819087	-0.576824
C161	C	0.390186	0.846114	-0.628767
C162	C	0.358890	0.904523	-0.655681
C163	C	0.365082	0.819270	-0.655888
C164	C	0.393942	0.765405	-0.631068
C165	C	0.447906	0.738381	-0.579122
C166	C	0.393395	0.447991	-0.631609
C167	C	0.364359	0.423169	-0.656609
C168	C	0.389274	0.371223	-0.629662
C169	C	0.357792	0.344307	-0.656761
C170	C	0.443234	0.344096	-0.577711
C171	C	0.472274	0.368914	-0.552715
C172	C	0.447346	0.420867	-0.579669
C173	C	0.790195	0.447940	-0.234772
C174	C	0.840012	0.423110	-0.180906
C175	C	0.865000	0.371161	-0.153887
C176	C	0.919013	0.344237	-0.095482
C177	C	0.840168	0.344047	-0.180734
C178	C	0.790351	0.368880	-0.234598
C179	C	0.765372	0.420826	-0.261614
C180	C	0.479193	0.679974	-0.552210
C181	C	0.504134	0.633418	-0.530758
C182	C	0.668299	0.469206	-0.366573
C183	C	0.711355	0.447746	-0.320020
C184	C	0.503934	0.469227	-0.530953
C185	C	0.478836	0.447776	-0.552559
O186	O	1.311720	-0.076311	0.298823
O187	O	1.222543	0.076229	0.235502
O188	O	1.311690	-0.012946	0.235474
O189	O	1.222573	0.012863	0.298851
O190	O	1.384124	-0.012954	0.307918
O191	O	1.294977	0.076221	0.307946
O192	O	1.384154	-0.076319	0.371267
Cu193	Cu	1.346179	-0.000050	0.346221
Cu194	Cu	1.260518	-0.000041	0.260548
O195	O	1.295007	0.012856	0.371295
C196	C	-0.007461	1.039173	-0.503857
C197	C	0.018613	1.039540	-0.530195
C198	C	0.071390	1.039181	-0.424985
C199	C	0.097344	1.039548	-0.451444
C200	C	0.071384	1.039175	-0.503864
C201	C	0.018619	1.039546	-0.451436
C202	C	-0.183321	1.024885	-0.552005
C203	C	-0.233131	1.020844	-0.576827
C204	C	-0.258119	1.018813	-0.628773
C205	C	-0.312119	1.014421	-0.655685
C206	C	-0.233298	1.020827	-0.655897
C207	C	-0.183498	1.024874	-0.631077
C208	C	-0.158510	1.026903	-0.579129
C209	C	0.133795	1.024886	-0.631637
C210	C	0.162646	1.020848	-0.656642
C211	C	0.216600	1.018822	-0.629696
C212	C	0.247891	1.014435	-0.656799
C213	C	0.241699	1.020842	-0.577743
C214	C	0.212843	1.024890	-0.552743
C215	C	0.158889	1.026909	-0.579696
C216	C	0.133826	1.024916	-0.234773
C217	C	0.162687	1.020876	-0.180906
C218	C	0.216641	1.018852	-0.153888
C219	C	0.247939	1.014470	-0.095481
C220	C	0.241734	1.020864	-0.180738
C221	C	0.212873	1.024902	-0.234604
C222	C	0.158914	1.026932	-0.261619
C223	C	-0.104505	1.031288	-0.552218
C224	C	-0.061460	1.034784	-0.530767
C225	C	0.102683	1.034800	-0.366581
C226	C	0.127625	1.031310	-0.320026
C227	C	0.102670	1.034788	-0.530972
C228	C	0.127607	1.031293	-0.552581
H229	H	0.467091	0.569745	0.040229
F230	F	0.471952	0.980060	0.317480
H231	H	1.141390	0.304181	0.161190
F232	F	0.763655	0.503199	0.027160
H233	H	-0.163293	1.026514	-0.653164
H234	H	0.860516	0.301747	-0.158732
H235	H	0.463526	0.301796	-0.555772
F236	F	0.366866	0.503280	-0.660297
H237	H	0.465238	0.980226	0.161181
F238	F	0.309187	0.980048	0.154675
F239	F	0.076371	1.027042	-0.660325
F240	F	-0.010243	0.576613	-0.423707
F241	F	0.297411	0.154611	-0.019915
H242	H	1.284427	0.161104	0.304247
F243	F	0.616738	0.413495	-0.423677
F244	F	0.299154	1.018717	-0.151986
F245	F	0.367225	0.736840	-0.659933
H246	H	0.466991	0.569806	-0.573253
F247	F	0.471925	0.154612	0.154652
H248	H	0.142937	0.444518	-0.158753
F249	F	0.866804	0.288738	0.018792
H250	H	0.610027	0.569793	-0.430186
F251	F	0.866434	0.451970	-0.152337
H252	H	0.769858	0.490238	-0.256766
F253	F	0.530448	0.736459	-0.496722
F254	F	0.307064	0.451961	0.018790
H255	H	0.141350	0.161136	-0.019734
H256	H	0.465224	0.161130	0.304240
F257	F	0.134648	0.317428	-0.019922
H258	H	0.464593	0.840939	-0.554738
F259	F	0.307654	0.848035	-0.711169
F260	F	0.135981	1.018731	-0.152333
F261	F	0.136701	0.451246	-0.711227
F262	F	0.309139	0.317416	0.154637
H263	H	0.373225	0.743171	0.026644
H264	H	0.320426	0.445259	-0.698906
H265	H	0.286013	0.301362	-0.554786
H266	H	-0.003542	0.570086	-0.573297
F267	F	0.307076	0.847601	0.018810
F268	F	0.152827	1.040354	-0.423696
F269	F	0.529700	0.340043	-0.497430
F270	F	0.152524	0.413799	-0.423700
F271	F	0.763928	0.340020	-0.263167
H272	H	0.610113	0.569742	0.040237
H273	H	-0.003217	1.040131	-0.573267
H274	H	0.286015	0.301366	-0.159074
F275	F	-0.259884	0.847954	-0.711946
H276	H	0.610108	0.426675	0.040229
H277	H	1.141387	0.161116	0.161177
H278	H	-0.003177	1.040098	-0.430182
F279	F	0.076401	1.027073	-0.263522
H280	H	-0.162981	1.026538	-0.509707
F281	F	-0.259540	1.018698	-0.547957
F282	F	0.239581	0.339974	-0.263550
F283	F	-0.259897	1.018669	-0.711180
F284	F	0.366992	0.503203	0.027145
F285	F	0.135934	1.018695	-0.711929
F286	F	0.299116	1.018694	-0.549066
F287	F	0.239554	1.027042	-0.497456
H288	H	0.463648	0.841206	0.019305
F289	F	0.529808	0.736768	0.027143
F290	F	0.239581	1.027042	-0.263176
H291	H	0.860256	0.445173	0.019320
H292	H	0.770198	0.346761	0.026631
H293	H	0.090261	0.489862	-0.653204
F294	F	0.469861	0.288744	0.018763
F295	F	0.529787	0.339991	0.027113
F296	F	0.239582	0.339972	-0.496761
H297	H	-0.253984	0.841562	-0.555814
F298	F	-0.157075	0.736766	-0.660346
H299	H	0.090270	0.489868	-0.256479
F300	F	-0.157418	0.737123	-0.497469
