data_functionalizedCrystal
_audit_creation_method	'MofGen! by Chris Wilmer'
_symmetry_space_group_name_H-M	'P1'
_symmetry_Int_Tables_number	1
_symmetry_cell_setting	triclinic
loop_
_symmetry_equiv_pos_as_xyz
  x,y,z
_cell_length_a	9.065215
_cell_length_b	10.540510
_cell_length_c	8.140239
_cell_angle_alpha	89.998951
_cell_angle_beta	89.997810
_cell_angle_gamma	84.764004
loop_
_atom_site_label
_atom_site_type_symbol
_atom_site_fract_x
_atom_site_fract_y
_atom_site_fract_z
O1	O	1.959448	0.186128	-0.136584
O2	O	2.459448	0.686128	0.363416
O3	O	1.530084	0.201401	-0.136591
O4	O	2.030084	0.701401	0.363409
O5	O	1.754584	0.009092	-0.136587
O6	O	2.254584	0.509092	0.363413
O7	O	1.734947	0.378437	-0.136588
O8	O	2.234947	0.878437	0.363412
O9	O	1.754572	0.009089	0.136640
O10	O	2.254572	0.509089	0.636640
O11	O	1.530072	0.201398	0.136636
O12	O	2.030072	0.701398	0.636636
O13	O	1.959435	0.186126	0.136643
O14	O	2.459435	0.686126	0.636643
Zn15	Zn	1.744751	0.193762	0.180020
Zn16	Zn	2.244751	0.693762	0.680020
Zn17	Zn	1.744768	0.193765	-0.179968
Zn18	Zn	2.244768	0.693765	0.320032
O19	O	1.734935	0.378435	0.136639
O20	O	2.234935	0.878435	0.636639
C21	C	1.475099	0.199933	0.000022
C22	C	1.975099	0.699933	0.500022
C23	C	1.311278	0.195546	0.000019
C24	C	1.811278	0.695546	0.500019
C25	C	1.753115	-0.038218	0.000023
C26	C	2.253115	0.461782	0.500023
C27	C	1.748737	-0.179185	0.000013
C28	C	2.248737	0.320815	0.500013
C29	C	1.904696	-0.396065	0.000642
C30	C	2.404696	0.103935	0.500642
C31	C	1.909366	-0.249452	0.000017
C32	C	2.409366	0.250548	0.500017
C33	C	1.666517	-0.224245	-0.156011
C34	C	2.166517	0.275755	0.343989
C35	C	1.662985	-0.371019	-0.156133
C36	C	2.162985	0.128981	0.343867
C37	C	1.659625	-0.370843	0.154577
C38	C	2.159625	0.129157	0.654577
C39	C	1.667244	-0.224473	0.156631
C40	C	2.167244	0.275527	0.656631
C41	C	2.014421	0.187594	0.000027
C42	C	2.514421	0.687594	0.500027
C43	C	2.178241	0.191980	0.000019
C44	C	2.678241	0.691980	0.500019
C45	C	1.736404	0.425745	0.000025
C46	C	2.236404	0.925745	0.500025
C47	C	1.740782	0.566711	0.000024
C48	C	2.240782	1.066711	0.500024
N49	N	1.744751	0.193759	0.425703
N50	N	2.244751	0.693759	0.925703
N51	N	1.744780	0.193758	-0.425651
N52	N	2.244780	0.693758	0.074349
H53	H	1.973698	-0.219872	0.111859
H54	H	2.473698	0.280128	0.611859
F55	F	1.986032	-0.452626	-0.144780
F56	F	2.486032	0.047374	0.355220
H57	H	1.974082	-0.220807	-0.112018
H58	H	2.474082	0.279193	0.387982
H59	H	1.539023	-0.393438	0.155627
H60	H	2.039023	0.106562	0.655627
F61	F	1.741163	-0.183644	-0.307780
F62	F	2.241163	0.316356	0.192220
H63	H	1.967271	-0.437790	0.112535
H64	H	2.467271	0.062210	0.612535
F65	F	1.745431	-0.186780	0.307505
F66	F	2.245431	0.313220	0.807505
H67	H	1.719184	-0.411026	-0.272761
H68	H	2.219184	0.088974	0.227239
H69	H	1.549972	-0.175839	0.166051
H70	H	2.049972	0.324161	0.666051
H71	H	1.542843	-0.394457	-0.163204
H72	H	2.042843	0.105543	0.336796
F73	F	1.725895	-0.426150	0.309152
F74	F	2.225895	0.073850	0.809152
H75	H	1.548264	-0.177292	-0.161814
H76	H	2.048264	0.322708	0.338186
