data_functionalizedCrystal
_audit_creation_method	'MofGen! by Chris Wilmer'
_symmetry_space_group_name_H-M	'P1'
_symmetry_Int_Tables_number	1
_symmetry_cell_setting	triclinic
loop_
_symmetry_equiv_pos_as_xyz
  x,y,z
_cell_length_a	16.109301
_cell_length_b	14.472310
_cell_length_c	15.995350
_cell_angle_alpha	89.998838
_cell_angle_beta	83.476979
_cell_angle_gamma	90.010662
loop_
_atom_site_label
_atom_site_type_symbol
_atom_site_fract_x
_atom_site_fract_y
_atom_site_fract_z
O1	O	1.103172	0.076786	0.107620
O2	O	0.861113	0.076798	0.121014
O3	O	0.988759	0.076791	-0.007572
O4	O	0.975526	0.076793	0.236207
O5	O	0.988726	-0.076891	-0.007565
O6	O	0.861080	-0.076884	0.121021
O7	O	1.103139	-0.076896	0.107628
Cu8	Cu	0.982107	-0.090923	0.114325
Cu9	Cu	0.982145	0.090824	0.114316
O10	O	0.975493	-0.076889	0.236214
C11	C	0.830122	-0.000041	0.120475
C12	C	0.737826	-0.000037	0.118848
C13	C	0.428847	-0.000052	0.189831
C14	C	0.515568	-0.000047	0.191368
C15	C	0.535400	-0.000036	0.038804
C16	C	0.448681	-0.000034	0.037269
C17	C	0.395406	-0.000047	0.112785
C18	C	0.568846	-0.000043	0.115857
C19	C	0.662872	-0.000037	0.117522
C20	C	0.301374	-0.000051	0.111120
N21	N	0.982085	-0.218754	0.114331
C22	C	0.982144	-0.592845	0.114313
C23	C	0.913614	-0.553675	0.182886
C24	C	0.913773	-0.446587	0.183136
C25	C	0.982114	-0.407254	0.114322
C26	C	1.068864	-0.446095	0.133380
C27	C	1.068479	-0.553217	0.133868
C28	C	0.964699	-0.553374	0.026478
C29	C	0.962709	-0.446246	0.027064
C30	C	0.982103	-0.302366	0.114325
C31	C	0.982162	-0.697733	0.114311
C32	C	1.134130	-0.000055	0.108167
C33	C	1.226426	-0.000054	0.109793
N34	N	0.982173	0.218655	0.114304
C35	C	0.988196	-0.000049	-0.038763
C36	C	0.986556	-0.000043	-0.131713
C37	C	0.980665	-0.000046	-0.469459
C38	C	0.889758	0.000303	-0.422000
C39	C	0.891399	-0.000043	-0.325310
C40	C	0.983587	-0.000044	-0.301899
C41	C	1.028407	-0.087805	-0.342985
C42	C	1.026123	-0.087878	-0.439620
C43	C	1.028038	0.086887	-0.439987
C44	C	1.028017	0.088047	-0.343042
C45	C	0.985243	-0.000046	-0.207202
C46	C	0.979012	-0.000050	-0.564156
C47	C	0.976056	-0.000048	0.267405
C48	C	0.977697	-0.000047	0.360355
H49	H	0.578786	-0.000027	-0.022678
H50	H	0.421454	-0.000028	-0.025475
C51	C	1.119899	-0.092230	-0.323910
N52	N	1.188809	-0.095565	-0.309535
H53	H	0.849290	-0.420328	0.171785
C54	C	1.139405	-0.411671	0.067703
N55	N	1.192536	-0.385741	0.018233
H56	H	0.848923	-0.579460	0.171722
C57	C	1.090125	-0.409853	0.218937
N58	N	1.106132	-0.382560	0.283383
H59	H	0.542790	-0.000050	0.254106
C60	C	0.928455	-0.590027	0.270449
N61	N	0.939635	-0.617408	0.336401
H62	H	0.924913	-0.420953	0.248317
C63	C	0.987902	0.176749	-0.467724
N64	N	0.957661	0.244429	-0.488614
H65	H	1.083852	-0.578193	0.197924
H66	H	1.014675	-0.578703	-0.024551
C67	C	0.983790	0.175758	-0.306174
N68	N	0.950469	0.241821	-0.278408
C69	C	1.139457	-0.588221	0.068980
N70	N	1.192926	-0.614583	0.020118
C71	C	0.843447	-0.085175	-0.287646
N72	N	0.807329	-0.149302	-0.259278
C73	C	0.881077	-0.589903	0.001731
N74	N	0.818089	-0.617416	-0.016899
H75	H	1.095064	0.087476	-0.471766
H76	H	0.898896	-0.420861	0.012601
H77	H	0.993413	-0.153480	-0.457909
C78	C	1.025774	-0.410100	-0.045101
N79	N	1.073287	-0.382882	-0.099454
C80	C	0.843794	0.084942	-0.286902
N81	N	0.807932	0.148953	-0.257976
C82	C	0.370248	-0.000058	0.272901
N83	N	0.326113	-0.000058	0.335472
C84	C	0.840880	-0.084260	-0.448427
N85	N	0.804070	-0.147961	-0.468324
C86	C	0.840682	0.085319	-0.447035
N87	N	0.803717	0.149354	-0.465900
C88	C	1.118844	0.095202	-0.322321
N89	N	1.187260	0.100582	-0.306717
H90	H	1.092865	-0.091861	-0.471886
H91	H	0.997250	-0.153113	-0.314592
