data_functionalizedCrystal
_audit_creation_method	'MofGen! by Chris Wilmer'
_symmetry_space_group_name_H-M	'P1'
_symmetry_Int_Tables_number	1
_symmetry_cell_setting	triclinic
loop_
_symmetry_equiv_pos_as_xyz
  x,y,z
_cell_length_a	14.519709
_cell_length_b	11.026607
_cell_length_c	9.482900
_cell_angle_alpha	78.599815
_cell_angle_beta	99.301351
_cell_angle_gamma	96.133081
loop_
_atom_site_label
_atom_site_type_symbol
_atom_site_fract_x
_atom_site_fract_y
_atom_site_fract_z
O1	O	-1.261291	-0.140186	-0.120696
O2	O	-1.011291	0.109814	0.129304
O3	O	-0.761291	0.359814	0.379304
O4	O	-0.511291	0.609814	0.629304
O5	O	-0.995906	-0.158920	-0.120740
O6	O	-0.745906	0.091080	0.129260
O7	O	-0.495906	0.341080	0.379260
O8	O	-0.245906	0.591080	0.629260
O9	O	-1.106603	0.027148	-0.120716
O10	O	-0.856603	0.277148	0.129284
O11	O	-0.606603	0.527148	0.379284
O12	O	-0.356603	0.777148	0.629284
O13	O	-1.150594	-0.326254	-0.120720
O14	O	-0.900594	-0.076254	0.129280
O15	O	-0.650594	0.173746	0.379280
O16	O	-0.400594	0.423746	0.629280
O17	O	-1.084143	-0.010799	0.121071
O18	O	-0.834143	0.239201	0.371071
O19	O	-0.584143	0.489201	0.621071
O20	O	-0.334143	0.739201	0.871071
O21	O	-0.973446	-0.196866	0.121048
O22	O	-0.723446	0.053134	0.371048
O23	O	-0.473446	0.303134	0.621048
O24	O	-0.223446	0.553134	0.871048
O25	O	-1.238831	-0.178133	0.121091
O26	O	-0.988831	0.071867	0.371091
O27	O	-0.738831	0.321867	0.621091
O28	O	-0.488831	0.571867	0.871091
Cu29	Cu	-1.104088	-0.190964	0.143147
Cu30	Cu	-0.854088	0.059036	0.393147
Cu31	Cu	-0.604088	0.309036	0.643147
Cu32	Cu	-0.354088	0.559036	0.893147
Cu33	Cu	-1.130649	-0.146088	-0.142795
Cu34	Cu	-0.880649	0.103912	0.107205
Cu35	Cu	-0.630649	0.353912	0.357205
Cu36	Cu	-0.380649	0.603912	0.607205
O37	O	-1.128134	-0.364200	0.121068
O38	O	-0.878134	-0.114200	0.371068
O39	O	-0.628134	0.135800	0.621068
O40	O	-0.378134	0.385800	0.871068
C41	C	-1.087258	0.053403	0.000174
C42	C	-0.837258	0.303403	0.250174
C43	C	-0.587258	0.553403	0.500174
C44	C	-0.337258	0.803403	0.750174
C45	C	-1.063067	0.188171	0.000165
C46	C	-0.813067	0.438171	0.250165
C47	C	-0.563067	0.688171	0.500165
C48	C	-0.313067	0.938171	0.750165
C49	C	-0.950173	-0.177018	0.000148
C50	C	-0.700173	0.072982	0.250148
C51	C	-0.450173	0.322982	0.500148
C52	C	-0.200173	0.572982	0.750148
C53	C	-0.847362	-0.174399	0.000132
C54	C	-0.597362	0.075601	0.250132
C55	C	-0.347362	0.325601	0.500132
C56	C	-0.097362	0.575601	0.750132
C57	C	-1.284565	-0.160033	0.000200
C58	C	-1.034565	0.089967	0.250200
C59	C	-0.784565	0.339967	0.500200
C60	C	-0.534565	0.589967	0.750200
C61	C	-1.387377	-0.162652	0.000207
C62	C	-1.137377	0.087348	0.250207
C63	C	-0.887377	0.337348	0.500207
C64	C	-0.637377	0.587348	0.750207
C65	C	-0.470873	-0.164774	0.000198
C66	C	-0.220873	0.085226	0.250198
C67	C	0.029127	0.335226	0.500198
C68	C	0.279127	0.585226	0.750198
C69	C	-0.575623	-0.167447	0.000179
C70	C	-0.325623	0.082553	0.250179
C71	C	-0.075623	0.332553	0.500179
C72	C	0.174377	0.582553	0.750179
C73	C	-0.659114	-0.169586	0.000163
C74	C	-0.409114	0.080414	0.250163
C75	C	-0.159114	0.330414	0.500163
C76	C	0.090886	0.580414	0.750163
C77	C	-0.763871	-0.172260	0.000147
C78	C	-0.513871	0.077740	0.250147
C79	C	-0.263871	0.327740	0.500147
C80	C	-0.013871	0.577740	0.750147
C81	C	-1.147479	-0.390455	0.000174
C82	C	-0.897479	-0.140455	0.250174
C83	C	-0.647479	0.109545	0.500174
C84	C	-0.397479	0.359545	0.750174
C85	C	-1.171672	-0.525222	0.000174
C86	C	-0.921672	-0.275222	0.250174
C87	C	-0.671672	-0.025222	0.500174
C88	C	-0.421672	0.224778	0.750174
N89	N	-1.085413	-0.222527	0.344263
N90	N	-0.835413	0.027473	0.594263
N91	N	-0.585413	0.277473	0.844263
N92	N	-0.335413	0.527473	1.094263
C93	C	-1.129865	0.261831	0.000174
C94	C	-0.879865	0.511831	0.250174
C95	C	-0.629865	0.761831	0.500174
C96	C	-0.379865	1.011831	0.750174
C97	C	-1.104864	0.401121	0.000165
C98	C	-0.854864	0.651121	0.250165
C99	C	-0.604864	0.901121	0.500165
C100	C	-0.354864	1.151121	0.750165
N101	N	-1.149330	-0.114516	-0.343911
N102	N	-0.899330	0.135484	-0.093911
N103	N	-0.649330	0.385484	0.156089
N104	N	-0.399330	0.635484	0.406089
C105	C	-1.125134	-0.155391	0.416471
C106	C	-0.875134	0.094609	0.666471
C107	C	-0.625134	0.344609	0.916471
C108	C	-0.375134	0.594609	1.166471
C109	C	-1.109604	-0.181661	0.583885
C110	C	-0.859604	0.068339	0.833885
C111	C	-0.609604	0.318339	1.083885
C112	C	-0.359604	0.568339	1.333885
H113	H	-1.205563	0.221771	0.000196
H114	H	-0.955563	0.471771	0.250196
H115	H	-0.705563	0.721771	0.500196
H116	H	-0.455563	0.971771	0.750196
H117	H	-1.029161	0.441174	0.000143
H118	H	-0.779161	0.691174	0.250143
H119	H	-0.529161	0.941174	0.500143
H120	H	-0.279161	1.191174	0.750143
H121	H	-1.039905	-0.299448	0.406383
H122	H	-0.789905	-0.049448	0.656383
H123	H	-0.539905	0.200552	0.906383
H124	H	-0.289905	0.450552	1.156383
H125	H	-1.194833	-0.037581	0.593974
H126	H	-0.944833	0.212419	0.843974
H127	H	-0.694833	0.462419	1.093974
H128	H	-0.444833	0.712419	1.343974
H129	H	-1.247386	0.434745	0.000077
H130	H	-0.997386	0.684745	0.250077
H131	H	-0.747386	0.934745	0.500077
H132	H	-0.497386	1.184745	0.750077
H133	H	-0.987369	0.228230	0.000143
H134	H	-0.737369	0.478230	0.250143
H135	H	-0.487369	0.728230	0.500143
H136	H	-0.237369	0.978230	0.750143
H137	H	-1.170633	-0.078461	0.354352
H138	H	-0.920633	0.171539	0.604352
H139	H	-0.670633	0.421539	0.854352
H140	H	-0.420633	0.671539	1.104352
H141	H	-1.064093	-0.258588	0.646000
H142	H	-0.814093	-0.008588	0.896000
H143	H	-0.564093	0.241412	1.146000
H144	H	-0.314093	0.491412	1.396000
