data_functionalizedCrystal
_audit_creation_method	'MofGen! by Chris Wilmer'
_symmetry_space_group_name_H-M	'P1'
_symmetry_Int_Tables_number	1
_symmetry_cell_setting	triclinic
loop_
_symmetry_equiv_pos_as_xyz
  x,y,z
_cell_length_a	33.428889
_cell_length_b	33.428139
_cell_length_c	33.424847
_cell_angle_alpha	60.004234
_cell_angle_beta	60.008465
_cell_angle_gamma	59.994972
loop_
_atom_site_label
_atom_site_type_symbol
_atom_site_fract_x
_atom_site_fract_y
_atom_site_fract_z
O1	O	0.055565	-0.584504	0.488714
O2	O	0.020982	-0.455083	0.393778
O3	O	0.102943	-0.536959	0.393689
O4	O	-0.026396	-0.502628	0.488803
O5	O	0.130140	-0.509767	0.420792
O6	O	0.048179	-0.427891	0.420881
O7	O	0.082762	-0.557312	0.515817
Cu8	Cu	0.067954	-0.490119	0.470823
Cu9	Cu	0.035790	-0.522276	0.438771
O10	O	0.000801	-0.475436	0.515906
N11	N	0.090577	-0.467504	0.493370
N12	N	0.013171	-0.544895	0.416225
C13	C	0.143377	-0.280390	0.546067
C14	C	0.143515	-0.414755	0.680369
C15	C	0.143392	-0.414735	0.546069
C16	C	0.277766	-0.414702	0.545966
C17	C	0.158177	-0.324719	0.560828
C18	C	0.158255	-0.399967	0.636038
C19	C	0.233434	-0.399936	0.560773
C20	C	0.158186	-0.399955	0.560829
C21	C	0.124540	-0.223964	0.527278
C22	C	0.124565	-0.433545	0.527281
C23	C	0.177014	-0.381145	0.579617
C24	C	0.359814	-0.400540	0.502735
C25	C	0.411105	-0.417624	0.485606
C26	C	0.411136	-0.500620	0.517255
C27	C	0.359845	-0.483534	0.534385
C28	C	0.136887	-0.198305	0.476855
C29	C	0.119761	-0.147011	0.459777
C30	C	0.077945	-0.147038	0.543547
C31	C	0.095072	-0.198332	0.560625
C32	C	0.074134	-0.421169	0.539710
C33	C	0.057023	-0.438269	0.522625
C34	C	0.140770	-0.480120	0.480694
C35	C	0.157883	-0.463020	0.497773
C36	C	0.074339	-0.421208	0.762475
C37	C	0.057288	-0.438323	0.813768
C38	C	0.141075	-0.480183	0.813699
C39	C	0.158125	-0.463069	0.762404
C40	C	0.124756	-0.433580	0.736794
C41	C	0.334186	-0.433494	0.527123
C42	C	-0.173769	-0.597444	0.363037
C43	C	-0.039302	-0.597595	0.228856
C44	C	-0.039496	-0.597587	0.363300
C45	C	-0.039512	-0.731889	0.363237
C46	C	-0.129442	-0.612265	0.348329
C47	C	-0.054138	-0.612351	0.273187
C48	C	-0.054257	-0.687554	0.348440
C49	C	-0.054247	-0.612346	0.348477
C50	C	-0.230191	-0.578579	0.381758
C51	C	-0.020722	-0.578803	0.382168
C52	C	-0.073020	-0.631130	0.329609
C53	C	-0.053713	-0.813916	0.406386
C54	C	-0.036654	-0.865210	0.423504
C55	C	0.046338	-0.865293	0.391984
C56	C	0.029278	-0.813999	0.374865
C57	C	-0.255900	-0.590938	0.432169
C58	C	-0.307191	-0.573786	0.449185
C59	C	-0.307060	-0.531922	0.365377
C60	C	-0.255769	-0.549074	0.348360
C61	C	-0.033081	-0.528377	0.369764
C62	C	-0.016014	-0.511306	0.386922
C63	C	0.025770	-0.595083	0.428877
C64	C	0.008703	-0.612156	0.411725
C65	C	-0.032755	-0.528393	0.146761
C66	C	-0.015585	-0.511324	0.095468
C67	C	0.026262	-0.595106	0.095516
C68	C	0.009094	-0.612174	0.146811
C69	C	-0.020417	-0.578816	0.172432
C70	C	-0.020748	-0.788312	0.382068
N71	N	0.436037	-0.467415	0.493101
O72	O	0.592642	-0.471896	0.376066
O73	O	0.592838	-0.567146	0.505347
O74	O	0.592754	-0.566928	0.423360
O75	O	0.592727	-0.472113	0.458053
O76	O	0.511269	-0.539835	0.450606
O77	O	0.511353	-0.540052	0.532594
O78	O	0.511157	-0.444802	0.403312
Cu79	Cu	0.503815	-0.489954	0.470441
Cu80	Cu	0.600180	-0.521995	0.438219
O81	O	0.511242	-0.445020	0.485300
N82	N	0.667959	-0.544533	0.415554
N83	N	0.090544	-0.122107	0.493359
O84	O	-0.026406	0.034587	0.488773
O85	O	0.102877	0.034627	0.393499
O86	O	0.020848	0.034591	0.393771
O87	O	0.055623	0.034623	0.488500
O88	O	0.048051	-0.046899	0.420925
O89	O	0.130080	-0.046864	0.420653
O90	O	0.000796	-0.046903	0.515927
Cu91	Cu	0.067922	-0.054324	0.470769
Cu92	Cu	0.035752	0.042048	0.438656
O93	O	0.082825	-0.046867	0.515655
N94	N	0.013123	0.109830	0.416068
N95	N	0.090892	-0.467554	0.838649
O96	O	0.086330	-0.584488	0.995334
O97	O	-0.008902	-0.455160	0.995379
O98	O	-0.008679	-0.537172	0.995355
O99	O	0.086107	-0.502475	0.995358
O100	O	0.018452	-0.509990	0.913868
O101	O	0.018230	-0.427978	0.913891
O102	O	0.113461	-0.557306	0.913847
Cu103	Cu	0.068323	-0.490160	0.906429
Cu104	Cu	0.036237	-0.522306	1.002797
O105	O	0.113239	-0.475293	0.913870
N106	N	0.013667	-0.544916	1.070577
C107	C	0.031339	-0.425179	0.394250
C108	C	0.132837	-0.526572	0.394139
C109	C	0.072405	-0.587216	0.515344
C110	C	-0.029093	-0.485823	0.515455
C111	C	0.552119	-0.566716	0.535258
C112	C	0.552016	-0.566447	0.433726
C113	C	0.551873	-0.445232	0.373402
C114	C	0.551980	-0.445502	0.474933
C115	C	0.132731	-0.006013	0.393923
C116	C	0.031182	-0.006158	0.394293
C117	C	-0.029092	-0.006163	0.515469
C118	C	0.072491	-0.006119	0.515133
C119	C	-0.008451	-0.425276	0.954641
C120	C	-0.008170	-0.526833	0.954596
C121	C	0.113010	-0.587190	0.954585
C122	C	0.112735	-0.485627	0.954611
H123	H	0.016234	-0.428240	0.834672
H124	H	-0.066242	-0.478508	0.545321
O125	O	0.436115	-0.549225	0.524335
C126	C	0.465809	-0.566998	0.552212
H127	H	0.473489	-0.535329	0.548187
H128	H	0.501877	-0.595359	0.538580
H129	H	0.446074	-0.584677	0.592412
O130	O	0.552251	-0.602452	0.579511
C131	C	0.594485	-0.643707	0.573013
H132	H	0.608518	-0.643143	0.533915
H133	H	0.585043	-0.678527	0.599859
H134	H	0.624046	-0.642811	0.580009
O135	O	-0.061353	-0.495967	0.171624
C136	C	-0.035452	-0.466336	0.159133
H137	H	0.005584	-0.486179	0.145098
H138	H	-0.044678	-0.458567	0.192875
H139	H	-0.046319	-0.430303	0.129326
O140	O	0.148726	-0.631462	0.954482
C141	C	0.190002	-0.624994	0.912281
H142	H	0.178180	-0.589113	0.882793
H143	H	0.207542	-0.656774	0.898103
H144	H	0.217660	-0.623865	0.921822
O145	O	0.552007	-0.601922	0.424800
C146	C	0.551959	-0.584075	0.376648
H147	H	0.536491	-0.542340	0.363776
H148	H	0.528307	-0.599016	0.375964
H149	H	0.591038	-0.596436	0.351267
H150	H	0.023733	-0.006162	0.364531
O151	O	0.148311	-0.476860	0.954625
C152	C	0.190603	-0.518929	0.954594
H153	H	0.179912	-0.552617	0.970018
H154	H	0.208863	-0.523220	0.978245
H155	H	0.217232	-0.514967	0.915495
O156	O	0.041903	-0.392633	0.737621
C157	C	0.012244	-0.418537	0.750187
H158	H	0.032071	-0.459574	0.764266
H159	H	0.004452	-0.409354	0.716472
H160	H	-0.023774	-0.407630	0.779984
H161	H	-0.038348	-0.388133	0.954654
H162	H	-0.066220	-0.006175	0.545378
H163	H	0.129813	-0.126117	0.418717
O164	O	0.081464	-0.006140	0.550596
C165	C	0.129621	-0.006114	0.532722
H166	H	0.152782	-0.021531	0.501264
H167	H	0.146135	-0.029774	0.563392
H168	H	0.128888	0.032985	0.519057
O169	O	0.081137	-0.631571	0.550935
C170	C	0.047530	-0.653346	0.564134
H171	H	0.013591	-0.623676	0.554329
H172	H	0.036547	-0.673945	0.605246
H173	H	0.065275	-0.680025	0.543501
H174	H	-0.037935	-0.534246	0.954563
O175	O	0.551821	-0.409614	0.329076
C176	C	0.551786	-0.427251	0.298597
H177	H	0.567259	-0.468986	0.311841
H178	H	0.575392	-0.412199	0.259335
H179	H	0.512681	-0.414830	0.299967
H180	H	0.551974	-0.415718	0.482355
H181	H	0.168250	-0.504186	0.834549
H182	H	0.199181	-0.473148	0.741498
O183	O	0.176957	-0.005821	0.358167
C184	C	0.198804	-0.047929	0.344817
H185	H	0.182808	-0.077591	0.376234
H186	H	0.240042	-0.061902	0.336590
H187	H	0.191228	-0.038346	0.310832
O188	O	-0.028033	-0.462306	0.374800
C189	C	-0.057664	-0.436527	0.345033
H190	H	-0.051105	-0.460997	0.326384
H191	H	-0.047989	-0.402331	0.316016
H192	H	-0.097857	-0.425407	0.368630
O193	O	0.041703	-0.392521	0.568347
C194	C	-0.006478	-0.385273	0.575657
H195	H	-0.006412	-0.390999	0.544741
H196	H	-0.030837	-0.346374	0.575942
H197	H	-0.021143	-0.412583	0.612199
H198	H	0.167905	-0.504126	0.456671
O199	O	0.008047	-0.426338	0.534715
C200	C	-0.004319	-0.469448	0.560542
H201	H	0.029490	-0.501665	0.551262
H202	H	-0.034079	-0.464867	0.549652
H203	H	-0.018365	-0.476671	0.601596
H204	H	0.338981	-0.510371	0.554246
O205	O	0.206888	-0.475097	0.485667
C206	C	0.232625	-0.504765	0.455945
H207	H	0.208168	-0.523428	0.462513
H208	H	0.266882	-0.533774	0.465518
H209	H	0.243636	-0.481084	0.415771
O210	O	0.435981	-0.385582	0.461839
C211	C	0.423395	-0.350755	0.419575
H212	H	0.409278	-0.366563	0.407806
H213	H	0.457108	-0.341357	0.388767
H214	H	0.393623	-0.316182	0.427975
O215	O	0.334865	-0.351923	0.495619
C216	C	0.305155	-0.334155	0.467759
H217	H	0.320598	-0.359077	0.445835
H218	H	0.304550	-0.295446	0.441595
H219	H	0.266293	-0.333575	0.493318
H220	H	0.023949	-0.388000	0.364433
H221	H	0.160882	-0.219171	0.449698
H222	H	0.085016	-0.219221	0.601683
O223	O	0.049311	-0.122213	0.576006
C224	C	0.042104	-0.155861	0.624174
H225	H	0.047840	-0.192427	0.624082
H226	H	0.003215	-0.141058	0.648553
H227	H	0.069427	-0.161309	0.638839
H228	H	0.050281	-0.622271	0.074658
O229	O	-0.027603	-0.462352	0.070482
C230	C	-0.053376	-0.449938	0.040753
H231	H	-0.044113	-0.483740	0.033064
H232	H	-0.042418	-0.420211	0.004691
H233	H	-0.094436	-0.435826	0.060464
O234	O	0.021021	-0.661163	0.171725
C235	C	0.003510	-0.682437	0.159127
H236	H	-0.028085	-0.653206	0.144964
H237	H	-0.009853	-0.712650	0.192846
H238	H	0.034308	-0.698658	0.129384
O239	O	-0.061662	-0.496045	0.341043
C240	C	-0.074089	-0.521926	0.328572
H241	H	-0.045849	-0.560268	0.331664
H242	H	-0.074596	-0.501677	0.289366
H243	H	-0.111869	-0.524759	0.354602
O244	O	0.054337	-0.627552	0.457597
C245	C	0.061597	-0.675720	0.464851
H246	H	0.030696	-0.675597	0.459056
H247	H	0.061808	-0.700064	0.503772
H248	H	0.098157	-0.690448	0.437591
H249	H	0.056124	-0.793157	0.355062
O250	O	0.020649	-0.661125	0.423738
C251	C	-0.000710	-0.669042	0.402245
H252	H	-0.033609	-0.635363	0.394460
H253	H	-0.013183	-0.702267	0.428412
H254	H	0.027389	-0.675901	0.366486
O255	O	0.094951	-0.890170	0.384930
C256	C	0.120389	-0.856572	0.359806
H257	H	0.098055	-0.819997	0.338749
H258	H	0.157393	-0.871427	0.333069
H259	H	0.126287	-0.851124	0.387283
H260	H	-0.063498	-0.886058	0.443304
O261	O	-0.102300	-0.788978	0.413302
C262	C	-0.117917	-0.801504	0.390214
H263	H	-0.085131	-0.815643	0.359947
H264	H	-0.146119	-0.767753	0.373718
H265	H	-0.135129	-0.831244	0.418307
O266	O	-0.231110	-0.619648	0.464659
C267	C	-0.243683	-0.662642	0.494289
H268	H	-0.280907	-0.655723	0.494724
H269	H	-0.245497	-0.673454	0.533210
H270	H	-0.214812	-0.693517	0.478895
O271	O	-0.332225	-0.585810	0.498144
C272	C	-0.361896	-0.611597	0.510476
H273	H	-0.369521	-0.602339	0.476634
H274	H	-0.397992	-0.600647	0.540178
H275	H	-0.342169	-0.652658	0.524587
H276	H	-0.327887	-0.507903	0.338181
H277	H	-0.234840	-0.539009	0.307312
H278	H	0.169984	-0.533889	0.364272
