data_functionalizedCrystal
_audit_creation_method	'MofGen! by Chris Wilmer'
_symmetry_space_group_name_H-M	'P1'
_symmetry_Int_Tables_number	1
_symmetry_cell_setting	triclinic
loop_
_symmetry_equiv_pos_as_xyz
  x,y,z
_cell_length_a	6.817900
_cell_length_b	14.858565
_cell_length_c	19.453114
_cell_angle_alpha	95.586354
_cell_angle_beta	101.709288
_cell_angle_gamma	104.523916
loop_
_atom_site_label
_atom_site_type_symbol
_atom_site_fract_x
_atom_site_fract_y
_atom_site_fract_z
V1	V	-4.012078	-0.129639	-0.219196
V2	V	-3.512078	0.370361	0.280804
O3	O	-3.994529	0.005233	-0.214822
O4	O	-3.494529	0.505233	0.285178
O5	O	-3.968832	-0.256094	-0.217891
O6	O	-3.468832	0.243906	0.282109
O7	O	-3.954929	-0.128082	-0.314707
O8	O	-3.454929	0.371918	0.185293
O9	O	-4.008528	-0.123665	-0.117336
O10	O	-3.508528	0.376335	0.382664
V11	V	-4.496171	-0.113455	-0.206989
V12	V	-3.996171	0.386545	0.293011
O13	O	-4.272084	-0.165140	-0.245973
O14	O	-3.772084	0.334860	0.254027
O15	O	-4.686362	-0.077954	-0.180213
O16	O	-4.186362	0.422046	0.319787
O17	O	-4.316211	0.013000	-0.208295
O18	O	-3.816211	0.513000	0.291705
O19	O	-4.631117	-0.248328	-0.211364
O20	O	-4.131117	0.251672	0.288636
O21	O	-4.617118	-0.119429	-0.308850
O22	O	-4.117118	0.380571	0.191150
O23	O	-4.330113	-0.115012	-0.111479
O24	O	-3.830113	0.384988	0.388521
C25	C	-3.815370	-0.286908	-0.214483
C26	C	-3.315370	0.213092	0.285517
C27	C	-3.861240	-0.390289	-0.214052
C28	C	-3.361240	0.109711	0.285948
C29	C	-4.029129	-0.768853	-0.212486
C30	C	-3.529129	-0.268853	0.287514
C31	C	-3.982409	-0.663525	-0.212921
C32	C	-3.482409	-0.163525	0.287079
C33	C	-3.945185	-0.579575	-0.213268
C34	C	-3.445185	-0.079575	0.286732
C35	C	-3.898463	-0.474240	-0.213705
C36	C	-3.398463	0.025760	0.286295
C37	C	-3.797635	-0.123614	-0.337981
C38	C	-3.297635	0.376386	0.162019
C39	C	-3.832227	-0.123178	-0.416062
C40	C	-3.332227	0.376822	0.083938
C41	C	-4.030451	-0.127641	-0.456326
C42	C	-3.530451	0.372359	0.043674
C43	C	-4.062955	-0.127231	-0.529692
C44	C	-3.562955	0.372769	-0.029692
C45	C	-3.897233	-0.122377	-0.562794
C46	C	-3.397233	0.377623	-0.062794
C47	C	-3.698978	-0.117908	-0.522520
C48	C	-3.198978	0.382092	-0.022520
C49	C	-3.666475	-0.118309	-0.449154
C50	C	-3.166475	0.381691	0.050846
N51	N	-3.839491	-0.171490	-0.681658
N52	N	-3.339491	0.328510	-0.181658
N53	N	-3.870381	-0.171112	-0.751353
N54	N	-3.370381	0.328888	-0.251353
C55	C	-3.995150	-0.121168	-0.783840
C56	C	-3.495150	0.378832	-0.283840
N57	N	-4.087898	-0.071629	-0.744002
N58	N	-3.587898	0.428371	-0.244002
N59	N	-4.057014	-0.072012	-0.674301
N60	N	-3.557014	0.427988	-0.174301
C61	C	-3.932456	-0.121942	-0.642346
C62	C	-3.432456	0.378058	-0.142346
C63	C	-4.228630	-0.125186	-0.903656
C64	C	-3.728630	0.374814	-0.403656
C65	C	-4.261124	-0.124770	-0.977023
C66	C	-3.761124	0.375230	-0.477023
C67	C	-3.897146	-0.115456	-0.969850
C68	C	-3.397146	0.384544	-0.469850
C69	C	-3.864653	-0.115863	-0.896484
C70	C	-3.364653	0.384137	-0.396484
C71	C	-4.030405	-0.120732	-0.863392
C72	C	-3.530405	0.379268	-0.363392
C73	C	-4.133015	0.043809	-0.211701
C74	C	-3.633015	0.543809	0.288299
C75	C	-4.066383	0.147189	-0.212136
C76	C	-3.566383	0.647189	0.287864
C77	C	-4.150751	-0.119483	-0.088201
C78	C	-3.650751	0.380517	0.411799
C79	C	-4.095396	-0.119914	-0.010119
C80	C	-3.595396	0.380086	0.489881
H81	H	-4.165421	-0.131603	-0.429387
H82	H	-3.665421	0.368397	0.070613
H83	H	-4.363593	-0.129148	-0.876711
H84	H	-3.863593	0.370852	-0.376711
H85	H	-4.422541	-0.128398	-1.009804
H86	H	-3.922541	0.371602	-0.509804
O87	O	-3.538095	-0.113072	-0.554737
O88	O	-3.038095	0.386928	-0.054737
C89	C	-3.505388	-0.031592	-0.587299
C90	C	-3.005388	0.468408	-0.087299
H91	H	-3.654730	-0.008587	-0.598185
H92	H	-3.154730	0.491413	-0.098185
H93	H	-3.460355	-0.047549	-0.639542
H94	H	-2.960355	0.452451	-0.139542
H95	H	-3.374632	0.027246	-0.550500
H96	H	-2.874632	0.527246	-0.050500
O97	O	-3.473950	-0.114154	-0.410101
O98	O	-2.973950	0.385846	0.089899
C99	C	-3.411801	-0.192174	-0.435529
C100	C	-2.911801	0.307826	0.064471
H101	H	-3.555613	-0.251365	-0.464534
H102	H	-3.055613	0.248635	0.035466
H103	H	-3.321488	-0.217514	-0.388905
H104	H	-2.821488	0.282486	0.111095
H105	H	-3.308049	-0.170733	-0.473706
H106	H	-2.808049	0.329267	0.026294
O107	O	-3.736252	-0.110616	-1.002059
O108	O	-3.236252	0.389384	-0.502059
C109	C	-3.703534	-0.029131	-1.034615
C110	C	-3.203534	0.470869	-0.534615
H111	H	-3.852875	-0.006125	-1.045503
H112	H	-3.352875	0.493875	-0.545503
H113	H	-3.658491	-0.045082	-1.086858
H114	H	-3.158491	0.454918	-0.586858
H115	H	-3.572782	0.029703	-0.997812
H116	H	-3.072782	0.529703	-0.497812
H117	H	-3.703244	-0.112238	-0.863701
H118	H	-3.203244	0.387762	-0.363701
H119	H	-4.224380	-0.130871	-0.562482
H120	H	-3.724380	0.369129	-0.062482
