data_functionalizedCrystal
_audit_creation_method	'MofGen! by Chris Wilmer'
_symmetry_space_group_name_H-M	'P1'
_symmetry_Int_Tables_number	1
_symmetry_cell_setting	triclinic
loop_
_symmetry_equiv_pos_as_xyz
  x,y,z
_cell_length_a	29.839131
_cell_length_b	19.805407
_cell_length_c	29.839126
_cell_angle_alpha	90.019086
_cell_angle_beta	90.024152
_cell_angle_gamma	90.038737
loop_
_atom_site_label
_atom_site_type_symbol
_atom_site_fract_x
_atom_site_fract_y
_atom_site_fract_z
Zn1	Zn	-0.178920	1.034674	0.253999
Zn2	Zn	0.321080	1.534674	0.753999
Zn3	Zn	-0.254040	1.034556	0.178869
Zn4	Zn	0.245960	1.534556	0.678869
Zn5	Zn	-0.178922	0.921486	0.178882
Zn6	Zn	0.321078	1.421486	0.678882
Zn7	Zn	-0.254020	0.921422	0.253971
Zn8	Zn	0.245980	1.421422	0.753971
O9	O	-0.216476	0.978034	0.216430
O10	O	0.283524	1.478034	0.716430
O11	O	-0.188893	1.129375	0.244038
O12	O	0.311107	1.629375	0.744038
O13	O	-0.244085	1.019535	0.116003
O14	O	0.255915	1.519535	0.616003
O15	O	-0.116054	0.936576	0.188864
O16	O	0.383946	1.436576	0.688864
O17	O	-0.244083	1.129288	0.188841
O18	O	0.255917	1.629288	0.688841
O19	O	-0.116053	1.019735	0.244051
O20	O	0.383947	1.519735	0.744051
O21	O	-0.188896	0.936462	0.116013
O22	O	0.311104	1.436462	0.616013
O23	O	-0.188876	0.826761	0.188837
O24	O	0.311124	1.326761	0.688837
O25	O	-0.244049	0.936468	0.316842
O26	O	0.255951	1.436468	0.816842
O27	O	-0.244050	0.826714	0.244004
O28	O	0.255950	1.326714	0.744004
O29	O	-0.188873	1.019673	0.316862
O30	O	0.311127	1.519673	0.816862
O31	O	-0.316905	1.019473	0.188814
O32	O	0.183095	1.519473	0.688814
O33	O	-0.316890	0.936354	0.243991
O34	O	0.183110	1.436354	0.743991
C35	C	-0.216461	0.802178	0.216419
C36	C	0.283539	1.302178	0.716419
C37	C	-0.216466	0.726946	0.216425
C38	C	0.283534	1.226946	0.716425
C39	C	-0.187779	0.691648	0.245210
C40	C	0.312221	1.191648	0.745210
C41	C	-0.187782	0.620959	0.245212
C42	C	0.312218	1.120959	0.745212
C43	C	-0.216474	0.585571	0.216430
C44	C	0.283526	1.085571	0.716430
C45	C	-0.245162	0.620874	0.187642
C46	C	0.254838	1.120874	0.687642
C47	C	-0.245157	0.691562	0.187638
C48	C	0.254843	1.191562	0.687638
C49	C	-0.245182	0.335801	0.187656
C50	C	0.254818	0.835801	0.687656
C51	C	-0.245186	0.265109	0.187663
C52	C	0.254814	0.765109	0.687663
C53	C	-0.187807	0.265199	0.245229
C54	C	0.312193	0.765199	0.745229
C55	C	-0.187802	0.335886	0.245226
C56	C	0.312198	0.835886	0.745226
C57	C	-0.216488	0.371183	0.216436
C58	C	0.283512	0.871183	0.716436
C59	C	-0.216485	0.447832	0.216434
C60	C	0.283515	0.947832	0.716434
C61	C	-0.216480	0.508924	0.216435
C62	C	0.283520	1.008924	0.716435
C63	C	-0.333198	0.977912	0.216408
C64	C	0.166802	1.477912	0.716408
C65	C	-0.383133	0.977922	0.216413
C66	C	0.116867	1.477922	0.716413
C67	C	-0.692771	1.021393	0.187741
C68	C	-0.192771	1.521393	0.687741
C69	C	-0.880444	1.021477	0.187759
C70	C	-0.380444	1.521477	0.687759
O71	O	-0.904705	1.058341	0.163363
O72	O	-0.404705	1.558341	0.663363
N73	N	-0.903918	0.978175	0.216464
N74	N	-0.403918	1.478175	0.716464
C75	C	-0.880470	0.934852	0.245169
C76	C	-0.380470	1.434852	0.745169
O77	O	-0.904742	0.898028	0.269588
O78	O	-0.404742	1.398028	0.769588
C79	C	-0.692798	0.934772	0.245153
C80	C	-0.192798	1.434772	0.745153
C81	C	-0.669327	0.978072	0.216443
C82	C	-0.169327	1.478072	0.716443
C83	C	-0.669300	1.064690	0.159033
C84	C	-0.169300	1.564690	0.659033
C85	C	-0.622384	1.064666	0.159028
C86	C	-0.122384	1.564666	0.659028
C87	C	-0.598940	1.021345	0.187730
C88	C	-0.098940	1.521345	0.687730
C89	C	-0.622411	0.978048	0.216437
C90	C	-0.122411	1.478048	0.716437
C91	C	-0.669351	0.891453	0.273860
C92	C	-0.169351	1.391453	0.773860
C93	C	-0.622430	0.891438	0.273855
C94	C	-0.122430	1.391438	0.773855
C95	C	-0.598959	0.934738	0.245144
C96	C	-0.098959	1.434738	0.745144
C97	C	-0.552051	0.934703	0.245133
C98	C	-0.052051	1.434703	0.745133
N99	N	-0.528578	0.978005	0.216428
N100	N	-0.028578	1.478005	0.716428
C101	C	-0.552022	1.021326	0.187726
C102	C	-0.052022	1.521326	0.687726
C103	C	-0.979001	0.934896	0.245174
C104	C	-0.479001	1.434896	0.745174
C105	C	-1.025918	0.934915	0.245178
C106	C	-0.525918	1.434915	0.745178
C107	C	-1.025889	1.021541	0.187768
C108	C	-0.525889	1.521541	0.687768
C109	C	-0.978971	1.021518	0.187763
C110	C	-0.478971	1.521518	0.687763
C111	C	-0.955527	0.978198	0.216469
C112	C	-0.455527	1.478198	0.716469
C113	C	-0.453496	1.021273	0.187716
C114	C	0.046504	1.521273	0.687716
C115	C	-0.406577	1.021243	0.187711
C116	C	0.093423	1.521243	0.687711
C117	C	-0.406610	0.934620	0.245123
C118	C	0.093390	1.434620	0.745123
C119	C	-0.453526	0.934647	0.245126
C120	C	0.046474	1.434647	0.745126
C121	C	-0.476968	0.977978	0.216421
C122	C	0.023032	1.477978	0.716421
O123	O	-0.527762	0.897864	0.269519
O124	O	-0.027762	1.397864	0.769519
O125	O	-0.527742	1.058156	0.163318
O126	O	-0.027742	1.558156	0.663318
C127	C	-0.739686	1.021417	0.187747
C128	C	-0.239686	1.521417	0.687747
C129	C	-0.763158	0.978120	0.216455
C130	C	-0.263158	1.478120	0.716455
C131	C	-0.739713	0.934799	0.245156
C132	C	-0.239713	1.434799	0.745156
C133	C	-0.810075	0.978139	0.216458
C134	C	-0.310075	1.478139	0.716458
C135	C	-0.833520	1.021460	0.187756
C136	C	-0.333520	1.521460	0.687756
C137	C	-0.810046	1.064762	0.159051
C138	C	-0.310046	1.564762	0.659051
C139	C	-0.763131	1.064738	0.159045
C140	C	-0.263131	1.564738	0.659045
C141	C	-0.763187	0.891497	0.273862
C142	C	-0.263187	1.391497	0.773862
C143	C	-0.810102	0.891524	0.273865
C144	C	-0.310102	1.391524	0.773865
C145	C	-0.833547	0.934845	0.245163
C146	C	-0.333547	1.434845	0.745163
C147	C	-0.099297	0.978176	0.216462
C148	C	0.400703	1.478176	0.716462
C149	C	-0.049363	0.978236	0.216476
C150	C	0.450637	1.478236	0.716476
C151	C	-0.216458	0.978076	0.333608
C152	C	0.283542	1.478076	0.833608
C153	C	-0.216451	0.978094	0.383543
C154	C	0.283549	1.478094	0.883543
C155	C	-0.216490	1.154577	0.216441
C156	C	0.283510	1.654577	0.716441
C157	C	-0.216496	1.229809	0.216446
C158	C	0.283504	1.729809	0.716446
C159	C	-0.216460	0.978032	0.099707
C160	C	0.283540	1.478032	0.599707
C161	C	-0.216341	0.978145	0.049773
C162	C	0.283659	1.478145	0.549773
C163	C	-0.187669	0.934852	0.693194
C164	C	0.312331	1.434852	1.193194
C165	C	-0.187638	0.934871	0.880867
C166	C	0.312362	1.434871	1.380867
O167	O	-0.163211	0.898071	0.905139
O168	O	0.336789	1.398071	1.405139
N169	N	-0.216367	0.978126	0.904328
N170	N	0.283633	1.478126	1.404328
C171	C	-0.245108	1.021377	0.880868
C172	C	0.254892	1.521377	1.380868
O173	O	-0.269546	1.058163	0.905129
O174	O	0.230454	1.558163	1.405129
C175	C	-0.245141	1.021354	0.693195
C176	C	0.254859	1.521354	1.193195
C177	C	-0.216407	0.978100	0.669737
C178	C	0.283593	1.478100	1.169737
C179	C	-0.158938	0.891602	0.669736
C180	C	0.341062	1.391602	1.169736
C181	C	-0.158944	0.891600	0.622821
C182	C	0.341056	1.391600	1.122821
C183	C	-0.187682	0.934848	0.599363
C184	C	0.312318	1.434848	1.099363
C185	C	-0.216413	0.978099	0.622822
C186	C	0.283587	1.478099	1.122822
C187	C	-0.273884	1.064600	0.669736
C188	C	0.226116	1.564600	1.169736
C189	C	-0.273890	1.064589	0.622815
C190	C	0.226110	1.564589	1.122815
C191	C	-0.245156	1.021336	0.599356
C192	C	0.254844	1.521336	1.099356
C193	C	-0.245157	1.021345	0.552449
C194	C	0.254843	1.521345	1.052449
N195	N	-0.216428	0.978090	0.528988
N196	N	0.283572	1.478090	1.028988
C197	C	-0.187690	0.934842	0.552446
C198	C	0.312310	1.434842	1.052446
C199	C	-0.245088	1.021387	0.979398
C200	C	0.254912	1.521387	1.479398
C201	C	-0.245079	1.021393	1.026316
C202	C	0.254921	1.521393	1.526316
C203	C	-0.187609	0.934887	1.026313
C204	C	0.312391	1.434887	1.526313
C205	C	-0.187616	0.934884	0.979394
C206	C	0.312384	1.434884	1.479394
C207	C	-0.216359	0.978131	0.955938
C208	C	0.283641	1.478131	1.455938
C209	C	-0.187706	0.934842	0.453920
C210	C	0.312294	1.434842	0.953920
C211	C	-0.187713	0.934846	0.407000
C212	C	0.312287	1.434846	0.907000
C213	C	-0.245184	1.021350	0.407007
C214	C	0.254816	1.521350	0.907007
C215	C	-0.245175	1.021348	0.453923
C216	C	0.254825	1.521348	0.953923
C217	C	-0.216434	0.978089	0.477378
C218	C	0.283566	1.478089	0.977378
O219	O	-0.269575	1.058121	0.528148
O220	O	0.230425	1.558121	1.028148
O221	O	-0.163263	0.898050	0.528176
O222	O	0.336737	1.398050	1.028176
C223	C	-0.187663	0.934854	0.740110
C224	C	0.312337	1.434854	1.240110
C225	C	-0.216394	0.978104	0.763568
C226	C	0.283606	1.478104	1.263568
C227	C	-0.245132	1.021352	0.740111
C228	C	0.254868	1.521352	1.240111
C229	C	-0.216385	0.978111	0.810486
C230	C	0.283615	1.478111	1.310486
C231	C	-0.187647	0.934862	0.833943
C232	C	0.312353	1.434862	1.333943
C233	C	-0.158918	0.891607	0.810482
C234	C	0.341082	1.391607	1.310482
C235	C	-0.158925	0.891605	0.763567
C236	C	0.341075	1.391605	1.263567
C237	C	-0.273861	1.064608	0.763571
C238	C	0.226139	1.564608	1.263571
C239	C	-0.273852	1.064606	0.810487
C240	C	0.226148	1.564606	1.310487
C241	C	-0.245114	1.021358	0.833944
C242	C	0.254886	1.521358	1.333944
H243	H	-0.387468	1.056503	0.164330
H244	H	0.112532	1.556503	0.664330
H245	H	-0.268580	1.056563	0.387900
H246	H	0.231420	1.556563	0.887900
H247	H	-0.268516	0.720301	0.164198
H248	H	0.231484	1.220301	0.664198
H249	H	-0.268521	0.592055	0.164206
H250	H	0.231479	1.092055	0.664206
C251	C	-0.156225	0.582134	0.276879
C252	C	0.343775	1.082134	0.776879
N253	N	-0.132455	0.552891	0.300733
N254	N	0.367545	1.052891	0.800733
H255	H	-0.472637	0.899390	0.268505
H256	H	0.027363	1.399390	0.768505
C257	C	-0.156244	0.226365	0.276892
C258	C	0.343756	0.726365	0.776892
N259	N	-0.132470	0.197117	0.300738
N260	N	0.367530	0.697117	0.800738
H261	H	-0.268551	0.236298	0.164224
H262	H	0.231449	0.736298	0.664224
C263	C	-0.276740	0.374619	0.155988
C264	C	0.223260	0.874619	0.655988
N265	N	-0.300511	0.403859	0.132135
N266	N	0.199489	0.903859	0.632135
H267	H	-0.472577	1.056559	0.164343
H268	H	0.027423	1.556559	0.664343
C269	C	-0.156215	0.730569	0.276872
C270	C	0.343785	1.230569	0.776872
N271	N	-0.132438	0.759882	0.300720
N272	N	0.367562	1.259882	0.800720
C273	C	-0.596572	1.112295	0.127440
C274	C	-0.096572	1.612295	0.627440
N275	N	-0.577134	1.148169	0.103645
N276	N	-0.077134	1.648169	0.603645
C277	C	-0.156104	0.887260	0.381199
C278	C	0.343896	1.387260	0.881199
N279	N	-0.132297	0.851418	0.361767
N280	N	0.367703	1.351418	0.861767
H281	H	-0.268495	1.056604	0.960304
H282	H	0.231505	1.556604	1.460304
H283	H	-0.387514	0.899346	0.268490
H284	H	0.112486	1.399346	0.768490
C285	C	-0.695081	1.112347	0.127454
C286	C	-0.195081	1.612347	0.627454
N287	N	-0.714497	1.148241	0.103663
N288	N	-0.214497	1.648241	0.603663
C289	C	-1.051731	0.887275	0.276757
C290	C	-0.551731	1.387275	0.776757
N291	N	-1.071172	0.851394	0.300546
N292	N	-0.571172	1.351394	0.800546
C293	C	-0.953157	1.069153	0.156181
C294	C	-0.453157	1.569153	0.656181
N295	N	-0.933716	1.105035	0.132392
N296	N	-0.433716	1.605035	0.632392
C297	C	-0.596645	0.843782	0.305435
C298	C	-0.096645	1.343782	0.805435
N299	N	-0.577225	0.807886	0.329221
N300	N	-0.077225	1.307886	0.829221
C301	C	-1.051687	1.069198	0.156198
C302	C	-0.551687	1.569198	0.656198
N303	N	-1.071120	1.105095	0.132424
N304	N	-0.571120	1.605095	0.632424
H305	H	-0.959916	0.899618	0.268551
H306	H	-0.459916	1.399618	0.768551
C307	C	-0.156237	0.374809	0.276886
C308	C	0.343763	0.874809	0.776886
N309	N	-0.132460	0.404126	0.300731
N310	N	0.367540	0.904126	0.800731
H311	H	-0.688453	0.856190	0.297237
H312	H	-0.188453	1.356190	0.797237
C313	C	-0.835844	1.112415	0.127478
C314	C	-0.335844	1.612415	0.627478
N315	N	-0.855277	1.148307	0.103701
N316	N	-0.355277	1.648307	0.603701
H317	H	-0.829208	0.856258	0.297244
H318	H	-0.329208	1.356258	0.797244
H319	H	-0.744024	1.099997	0.135666
H320	H	-0.244024	1.599997	0.635666
H321	H	-0.744102	0.856221	0.297235
H322	H	-0.244102	1.356221	0.797235
C323	C	-0.156087	0.887258	0.479713
C324	C	0.343913	1.387258	0.979713
N325	N	-0.132268	0.851423	0.499141
N326	N	0.367732	1.351423	0.999141
C327	C	-0.276781	1.068933	0.479728
C328	C	0.223219	1.568933	0.979728
N329	N	-0.300591	1.104769	0.499161
N330	N	0.199409	1.604769	0.999161
C331	C	-0.127338	0.844011	0.597023
C332	C	0.372662	1.344011	1.097023
N333	N	-0.103532	0.808162	0.577595
N334	N	0.396468	1.308162	1.077595
H335	H	-0.135536	0.856380	0.688830
H336	H	0.364464	1.356380	1.188830
C337	C	-0.156010	0.887298	0.953594
C338	C	0.343990	1.387298	1.453594
N339	N	-0.132204	0.851452	0.934164
N340	N	0.367796	1.351452	1.434164
H341	H	-0.297282	1.099821	0.688827
H342	H	0.202718	1.599821	1.188827
C343	C	-0.156000	0.887309	1.052124
C344	C	0.344000	1.387309	1.552124
N345	N	-0.132196	0.851472	1.071568
N346	N	0.367804	1.351472	1.571568
H347	H	-0.268472	1.056622	1.045412
H348	H	0.231528	1.556622	1.545412
C349	C	-0.305507	1.112170	0.597015
C350	C	0.194493	1.612170	1.097015
N351	N	-0.329319	1.148011	0.577584
N352	N	0.170681	1.648011	1.077584
H353	H	-0.135527	0.856384	0.744471
H354	H	0.364473	1.356384	1.244471
H355	H	-0.135517	0.856395	0.829590
H356	H	0.364483	1.356395	1.329590
C357	C	-0.305464	1.112191	0.836286
C358	C	0.194536	1.612191	1.336286
N359	N	-0.329277	1.148027	0.855716
N360	N	0.170723	1.648027	1.355716
C361	C	-0.305462	1.112208	0.737775
C362	C	0.194538	1.612208	1.237775
N363	N	-0.329260	1.148074	0.718347
N364	N	0.170740	1.648074	1.218347
