data_functionalizedCrystal
_audit_creation_method	'MofGen! by Chris Wilmer'
_symmetry_space_group_name_H-M	'P1'
_symmetry_Int_Tables_number	1
_symmetry_cell_setting	triclinic
loop_
_symmetry_equiv_pos_as_xyz
  x,y,z
_cell_length_a	16.959455
_cell_length_b	18.101397
_cell_length_c	16.959447
_cell_angle_alpha	89.966244
_cell_angle_beta	89.983056
_cell_angle_gamma	90.017413
loop_
_atom_site_label
_atom_site_type_symbol
_atom_site_fract_x
_atom_site_fract_y
_atom_site_fract_z
Zn1	Zn	1.208402	-0.294875	-0.446890
Zn2	Zn	1.208318	-0.418728	-0.314704
Zn3	Zn	1.076224	-0.294898	-0.314728
Zn4	Zn	1.076194	-0.418672	-0.446843
O5	O	1.142285	-0.356793	-0.380791
O6	O	1.319002	-0.311318	-0.429365
O7	O	1.190772	-0.402335	-0.204096
O8	O	1.093806	-0.191262	-0.332289
O9	O	1.318940	-0.402312	-0.332249
O10	O	1.190916	-0.191245	-0.429389
O11	O	1.093724	-0.311357	-0.204114
O12	O	0.965610	-0.311304	-0.332243
O13	O	1.093755	-0.402217	-0.557460
O14	O	0.965587	-0.402240	-0.429307
O15	O	1.190887	-0.311264	-0.557495
O16	O	1.190743	-0.522353	-0.332203
O17	O	1.093673	-0.522313	-0.429284
C18	C	0.936918	-0.356769	-0.380773
C19	C	0.849062	-0.356776	-0.380784
C20	C	1.142217	-0.549204	-0.380753
C21	C	1.142260	-0.631518	-0.380763
C22	C	0.477573	-0.309404	-0.330355
C23	C	0.477599	-0.404244	-0.431272
C24	C	0.560145	-0.404233	-0.431267
C25	C	0.601409	-0.356808	-0.380805
C26	C	0.560127	-0.309393	-0.330347
C27	C	0.601433	-0.451652	-0.481718
C28	C	0.683984	-0.451644	-0.481715
C29	C	0.725249	-0.404214	-0.431256
C30	C	0.683962	-0.356797	-0.380797
C31	C	0.725226	-0.309372	-0.330334
C32	C	0.683941	-0.261951	-0.279879
C33	C	0.601392	-0.261964	-0.279888
C34	C	0.807798	-0.404201	-0.431246
C35	C	0.807780	-0.309362	-0.330326
C36	C	1.142361	-0.930609	-0.380835
C37	C	1.203265	-0.899278	-0.319590
C38	C	1.203476	-0.813660	-0.319749
C39	C	1.142311	-0.782226	-0.380799
C40	C	1.164890	-0.813230	-0.464115
C41	C	1.165362	-0.898875	-0.463781
C42	C	1.058716	-0.899115	-0.359484
C43	C	1.059129	-0.813465	-0.357625
C44	C	1.142282	-0.698367	-0.380783
C45	C	1.142393	-1.014468	-0.380856
C46	C	1.348453	-0.356818	-0.380810
C47	C	1.436309	-0.356829	-0.380818
C48	C	1.142327	-0.356732	-0.586959
C49	C	1.142345	-0.356705	-0.674816
C50	C	1.142374	-0.163631	-0.380847
C51	C	1.142412	-0.081317	-0.380871
C52	C	1.091886	-0.309260	-1.046307
C53	C	1.192943	-0.403995	-1.046277
C54	C	1.192929	-0.404012	-0.963731
C55	C	1.142392	-0.356653	-0.922469
C56	C	1.091869	-0.309277	-0.963754
C57	C	1.243446	-0.451393	-0.922440
C58	C	1.243434	-0.451413	-0.839889
C59	C	1.192900	-0.404050	-0.798626
C60	C	1.142376	-0.356671	-0.839916
C61	C	1.091839	-0.309312	-0.798654
C62	C	1.041317	-0.261929	-0.839942
C63	C	1.041336	-0.261914	-0.922491
C64	C	1.192882	-0.404064	-0.716078
C65	C	1.091822	-0.309329	-0.716101
C66	C	1.142288	-0.356801	-0.175425
C67	C	1.142423	-0.356619	-0.087569
H68	H	0.841371	-0.270737	-0.289238
H69	H	0.443997	-0.442859	-0.472352
Br70	Br	1.261432	-0.468372	-0.660047
H71	H	1.284582	-0.489959	-0.956041
H72	H	0.717548	-0.223341	-0.238789
H73	H	1.050755	-0.270680	-1.079928
Br74	Br	0.421547	-0.245043	-0.261889
H75	H	0.567770	-0.223357	-0.238809
H76	H	1.011310	-0.792075	-0.398966
H77	H	1.234082	-0.442558	-1.079877
H78	H	0.567830	-0.490268	-0.522796
Br79	Br	1.024476	-0.935221	-0.259980
H80	H	0.717592	-0.490256	-0.522799
H81	H	1.042104	-0.793209	-0.296311
H82	H	1.013338	-0.919376	-0.404092
H83	H	1.284571	-0.489996	-0.806279
H84	H	0.841409	-0.442813	-0.472324
H85	H	1.189350	-0.792701	-0.257971
Br86	Br	0.972776	-0.197616	-0.978529
Br87	Br	1.180013	-0.933691	-0.216310
Br88	Br	1.305974	-0.935060	-0.342860
Br89	Br	1.306746	-0.779416	-0.343297
H90	H	1.050671	-0.270760	-0.682511
H91	H	1.226502	-0.918796	-0.481867
Br92	Br	1.094628	-0.933418	-0.542421
Br93	Br	1.093210	-0.779304	-0.542219
H94	H	1.225347	-0.791725	-0.482506
Br95	Br	0.972734	-0.197659	-0.783935
