data_functionalizedCrystal
_audit_creation_method	'MofGen! by Chris Wilmer'
_symmetry_space_group_name_H-M	'P1'
_symmetry_Int_Tables_number	1
_symmetry_cell_setting	triclinic
loop_
_symmetry_equiv_pos_as_xyz
  x,y,z
_cell_length_a	19.077068
_cell_length_b	12.759401
_cell_length_c	12.759393
_cell_angle_alpha	90.018496
_cell_angle_beta	92.261232
_cell_angle_gamma	87.672919
loop_
_atom_site_label
_atom_site_type_symbol
_atom_site_fract_x
_atom_site_fract_y
_atom_site_fract_z
Zn1	Zn	-0.280156	-1.589361	-0.610733
Zn2	Zn	-0.397871	-1.582157	-0.442092
Zn3	Zn	-0.280192	-1.413661	-0.435075
Zn4	Zn	-0.397817	-1.406557	-0.617730
O5	O	-0.339009	-1.497934	-0.526408
O6	O	-0.295778	-1.735426	-0.588371
O7	O	-0.382299	-1.559764	-0.294142
O8	O	-0.181697	-1.442956	-0.452511
O9	O	-0.382263	-1.730133	-0.464471
O10	O	-0.181670	-1.572043	-0.581567
O11	O	-0.295841	-1.435971	-0.288987
O12	O	-0.295788	-1.265698	-0.459296
O13	O	-0.382171	-1.430848	-0.763821
O14	O	-0.382207	-1.260479	-0.593492
O15	O	-0.295726	-1.565154	-0.758680
O16	O	-0.496355	-1.552875	-0.471256
O17	O	-0.496315	-1.423862	-0.600297
C18	C	-0.338996	-1.224968	-0.526393
C19	C	-0.339007	-1.108190	-0.526412
C20	C	-0.521872	-1.486845	-0.537320
C21	C	-0.600102	-1.482197	-0.542023
C22	C	-0.338938	-1.498012	-0.800437
C23	C	-0.338908	-1.498045	-0.917212
C24	C	-0.636852	-1.547235	-0.477104
C25	C	-0.710357	-1.542870	-0.481534
C26	C	-0.747111	-1.473460	-0.550879
C27	C	-0.710356	-1.408418	-0.615805
C28	C	-0.636852	-1.412790	-0.611380
C29	C	-0.966943	-1.453182	-0.571318
C30	C	-1.040452	-1.448813	-0.575736
C31	C	-1.040448	-1.583267	-0.441466
C32	C	-0.966943	-1.587627	-0.437042
C33	C	-0.930195	-1.522590	-0.501972
N34	N	-0.822245	-1.468994	-0.555406
N35	N	-0.855062	-1.527062	-0.497450
C36	C	-0.155432	-1.509096	-0.515476
C37	C	-0.077202	-1.513852	-0.510817
C38	C	-0.339023	-1.771967	-0.526423
C39	C	-0.339028	-1.888743	-0.526430
C40	C	-0.384078	-1.050634	-0.596181
C41	C	-0.384086	-0.940909	-0.596193
C42	C	-0.293953	-0.946308	-0.456658
C43	C	-0.293941	-1.056030	-0.456652
C44	C	-0.436117	-1.047516	-0.676738
C45	C	-0.436126	-0.937791	-0.676750
C46	C	-0.293891	-1.567988	-0.969398
C47	C	-0.293866	-1.568014	-1.079121
C48	C	-0.383879	-1.428152	-1.084461
C49	C	-0.383901	-1.428122	-0.974740
C50	C	-0.241925	-1.648739	-0.966316
C51	C	-0.241900	-1.648766	-1.076039
C52	C	-0.339029	-1.497920	-0.253441
C53	C	-0.338861	-1.498102	-0.136655
H54	H	-0.606931	-1.603752	-0.420632
O55	O	-0.601075	-1.349562	-0.674292
C56	C	-0.518190	-1.212596	-0.683324
C57	C	-0.558648	-1.284152	-0.611947
H58	H	-0.483890	-1.159679	-0.632948
H59	H	-0.483676	-1.262800	-0.736207
H60	H	-0.557099	-1.162284	-0.733669
H61	H	-0.519790	-1.334477	-0.561537
H62	H	-0.593173	-1.233888	-0.559134
H63	H	-0.257236	-1.102889	-0.399846
H64	H	-0.740275	-1.595830	-0.428669
H65	H	-0.416669	-0.904967	-0.752938
H66	H	-0.421581	-1.078200	-0.757275
H67	H	-0.490623	-0.904709	-0.658076
H68	H	-0.257262	-0.903825	-0.399862
O69	O	-0.427685	-1.360127	-0.924211
C70	C	-0.516910	-1.221330	-0.941088
C71	C	-0.467375	-1.298305	-0.998445
H72	H	-0.549002	-1.171312	-1.001079
H73	H	-0.553779	-1.267238	-0.891932
H74	H	-0.484579	-1.168403	-0.887774
H75	H	-0.499650	-1.351251	-1.051812
H76	H	-0.430504	-1.252332	-1.047534
O77	O	-0.497911	-1.084205	-0.645520
C78	C	-0.614004	-1.040749	-0.586714
C79	C	-0.544067	-0.999056	-0.622077
H80	H	-0.651335	-0.971928	-0.567729
H81	H	-0.638551	-1.089540	-0.652306
H82	H	-0.603878	-1.091660	-0.513850
H83	H	-0.554133	-0.948102	-0.694918
H84	H	-0.519541	-0.950323	-0.556423
H85	H	-0.420509	-1.371221	-1.131314
H86	H	-0.187418	-1.630257	-0.933301
H87	H	-0.261465	-1.724832	-0.933449
H88	H	-0.256498	-1.729256	-1.106690
H89	H	-0.190110	-1.622775	-1.106990
H90	H	-0.937020	-1.644147	-0.380577
H91	H	-1.070375	-1.392304	-0.632223
O92	O	-1.076255	-1.646413	-0.378516
C93	C	-1.189489	-1.699248	-0.325798
C94	C	-1.149027	-1.627682	-0.397159
H95	H	-1.248333	-1.684114	-0.340829
H96	H	-1.175028	-1.784832	-0.343465
H97	H	-1.175055	-1.681726	-0.240204
H98	H	-1.163440	-1.645110	-0.482776
H99	H	-1.163492	-1.542119	-0.379402
O100	O	-0.931361	-1.389886	-0.634413
C101	C	-0.939129	-1.256084	-0.768074
C102	C	-0.979517	-1.327700	-0.696664
H103	H	-0.978045	-1.205804	-0.818438
H104	H	-0.904796	-1.203150	-0.717765
H105	H	-0.904637	-1.306343	-0.820939
H106	H	-1.014046	-1.277524	-0.643787
H107	H	-1.013805	-1.380640	-0.747036
H108	H	-0.740287	-1.351908	-0.672271
