data_functionalizedCrystal
_audit_creation_method	'MofGen! by Chris Wilmer'
_symmetry_space_group_name_H-M	'P1'
_symmetry_Int_Tables_number	1
_symmetry_cell_setting	triclinic
loop_
_symmetry_equiv_pos_as_xyz
  x,y,z
_cell_length_a	10.489741
_cell_length_b	8.965430
_cell_length_c	10.489716
_cell_angle_alpha	89.995536
_cell_angle_beta	84.534155
_cell_angle_gamma	90.001157
loop_
_atom_site_label
_atom_site_type_symbol
_atom_site_fract_x
_atom_site_fract_y
_atom_site_fract_z
O1	O	1.694038	0.123932	0.179960
O2	O	1.322840	0.123954	0.196853
O3	O	1.516902	0.123948	0.002807
O4	O	1.499976	0.123938	0.374007
O5	O	1.516885	-0.124131	0.002820
O6	O	1.322824	-0.124125	0.196866
O7	O	1.694021	-0.124146	0.179973
Cu8	Cu	1.508421	-0.146787	0.188421
Cu9	Cu	1.508440	0.146595	0.188406
O10	O	1.499960	-0.124140	0.374020
C11	C	1.275301	-0.000082	0.195584
C12	C	1.133672	-0.000073	0.191767
C13	C	1.065542	-0.000084	0.068301
C14	C	0.973418	0.122227	0.126618
C15	C	0.973436	-0.122359	0.126661
C16	C	1.043413	0.122339	0.250135
C17	C	1.043440	-0.122357	0.250160
C18	C	0.951344	-0.000016	0.308568
N19	N	1.508417	-0.353136	0.188431
C20	C	1.418642	-0.450439	0.278141
C21	C	1.534136	-0.549861	0.303952
C22	C	1.392971	-0.549842	0.162631
C23	C	1.623970	-0.450369	0.214300
C24	C	1.482728	-0.450341	0.072928
C25	C	1.598306	-0.549718	0.098691
C26	C	1.741561	-0.000107	0.181243
C27	C	1.883190	-0.000106	0.185060
C28	C	1.515622	-0.000087	-0.044719
C29	C	1.511817	-0.000073	-0.186350
N30	N	1.508455	0.352944	0.188386
C31	C	1.630822	-0.000093	-0.284024
C32	C	1.567945	0.122222	-0.361391
C33	C	1.567901	-0.122364	-0.361342
C34	C	1.448990	0.122344	-0.261851
C35	C	1.448964	-0.122352	-0.261797
C36	C	1.386000	-0.000007	-0.339115
C37	C	1.501240	-0.000102	0.421545
C38	C	1.505044	-0.000106	0.563176
H39	H	0.942456	-0.225764	0.074402
H40	H	1.721638	-0.406858	0.236219
C41	C	1.381141	-0.262057	-0.203006
N42	N	1.330063	-0.367295	-0.158728
H43	H	1.555890	-0.593573	0.401610
C44	C	0.931524	0.261922	0.056034
N45	N	0.899972	0.367135	0.002861
C46	C	1.085380	-0.262067	0.320680
N47	N	1.116974	-0.367309	0.373784
C48	C	1.635788	-0.262071	-0.420050
N49	N	1.686928	-0.367294	-0.464263
H50	H	1.674325	-0.593036	0.022803
C51	C	1.246054	0.000089	-0.372126
N52	N	1.140649	0.000168	-0.396993
H53	H	1.398788	0.225867	-0.218553
H54	H	1.115241	0.000072	-0.033196
C55	C	1.453288	-0.391230	-0.058961
N56	N	1.431099	-0.346702	-0.158299
C57	C	1.261055	-0.608865	0.133170
N58	N	1.161692	-0.653315	0.110989
C59	C	1.085060	0.262201	0.320638
N60	N	1.116433	0.367546	0.373733
C61	C	0.884550	0.000072	0.445826
N62	N	0.834237	0.000146	0.549206
H63	H	1.734335	0.000025	-0.259347
C64	C	1.316181	-0.391531	0.380724
N65	N	1.239015	-0.347156	0.457993
C66	C	1.635823	0.261910	-0.420170
N67	N	1.686958	0.367117	-0.464443
