data_functionalizedCrystal
_audit_creation_method	'MofGen! by Chris Wilmer'
_symmetry_space_group_name_H-M	'P1'
_symmetry_Int_Tables_number	1
_symmetry_cell_setting	triclinic
loop_
_symmetry_equiv_pos_as_xyz
  x,y,z
_cell_length_a	15.537937
_cell_length_b	15.624967
_cell_length_c	14.185230
_cell_angle_alpha	92.817325
_cell_angle_beta	108.234826
_cell_angle_gamma	113.263206
loop_
_atom_site_label
_atom_site_type_symbol
_atom_site_fract_x
_atom_site_fract_y
_atom_site_fract_z
O1	O	-1.254600	-0.289634	-0.021978
O2	O	-0.754600	0.210366	0.478022
O3	O	-0.972251	-0.190752	0.014005
O4	O	-0.472251	0.309248	0.514005
O5	O	-1.131291	-0.367156	-0.050184
O6	O	-0.631291	0.132844	0.449816
O7	O	-1.095561	-0.113229	0.042211
O8	O	-0.595561	0.386771	0.542211
O9	O	-1.167474	-0.344251	-0.208693
O10	O	-0.667474	0.155749	0.291307
O11	O	-1.008434	-0.167847	-0.144504
O12	O	-0.508434	0.332153	0.355496
O13	O	-1.290783	-0.266729	-0.180486
O14	O	-0.790783	0.233271	0.319514
Cu15	Cu	-1.152913	-0.215196	-0.176968
Cu16	Cu	-0.652913	0.284804	0.323032
Cu17	Cu	-1.110122	-0.242284	0.010487
Cu18	Cu	-0.610122	0.257716	0.510487
O19	O	-1.131744	-0.090324	-0.116298
O20	O	-0.631744	0.409676	0.383702
C21	C	-0.954401	-0.168953	-0.061485
C22	C	-0.454401	0.331047	0.438515
C23	C	-0.847304	-0.138135	-0.050270
C24	C	-0.347304	0.361865	0.449730
C25	C	-1.151351	-0.387409	-0.140973
C26	C	-0.651351	0.112591	0.359027
C27	C	-1.157205	-0.481876	-0.175340
C28	C	-0.657205	0.018124	0.324660
C29	C	-0.678475	-0.013221	-0.004818
C30	C	-0.178475	0.486779	0.495182
C31	C	-0.779110	-0.042189	-0.015359
C32	C	-0.279110	0.457811	0.484641
C33	C	-0.814884	-0.205152	-0.074660
C34	C	-0.314884	0.294848	0.425340
C35	C	-0.714251	-0.176197	-0.064128
C36	C	-0.214251	0.323803	0.435872
C37	C	-0.646054	-0.080231	-0.029206
C38	C	-0.146054	0.419769	0.470794
C39	C	-0.681830	-0.243206	-0.088516
C40	C	-0.181830	0.256794	0.411484
C41	C	-0.581204	-0.214254	-0.077981
C42	C	-0.081204	0.285746	0.422019
C43	C	-0.513000	-0.118293	-0.043057
C44	C	-0.013000	0.381707	0.456943
C45	C	-0.545428	-0.051278	-0.018670
C46	C	-0.045428	0.448722	0.481330
C47	C	-0.750027	-0.339173	-0.123432
C48	C	-0.250027	0.160827	0.376568
C49	C	-0.717606	-0.406183	-0.147820
C50	C	-0.217606	0.093817	0.352180
C51	C	-0.616981	-0.377230	-0.137291
C52	C	-0.116981	0.122770	0.362709
C53	C	-0.548777	-0.281269	-0.102367
C54	C	-0.048777	0.218731	0.397633
C55	C	-0.584553	-0.444244	-0.161678
C56	C	-0.084553	0.055756	0.338322
C57	C	-0.483927	-0.415292	-0.151142
C58	C	0.016073	0.084708	0.348858
C59	C	-0.448151	-0.252316	-0.091832
C60	C	0.051849	0.247684	0.408168
C61	C	-1.185179	-0.602544	-0.310177
C62	C	-0.685179	-0.102544	0.189823
C63	C	-1.179676	-0.513779	-0.277874
C64	C	-0.679676	-0.013779	0.222126
C65	C	-1.140234	-0.538734	-0.105068
C66	C	-0.640234	-0.038734	0.394932
C67	C	-1.145739	-0.627505	-0.137358
C68	C	-0.645739	-0.127505	0.362642
C69	C	-1.168211	-0.659402	-0.239913
C70	C	-0.668211	-0.159402	0.260087
C71	C	-1.128770	-0.684363	-0.067094
C72	C	-0.628770	-0.184363	0.432906
C73	C	-1.134270	-0.773124	-0.099380
C74	C	-0.634270	-0.273124	0.400620
C75	C	-1.156738	-0.805027	-0.201931
C76	C	-0.656738	-0.305027	0.298069
C77	C	-1.173710	-0.748163	-0.272200
C78	C	-0.673710	-0.248163	0.227800
C79	C	-1.106291	-0.652461	0.035462
C80	C	-0.606291	-0.152461	0.535462
C81	C	-1.089322	-0.709319	0.105726
C82	C	-0.589322	-0.209319	0.605726
C83	C	-1.094829	-0.798084	0.073439
C84	C	-0.594829	-0.298084	0.573439
C85	C	-1.117297	-0.829987	-0.029111
C86	C	-0.617297	-0.329987	0.470889
C87	C	-1.077856	-0.854948	0.143708
C88	C	-0.577856	-0.354948	0.643708
C89	C	-1.083356	-0.943709	0.111421
C90	C	-0.583356	-0.443709	0.611421
C91	C	-1.122796	-0.918748	-0.061398
C92	C	-0.622796	-0.418748	0.438602
C93	C	-0.308634	-0.288522	-0.104999
C94	C	0.191366	0.211478	0.395001
C95	C	-0.415730	-0.319326	-0.116220
C96	C	0.084270	0.180674	0.383780
C97	C	-1.111683	-0.070072	-0.025507
C98	C	-0.611683	0.429928	0.474493
C99	C	-1.105828	0.024394	0.008866
C100	C	-0.605828	0.524394	0.508866
N101	N	-1.183016	-0.196147	-0.308815
N102	N	-0.683016	0.303853	0.191185
N103	N	-1.080026	-0.261343	0.142330
N104	N	-0.580026	0.238657	0.642330
C105	C	-0.991670	-0.317340	0.279482
C106	C	-0.491670	0.182660	0.779482
C107	C	-1.014450	-0.302899	0.179710
C108	C	-0.514450	0.197101	0.679710
C109	C	-1.122853	-0.234215	0.204715
C110	C	-0.622853	0.265785	0.704715
C111	C	-1.100086	-0.248655	0.304490
C112	C	-0.600086	0.251345	0.804490
C113	C	-1.034493	-0.290217	0.341866
C114	C	-0.534493	0.209783	0.841866
C115	C	-1.142909	-0.221531	0.366873
C116	C	-0.642909	0.278469	0.866873
C117	C	-1.120140	-0.235965	0.466641
C118	C	-0.620140	0.264035	0.966641
C119	C	-1.054547	-0.277522	0.504026
C120	C	-0.554547	0.222478	1.004026
C121	C	-1.011723	-0.304650	0.441633
C122	C	-0.511723	0.195350	0.941633
C123	C	-1.208496	-0.179963	0.329498
C124	C	-0.708496	0.320037	0.829498
C125	C	-1.251320	-0.152839	0.391881
C126	C	-0.751320	0.347161	0.891881
C127	C	-1.228556	-0.167279	0.491649
C128	C	-0.728556	0.332721	0.991649
C129	C	-1.162963	-0.208837	0.529033
C130	C	-0.662963	0.291163	1.029033
C131	C	-1.271379	-0.140151	0.554041
C132	C	-0.771379	0.359849	1.054041
C133	C	-1.248609	-0.154585	0.653809
C134	C	-0.748609	0.345415	1.153809
C135	C	-1.140193	-0.223271	0.628801
C136	C	-0.640193	0.276729	1.128801
H137	H	-0.392623	-0.174169	-0.063407
H138	H	0.107377	0.325831	0.436593
H139	H	-0.938262	-0.351190	0.309913
H140	H	-0.438262	0.148810	0.809913
O141	O	-0.888442	-0.308655	-0.112325
O142	O	-0.388442	0.191345	0.387675
H143	H	-0.892445	-0.332829	-0.189125
H144	H	-0.392445	0.167171	0.310875
O145	O	-0.448949	-0.487559	-0.177454
O146	O	0.051051	0.012441	0.322546
H147	H	-0.513278	-0.559152	-0.203519
H148	H	-0.013278	-0.059152	0.296481
H149	H	-0.979570	-0.324987	0.128920
H150	H	-0.479570	0.175013	0.628920
O151	O	-1.162667	-0.900761	-0.236755
O152	O	-0.662667	-0.400761	0.263245
H153	H	-1.181135	-0.913384	-0.319870
H154	H	-0.681135	-0.413384	0.180130
H155	H	-0.622947	0.064926	0.023607
H156	H	-0.122947	0.564926	0.523607
H157	H	-1.227032	-0.168211	0.248260
H158	H	-0.727032	0.331789	0.748260
H159	H	-0.831958	-0.362745	-0.131991
H160	H	-0.331958	0.137255	0.368009
H161	H	-1.193470	-0.467476	-0.335096
H162	H	-0.693470	0.032524	0.164904
H163	H	-0.489900	0.026869	0.009754
H164	H	0.010100	0.526869	0.509754
H165	H	-1.121934	-0.512749	-0.021567
H166	H	-0.621934	-0.012749	0.478433
H167	H	-1.304723	-0.118996	0.361437
H168	H	-0.804723	0.381004	0.861437
H169	H	-0.773145	-0.484319	-0.176251
H170	H	-0.273145	0.015681	0.323749
H171	H	-1.324778	-0.106303	0.523597
H172	H	-0.824778	0.393697	1.023597
O173	O	-0.404469	-0.087058	-0.031702
O174	O	0.095531	0.412942	0.468298
H175	H	-0.370905	-0.123940	0.022873
H176	H	0.129095	0.376060	0.522873
H177	H	-0.805503	0.012388	0.004493
H178	H	-0.305503	0.512388	0.504493
O179	O	-1.065083	-0.674905	0.216335
O180	O	-0.565083	-0.174905	0.716335
H181	H	-1.054201	-0.729355	0.259770
H182	H	-0.554201	-0.229355	0.759770
O183	O	-0.658111	-0.547747	-0.199346
O184	O	-0.158111	-0.047747	0.300654
H185	H	-0.733530	-0.556621	-0.202579
H186	H	-0.233530	-0.056621	0.297421
O187	O	-1.029956	-0.293089	0.611634
O188	O	-0.529956	0.206911	1.111634
H189	H	-0.947806	-0.253363	0.653753
H190	H	-0.447806	0.246637	1.153753
O191	O	-1.147046	-0.953177	-0.172012
O192	O	-0.647046	-0.453177	0.327988
H193	H	-1.089029	-0.902595	-0.197225
H194	H	-0.589029	-0.402595	0.302775
O195	O	-1.100419	-0.556785	0.070418
O196	O	-0.600419	-0.056785	0.570418
H197	H	-1.041084	-0.500304	0.051751
H198	H	-0.541084	-0.000304	0.551751
H199	H	-1.192015	-0.774137	-0.355711
H200	H	-0.692015	-0.274137	0.144289
H201	H	-1.176257	-0.200372	0.174270
H202	H	-0.676257	0.299628	0.674270
H203	H	-1.203484	-0.628519	-0.393689
H204	H	-0.703484	-0.128519	0.106311
H205	H	-1.059550	-0.828959	0.227210
H206	H	-0.559550	-0.328959	0.727210
H207	H	-0.958316	-0.338500	0.472064
H208	H	-0.458316	0.161500	0.972064
H209	H	-1.069531	-0.990001	0.168639
H210	H	-0.569531	-0.490001	0.668639
H211	H	-1.283477	-0.132494	0.704605
H212	H	-0.783477	0.367506	1.204605
H213	H	-1.086786	-0.257120	0.659232
H214	H	-0.586786	0.242880	1.159232
