data_functionalizedCrystal
_audit_creation_method	'MofGen! by Chris Wilmer'
_symmetry_space_group_name_H-M	'P1'
_symmetry_Int_Tables_number	1
_symmetry_cell_setting	triclinic
loop_
_symmetry_equiv_pos_as_xyz
  x,y,z
_cell_length_a	12.759400
_cell_length_b	21.395362
_cell_length_c	21.395355
_cell_angle_alpha	90.043940
_cell_angle_beta	89.986153
_cell_angle_gamma	89.969436
loop_
_atom_site_label
_atom_site_type_symbol
_atom_site_fract_x
_atom_site_fract_y
_atom_site_fract_z
Zn1	Zn	-0.417943	-0.957929	-0.354606
Zn2	Zn	-0.593607	-0.957861	-0.249837
Zn3	Zn	-0.417992	-0.853144	-0.249807
Zn4	Zn	-0.593629	-0.853143	-0.354542
O5	O	-0.505793	-0.905519	-0.302198
O6	O	-0.441215	-1.045598	-0.340747
O7	O	-0.570323	-0.943942	-0.162155
O8	O	-0.270964	-0.867073	-0.263723
O9	O	-0.570275	-1.045548	-0.263774
O10	O	-0.270928	-0.944058	-0.340719
O11	O	-0.441299	-0.867007	-0.162133
O12	O	-0.441320	-0.765466	-0.263661
O13	O	-0.570312	-0.867071	-0.442228
O14	O	-0.570360	-0.765465	-0.340609
O15	O	-0.441236	-0.944057	-0.442275
O16	O	-0.740631	-0.943941	-0.263712
O17	O	-0.740647	-0.867005	-0.340638
C18	C	-0.505848	-0.742732	-0.302125
C19	C	-0.505897	-0.673090	-0.302109
C20	C	-0.778760	-0.905482	-0.302185
C21	C	-0.895537	-0.905523	-0.302200
C22	C	-0.505771	-0.905571	-0.465621
C23	C	-0.505762	-0.905593	-0.535263
C24	C	-0.950355	-0.945629	-0.262189
C25	C	-1.060079	-0.945667	-0.262209
C26	C	-1.060156	-0.865490	-0.342252
C27	C	-0.950434	-0.865455	-0.342235
C28	C	-0.895458	-0.985697	-0.222154
C29	C	-0.950277	-1.025805	-0.182139
C30	C	-1.060001	-1.025843	-0.182159
C31	C	-1.114906	-0.985774	-0.222193
C32	C	-0.231759	-0.905574	-0.302225
C33	C	-0.114983	-0.905597	-0.302236
C34	C	-0.505738	-1.068943	-0.302271
C35	C	-0.505714	-1.138584	-0.302303
C36	C	-0.573177	-0.640393	-0.342116
C37	C	-0.573152	-0.574958	-0.342144
C38	C	-0.505857	-0.542222	-0.302154
C39	C	-0.438564	-0.574927	-0.262144
C40	C	-0.438584	-0.640361	-0.262122
C41	C	-0.497393	-0.438496	-0.245748
C42	C	-0.497380	-0.373063	-0.245769
C43	C	-0.505788	-0.340401	-0.302223
C44	C	-0.514231	-0.373181	-0.358657
C45	C	-0.514251	-0.438615	-0.358635
C46	C	-0.505827	-0.471270	-0.302174
C47	C	-0.573044	-0.236752	-0.342263
C48	C	-0.573011	-0.171315	-0.342292
C49	C	-0.438428	-0.171286	-0.262287
C50	C	-0.438456	-0.236721	-0.262264
C51	C	-0.505769	-0.269450	-0.302251
C52	C	-0.438550	-0.945678	-0.568001
C53	C	-0.438504	-0.945678	-0.633437
C54	C	-0.505691	-0.905598	-0.666131
C55	C	-0.572908	-0.865505	-0.633384
C56	C	-0.572944	-0.865503	-0.567950
C57	C	-0.600292	-0.900638	-0.769799
C58	C	-0.600258	-0.900645	-0.835232
C59	C	-0.505580	-0.905602	-0.867952
C60	C	-0.410932	-0.910566	-0.835230
C61	C	-0.410968	-0.910563	-0.769796
C62	C	-0.505659	-0.905596	-0.737083
C63	C	-0.438312	-0.945688	-0.971643
C64	C	-0.438265	-0.945683	-1.037080
C65	C	-0.572678	-0.865514	-1.037026
C66	C	-0.572716	-0.865516	-0.971591
C67	C	-0.505534	-0.905607	-0.938903
C68	C	-0.505738	-0.905503	-0.139410
C69	C	-0.505451	-0.905603	-0.069770
H70	H	-0.806115	-0.985668	-0.222132
Br71	Br	-0.663940	-0.811113	-0.927156
Br72	Br	-1.134670	-0.811113	-0.396580
H73	H	-0.627608	-0.832871	-0.660008
Br74	Br	-0.664465	-0.530573	-0.396444
Br75	Br	-0.525705	-0.483100	-0.435219
H76	H	-0.383674	-0.263344	-0.229683
Br77	Br	-0.875767	-1.080190	-0.127818
Br78	Br	-0.664391	-0.281173	-0.396533
H79	H	-1.104632	-1.058505	-0.149581
H80	H	-0.490542	-0.465084	-0.199774
Br81	Br	-0.664167	-0.811097	-0.523516
H82	H	-1.204251	-0.985813	-0.222210
H83	H	-0.383793	-0.666983	-0.229543
H84	H	-0.905800	-0.832798	-0.374817
Br85	Br	-0.347056	-1.000099	-1.081513
H86	H	-0.383631	-0.144633	-0.229729
Br87	Br	-0.664528	-0.684808	-0.396386
H88	H	-0.627796	-0.144694	-0.374875
H89	H	-0.333836	-0.914603	-0.861869
H90	H	-0.677325	-0.896607	-0.861869
H91	H	-0.521076	-0.346589	-0.404627
Br92	Br	-0.347137	-1.000093	-0.927278
Br93	Br	-0.485924	-0.328583	-0.169182
H94	H	-0.383770	-0.548270	-0.229585
H95	H	-0.383844	-0.978322	-0.541391
H96	H	-0.383766	-0.978318	-0.660098
H97	H	-0.333903	-0.914603	-0.743157
H98	H	-0.627372	-0.832875	-1.063645
Br99	Br	-0.728798	-0.893929	-0.725401
