data_functionalizedCrystal
_audit_creation_method	'MofGen! by Chris Wilmer'
_symmetry_space_group_name_H-M	'P1'
_symmetry_Int_Tables_number	1
_symmetry_cell_setting	triclinic
loop_
_symmetry_equiv_pos_as_xyz
  x,y,z
_cell_length_a	12.594517
_cell_length_b	25.639239
_cell_length_c	12.594509
_cell_angle_alpha	90.034128
_cell_angle_beta	90.021327
_cell_angle_gamma	90.038486
loop_
_atom_site_label
_atom_site_type_symbol
_atom_site_fract_x
_atom_site_fract_y
_atom_site_fract_z
Zn1	Zn	1.627100	-0.208138	0.601816
Zn2	Zn	2.127100	0.291862	1.101816
Zn3	Zn	1.626920	-0.295580	0.423819
Zn4	Zn	2.126920	0.204420	0.923819
Zn5	Zn	1.449103	-0.208160	0.423845
Zn6	Zn	1.949103	0.291840	0.923845
Zn7	Zn	1.449015	-0.295544	0.601750
Zn8	Zn	1.949015	0.204456	1.101750
O9	O	1.538035	-0.251855	0.512808
O10	O	2.038035	0.248145	1.012808
O11	O	1.776022	-0.219743	0.578222
O12	O	2.276022	0.280257	1.078222
O13	O	1.603294	-0.284008	0.274877
O14	O	2.103294	0.215992	0.774877
O15	O	1.472827	-0.134992	0.447492
O16	O	1.972827	0.365008	0.947492
O17	O	1.775890	-0.283987	0.447448
O18	O	2.275890	0.216013	0.947448
O19	O	1.603600	-0.134976	0.578247
O20	O	2.103600	0.365024	1.078247
O21	O	1.472653	-0.219781	0.274896
O22	O	1.972653	0.280219	0.774896
O23	O	1.300146	-0.219746	0.447427
O24	O	1.800146	0.280254	0.947427
O25	O	1.472677	-0.283925	0.750704
O26	O	1.972677	0.216075	1.250704
O27	O	1.300081	-0.283946	0.578133
O28	O	1.800081	0.216054	1.078133
O29	O	1.603515	-0.219708	0.750753
O30	O	2.103515	0.280292	1.250753
O31	O	1.603209	-0.368740	0.447384
O32	O	2.103209	0.131260	0.947384
O33	O	1.472503	-0.368714	0.578108
O34	O	1.972503	0.131286	1.078108
C35	C	1.261494	-0.251845	0.512776
C36	C	1.761494	0.248155	1.012776
C37	C	1.143188	-0.251853	0.512788
C38	C	1.643188	0.248147	1.012788
C39	C	1.073939	-0.216887	0.441833
C40	C	1.573939	0.283113	0.941833
C41	C	1.003090	-0.264579	0.415643
C42	C	1.503090	0.235421	0.915643
C43	C	1.003239	-0.204184	0.538996
C44	C	1.503239	0.295816	1.038996
C45	C	1.073897	-0.299570	0.486547
C46	C	1.573897	0.200430	0.986547
C47	C	1.074052	-0.239144	0.609946
C48	C	1.574052	0.260856	1.109946
C49	C	1.003234	-0.286869	0.583793
C50	C	1.503234	0.213131	1.083793
C51	C	1.537856	-0.387698	0.512759
C52	C	2.037856	0.112302	1.012759
C53	C	1.537876	-0.445812	0.512774
C54	C	2.037876	0.054188	1.012774
C55	C	1.606271	-0.806176	0.444855
C56	C	2.106271	-0.306176	0.944855
C57	C	1.606312	-0.860781	0.444870
C58	C	2.106312	-0.360781	0.944870
O59	O	1.664278	-0.889019	0.387070
O60	O	2.164278	-0.389019	0.887070
N61	N	1.538222	-0.888094	0.512878
N62	N	2.038222	-0.388094	1.012878
C63	C	1.470093	-0.860801	0.580885
C64	C	1.970093	-0.360801	1.080885
O65	O	1.412182	-0.889048	0.638733
O66	O	1.912182	-0.389048	1.138733
C67	C	1.470058	-0.806198	0.580875
C68	C	1.970058	-0.306198	1.080875
C69	C	1.538145	-0.778887	0.512854
C70	C	2.038145	-0.278887	1.012854
C71	C	1.674353	-0.778865	0.376841
C72	C	2.174353	-0.278865	0.876841
C73	C	1.674310	-0.724265	0.376826
C74	C	2.174310	-0.224265	0.876826
C75	C	1.606185	-0.696975	0.444825
C76	C	2.106185	-0.196975	0.944825
C77	C	1.538102	-0.724286	0.512839
C78	C	2.038102	-0.224286	1.012839
C79	C	1.401936	-0.778905	0.648886
C80	C	1.901936	-0.278905	1.148886
C81	C	1.401907	-0.724298	0.648871
C82	C	1.901907	-0.224298	1.148871
C83	C	1.469994	-0.696987	0.580850
C84	C	1.969994	-0.196987	1.080850
C85	C	1.469934	-0.642396	0.580822
C86	C	1.969934	-0.142396	1.080822
N87	N	1.538024	-0.615083	0.512814
N88	N	2.038024	-0.115083	1.012814
C89	C	1.606150	-0.642372	0.444815
C90	C	2.106150	-0.142372	0.944815
C91	C	1.470174	-0.975472	0.580901
C92	C	1.970174	-0.475472	1.080901
C93	C	1.470202	-1.030074	0.580906
C94	C	1.970202	-0.530074	1.080906
C95	C	1.606423	-1.030050	0.444892
C96	C	2.106423	-0.530050	0.944892
C97	C	1.606388	-0.975447	0.444883
C98	C	2.106388	-0.475447	0.944883
C99	C	1.538264	-0.948158	0.512892
C100	C	2.038264	-0.448158	1.012892
C101	C	1.606054	-0.527707	0.444787
C102	C	2.106054	-0.027707	0.944787
C103	C	1.606002	-0.473102	0.444775
C104	C	2.106002	0.026898	0.944775
C105	C	1.469786	-0.473131	0.580792
C106	C	1.969786	0.026869	1.080792
C107	C	1.469833	-0.527731	0.580801
C108	C	1.969833	-0.027731	1.080801
C109	C	1.537976	-0.555018	0.512795
C110	C	2.037976	-0.055018	1.012795
O111	O	1.412001	-0.614124	0.638596
O112	O	1.912001	-0.114124	1.138596
O113	O	1.664062	-0.614119	0.386986
O114	O	2.164062	-0.114119	0.886986
C115	C	1.815655	-0.251866	0.512840
C116	C	2.315655	0.248134	1.012840
C117	C	1.933961	-0.251871	0.512853
C118	C	2.433961	0.248129	1.012853
C119	C	1.538106	-0.251810	0.790429
C120	C	2.038106	0.248190	1.290429
C121	C	1.538136	-0.251790	0.908734
C122	C	2.038136	0.248210	1.408734
C123	C	1.538243	-0.115482	0.512880
C124	C	2.038243	0.384518	1.012880
C125	C	1.538332	-0.057368	0.512911
C126	C	2.038332	0.442632	1.012911
C127	C	1.538025	-0.251863	0.236267
C128	C	2.038025	0.248137	0.736267
C129	C	1.538201	-0.251736	0.117962
C130	C	2.038201	0.248264	0.617962
C131	C	1.466996	-0.286698	0.977961
C132	C	1.966996	0.213302	1.477961
C133	C	1.564106	-0.299473	1.048748
C134	C	2.064106	0.200527	1.548748
C135	C	1.441102	-0.238984	1.048746
C136	C	1.941102	0.261016	1.548746
C137	C	1.635297	-0.264590	0.977964
C138	C	2.135297	0.235410	1.477964
C139	C	1.512227	-0.204079	0.977955
C140	C	2.012227	0.295921	1.477955
C141	C	1.609405	-0.216836	1.048711
C142	C	2.109405	0.283164	1.548711
H143	H	1.661446	-0.450867	0.389381
H144	H	2.161446	0.049133	0.889381
O145	O	1.747767	-0.694813	0.303476
O146	O	2.247767	-0.194813	0.803476
H147	H	1.729579	-0.705337	0.219924
H148	H	2.229579	-0.205337	0.719924
O149	O	1.387364	-0.325855	0.936798
O150	O	1.887364	0.174145	1.436798
H151	H	1.387514	-0.325267	0.848678
H152	H	1.887514	0.174733	1.348678
O153	O	1.593184	-0.352884	1.089957
O154	O	2.093184	0.147116	1.589957
H155	H	1.533991	-0.381814	1.061633
H156	H	2.033991	0.118186	1.561633
O157	O	1.744210	-0.278706	0.936968
O158	O	2.244210	0.221294	1.436968
H159	H	1.743371	-0.278539	0.848843
H160	H	2.243371	0.221461	1.348843
O161	O	0.962085	-0.150780	0.568301
O162	O	1.462085	0.349220	1.068301
H163	H	0.913640	-0.153625	0.641673
H164	H	1.413640	0.346375	1.141673
H165	H	0.972385	-0.316480	0.643825
H166	H	1.472385	0.183520	1.143825
O167	O	1.689212	-0.177701	1.089615
O168	O	2.189212	0.322299	1.589615
H169	H	1.769673	-0.188432	1.061113
H170	H	2.269673	0.311568	1.561113
O171	O	1.483110	-0.150687	0.936691
O172	O	1.983110	0.349313	1.436691
H173	H	1.402458	-0.140169	0.964977
H174	H	1.902458	0.359831	1.464977
O175	O	1.679539	-0.557135	0.371432
O176	O	2.179539	-0.057135	0.871432
H177	H	1.726860	-0.528963	0.324133
H178	H	2.226860	-0.028963	0.824133
O179	O	1.114831	-0.352993	0.457076
O180	O	1.614831	0.147007	0.957076
H181	H	1.163973	-0.368524	0.523030
H182	H	1.663973	0.131476	1.023030
O183	O	1.747830	-0.808295	0.303487
O184	O	2.247830	-0.308295	0.803487
H185	H	1.795152	-0.780122	0.256192
H186	H	2.295152	-0.280122	0.756192
H187	H	1.346434	-0.702083	0.704256
H188	H	1.846434	-0.202083	1.204256
H189	H	1.414690	-0.953256	0.636280
H190	H	1.914690	-0.453256	1.136280
O191	O	1.332368	-0.224663	1.089927
O192	O	1.832368	0.275337	1.589927
H193	H	1.338129	-0.188606	1.138410
H194	H	1.838129	0.311394	1.638410
H195	H	1.346487	-0.801133	0.704271
H196	H	1.846487	-0.301133	1.204271
H197	H	1.104984	-0.187346	0.381755
H198	H	1.604984	0.312654	0.881755
H199	H	1.105245	-0.228368	0.692058
H200	H	1.605245	0.271632	1.192058
O201	O	1.679834	-0.945990	0.371531
O202	O	2.179834	-0.445990	0.871531
H203	H	1.727213	-0.974145	0.324258
H204	H	2.227213	-0.474145	0.824258
H205	H	1.414395	-0.549969	0.636192
H206	H	1.914395	-0.049969	1.136192
H207	H	0.971923	-0.275340	0.333507
H208	H	1.471923	0.224660	0.833507
O209	O	1.396315	-0.443687	0.654130
O210	O	1.896315	0.056313	1.154130
H211	H	1.312792	-0.454208	0.635802
H212	H	1.812792	0.045792	1.135802
H213	H	1.661898	-1.052279	0.389527
H214	H	2.161898	-0.552279	0.889527
H215	H	1.414749	-1.052306	0.636285
H216	H	1.914749	-0.552306	1.136285
