data_functionalizedCrystal
_audit_creation_method	'MofGen! by Chris Wilmer'
_symmetry_space_group_name_H-M	'P1'
_symmetry_Int_Tables_number	1
_symmetry_cell_setting	triclinic
loop_
_symmetry_equiv_pos_as_xyz
  x,y,z
_cell_length_a	6.817900
_cell_length_b	12.908943
_cell_length_c	9.514072
_cell_angle_alpha	92.322723
_cell_angle_beta	118.843421
_cell_angle_gamma	100.860631
loop_
_atom_site_label
_atom_site_type_symbol
_atom_site_fract_x
_atom_site_fract_y
_atom_site_fract_z
V1	V	-4.080081	-0.329500	-0.220195
O2	O	-3.979494	-0.322378	0.012644
O3	O	-4.114990	-0.328064	-0.438593
O4	O	-4.016724	-0.472834	-0.215902
O5	O	-4.078440	-0.176606	-0.211588
V6	V	-4.554853	-0.311114	-0.192451
O7	O	-4.360537	-0.369833	-0.281052
O8	O	-4.724594	-0.270781	-0.131594
O9	O	-4.296738	-0.312550	0.025947
O10	O	-4.772837	-0.318236	-0.425290
O11	O	-4.673891	-0.464008	-0.201058
O12	O	-4.395004	-0.167780	-0.196744
C13	C	-3.980741	-0.323077	-0.491862
C14	C	-4.090470	-0.322858	-0.670400
C15	C	-3.855391	-0.507744	-0.207796
C16	C	-3.885424	-0.624925	-0.205732
C17	C	-4.311189	-0.855917	-0.217790
C18	C	-4.339417	-0.966019	-0.215852
C19	C	-3.970104	-0.955234	-0.199904
C20	C	-3.941875	-0.845131	-0.201843
C21	C	-4.112428	-0.795477	-0.210789
C22	C	-4.084204	-0.685374	-0.212739
C23	C	-3.714886	-0.674589	-0.196780
C24	C	-3.743114	-0.784692	-0.194841
C25	C	-4.094332	-0.317534	0.079207
C26	C	-3.963841	-0.317760	0.257743
C27	C	-4.219681	-0.132865	-0.204855
C28	C	-4.168884	-0.015682	-0.206911
H29	H	-4.282857	-0.327093	-0.745483
H30	H	-4.450070	-0.815489	-0.225091
H31	H	-4.223083	-0.644948	-0.220030
O32	O	-4.532725	-1.024720	-0.222957
C33	C	-4.947114	-1.082405	-0.375657
C34	C	-4.728369	-1.015904	-0.367832
H35	H	-5.105350	-1.075283	-0.492762
H36	H	-4.938187	-1.169655	-0.372848
H37	H	-4.959742	-1.051447	-0.267075
H38	H	-4.715603	-1.046769	-0.476392
H39	H	-4.737389	-0.928664	-0.370563
H40	H	-3.604260	-0.825135	-0.187552
O41	O	-3.804470	-1.003579	-0.190993
C42	C	-3.531849	-1.106753	-0.039785
C43	C	-3.719423	-1.052067	-0.049698
H44	H	-3.462999	-1.145951	0.074461
H45	H	-3.608557	-1.170079	-0.151235
H46	H	-3.385002	-1.044640	-0.035194
H47	H	-3.866329	-1.114102	-0.054238
H48	H	-3.642539	-0.988722	0.061750
O49	O	-3.522073	-0.615832	-0.190304
C50	C	-3.366170	-0.500292	-0.323239
C51	C	-3.584679	-0.566741	-0.330683
H52	H	-3.416706	-0.460602	-0.436737
H53	H	-3.270779	-0.436393	-0.211026
H54	H	-3.249228	-0.554758	-0.316485
H55	H	-3.701794	-0.512360	-0.337498
H56	H	-3.679890	-0.630649	-0.442878
H57	H	-3.771462	-0.313510	-0.667178
