data_functionalizedCrystal
_audit_creation_method	'MofGen! by Chris Wilmer'
_symmetry_space_group_name_H-M	'P1'
_symmetry_Int_Tables_number	1
_symmetry_cell_setting	triclinic
loop_
_symmetry_equiv_pos_as_xyz
  x,y,z
_cell_length_a	10.654549
_cell_length_b	14.044190
_cell_length_c	9.130307
_cell_angle_alpha	89.991681
_cell_angle_beta	89.997449
_cell_angle_gamma	88.839347
loop_
_atom_site_label
_atom_site_type_symbol
_atom_site_fract_x
_atom_site_fract_y
_atom_site_fract_z
O1	O	1.681228	0.133253	-0.121854
O2	O	1.317026	0.145941	-0.121851
O3	O	1.493656	0.001576	-0.121823
O4	O	1.504598	0.277618	-0.121881
O5	O	1.493649	0.001575	0.121776
O6	O	1.317020	0.145940	0.121748
O7	O	1.681222	0.133251	0.121745
Cu8	Cu	1.499120	0.139595	0.143989
Cu9	Cu	1.499128	0.139597	-0.144095
O10	O	1.504592	0.277616	0.121718
C11	C	1.270131	0.145008	-0.000050
C12	C	1.130408	0.142218	-0.000048
C13	C	0.857250	0.309607	-0.000124
C14	C	0.917595	0.397235	-0.000137
C15	C	1.048877	0.399860	-0.000118
C16	C	1.119817	0.314848	-0.000091
C17	C	1.059471	0.227220	-0.000079
C18	C	0.928186	0.224604	-0.000093
C19	C	1.070062	0.054590	-0.000036
C20	C	0.938780	0.051963	-0.000044
C21	C	1.141002	-0.030422	-0.000009
C22	C	1.080656	-0.118051	0.000014
C23	C	0.949366	-0.120673	-0.000003
C24	C	0.878435	-0.035665	-0.000032
C25	C	1.488866	-0.033771	-0.000020
C26	C	1.474587	-0.139091	-0.000007
C27	C	1.549752	-0.388882	-0.000065
C28	C	1.448502	-0.331920	-0.000054
C29	C	1.463019	-0.224620	-0.000028
C30	C	1.535237	-0.496192	-0.000091
C31	C	1.728117	0.134185	-0.000058
C32	C	1.867840	0.136975	-0.000070
C33	C	1.509382	0.312963	-0.000089
C34	C	1.523661	0.418283	-0.000112
N35	N	1.499124	0.139594	0.346612
N36	N	1.499133	0.139591	-0.346718
C37	C	1.655603	0.011796	0.346626
C38	C	1.733851	-0.052100	0.423300
C39	C	1.733864	-0.052101	0.576633
C40	C	1.655617	0.011800	0.653297
C41	C	1.577369	0.075696	0.576623
C42	C	1.577367	0.075691	0.423286
C43	C	1.420885	0.203487	0.576609
C44	C	1.420877	0.203494	0.423275
C45	C	1.342638	0.267388	0.653272
C46	C	1.264394	0.331290	0.576598
C47	C	1.264386	0.331289	0.423255
C48	C	1.342629	0.267390	0.346601
H49	H	1.247898	-0.028278	-0.000001
C50	C	1.158697	-0.211554	0.000048
N51	N	1.217483	-0.281981	0.000081
H52	H	0.900241	-0.192030	-0.000002
H53	H	1.655621	0.011787	0.778149
H54	H	1.797575	-0.104134	0.639062
C55	C	1.316666	-0.374903	-0.000054
N56	N	1.217372	-0.407282	-0.000048
H57	H	0.771537	-0.037791	-0.000033
H58	H	1.647330	-0.357066	-0.000050
H59	H	1.342634	0.267387	0.221749
C60	C	1.655605	0.011797	0.177955
N61	N	1.655608	0.011795	0.050910
C62	C	1.819898	-0.122403	0.338960
N63	N	1.884699	-0.175360	0.275438
H64	H	1.342646	0.267381	0.778124
H65	H	0.750352	0.307478	-0.000114
H66	H	0.859822	0.466449	-0.000163
H67	H	1.200662	0.383317	0.360835
C68	C	1.264230	0.317740	-0.000077
N69	N	1.373004	0.319918	-0.000063
H70	H	1.098010	0.471213	-0.000126
C71	C	1.178322	0.401566	0.660936
N72	N	1.113490	0.454497	0.724466
