data_functionalizedCrystal
_audit_creation_method	'MofGen! by Chris Wilmer'
_symmetry_space_group_name_H-M	'P1'
_symmetry_Int_Tables_number	1
_symmetry_cell_setting	triclinic
loop_
_symmetry_equiv_pos_as_xyz
  x,y,z
_cell_length_a	17.019372
_cell_length_b	17.038272
_cell_length_c	8.965430
_cell_angle_alpha	90.000179
_cell_angle_beta	93.872617
_cell_angle_gamma	87.242864
loop_
_atom_site_label
_atom_site_type_symbol
_atom_site_fract_x
_atom_site_fract_y
_atom_site_fract_z
O1	O	1.053348	0.099574	0.011142
O2	O	0.824539	0.112279	-0.018226
O3	O	0.937584	-0.007888	-0.003705
O4	O	0.940304	0.219741	-0.003379
O5	O	0.937574	-0.007880	0.244373
O6	O	0.824529	0.112287	0.229852
O7	O	1.053339	0.099582	0.259220
Cu8	Cu	0.938933	0.105935	0.267187
Cu9	Cu	0.938945	0.105926	-0.026193
O10	O	0.940294	0.219749	0.244699
C11	C	0.795113	0.111802	0.102037
C12	C	0.707447	0.110360	0.090785
C13	C	0.211628	0.102175	0.020265
C14	C	0.294000	0.103530	0.030857
C15	C	0.335172	0.104218	0.171381
C16	C	0.293969	0.103542	0.301322
C17	C	0.211599	0.102181	0.290729
C18	C	0.583874	0.108323	0.210132
C19	C	0.666250	0.109686	0.220716
C20	C	0.666275	0.109673	-0.049750
C21	C	0.583903	0.108316	-0.060331
C22	C	0.542708	0.107637	0.069609
C23	C	0.419368	0.105606	0.182212
C24	C	0.458513	0.106243	0.058778
C25	C	0.935105	-0.037010	0.120017
C26	C	0.927725	-0.123796	0.119069
C27	C	0.995484	-0.173970	0.127767
C28	C	0.988545	-0.255514	0.126863
C29	C	0.913846	-0.286883	0.117270
C30	C	0.846082	-0.236703	0.108566
C31	C	0.853022	-0.155160	0.109461
C32	C	0.889328	-0.532620	0.114103
C33	C	0.882393	-0.614169	0.113214
C34	C	1.024858	-0.632975	0.131507
C35	C	1.031791	-0.551429	0.132410
C36	C	0.964027	-0.501256	0.123698
C37	C	0.906751	-0.370235	0.116350
C38	C	0.971122	-0.417907	0.124608
C39	C	1.082765	0.100059	0.138954
C40	C	1.170431	0.101501	0.150196
C41	C	0.942772	0.248871	0.120974
C42	C	0.950153	0.335657	0.121912
N43	N	0.938931	0.105941	0.473536
N44	N	0.938953	0.105913	-0.232541
C45	C	0.886633	0.161496	0.564124
C46	C	0.958928	0.176585	0.672815
C47	C	0.866666	0.090859	0.660976
C48	C	1.011264	0.121065	0.580043
C49	C	0.918954	0.035308	0.568189
C50	C	0.991298	0.050367	0.676842
H51	H	0.327539	0.104073	-0.074947
H52	H	0.699769	0.110252	0.335154
H53	H	0.785260	-0.262250	0.100746
H54	H	0.834149	-0.491778	0.107010
Br55	Br	0.528032	0.107387	-0.251050
Br56	Br	1.065109	-0.027963	0.758530
Br57	Br	0.761059	-0.087066	0.097643
Br58	Br	0.722187	0.110590	-0.226088
Br59	Br	0.475251	0.106547	0.372919
H60	H	0.821562	-0.639706	0.105426
H61	H	1.031942	-0.392362	0.132385
H62	H	0.902021	-0.024393	0.522279
H63	H	0.424987	0.105680	-0.055637
Br64	Br	0.805376	-0.412814	0.103317
H65	H	1.072404	0.133882	0.544371
Br66	Br	0.764795	0.069616	0.720751
Br67	Br	0.987119	0.276122	0.749273
Br68	Br	1.116818	-0.701070	0.143329
H69	H	1.056312	-0.148436	0.135588
H70	H	1.043722	-0.296363	0.133949
Br71	Br	1.133172	-0.508863	0.145381
H72	H	0.178056	0.101641	0.396532
Br73	Br	0.812995	0.239867	0.482004
H74	H	0.550344	0.107758	0.315940
Br75	Br	0.155759	0.101250	-0.170457
H76	H	0.327498	0.104097	0.415740
