data_functionalizedCrystal
_audit_creation_method	'MofGen! by Chris Wilmer'
_symmetry_space_group_name_H-M	'P1'
_symmetry_Int_Tables_number	1
_symmetry_cell_setting	triclinic
loop_
_symmetry_equiv_pos_as_xyz
  x,y,z
_cell_length_a	10.654562
_cell_length_b	10.723024
_cell_length_c	9.730223
_cell_angle_alpha	89.999810
_cell_angle_beta	89.996961
_cell_angle_gamma	84.478987
loop_
_atom_site_label
_atom_site_type_symbol
_atom_site_fract_x
_atom_site_fract_y
_atom_site_fract_z
O1	O	1.667798	0.175345	-0.114377
O2	O	1.302319	0.192027	-0.114359
O3	O	1.493489	0.002112	-0.114363
O4	O	1.476629	0.365261	-0.114373
O5	O	1.493487	0.002116	0.114217
O6	O	1.302317	0.192032	0.114221
O7	O	1.667796	0.175350	0.114203
Zn8	Zn	1.485056	0.183692	0.150504
Zn9	Zn	1.485059	0.183685	-0.150660
O10	O	1.476626	0.365265	0.114207
C11	C	1.255521	0.190802	-0.000067
C12	C	1.116079	0.187127	-0.000060
C13	C	1.050547	0.185415	0.124528
C14	C	0.919525	0.181973	0.124505
C15	C	0.919578	0.181958	-0.124705
C16	C	1.050598	0.185392	-0.124681
C17	C	1.050515	0.185429	0.268408
C18	C	0.919493	0.181986	0.268385
C19	C	1.492261	-0.044386	-0.000075
C20	C	1.488590	-0.182941	-0.000079
C21	C	1.595559	-0.257903	-0.000086
C22	C	1.591767	-0.401107	-0.000091
C23	C	1.714595	0.176575	-0.000092
C24	C	1.854037	0.180250	-0.000107
C25	C	1.477854	0.411763	-0.000084
C26	C	1.481525	0.550318	-0.000088
N27	N	1.485063	0.183695	0.356040
N28	N	1.485062	0.183672	-0.356196
C29	C	1.569735	0.099629	0.427965
C30	C	1.569732	0.099614	0.571848
C31	C	1.400381	0.267742	0.571869
C32	C	1.400379	0.267750	0.427989
C33	C	1.667513	0.002566	0.427953
C34	C	1.667509	0.002550	0.571836
H35	H	0.866248	0.180546	-0.226167
Cl36	Cl	1.733157	-0.500552	-0.000090
Cl37	Cl	1.342856	-0.247528	-0.000086
H38	H	1.080075	0.276442	0.313049
Cl39	Cl	0.873805	0.041602	0.337612
H40	H	1.389947	-0.385275	-0.000073
H41	H	1.331422	0.336192	0.369430
Cl42	Cl	1.121965	0.052287	0.353715
H43	H	1.103952	0.186766	-0.226133
Cl44	Cl	0.848001	0.315136	0.353657
Cl45	Cl	1.293926	0.373405	0.662328
Cl46	Cl	1.620411	-0.137385	0.640737
H47	H	1.689945	-0.216062	-0.000082
Cl48	Cl	1.634428	-0.145519	0.367652
Cl49	Cl	1.816507	0.035557	0.632130
H50	H	1.758691	0.032963	0.383322
