data_functionalizedCrystal
_audit_creation_method	'MofGen! by Chris Wilmer'
_symmetry_space_group_name_H-M	'P1'
_symmetry_Int_Tables_number	1
_symmetry_cell_setting	triclinic
loop_
_symmetry_equiv_pos_as_xyz
  x,y,z
_cell_length_a	10.723024
_cell_length_b	11.792241
_cell_length_c	9.798715
_cell_angle_alpha	89.996704
_cell_angle_beta	89.996609
_cell_angle_gamma	84.330643
loop_
_atom_site_label
_atom_site_type_symbol
_atom_site_fract_x
_atom_site_fract_y
_atom_site_fract_z
O1	O	1.656766	0.159192	-0.113483
O2	O	2.156766	0.659192	0.386517
O3	O	1.293573	0.174430	-0.113488
O4	O	1.793573	0.674430	0.386512
O5	O	1.483983	0.001660	-0.113475
O6	O	1.983983	0.501660	0.386525
O7	O	1.466356	0.331962	-0.113495
O8	O	1.966356	0.831962	0.386505
O9	O	1.483969	0.001659	0.113507
O10	O	1.983969	0.501659	0.613507
O11	O	1.293559	0.174430	0.113495
O12	O	1.793559	0.674430	0.613495
O13	O	1.656752	0.159192	0.113499
O14	O	2.156752	0.659192	0.613499
Zn15	Zn	1.475153	0.166811	0.149535
Zn16	Zn	1.975153	0.666811	0.649535
Zn17	Zn	1.475172	0.166811	-0.149523
Zn18	Zn	1.975172	0.666811	0.350477
O19	O	1.466342	0.331962	0.113487
O20	O	1.966342	0.831962	0.613487
C21	C	1.247070	0.173321	0.000003
C22	C	1.747070	0.673321	0.500003
C23	C	1.108524	0.170003	0.000001
C24	C	1.608524	0.670003	0.500001
C25	C	1.033286	0.266676	-0.000005
C26	C	1.533286	0.766676	0.499995
C27	C	0.890091	0.263249	-0.000007
C28	C	1.390091	0.763249	0.499993
C29	C	1.482869	-0.040634	0.000015
C30	C	1.982869	0.459366	0.500015
C31	C	1.479555	-0.166655	0.000014
C32	C	1.979555	0.333345	0.500014
C33	C	1.473461	-0.397380	-0.000009
C34	C	1.973461	0.102620	0.499991
C35	C	1.476847	-0.268988	0.000003
C36	C	1.976847	0.231012	0.500003
C37	C	1.703256	0.160301	0.000006
C38	C	2.203256	0.660301	0.500006
C39	C	1.841801	0.163619	-0.000002
C40	C	2.341801	0.663619	0.499998
C41	C	1.467456	0.374255	-0.000006
C42	C	1.967456	0.874255	0.499994
C43	C	1.470770	0.500276	-0.000014
C44	C	1.970770	1.000276	0.499986
N45	N	1.475150	0.166809	0.353635
N46	N	1.975150	0.666809	0.853635
N47	N	1.475186	0.166803	-0.353623
N48	N	1.975186	0.666803	0.146377
C49	C	1.555098	0.093948	0.421417
C50	C	2.055098	0.593948	0.921417
C51	C	1.555118	0.093944	0.578580
C52	C	2.055118	0.593944	1.078580
H53	H	0.906445	0.080854	-0.000005
H54	H	1.406445	0.580854	0.499995
Br55	Br	1.668846	-0.010309	0.324226
Br56	Br	2.168846	0.489691	0.824226
H57	H	1.406712	0.229182	0.411955
H58	H	1.906712	0.729182	0.911955
H59	H	1.074882	0.351978	-0.000002
H60	H	1.574882	0.851978	0.499998
H61	H	0.825440	0.346009	-0.000018
H62	H	1.325440	0.846009	0.499982
Br63	Br	1.669219	-0.010022	0.675725
Br64	Br	2.169219	0.489978	1.175725
H65	H	1.066928	0.084701	-0.000028
H66	H	1.566928	0.584701	0.499972
Br67	Br	1.361102	0.270792	0.549240
Br68	Br	1.861102	0.770792	1.049240
