data_functionalizedCrystal
_audit_creation_method	'MofGen! by Chris Wilmer'
_symmetry_space_group_name_H-M	'P1'
_symmetry_Int_Tables_number	1
_symmetry_cell_setting	triclinic
loop_
_symmetry_equiv_pos_as_xyz
  x,y,z
_cell_length_a	11.792241
_cell_length_b	17.038272
_cell_length_c	10.268362
_cell_angle_alpha	89.994496
_cell_angle_beta	89.999626
_cell_angle_gamma	87.652486
loop_
_atom_site_label
_atom_site_type_symbol
_atom_site_fract_x
_atom_site_fract_y
_atom_site_fract_z
O1	O	1.516303	0.107207	-0.108175
O2	O	2.016303	0.607207	0.391825
O3	O	1.186930	0.118256	-0.108205
O4	O	1.686930	0.618256	0.391795
O5	O	1.349659	-0.001093	-0.108180
O6	O	1.849659	0.498907	0.391820
O7	O	1.353574	0.226556	-0.108200
O8	O	1.853574	0.726556	0.391800
O9	O	1.349643	-0.001098	0.108421
O10	O	1.849643	0.498902	0.608421
O11	O	1.186914	0.118251	0.108396
O12	O	1.686914	0.618251	0.608396
O13	O	1.516287	0.107202	0.108426
O14	O	2.016287	0.607202	0.608426
Cu15	Cu	1.351600	0.112726	0.128188
Cu16	Cu	1.851600	0.612726	0.628188
Cu17	Cu	1.351618	0.112732	-0.127967
Cu18	Cu	1.851618	0.612732	0.372033
O19	O	1.353558	0.226551	0.108401
O20	O	1.853558	0.726551	0.608401
C21	C	1.144571	0.117559	0.000092
C22	C	1.644571	0.617559	0.500092
C23	C	1.018375	0.115482	0.000080
C24	C	1.518375	0.615482	0.500080
C25	C	0.787328	0.111662	0.000118
C26	C	1.287328	0.611662	0.500118
C27	C	0.915899	0.113785	0.000097
C28	C	1.415899	0.613785	0.500097
C29	C	1.346090	-0.030239	0.000120
C30	C	1.846090	0.469761	0.500120
C31	C	1.335466	-0.117079	0.000119
C32	C	1.835466	0.382921	0.500119
C33	C	1.433006	-0.166762	0.000129
C34	C	1.933006	0.333238	0.500129
C35	C	1.423017	-0.248357	0.000116
C36	C	1.923017	0.251643	0.500116
C37	C	1.315487	-0.280267	0.000102
C38	C	1.815487	0.219733	0.500102
C39	C	1.217940	-0.230577	0.000087
C40	C	1.717940	0.269423	0.500087
C41	C	1.227930	-0.148984	0.000091
C42	C	1.727930	0.351016	0.500091
C43	C	1.280194	-0.526181	0.000081
C44	C	1.780194	-0.026181	0.500081
C45	C	1.270211	-0.607780	0.000080
C46	C	1.770211	-0.107780	0.500080
C47	C	1.475289	-0.625554	0.000107
C48	C	1.975289	-0.125554	0.500107
C49	C	1.485270	-0.543958	0.000118
C50	C	1.985270	-0.043958	0.500118
C51	C	1.387723	-0.494276	0.000097
C52	C	1.887723	0.005724	0.500097
C53	C	1.305274	-0.363669	0.000092
C54	C	1.805274	0.136331	0.500092
C55	C	1.397937	-0.410875	0.000097
C56	C	1.897937	0.089125	0.500097
C57	C	1.558647	0.107899	0.000127
C58	C	2.058647	0.607899	0.500127
C59	C	1.684843	0.109976	0.000130
C60	C	2.184843	0.609976	0.500130
C61	C	1.357127	0.255697	0.000098
C62	C	1.857127	0.755697	0.500098
C63	C	1.367751	0.342537	0.000091
C64	C	1.867751	0.842537	0.500091
N65	N	1.351595	0.112721	0.308354
N66	N	1.851595	0.612721	0.808354
N67	N	1.351631	0.112730	-0.308133
N68	N	1.851631	0.612730	0.191867
C69	C	1.351612	0.112730	0.574025
C70	C	1.851612	0.612730	1.074025
C71	C	1.351599	0.112728	0.426187
C72	C	1.851599	0.612728	0.926187
H73	H	1.502445	-0.288806	0.000127
H74	H	2.002445	0.211194	0.500127
C75	C	1.153356	-0.642276	-0.000018
C76	C	1.653356	-0.142276	0.499982
C77	C	1.070065	-0.581303	-0.000076
C78	C	1.570065	-0.081303	0.499924
C79	C	0.962413	-0.613051	-0.000185
C80	C	1.462413	-0.113051	0.499815
H81	H	1.145022	-0.673729	0.075493
H82	H	1.645022	-0.173729	0.575493
H83	H	1.145158	-0.673710	-0.075584
H84	H	1.645158	-0.173710	0.424416
H85	H	1.078260	-0.549882	0.075483
H86	H	1.578260	-0.049882	0.575483
H87	H	1.078362	-0.549844	-0.075580
H88	H	1.578362	-0.049844	0.424420
H89	H	0.954215	-0.644485	-0.075751
H90	H	1.454215	-0.144485	0.424249
H91	H	0.954091	-0.644504	0.075327
H92	H	1.454091	-0.144504	0.575327
H93	H	0.905887	-0.571687	-0.000236
H94	H	1.405887	-0.071687	0.499764
H95	H	1.148503	-0.108532	0.000083
H96	H	1.648503	0.391468	0.500083
H97	H	1.520568	-0.140788	0.000149
H98	H	2.020568	0.359212	0.500149
C99	C	1.174324	-0.472212	-0.000202
C100	C	1.674324	0.027788	0.499798
C101	C	1.174052	-0.424860	-0.111657
C102	C	1.674052	0.075140	0.388343
C103	C	1.076529	-0.375139	-0.111969
C104	C	1.576529	0.124861	0.388031
H105	H	1.173843	-0.439942	0.075242
H106	H	1.673843	0.060058	0.575242
H107	H	1.108829	-0.502881	-0.000276
H108	H	1.608829	-0.002881	0.499724
H109	H	1.239530	-0.394194	-0.111570
H110	H	1.739530	0.105806	0.388430
H111	H	1.174516	-0.457108	-0.187118
H112	H	1.674516	0.042892	0.312882
H113	H	1.011034	-0.405808	-0.112044
H114	H	1.511034	0.094192	0.387956
H115	H	1.076057	-0.342875	-0.036521
H116	H	1.576057	0.157125	0.463479
H117	H	1.076327	-0.343010	-0.187596
H118	H	1.576327	0.156990	0.312404
H119	H	1.485487	-0.384890	0.000080
H120	H	1.985487	0.115110	0.500080
H121	H	1.130387	-0.256565	0.000067
H122	H	1.630387	0.243435	0.500067
H123	H	1.554706	-0.666014	0.000121
H124	H	2.054706	-0.166014	0.500121
C125	C	1.602051	-0.509365	-0.000134
C126	C	2.102051	-0.009365	0.499866
C127	C	1.661486	-0.534551	-0.111578
C128	C	2.161486	-0.034551	0.388422
C129	C	1.769064	-0.502692	-0.111855
C130	C	2.269064	-0.002692	0.388145
H131	H	1.642672	-0.526375	0.075317
H132	H	2.142672	-0.026375	0.575317
H133	H	1.594086	-0.453651	-0.000199
H134	H	2.094086	0.046349	0.499801
H135	H	1.669456	-0.590252	-0.111501
H136	H	2.169456	-0.090252	0.388499
H137	H	1.620899	-0.517541	-0.187047
H138	H	2.120899	-0.017541	0.312953
H139	H	1.761099	-0.446979	-0.111920
H140	H	2.261099	0.053021	0.388080
H141	H	1.809675	-0.519706	-0.036399
H142	H	2.309675	-0.019706	0.463601
H143	H	1.809400	-0.519771	-0.187474
H144	H	2.309400	-0.019771	0.312526
H145	H	1.217723	-0.389660	0.000083
H146	H	1.717723	0.110340	0.500083
