data_functionalizedCrystal
_audit_creation_method	'MofGen! by Chris Wilmer'
_symmetry_space_group_name_H-M	'P1'
_symmetry_Int_Tables_number	1
_symmetry_cell_setting	triclinic
loop_
_symmetry_equiv_pos_as_xyz
  x,y,z
_cell_length_a	27.440280
_cell_length_b	20.016444
_cell_length_c	20.016444
_cell_angle_alpha	90.002955
_cell_angle_beta	59.992079
_cell_angle_gamma	60.003096
loop_
_atom_site_label
_atom_site_type_symbol
_atom_site_fract_x
_atom_site_fract_y
_atom_site_fract_z
Zr1	Zr	0.533505	0.643548	-0.087793
O2	O	0.635184	0.536865	-0.194492
O3	O	0.431827	0.676256	-0.055068
O4	O	0.533510	0.676243	-0.194470
O5	O	0.533497	0.536883	0.054855
O6	O	0.533514	0.786183	-0.194470
O7	O	0.533501	0.536877	-0.055090
O8	O	0.351621	0.786206	0.054895
O9	O	0.715390	0.536861	-0.194510
O10	O	0.473651	0.772248	-0.041130
O11	O	0.473646	0.690205	0.040921
O12	O	0.593365	0.690190	-0.123207
O13	O	0.593359	0.608148	-0.041156
Zr14	Zr	0.533505	0.818899	0.087557
Zr15	Zr	0.533512	0.818889	-0.087793
Zr16	Zr	0.533499	0.643557	0.087557
Zr17	Zr	0.661425	0.643541	-0.087821
Zr18	Zr	0.405586	0.818905	0.087585
O19	O	0.635184	0.786191	0.054832
O20	O	0.635193	0.786178	-0.194492
O21	O	0.635176	0.536878	0.054833
O22	O	0.431827	0.925582	0.194257
O23	O	0.431835	0.925569	-0.055068
O24	O	0.431818	0.676269	0.194257
O25	O	0.533514	0.925563	-0.055091
O26	O	0.533501	0.786204	0.194234
O27	O	0.533497	0.676264	0.194235
O28	O	0.533510	0.925569	0.054855
O29	O	0.715395	0.676234	-0.194510
O30	O	0.351616	0.786213	0.194274
O31	O	0.351621	0.925586	0.194274
O32	O	0.351625	0.925579	0.054894
O33	O	0.715385	0.536868	-0.055130
O34	O	0.715390	0.676241	-0.055130
O35	O	0.473646	0.772256	0.122972
O36	O	0.473651	0.854299	0.040921
O37	O	0.593365	0.772241	-0.041156
O38	O	0.593359	0.690199	0.040895
C39	C	0.373498	0.731232	-0.000083
C40	C	0.319193	0.731234	-0.000071
C41	C	0.026694	0.670650	-0.060721
C42	C	-0.024323	0.670649	-0.060729
O43	O	-0.013130	0.619152	-0.112268
N44	N	-0.094027	0.731220	-0.000150
C45	C	-0.112714	0.791801	0.060437
O46	O	-0.176687	0.843322	0.111963
C47	C	-0.061697	0.791804	0.060442
C48	C	0.008007	0.731224	-0.000137
C49	C	0.096395	0.610075	-0.121295
C50	C	0.147409	0.610075	-0.121285
C51	C	0.128721	0.670650	-0.060701
C52	C	0.059020	0.731224	-0.000127
C53	C	-0.080385	0.852387	0.121025
C54	C	-0.029361	0.852386	0.121024
C55	C	0.040343	0.791806	0.060445
C56	C	0.091346	0.791798	0.060466
N57	N	0.161050	0.731227	-0.000113
C58	C	0.179738	0.670653	-0.060697
C59	C	-0.219849	0.791790	0.060422
C60	C	-0.270865	0.791785	0.060422
C61	C	-0.182470	0.670633	-0.060745
C62	C	-0.131454	0.670637	-0.060741
C63	C	-0.150145	0.731219	-0.000157
C64	C	0.286866	0.670657	-0.060672
C65	C	0.337880	0.670660	-0.060655
C66	C	0.249481	0.791813	0.060510
C67	C	0.198471	0.791808	0.060496
C68	C	0.217169	0.731226	-0.000102
O69	O	0.080205	0.843271	0.111977
O70	O	0.243711	0.619147	-0.112221
C71	C	0.533498	0.511898	-0.000117
C72	C	0.533495	0.437461	-0.000117
C73	C	0.471014	0.309027	0.042728
C74	C	0.471017	0.239082	0.042730
C75	C	0.596002	0.153421	-0.042965
C76	C	0.595998	0.223366	-0.042961
C77	C	0.533502	0.301168	-0.000117
C78	C	0.533509	0.161279	-0.000118
C79	C	0.533512	0.085441	-0.000117
C80	C	0.533498	0.377011	-0.000118
C81	C	0.693513	0.731215	-0.000153
C82	C	0.747818	0.731212	-0.000165
C83	C	0.533513	0.731212	-0.219454
C84	C	0.533516	0.731208	-0.293894
C85	C	0.533513	0.950549	-0.000118
C86	C	0.533516	1.024986	-0.000118
C87	C	0.595997	0.688389	-0.507994
C88	C	0.595994	0.688396	-0.577935
C89	C	0.471009	0.774063	-0.492234
C90	C	0.471013	0.774061	-0.422294
C91	C	0.533509	0.731219	-0.430177
C92	C	0.533502	0.731228	-0.570058
C93	C	0.533499	0.731235	-0.645891
C94	C	0.533513	0.731212	-0.354340
C95	C	0.533498	0.731235	0.219218
C96	C	0.533495	0.731239	0.293659
C97	C	0.373506	0.950557	-0.000083
C98	C	0.319203	1.024997	-0.000071
C99	C	0.373490	0.731243	0.219253
C100	C	0.319183	0.731250	0.293706
C101	C	0.373498	0.950569	0.219253
C102	C	0.319193	1.025012	0.293705
C103	C	0.693513	0.511878	-0.219488
C104	C	0.747818	0.437434	-0.293941
C105	C	0.693505	0.511890	-0.000152
C106	C	0.747808	0.437450	-0.000164
C107	C	0.693521	0.731203	-0.219489
C108	C	0.747828	0.731197	-0.293941
C109	C	0.293702	1.017125	-0.042903
C110	C	0.242686	1.087062	-0.042908
C111	C	0.217169	1.164871	-0.000077
C112	C	0.242675	1.172741	0.042756
C113	C	0.293693	1.102805	0.042756
C114	C	0.293679	0.774083	0.371506
C115	C	0.242658	0.774086	0.441469
C116	C	0.217139	0.731261	0.433629
C117	C	0.242647	0.688422	0.355820
C118	C	0.293670	0.688415	0.285859
C119	C	0.293694	1.102805	0.285839
C120	C	0.242675	1.172759	0.355788
C121	C	0.217154	1.164920	0.433603
C122	C	0.242658	1.087119	0.441467
C123	C	0.293679	1.017166	0.371519
C124	C	0.773324	0.359642	-0.286075
C125	C	0.824358	0.289687	-0.356024
C126	C	0.849882	0.297527	-0.433838
C127	C	0.824374	0.375328	-0.441703
C128	C	0.773345	0.445280	-0.371754
C129	C	0.773314	0.445322	0.042660
C130	C	0.824344	0.375385	0.042646
C131	C	0.849863	0.297576	-0.000188
C132	C	0.824355	0.289705	-0.043017
C133	C	0.773329	0.359642	-0.043008
C134	C	0.773332	0.774031	-0.286075
C135	C	0.824353	0.774040	-0.356024
C136	C	0.849873	0.731211	-0.433839
C137	C	0.824364	0.688376	-0.441703
C138	C	0.773341	0.688371	-0.371755
H139	H	0.111623	0.560747	-0.170634
H140	H	0.221891	1.236103	0.077628
C141	C	0.413573	0.604812	-0.126315
C142	C	0.445435	0.560834	-0.089435
C143	C	0.515156	0.500168	-0.149895
H144	H	0.435403	0.629597	-0.156262
H145	H	0.417423	0.568694	-0.162394
H146	H	0.441589	0.596947	-0.053371
H147	H	0.423625	0.536032	-0.059494
H148	H	0.519007	0.464049	-0.185974
H149	H	0.536980	0.524959	-0.179838
H150	H	0.536782	0.470317	-0.124882
C151	C	0.214828	0.820673	0.525991
C152	C	0.143827	0.880331	0.568679
C153	C	0.118165	0.923255	0.646544
H154	H	0.237250	0.846256	0.520752
H155	H	0.223151	0.783737	0.555101
H156	H	0.135508	0.917262	0.539576
H157	H	0.121386	0.854770	0.573940
H158	H	0.126489	0.886318	0.675653
H159	H	0.140593	0.948833	0.641296
H160	H	0.069988	0.963732	0.675519
C161	C	0.663924	0.069022	-0.089511
C162	C	0.718648	0.077112	-0.127019
C163	C	0.781229	-0.000618	-0.169903
H164	H	0.666614	0.039894	-0.130098
H165	H	0.666568	0.039937	-0.052564
H166	H	0.716006	0.106185	-0.163963
H167	H	0.715981	0.106226	-0.086451
H168	H	0.783873	-0.029703	-0.132955
H169	H	0.783912	-0.029739	-0.210485
H170	H	0.818367	0.004861	-0.195350
H171	H	-0.137134	0.901719	0.170354
H172	H	0.845117	0.226346	-0.349604
H173	H	-0.044588	0.901721	0.170359
C174	C	0.851916	0.383890	-0.526166
C175	C	0.797765	0.426713	-0.534922
C176	C	0.823092	0.434596	-0.612727
H177	H	0.885913	0.331116	-0.566728
H178	H	0.871822	0.412979	-0.532437
H179	H	0.777869	0.397623	-0.528659
H180	H	0.763763	0.479494	-0.494379
H181	H	0.842998	0.463685	-0.618998
H182	H	0.857089	0.381819	-0.653282
H183	H	0.786354	0.463658	-0.618676
H184	H	0.752579	0.508620	-0.378169
H185	H	0.221861	0.653555	0.349449
C186	C	0.403223	0.247493	0.089108
C187	C	0.399581	0.209817	0.034449
C188	C	0.337141	0.217541	0.077147
H189	H	0.365946	0.303810	0.114629
H190	H	0.400620	0.221958	0.129622
H191	H	0.402177	0.235354	-0.006051
H192	H	0.436843	0.153498	0.008925
H193	H	0.334538	0.192006	0.117662
H194	H	0.299869	0.273859	0.102667
H195	H	0.334665	0.191973	0.040069
H196	H	0.175626	1.221811	-0.000082
H197	H	0.314466	1.109203	0.222485
H198	H	0.646887	0.216961	-0.077849
C199	C	-0.055814	0.604823	-0.126610
C200	C	-0.050378	0.551788	-0.179674
C201	C	0.019289	0.491156	-0.240372
H202	H	-0.034005	0.574818	-0.101835
H203	H	-0.034054	0.629676	-0.156578
H204	H	-0.072128	0.526937	-0.149710
H205	H	-0.072172	0.581769	-0.204470
H206	H	0.041049	0.516009	-0.270340
H207	H	0.041093	0.461158	-0.215589
H208	H	0.022987	0.455170	-0.276387
H209	H	-0.327619	0.841108	0.109759
C210	C	0.663920	0.641868	-0.516721
C211	C	0.718643	0.604379	-0.599842
C212	C	0.781225	0.561527	-0.607916
H213	H	0.666619	0.601279	-0.491287
H214	H	0.666555	0.678825	-0.491256
H215	H	0.716008	0.567425	-0.625296
H216	H	0.715966	0.644949	-0.625292
H217	H	0.783860	0.598484	-0.582451
H218	H	0.783917	0.520943	-0.582478
H219	H	0.818362	0.536092	-0.664313
H220	H	0.314452	0.808957	0.377905
C221	C	0.215059	1.078334	-0.089422
C222	C	0.248309	0.995222	-0.126901
C223	C	0.222872	0.987149	-0.169746
H224	H	0.223419	1.103757	-0.130022
H225	H	0.166884	1.103804	-0.052455
H226	H	0.296472	0.969764	-0.163865
H227	H	0.239953	0.969782	-0.086320
H228	H	0.174697	1.012619	-0.132779
H229	H	0.231233	1.012576	-0.210342
H230	H	0.245424	0.930758	-0.195174
C231	C	-0.162324	0.604894	-0.126415
C232	C	-0.221925	0.617848	-0.113430
C233	C	-0.203398	0.557285	-0.173879
H234	H	-0.135853	0.552605	-0.123884
H235	H	-0.135806	0.607325	-0.178765
H236	H	-0.248433	0.615408	-0.061094
H237	H	-0.248404	0.670125	-0.115968
H238	H	-0.176880	0.559716	-0.226228
H239	H	-0.176926	0.504999	-0.171343
H240	H	-0.243834	0.566070	-0.165081
H241	H	0.204162	0.560751	-0.170621
H242	H	0.221871	1.080748	0.504833
C243	C	0.161662	0.731312	0.509523
C244	C	0.103076	0.765130	0.509342
C245	C	0.051960	0.765186	0.579238
H246	H	0.150042	0.762967	0.557038
H247	H	0.178347	0.676748	0.509535
H248	H	0.086393	0.819686	0.509337
H249	H	0.114674	0.733485	0.461842
H250	H	0.068645	0.710622	0.579251
H251	H	0.040345	0.796840	0.626748
H252	H	0.012206	0.788124	0.579121
C253	C	0.663819	0.642044	-0.662442
C254	C	0.667479	0.696713	-0.705086
C255	C	0.729956	0.654046	-0.782933
H256	H	0.666484	0.601517	-0.691613
H257	H	0.701057	0.616555	-0.657150
H258	H	0.630252	0.722190	-0.710381
H259	H	0.664827	0.737242	-0.675940
H260	H	0.767194	0.628556	-0.777641
H261	H	0.732615	0.613520	-0.812096
H262	H	0.732451	0.691133	-0.811874
C263	C	-0.240288	0.857609	0.126307
C264	C	-0.312251	0.910634	0.179366
C265	C	-0.331106	0.971268	0.240073
H266	H	-0.222290	0.887619	0.101538
H267	H	-0.222267	0.832756	0.156276
H268	H	-0.330264	0.935485	0.149400
H269	H	-0.330265	0.880648	0.204154
H270	H	-0.313086	0.946416	0.270042
H271	H	-0.313105	1.001272	0.215297
H272	H	-0.379934	1.007249	0.276084
C273	C	0.321237	0.641901	0.201462
C274	C	0.287948	0.604422	0.209582
C275	C	0.313314	0.561574	0.131855
H276	H	0.369404	0.601308	0.172303
H277	H	0.312846	0.678859	0.172392
H278	H	0.296344	0.567467	0.238640
H279	H	0.239782	0.644997	0.238728
H280	H	0.304923	0.598532	0.102785
H281	H	0.361481	0.520985	0.102701
H282	H	0.290727	0.536146	0.137354
C283	C	0.905174	0.731323	-0.509809
C284	C	0.880357	0.765171	-0.556280
C285	C	0.931278	0.765299	-0.626260
H286	H	0.945016	0.676792	-0.541554
H287	H	0.916700	0.762998	-0.494007
H288	H	0.868840	0.733496	-0.572083
H289	H	0.840521	0.819705	-0.524559
H290	H	0.942805	0.796973	-0.610458
H291	H	0.971117	0.710765	-0.657998
H292	H	0.914445	0.788270	-0.657795
H293	H	0.420127	0.808942	-0.485825
H294	H	0.314450	1.109226	0.077639
H295	H	0.845105	0.381809	0.077526
C296	C	0.745543	0.641987	-0.380238
C297	C	0.674547	0.696621	-0.342590
C298	C	0.648925	0.653913	-0.350397
H299	H	0.753849	0.601462	-0.354727
H300	H	0.768011	0.616491	-0.436590
H301	H	0.652085	0.722104	-0.286249
H302	H	0.666222	0.737148	-0.368093
H303	H	0.671393	0.628417	-0.406750
H304	H	0.657235	0.613389	-0.324886
H305	H	0.600752	0.690977	-0.324862
H306	H	0.141713	0.841129	0.109831
H307	H	0.314434	0.953827	0.377935
C308	C	0.851954	0.641998	-0.526171
C309	C	0.797854	0.673327	-0.535015
C310	C	0.823250	0.630629	-0.612822
H311	H	0.871854	0.585637	-0.532406
H312	H	0.885973	0.648155	-0.566722
H313	H	0.763847	0.667162	-0.494476
H314	H	0.777949	0.729683	-0.528797
H315	H	0.857270	0.636786	-0.653372
H316	H	0.843150	0.574270	-0.619049
H317	H	0.786549	0.651885	-0.618835
C318	C	0.851995	0.205295	-0.089593
C319	C	0.818750	0.213356	-0.127113
C320	C	0.844197	0.135614	-0.170027
H321	H	0.843636	0.176176	-0.052686
H322	H	0.900169	0.176212	-0.130173
H323	H	0.770587	0.242427	-0.086538
H324	H	0.827105	0.242461	-0.164033
H325	H	0.892371	0.106531	-0.210607
H326	H	0.835837	0.106502	-0.133115
H327	H	0.821649	0.141073	-0.195496
C328	C	0.403092	0.820580	-0.337871
C329	C	0.348359	0.858076	-0.345935
C330	C	0.285784	0.900927	-0.268184
H331	H	0.400399	0.861163	-0.308736
H332	H	0.400459	0.783621	-0.308797
H333	H	0.350991	0.895032	-0.374996
H334	H	0.351029	0.817511	-0.375055
H335	H	0.283152	0.863968	-0.239110
H336	H	0.283099	0.941507	-0.239056
H337	H	0.248641	0.926367	-0.273645
H338	H	0.891433	0.240560	-0.490788
H339	H	0.314478	0.953775	-0.077791
H340	H	0.221915	1.236101	0.349370
C341	C	0.161730	1.240972	0.509445
C342	C	0.144852	1.310774	0.485890
C343	C	0.093792	1.380851	0.555729
H344	H	0.178379	1.241103	0.541139
H345	H	0.121885	1.241035	0.541098
H346	H	0.184690	1.310712	0.454251
H347	H	0.128192	1.310671	0.454205
H348	H	0.053946	1.380913	0.587383
H349	H	0.110445	1.380973	0.587419
H350	H	0.082329	1.428219	0.539758
C351	C	0.745490	0.529817	0.089288
C352	C	0.674496	0.572473	0.148994
C353	C	0.648848	0.650306	0.191970
H354	H	0.753780	0.558978	0.052407
H355	H	0.767954	0.524515	0.114836
H356	H	0.652039	0.577779	0.123448
H357	H	0.666186	0.543337	0.185893
H358	H	0.671312	0.645004	0.217517
H359	H	0.657143	0.679459	0.155082
H360	H	0.600677	0.679255	0.232490
C361	C	0.745493	0.351205	-0.089355
C362	C	0.674495	0.388868	-0.034673
C363	C	0.648830	0.381115	-0.077341
H364	H	0.767920	0.294884	-0.114865
H365	H	0.753809	0.376736	-0.129877
H366	H	0.666185	0.363335	0.005834
H367	H	0.652050	0.445192	-0.009160
H368	H	0.657145	0.406645	-0.117863
H369	H	0.671262	0.324792	-0.102850
H370	H	0.600654	0.406674	-0.040247
H371	H	0.752544	0.353243	-0.222720
H372	H	0.891412	0.240636	-0.000189
H373	H	0.752561	0.808907	-0.222721
H374	H	0.845117	0.808920	-0.349605
H375	H	0.302100	0.621326	-0.110017
H376	H	0.234276	0.841130	0.109838
H377	H	0.420125	0.372374	0.077623
