data_functionalizedCrystal
_audit_creation_method	'MofGen! by Chris Wilmer'
_symmetry_space_group_name_H-M	'P1'
_symmetry_Int_Tables_number	1
_symmetry_cell_setting	triclinic
loop_
_symmetry_equiv_pos_as_xyz
  x,y,z
_cell_length_a	17.077404
_cell_length_b	19.076808
_cell_length_c	19.076919
_cell_angle_alpha	89.878360
_cell_angle_beta	92.279190
_cell_angle_gamma	92.321597
loop_
_atom_site_label
_atom_site_type_symbol
_atom_site_fract_x
_atom_site_fract_y
_atom_site_fract_z
Zn1	Zn	1.169468	-0.295776	-0.386088
Zn2	Zn	1.669468	0.204224	0.113912
Zn3	Zn	1.169798	-0.408571	-0.263858
Zn4	Zn	1.669798	0.091429	0.236142
Zn5	Zn	1.043681	-0.291072	-0.268593
Zn6	Zn	1.543681	0.208928	0.231407
Zn7	Zn	1.033112	-0.413249	-0.381321
Zn8	Zn	1.533112	0.086751	0.118679
O9	O	1.104015	-0.352167	-0.324965
O10	O	1.604015	0.147833	0.175035
O11	O	1.279357	-0.310749	-0.369888
O12	O	1.779357	0.189251	0.130112
O13	O	1.157630	-0.389058	-0.166155
O14	O	1.657630	0.110942	0.333845
O15	O	1.064652	-0.193359	-0.288156
O16	O	1.564652	0.306641	0.211844
O17	O	1.279600	-0.393619	-0.280086
O18	O	1.779600	0.106381	0.219914
O19	O	1.157067	-0.196815	-0.374479
O20	O	1.657067	0.303185	0.125521
O21	O	1.064973	-0.302731	-0.169634
O22	O	1.564973	0.197269	0.330366
O23	O	0.932433	-0.307267	-0.283533
O24	O	1.432433	0.192733	0.216467
O25	O	1.046638	-0.401592	-0.480284
O26	O	1.546638	0.098408	0.019716
O27	O	0.924668	-0.397030	-0.366354
O28	O	1.424668	0.102970	0.133646
O29	O	1.146818	-0.315285	-0.483787
O30	O	1.646818	0.184715	0.016213
O31	O	1.147382	-0.507528	-0.275463
O32	O	1.647382	-0.007528	0.224537
O33	O	1.046959	-0.510965	-0.361762
O34	O	1.546959	-0.010965	0.138238
C35	C	0.900069	-0.352147	-0.324940
C36	C	1.400069	0.147853	0.175060
C37	C	0.812818	-0.352156	-0.324946
C38	C	1.312818	0.147844	0.175054
C39	C	0.436864	-0.309120	-0.371818
C40	C	0.936864	0.190880	0.128182
C41	C	0.518845	-0.309115	-0.371811
C42	C	1.018845	0.190885	0.128189
C43	C	0.559967	-0.352182	-0.324982
C44	C	1.059967	0.147818	0.175018
C45	C	0.519102	-0.395263	-0.278163
C46	C	1.019102	0.104737	0.221837
C47	C	0.437122	-0.395271	-0.278174
C48	C	0.937122	0.104729	0.221826
C49	C	0.689974	-0.395241	-0.278141
C50	C	1.189974	0.104759	0.221859
C51	C	0.771960	-0.395231	-0.278128
C52	C	1.271960	0.104769	0.221872
C53	C	0.771697	-0.309084	-0.371778
C54	C	1.271697	0.190916	0.128222
C55	C	0.689717	-0.309093	-0.371789
C56	C	1.189717	0.190907	0.128211
C57	C	0.648859	-0.352173	-0.324969
C58	C	1.148859	0.147827	0.175031
C59	C	1.096080	-0.534744	-0.317597
C60	C	1.596080	-0.034744	0.182403
C61	C	1.092756	-0.612853	-0.314468
C62	C	1.592756	-0.112853	0.185532
C63	C	1.139270	-0.651289	-0.357979
C64	C	1.639270	-0.151289	0.142021
C65	C	1.136144	-0.724680	-0.355040
C66	C	1.636144	-0.224680	0.144960
C67	C	1.086506	-0.759634	-0.308587
C68	C	1.586506	-0.259634	0.191413
C69	C	1.039987	-0.721192	-0.265075
C70	C	1.539987	-0.221192	0.234925
C71	C	1.043110	-0.647803	-0.268017
C72	C	1.543110	-0.147803	0.231983
C73	C	1.072008	-0.978939	-0.294967
C74	C	1.572008	-0.478939	0.205033
C75	C	1.068890	-1.052334	-0.292026
C76	C	1.568890	-0.552334	0.207974
C77	C	1.165047	-1.055816	-0.381992
C78	C	1.665047	-0.555816	0.118008
C79	C	1.168169	-0.982425	-0.384928
C80	C	1.668169	-0.482425	0.115072
C81	C	1.121646	-0.943990	-0.341418
C82	C	1.621646	-0.443990	0.158582
N83	N	1.083311	-0.834651	-0.305581
N84	N	1.583311	-0.334651	0.194419
N85	N	1.124837	-0.868974	-0.344429
N86	N	1.624837	-0.368974	0.155571
C87	C	1.308757	-0.352187	-0.324990
C88	C	1.808757	0.147813	0.175010
C89	C	1.396006	-0.352196	-0.325001
C90	C	1.896006	0.147804	0.174999
C91	C	1.095512	-0.359485	-0.508245
C92	C	1.595512	0.140515	-0.008245
C93	C	1.091889	-0.362604	-0.586348
C94	C	1.591889	0.137396	-0.086348
C95	C	1.112001	-0.168877	-0.332378
C96	C	1.612001	0.331123	0.167622
C97	C	1.115405	-0.090770	-0.335536
C98	C	1.615405	0.409230	0.164464
C99	C	1.142342	-0.319136	-0.624865
C100	C	1.642342	0.180864	-0.124865
C101	C	1.138928	-0.322064	-0.698251
C102	C	1.638928	0.177936	-0.198251
C103	C	1.085064	-0.368464	-0.733118
C104	C	1.585064	0.131536	-0.233118
C105	C	1.034605	-0.411933	-0.694595
C106	C	1.534605	0.088067	-0.194595
C107	C	1.038016	-0.409002	-0.621211
C108	C	1.538016	0.090998	-0.121211
C109	C	1.069267	-0.382047	-0.952399
C110	C	1.569267	0.117953	-0.452399
C111	C	1.065862	-0.384977	-1.025789
C112	C	1.565862	0.115023	-0.525789
C113	C	1.170184	-0.295106	-1.029439
C114	C	1.670184	0.204894	-0.529439
C115	C	1.173593	-0.292181	-0.956053
C116	C	1.673593	0.207819	-0.456053
C117	C	1.123132	-0.335649	-0.917537
C118	C	1.623132	0.164351	-0.417537
N119	N	1.081575	-0.371459	-0.808130
N120	N	1.581575	0.128541	-0.308130
N121	N	1.126618	-0.332649	-0.842526
N122	N	1.626618	0.167351	-0.342526
C123	C	1.112531	-0.344826	-0.142401
C124	C	1.612531	0.155174	0.357599
C125	C	1.116315	-0.341509	-0.064306
C126	C	1.616315	0.158491	0.435694
H127	H	0.656709	-0.430324	-0.240018
H128	H	1.156709	0.069676	0.259982
Cl129	Cl	1.241312	-0.233848	-0.912226
Cl130	Cl	1.741312	0.266152	-0.412226
Cl131	Cl	1.210065	-0.260805	-0.581040
Cl132	Cl	1.710065	0.239195	-0.081040
H133	H	1.028189	-0.417451	-0.921047
H134	H	1.528189	0.082549	-0.421047
H135	H	0.552589	-0.430332	-0.240037
H136	H	1.052589	0.069668	0.259963
H137	H	0.552109	-0.274041	-0.409937
H138	H	1.052109	0.225959	0.090063
H139	H	1.174027	-0.755971	-0.390466
H140	H	1.674027	-0.255971	0.109534
Cl141	Cl	0.823062	-0.254923	-0.430634
Cl142	Cl	1.323062	0.245077	0.069366
Cl143	Cl	0.385756	-0.449432	-0.219321
Cl144	Cl	0.885756	0.050568	0.280679
H145	H	1.034129	-0.947651	-0.259538
H146	H	1.534129	-0.447651	0.240462
Cl147	Cl	1.223525	-1.104138	-0.436690
Cl148	Cl	1.723525	-0.604138	0.063310
Cl149	Cl	0.977577	-0.765135	-0.206683
Cl150	Cl	1.477577	-0.265135	0.293317
Cl151	Cl	1.230571	-0.938488	-0.443329
Cl152	Cl	1.730571	-0.438488	0.056671
Cl153	Cl	1.202392	-0.267447	-0.746669
Cl154	Cl	1.702392	0.232553	-0.246669
H155	H	1.028466	-1.080791	-0.254198
H156	H	1.528466	-0.580791	0.245802
Cl157	Cl	1.233615	-0.240463	-1.077864
Cl158	Cl	1.733615	0.259537	-0.577864
H159	H	0.805438	-0.430302	-0.239998
H160	H	1.305438	0.069698	0.260002
H161	H	1.179694	-0.622834	-0.395803
H162	H	1.679694	-0.122834	0.104197
H163	H	1.021997	-0.422763	-1.054175
H164	H	1.521997	0.077237	-0.554175
H165	H	1.005231	-0.616509	-0.232587
H166	H	1.505231	-0.116509	0.267413
Cl167	Cl	0.966887	-0.470263	-0.738428
Cl168	Cl	1.466887	0.029737	-0.238428
H169	H	0.403390	-0.274046	-0.409948
H170	H	0.903390	0.225954	0.090052
Cl171	Cl	0.638023	-0.254948	-0.430658
Cl172	Cl	1.138023	0.245052	0.069342
Cl173	Cl	0.974584	-0.463647	-0.572788
Cl174	Cl	1.474584	0.036353	-0.072788
