data_functionalizedCrystal
_audit_creation_method	'MofGen! by Chris Wilmer'
_symmetry_space_group_name_H-M	'P1'
_symmetry_Int_Tables_number	1
_symmetry_cell_setting	triclinic
loop_
_symmetry_equiv_pos_as_xyz
  x,y,z
_cell_length_a	16.625546
_cell_length_b	14.908558
_cell_length_c	14.909227
_cell_angle_alpha	83.210269
_cell_angle_beta	86.672122
_cell_angle_gamma	86.717541
loop_
_atom_site_label
_atom_site_type_symbol
_atom_site_fract_x
_atom_site_fract_y
_atom_site_fract_z
Zn1	Zn	-0.363503	1.413358	-0.591490
Zn2	Zn	-0.030170	1.746691	-0.258157
Zn3	Zn	0.303164	2.080024	0.075176
Zn4	Zn	-0.505701	1.404511	-0.440113
Zn5	Zn	-0.172367	1.737845	-0.106780
Zn6	Zn	0.160966	2.071178	0.226553
Zn7	Zn	-0.363519	1.253251	-0.431423
Zn8	Zn	-0.030186	1.586584	-0.098089
Zn9	Zn	0.303148	1.919918	0.235244
Zn10	Zn	-0.490927	1.261951	-0.582717
Zn11	Zn	-0.157594	1.595284	-0.249384
Zn12	Zn	0.175739	1.928618	0.083949
O13	O	-0.430912	1.333268	-0.511436
O14	O	-0.097579	1.666601	-0.178103
O15	O	0.235754	1.999934	0.155231
O16	O	-0.388542	1.538851	-0.578718
O17	O	-0.055209	1.872185	-0.245385
O18	O	0.278125	2.205518	0.087948
O19	O	-0.493029	1.377103	-0.312291
O20	O	-0.159696	1.710436	0.021042
O21	O	0.173637	2.043770	0.354376
O22	O	-0.250686	1.274551	-0.452690
O23	O	0.082648	1.607884	-0.119357
O24	O	0.415981	1.941217	0.213976
O25	O	-0.493014	1.532352	-0.467502
O26	O	-0.159681	1.865685	-0.134169
O27	O	0.173653	2.199019	0.199164
O28	O	-0.250674	1.392180	-0.570291
O29	O	0.082659	1.725514	-0.236958
O30	O	0.415992	2.058847	0.096375
O31	O	-0.388569	1.265973	-0.305906
O32	O	-0.055236	1.599306	0.027427
O33	O	0.278098	1.932639	0.360760
O34	O	-0.374244	1.127738	-0.444184
O35	O	-0.040910	1.461071	-0.110850
O36	O	0.292423	1.794405	0.222483
O37	O	-0.467835	1.289379	-0.710550
O38	O	-0.134501	1.622712	-0.377217
O39	O	0.198832	1.956046	-0.043884
O40	O	-0.467850	1.134130	-0.555339
O41	O	-0.134517	1.467463	-0.222006
O42	O	0.198817	1.800797	0.111327
O43	O	-0.374217	1.400617	-0.716996
O44	O	-0.040884	1.733950	-0.383663
O45	O	0.292450	2.067283	-0.050329
O46	O	-0.616572	1.385539	-0.458995
O47	O	-0.283239	1.718873	-0.125662
O48	O	0.050095	2.052206	0.207671
O49	O	-0.605718	1.280801	-0.563766
O50	O	-0.272385	1.614134	-0.230433
O51	O	0.060949	1.947468	0.102900
C52	C	-0.419446	1.098091	-0.497867
C53	C	-0.086113	1.431424	-0.164534
C54	C	0.247221	1.764757	0.168800
C55	C	-0.414559	0.997482	-0.492084
C56	C	-0.081226	1.330815	-0.158750
C57	C	0.252108	1.664149	0.174583
C58	C	-0.358855	0.852330	-0.426155
C59	C	-0.025522	1.185663	-0.092821
C60	C	0.307811	1.518997	0.240512
C61	C	-0.363443	0.946861	-0.431585
C62	C	-0.030110	1.280194	-0.098252
C63	C	0.303224	1.613527	0.235082
C64	C	-0.461089	0.953567	-0.547158
C65	C	-0.127755	1.286900	-0.213825
C66	C	0.205578	1.620233	0.119509
C67	C	-0.456501	0.859036	-0.541728
C68	C	-0.123168	1.192369	-0.208395
C69	C	0.210166	1.525703	0.124939
C70	C	-0.405383	0.808421	-0.481223
C71	C	-0.072050	1.141754	-0.147890
C72	C	0.261283	1.475088	0.185444
C73	C	-0.400800	0.713888	-0.475789
C74	C	-0.067467	1.047222	-0.142456
C75	C	0.265867	1.380555	0.190878
C76	C	-0.498441	0.720597	-0.591366
C77	C	-0.165108	1.053930	-0.258033
C78	C	0.168226	1.387263	0.075301
C79	C	-0.503029	0.815127	-0.596796
C80	C	-0.169696	1.148460	-0.263463
C81	C	0.163638	1.481794	0.069870
C82	C	-0.640401	1.333180	-0.511393
C83	C	-0.307068	1.666513	-0.178060
C84	C	0.026266	1.999847	0.155274
C85	C	-0.730024	1.333227	-0.511410
C86	C	-0.396690	1.666560	-0.178076
C87	C	-0.063357	1.999894	0.155257
C88	C	-1.058202	1.333390	-0.511513
C89	C	-0.724869	1.666724	-0.178180
C90	C	-0.391536	2.000057	0.155154
C91	C	-0.966893	1.333342	-0.511487
C92	C	-0.633559	1.666675	-0.178153
C93	C	-0.300226	2.000009	0.155180
C94	C	-0.894116	1.333308	-0.511461
C95	C	-0.560783	1.666641	-0.178128
C96	C	-0.227449	1.999974	0.155206
C97	C	-0.802801	1.333261	-0.511436
C98	C	-0.469467	1.666594	-0.178102
C99	C	-0.136134	1.999928	0.155231
C100	C	-0.220606	1.333382	-0.511500
C101	C	0.112727	1.666715	-0.178167
C102	C	0.446061	2.000048	0.155167
C103	C	-0.130986	1.333430	-0.511527
C104	C	0.202347	1.666764	-0.178194
C105	C	0.535681	2.000097	0.155139
C106	C	-0.442424	1.569363	-0.525058
C107	C	-0.109091	1.902697	-0.191725
C108	C	0.224242	2.236030	0.141608
C109	C	-0.447330	1.669973	-0.530863
C110	C	-0.113997	2.003306	-0.197530
C111	C	0.219337	2.336640	0.135803
C112	C	-0.419376	1.346955	-0.747535
C113	C	-0.086043	1.680288	-0.414202
C114	C	0.247291	2.013622	-0.080869
C115	C	-0.414460	1.352788	-0.848147
C116	C	-0.081127	1.686121	-0.514814
C117	C	0.252207	2.019454	-0.181480
C118	C	-0.358795	1.418917	-0.993311
C119	C	-0.025461	1.752251	-0.659978
C120	C	0.307872	2.085584	-0.326644
C121	C	-0.363411	1.413442	-0.898778
C122	C	-0.030077	1.746775	-0.565444
C123	C	0.303256	2.080108	-0.232111
C124	C	-0.460898	1.297607	-0.892056
C125	C	-0.127565	1.630940	-0.558723
C126	C	0.205768	1.964274	-0.225389
C127	C	-0.456282	1.303083	-0.986589
C128	C	-0.122949	1.636416	-0.653256
C129	C	0.210385	1.969749	-0.319922
C130	C	-0.405228	1.363739	-1.037213
C131	C	-0.071894	1.697072	-0.703880
C132	C	0.261439	2.030405	-0.370547
C133	C	-0.400608	1.369209	-1.131748
C134	C	-0.067274	1.702543	-0.798415
C135	C	0.266059	2.035876	-0.465081
C136	C	-0.498099	1.253380	-1.125025
C137	C	-0.164765	1.586713	-0.791692
C138	C	0.168568	1.920046	-0.458358
C139	C	-0.502715	1.247904	-1.030492
C140	C	-0.169382	1.581237	-0.697158
C141	C	0.163952	1.914571	-0.363825
C142	C	-0.442348	1.319686	-0.276258
C143	C	-0.109015	1.653019	0.057075
C144	C	0.224318	1.986353	0.390409
C145	C	-0.447046	1.314029	-0.175657
C146	C	-0.113712	1.647362	0.157676
C147	C	0.219621	1.980695	0.491010
H148	H	-0.359177	0.672679	-0.426523
H149	H	-0.025844	1.006012	-0.093190
H150	H	0.307490	1.339345	0.240143
H151	H	-0.317216	1.468297	-1.034530
H152	H	0.016118	1.801630	-0.701196
H153	H	0.349451	2.134964	-0.367863
O154	O	-0.558160	0.869715	-0.662058
O155	O	-0.224826	1.203049	-0.328724
O156	O	0.108507	1.536382	0.004609
H157	H	-0.540067	0.855706	-0.732083
H158	H	-0.206733	1.189040	-0.398749
H159	H	0.126600	1.522373	-0.065416
H160	H	-0.325601	1.458374	-0.863036
H161	H	0.007733	1.791707	-0.529703
H162	H	0.341066	2.125041	-0.196369
H163	H	-0.502470	1.248230	-0.850822
H164	H	-0.169137	1.581564	-0.517489
H165	H	0.164196	1.914897	-0.184155
O166	O	-0.303727	0.797728	-0.360900
O167	O	0.029607	1.131062	-0.027567
O168	O	0.362940	1.464395	0.305767
H169	H	-0.272140	0.844144	-0.323520
H170	H	0.061193	1.177477	0.009813
H171	H	0.394526	1.510810	0.343146
O172	O	-0.313273	0.994224	-0.372177
O173	O	0.020060	1.327557	-0.038844
O174	O	0.353394	1.660890	0.294489
H175	H	-0.276967	0.943142	-0.329187
H176	H	0.056366	1.276476	0.004146
H177	H	0.389700	1.609809	0.337480
H178	H	-0.544284	1.198522	-0.989261
H179	H	-0.210951	1.531855	-0.655927
H180	H	0.122382	1.865189	-0.322594
H181	H	-0.535899	1.208440	-1.160779
H182	H	-0.202566	1.541773	-0.827446
H183	H	0.130768	1.875106	-0.494113
H184	H	-0.536328	0.684836	-0.636207
H185	H	-0.202995	1.018169	-0.302873
H186	H	0.130339	1.351503	0.030460
O187	O	-0.516181	1.008167	-0.612454
O188	O	-0.182848	1.341500	-0.279121
O189	O	0.150485	1.674833	0.054213
H190	H	-0.511540	1.081276	-0.606987
H191	H	-0.178207	1.414610	-0.273654
H192	H	0.155126	1.747943	0.059679
O193	O	-0.345550	1.434632	-1.186357
O194	O	-0.012216	1.767965	-0.853023
O195	O	0.321117	2.101299	-0.519690
H196	H	-0.314045	1.472088	-1.139943
H197	H	0.019288	1.805422	-0.806609
H198	H	0.352621	2.138755	-0.473276
