data_functionalizedCrystal
_audit_creation_method	'MofGen! by Chris Wilmer'
_symmetry_space_group_name_H-M	'P1'
_symmetry_Int_Tables_number	1
_symmetry_cell_setting	triclinic
loop_
_symmetry_equiv_pos_as_xyz
  x,y,z
_cell_length_a	15.297475
_cell_length_b	16.625545
_cell_length_c	15.296720
_cell_angle_alpha	80.355801
_cell_angle_beta	88.382886
_cell_angle_gamma	80.328138
loop_
_atom_site_label
_atom_site_type_symbol
_atom_site_fract_x
_atom_site_fract_y
_atom_site_fract_z
Zn1	Zn	1.253363	-0.627520	0.726586
Zn2	Zn	1.753363	-0.127520	1.226586
Zn3	Zn	1.278618	-0.743622	0.580099
Zn4	Zn	1.778618	-0.243622	1.080099
Zn5	Zn	1.132243	-0.582224	0.554827
Zn6	Zn	1.632243	-0.082224	1.054827
Zn7	Zn	1.106845	-0.735696	0.701227
Zn8	Zn	1.606845	-0.235696	1.201227
O9	O	1.192767	-0.672265	0.640685
O10	O	1.692767	-0.172265	1.140685
O11	O	1.379290	-0.665194	0.728342
O12	O	1.879290	-0.165194	1.228342
O13	O	1.280400	-0.706572	0.454172
O14	O	1.780400	-0.206572	0.954172
O15	O	1.148370	-0.475415	0.577648
O16	O	1.648370	0.024585	1.077648
O17	O	1.397845	-0.750494	0.620719
O18	O	1.897845	-0.250494	1.120719
O19	O	1.237356	-0.508694	0.703838
O20	O	1.737356	-0.008694	1.203838
O21	O	1.172859	-0.587994	0.435605
O22	O	1.672859	-0.087994	0.935605
O23	O	1.006298	-0.580309	0.553059
O24	O	1.506298	-0.080309	1.053059
O25	O	1.105082	-0.736986	0.827166
O26	O	1.605082	-0.236986	1.327166
O27	O	0.987638	-0.693064	0.660618
O28	O	1.487638	-0.193064	1.160618
O29	O	1.212728	-0.657509	0.845796
O30	O	1.712728	-0.157509	1.345796
O31	O	1.255773	-0.855388	0.596131
O32	O	1.755773	-0.355388	1.096131
O33	O	1.129571	-0.849565	0.685123
O34	O	1.629571	-0.349565	1.185123
C35	C	0.965185	-0.630912	0.601345
C36	C	1.465185	-0.130912	1.101345
C37	C	0.867820	-0.613243	0.584536
C38	C	1.367820	-0.113243	1.084536
C39	C	0.554663	-0.798555	0.760823
C40	C	1.054663	-0.298555	1.260823
C41	C	0.646142	-0.815162	0.776613
C42	C	1.146142	-0.315162	1.276613
C43	C	0.701566	-0.764684	0.728595
C44	C	1.201566	-0.264684	1.228595
C45	C	0.665502	-0.697596	0.664784
C46	C	1.165502	-0.197596	1.164784
C47	C	0.574015	-0.680991	0.648987
C48	C	1.074015	-0.180991	1.148987
C49	C	0.720918	-0.647119	0.616760
C50	C	1.220918	-0.147119	1.116760
C51	C	0.684854	-0.580032	0.552949
C52	C	1.184854	-0.080032	1.052949
C53	C	0.593375	-0.563430	0.537156
C54	C	1.093375	-0.063430	1.037156
C55	C	0.537951	-0.613908	0.585173
C56	C	1.037951	-0.113908	1.085173
C57	C	0.812405	-0.663724	0.632557
C58	C	1.312405	-0.163724	1.132557
C59	C	0.831757	-0.546160	0.520722
C60	C	1.331757	-0.046160	1.020722
C61	C	0.740278	-0.529553	0.504932
C62	C	1.240278	-0.029553	1.004932
C63	C	1.192677	-0.881735	0.640641
C64	C	1.692677	-0.381735	1.140641
C65	C	1.192713	-0.971366	0.640665
C66	C	1.692713	-0.471366	1.140665
C67	C	1.192744	-1.044157	0.640688
C68	C	1.692744	-0.544157	1.140688
C69	C	1.192792	-1.135477	0.640716
C70	C	1.692792	-0.635477	1.140716
C71	C	1.192836	-1.208263	0.640735
C72	C	1.692836	-0.708263	1.140735
C73	C	1.192883	-1.299589	0.640762
C74	C	1.692883	-0.799589	1.140762
C75	C	1.421239	-0.713781	0.680178
C76	C	1.921239	-0.213781	1.180178
C77	C	1.518599	-0.731472	0.697008
C78	C	2.018599	-0.231472	1.197008
C79	C	1.153255	-0.701416	0.869152
C80	C	1.653255	-0.201416	1.369152
C81	C	1.136417	-0.713838	0.966510
C82	C	1.636417	-0.213838	1.466510
C83	C	1.192879	-0.461984	0.640752
C84	C	1.692879	0.038016	1.140752
C85	C	1.192926	-0.372375	0.640781
C86	C	1.692926	0.127625	1.140781
C87	C	1.232177	-0.643179	0.413115
C88	C	1.732177	-0.143179	0.913115
C89	C	1.249184	-0.630560	0.315786
C90	C	1.749184	-0.130560	0.815786
C91	C	1.313143	-0.583346	1.279750
C92	C	1.813143	-0.083346	1.779750
C93	C	1.328969	-0.571677	1.188278
C94	C	1.828969	-0.071677	1.688278
C95	C	1.280832	-0.607216	1.132831
C96	C	1.780832	-0.107216	1.632831
C97	C	1.216867	-0.654427	1.168867
C98	C	1.716867	-0.154427	1.668867
C99	C	1.201045	-0.666102	1.260349
C100	C	1.701045	-0.166102	1.760349
C101	C	1.168734	-0.689972	1.113430
C102	C	1.668734	-0.189972	1.613430
C103	C	1.104769	-0.737183	1.149465
C104	C	1.604769	-0.237183	1.649465
C105	C	1.088949	-0.748856	1.240939
C106	C	1.588949	-0.248856	1.740939
C107	C	1.137086	-0.713317	1.296385
C108	C	1.637086	-0.213317	1.796385
C109	C	1.184556	-0.678297	1.021948
C110	C	1.684556	-0.178297	1.521948
C111	C	1.072458	-0.761053	1.002547
C112	C	1.572458	-0.261053	1.502547
C113	C	1.056633	-0.772722	1.094019
C114	C	1.556633	-0.272722	1.594019
H115	H	0.463460	-0.600389	0.572322
H116	H	0.963460	-0.100389	1.072322
H117	H	0.564017	-0.508809	0.485188
H118	H	1.064017	-0.008809	0.985188
H119	H	1.293721	-0.597712	1.058351
H120	H	1.793721	-0.097712	1.558351
C121	C	0.768588	-0.415008	0.395974
C122	C	1.268588	0.084992	0.895974
C123	C	0.700631	-0.455814	0.434788
C124	C	1.200631	0.044186	0.934788
H125	H	0.744109	-0.369482	0.352675
H126	H	1.244109	0.130518	0.852675
H127	H	0.810054	-0.452275	0.368556
H128	H	1.310054	0.047725	0.868556
H129	H	0.797679	-0.395580	0.440369
H130	H	1.297679	0.104420	0.940369
H131	H	0.671544	-0.475247	0.390394
H132	H	1.171544	0.024753	0.890394
H133	H	0.659150	-0.418539	0.462206
H134	H	1.159150	0.081461	0.962206
H135	H	0.776052	-0.778209	0.741456
H136	H	1.276052	-0.278209	1.241456
C137	C	0.928976	-0.769785	0.948735
C138	C	1.428976	-0.269785	1.448735
C139	C	1.019539	-0.800124	0.941612
C140	C	1.519539	-0.300124	1.441612
H141	H	0.896312	-0.793911	0.911117
H142	H	1.396312	-0.293911	1.411117
H143	H	0.918784	-0.711382	0.931543
H144	H	1.418784	-0.211382	1.431543
H145	H	0.910412	-0.783499	1.008377
H146	H	1.410412	-0.283499	1.508377
H147	H	1.038105	-0.786404	0.881972
H148	H	1.538105	-0.286404	1.381972
H149	H	1.029736	-0.858540	0.958799
H150	H	1.529736	-0.358540	1.458799
C151	C	0.617818	-0.929696	0.885568
C152	C	1.117818	-0.429696	1.385568
C153	C	0.685781	-0.888898	0.846754
C154	C	1.185781	-0.388898	1.346754
H155	H	0.642291	-0.975216	0.928877
H156	H	1.142291	-0.475216	1.428877
H157	H	0.588730	-0.949124	0.841182
H158	H	1.088730	-0.449124	1.341182
H159	H	0.576348	-0.892416	0.912983
H160	H	1.076348	-0.392416	1.412983
H161	H	0.727247	-0.926176	0.819333
H162	H	1.227247	-0.426176	1.319333
H163	H	0.714883	-0.869470	0.891148
H164	H	1.214883	-0.369470	1.391148
C165	C	1.438176	-0.491047	1.216649
C166	C	1.938176	0.008953	1.716649
C167	C	1.399269	-0.519780	1.148669
C168	C	1.899269	-0.019780	1.648669
H169	H	1.481574	-0.459001	1.192193
H170	H	1.981574	0.040999	1.692193
H171	H	1.465490	-0.536814	1.258106
H172	H	1.965490	-0.036814	1.758106
H173	H	1.393847	-0.457827	1.245742
H174	H	1.893847	0.042173	1.745742
H175	H	1.443597	-0.553005	1.119580
H176	H	1.943597	-0.053005	1.619580
H177	H	1.371955	-0.474006	1.107197
H178	H	1.871955	0.025994	1.607197
C179	C	0.405831	-0.825293	0.786253
C180	C	0.905831	-0.325293	1.286253
C181	C	0.493742	-0.854036	0.813597
C182	C	0.993742	-0.354036	1.313597
H183	H	0.368221	-0.859546	0.818840
H184	H	0.868221	-0.359546	1.318840
H185	H	0.401014	-0.826774	0.724793
H186	H	0.901014	-0.326774	1.224793
H187	H	0.388634	-0.770068	0.796596
H188	H	0.888634	-0.270068	1.296596
H189	H	0.510941	-0.909259	0.803247
H190	H	1.010941	-0.409259	1.303247
H191	H	0.498562	-0.852563	0.875071
H192	H	0.998562	-0.352563	1.375071
C193	C	1.258580	-0.623648	0.890341
C194	C	1.758580	-0.123648	1.390341
C195	C	1.254853	-0.626395	0.982341
C196	C	1.754853	-0.126395	1.482341
H197	H	1.301983	-0.591605	0.865892
H198	H	1.801983	-0.091605	1.365892
H199	H	1.202330	-0.599244	0.865187
H200	H	1.702330	-0.099244	1.365187
H201	H	1.273969	-0.678234	0.877550
H202	H	1.773969	-0.178234	1.377550
H203	H	1.239458	-0.571809	0.995131
H204	H	1.739458	-0.071809	1.495131
H205	H	1.311116	-0.650796	1.007503
H206	H	1.811116	-0.150796	1.507503
H207	H	1.004552	-0.811161	1.123372
H208	H	1.504552	-0.311161	1.623372
H209	H	1.352334	-0.554420	1.324903
H210	H	1.852334	-0.054420	1.824903
C211	C	0.980581	-0.519403	0.495282
C212	C	1.480581	-0.019403	0.995282
C213	C	0.892670	-0.490666	0.467938
C214	C	1.392670	0.009334	0.967938
H215	H	1.018188	-0.485143	0.462699
H216	H	1.518188	0.014857	0.962699
H217	H	0.997783	-0.574620	0.484941
H218	H	1.497783	-0.074620	0.984941
H219	H	0.985395	-0.517921	0.556750
H220	H	1.485395	-0.017921	1.056750
H221	H	0.887855	-0.492154	0.406471
H222	H	1.387855	0.007846	0.906471
H223	H	0.875464	-0.435434	0.478272
H224	H	1.375464	0.064566	0.978272
H225	H	1.036872	-0.787306	1.270277
H226	H	1.536872	-0.287306	1.770277
C227	C	1.053387	-0.775093	1.416862
C228	C	1.553387	-0.275093	1.916862
C229	C	1.119691	-0.726146	1.396937
C230	C	1.619691	-0.226146	1.896937
H231	H	1.042647	-0.783007	1.478939
H232	H	1.542647	-0.283007	1.978939
H233	H	1.072090	-0.827225	1.398775
H234	H	1.572090	-0.327225	1.898775
H235	H	1.000452	-0.748234	1.386395
H236	H	1.500452	-0.248234	1.886395
H237	H	1.172628	-0.753008	1.427399
H238	H	1.672628	-0.253008	1.927399
H239	H	1.100991	-0.674005	1.415035
H240	H	1.600991	-0.174005	1.915035
C241	C	0.814942	-0.727237	0.785664
C242	C	1.314942	-0.227237	1.285664
C243	C	0.852041	-0.737458	0.702702
C244	C	1.352041	-0.237458	1.202702
H245	H	0.839416	-0.772758	0.828972
H246	H	1.339416	-0.272758	1.328972
H247	H	0.752536	-0.724575	0.783121
H248	H	1.252536	-0.224575	1.283121
H249	H	0.827728	-0.677452	0.801169
H250	H	1.327728	-0.177452	1.301169
H251	H	0.839249	-0.787240	0.687194
H252	H	1.339249	-0.287240	1.187194
H253	H	0.914461	-0.740128	0.705243
H254	H	1.414461	-0.240128	1.205243
