data_functionalizedCrystal
_audit_creation_method	'MofGen! by Chris Wilmer'
_symmetry_space_group_name_H-M	'P1'
_symmetry_Int_Tables_number	1
_symmetry_cell_setting	triclinic
loop_
_symmetry_equiv_pos_as_xyz
  x,y,z
_cell_length_a	11.792254
_cell_length_b	11.792254
_cell_length_c	11.804366
_cell_angle_alpha	78.067551
_cell_angle_beta	78.086866
_cell_angle_gamma	95.801402
loop_
_atom_site_label
_atom_site_type_symbol
_atom_site_fract_x
_atom_site_fract_y
_atom_site_fract_z
O1	O	0.132853	-1.529704	0.099061
O2	O	0.148872	-1.199364	0.099056
O3	O	-0.024305	-1.372541	0.099051
O4	O	0.306030	-1.356527	0.099067
O5	O	0.021239	-1.326949	-0.099004
O6	O	0.194416	-1.153772	-0.098998
O7	O	0.178397	-1.484112	-0.098993
Cu8	Cu	0.190565	-1.314779	-0.117079
Cu9	Cu	0.136704	-1.368697	0.117143
O10	O	0.351573	-1.310935	-0.098987
C11	C	0.170635	-1.134277	0.000028
C12	C	0.167615	-1.008263	0.000026
C13	C	-0.043824	-1.348736	0.000024
C14	C	-0.169837	-1.345716	0.000025
C15	C	-0.272175	-1.343263	0.000029
C16	C	-0.400564	-1.340197	0.000040
C17	C	0.165161	-0.905927	0.000029
C18	C	0.162093	-0.777540	0.000027
C19	C	0.371092	-1.334740	0.000042
C20	C	0.497103	-1.337762	0.000049
N21	N	0.228447	-1.276864	-0.281819
C22	C	0.156634	-0.549198	0.000032
C23	C	0.159656	-0.675209	0.000024
C24	C	0.319439	-1.185819	-0.344162
C25	C	0.348111	-1.157148	-0.468822
C26	C	0.285789	-1.219513	-0.531152
C27	C	0.194790	-1.310555	-0.468809
C28	C	0.166120	-1.339235	-0.344137
C29	C	0.132470	-1.372929	-0.531127
C30	C	0.041471	-1.463971	-0.468784
C31	C	0.012806	-1.492646	-0.344124
C32	C	0.075128	-1.430280	-0.281794
C33	C	0.161140	-1.344249	-0.655800
C34	C	0.007821	-1.497665	-0.655775
C35	C	-0.020852	-1.526336	-0.531114
N36	N	0.098813	-1.406620	0.281882
H37	H	0.235232	-1.270124	-0.706549
O38	O	-0.109389	-1.614650	-0.470609
C39	C	-0.214857	-1.588512	-0.501112
H40	H	-0.208141	-1.489753	-0.535402
H41	H	-0.290587	-1.620074	-0.419130
H42	H	-0.231126	-1.634572	-0.573465
O43	O	-0.075889	-1.580790	-0.283587
C44	C	-0.162839	-1.535863	-0.211737
H45	H	-0.122323	-1.451789	-0.192926
H46	H	-0.201038	-1.603264	-0.124124
H47	H	-0.235465	-1.516208	-0.260059
H48	H	0.422203	-1.083024	-0.519577
O49	O	0.379957	-1.125062	-0.283749
C50	C	0.367730	-1.005589	-0.314204
H51	H	0.344795	-0.984630	-0.404722
H52	H	0.453650	-0.949240	-0.318470
H53	H	0.294862	-0.986287	-0.244047
O54	O	0.313750	-1.191475	-0.652247
C55	C	0.407448	-1.097765	-0.693907
H56	H	0.410273	-1.046805	-0.622074
H57	H	0.394372	-1.037026	-0.777317
H58	H	0.493465	-1.133685	-0.716019
O59	O	-0.052629	-1.558422	-0.716255
C60	C	-0.040445	-1.677902	-0.685751
H61	H	0.042550	-1.686899	-0.651474
H62	H	-0.034261	-1.715921	-0.767728
H63	H	-0.119771	-1.727502	-0.613387
H64	H	0.051780	-1.453621	-0.180285
