data_functionalizedCrystal
_audit_creation_method	'MofGen! by Chris Wilmer'
_symmetry_space_group_name_H-M	'P1'
_symmetry_Int_Tables_number	1
_symmetry_cell_setting	triclinic
loop_
_symmetry_equiv_pos_as_xyz
  x,y,z
_cell_length_a	10.967926
_cell_length_b	11.026607
_cell_length_c	9.482944
_cell_angle_alpha	98.151844
_cell_angle_beta	88.407388
_cell_angle_gamma	96.380754
loop_
_atom_site_label
_atom_site_type_symbol
_atom_site_fract_x
_atom_site_fract_y
_atom_site_fract_z
O1	O	1.642886	0.129421	-0.290709
O2	O	1.976219	0.462754	0.042625
O3	O	2.309553	0.796087	0.375958
O4	O	1.298426	0.157943	-0.204407
O5	O	1.631759	0.491276	0.128927
O6	O	1.965092	0.824609	0.462260
O7	O	1.442106	-0.032209	-0.240410
O8	O	1.775440	0.301124	0.092923
O9	O	2.108773	0.634458	0.426257
O10	O	1.499205	0.319573	-0.254705
O11	O	1.832539	0.652906	0.078628
O12	O	2.165872	0.986239	0.411961
O13	O	1.401404	-0.064946	-0.472006
O14	O	1.734738	0.268388	-0.138672
O15	O	2.068071	0.601721	0.194661
O16	O	1.257723	0.125206	-0.436002
O17	O	1.591057	0.458539	-0.102669
O18	O	1.924390	0.791873	0.230664
O19	O	1.602184	0.096684	-0.522304
O20	O	1.935517	0.430018	-0.188971
O21	O	2.268851	0.763351	0.144363
Cu22	Cu	1.426237	0.107956	-0.500300
Cu23	Cu	1.759571	0.441289	-0.166966
Cu24	Cu	2.092904	0.774623	0.166367
Cu25	Cu	1.474372	0.146671	-0.226411
Cu26	Cu	1.807706	0.480004	0.106922
Cu27	Cu	2.141039	0.813337	0.440256
O28	O	1.458503	0.286836	-0.486301
O29	O	1.791836	0.620169	-0.152967
O30	O	2.125170	0.953503	0.180366
C31	C	1.233291	0.141973	-0.308984
C32	C	1.566624	0.475306	0.024349
C33	C	1.899957	0.808639	0.357682
C34	C	1.099846	0.143145	-0.275551
C35	C	1.433179	0.476479	0.057783
C36	C	1.766512	0.809812	0.391116
C37	C	1.019267	0.126710	-0.380618
C38	C	1.352600	0.460043	-0.047285
C39	C	1.685934	0.793376	0.286049
C40	C	0.881344	0.127921	-0.346065
C41	C	1.214678	0.461254	-0.012732
C42	C	1.548011	0.794588	0.320601
C43	C	1.411222	-0.093506	-0.353567
C44	C	1.744556	0.239827	-0.020234
C45	C	2.077889	0.573160	0.313100
C46	C	1.379823	-0.227381	-0.345695
C47	C	1.713156	0.105953	-0.012362
C48	C	2.046489	0.439286	0.320972
C49	C	1.466525	-0.303503	-0.367416
C50	C	1.799858	0.029830	-0.034082
C51	C	2.133192	0.363164	0.299251
C52	C	1.434074	-0.441869	-0.359280
C53	C	1.767407	-0.108536	-0.025947
C54	C	2.100741	0.224797	0.307387
C55	C	1.667319	0.112655	-0.417724
C56	C	2.000653	0.445988	-0.084390
C57	C	2.333986	0.779321	0.248943
C58	C	1.800766	0.111483	-0.451148
C59	C	2.134099	0.444817	-0.117815
C60	C	2.467432	0.778150	0.215519
C61	C	1.489388	0.348134	-0.373141
C62	C	1.822721	0.681467	-0.039807
C63	C	2.156054	1.014800	0.293526
C64	C	1.520789	0.482009	-0.381004
C65	C	1.854122	0.815342	-0.047670
C66	C	2.187456	1.148676	0.285663
N67	N	1.392390	0.080725	-0.692940
N68	N	1.725724	0.414059	-0.359607
N69	N	2.059057	0.747392	-0.026274
C70	C	1.436237	0.115979	-0.943538
C71	C	1.769570	0.449312	-0.610205
C72	C	2.102904	0.782645	-0.276871
C73	C	1.464391	0.138647	-0.783174
C74	C	1.797724	0.471980	-0.449840
C75	C	2.131057	0.805314	-0.116507
N76	N	1.508227	0.173892	-0.033772
N77	N	1.841560	0.507225	0.299561
N78	N	2.174893	0.840559	0.632894
H79	H	1.066724	0.158110	-0.160018
H80	H	1.400057	0.491444	0.173315
H81	H	1.733391	0.824777	0.506648
F82	F	1.328435	0.029232	-0.997733
F83	F	1.661768	0.362565	-0.664400
F84	F	1.995101	0.695898	-0.331067
H85	H	1.546875	0.205011	-0.741712
H86	H	1.880208	0.538344	-0.408379
H87	H	2.213542	0.871677	-0.075046
H88	H	1.619068	-0.480718	-0.405517
H89	H	1.952401	-0.147385	-0.072184
H90	H	2.285735	0.185948	0.261149
F91	F	1.284588	-0.006034	-0.747127
F92	F	1.617921	0.327299	-0.413794
F93	F	1.951254	0.660633	-0.080460
H94	H	1.052388	0.111735	-0.496150
H95	H	1.385721	0.445068	-0.162817
H96	H	1.719054	0.778401	0.170516
F97	F	0.838065	0.147479	-0.195045
F98	F	1.171398	0.480812	0.138289
F99	F	1.504731	0.814145	0.471622
F100	F	1.616036	0.260629	-0.979579
F101	F	1.949369	0.593963	-0.646246
F102	F	2.282703	0.927296	-0.312912
F103	F	1.251397	-0.276080	-0.313506
F104	F	1.584731	0.057253	0.019828
F105	F	1.918064	0.390586	0.353161
F106	F	0.844041	0.091903	-0.602169
F107	F	1.177374	0.425236	-0.268836
F108	F	1.510707	0.758570	0.064497
F109	F	1.594954	-0.254800	-0.399584
F110	F	1.928287	0.078533	-0.066251
F111	F	2.261621	0.411866	0.267083
H112	H	1.335816	-0.479128	-0.334652
H113	H	1.669149	-0.145794	-0.001319
H114	H	2.002482	0.187539	0.332014
