data_functionalizedCrystal
_audit_creation_method	'MofGen! by Chris Wilmer'
_symmetry_space_group_name_H-M	'P1'
_symmetry_Int_Tables_number	1
_symmetry_cell_setting	triclinic
loop_
_symmetry_equiv_pos_as_xyz
  x,y,z
_cell_length_a	10.654545
_cell_length_b	17.699092
_cell_length_c	9.130313
_cell_angle_alpha	89.997169
_cell_angle_beta	89.996934
_cell_angle_gamma	83.884723
loop_
_atom_site_label
_atom_site_type_symbol
_atom_site_fract_x
_atom_site_fract_y
_atom_site_fract_z
O1	O	1.665987	0.106286	-0.121779
O2	O	1.300331	0.116417	-0.121784
O3	O	1.493485	0.001228	-0.121778
O4	O	1.472834	0.221475	-0.121785
O5	O	1.493472	0.001225	0.121821
O6	O	1.300318	0.116414	0.121815
O7	O	1.665974	0.106283	0.121820
Cu8	Cu	1.483145	0.111348	0.144060
Cu9	Cu	1.483161	0.111352	-0.144024
O10	O	1.472821	0.221471	0.121814
C11	C	1.253540	0.115672	0.000014
C12	C	1.114135	0.113449	0.000012
C13	C	1.048642	0.112400	0.132799
C14	C	0.917659	0.110299	0.132799
C15	C	0.917674	0.110297	-0.132786
C16	C	1.048655	0.112394	-0.132785
C17	C	1.492736	-0.026975	0.000019
C18	C	1.490511	-0.111007	0.000012
C19	C	1.489476	-0.150479	-0.132775
C20	C	1.487377	-0.229435	-0.132777
C21	C	1.486323	-0.268919	0.000010
C22	C	1.487354	-0.229441	0.132808
C23	C	1.489444	-0.150485	0.132808
C24	C	1.478925	-0.547859	0.132810
C25	C	1.476839	-0.626820	0.132800
C26	C	1.476858	-0.626809	-0.132775
C27	C	1.478948	-0.547854	-0.132775
C28	C	1.479973	-0.508382	0.000022
C29	C	1.482246	-0.422769	0.000022
C30	C	1.484058	-0.354531	0.000012
C31	C	1.712766	0.107027	0.000018
C32	C	1.852171	0.109251	0.000011
C33	C	1.473569	0.249675	0.000013
C34	C	1.475794	0.333707	0.000011
N35	N	1.483143	0.111345	0.346682
N36	N	1.483172	0.111349	-0.346647
C37	C	1.568700	0.060361	0.423337
C38	C	1.568712	0.060361	0.576674
C39	C	1.397606	0.162336	0.576688
C40	C	1.397589	0.162331	0.423354
H41	H	1.101982	0.113245	-0.240922
H42	H	1.101951	0.113260	0.240930
C43	C	1.661631	0.004916	0.340357
C44	C	1.736536	-0.039748	0.440315
C45	C	1.822146	-0.090842	0.363933
H46	H	1.713935	0.032343	0.280518
H47	H	1.616581	-0.026887	0.280590
H48	H	1.781583	-0.007950	0.500057
H49	H	1.684267	-0.067192	0.500158
H50	H	1.777095	-0.122644	0.304167
H51	H	1.874441	-0.063408	0.304096
H52	H	1.872971	-0.121157	0.431743
C53	C	1.486016	-0.272390	0.276870
C54	C	1.376839	-0.309791	0.284614
C55	C	1.375578	-0.349371	0.417296
H56	H	1.486865	-0.237655	0.356080
H57	H	1.558369	-0.308616	0.282398
H58	H	1.304505	-0.273569	0.279101
H59	H	1.375967	-0.344538	0.205436
H60	H	1.447931	-0.385597	0.422824
H61	H	1.376430	-0.314631	0.496495
H62	H	1.301509	-0.374758	0.422562
C63	C	1.490612	-0.107766	0.277132
C64	C	1.489266	-0.159243	0.393424
C65	C	1.490343	-0.119919	0.526400
H66	H	1.418236	-0.071582	0.282842
H67	H	1.564651	-0.082366	0.282751
H68	H	1.415235	-0.184631	0.387808
H69	H	1.561637	-0.195428	0.387763
H70	H	1.564382	-0.094519	0.532018
H71	H	1.417966	-0.083736	0.532094
H72	H	1.489442	-0.154841	0.605319
H73	H	0.864340	0.109445	0.240927
H74	H	1.638379	0.018844	0.639082
H75	H	1.479812	-0.515711	-0.240904
H76	H	0.864344	0.109439	-0.240904
H77	H	1.327913	0.203849	0.360938
H78	H	1.490341	-0.118338	-0.240906
C79	C	1.304586	0.217725	0.659670
C80	C	1.229629	0.262358	0.559714
C81	C	1.143911	0.313385	0.636100
H82	H	1.349513	0.249559	0.719476
H83	H	1.252338	0.190223	0.719471
H84	H	1.281870	0.289858	0.499939
H85	H	1.184673	0.230545	0.499906
H86	H	1.091663	0.285883	0.695900
H87	H	1.188850	0.345214	0.695903
H88	H	1.093035	0.343670	0.568292
C89	C	1.475966	-0.669635	-0.277014
C90	C	1.584486	-0.658393	-0.357123
C91	C	1.583710	-0.697834	-0.489992
H92	H	1.403190	-0.651332	-0.331731
H93	H	1.474626	-0.722326	-0.258080
H94	H	1.585815	-0.605713	-0.376060
H95	H	1.657281	-0.676699	-0.302450
H96	H	1.582369	-0.750525	-0.471059
H97	H	1.510928	-0.679528	-0.544697
H98	H	1.657344	-0.690218	-0.544357
H99	H	1.486539	-0.261570	-0.240906
C100	C	1.479877	-0.505104	0.277102
C101	C	1.371397	-0.516383	0.357254
C102	C	1.372254	-0.477018	0.490202
H103	H	1.481213	-0.452408	0.258319
H104	H	1.552707	-0.523458	0.331716
H105	H	1.298587	-0.498025	0.302653
H106	H	1.370039	-0.569070	0.376077
H107	H	1.445083	-0.495373	0.544816
H108	H	1.373592	-0.424325	0.471405
H109	H	1.298658	-0.484671	0.544608
H110	H	1.475977	-0.658965	0.240937
