data_functionalizedCrystal
_audit_creation_method	'MofGen! by Chris Wilmer'
_symmetry_space_group_name_H-M	'P1'
_symmetry_Int_Tables_number	1
_symmetry_cell_setting	triclinic
loop_
_symmetry_equiv_pos_as_xyz
  x,y,z
_cell_length_a	19.288864
_cell_length_b	15.995350
_cell_length_c	17.766277
_cell_angle_alpha	89.995869
_cell_angle_beta	89.976791
_cell_angle_gamma	83.314311
loop_
_atom_site_label
_atom_site_type_symbol
_atom_site_fract_x
_atom_site_fract_y
_atom_site_fract_z
O1	O	0.921624	0.104452	-0.062832
O2	O	1.421624	0.604452	0.437168
O3	O	0.719400	0.118542	-0.062780
O4	O	1.219400	0.618542	0.437220
O5	O	0.826040	-0.010412	-0.062807
O6	O	1.326040	0.489588	0.437193
O7	O	0.814984	0.233405	-0.062805
O8	O	1.314984	0.733405	0.437195
O9	O	0.826021	-0.010418	0.062382
O10	O	1.326021	0.489582	0.562382
O11	O	0.719381	0.118535	0.062408
O12	O	1.219381	0.618535	0.562408
O13	O	0.921605	0.104445	0.062357
O14	O	1.421605	0.604445	0.562357
Cu15	Cu	0.820492	0.111490	0.073813
Cu16	Cu	1.320492	0.611490	0.573813
Cu17	Cu	0.820514	0.111497	-0.074237
Cu18	Cu	1.320514	0.611497	0.425763
O19	O	0.814965	0.233399	0.062383
O20	O	1.314965	0.733399	0.562383
C21	C	0.693513	0.118085	-0.000179
C22	C	1.193513	0.618085	0.499821
C23	C	0.616406	0.116724	-0.000159
C24	C	1.116406	0.616724	0.499841
C25	C	0.825574	-0.041608	-0.000214
C26	C	1.325574	0.458392	0.499786
C27	C	0.824203	-0.134553	-0.000218
C28	C	1.324203	0.365447	0.499782
C29	C	0.571906	0.192388	-0.000171
C30	C	1.071906	0.692388	0.499829
C31	C	0.499456	0.191110	-0.000179
C32	C	0.999456	0.691110	0.499821
C33	C	0.471508	0.114163	-0.000191
C34	C	0.971508	0.614163	0.499809
C35	C	0.516018	0.038489	-0.000176
C36	C	1.016018	0.538489	0.499824
C37	C	0.588467	0.039769	-0.000160
C38	C	1.088467	0.539769	0.499840
C39	C	0.363096	0.053676	-0.044076
C40	C	0.863096	0.553676	0.455924
C41	C	0.290648	0.052398	-0.044097
C42	C	0.790648	0.552398	0.455903
C43	C	0.248053	0.110209	-0.000237
C44	C	0.748053	0.610209	0.499763
C45	C	0.277912	0.169312	0.043634
C46	C	0.777912	0.669312	0.543634
C47	C	0.350361	0.170593	0.043650
C48	C	0.850361	0.670593	0.543650
C49	C	0.392951	0.112765	-0.000208
C50	C	0.892951	0.612765	0.499792
C51	C	0.124993	0.184492	-0.000256
C52	C	0.624993	0.684492	0.499744
C53	C	0.052542	0.183210	-0.000260
C54	C	0.552542	0.683210	0.499740
C55	C	0.069106	0.030587	-0.000264
C56	C	0.569106	0.530587	0.499736
C57	C	0.141556	0.031871	-0.000253
C58	C	0.641556	0.531871	0.499747
C59	C	0.169495	0.108826	-0.000252
C60	C	0.669495	0.608826	0.499748
C61	C	0.819282	-0.472282	-0.000214
C62	C	1.319282	0.027718	0.499786
C63	C	0.743335	-0.424562	-0.000475
C64	C	1.243335	0.075438	0.499525
C65	C	0.744706	-0.327877	-0.000193
C66	C	1.244706	0.172123	0.499807
C67	C	0.821723	-0.304731	-0.000216
C68	C	1.321723	0.195269	0.499784
C69	C	0.859172	-0.345953	0.071262
C70	C	1.359172	0.154047	0.571262
C71	C	0.857264	-0.442582	0.071322
C72	C	1.357264	0.057418	0.571322
C73	C	0.858855	-0.442939	-0.071041
C74	C	1.358855	0.057061	0.428959
C75	C	0.858837	-0.345993	-0.071986
C76	C	1.358837	0.154007	0.428014
C77	C	0.823107	-0.210039	-0.000215
C78	C	1.323107	0.289961	0.499785
C79	C	0.817901	-0.566975	-0.000210
C80	C	1.317901	-0.066975	0.499790
C81	C	0.947492	0.104902	-0.000246
C82	C	1.447492	0.604902	0.499754
C83	C	1.024600	0.106263	-0.000271
C84	C	1.524600	0.606263	0.499729
C85	C	0.815432	0.264595	-0.000211
C86	C	1.315432	0.764595	0.499789
C87	C	0.816802	0.357540	-0.000212
C88	C	1.316802	0.857540	0.499788
N89	N	0.820481	0.111484	0.177944
N90	N	1.320481	0.611484	0.677944
N91	N	0.820530	0.111497	-0.178367
N92	N	1.320530	0.611497	0.321633
C93	C	0.867717	0.054411	0.217319
C94	C	1.367717	0.554411	0.717319
C95	C	0.867721	0.054407	0.296120
C96	C	1.367721	0.554407	0.796120
C97	C	0.820496	0.111490	0.335544
C98	C	1.320496	0.611490	0.835544
C99	C	0.773251	0.168567	0.296160
C100	C	1.273251	0.668567	0.796160
C101	C	0.773244	0.168564	0.217359
C102	C	1.273244	0.668564	0.717359
C103	C	0.811395	0.187781	0.460384
C104	C	1.311395	0.687781	0.960384
C105	C	0.811407	0.187785	0.539183
C106	C	1.311407	0.687785	1.039183
C107	C	0.820514	0.111500	0.578590
C108	C	1.320514	0.611500	1.078590
C109	C	0.829624	0.035208	0.539190
C110	C	1.329624	0.535208	1.039190
C111	C	0.829617	0.035204	0.460389
C112	C	1.329617	0.535204	0.960389
C113	C	0.820498	0.111500	0.420990
C114	C	1.320498	0.611500	0.920990
C115	C	0.867757	0.054419	0.703411
C116	C	1.367757	0.554419	1.203411
C117	C	0.867756	0.054414	0.782215
C118	C	1.367756	0.554414	1.282215
C119	C	0.773290	0.168581	0.782252
C120	C	1.273290	0.668581	1.282252
C121	C	0.773288	0.168579	0.703451
C122	C	1.273288	0.668579	1.203451
C123	C	0.820525	0.111499	0.664035
C124	C	1.320525	0.611499	1.164035
H125	H	0.594649	0.255051	-0.000172
H126	H	1.094649	0.755051	0.499828
H127	H	0.374670	0.218713	0.079373
H128	H	0.874670	0.718713	0.579373
C129	C	0.155729	0.269143	-0.000247
C130	C	0.655729	0.769143	0.499753
N131	N	0.178876	0.332903	-0.000238
N132	N	0.678876	0.832903	0.499762
C133	C	0.721342	0.231375	0.825614
C134	C	1.221342	0.731375	1.325614
N135	N	0.682214	0.278672	0.858277
N136	N	1.182214	0.778672	1.358277
H137	H	0.906178	0.007931	0.185229
H138	H	1.406178	0.507931	0.685229
H139	H	0.016310	0.244828	-0.000265
H140	H	0.516310	0.744828	0.499735
H141	H	0.493259	-0.024162	-0.000196
H142	H	0.993259	0.475838	0.499804
C143	C	0.450497	0.274349	-0.000201
C144	C	0.950497	0.774349	0.499799
N145	N	0.413623	0.337046	-0.000221
N146	N	0.913623	0.837046	0.499779
H147	H	0.833147	-0.317477	0.124469
H148	H	1.333147	0.182523	0.624469
C149	C	0.825318	-0.470552	-0.144232
C150	C	1.325318	0.029448	0.355768
N151	N	0.800050	-0.491349	-0.199356
N152	N	1.300050	0.008651	0.300644
C153	C	0.932590	-0.486434	0.075693
C154	C	1.432590	0.013566	0.575693
N155	N	0.989324	-0.519460	0.078991
N156	N	1.489324	-0.019460	0.578991
H157	H	0.831457	-0.318638	-0.124863
H158	H	1.331457	0.181362	0.375137
H159	H	0.715054	-0.299903	0.051147
H160	H	1.215054	0.200097	0.551147
H161	H	0.243232	0.216387	0.079349
H162	H	0.743232	0.716387	0.579349
H163	H	0.906187	0.007930	0.328186
H164	H	1.406187	0.507930	0.828186
C165	C	0.409944	-0.009921	-0.092332
C166	C	0.909944	0.490079	0.407668
N167	N	0.445230	-0.057820	-0.128678
N168	N	0.945230	0.442180	0.371322
H169	H	0.177789	-0.029743	-0.000247
H170	H	0.677789	0.470257	0.499753
H171	H	0.906219	0.007934	0.814274
H172	H	1.406219	0.507934	1.314274
C173	C	0.721374	0.231425	0.660136
C174	C	1.221374	0.731425	1.160136
N175	N	0.682286	0.278782	0.627512
N176	N	1.182286	0.778782	1.127512
H177	H	0.803994	0.249907	0.571257
H178	H	1.303994	0.749907	1.071257
H179	H	0.712988	-0.442976	-0.051732
H180	H	1.212988	0.057024	0.448268
C181	C	0.637419	-0.043471	-0.000152
C182	C	1.137419	0.456529	0.499848
N183	N	0.674291	-0.106169	-0.000149
N184	N	1.174291	0.393831	0.499851
H185	H	0.713107	-0.444044	0.050512
H186	H	1.213107	0.055956	0.550512
H187	H	0.046352	-0.032065	-0.000320
H188	H	0.546352	0.467935	0.499680
H189	H	0.266342	0.004277	-0.079822
H190	H	0.766342	0.504277	0.420178
H191	H	0.915002	-0.330843	-0.076319
H192	H	1.415002	0.169157	0.423681
C193	C	0.919712	-0.008378	0.660052
C194	C	1.419712	0.491622	1.160052
N195	N	0.958843	-0.055679	0.627395
N196	N	1.458843	0.444321	1.127395
H197	H	0.803967	0.249906	0.428305
H198	H	1.303967	0.749906	0.928305
C199	C	0.935608	-0.327143	0.074843
C200	C	1.435608	0.172857	0.574843
N201	N	0.993178	-0.312967	0.077542
N202	N	1.493178	0.187033	0.577542
H203	H	0.914850	-0.474911	-0.071538
H204	H	1.414850	0.025089	0.428462
C205	C	0.721301	0.231356	0.339527
C206	C	1.221301	0.731356	0.839527
N207	N	0.682168	0.278647	0.372192
N208	N	1.182168	0.778647	0.872192
H209	H	0.715268	-0.299341	-0.051431
H210	H	1.215268	0.200659	0.448569
C211	C	0.820343	-0.467172	0.143522
C212	C	1.320343	0.032828	0.643522
N213	N	0.792531	-0.485688	0.197903
N214	N	1.292531	0.014312	0.697903
C215	C	0.839628	-0.048716	0.417051
C216	C	1.339628	0.451284	0.917051
N217	N	0.847165	-0.111927	0.384409
N218	N	1.347165	0.388073	0.884409
C219	C	0.839641	-0.048713	0.582532
C220	C	1.339641	0.451287	1.082532
N221	N	0.847186	-0.111920	0.615181
N222	N	1.347186	0.388080	1.115181
H223	H	0.734778	0.215040	0.185299
H224	H	1.234778	0.715040	0.685299
