data_functionalizedCrystal
_audit_creation_method	'MofGen! by Chris Wilmer'
_symmetry_space_group_name_H-M	'P1'
_symmetry_Int_Tables_number	1
_symmetry_cell_setting	triclinic
loop_
_symmetry_equiv_pos_as_xyz
  x,y,z
_cell_length_a	16.120484
_cell_length_b	16.120566
_cell_length_c	16.120297
_cell_angle_alpha	90.125018
_cell_angle_beta	84.385569
_cell_angle_gamma	89.831930
loop_
_atom_site_label
_atom_site_type_symbol
_atom_site_fract_x
_atom_site_fract_y
_atom_site_fract_z
Zn1	Zn	-0.422255	-1.224984	0.554879
Zn2	Zn	-0.088922	-0.891651	0.888212
Zn3	Zn	0.244412	-0.558318	1.221546
Zn4	Zn	-0.554939	-1.224880	0.422184
Zn5	Zn	-0.221606	-0.891546	0.755517
Zn6	Zn	0.111728	-0.558213	1.088851
Zn7	Zn	-0.408172	-1.093724	0.408115
Zn8	Zn	-0.074838	-0.760391	0.741448
Zn9	Zn	0.258495	-0.427057	1.074781
Zn10	Zn	-0.554173	-1.078877	0.554109
Zn11	Zn	-0.220839	-0.745544	0.887442
Zn12	Zn	0.112494	-0.412211	1.220775
O13	O	-0.484885	-1.155616	0.484822
O14	O	-0.151551	-0.822283	0.818155
O15	O	0.181782	-0.488950	1.151488
O16	O	-0.446070	-1.341006	0.543487
O17	O	-0.112737	-1.007673	0.876821
O18	O	0.220596	-0.674339	1.210154
O19	O	-0.529897	-1.213651	0.303685
O20	O	-0.196563	-0.880318	0.637019
O21	O	0.136770	-0.546985	0.970352
O22	O	-0.293409	-1.117393	0.422018
O23	O	0.039924	-0.784060	0.755351
O24	O	0.373258	-0.450726	1.088684
O25	O	-0.543553	-1.340929	0.445997
O26	O	-0.210219	-1.007596	0.779330
O27	O	0.123114	-0.674263	1.112663
O28	O	-0.303756	-1.213829	0.529845
O29	O	0.029577	-0.880496	0.863178
O30	O	0.362911	-0.547163	1.196512
O31	O	-0.422067	-1.117292	0.293349
O32	O	-0.088734	-0.783958	0.626682
O33	O	0.244599	-0.450625	0.960015
O34	O	-0.421324	-0.975719	0.421271
O35	O	-0.087991	-0.642386	0.754604
O36	O	0.245342	-0.309052	1.087937
O37	O	-0.542247	-1.092089	0.670843
O38	O	-0.208913	-0.758756	1.004177
O39	O	0.124420	-0.425423	1.337510
O40	O	-0.528591	-0.964811	0.528532
O41	O	-0.195257	-0.631478	0.861865
O42	O	0.138076	-0.298145	1.195198
O43	O	-0.445327	-1.199433	0.671409
O44	O	-0.111994	-0.866100	1.004743
O45	O	0.221339	-0.532767	1.338076
O46	O	-0.671468	-1.199255	0.445250
O47	O	-0.338135	-0.865922	0.778583
O48	O	-0.004801	-0.532589	1.111916
O49	O	-0.670905	-1.091988	0.542174
O50	O	-0.337572	-0.758655	0.875508
O51	O	-0.004238	-0.425321	1.208841
C52	C	-0.701429	-1.144021	0.495174
C53	C	-0.368096	-0.810687	0.828508
C54	C	-0.034763	-0.477354	1.161841
C55	C	-0.794074	-1.139134	0.499635
C56	C	-0.460740	-0.805801	0.832969
C57	C	-0.127407	-0.472468	1.166302
C58	C	-0.473347	-0.940178	0.473291
C59	C	-0.140013	-0.606845	0.806625
C60	C	0.193320	-0.273512	1.139958
C61	C	-0.468432	-0.848011	0.468379
C62	C	-0.135098	-0.514678	0.801713
C63	C	0.198235	-0.181344	1.135046
C64	C	-0.963697	-1.130217	0.507797
C65	C	-0.630364	-0.796884	0.841131
C66	C	-0.297030	-0.463551	1.174464
C67	C	-1.005240	-1.181163	0.461868
C68	C	-0.671907	-0.847830	0.795201
C69	C	-0.338573	-0.514497	1.128534
C70	C	-1.099624	-1.176202	0.466409
C71	C	-0.766291	-0.842868	0.799742
C72	C	-0.432958	-0.509535	1.133076
C73	C	-0.869304	-1.135178	0.503257
C74	C	-0.535971	-0.801844	0.836590
C75	C	-0.202638	-0.468511	1.169924
C76	C	-0.459439	-0.679260	0.459418
C77	C	-0.126106	-0.345927	0.792751
C78	C	0.207227	-0.012593	1.126084
C79	C	-0.510402	-0.632809	0.510236
C80	C	-0.177068	-0.299476	0.843569
C81	C	0.156265	0.033858	1.176902
C82	C	-0.505398	-0.538910	0.505249
C83	C	-0.172065	-0.205577	0.838583
C84	C	0.161268	0.127756	1.171916
C85	C	-0.464442	-0.773167	0.464403
C86	C	-0.131108	-0.439834	0.797736
C87	C	0.202225	-0.106501	1.131070
C88	C	-0.267496	-1.167279	0.474448
C89	C	0.065837	-0.833946	0.807781
C90	C	0.399171	-0.500612	1.141114
C91	C	-0.174858	-1.172249	0.470027
C92	C	0.158475	-0.838915	0.803360
C93	C	0.491809	-0.505582	1.136694
C94	C	-0.495272	-1.144117	0.702213
C95	C	-0.161939	-0.810784	1.035547
C96	C	0.171394	-0.477450	1.368880
C97	C	-0.499699	-1.139216	0.794853
C98	C	-0.166366	-0.805883	1.128186
C99	C	0.166968	-0.472550	1.461519
C100	C	-0.496470	-0.371896	0.496384
C101	C	-0.163137	-0.038563	0.829717
C102	C	0.170197	0.294771	1.163051
C103	C	-0.501412	-0.464063	0.501277
C104	C	-0.168079	-0.130730	0.834610
C105	C	0.165255	0.202604	1.167943
C106	C	-0.474480	-1.167122	0.268275
C107	C	-0.141146	-0.833789	0.601609
C108	C	0.192187	-0.500455	0.934942
C109	C	-0.469827	-1.172196	0.175634
C110	C	-0.136493	-0.838862	0.508967
C111	C	0.196840	-0.505529	0.842300
C112	C	-0.507761	-1.130240	0.964463
C113	C	-0.174427	-0.796907	1.297797
C114	C	0.158906	-0.463573	1.631130
C115	C	-0.461767	-1.181169	1.006028
C116	C	-0.128434	-0.847836	1.339362
C117	C	0.204899	-0.514503	1.672695
C118	C	-0.466253	-1.176175	1.100406
C119	C	-0.132920	-0.842841	1.433739
C120	C	0.200414	-0.509508	1.767072
C121	C	-0.503276	-1.135233	0.870078
C122	C	-0.169943	-0.801900	1.203411
C123	C	0.163390	-0.468567	1.536744
H124	H	-0.969921	-1.228505	0.419135
H125	H	-0.636588	-0.895172	0.752468
H126	H	-0.303255	-0.561838	1.085802
C127	C	-0.404027	-1.245148	0.958349
C128	C	-0.070694	-0.911815	1.291683
C129	C	0.262639	-0.578481	1.625016
N130	N	-0.360543	-1.293338	0.922434
N131	N	-0.027210	-0.960005	1.255768
N132	N	0.306124	-0.626671	1.589101
H133	H	-0.999013	-1.082878	0.550525
H134	H	-0.665680	-0.749545	0.883859
H135	H	-0.332346	-0.416211	1.217192
C136	C	-0.574427	-0.674352	0.574065
C137	C	-0.241094	-0.341019	0.907399
C138	C	0.092239	-0.007686	1.240732
N139	N	-0.622652	-0.705647	0.622137
N140	N	-0.289319	-0.372313	0.955470
N141	N	0.044014	-0.038980	1.288803
H142	H	-0.412055	-0.648509	0.412169
H143	H	-0.078722	-0.315176	0.745503
H144	H	0.254611	0.018157	1.078836
C145	C	-0.565503	-1.066271	1.012143
C146	C	-0.232169	-0.732938	1.345476
C147	C	0.101164	-0.399605	1.678809
N148	N	-0.608994	-1.018091	1.048064
N149	N	-0.275660	-0.684758	1.381398
N150	N	0.057673	-0.351425	1.714731
