data_functionalizedCrystal
_audit_creation_method	'MofGen! by Chris Wilmer'
_symmetry_space_group_name_H-M	'P1'
_symmetry_Int_Tables_number	1
_symmetry_cell_setting	triclinic
loop_
_symmetry_equiv_pos_as_xyz
  x,y,z
_cell_length_a	6.394989
_cell_length_b	8.559649
_cell_length_c	7.681481
_cell_angle_alpha	94.913240
_cell_angle_beta	95.906187
_cell_angle_gamma	101.861812
loop_
_atom_site_label
_atom_site_type_symbol
_atom_site_fract_x
_atom_site_fract_y
_atom_site_fract_z
O1	O	0.048509	2.104046	-0.146402
O2	O	-0.059017	1.641007	-0.146408
O3	O	0.299864	1.879099	-0.146406
O4	O	-0.310373	1.865954	-0.146404
O5	O	0.344125	1.908402	0.146452
O6	O	-0.014756	1.670310	0.146450
O7	O	0.092770	2.133349	0.146456
Zn8	Zn	0.046035	1.906482	0.192951
Zn9	Zn	-0.012282	1.867874	-0.192902
O10	O	-0.266111	1.895257	0.146454
C11	C	-0.045035	1.596293	0.000021
C12	C	-0.069291	1.419401	0.000018
C13	C	0.399398	1.891151	0.000016
C14	C	0.634359	1.883208	0.000015
C15	C	0.078787	2.178063	0.000024
C16	C	0.103041	2.354954	0.000015
N17	N	0.085837	1.932843	0.456285
N18	N	-0.052066	1.841525	-0.456237
H19	H	-0.192824	1.748308	0.468566
O20	O	0.253837	2.044187	0.545719
C21	C	0.376131	2.125108	0.424996
H22	H	0.271378	2.115653	0.293533
H23	H	0.519462	2.068163	0.405462
C24	C	0.586268	2.314808	0.658564
C25	C	0.457602	2.303207	0.497103
H26	H	0.636533	2.424666	0.703044
H27	H	0.503882	2.260287	0.739899
H28	H	0.705693	2.267344	0.642264
H29	H	0.338166	2.350651	0.513410
H30	H	0.539970	2.357740	0.415772
O31	O	0.301055	1.450704	-0.000220
C32	C	0.302701	1.532542	-0.151915
H33	H	0.131085	1.539052	-0.202482
H34	H	0.373090	1.465442	-0.258123
C35	C	0.652020	1.695789	-0.043735
C36	C	0.441240	1.703796	-0.105833
H37	H	0.737485	1.801424	-0.015315
H38	H	0.650917	1.640650	0.058462
H39	H	0.710649	1.639865	-0.132253
H40	H	0.382606	1.759701	-0.017309
H41	H	0.442337	1.758949	-0.208015
O42	O	-0.267295	1.323560	0.000090
C43	C	-0.248265	1.162348	0.000034
H44	H	-0.077317	1.158381	0.055479
H45	H	-0.285022	1.100410	-0.140468
C46	C	-0.618710	1.080148	0.046777
C47	C	-0.408753	1.075276	0.114889
H48	H	-0.717712	1.026434	0.117617
H49	H	-0.631535	1.188758	0.046808
H50	H	-0.649310	1.028535	-0.070307
H51	H	-0.378147	1.126906	0.231962
H52	H	-0.395927	0.966672	0.114880
