data_functionalizedCrystal
_audit_creation_method	'MofGen! by Chris Wilmer'
_symmetry_space_group_name_H-M	'P1'
_symmetry_Int_Tables_number	1
_symmetry_cell_setting	triclinic
loop_
_symmetry_equiv_pos_as_xyz
  x,y,z
_cell_length_a	14.971486
_cell_length_b	14.971486
_cell_length_c	14.048226
_cell_angle_alpha	89.997552
_cell_angle_beta	90.003179
_cell_angle_gamma	96.385871
loop_
_atom_site_label
_atom_site_type_symbol
_atom_site_fract_x
_atom_site_fract_y
_atom_site_fract_z
O1	O	1.186950	-0.116559	0.079052
O2	O	0.926550	-0.130518	0.079078
O3	O	1.063729	0.006662	0.079057
O4	O	1.049770	-0.253738	0.079072
O5	O	1.063707	0.006658	-0.079264
O6	O	0.926528	-0.130521	-0.079244
O7	O	1.186928	-0.116562	-0.079270
Zn8	Zn	1.056724	-0.123542	-0.104394
Zn9	Zn	1.056753	-0.123538	0.104202
O10	O	1.049748	-0.253742	-0.079249
C11	C	0.893214	-0.129895	-0.000080
C12	C	0.793917	-0.128024	-0.000070
C13	C	1.063094	0.039985	-0.000103
C14	C	1.061223	0.139282	-0.000102
N15	N	1.056711	-0.123545	-0.246754
C16	C	0.736691	-0.208614	-0.000067
C17	C	0.643392	-0.206850	-0.000081
C18	C	0.607320	-0.124497	-0.000092
C19	C	0.664552	-0.043902	-0.000098
C20	C	0.757850	-0.045666	-0.000090
C21	C	0.470090	-0.040231	-0.000111
C22	C	0.376786	-0.038466	-0.000117
C23	C	0.355632	-0.201415	-0.000102
C24	C	0.448930	-0.203179	-0.000094
C25	C	0.506156	-0.122584	-0.000099
C26	C	1.220263	-0.117185	-0.000110
C27	C	1.319561	-0.119056	-0.000114
C28	C	1.050384	-0.287065	-0.000087
C29	C	1.052254	-0.386362	-0.000082
C30	C	1.141812	0.196507	-0.000111
C31	C	1.140049	0.289807	-0.000101
C32	C	1.057696	0.325879	-0.000089
C33	C	0.977101	0.268646	-0.000078
C34	C	0.978865	0.175349	-0.000081
C35	C	0.973430	0.463109	-0.000074
C36	C	0.971665	0.556413	-0.000073
C37	C	1.134614	0.577567	-0.000094
C38	C	1.136378	0.484269	-0.000097
C39	C	1.055782	0.427043	-0.000088
C40	C	1.117525	-0.062810	-0.703603
C41	C	1.117517	-0.062816	-0.603945
C42	C	1.056753	-0.123537	-0.554124
C43	C	0.995998	-0.184262	-0.603966
C44	C	0.996011	-0.184259	-0.703622
C45	C	0.995974	-0.184261	-0.396252
C46	C	0.995959	-0.184263	-0.296589
C47	C	1.117480	-0.062818	-0.296575
C48	C	1.117493	-0.062816	-0.396231
C49	C	1.056737	-0.123540	-0.446066
N50	N	1.056774	-0.123528	0.246562
H51	H	0.766054	-0.275675	-0.000057
O52	O	1.183047	0.002678	-0.550204
H53	H	1.226559	-0.035050	-0.504804
H54	H	0.946479	-0.233709	-0.256030
O55	O	1.183039	0.002664	-0.449973
H56	H	1.225293	0.044880	-0.398579
H57	H	0.596802	-0.272474	-0.000077
O58	O	0.625652	0.044925	-0.000118
H59	H	0.583658	0.049637	0.064412
H60	H	0.804443	0.019958	-0.000093
H61	H	1.167003	-0.013360	-0.744160
H62	H	0.478296	-0.270239	-0.000077
H63	H	0.910047	0.298024	-0.000062
H64	H	0.946525	-0.233706	-0.563396
O65	O	0.531809	0.046701	-0.000116
H66	H	0.574816	0.049798	-0.064647
H67	H	0.309033	-0.267039	-0.000103
O68	O	1.221547	0.639281	-0.000096
H69	H	1.206488	0.710218	-0.000078
O70	O	0.337881	0.050359	-0.000141
H71	H	0.295875	0.055040	-0.064672
O72	O	0.891945	0.113620	-0.000082
H73	H	0.834382	0.154375	-0.000084
O74	O	1.230637	0.157601	-0.000114
H75	H	1.286378	0.213072	-0.000106
H76	H	1.166949	-0.013375	-0.255994
H77	H	0.946503	-0.233712	-0.436824
O78	O	0.930497	-0.249757	-0.757380
H79	H	0.888240	-0.291980	-0.705997
H80	H	1.205673	0.336396	-0.000110
O81	O	1.225203	0.445364	-0.000098
H82	H	1.263933	0.468350	-0.064624
O83	O	0.882844	0.595326	-0.000044
H84	H	0.827097	0.539861	-0.000020
H85	H	0.907800	0.416517	-0.000064
