data_functionalizedCrystal
_audit_creation_method	'MofGen! by Chris Wilmer'
_symmetry_space_group_name_H-M	'P1'
_symmetry_Int_Tables_number	1
_symmetry_cell_setting	triclinic
loop_
_symmetry_equiv_pos_as_xyz
  x,y,z
_cell_length_a	19.188925
_cell_length_b	19.188930
_cell_length_c	17.666332
_cell_angle_alpha	89.988397
_cell_angle_beta	89.989697
_cell_angle_gamma	83.143665
loop_
_atom_site_label
_atom_site_type_symbol
_atom_site_fract_x
_atom_site_fract_y
_atom_site_fract_z
O1	O	0.926152	0.087151	-0.062973
O2	O	1.259485	0.420484	0.270360
O3	O	1.592819	0.753817	0.603694
O4	O	0.722840	0.098889	-0.062972
O5	O	1.056173	0.432222	0.270361
O6	O	1.389507	0.765556	0.603695
O7	O	0.830363	-0.008636	-0.062958
O8	O	1.163697	0.324697	0.270375
O9	O	1.497030	0.658031	0.603709
O10	O	0.818629	0.194676	-0.062987
O11	O	1.151962	0.528009	0.270346
O12	O	1.485296	0.861342	0.603679
O13	O	0.830344	-0.008642	0.062939
O14	O	1.163678	0.324692	0.396272
O15	O	1.497011	0.658025	0.729606
O16	O	0.722821	0.098883	0.062925
O17	O	1.056155	0.432217	0.396258
O18	O	1.389488	0.765550	0.729591
O19	O	0.926133	0.087145	0.062924
O20	O	1.259467	0.420478	0.396257
O21	O	1.592800	0.753812	0.729590
Cu22	Cu	0.824476	0.093014	0.074419
Cu23	Cu	1.157809	0.426347	0.407753
Cu24	Cu	1.491142	0.759680	0.741086
Cu25	Cu	0.824498	0.093020	-0.074468
Cu26	Cu	1.157831	0.426354	0.258865
Cu27	Cu	1.491164	0.759687	0.592199
O28	O	0.818610	0.194670	0.062909
O29	O	1.151943	0.528003	0.396243
O30	O	1.485277	0.861337	0.729576
C31	C	0.696820	0.098507	-0.000023
C32	C	1.030153	0.431840	0.333310
C33	C	1.363486	0.765173	0.666643
C34	C	0.619315	0.097367	-0.000022
C35	C	0.952648	0.430701	0.333311
C36	C	1.285982	0.764034	0.666644
C37	C	0.057545	0.152831	-0.000032
C38	C	0.390878	0.486165	0.333301
C39	C	0.724211	0.819498	0.666634
C40	C	0.130368	0.153908	-0.000037
C41	C	0.463701	0.487241	0.333297
C42	C	0.797035	0.820575	0.666630
C43	C	0.175302	0.090816	-0.000026
C44	C	0.508636	0.424149	0.333307
C45	C	0.841969	0.757482	0.666641
C46	C	0.147408	0.026642	-0.000031
C47	C	0.480742	0.359976	0.333303
C48	C	0.814075	0.693309	0.666636
C49	C	0.074586	0.025568	-0.000034
C50	C	0.407920	0.358901	0.333299
C51	C	0.741253	0.692234	0.666633
N52	N	0.295973	0.045138	0.042837
N53	N	0.629306	0.378471	0.376170
N54	N	0.962640	0.711804	0.709503
N55	N	0.365150	0.046163	0.042842
N56	N	0.698484	0.379496	0.376175
N57	N	1.031817	0.712830	0.709508
C58	C	0.394712	0.094050	-0.000018
C59	C	0.728045	0.427383	0.333316
C60	C	1.061378	0.760716	0.666649
N61	N	0.352481	0.140883	-0.042872
N62	N	0.685814	0.474217	0.290461
N63	N	1.019147	0.807550	0.623795
N64	N	0.283297	0.139860	-0.042874
N65	N	0.616630	0.473194	0.290460
N66	N	0.949963	0.806527	0.623793
C67	C	0.254267	0.091974	-0.000023
C68	C	0.587600	0.425307	0.333310
C69	C	0.920933	0.758641	0.666644
C70	C	0.501561	0.159386	-0.000023
C71	C	0.834894	0.492720	0.333311
C72	C	1.168227	0.826053	0.666644
C73	C	0.574385	0.160460	-0.000032
C74	C	0.907719	0.493794	0.333302
C75	C	1.241052	0.827127	0.666635
C76	C	0.591425	0.033193	-0.000018
C77	C	0.924758	0.366526	0.333315
C78	C	1.258091	0.699859	0.666648
C79	C	0.518601	0.032121	-0.000017
C80	C	0.851934	0.365454	0.333316
C81	C	1.185268	0.698787	0.666650
C82	C	0.473673	0.095220	-0.000016
C83	C	0.807006	0.428553	0.333318
C84	C	1.140340	0.761886	0.666651
C85	C	0.829974	-0.034650	-0.000007
C86	C	1.163307	0.298683	0.333326
C87	C	1.496640	0.632017	0.666659
C88	C	0.828833	-0.112154	-0.000001
C89	C	1.162166	0.221179	0.333333
C90	C	1.495500	0.554512	0.666666
C91	C	0.891924	-0.157079	0.000003
C92	C	1.225257	0.176254	0.333336
C93	C	1.558591	0.509587	0.666669
C94	C	0.890852	-0.229903	-0.000010
C95	C	1.224186	0.103430	0.333324
C96	C	1.557519	0.436763	0.666657
C97	C	0.826686	-0.257799	-0.000010
C98	C	1.160020	0.075535	0.333323
C99	C	1.493353	0.408868	0.666657
C100	C	0.763587	-0.212864	-0.000017
C101	C	1.096920	0.120470	0.333316
C102	C	1.430254	0.453803	0.666649
C103	C	0.764660	-0.140041	-0.000013
C104	C	1.097994	0.193292	0.333320
C105	C	1.431327	0.526625	0.666654
N106	N	0.777632	-0.365805	0.042835
N107	N	1.110966	-0.032471	0.376169
N108	N	1.444299	0.300862	0.709502
N109	N	0.776617	-0.434983	0.042833
N110	N	1.109950	-0.101650	0.376166
N111	N	1.443284	0.231684	0.709499
C112	C	0.823448	-0.477207	-0.000025
C113	C	1.156781	-0.143874	0.333308
C114	C	1.490115	0.189459	0.666642
N115	N	0.871344	-0.447641	-0.042871
N116	N	1.204677	-0.114307	0.290463
N117	N	1.538010	0.219026	0.623796
N118	N	0.872361	-0.378456	-0.042865
N119	N	1.205695	-0.045123	0.290469
N120	N	1.539028	0.288211	0.623802
C121	C	0.825515	-0.336761	-0.000015
C122	C	1.158848	-0.003428	0.333318
C123	C	1.492182	0.329906	0.666651
C124	C	0.885381	-0.601097	-0.000036
C125	C	1.218715	-0.267763	0.333297
C126	C	1.552048	0.065570	0.666631
C127	C	0.884307	-0.673922	-0.000053
C128	C	1.217640	-0.340588	0.333281
C129	C	1.550974	-0.007255	0.666614
C130	C	0.757040	-0.656880	-0.000053
C131	C	1.090373	-0.323547	0.333280
C132	C	1.423706	0.009786	0.666614
C133	C	0.758116	-0.584057	-0.000044
C134	C	1.091449	-0.250724	0.333289
C135	C	1.424783	0.082610	0.666623
C136	C	0.822289	-0.556170	-0.000032
C137	C	1.155622	-0.222837	0.333302
C138	C	1.488955	0.110497	0.666635
C139	C	0.952154	0.087527	-0.000027
C140	C	1.285487	0.420861	0.333307
C141	C	1.618820	0.754194	0.666640
C142	C	1.029658	0.088666	-0.000033
C143	C	1.362992	0.422000	0.333301
C144	C	1.696325	0.755333	0.666634
C145	C	0.819000	0.220684	-0.000043
C146	C	1.152333	0.554017	0.333290
C147	C	1.485666	0.887350	0.666624
C148	C	0.820140	0.298188	-0.000054
C149	C	1.153474	0.631522	0.333279
C150	C	1.486807	0.964855	0.666612
N151	N	0.824465	0.093008	0.179139
N152	N	1.157798	0.426342	0.512472
N153	N	1.491132	0.759675	0.845806
N154	N	0.824514	0.093020	-0.179187
N155	N	1.157847	0.426353	0.154146
N156	N	1.491181	0.759687	0.487479
C157	C	0.872092	0.045420	0.218755
C158	C	1.205425	0.378753	0.552088
C159	C	1.538758	0.712086	0.885422
C160	C	0.872096	0.045416	0.298003
C161	C	1.205429	0.378750	0.631336
C162	C	1.538762	0.712083	0.964669
C163	C	0.824480	0.093014	0.337631
C164	C	1.157813	0.426347	0.670964
C165	C	1.491146	0.759680	1.004298
C166	C	0.776844	0.140606	0.298005
C167	C	1.110178	0.473939	0.631339
C168	C	1.443511	0.807273	0.964672
C169	C	0.776837	0.140604	0.218759
C170	C	1.110170	0.473937	0.552093
C171	C	1.443504	0.807270	0.885426
N172	N	0.815404	0.154821	0.462041
N173	N	1.148737	0.488155	0.795374
N174	N	1.482070	0.821488	1.128707
N175	N	0.815415	0.154821	0.537321
N176	N	1.148748	0.488155	0.870655
N177	N	1.482081	0.821488	1.203988
C178	C	0.824498	0.093023	0.576395
C179	C	1.157831	0.426357	0.909728
C180	C	1.491165	0.759690	1.243062
N181	N	0.833584	0.031223	0.537345
N182	N	1.166917	0.364556	0.870678
N183	N	1.500250	0.697890	1.204011
N184	N	0.833576	0.031223	0.462057
N185	N	1.166909	0.364557	0.795391
N186	N	1.500243	0.697890	1.128724
C187	C	0.824482	0.093022	0.423560
C188	C	1.157816	0.426355	0.756894
C189	C	1.491149	0.759688	1.090227
C190	C	0.872132	0.045427	0.701940
C191	C	1.205465	0.378760	1.035274
C192	C	1.538798	0.712094	1.368607
C193	C	0.872131	0.045423	0.781190
C194	C	1.205464	0.378756	1.114523
C195	C	1.538798	0.712089	1.447856
C196	C	0.776883	0.140619	0.781191
C197	C	1.110216	0.473952	1.114524
C198	C	1.443550	0.807285	1.447858
C199	C	0.776880	0.140617	0.701943
C200	C	1.110214	0.473950	1.035277
C201	C	1.443547	0.807284	1.368610
C202	C	0.824509	0.093022	0.662323
C203	C	1.157842	0.426355	0.995656
C204	C	1.491175	0.759689	1.328990
H205	H	0.051883	-0.026685	-0.000035
H206	H	0.385216	0.306649	0.333299
H207	H	0.718549	0.639982	0.666632
Cl208	Cl	0.001068	0.232156	-0.000041
Cl209	Cl	0.334401	0.565489	0.333292
Cl210	Cl	0.667734	0.898822	0.666626
Cl211	Cl	0.716960	0.200435	0.168953
Cl212	Cl	1.050293	0.533768	0.502286
Cl213	Cl	1.383626	0.867102	0.835620
Cl214	Cl	0.483542	-0.048549	-0.000020
Cl215	Cl	0.816875	0.284785	0.333313
Cl216	Cl	1.150208	0.618118	0.666646
Cl217	Cl	0.932005	-0.014412	0.830996
Cl218	Cl	1.265338	0.318921	1.164329
Cl219	Cl	1.598672	0.652254	1.497662
Cl220	Cl	0.609442	0.241132	-0.000039
Cl221	Cl	0.942776	0.574466	0.333294
Cl222	Cl	1.276109	0.907799	0.666627
H223	H	0.711342	-0.235581	-0.000019
H224	H	1.044676	0.097753	0.333314
H225	H	1.378009	0.431086	0.666647
Cl226	Cl	0.676372	-0.691942	-0.000058
Cl227	Cl	1.009706	-0.358608	0.333276
Cl228	Cl	1.343039	-0.025275	0.666609
Cl229	Cl	0.970173	-0.286391	-0.000006
Cl230	Cl	1.303506	0.046942	0.333327
Cl231	Cl	1.636840	0.380276	0.666661
Cl232	Cl	0.931962	-0.014416	0.168947
Cl233	Cl	1.265295	0.318917	0.502280
Cl234	Cl	1.598628	0.652250	0.835614
H235	H	0.464978	0.210765	-0.000023
H236	H	0.798312	0.544098	0.333310
H237	H	1.131645	0.877432	0.666644
H238	H	0.628010	-0.018178	-0.000016
H239	H	0.961343	0.315155	0.333318
H240	H	1.294676	0.648489	0.666651
Cl241	Cl	0.972598	-0.122025	-0.000004
Cl242	Cl	1.305932	0.211308	0.333330
Cl243	Cl	1.639265	0.544641	0.666663
H244	H	0.738111	0.179371	0.813456
H245	H	1.071444	0.512704	1.146789
H246	H	1.404777	0.846037	1.480122
H247	H	0.713282	-0.103462	-0.000015
H248	H	1.046616	0.229871	0.333318
H249	H	1.379949	0.563204	0.666651
H250	H	0.706740	-0.547478	-0.000042
H251	H	1.040073	-0.214144	0.333291
H252	H	1.373407	0.119189	0.666624
Cl253	Cl	0.931975	-0.014415	0.347814
Cl254	Cl	1.265308	0.318919	0.681147
Cl255	Cl	1.598642	0.652252	1.014481
Cl256	Cl	0.717008	0.200449	0.652135
Cl257	Cl	1.050341	0.533783	0.985469
Cl258	Cl	1.383675	0.867116	1.318802
Cl259	Cl	0.716981	0.200440	0.347822
Cl260	Cl	1.050315	0.533774	0.681156
Cl261	Cl	1.383648	0.867107	1.014489
Cl262	Cl	0.165434	0.234579	-0.000034
Cl263	Cl	0.498767	0.567912	0.333300
Cl264	Cl	0.832101	0.901245	0.666633
Cl265	Cl	0.203896	-0.052674	-0.000021
Cl266	Cl	0.537230	0.280660	0.333313
Cl267	Cl	0.870563	0.613993	0.666646
H268	H	0.910911	0.006670	0.669680
H269	H	1.244245	0.340003	1.003014
H270	H	1.577578	0.673337	1.336347
H271	H	0.935686	-0.710500	-0.000054
H272	H	1.269019	-0.377166	0.333279
H273	H	1.602352	-0.043833	0.666612
Cl274	Cl	0.966054	-0.566035	-0.000016
Cl275	Cl	1.299387	-0.232702	0.333317
Cl276	Cl	1.632721	0.100631	0.666650
