data_functionalizedCrystal
_audit_creation_method	'MofGen! by Chris Wilmer'
_symmetry_space_group_name_H-M	'P1'
_symmetry_Int_Tables_number	1
_symmetry_cell_setting	triclinic
loop_
_symmetry_equiv_pos_as_xyz
  x,y,z
_cell_length_a	12.827893
_cell_length_b	13.032721
_cell_length_c	12.827885
_cell_angle_alpha	97.149059
_cell_angle_beta	89.980538
_cell_angle_gamma	97.204267
loop_
_atom_site_label
_atom_site_type_symbol
_atom_site_fract_x
_atom_site_fract_y
_atom_site_fract_z
Zn1	Zn	1.544800	-0.415987	-0.643644
Zn2	Zn	1.522480	-0.590766	-0.491086
Zn3	Zn	1.370035	-0.416038	-0.468924
Zn4	Zn	1.347823	-0.590688	-0.665776
O5	O	1.446284	-0.503370	-0.567357
O6	O	1.688074	-0.439183	-0.623419
O7	O	1.502212	-0.567642	-0.341917
O8	O	1.411855	-0.269794	-0.473563
O9	O	1.671675	-0.567593	-0.511336
O10	O	1.540254	-0.269756	-0.601929
O11	O	1.390211	-0.439270	-0.325634
O12	O	1.220854	-0.439194	-0.495024
O13	O	1.373998	-0.567460	-0.809070
O14	O	1.204535	-0.567509	-0.639651
O15	O	1.518716	-0.439108	-0.792809
O16	O	1.480674	-0.736993	-0.532797
O17	O	1.352354	-0.736936	-0.661141
C18	C	1.174777	-0.503350	-0.567335
C19	C	1.058622	-0.503366	-0.567353
C20	C	0.998777	-0.566960	-0.638834
C21	C	0.878724	-0.566978	-0.638854
C22	C	1.411710	-0.774882	-0.601798
C23	C	1.397015	-0.891037	-0.616567
C24	C	1.454009	-0.942815	-0.559696
C25	C	1.438823	-1.062867	-0.574959
C26	C	1.718852	-0.503391	-0.567381
C27	C	1.835004	-0.503400	-0.567391
C28	C	1.446369	-0.503270	-0.839915
C29	C	1.446405	-0.503227	-0.956063
C30	C	1.481022	-0.230797	-0.532805
C31	C	1.495825	-0.114643	-0.518081
C32	C	1.391006	-0.439692	-0.999789
C33	C	1.391042	-0.439646	-1.119833
C34	C	1.446270	-0.503394	-0.295851
C35	C	1.446473	-0.503143	-0.179666
H36	H	0.886431	-0.448956	-0.506187
Br37	Br	1.525497	-0.593846	-1.041785
Br38	Br	0.995894	-0.412630	-0.465381
Br39	Br	1.061506	-0.657690	-0.740812
Br40	Br	1.311994	-0.348970	-1.182550
H41	H	1.378784	-1.107411	-0.634956
H42	H	1.514053	-0.898270	-0.499712
Br43	Br	1.595910	-1.040412	-0.418095
H44	H	1.336981	-0.935584	-0.676559
Br45	Br	1.311919	-0.349067	-0.914066
H46	H	0.827290	-0.621426	-0.700049
H47	H	1.493910	-0.557536	-1.142038
