data_functionalizedCrystal
_audit_creation_method	'MofGen! by Chris Wilmer'
_symmetry_space_group_name_H-M	'P1'
_symmetry_Int_Tables_number	1
_symmetry_cell_setting	triclinic
loop_
_symmetry_equiv_pos_as_xyz
  x,y,z
_cell_length_a	16.956995
_cell_length_b	10.967829
_cell_length_c	10.065918
_cell_angle_alpha	111.730848
_cell_angle_beta	100.398608
_cell_angle_gamma	80.479919
loop_
_atom_site_label
_atom_site_type_symbol
_atom_site_fract_x
_atom_site_fract_y
_atom_site_fract_z
O1	O	1.070358	0.069121	0.129845
O2	O	1.570358	0.569121	0.629845
O3	O	0.839424	0.114328	0.140458
O4	O	1.339424	0.614328	0.640458
O5	O	0.956136	-0.096419	0.090897
O6	O	1.456136	0.403581	0.590897
O7	O	0.953646	0.279868	0.179406
O8	O	1.453646	0.779868	0.679406
O9	O	0.934396	-0.127894	-0.143497
O10	O	1.434396	0.372106	0.356503
O11	O	0.817684	0.082854	-0.093935
O12	O	1.317684	0.582854	0.406065
O13	O	1.048617	0.037646	-0.104549
O14	O	1.548617	0.537646	0.395451
Zn15	Zn	0.929699	0.055253	-0.136457
Zn16	Zn	1.429699	0.555253	0.363543
Zn17	Zn	0.958343	0.096722	0.172367
Zn18	Zn	1.458343	0.596722	0.672367
O19	O	0.931905	0.248394	-0.054987
O20	O	1.431905	0.748394	0.445013
C21	C	0.798909	0.100905	0.023804
C22	C	1.298909	0.600905	0.523804
C23	C	0.710574	0.107786	0.025415
C24	C	1.210574	0.607786	0.525415
C25	C	0.212674	0.159278	0.037577
C26	C	0.712674	0.659278	0.537577
C27	C	0.295674	0.152801	0.036053
C28	C	0.795674	0.652801	0.536053
C29	C	0.343465	0.031234	0.007448
C30	C	0.843465	0.531234	0.507448
C31	C	0.308255	-0.083862	-0.019620
C32	C	0.808255	0.416138	0.480380
C33	C	0.225257	-0.077383	-0.018085
C34	C	0.725257	0.422617	0.481915
C35	C	0.592366	-0.000831	-0.000118
C36	C	1.092366	0.499169	0.499882
C37	C	0.675368	-0.007302	-0.001655
C38	C	1.175368	0.492698	0.498345
C39	C	0.662782	0.229363	0.054021
C40	C	1.162782	0.729363	0.554021
C41	C	0.579783	0.235830	0.055544
C42	C	1.079783	0.735830	0.555544
C43	C	0.544580	0.120735	0.028484
C44	C	1.044580	0.620735	0.528484
N45	N	0.428304	0.024610	0.005884
N46	N	0.928304	0.524610	0.505884
N47	N	0.459744	0.127361	0.030058
N48	N	0.959744	0.627361	0.530058
C49	C	0.943442	-0.160079	-0.037569
C50	C	1.443442	0.339921	0.462431
C51	C	0.937998	-0.302872	-0.071149
C52	C	1.437998	0.197128	0.428851
C53	C	0.946834	-0.350223	0.035305
C54	C	1.446834	0.149777	0.535305
C55	C	0.941208	-0.497806	0.000602
C56	C	1.441208	0.002194	0.500602
C57	C	1.089133	0.051069	0.012109
C58	C	1.589133	0.551069	0.512109
C59	C	1.177469	0.044190	0.010507
C60	C	1.677469	0.544190	0.510507
C61	C	0.944600	0.312054	0.073482
C62	C	1.444600	0.812054	0.573482
C63	C	0.950044	0.454848	0.107071
C64	C	1.450044	0.954848	0.607071
N65	N	0.910156	0.026950	-0.347221
N66	N	1.410156	0.526950	0.152779
C67	C	0.936510	0.065088	-0.563191
C68	C	1.436510	0.565088	-0.063191
C69	C	0.951544	0.086884	-0.400896
C70	C	1.451544	0.586884	0.099104
N71	N	0.977892	0.125013	0.383128
N72	N	1.477892	0.625013	0.883128
H73	H	0.691454	0.323068	0.076054
H74	H	1.191454	0.823068	0.576054
F75	F	0.528927	0.365221	0.085999
F76	F	1.028927	0.865221	0.585999
H77	H	0.889954	-0.002358	-0.637386
H78	H	1.389954	0.497642	-0.137386
F79	F	0.359120	-0.213244	-0.050059
F80	F	0.859120	0.286756	0.449941
H81	H	0.998108	0.154324	-0.326708
H82	H	1.498108	0.654324	0.173292
H83	H	0.863594	-0.040496	-0.421409
H84	H	1.363594	0.459504	0.078591
F85	F	1.038753	0.213157	-0.519904
F86	F	1.538753	0.713157	-0.019904
F87	F	0.187790	-0.199876	-0.046897
F88	F	0.687790	0.300124	0.453103
H89	H	0.173767	0.258270	0.060860
H90	H	0.673767	0.758270	0.560860
F91	F	0.726231	-0.136697	-0.032101
F92	F	1.226231	0.363303	0.467899
F93	F	0.333139	0.275296	0.064872
F94	F	0.833139	0.775296	0.564872
H95	H	0.961765	-0.476432	0.223910
H96	H	1.461765	0.023568	0.723910
F97	F	0.554914	-0.123323	-0.028892
F98	F	1.054914	0.376677	0.471108
F99	F	0.922661	-0.392689	-0.223858
F100	F	1.422661	0.107311	0.276142
H101	H	0.958560	-0.281500	0.152136
H102	H	1.458560	0.218500	0.652136
H103	H	0.929472	-0.566523	-0.116236
H104	H	1.429472	-0.066523	0.383764
