data_functionalizedCrystal
_audit_creation_method	'MofGen! by Chris Wilmer'
_symmetry_space_group_name_H-M	'P1'
_symmetry_Int_Tables_number	1
_symmetry_cell_setting	triclinic
loop_
_symmetry_equiv_pos_as_xyz
  x,y,z
_cell_length_a	16.959454
_cell_length_b	16.959455
_cell_length_c	16.959447
_cell_angle_alpha	90.015228
_cell_angle_beta	89.973264
_cell_angle_gamma	89.985155
loop_
_atom_site_label
_atom_site_type_symbol
_atom_site_fract_x
_atom_site_fract_y
_atom_site_fract_z
Zn1	Zn	-0.314776	-1.208384	-0.446947
Zn2	Zn	-0.446969	-1.208306	-0.314777
Zn3	Zn	-0.314796	-1.076212	-0.314783
Zn4	Zn	-0.446905	-1.076177	-0.446914
O5	O	-0.380861	-1.142270	-0.380855
O6	O	-0.332330	-1.318984	-0.429427
O7	O	-0.429471	-1.190766	-0.204167
O8	O	-0.204183	-1.093792	-0.332331
O9	O	-0.429452	-1.318927	-0.332322
O10	O	-0.204168	-1.190898	-0.429432
O11	O	-0.332364	-1.093717	-0.204171
O12	O	-0.332302	-0.965597	-0.332299
O13	O	-0.429342	-1.093732	-0.557529
O14	O	-0.429362	-0.965571	-0.429374
O15	O	-0.332268	-1.190864	-0.557554
O16	O	-0.557571	-1.190732	-0.332289
O17	O	-0.557524	-1.093657	-0.429369
C18	C	-0.586228	-1.142204	-0.380842
C19	C	-0.674084	-1.142248	-0.380863
C20	C	-0.380828	-0.936904	-0.380834
C21	C	-0.380832	-0.849047	-0.380844
C22	C	-1.045565	-1.091796	-0.431399
C23	C	-1.045554	-1.192963	-0.330392
C24	C	-0.963008	-1.192936	-0.330384
C25	C	-0.921737	-1.142337	-0.380885
C26	C	-0.963012	-1.091765	-0.431392
C27	C	-0.921728	-1.243501	-0.279872
C28	C	-0.839177	-1.243475	-0.279862
C29	C	-0.797904	-1.192879	-0.330367
C30	C	-0.839184	-1.142306	-0.380877
C31	C	-0.797912	-1.091707	-0.431377
C32	C	-0.839190	-1.041137	-0.481892
C33	C	-0.921739	-1.041170	-0.481897
C34	C	-0.715356	-1.192847	-0.330362
C35	C	-0.715359	-1.091676	-0.431370
C36	C	-0.330256	-0.477560	-0.330403
C37	C	-0.431482	-0.477582	-0.431332
C38	C	-0.431473	-0.560128	-0.431328
C39	C	-0.380856	-0.601394	-0.380861
C40	C	-0.330248	-0.560114	-0.330396
C41	C	-0.482087	-0.601414	-0.481786
C42	C	-0.482081	-0.683965	-0.481784
C43	C	-0.431460	-0.725233	-0.431320
C44	C	-0.380848	-0.683948	-0.380854
C45	C	-0.330231	-0.725213	-0.330386
C46	C	-0.279615	-0.683930	-0.279924
C47	C	-0.279626	-0.601381	-0.279932
C48	C	-0.431449	-0.807781	-0.431311
C49	C	-0.330223	-0.807767	-0.330379
C50	C	-0.174693	-1.142358	-0.380886
C51	C	-0.086837	-1.142395	-0.380899
C52	C	-0.380796	-1.142303	-0.587024
C53	C	-0.380768	-1.142317	-0.674880
C54	C	-0.380886	-0.348438	-0.380873
C55	C	-0.380873	-0.436295	-0.380871
C56	C	-0.431227	-1.091839	-1.046346
C57	C	-0.330143	-1.192983	-1.046367
C58	C	-0.330159	-1.192962	-0.963821
C59	C	-0.380711	-1.142380	-0.922533
C60	C	-0.431247	-1.091818	-0.963792
C61	C	-0.279631	-1.243529	-0.922556
C62	C	-0.279646	-1.243510	-0.840005
C63	C	-0.330195	-1.192923	-0.798716
C64	C	-0.380731	-1.142359	-0.839980
C65	C	-0.431283	-1.091776	-0.798693
C66	C	-0.481817	-1.041207	-0.839955
C67	C	-0.481795	-1.041231	-0.922503
C68	C	-0.330216	-1.192899	-0.716168
C69	C	-0.431303	-1.091755	-0.716139
C70	C	-0.380870	-1.142282	-0.175489
C71	C	-0.380675	-1.142422	-0.087633
H72	H	-0.805578	-0.999936	-0.523006
C73	C	-0.531230	-0.991786	-0.724411
C74	C	-0.486880	-1.036159	-0.670759
H75	H	-0.565545	-0.957470	-0.696393
H76	H	-0.496778	-0.961569	-0.756607
H77	H	-0.561454	-1.026229	-0.756609
H78	H	-0.456652	-1.001716	-0.638564
H79	H	-0.521337	-1.066378	-0.638549
C80	C	-0.582130	-0.609721	-0.581564
C81	C	-0.537710	-0.556056	-0.537271
H82	H	-0.616469	-0.581715	-0.615820
H83	H	-0.547725	-0.641943	-0.611841
H84	H	-0.612333	-0.641893	-0.547066
H85	H	-0.507502	-0.523888	-0.571768
H86	H	-0.572120	-0.523821	-0.506991
H87	H	-0.289000	-0.841360	-0.289286
C88	C	-0.493177	-0.776825	-0.588086
C89	C	-0.537709	-0.729341	-0.537258
H90	H	-0.527519	-0.804841	-0.622332
H91	H	-0.458786	-0.744632	-0.618375
H92	H	-0.463035	-0.813213	-0.558022
H93	H	-0.567846	-0.692948	-0.567323
H94	H	-0.572113	-0.761536	-0.506967
H95	H	-0.681751	-1.234016	-0.289230
C96	C	-0.268506	-0.776734	-0.173617
C97	C	-0.223981	-0.729299	-0.224450
H98	H	-0.234159	-0.804748	-0.139375
H99	H	-0.302895	-0.744509	-0.143325
H100	H	-0.298649	-0.813124	-0.203679
H101	H	-0.193842	-0.692904	-0.194388
H102	H	-0.189578	-0.761526	-0.254744
C103	C	-1.070924	-1.053221	-0.565215
C104	C	-1.090935	-1.036214	-0.486924
H105	H	-1.098939	-1.018909	-0.599493
H106	H	-1.015861	-1.045956	-0.572429
H107	H	-1.084415	-1.106330	-0.576822
H108	H	-1.077439	-0.983107	-0.475316
H109	H	-1.146010	-1.043472	-0.479707
C110	C	-0.442556	-0.900652	-0.537603
C111	C	-0.487080	-0.853163	-0.486771
H112	H	-0.476903	-0.928671	-0.571840
H113	H	-0.408170	-0.868462	-0.567900
H114	H	-0.412409	-0.937037	-0.507539
H115	H	-0.517222	-0.816774	-0.516835
H116	H	-0.521479	-0.885356	-0.456471
C117	C	-0.268518	-0.508508	-0.173640
C118	C	-0.223994	-0.555997	-0.224470
H119	H	-0.234172	-0.480491	-0.139401
H120	H	-0.298663	-0.472129	-0.203699
H121	H	-0.302907	-0.540704	-0.143339
H122	H	-0.189609	-0.523800	-0.254776
H123	H	-0.193835	-0.592381	-0.194408
C124	C	-0.526650	-0.996359	-1.049034
C125	C	-0.537341	-0.985653	-0.967860
H126	H	-0.560946	-0.962052	-1.077036
H127	H	-0.473543	-0.984817	-1.062570
H128	H	-0.538226	-1.049470	-1.062549
H129	H	-0.525760	-0.932544	-0.954344
H130	H	-0.590461	-0.997190	-0.954319
C131	C	-0.285237	-1.237927	-1.172917
C132	C	-0.274581	-1.248584	-1.091748
H133	H	-0.250930	-1.272252	-1.200933
H134	H	-0.338339	-1.249477	-1.186424
H135	H	-0.273656	-1.184825	-1.186441
H136	H	-0.286168	-1.301685	-1.078222
H137	H	-0.221467	-1.237040	-1.078235
H138	H	-0.472696	-0.443979	-0.472416
H139	H	-0.681761	-1.050475	-0.472497
C140	C	-0.947119	-1.002589	-0.615710
C141	C	-0.967116	-0.985586	-0.537415
H142	H	-0.975140	-0.968276	-0.649981
H143	H	-0.892057	-0.995324	-0.622933
H144	H	-0.960611	-1.055697	-0.627317
H145	H	-0.953618	-0.932479	-0.525806
H146	H	-1.022190	-0.992844	-0.530188
C147	C	-0.145791	-1.282103	-0.948006
C148	C	-0.224070	-1.299127	-0.967941
H149	H	-0.111491	-1.316432	-0.976026
H150	H	-0.134215	-1.229008	-0.961535
H151	H	-0.138578	-1.289336	-0.892938
H152	H	-0.231284	-1.291888	-1.023009
H153	H	-0.235650	-1.352234	-0.954418
H154	H	-0.522980	-1.000026	-0.806328
C155	C	-0.173329	-1.254489	-0.747220
C156	C	-0.224081	-1.299078	-0.794660
H157	H	-0.139024	-1.288792	-0.719225
H158	H	-0.143101	-1.220072	-0.779440
H159	H	-0.203446	-1.224372	-0.710813
H160	H	-0.193965	-1.329191	-0.831071
H161	H	-0.254312	-1.333509	-0.762437
H162	H	-1.079162	-1.234154	-0.289272
C163	C	-0.223924	-1.203910	-0.623355
C164	C	-0.274680	-1.248480	-0.670809
H165	H	-0.189640	-1.238227	-0.595349
H166	H	-0.193673	-1.169505	-0.655566
H167	H	-0.254039	-1.173781	-0.586957
H168	H	-0.244565	-1.278604	-0.707211
H169	H	-0.304934	-1.282898	-0.638594
H170	H	-0.955337	-1.284690	-0.238752
H171	H	-0.805573	-1.284651	-0.238731
H172	H	-0.289043	-0.443944	-0.289320
H173	H	-0.472367	-1.050665	-1.079945
