data_functionalizedCrystal
_audit_creation_method	'MofGen! by Chris Wilmer'
_symmetry_space_group_name_H-M	'P1'
_symmetry_Int_Tables_number	1
_symmetry_cell_setting	triclinic
loop_
_symmetry_equiv_pos_as_xyz
  x,y,z
_cell_length_a	19.188933
_cell_length_b	19.188924
_cell_length_c	12.376457
_cell_angle_alpha	101.235232
_cell_angle_beta	78.746972
_cell_angle_gamma	83.143767
loop_
_atom_site_label
_atom_site_type_symbol
_atom_site_fract_x
_atom_site_fract_y
_atom_site_fract_z
O1	O	0.939568	0.073756	-0.093971
O2	O	1.439568	0.573756	0.406029
O3	O	0.736258	0.085487	-0.093982
O4	O	1.236258	0.585487	0.406018
O5	O	0.843781	-0.022033	-0.093963
O6	O	1.343781	0.477967	0.406037
O7	O	0.832045	0.181275	-0.093990
O8	O	1.332045	0.681275	0.406010
O9	O	0.816910	0.004811	0.094044
O10	O	1.316910	0.504811	0.594044
O11	O	0.709387	0.112330	0.094025
O12	O	1.209387	0.612330	0.594025
O13	O	0.912697	0.100599	0.094036
O14	O	1.412697	0.600599	0.594036
Zn15	Zn	0.806776	0.110727	0.123881
Zn16	Zn	1.306776	0.610727	0.623881
Zn17	Zn	0.842179	0.075359	-0.123827
Zn18	Zn	1.342179	0.575359	0.376173
O19	O	0.805174	0.208119	0.094017
O20	O	1.305174	0.708119	0.594017
C21	C	0.696812	0.098528	0.000020
C22	C	1.196812	0.598528	0.500020
C23	C	0.619308	0.097386	0.000016
C24	C	1.119308	0.597386	0.500016
C25	C	0.080698	0.074611	-0.102453
C26	C	0.580698	0.574611	0.397547
C27	C	0.153523	0.075678	-0.102458
C28	C	0.653523	0.575678	0.397542
C29	C	0.175293	0.090848	0.000025
C30	C	0.675293	0.590848	0.500025
C31	C	0.124233	0.104933	0.102519
C32	C	0.624233	0.604933	0.602519
C33	C	0.051411	0.103858	0.102521
C34	C	0.551411	0.603858	0.602521
N35	N	0.273410	0.143157	0.076301
N36	N	0.773410	0.643157	0.576301
N37	N	0.342589	0.144179	0.076293
N38	N	0.842589	0.644179	0.576293
C39	C	0.394701	0.094086	0.000026
C40	C	0.894701	0.594086	0.500026
N41	N	0.375023	0.042939	-0.076249
N42	N	0.875023	0.542939	0.423751
N43	N	0.305838	0.041920	-0.076244
N44	N	0.805838	0.541920	0.423756
C45	C	0.254255	0.092015	0.000034
C46	C	0.754255	0.592015	0.500034
C47	C	0.524717	0.081154	-0.102467
C48	C	1.024717	0.581154	0.397533
C49	C	0.597543	0.082218	-0.102467
C50	C	1.097543	0.582218	0.397533
C51	C	0.568250	0.111480	0.102513
C52	C	1.068250	0.611480	0.602513
C53	C	0.495427	0.110409	0.102510
C54	C	0.995427	0.610409	0.602510
C55	C	0.473665	0.095249	0.000017
C56	C	0.973665	0.595249	0.500017
C57	C	0.829966	-0.034622	0.000042
C58	C	1.329966	0.465378	0.500042
C59	C	0.828827	-0.112126	0.000045
C60	C	1.328827	0.387874	0.500045
C61	C	0.842943	-0.163158	-0.102438
C62	C	1.342943	0.336842	0.397562
C63	C	0.841864	-0.235982	-0.102447
C64	C	1.341864	0.264018	0.397553
C65	C	0.826682	-0.257772	0.000033
C66	C	1.326682	0.242228	0.500033
C67	C	0.812561	-0.206730	0.102530
C68	C	1.312561	0.293270	0.602530
C69	C	0.813633	-0.133907	0.102536
C70	C	1.313633	0.366093	0.602536
N71	N	0.853828	-0.366545	0.076309
N72	N	1.353828	0.133455	0.576309
N73	N	0.852813	-0.435725	0.076297
N74	N	1.352813	0.064275	0.576297
C75	C	0.823450	-0.477183	0.000022
C76	C	1.323450	0.022817	0.500022
N77	N	0.795153	-0.446852	-0.076257
N78	N	1.295153	0.053148	0.423743
N79	N	0.796173	-0.377666	-0.076248
N80	N	1.296173	0.122334	0.423752
C81	C	0.825518	-0.336735	0.000038
C82	C	1.325518	0.163265	0.500038
C83	C	0.836396	-0.607179	-0.102477
C84	C	1.336396	-0.107179	0.397523
C85	C	0.835313	-0.680004	-0.102482
C86	C	1.335313	-0.180004	0.397518
C87	C	0.806016	-0.650751	0.102498
C88	C	1.306016	-0.150751	0.602498
C89	C	0.807093	-0.577928	0.102499
C90	C	1.307093	-0.077928	0.602499
C91	C	0.822287	-0.556147	0.000009
C92	C	1.322287	-0.056147	0.500009
C93	C	0.952144	0.087557	0.000031
C94	C	1.452144	0.587557	0.500031
C95	C	1.029649	0.088698	0.000028
C96	C	1.529649	0.588698	0.500028
C97	C	0.818990	0.220708	0.000010
C98	C	1.318990	0.720708	0.500010
C99	C	0.820130	0.298211	-0.000001
C100	C	1.320130	0.798211	0.499999
N101	N	0.782619	0.134863	0.292935
N102	N	1.282619	0.634863	0.792935
N103	N	0.866342	0.051217	-0.292881
N104	N	1.366342	0.551217	0.207119
C105	C	0.922418	-0.004826	0.647945
C106	C	1.422418	0.495174	1.147945
C107	C	0.939322	-0.021719	0.529608
C108	C	1.439322	0.478281	1.029608
C109	C	0.900147	0.017425	0.470434
C110	C	1.400147	0.517425	0.970434
C111	C	0.844067	0.073465	0.529608
C112	C	1.344067	0.573465	1.029608
C113	C	0.827165	0.090364	0.647957
C114	C	1.327165	0.590364	1.147957
C115	C	0.804894	0.112615	0.470446
C116	C	1.304894	0.612615	0.970446
C117	C	0.748813	0.168656	0.529620
C118	C	1.248813	0.668656	1.029620
C119	C	0.731914	0.185551	0.647957
C120	C	1.231914	0.685551	1.147957
C121	C	0.771089	0.146407	0.707131
C122	C	1.271089	0.646407	1.207131
C123	C	0.821796	0.095716	0.352097
C124	C	1.321796	0.595716	0.852097
C125	C	0.726543	0.190906	0.352109
C126	C	1.226543	0.690906	0.852109
C127	C	0.709639	0.207800	0.470446
C128	C	1.209639	0.707800	0.970446
H129	H	0.639110	0.070741	-0.185923
H130	H	1.139110	0.570741	0.314077
H131	H	0.506998	0.068808	-0.185923
H132	H	1.006998	0.568808	0.314077
C133	C	0.795860	-0.230701	0.215258
C134	C	1.295860	0.269299	0.715258
N135	N	0.783277	-0.248755	0.300169
N136	N	1.283277	0.251245	0.800169
H137	H	0.585974	0.123829	0.185956
H138	H	1.085974	0.623829	0.685956
H139	H	0.855312	-0.145429	-0.185895
H140	H	1.355312	0.354571	0.314105
H141	H	0.848764	-0.589444	-0.185932
H142	H	1.348764	-0.089444	0.314068
H143	H	0.141962	0.117283	0.185961
H144	H	0.641962	0.617283	0.685961
H145	H	0.686256	0.231188	0.696137
H146	H	1.186256	0.731188	1.196137
C147	C	0.857389	-0.292125	-0.215191
C148	C	1.357389	0.207875	0.284809
N149	N	0.869081	-0.334410	-0.300110
N150	N	1.369081	0.165590	0.199890
C151	C	0.965504	-0.047876	0.713044
C152	C	1.465504	0.452124	1.213044
N153	N	0.997959	-0.080305	0.762078
N154	N	1.497959	0.419695	1.262078
C155	C	-0.004748	0.119366	0.215263
C156	C	0.495252	0.619366	0.715263
N157	N	-0.047049	0.131051	0.300182
N158	N	0.452951	0.631051	0.800182
H159	H	0.453860	0.121883	0.185961
H160	H	0.953860	0.621883	0.685961
H161	H	0.802135	-0.092355	0.185992
H162	H	1.302135	0.407645	0.685992
H163	H	0.663977	0.253430	0.518640
H164	H	1.163977	0.753430	1.018640
H165	H	0.846805	-0.721554	-0.185939
H166	H	1.346805	-0.221554	0.314061
H167	H	0.793650	-0.668492	0.185939
H168	H	1.293650	-0.168492	0.685939
H169	H	0.795604	-0.536377	0.185952
H170	H	1.295604	-0.036377	0.685952
H171	H	0.195095	0.064210	-0.185913
H172	H	0.695095	0.564210	0.314087
C173	C	0.883479	0.034069	0.287019
C174	C	1.383479	0.534069	0.787019
N175	N	0.929941	-0.012369	0.238004
N176	N	1.429941	0.487631	0.738004
H177	H	0.913913	0.003667	0.374079
H178	H	1.413913	0.503667	0.874079
C179	C	1.001005	-0.083366	0.464525
C180	C	1.501005	0.416634	0.964525
N181	N	1.047466	-0.129803	0.415504
N182	N	1.547466	0.370197	0.915504
H183	H	0.757324	0.160160	0.803491
H184	H	1.257324	0.660160	1.303491
H185	H	0.694644	0.222783	0.303930
H186	H	1.194644	0.722783	0.803930
H187	H	0.062986	0.062263	-0.185911
H188	H	0.562986	0.562263	0.314089
