data_functionalizedCrystal
_audit_creation_method	'MofGen! by Chris Wilmer'
_symmetry_space_group_name_H-M	'P1'
_symmetry_Int_Tables_number	1
_symmetry_cell_setting	triclinic
loop_
_symmetry_equiv_pos_as_xyz
  x,y,z
_cell_length_a	10.685980
_cell_length_b	12.645323
_cell_length_c	10.686685
_cell_angle_alpha	85.648090
_cell_angle_beta	89.659316
_cell_angle_gamma	85.603343
loop_
_atom_site_label
_atom_site_type_symbol
_atom_site_fract_x
_atom_site_fract_y
_atom_site_fract_z
Zn1	Zn	1.956319	-0.748323	0.352404
Zn2	Zn	1.972293	-0.585627	0.562183
Zn3	Zn	1.746524	-0.558580	0.368524
Zn4	Zn	1.762607	-0.750354	0.578169
O5	O	1.859436	-0.660721	0.465320
O6	O	2.133992	-0.737210	0.366795
O7	O	1.942298	-0.433693	0.536549
O8	O	1.760939	-0.571580	0.190855
O9	O	2.145728	-0.617679	0.520919
O10	O	1.915074	-0.710983	0.179012
O11	O	1.776428	-0.413821	0.394269
O12	O	1.573104	-0.573550	0.409770
O13	O	1.788349	-0.898431	0.548165
O14	O	1.584919	-0.714446	0.563796
O15	O	1.930668	-0.896939	0.382297
O16	O	1.957893	-0.619648	0.739834
O17	O	1.803838	-0.740672	0.751579
C18	C	1.533493	-0.641284	0.490268
C19	C	1.394055	-0.632996	0.500971
C20	C	1.859521	-0.937225	0.465216
C21	C	1.859557	-1.055055	0.465172
C22	C	1.769689	-1.223508	0.569086
C23	C	1.769981	-1.100997	0.569544
C24	C	1.994497	-1.109936	0.490917
C25	C	1.994010	-1.232545	0.491563
C26	C	1.815693	-1.211018	0.334877
C27	C	1.812805	-1.088291	0.335899
C28	C	2.186652	-0.680235	0.440276
C29	C	2.326092	-0.688550	0.429603
C30	C	1.884378	-0.683341	0.791217
C31	C	1.895163	-0.693060	0.930628
C32	C	1.859416	-0.385290	0.465328
C33	C	1.859596	-0.267451	0.465000
C34	C	1.834431	-0.638038	0.138148
C35	C	1.823775	-0.628372	-0.001273
H36	H	1.374579	-0.742452	0.360306
H37	H	2.030035	-1.269596	0.586384
H38	H	1.964540	-0.755873	0.978984
H39	H	1.345561	-0.579084	0.570264
H40	H	1.670237	-1.063500	0.554605
H41	H	1.754411	-0.565555	0.950377
H42	H	1.669672	-1.245584	0.554385
H43	H	1.799236	-1.262431	0.665163
H44	H	1.799791	-1.079842	0.666220
H45	H	2.063815	-1.262010	0.418494
H46	H	2.030933	-1.087647	0.584685
H47	H	2.063724	-1.080499	0.417059
H48	H	1.718470	-1.234012	0.309434
H49	H	1.713451	-1.051521	0.316298
H50	H	1.872693	-1.056316	0.255064
H51	H	1.881053	-1.239250	0.257453
