data_functionalizedCrystal
_audit_creation_method	'MofGen! by Chris Wilmer'
_symmetry_space_group_name_H-M	'P1'
_symmetry_Int_Tables_number	1
_symmetry_cell_setting	triclinic
loop_
_symmetry_equiv_pos_as_xyz
  x,y,z
_cell_length_a	25.639242
_cell_length_b	25.639240
_cell_length_c	12.759393
_cell_angle_alpha	90.044235
_cell_angle_beta	90.030455
_cell_angle_gamma	90.028283
loop_
_atom_site_label
_atom_site_type_symbol
_atom_site_fract_x
_atom_site_fract_y
_atom_site_fract_z
Zn1	Zn	0.799289	-0.208182	0.594224
Zn2	Zn	1.299289	0.291818	1.094224
Zn3	Zn	0.799209	-0.295629	0.418505
Zn4	Zn	1.299209	0.204371	0.918505
Zn5	Zn	0.711853	-0.208203	0.418527
Zn6	Zn	1.211853	0.291797	0.918527
Zn7	Zn	0.711820	-0.295582	0.594110
Zn8	Zn	1.211820	0.204418	1.094110
O9	O	0.755543	-0.251899	0.506341
O10	O	1.255543	0.248101	1.006341
O11	O	0.872444	-0.219794	0.570953
O12	O	1.372444	0.280206	1.070953
O13	O	0.787602	-0.284060	0.271487
O14	O	1.287602	0.215940	0.771487
O15	O	0.723499	-0.135035	0.441890
O16	O	1.223499	0.364965	0.941890
O17	O	0.872385	-0.284040	0.441853
O18	O	1.372385	0.215960	0.941853
O19	O	0.787738	-0.135020	0.570974
O20	O	1.287738	0.364980	1.070974
O21	O	0.723421	-0.219828	0.271503
O22	O	1.223421	0.280172	0.771503
O23	O	0.638683	-0.219782	0.441780
O24	O	1.138683	0.280218	0.941780
O25	O	0.723443	-0.283960	0.741146
O26	O	1.223443	0.216040	1.241146
O27	O	0.638659	-0.283979	0.570780
O28	O	1.138659	0.216021	1.070780
O29	O	0.787706	-0.219748	0.741230
O30	O	1.287706	0.280252	1.241230
O31	O	0.787569	-0.368788	0.441743
O32	O	1.287569	0.131212	0.941743
O33	O	0.723365	-0.368753	0.570759
O34	O	1.223365	0.131247	1.070759
C35	C	0.619700	-0.251878	0.506270
C36	C	1.119700	0.248122	1.006270
C37	C	0.561586	-0.251882	0.506265
C38	C	1.061586	0.248118	1.006265
C39	C	0.201219	-0.285382	0.573448
C40	C	0.701219	0.214618	1.073448
C41	C	0.146615	-0.285385	0.573465
C42	C	0.646615	0.214615	1.073465
O43	O	0.118375	-0.313843	0.630526
O44	O	0.618375	0.186157	1.130526
N45	N	0.119304	-0.251913	0.506410
N46	N	0.619304	0.248087	1.006410
C47	C	0.146600	-0.218432	0.439342
C48	C	0.646600	0.281568	0.939342
O49	O	0.118355	-0.189961	0.382309
O50	O	0.618355	0.310039	0.882309
C51	C	0.201203	-0.218427	0.439331
C52	C	0.701203	0.281573	0.939331
C53	C	0.228511	-0.251905	0.506383
C54	C	0.728511	0.248095	1.006383
C55	C	0.228528	-0.318857	0.640495
C56	C	0.728528	0.181143	1.140495
C57	C	0.283128	-0.318854	0.640477
C58	C	0.783128	0.181146	1.140477
C59	C	0.310421	-0.285377	0.573412
C60	C	0.810421	0.214623	1.073412
C61	C	0.283112	-0.251902	0.506365
C62	C	0.783112	0.248098	1.006365
C63	C	0.228498	-0.184943	0.372269
C64	C	0.728498	0.315057	0.872269
C65	C	0.283105	-0.184940	0.372265
C66	C	0.783105	0.315060	0.872265
C67	C	0.310413	-0.218418	0.439317
C68	C	0.810413	0.281582	0.939317
C69	C	0.365005	-0.218422	0.439281
C70	C	0.865005	0.281578	0.939281
N71	N	0.392316	-0.251894	0.506336
N72	N	0.892316	0.248106	1.006336
C73	C	0.365024	-0.285371	0.573401
C74	C	0.865024	0.214629	1.073401
C75	C	0.031929	-0.218445	0.439370
C76	C	0.531929	0.281555	0.939370
C77	C	-0.022673	-0.218453	0.439375
C78	C	0.477327	0.281547	0.939375
C79	C	-0.022654	-0.285406	0.573499
C80	C	0.477346	0.214594	1.073499
C81	C	0.031949	-0.285400	0.573489
C82	C	0.531949	0.214600	1.073489
C83	C	0.059240	-0.251917	0.506425
C84	C	0.559240	0.248083	1.006425
C85	C	0.479689	-0.285364	0.573357
C86	C	0.979689	0.214636	1.073357
C87	C	0.534294	-0.285360	0.573330
C88	C	1.034294	0.214640	1.073330
C89	C	0.534270	-0.218405	0.439210
C90	C	1.034270	0.281595	0.939210
C91	C	0.479670	-0.218411	0.439233
C92	C	0.979670	0.281589	0.939233
C93	C	0.452380	-0.251892	0.506315
C94	C	0.952380	0.248108	1.006315
O95	O	0.393279	-0.189977	0.382252
O96	O	0.893279	0.310023	0.882252
O97	O	0.393275	-0.313833	0.630435
O98	O	0.893275	0.186167	1.130435
C99	C	0.755469	-0.387741	0.506259
C100	C	1.255469	0.112259	1.006259
C101	C	0.755485	-0.445856	0.506259
C102	C	1.255485	0.054144	1.006259
C103	C	0.789009	-0.806172	0.573677
C104	C	1.289009	-0.306172	1.073677
C105	C	0.789024	-0.860777	0.573698
C106	C	1.289024	-0.360777	1.073698
O107	O	0.817439	-0.888974	0.630934
O108	O	1.317439	-0.388974	1.130934
N109	N	0.755615	-0.888138	0.506443
N110	N	1.255615	-0.388138	1.006443
C111	C	0.722185	-0.860892	0.439170
C112	C	1.222185	-0.360892	0.939170
O113	O	0.693770	-0.889179	0.381967
O114	O	1.193770	-0.389179	0.881967
C115	C	0.722168	-0.806289	0.439154
C116	C	1.222168	-0.306289	0.939154
C117	C	0.755582	-0.778930	0.506406
C118	C	1.255582	-0.278930	1.006406
C119	C	0.822420	-0.778814	0.640924
C120	C	1.322420	-0.278814	1.140924
C121	C	0.822406	-0.724213	0.640901
C122	C	1.322406	-0.224213	1.140901
C123	C	0.788979	-0.696971	0.573631
C124	C	1.288979	-0.196971	1.073631
C125	C	0.755568	-0.724330	0.506383
C126	C	1.255568	-0.224330	1.006383
C127	C	0.688735	-0.779044	0.371887
C128	C	1.188735	-0.279044	0.871887
C129	C	0.688720	-0.724437	0.371878
C130	C	1.188720	-0.224437	0.871878
C131	C	0.722135	-0.697078	0.439130
C132	C	1.222135	-0.197078	0.939130
C133	C	0.722126	-0.642487	0.439090
C134	C	1.222126	-0.142487	0.939090
N135	N	0.755535	-0.615126	0.506345
N136	N	1.255535	-0.115126	1.006345
C137	C	0.788961	-0.642368	0.573615
C138	C	1.288961	-0.142368	1.073615
C139	C	0.722224	-0.975563	0.439208
C140	C	1.222224	-0.475563	0.939208
C141	C	0.722244	-1.030165	0.439217
C142	C	1.222244	-0.530165	0.939217
C143	C	0.789083	-1.030046	0.573747
C144	C	1.289083	-0.530046	1.073747
C145	C	0.789065	-0.975442	0.573732
C146	C	1.289065	-0.475442	1.073732
C147	C	0.755633	-0.948201	0.506463
C148	C	1.255633	-0.448201	1.006463
C149	C	0.788928	-0.527703	0.573561
C150	C	1.288928	-0.027703	1.073561
C151	C	0.788912	-0.473097	0.573529
C152	C	1.288912	0.026903	1.073529
C153	C	0.722072	-0.473222	0.439004
C154	C	1.222072	0.026778	0.939004
C155	C	0.722090	-0.527822	0.439031
C156	C	1.222090	-0.027822	0.939031
C157	C	0.755520	-0.555061	0.506319
C158	C	1.255520	-0.055061	1.006319
O159	O	0.693724	-0.614255	0.381886
O160	O	1.193724	-0.114255	0.881886
O161	O	0.817368	-0.614074	0.630819
O162	O	1.317368	-0.114074	1.130819
C163	C	0.891916	-0.251920	0.506414
C164	C	1.391916	0.248080	1.006414
C165	C	0.950030	-0.251929	0.506444
C166	C	1.450030	0.248071	1.006444
C167	C	0.755580	-0.251846	0.780375
C168	C	1.255580	0.248154	1.280375
C169	C	0.755595	-0.251824	0.897152
C170	C	1.255595	0.248176	1.397152
C171	C	0.755631	-0.115526	0.506447
C172	C	1.255631	0.384474	1.006447
C173	C	0.755669	-0.057412	0.506492
C174	C	1.255669	0.442588	1.006492
C175	C	0.755537	-0.251914	0.233374
C176	C	1.255537	0.248086	0.733374
C177	C	0.755622	-0.251789	0.116598
C178	C	1.255622	0.248211	0.616598
C179	C	0.789062	-0.218385	0.952059
C180	C	1.289062	0.281615	1.452059
C181	C	0.789074	-0.218366	1.061783
C182	C	1.289074	0.281634	1.561783
C183	C	0.722152	-0.285229	1.061683
C184	C	1.222152	0.214771	1.561683
C185	C	0.722137	-0.285245	0.951961
C186	C	1.222137	0.214755	1.451961
C187	C	0.822520	-0.184964	0.897250
C188	C	1.322520	0.315036	1.397250
C189	C	0.855989	-0.151524	0.952157
C190	C	1.355989	0.348476	1.452157
C191	C	0.856002	-0.151505	1.061881
C192	C	1.356002	0.348495	1.561881
C193	C	0.822545	-0.184927	1.116698
C194	C	1.322545	0.315073	1.616698
H195	H	-0.044885	-0.312663	0.628111
H196	H	0.455115	0.187337	1.128111
H197	H	0.556501	-0.191150	0.384604
H198	H	1.056501	0.308850	0.884604
H199	H	0.849613	-0.701941	0.695666
H200	H	1.349613	-0.201941	1.195666
N201	N	0.312535	-0.148822	0.299931
N202	N	0.812535	0.351178	0.799931
H203	H	0.303003	-0.156897	0.224835
H204	H	0.803003	0.343103	0.724835
H205	H	0.351262	-0.153911	0.310177
H206	H	0.851262	0.346089	0.810177
H207	H	0.849640	-0.800988	0.695710
H208	H	1.349640	-0.300988	1.195710
N209	N	0.825104	-0.945936	0.646268
N210	N	1.325104	-0.445936	1.146268
H211	H	0.846281	-0.971484	0.688880
H212	H	1.346281	-0.471484	1.188880
H213	H	0.803802	-0.923278	0.694841
H214	H	1.303802	-0.423278	1.194841
N215	N	0.450212	-0.182310	0.366903
N216	N	0.950212	0.317690	0.866903
H217	H	0.475789	-0.161104	0.324411
H218	H	0.975789	0.338896	0.824411
H219	H	0.427584	-0.158138	0.409771
H220	H	0.927584	0.341862	0.909771
H221	H	0.556526	-0.312623	0.627932
H222	H	1.056526	0.187377	1.127932
N223	N	0.686062	-0.321269	1.120801
N224	N	1.186062	0.178731	1.620801
H225	H	0.691149	-0.316183	1.198641
H226	H	1.191149	0.183817	1.698641
H227	H	0.694166	-0.358616	1.101597
H228	H	1.194166	0.141384	1.601597
H229	H	0.816124	-0.450824	0.628294
H230	H	1.316124	0.049176	1.128294
H231	H	0.457476	-0.312626	0.627984
H232	H	0.957476	0.187374	1.127984
H233	H	0.822551	-0.184902	1.206043
H234	H	1.322551	0.315098	1.706043
H235	H	0.816146	-0.549875	0.628360
H236	H	1.316146	-0.049875	1.128360
N237	N	0.825135	-1.059423	0.646326
N238	N	1.325135	-0.559423	1.146326
H239	H	0.849386	-1.082082	0.603704
H240	H	1.349386	-0.582082	1.103704
H241	H	0.803840	-1.082039	0.694962
H242	H	1.303840	-0.582039	1.194962
N243	N	0.686170	-0.946187	0.366630
N244	N	1.186170	-0.446187	0.866630
H245	H	0.707424	-0.923539	0.317980
H246	H	1.207424	-0.423539	0.817980
H247	H	0.661924	-0.923562	0.409328
H248	H	1.161924	-0.423562	0.909328
H249	H	0.695040	-1.052436	0.384443
H250	H	1.195040	-0.552436	0.884443
H251	H	0.305358	-0.346115	0.695080
H252	H	0.805358	0.153885	1.195080
N253	N	0.061363	-0.182329	0.367033
N254	N	0.561363	0.317671	0.867033
H255	H	0.035772	-0.161128	0.324562
H256	H	0.535772	0.338872	0.824562
H257	H	0.083995	-0.203577	0.318320
H258	H	0.583995	0.296423	0.818320
H259	H	0.206313	-0.346119	0.695114
H260	H	0.706313	0.153881	1.195114
N261	N	0.061401	-0.321509	0.645807
N262	N	0.561401	0.178491	1.145807
H263	H	0.035821	-0.342717	0.688288
H264	H	0.535821	0.157283	1.188288
H265	H	0.084079	-0.300254	0.694511
H266	H	0.584079	0.199746	1.194511
H267	H	-0.044903	-0.191197	0.384764
H268	H	0.455097	0.308803	0.884764
H269	H	0.206273	-0.157683	0.317666
H270	H	0.706273	0.342317	0.817666
H271	H	0.883251	-0.124272	1.106584
H272	H	1.383251	0.375728	1.606584
N273	N	0.892079	-0.115482	0.893042
N274	N	1.392079	0.384518	1.393042
H275	H	0.886997	-0.120571	0.815201
H276	H	1.386997	0.379429	1.315201
H277	H	0.929413	-0.123633	0.912248
H278	H	1.429413	0.376367	1.412248
H279	H	0.661526	-0.801310	0.317123
H280	H	1.161526	-0.301310	0.817123
N281	N	0.652660	-0.695056	0.299325
N282	N	1.152660	-0.195056	0.799325
H283	H	0.631497	-0.720676	0.256729
H284	H	1.131497	-0.220676	0.756729
H285	H	0.673947	-0.672408	0.250737
H286	H	1.173947	-0.172408	0.750737
N287	N	0.822508	-0.184987	0.778906
N288	N	1.322508	0.315013	1.278906
H289	H	0.848781	-0.158743	0.752514
H290	H	1.348781	0.341257	1.252514
H291	H	0.786628	-0.175389	0.752545
H292	H	1.286628	0.324611	1.252545
H293	H	0.694878	-0.312465	0.907254
H294	H	1.194878	0.187535	1.407254
H295	H	0.694858	-0.451033	0.384230
H296	H	1.194858	0.048967	0.884230
N297	N	0.686057	-0.557334	0.366486
N298	N	1.186057	-0.057334	0.866486
H299	H	0.664881	-0.531789	0.323864
H300	H	1.164881	-0.031789	0.823864
H301	H	0.661854	-0.579985	0.409210
H302	H	1.161854	-0.079985	0.909210
