data_functionalizedCrystal
_audit_creation_method	'MofGen! by Chris Wilmer'
_symmetry_space_group_name_H-M	'P1'
_symmetry_Int_Tables_number	1
_symmetry_cell_setting	triclinic
loop_
_symmetry_equiv_pos_as_xyz
  x,y,z
_cell_length_a	29.839131
_cell_length_b	13.897449
_cell_length_c	13.897441
_cell_angle_alpha	89.978743
_cell_angle_beta	89.965828
_cell_angle_gamma	90.042247
loop_
_atom_site_label
_atom_site_type_symbol
_atom_site_fract_x
_atom_site_fract_y
_atom_site_fract_z
Zn1	Zn	-0.178833	1.474523	-0.545419
Zn2	Zn	-0.253967	1.474356	-0.384108
Zn3	Zn	-0.178853	1.313218	-0.384130
Zn4	Zn	-0.253938	1.313127	-0.545353
O5	O	-0.216398	1.393806	-0.464752
O6	O	-0.188804	1.609483	-0.524039
O7	O	-0.244023	1.452949	-0.249129
O8	O	-0.115983	1.334724	-0.405562
O9	O	-0.244004	1.609360	-0.405524
O10	O	-0.115969	1.453234	-0.524061
O11	O	-0.188837	1.334562	-0.249145
O12	O	-0.188809	1.178225	-0.405498
O13	O	-0.243955	1.334569	-0.680343
O14	O	-0.243974	1.178158	-0.523948
O15	O	-0.188776	1.453145	-0.680392
O16	O	-0.316830	1.452861	-0.405460
O17	O	-0.316809	1.334407	-0.523926
C18	C	-0.216391	1.143192	-0.464719
C19	C	-0.216399	1.035978	-0.464727
C20	C	-0.216400	0.948908	-0.464743
C21	C	-0.216404	0.839676	-0.464773
C22	C	-0.333120	1.393632	-0.464705
C23	C	-0.383055	1.393646	-0.464716
C24	C	-0.692697	1.455598	-0.403157
C25	C	-0.880370	1.455717	-0.403195
O26	O	-0.904633	1.508252	-0.350818
N27	N	-0.903840	1.394006	-0.464825
C28	C	-0.880389	1.332266	-0.526455
O29	O	-0.904658	1.279788	-0.578883
C30	C	-0.692717	1.332153	-0.526422
C31	C	-0.669249	1.393860	-0.464780
C32	C	-0.669229	1.517301	-0.341522
C33	C	-0.622313	1.517267	-0.341509
C34	C	-0.598866	1.455530	-0.403132
C35	C	-0.622334	1.393826	-0.464768
C36	C	-0.669267	1.270418	-0.588056
C37	C	-0.622346	1.270397	-0.588044
C38	C	-0.598878	1.332105	-0.526403
C39	C	-0.551971	1.332055	-0.526379
N40	N	-0.528500	1.393765	-0.464748
C41	C	-0.551948	1.455503	-0.403125
C42	C	-0.978920	1.332329	-0.526467
C43	C	-1.025837	1.332356	-0.526474
C44	C	-1.025815	1.455808	-0.403215
C45	C	-0.978896	1.455775	-0.403203
C46	C	-0.955449	1.394039	-0.464836
C47	C	-0.453422	1.455426	-0.403103
C48	C	-0.406503	1.455383	-0.403093
C49	C	-0.406529	1.331935	-0.526356
C50	C	-0.453445	1.331974	-0.526362
C51	C	-0.476890	1.393727	-0.464733
O52	O	-0.527678	1.279555	-0.578735
O53	O	-0.527671	1.507989	-0.350720
C54	C	-0.739612	1.455632	-0.403170
C55	C	-0.763080	1.393929	-0.464805
C56	C	-0.739632	1.332191	-0.526429
C57	C	-0.809998	1.393956	-0.464813
C58	C	-0.833445	1.455693	-0.403189
C59	C	-0.809975	1.517403	-0.341559
C60	C	-0.763060	1.517369	-0.341547
C61	C	-0.763103	1.270481	-0.588059
C62	C	-0.810018	1.270519	-0.588066
C63	C	-0.833466	1.332257	-0.526442
C64	C	-0.099220	1.394008	-0.464822
C65	C	-0.049285	1.394093	-0.464851
C66	C	-0.216360	1.393865	-0.716346
C67	C	-0.216344	1.393891	-0.823560
C68	C	-0.216405	1.645399	-0.464787
C69	C	-0.216408	1.752613	-0.464801
C70	C	-0.216331	1.393910	-0.910629
C71	C	-0.216311	1.393938	-1.019862
C72	C	-0.216403	1.393803	-0.214138
C73	C	-0.216293	1.393965	-0.106925
H74	H	-0.387396	1.505633	-0.352894
N75	N	-0.477359	1.518508	-0.340143
N76	N	-0.456393	1.573588	-0.285118
H77	H	-0.473298	1.618135	-0.240646
N78	N	-0.739154	1.207403	-0.650995
N79	N	-0.713017	1.145933	-0.616995
H80	H	-0.696104	1.101378	-0.661444
H81	H	-0.743956	1.567617	-0.291353
N82	N	-0.598352	1.580308	-0.278539
N83	N	-0.619301	1.635423	-0.223530
H84	H	-0.602381	1.679951	-0.179054
N85	N	-0.693168	1.580381	-0.278568
N86	N	-0.672200	1.635465	-0.223549
H87	H	-0.689104	1.680016	-0.179080
N88	N	-0.954926	1.518823	-0.340256
N89	N	-0.928708	1.580262	-0.374245
H90	H	-0.911781	1.624794	-0.329787
N91	N	-0.598396	1.207346	-0.651015
N92	N	-0.603605	1.213705	-0.740028
H93	H	-0.586691	1.169176	-0.784502
H94	H	-0.472553	1.281729	-0.576559
H95	H	-0.387431	1.281666	-0.576526
N96	N	-0.833938	1.580455	-0.278611
N97	N	-0.875829	1.580464	-0.278639
H98	H	-0.892755	1.624993	-0.234187
N99	N	-0.954971	1.269250	-0.589412
N100	N	-0.928831	1.207783	-0.555418
H101	H	-0.911918	1.163232	-0.599871
H102	H	-1.044914	1.506077	-0.353039
N103	N	-0.833987	1.207494	-0.651048
N104	N	-0.860126	1.241420	-0.712559
H105	H	-0.877053	1.196916	-0.757045
H106	H	-1.044941	1.282098	-0.576660
N107	N	-0.693224	1.207378	-0.651028
N108	N	-0.672274	1.152272	-0.706044
H109	H	-0.689192	1.107746	-0.750524
