data_functionalizedCrystal
_audit_creation_method	'MofGen! by Chris Wilmer'
_symmetry_space_group_name_H-M	'P1'
_symmetry_Int_Tables_number	1
_symmetry_cell_setting	triclinic
loop_
_symmetry_equiv_pos_as_xyz
  x,y,z
_cell_length_a	12.827892
_cell_length_b	12.759401
_cell_length_c	12.759401
_cell_angle_alpha	89.994768
_cell_angle_beta	90.008995
_cell_angle_gamma	89.983083
loop_
_atom_site_label
_atom_site_type_symbol
_atom_site_fract_x
_atom_site_fract_y
_atom_site_fract_z
Zn1	Zn	-0.416154	-1.606098	0.594025
Zn2	Zn	0.083846	-1.106098	1.094025
Zn3	Zn	-0.590868	-1.606036	0.418347
Zn4	Zn	-0.090868	-1.106036	0.918347
Zn5	Zn	-0.416147	-1.430445	0.418360
Zn6	Zn	0.083853	-0.930445	0.918360
Zn7	Zn	-0.590859	-1.430387	0.593984
Zn8	Zn	-0.090859	-0.930387	1.093984
O9	O	-0.503507	-1.518242	0.506179
O10	O	-0.003507	-1.018242	1.006179
O11	O	-0.439338	-1.753111	0.570732
O12	O	0.060662	-1.253111	1.070732
O13	O	-0.567692	-1.582741	0.271328
O14	O	-0.067692	-1.082741	0.771328
O15	O	-0.269912	-1.453797	0.441685
O16	O	0.230088	-0.953797	0.941685
O17	O	-0.567699	-1.753065	0.441663
O18	O	-0.067699	-1.253065	0.941663
O19	O	-0.269917	-1.582848	0.570745
O20	O	0.230083	-1.082848	1.070745
O21	O	-0.439325	-1.453736	0.271337
O22	O	0.060675	-0.953736	0.771337
O23	O	-0.439315	-1.283417	0.441646
O24	O	0.060685	-0.783417	0.941646
O25	O	-0.567683	-1.453697	0.741011
O26	O	-0.067683	-0.953697	1.241011
O27	O	-0.567675	-1.283374	0.570676
O28	O	-0.067675	-0.783374	1.070676
O29	O	-0.439328	-1.582792	0.741040
O30	O	0.060672	-1.082792	1.241040
O31	O	-0.737103	-1.582685	0.441624
O32	O	-0.237103	-1.082685	0.941624
O33	O	-0.737096	-1.453636	0.570663
O34	O	-0.237096	-0.953636	1.070663
C35	C	-0.503494	-1.245274	0.506158
C36	C	-0.003494	-0.745274	1.006158
C37	C	-0.503514	-1.128498	0.506174
C38	C	-0.003514	-0.628498	1.006174
C39	C	-0.775017	-1.518176	0.506161
C40	C	-0.275017	-1.018176	1.006161
C41	C	-0.891170	-1.518244	0.506188
C42	C	-0.391170	-1.018244	1.006188
C43	C	-0.503506	-1.518245	0.780212
C44	C	-0.003506	-1.018245	1.280212
C45	C	-0.503505	-1.518247	0.896989
C46	C	-0.003505	-1.018247	1.396989
C47	C	-0.942924	-1.582177	0.442406
C48	C	-0.442924	-1.082177	0.942406
C49	C	-1.062974	-1.582249	0.442432
C50	C	-0.562974	-1.082249	0.942432
C51	C	-0.230937	-1.518336	0.506221
C52	C	0.269063	-1.018336	1.006221
C53	C	-0.114784	-1.518376	0.506239
C54	C	0.385216	-1.018376	1.006239
C55	C	-0.503521	-1.792275	0.506201
C56	C	-0.003521	-1.292275	1.006201
C57	C	-0.503526	-1.909051	0.506210
C58	C	-0.003526	-1.409051	1.006210
C59	C	-0.570453	-1.073641	0.573255
C60	C	-0.070453	-0.573641	1.073255
C61	C	-0.570457	-0.963917	0.573276
C62	C	-0.070457	-0.463917	1.073276
C63	C	-0.436580	-0.963916	0.439127
C64	C	0.063420	-0.463916	0.939127
C65	C	-0.436572	-1.073638	0.439112
C66	C	0.063428	-0.573638	0.939112
C67	C	-0.436682	-1.585449	1.061599
C68	C	0.063318	-1.085449	1.561599
C69	C	-0.436681	-1.585458	0.951875
C70	C	0.063319	-1.085458	1.451875
C71	C	-0.570341	-1.451029	0.951833
C72	C	-0.070341	-0.951029	1.451833
C73	C	-0.570345	-1.451026	1.061555
C74	C	-0.070345	-0.951026	1.561555
C75	C	-0.503526	-1.518232	1.233212
C76	C	-0.003526	-1.018232	1.733212
C77	C	-0.503510	-1.518234	1.116435
C78	C	-0.003510	-1.018234	1.616435
H79	H	-0.898358	-1.636864	0.387783
H80	H	-0.398358	-1.136864	0.887783
Cl81	Cl	-1.131683	-1.666755	0.358114
Cl82	Cl	-0.631683	-1.166755	0.858114
H83	H	-0.382080	-0.919236	0.384525
H84	H	0.117920	-0.419236	0.884525
Cl85	Cl	-0.352406	-1.142606	0.354782
Cl86	Cl	0.147594	-0.642606	0.854782
Cl87	Cl	-0.352659	-1.669937	1.130588
Cl88	Cl	0.147341	-1.169937	1.630588
Cl89	Cl	-0.352667	-1.669962	0.882943
Cl90	Cl	0.147333	-1.169962	1.382943
H91	H	-0.624754	-1.396309	0.907136
H92	H	-0.124754	-0.896309	1.407136
Cl93	Cl	-1.046081	-1.433856	0.590548
Cl94	Cl	-0.546081	-0.933856	1.090548
H95	H	-0.935738	-1.463566	0.560818
H96	H	-0.435738	-0.963566	1.060818
H97	H	-0.624959	-1.118304	0.627864
H98	H	-0.124959	-0.618304	1.127864
Cl99	Cl	-0.654610	-0.894958	0.657611
Cl100	Cl	-0.154610	-0.394958	1.157611
Cl101	Cl	-0.654372	-1.366528	1.130497
Cl102	Cl	-0.154372	-0.866528	1.630497
