data_functionalizedCrystal
_audit_creation_method	'MofGen! by Chris Wilmer'
_symmetry_space_group_name_H-M	'P1'
_symmetry_Int_Tables_number	1
_symmetry_cell_setting	triclinic
loop_
_symmetry_equiv_pos_as_xyz
  x,y,z
_cell_length_a	13.897449
_cell_length_b	12.759399
_cell_length_c	12.759386
_cell_angle_alpha	90.062842
_cell_angle_beta	89.954185
_cell_angle_gamma	89.975295
loop_
_atom_site_label
_atom_site_type_symbol
_atom_site_fract_x
_atom_site_fract_y
_atom_site_fract_z
Zn1	Zn	1.474875	0.417861	-0.594111
Zn2	Zn	1.474688	0.593674	-0.418429
Zn3	Zn	1.313501	0.418013	-0.418436
Zn4	Zn	1.313528	0.593501	-0.594057
O5	O	1.394148	0.505762	-0.506258
O6	O	1.609832	0.441192	-0.570826
O7	O	1.453217	0.570509	-0.271409
O8	O	1.334974	0.270971	-0.441764
O9	O	1.609695	0.570362	-0.441754
O10	O	1.453535	0.270860	-0.570832
O11	O	1.334793	0.441451	-0.271413
O12	O	1.178523	0.441282	-0.441712
O13	O	1.335021	0.570066	-0.741085
O14	O	1.178543	0.570213	-0.570740
O15	O	1.453561	0.441024	-0.741125
O16	O	1.453243	0.740672	-0.441702
O17	O	1.334840	0.740545	-0.570734
C18	C	1.394051	0.778730	-0.506234
C19	C	1.394097	0.895506	-0.506259
C20	C	1.143534	0.505746	-0.506221
C21	C	1.036320	0.505764	-0.506231
C22	C	1.332468	1.060071	-0.573404
C23	C	1.332425	0.950347	-0.573393
C24	C	1.455823	0.950395	-0.439139
C25	C	1.455869	1.060117	-0.439156
C26	C	1.297882	0.800276	-0.697241
C27	C	1.236148	0.745391	-0.764349
C28	C	1.142041	0.781073	-0.780389
C29	C	1.109649	0.871639	-0.729305
C30	C	1.171378	0.926518	-0.662189
C31	C	1.265498	0.890837	-0.646169
C32	C	1.490403	1.210191	-0.315307
C33	C	1.552127	1.265072	-0.248185
C34	C	1.646235	1.229391	-0.232135
C35	C	1.678624	1.138822	-0.283200
C36	C	1.616899	1.083941	-0.350322
C37	C	1.522792	1.119629	-0.366374
C38	C	0.949250	0.505768	-0.506248
C39	C	0.840017	0.505775	-0.506280
C40	C	1.645741	0.505779	-0.506295
C41	C	1.752955	0.505786	-0.506311
C42	C	1.394315	0.505509	-0.780292
C43	C	1.394386	0.505400	-0.897069
C44	C	1.394237	1.231729	-0.506295
C45	C	1.394186	1.114952	-0.506287
C46	C	1.394037	0.505939	-0.233290
C47	C	1.394153	0.505751	-0.116514
C48	C	1.332106	0.438963	-0.061704
C49	C	1.332225	0.438785	0.048020
C50	C	1.456440	0.572192	0.048113
C51	C	1.456325	0.572364	-0.061608
C52	C	1.297146	0.314918	0.197714
C53	C	1.235084	0.248139	0.252528
C54	C	1.140829	0.232805	0.217075
C55	C	1.108617	0.284265	0.126809
C56	C	1.170674	0.351052	0.072001
C57	C	1.264942	0.366366	0.107453
C58	C	1.491394	0.696232	-0.211304
C59	C	1.553447	0.763025	-0.266114
C60	C	1.647703	0.778370	-0.230663
C61	C	1.679912	0.726928	-0.140395
C62	C	1.617860	0.660136	-0.085585
C63	C	1.523604	0.644789	-0.121043
H64	H	1.282248	1.104715	-0.628074
H65	H	1.262530	0.671652	-0.805941
N66	N	1.519936	0.640226	0.104217
N67	N	1.520030	0.640066	0.202182
H68	H	1.564874	0.688119	0.241805
H69	H	1.373899	0.327386	0.226582
N70	N	1.137802	0.403611	-0.020207
N71	N	1.193224	0.463226	-0.069140
H72	H	1.170009	0.500342	-0.134268
N73	N	1.395106	0.680539	-0.247502
N74	N	1.367184	0.590697	-0.272037
H75	H	1.299179	0.579616	-0.297598
N76	N	1.711094	0.846583	-0.286665
N77	N	1.787832	0.811727	-0.324169
H78	H	1.832604	0.859897	-0.363720
N79	N	1.268595	0.370916	-0.117774
N80	N	1.213202	0.311289	-0.068817
H81	H	1.168346	0.263226	-0.108413
N82	N	1.774747	1.102355	-0.266794
N83	N	1.802074	1.078082	-0.176718
H84	H	1.869961	1.052325	-0.165125
N85	N	1.776194	0.742617	-0.104183
N86	N	1.831587	0.802254	-0.153128
H87	H	1.899588	0.813341	-0.127555
H88	H	1.696488	1.274082	-0.177470
H89	H	1.031861	0.271783	0.097957
H90	H	1.527214	0.804911	-0.339617
N91	N	1.267978	0.195545	0.344714
N92	N	1.212560	0.135918	0.393638
H93	H	1.235785	0.098773	0.458745
H94	H	1.090298	0.178431	0.261712
N95	N	1.013521	0.908092	-0.745698
N96	N	0.999280	0.997299	-0.783002
H97	H	0.931388	1.023049	-0.794583
N98	N	1.138285	1.019014	-0.610010
N99	N	1.054252	1.050861	-0.624329
H100	H	1.030876	1.116190	-0.587481
N101	N	1.650765	0.607565	0.006608
N102	N	1.651066	0.509666	0.010114
H103	H	1.674305	0.472536	0.075223
N104	N	1.649994	0.991424	-0.402474
N105	N	1.734021	0.959570	-0.388133
H106	H	1.757395	0.894230	-0.424964
N107	N	1.518805	0.894376	-0.370549
N108	N	1.512421	0.906757	-0.273599
H109	H	1.556901	0.867194	-0.225152
H110	H	1.091777	0.736377	-0.835029
H111	H	1.374515	0.771223	-0.684201
N112	N	1.519024	1.357574	-0.196013
N113	N	1.434996	1.389426	-0.210351
H114	H	1.411616	1.454753	-0.173503
N115	N	1.394274	1.246658	-0.331698
N116	N	1.365366	1.327516	-0.286088
H117	H	1.297475	1.353272	-0.297659
