data_functionalizedCrystal
_audit_creation_method	'MofGen! by Chris Wilmer'
_symmetry_space_group_name_H-M	'P1'
_symmetry_Int_Tables_number	1
_symmetry_cell_setting	triclinic
loop_
_symmetry_equiv_pos_as_xyz
  x,y,z
_cell_length_a	13.897449
_cell_length_b	18.215405
_cell_length_c	18.215399
_cell_angle_alpha	90.030551
_cell_angle_beta	90.018532
_cell_angle_gamma	90.026165
loop_
_atom_site_label
_atom_site_type_symbol
_atom_site_fract_x
_atom_site_fract_y
_atom_site_fract_z
Zn1	Zn	1.474633	-0.292967	0.416077
Zn2	Zn	1.974633	0.207033	0.916077
Zn3	Zn	1.474513	-0.416038	0.293005
Zn4	Zn	1.974513	0.083962	0.793005
Zn5	Zn	1.313329	-0.292993	0.293027
Zn6	Zn	1.813329	0.207007	0.793027
Zn7	Zn	1.313284	-0.415999	0.416033
Zn8	Zn	1.813284	0.084001	0.916033
O9	O	1.393940	-0.354499	0.354536
O10	O	1.893940	0.145501	0.854536
O11	O	1.609599	-0.309298	0.399761
O12	O	2.109599	0.190702	0.899761
O13	O	1.453100	-0.399743	0.190024
O14	O	1.953100	0.100257	0.690024
O15	O	1.334795	-0.190005	0.309378
O16	O	1.834795	0.309995	0.809378
O17	O	1.609511	-0.399718	0.309340
O18	O	2.109511	0.100282	0.809340
O19	O	1.453305	-0.189986	0.399782
O20	O	1.953305	0.310014	0.899782
O21	O	1.334679	-0.309342	0.190040
O22	O	1.834679	0.190658	0.690040
O23	O	1.178341	-0.309304	0.309335
O24	O	1.678341	0.190696	0.809335
O25	O	1.334719	-0.399651	0.519023
O26	O	1.834719	0.100349	1.019023
O27	O	1.178308	-0.399676	0.399707
O28	O	1.678308	0.100324	0.899707
O29	O	1.453262	-0.309260	0.519055
O30	O	1.953262	0.190740	1.019055
O31	O	1.453057	-0.519017	0.309297
O32	O	1.953057	-0.019017	0.809297
O33	O	1.334602	-0.518988	0.399685
O34	O	1.834602	-0.018988	0.899685
C35	C	1.393838	-0.545705	0.354500
C36	C	1.893838	-0.045705	0.854500
C37	C	1.393883	-0.627504	0.354510
C38	C	1.893883	-0.127504	0.854510
C39	C	1.143326	-0.354489	0.354519
C40	C	1.643326	0.145511	0.854519
C41	C	1.036112	-0.354503	0.354529
C42	C	1.536112	0.145497	0.854529
C43	C	1.455707	-0.815689	0.307531
C44	C	1.955707	-0.315689	0.807531
C45	C	1.455750	-0.892547	0.307549
C46	C	1.955750	-0.392547	0.807549
C47	C	1.332296	-0.892557	0.401593
C48	C	1.832296	-0.392557	0.901593
C49	C	1.332259	-0.815700	0.401578
C50	C	1.832259	-0.315700	0.901578
C51	C	1.393963	-0.777268	0.354543
C52	C	1.893963	-0.277268	0.854543
C53	C	1.394043	-0.930984	0.354576
C54	C	1.894043	-0.430984	0.854576
C55	C	1.394090	-1.014317	0.354595
C56	C	1.894090	-0.514317	0.854595
C57	C	1.393918	-0.693929	0.354524
C58	C	1.893918	-0.193929	0.854524
C59	C	0.839817	-0.354505	0.354548
C60	C	1.339817	0.145495	0.854548
C61	C	0.949049	-0.354502	0.354536
C62	C	1.449049	0.145498	0.854536
C63	C	1.645533	-0.354509	0.354553
C64	C	2.145533	0.145491	0.854553
C65	C	1.752747	-0.354514	0.354560
C66	C	2.252747	0.145486	0.854560
C67	C	1.393999	-0.354448	0.546489
C68	C	1.893999	0.145552	1.046489
C69	C	1.394024	-0.354427	0.628288
C70	C	1.894024	0.145573	1.128288
C71	C	1.394068	-0.162546	0.354587
C72	C	1.894068	0.337454	0.854587
C73	C	1.394123	-0.080747	0.354609
C74	C	1.894123	0.419253	0.854609
C75	C	1.393937	-0.354496	0.163329
C76	C	1.893937	0.145504	0.663329
C77	C	1.394099	-0.354311	0.081531
C78	C	1.894099	0.145689	0.581531
C79	C	1.455771	-0.307316	0.816500
C80	C	1.955771	0.192684	1.316500
C81	C	1.455783	-0.307295	0.893358
C82	C	1.955783	0.192705	1.393358
C83	C	1.332345	-0.401424	0.893313
C84	C	1.832345	0.098576	1.393313
C85	C	1.332329	-0.401441	0.816456
C86	C	1.832329	0.098559	1.316456
C87	C	1.394048	-0.354388	0.778051
C88	C	1.894048	0.145612	1.278051
C89	C	1.394075	-0.354349	0.931767
C90	C	1.894075	0.145651	1.431767
C91	C	1.394087	-0.354326	1.015101
C92	C	1.894087	0.145674	1.515101
C93	C	1.394035	-0.354410	0.694712
C94	C	1.894035	0.145590	1.194712
H95	H	1.505951	-0.784399	0.269234
H96	H	2.005951	-0.284399	0.769234
Cl97	Cl	1.533390	-0.248122	0.941691
Cl98	Cl	2.033390	0.251878	1.441691
H99	H	1.506030	-0.923826	0.269268
H100	H	2.006030	-0.423826	0.769268
H101	H	1.282058	-0.923858	0.439886
H102	H	1.782058	-0.423858	0.939886
Cl103	Cl	1.254636	-0.767396	0.460688
Cl104	Cl	1.754636	-0.267396	0.960688
H105	H	1.506024	-0.269001	0.785233
H106	H	2.006024	0.230999	1.285233
Cl107	Cl	1.254765	-0.460576	0.941599
Cl108	Cl	1.754765	0.039424	1.441599
H109	H	1.282059	-0.439772	0.785150
H110	H	1.782059	0.060228	1.285150
