data_functionalizedCrystal
_audit_creation_method	'MofGen! by Chris Wilmer'
_symmetry_space_group_name_H-M	'P1'
_symmetry_Int_Tables_number	1
_symmetry_cell_setting	triclinic
loop_
_symmetry_equiv_pos_as_xyz
  x,y,z
_cell_length_a	27.732048
_cell_length_b	11.026607
_cell_length_c	9.482900
_cell_angle_alpha	101.400185
_cell_angle_beta	80.794297
_cell_angle_gamma	95.614336
loop_
_atom_site_label
_atom_site_type_symbol
_atom_site_fract_x
_atom_site_fract_y
_atom_site_fract_z
O1	O	0.659761	0.125077	-0.120700
O2	O	0.520943	0.146989	-0.120742
O3	O	0.578847	-0.040404	-0.120719
O4	O	0.601858	0.312470	-0.120723
O5	O	0.567098	-0.002189	0.121069
O6	O	0.509194	0.185204	0.121045
O7	O	0.648013	0.163292	0.121088
Cu8	Cu	0.577531	0.177738	0.143144
Cu9	Cu	0.591425	0.132543	-0.142798
O10	O	0.590109	0.350685	0.121065
C11	C	0.568728	-0.066428	0.000172
C12	C	0.556073	-0.200906	0.000163
C13	C	0.497020	0.165636	0.000146
C14	C	0.443242	0.164248	0.000129
C15	C	0.591015	-0.275366	0.000171
C16	C	0.577937	-0.414357	0.000162
C17	C	0.113604	0.266274	0.000191
C18	C	-0.088519	0.261136	0.000204
O19	O	-0.111382	0.354433	0.000266
N20	N	-0.117642	0.150017	0.000203
C21	C	-0.096233	0.040177	0.000208
O22	O	-0.125642	-0.054452	0.000222
C23	C	0.105889	0.045318	0.000205
C24	C	0.135011	0.156442	0.000192
C25	C	0.142726	0.377389	0.000180
C26	C	0.193254	0.378671	0.000168
C27	C	0.214660	0.268839	0.000169
C28	C	0.185539	0.157724	0.000181
C29	C	0.127297	-0.064520	0.000220
C30	C	0.177831	-0.063224	0.000223
C31	C	0.206953	0.047900	0.000210
C32	C	0.257473	0.049173	0.000170
N33	N	0.286597	0.160292	0.000171
C34	C	0.265190	0.270125	0.000171
C35	C	-0.202349	0.037485	0.000206
C36	C	-0.252879	0.036199	0.000204
C37	C	-0.245161	0.257159	0.000204
C38	C	-0.194630	0.258442	0.000195
C39	C	-0.173225	0.148603	0.000208
C40	C	0.371303	0.272809	0.000146
C41	C	0.421835	0.274080	0.000129
C42	C	0.414113	0.053122	0.000137
C43	C	0.363585	0.051849	0.000147
C44	C	0.342182	0.161703	0.000156
O45	O	0.280369	-0.044071	0.000124
O46	O	0.294607	0.364745	0.000189
C47	C	0.063076	0.264992	0.000202
C48	C	0.033955	0.153877	0.000214
C49	C	0.055361	0.044045	0.000215
C50	C	-0.016575	0.152591	0.000212
C51	C	-0.037982	0.262424	0.000212
C52	C	-0.008858	0.373543	0.000213
C53	C	0.041670	0.374825	0.000202
C54	C	0.026238	-0.067074	0.000213
C55	C	-0.024290	-0.068348	0.000223
C56	C	-0.045696	0.041485	0.000222
C57	C	0.671935	0.144645	0.000197
C58	C	0.725715	0.146031	0.000204
C59	C	0.600228	0.376709	0.000171
C60	C	0.612883	0.511185	0.000171
N61	N	0.567762	0.209524	0.344260
N62	N	0.601197	0.100747	-0.343914
C63	C	0.588540	0.141913	0.416468
C64	C	0.580416	0.168369	0.583882
H65	H	0.538338	-0.453503	0.000140
H66	H	0.624998	0.023267	0.593971
H67	H	0.630611	-0.236214	0.000192
H68	H	0.652488	-0.449689	0.000074
H69	H	0.431552	-0.036302	0.000132
H70	H	0.516477	-0.240059	0.000141
O71	O	0.073073	0.494690	0.000218
H72	H	0.070002	0.531854	-0.098319
H73	H	0.445545	0.364574	0.000117
H74	H	0.353882	0.362263	0.000158
O75	O	-0.031951	0.492013	0.000230
H76	H	-0.071981	0.472441	0.000254
O77	O	-0.055700	-0.188208	0.000251
H78	H	-0.032321	-0.264356	0.000269
O79	O	-0.179264	-0.080992	0.000213
H80	H	-0.208008	-0.158467	0.000200
O81	O	0.620060	0.039280	0.334172
H82	H	0.657628	0.058348	0.363273
O83	O	0.224660	0.498533	0.000198
H84	H	0.201277	0.574684	0.000223
O85	O	0.119642	0.495860	0.000173
H86	H	0.148389	0.573327	0.000156
O87	O	-0.163222	0.378298	0.000209
H88	H	-0.186602	0.454451	0.000220
H89	H	-0.262599	0.346589	0.000204
H90	H	-0.276585	-0.054293	0.000192
O91	O	0.095892	-0.184370	0.000265
H92	H	0.119274	-0.260511	0.000293
O93	O	0.200919	-0.181696	0.000231
H94	H	0.172177	-0.259175	0.000229
O95	O	0.536244	0.312168	0.426538
H96	H	0.522261	0.357674	0.348178
H97	H	0.339874	-0.038641	0.000136
O98	O	0.049323	-0.185543	0.000211
H99	H	0.020579	-0.263017	0.000204
H100	H	0.556610	0.245840	0.645997
