data_functionalizedCrystal
_audit_creation_method	'MofGen! by Chris Wilmer'
_symmetry_space_group_name_H-M	'P1'
_symmetry_Int_Tables_number	1
_symmetry_cell_setting	triclinic
loop_
_symmetry_equiv_pos_as_xyz
  x,y,z
_cell_length_a	26.809956
_cell_length_b	14.853567
_cell_length_c	14.853567
_cell_angle_alpha	83.634930
_cell_angle_beta	89.984534
_cell_angle_gamma	89.982581
loop_
_atom_site_label
_atom_site_type_symbol
_atom_site_fract_x
_atom_site_fract_y
_atom_site_fract_z
O1	O	0.041441	-1.196384	-0.117721
O2	O	0.041449	-0.933924	-0.131742
O3	O	0.041446	-1.072165	0.006498
O4	O	0.041444	-1.058143	-0.255961
O5	O	-0.041513	-1.072115	0.006536
O6	O	-0.041510	-0.933874	-0.131704
O7	O	-0.041518	-1.196334	-0.117683
Zn8	Zn	-0.054686	-1.065096	-0.124688
Zn9	Zn	0.054616	-1.065162	-0.124738
O10	O	-0.041516	-1.058093	-0.255923
C11	C	-0.000030	-0.900311	-0.131088
C12	C	-0.000026	-0.800227	-0.129184
C13	C	-0.000039	-1.229947	-0.118337
C14	C	-0.000039	-1.330031	-0.120241
N15	N	-0.129282	-1.065058	-0.124653
C16	C	-0.526173	-1.010402	-0.069915
C17	C	-0.317295	-1.010359	-0.069890
O18	O	-0.290301	-0.963827	-0.023273
N19	N	-0.291160	-1.065094	-0.124667
C20	C	-0.317249	-1.119849	-0.179450
O21	O	-0.290227	-1.166411	-0.226034
C22	C	-0.526125	-1.119896	-0.179470
C23	C	-0.552257	-1.065150	-0.124696
C24	C	-0.552305	-0.955661	-0.015145
C25	C	-0.604521	-0.955669	-0.015155
C26	C	-0.630605	-1.010417	-0.069936
C27	C	-0.604473	-1.065158	-0.124706
C28	C	-0.552212	-1.174654	-0.234247
C29	C	-0.604435	-1.174663	-0.234246
C30	C	-0.630567	-1.119917	-0.179472
C31	C	-0.682774	-1.119913	-0.179498
N32	N	-0.708909	-1.065178	-0.124720
C33	C	-0.682824	-1.010430	-0.069940
C34	C	-0.207585	-1.119819	-0.179437
C35	C	-0.155366	-1.119806	-0.179434
C36	C	-0.155416	-1.010318	-0.069872
C37	C	-0.207636	-1.010326	-0.069881
C38	C	-0.233720	-1.065084	-0.124660
C39	C	-0.792482	-1.010449	-0.069966
C40	C	-0.844703	-1.010459	-0.069985
C41	C	-0.844648	-1.119951	-0.179542
C42	C	-0.792432	-1.119938	-0.179528
C43	C	-0.766350	-1.065185	-0.124733
O44	O	-0.709801	-1.166428	-0.226083
O45	O	-0.709855	-0.963890	-0.023348
C46	C	-0.473956	-1.010394	-0.069905
C47	C	-0.447825	-1.065135	-0.124675
C48	C	-0.473909	-1.119883	-0.179456
C49	C	-0.395606	-1.065122	-0.124671
C50	C	-0.369521	-1.010374	-0.069890
C51	C	-0.395656	-0.955639	-0.015113
C52	C	-0.447872	-0.955646	-0.015124
C53	C	-0.447774	-1.174618	-0.234233
C54	C	-0.395558	-1.174606	-0.234219
C55	C	-0.369474	-1.119857	-0.179438
N56	N	0.129212	-1.065207	-0.124765
C57	C	-0.000032	-1.071504	0.040106
C58	C	-0.000028	-1.069601	0.140189
C59	C	-0.000037	-0.387693	-0.039019
C60	C	-0.000038	-0.366412	-0.203251
C61	C	-0.000036	-0.460446	-0.205041
C62	C	-0.000034	-0.518108	-0.123819
C63	C	-0.000034	-0.481736	-0.040806
C64	C	-0.000032	-0.496825	-0.288053
C65	C	-0.000029	-0.590864	-0.289846
C66	C	-0.000031	-0.648528	-0.208623
C67	C	-0.000031	-0.612150	-0.125607
C68	C	-0.000029	-0.669812	-0.044384
C69	C	-0.000032	-0.633437	0.038633
C70	C	-0.000035	-0.539399	0.040417
C71	C	-0.000028	-0.742565	-0.210407
C72	C	-0.000026	-0.763855	-0.046172
C73	C	-0.000036	-1.058754	-0.289531
C74	C	-0.000037	-1.060657	-0.389615
C75	C	-0.000034	-0.979435	0.552723
C76	C	-0.000039	-1.143668	0.574004
C77	C	-0.000036	-1.145458	0.479971
C78	C	-0.000033	-1.064235	0.422309
C79	C	-0.000033	-0.981223	0.458681
C80	C	-0.000042	-1.228469	0.443591
C81	C	-0.000039	-1.230262	0.349552
C82	C	-0.000033	-1.149039	0.291889
C83	C	-0.000032	-1.066023	0.328266
C84	C	-0.000029	-0.984800	0.270604
C85	C	-0.000024	-0.901783	0.306979
C86	C	-0.000026	-0.899999	0.401017
C87	C	-0.000031	-1.150823	0.197851
C88	C	-0.000027	-0.986588	0.176561
H89	H	-0.865977	-0.965874	-0.025381
Br90	Br	-0.000017	-0.876351	0.098312
H91	H	-0.000026	-0.810798	0.019971
Br92	Br	-0.000026	-0.791557	0.228714
Br93	Br	-0.000038	-0.490027	0.153073
H94	H	-0.000046	-1.209795	0.620958
H95	H	-0.625793	-0.911093	0.029451
Br96	Br	-0.516761	-1.248933	-0.308613
Br97	Br	-0.000031	-0.288157	-0.313477
H98	H	-0.000023	-0.832411	0.430643
H99	H	-0.771155	-1.164503	-0.224142
H100	H	-0.000029	-0.911844	0.582345
Br101	Br	-0.880059	-1.194241	-0.253891
H102	H	-0.000042	-1.297860	0.319944
H103	H	-0.000041	-0.358072	0.028572
Br104	Br	-0.000024	-0.418568	-0.398276
H105	H	-0.000027	-0.620472	-0.357443
Br106	Br	-0.000018	-0.791930	-0.323063
Br107	Br	-0.000060	-1.338693	0.521849
Br108	Br	-0.000049	-1.263479	0.148487
Br109	Br	-0.000024	-0.711703	0.148859
H110	H	-0.771253	-0.965864	-0.025347
H111	H	-0.531072	-0.911079	0.029469
Br112	Br	-0.243095	-0.936026	0.004458
H113	H	-0.134094	-1.164375	-0.224047
Br114	Br	-0.120006	-0.936017	0.004473
H115	H	-0.625669	-1.219255	-0.278853
Br116	Br	-0.242977	-1.194137	-0.253791
H117	H	-0.469144	-0.911067	0.029479
H118	H	-0.374409	-0.911057	0.029487
H119	H	-0.469007	-1.219203	-0.278841
Br120	Br	-0.360100	-1.248896	-0.308577
