data_functionalizedCrystal
_audit_creation_method	'MofGen! by Chris Wilmer'
_symmetry_space_group_name_H-M	'P1'
_symmetry_Int_Tables_number	1
_symmetry_cell_setting	triclinic
loop_
_symmetry_equiv_pos_as_xyz
  x,y,z
_cell_length_a	10.489711
_cell_length_b	10.489716
_cell_length_c	14.586319
_cell_angle_alpha	90.000245
_cell_angle_beta	89.994956
_cell_angle_gamma	84.528072
loop_
_atom_site_label
_atom_site_type_symbol
_atom_site_fract_x
_atom_site_fract_y
_atom_site_fract_z
O1	O	1.694058	0.179788	-0.076265
O2	O	1.322856	0.196720	-0.076258
O3	O	1.516920	0.002653	-0.076265
O4	O	1.499994	0.373855	-0.076258
O5	O	1.516906	0.002650	0.076216
O6	O	1.322843	0.196717	0.076223
O7	O	1.694045	0.179785	0.076216
Cu8	Cu	1.508442	0.188251	0.090142
Cu9	Cu	1.508458	0.188254	-0.090184
O10	O	1.499981	0.373852	0.076223
C11	C	1.275317	0.195448	-0.000017
C12	C	1.133686	0.191646	-0.000015
C13	C	0.951289	0.308352	-0.000024
C14	C	1.043447	0.250057	-0.075204
C15	C	1.043406	0.250023	0.075130
C16	C	0.973507	0.126513	-0.075278
C17	C	0.973457	0.126496	0.075124
C18	C	1.065587	0.068111	-0.000075
C19	C	1.515642	-0.044880	-0.000027
C20	C	1.511837	-0.186511	-0.000035
C21	C	1.630843	-0.284198	-0.000029
C22	C	1.567964	-0.361550	-0.075207
C23	C	1.567923	-0.361517	0.075127
C24	C	1.449008	-0.261998	-0.075275
C25	C	1.448984	-0.261960	0.075127
C26	C	1.386018	-0.339263	-0.000069
C27	C	1.741584	0.181057	-0.000027
C28	C	1.883215	0.184859	-0.000035
C29	C	1.501259	0.421385	-0.000017
C30	C	1.505064	0.563016	-0.000015
N31	N	1.508440	0.188247	0.216974
N32	N	1.508471	0.188247	-0.217016
C33	C	1.594401	0.102344	0.451977
C34	C	1.594404	0.102341	0.547959
C35	C	1.422501	0.274155	0.547974
C36	C	1.422492	0.274151	0.451994
C37	C	1.508449	0.188247	0.403999
C38	C	1.508462	0.188248	0.595959
C39	C	1.508465	0.188245	0.700027
C40	C	1.508445	0.188248	0.299925
H41	H	0.942708	0.074310	-0.138912
H42	H	1.352518	0.344098	0.587062
O43	O	1.767948	-0.251493	-0.000130
H44	H	1.817068	-0.291555	-0.062636
H45	H	1.352494	0.344104	0.412927
H46	H	0.901590	0.409854	-0.000096
H47	H	1.618180	-0.404996	0.138683
H48	H	1.074443	0.302315	-0.138760
H49	H	1.664390	0.032394	0.412901
H50	H	1.664392	0.032389	0.587020
O51	O	1.131046	-0.066490	-0.000083
H52	H	1.103013	-0.117439	-0.062536
O53	O	1.084404	0.319249	0.159327
H54	H	1.038188	0.418943	0.159162
O55	O	0.932342	0.057333	0.159312
H56	H	0.960030	0.108787	0.221634
H57	H	1.618207	-0.405049	-0.138767
H58	H	1.282425	-0.363682	-0.000108
O59	O	1.382520	-0.204649	-0.159567
H60	H	1.385951	-0.099222	-0.158933
H61	H	1.398785	-0.218437	0.138689
