data_functionalizedCrystal
_audit_creation_method	'MofGen! by Chris Wilmer'
_symmetry_space_group_name_H-M	'P1'
_symmetry_Int_Tables_number	1
_symmetry_cell_setting	triclinic
loop_
_symmetry_equiv_pos_as_xyz
  x,y,z
_cell_length_a	15.995350
_cell_length_b	15.995350
_cell_length_c	15.072220
_cell_angle_alpha	90.001101
_cell_angle_beta	89.991149
_cell_angle_gamma	83.492375
loop_
_atom_site_label
_atom_site_type_symbol
_atom_site_fract_x
_atom_site_fract_y
_atom_site_fract_z
O1	O	1.110996	0.107921	-0.073703
O2	O	0.867221	0.121249	-0.073721
O3	O	0.995772	-0.007303	-0.073710
O4	O	0.982444	0.236472	-0.073713
O5	O	0.995740	-0.007296	0.073855
O6	O	0.867189	0.121256	0.073844
O7	O	1.110964	0.107928	0.073862
Zn8	Zn	0.989071	0.114593	0.097283
Zn9	Zn	0.989113	0.114584	-0.097141
O10	O	0.982413	0.236480	0.073852
C11	C	0.836010	0.120701	0.000060
C12	C	0.743060	0.119049	0.000053
C13	C	0.405312	0.113117	0.000071
C14	C	0.452746	0.021565	0.000401
C15	C	0.549436	0.023217	0.000063
C16	C	0.572873	0.116060	0.000063
C17	C	0.531804	0.161212	-0.084201
C18	C	0.435168	0.158912	-0.084266
C19	C	0.434793	0.160812	0.083543
C20	C	0.531738	0.160790	0.084651
C21	C	0.667570	0.117727	0.000055
C22	C	0.310614	0.111452	0.000073
C23	C	0.995205	-0.038494	0.000070
C24	C	0.993553	-0.131444	0.000065
C25	C	0.987621	-0.469192	0.000068
C26	C	0.896069	-0.421758	-0.000270
C27	C	0.897721	-0.325068	0.000063
C28	C	0.990564	-0.301631	0.000066
C29	C	1.035702	-0.342705	0.084335
C30	C	1.033402	-0.439341	0.084405
C31	C	1.035330	-0.439707	-0.083404
C32	C	1.035308	-0.342761	-0.084518
C33	C	0.992231	-0.206934	0.000068
C34	C	0.985956	-0.563890	0.000072
C35	C	1.142175	0.108476	0.000080
C36	C	1.235125	0.110127	0.000081
C37	C	0.982980	0.267671	0.000069
C38	C	0.984631	0.360621	0.000069
N39	N	0.989049	0.114599	0.229971
N40	N	0.989142	0.114571	-0.229830
C41	C	0.989112	0.114580	0.589173
C42	C	0.920095	0.183135	0.551560
C43	C	0.920254	0.183385	0.448735
C44	C	0.989080	0.114590	0.410969
C45	C	1.076445	0.133671	0.448266
C46	C	1.076058	0.134159	0.551124
C47	C	0.971542	0.026741	0.551272
C48	C	0.969537	0.027327	0.448409
C49	C	0.989067	0.114593	0.310255
C50	C	0.989130	0.114579	0.689886
H51	H	0.433165	-0.014865	-0.059694
N52	N	0.992079	-0.462318	0.163417
N53	N	1.030294	-0.512102	0.217514
H54	H	1.001108	-0.528328	0.273318
H55	H	0.931473	0.248570	0.424121
H56	H	0.577307	-0.012521	-0.060446
H57	H	0.416873	0.125979	-0.147255
N58	N	1.120016	-0.479529	-0.084111
N59	N	1.168268	-0.468392	-0.021042
H60	H	1.228077	-0.496515	-0.021535
H61	H	1.092297	0.197002	0.422498
H62	H	0.414244	0.130885	0.147414
N63	N	0.429538	-0.024374	0.076204
N64	N	0.484352	-0.052488	0.130940
H65	H	0.467970	-0.084942	0.184479
H66	H	1.002306	-0.315516	-0.146857
H67	H	1.129029	0.085068	0.423801
H68	H	0.560191	0.129845	-0.146912
N69	N	1.117724	-0.479788	0.089216
N70	N	1.178081	-0.436620	0.092518
H71	H	1.237632	-0.465182	0.095922
N72	N	0.893338	0.003750	0.583841
N73	N	0.849599	0.051831	0.635389
H74	H	0.794361	0.035605	0.658387
N75	N	0.565979	0.119424	0.162849
N76	N	0.620477	0.057231	0.156375
H77	H	0.644665	0.028013	0.211601
N78	N	1.142452	0.073952	0.582357
N79	N	1.154011	0.063607	0.663825
H80	H	1.200916	0.021103	0.685882
N81	N	0.996330	-0.307121	0.163005
N82	N	0.964344	-0.353217	0.217379
H83	H	0.936532	-0.328088	0.272939
H84	H	1.016540	-0.026078	0.422704
N85	N	1.120238	-0.323471	-0.090901
N86	N	1.149303	-0.278902	-0.032953
H87	H	1.209286	-0.265274	-0.037457
N88	N	0.850189	-0.445007	-0.076088
N89	N	0.884425	-0.496810	-0.130758
H90	H	0.852023	-0.513233	-0.184310
N91	N	0.551017	0.245723	0.091030
N92	N	0.595583	0.274800	0.033076
H93	H	0.609199	0.334787	0.037574
N94	N	1.095484	0.214523	0.581202
N95	N	1.109231	0.269860	0.526229
H96	H	1.122951	0.326620	0.547467
H97	H	1.103910	-0.328579	0.087471
H98	H	0.905271	0.012846	0.424032
N99	N	0.838373	0.169107	0.582643
N100	N	0.823198	0.169803	0.664012
H101	H	0.765482	0.159893	0.685974
N102	N	0.585087	-0.021305	0.075839
N103	N	0.563206	0.002699	0.152157
H104	H	0.588380	-0.028752	0.205675
N105	N	0.394702	0.243228	-0.089055
N106	N	0.406963	0.294979	-0.029641
H107	H	0.378386	0.354526	-0.033027
N108	N	0.549510	0.246783	-0.088133
N109	N	0.525966	0.296486	-0.026728
H110	H	0.538471	0.356922	-0.029503
N111	N	0.394947	0.245489	0.084249
N112	N	0.345043	0.270699	0.023609
H113	H	0.316897	0.330500	0.024100
N114	N	1.034673	-0.037255	0.581804
N115	N	1.044366	-0.050389	0.663105
H116	H	1.088954	-0.095581	0.684674
N117	N	0.838670	0.169532	0.417111
N118	N	0.781220	0.159599	0.471007
H119	H	0.723553	0.149972	0.448678
H120	H	0.931160	0.247952	0.577399
N121	N	0.853204	-0.289423	-0.075718
N122	N	0.820693	-0.335950	-0.129221
H123	H	0.789246	-0.310780	-0.182743
N124	N	0.850357	-0.446341	0.075111
N125	N	0.884912	-0.498643	0.129082
H126	H	0.852630	-0.516007	0.182322
H127	H	0.861974	-0.297200	0.060568
H128	H	1.005411	-0.460250	-0.147274
