data_functionalizedCrystal
_audit_creation_method	'MofGen! by Chris Wilmer'
_symmetry_space_group_name_H-M	'P1'
_symmetry_Int_Tables_number	1
_symmetry_cell_setting	triclinic
loop_
_symmetry_equiv_pos_as_xyz
  x,y,z
_cell_length_a	12.645331
_cell_length_b	29.839131
_cell_length_c	12.645323
_cell_angle_alpha	89.967288
_cell_angle_beta	89.977324
_cell_angle_gamma	90.040399
loop_
_atom_site_label
_atom_site_type_symbol
_atom_site_fract_x
_atom_site_fract_y
_atom_site_fract_z
Zn1	Zn	1.620556	-0.178862	-0.599388
Zn2	Zn	2.120556	0.321138	-0.099388
Zn3	Zn	1.620365	-0.253994	-0.422104
Zn4	Zn	2.120365	0.246006	0.077896
Zn5	Zn	1.443271	-0.178877	-0.422133
Zn6	Zn	1.943271	0.321123	0.077867
Zn7	Zn	1.443179	-0.253964	-0.599320
Zn8	Zn	1.943179	0.246036	-0.099320
O9	O	1.531843	-0.216424	-0.510736
O10	O	2.031843	0.283576	-0.010736
O11	O	1.768878	-0.188834	-0.575888
O12	O	2.268878	0.311166	-0.075888
O13	O	1.596831	-0.244048	-0.273761
O14	O	2.096831	0.255952	0.226239
O15	O	1.466907	-0.116008	-0.445687
O16	O	1.966907	0.383992	0.054313
O17	O	1.768737	-0.244033	-0.445638
O18	O	2.268737	0.255967	0.054362
O19	O	1.597158	-0.115997	-0.575916
O20	O	2.097158	0.384003	-0.075916
O21	O	1.466721	-0.188860	-0.273782
O22	O	1.966721	0.311140	0.226218
O23	O	1.294912	-0.188832	-0.445620
O24	O	1.794912	0.311168	0.054380
O25	O	1.466751	-0.243983	-0.747676
O26	O	1.966751	0.256017	-0.247676
O27	O	1.294844	-0.243998	-0.575799
O28	O	1.794844	0.256002	-0.075799
O29	O	1.597069	-0.188806	-0.747727
O30	O	2.097069	0.311194	-0.247727
O31	O	1.596742	-0.316857	-0.445571
O32	O	2.096742	0.183143	0.054429
O33	O	1.466565	-0.316835	-0.575771
O34	O	1.966565	0.183165	-0.075771
C35	C	1.256413	-0.216414	-0.510706
C36	C	1.756413	0.283586	-0.010706
C37	C	1.138583	-0.216420	-0.510718
C38	C	1.638583	0.283580	-0.010718
C39	C	0.971026	-0.181555	-0.429274
C40	C	1.471026	0.318445	0.070726
C41	C	1.093586	-0.181645	-0.428915
C42	C	1.593586	0.318355	0.071085
C43	C	1.094017	-0.263746	-0.480188
C44	C	1.594017	0.236254	0.019812
C45	C	0.971418	-0.263555	-0.479632
C46	C	1.471418	0.236445	0.020368
C47	C	0.971445	-0.204409	-0.623006
C48	C	1.471445	0.295591	-0.123006
C49	C	1.094052	-0.203352	-0.622382
C50	C	1.594052	0.296648	-0.122382
C51	C	1.531651	-0.333147	-0.510684
C52	C	2.031651	0.166853	-0.010684
C53	C	1.531667	-0.383081	-0.510697
C54	C	2.031667	0.116919	-0.010697
C55	C	1.599749	-0.692723	-0.443041
C56	C	2.099749	-0.192723	0.056959
C57	C	1.599880	-0.880396	-0.443082
C58	C	2.099880	-0.380396	0.056918
O59	O	1.657615	-0.904660	-0.385518
O60	O	2.157615	-0.404660	0.114482
N61	N	1.532063	-0.903866	-0.510816
N62	N	2.032063	-0.403866	-0.010816
C63	C	1.464212	-0.880415	-0.578550
C64	C	1.964212	-0.380415	-0.078550
O65	O	1.406540	-0.904684	-0.636171
O66	O	1.906540	-0.404684	-0.136171
C67	C	1.464088	-0.692743	-0.578514
C68	C	1.964088	-0.192743	-0.078514
C69	C	1.531902	-0.669275	-0.510767
C70	C	2.031902	-0.169275	-0.010767
C71	C	1.667559	-0.669256	-0.375300
C72	C	2.167559	-0.169256	0.124700
C73	C	1.667522	-0.622340	-0.375287
C74	C	2.167522	-0.122340	0.124713
C75	C	1.599674	-0.598892	-0.443013
C76	C	2.099674	-0.098892	0.056987
C77	C	1.531865	-0.622360	-0.510753
C78	C	2.031865	-0.122360	-0.010753
C79	C	1.396244	-0.669293	-0.646252
C80	C	1.896244	-0.169293	-0.146252
C81	C	1.396220	-0.622372	-0.646239
C82	C	1.896220	-0.122372	-0.146239
C83	C	1.464035	-0.598904	-0.578492
C84	C	1.964035	-0.098904	-0.078492
C85	C	1.463980	-0.551997	-0.578466
C86	C	1.963980	-0.051997	-0.078466
N87	N	1.531798	-0.528527	-0.510732
N88	N	2.031798	-0.028527	-0.010732
C89	C	1.599645	-0.551975	-0.443005
C90	C	2.099645	-0.051975	0.056995
C91	C	1.464281	-0.978946	-0.578563
C92	C	1.964281	-0.478946	-0.078563
C93	C	1.464311	-1.025864	-0.578571
C94	C	1.964311	-0.525864	-0.078571
C95	C	1.599980	-1.025842	-0.443104
C96	C	2.099980	-0.525842	0.056896
C97	C	1.599945	-0.978923	-0.443091
C98	C	2.099945	-0.478923	0.056909
C99	C	1.532099	-0.955476	-0.510829
C100	C	2.032099	-0.455476	-0.010829
C101	C	1.599560	-0.453449	-0.442981
C102	C	2.099560	0.046551	0.057019
C103	C	1.599514	-0.406529	-0.442970
C104	C	2.099514	0.093471	0.057030
C105	C	1.463849	-0.406555	-0.578441
C106	C	1.963849	0.093445	-0.078441
C107	C	1.463891	-0.453471	-0.578448
C108	C	1.963891	0.046529	-0.078448
C109	C	1.531755	-0.476916	-0.510715
C110	C	2.031755	0.023084	-0.010715
O111	O	1.406284	-0.527704	-0.636009
O112	O	1.906284	-0.027704	-0.136009
O113	O	1.657325	-0.527697	-0.385409
O114	O	2.157325	-0.027697	0.114591
C115	C	1.599787	-0.739639	-0.443054
C116	C	2.099787	-0.239639	0.056946
C117	C	1.531977	-0.763106	-0.510794
C118	C	2.031977	-0.263106	-0.010794
C119	C	1.464130	-0.739659	-0.578521
C120	C	1.964130	-0.239659	-0.078521
C121	C	1.532007	-0.810024	-0.510802
C122	C	2.032007	-0.310024	-0.010802
C123	C	1.599854	-0.833472	-0.443076
C124	C	2.099854	-0.333472	0.056924
C125	C	1.667672	-0.810002	-0.375341
C126	C	2.167672	-0.310002	0.124659
C127	C	1.667634	-0.763087	-0.375328
C128	C	2.167634	-0.263087	0.124672
C129	C	1.396312	-0.763129	-0.646256
C130	C	1.896312	-0.263129	-0.146256
C131	C	1.396354	-0.810044	-0.646263
C132	C	1.896354	-0.310044	-0.146263
C133	C	1.464202	-0.833492	-0.578536
C134	C	1.964202	-0.333492	-0.078536
C135	C	1.808348	-0.216435	-0.510768
C136	C	2.308348	0.283565	-0.010768
C137	C	1.926178	-0.216440	-0.510781
C138	C	2.426178	0.283560	-0.010781
C139	C	1.531921	-0.216390	-0.787242
C140	C	2.031921	0.283610	-0.287242
C141	C	1.531954	-0.216375	-0.905072
C142	C	2.031954	0.283625	-0.405072
C143	C	1.532064	-0.099246	-0.510812
C144	C	2.032064	0.400754	-0.010812
C145	C	1.532158	-0.049312	-0.510845
C146	C	2.032158	0.450688	-0.010845
C147	C	1.449718	-0.250923	-1.072604
C148	C	1.949718	0.249077	-0.572604
C149	C	1.449934	-0.251094	-0.950044
C150	C	1.949934	0.248906	-0.450044
C151	C	1.643641	-0.229224	-0.949588
C152	C	2.143641	0.270776	-0.449588
C153	C	1.643190	-0.229441	-1.072186
C154	C	2.143190	0.270559	-0.572186
C155	C	1.503559	-0.168784	-1.072285
C156	C	2.003559	0.331216	-0.572285
C157	C	1.501067	-0.169069	-0.949679
C158	C	2.001067	0.330931	-0.449679
C159	C	1.531826	-0.216427	-0.235307
C160	C	2.031826	0.283573	0.264693
C161	C	1.531998	-0.216315	-0.117477
C162	C	2.031998	0.283685	0.382523
H163	H	1.654736	-0.387423	-0.387799
H164	H	2.154736	0.112577	0.112201
N165	N	0.935479	-0.276356	-0.376709
N166	N	1.435479	0.223644	0.123291
N167	N	1.000941	-0.285366	-0.305788
N168	N	1.500941	0.214634	0.194212
H169	H	0.975565	-0.294407	-0.233095
H170	H	1.475565	0.205593	0.266905
H171	H	1.124662	-0.274123	-0.399026
H172	H	1.624662	0.225877	0.100974
N173	N	1.327062	-0.834006	-0.715468
N174	N	1.827062	-0.334006	-0.215468
N175	N	1.266494	-0.813059	-0.775930
N176	N	1.766494	-0.313059	-0.275930
H177	H	1.217562	-0.829980	-0.824810
H178	H	1.717562	-0.329980	-0.324810
H179	H	1.654824	-0.472533	-0.387828
H180	H	2.154824	0.027467	0.112172
N181	N	1.131411	-0.137619	-0.452879
N182	N	1.631411	0.362381	0.047121
N183	N	1.188068	-0.117195	-0.387798
N184	N	1.688068	0.382805	0.112202
H185	H	1.214783	-0.086099	-0.404713
H186	H	1.714783	0.413901	0.095287
H187	H	1.668166	-0.263606	-0.918888
H188	H	2.168166	0.236394	-0.418888
H189	H	1.722912	-0.829101	-0.320193
H190	H	2.222912	-0.329101	0.179807
H191	H	0.940582	-0.170502	-0.650768
H192	H	1.440582	0.329498	-0.150768
N193	N	1.395016	-1.049825	-0.647762
N194	N	1.895016	-0.549825	-0.147762
N195	N	1.334446	-1.028879	-0.708223
N196	N	1.834446	-0.528879	-0.208223
H197	H	1.285506	-1.045800	-0.757096
H198	H	1.785506	-0.545800	-0.257096
H199	H	1.655225	-1.044941	-0.387958
H200	H	2.155225	-0.544941	0.112042
H201	H	1.123190	-0.168526	-0.645403
H202	H	1.623190	0.331474	-0.145403
H203	H	1.340973	-0.603284	-0.701402
H204	H	1.840973	-0.103284	-0.201402
N205	N	1.722618	-0.198612	-0.913029
N206	N	2.222618	0.301388	-0.413029
N207	N	1.798859	-0.212627	-0.859550
N208	N	2.298859	0.287373	-0.359550
H209	H	1.854637	-0.191007	-0.833727
H210	H	2.354637	0.308993	-0.333727
H211	H	1.418876	-0.159379	-0.920582
H212	H	1.918876	0.340621	-0.420582
N213	N	1.570744	-0.135003	-0.911288
N214	N	2.070744	0.364997	-0.411288
N215	N	1.624113	-0.112223	-0.974880
N216	N	2.124113	0.387777	-0.474880
H217	H	1.673321	-0.088161	-0.947764
H218	H	2.173321	0.411839	-0.447764
N219	N	1.578746	-0.136441	-1.108694
N220	N	2.078746	0.363559	-0.608694
N221	N	1.652983	-0.148283	-1.167667
N222	N	2.152983	0.351717	-0.667667
H223	H	1.706088	-0.125445	-1.193387
H224	H	2.206088	0.374555	-0.693387
H225	H	0.941597	-0.146356	-0.448207
H226	H	1.441597	0.353644	0.051793
H227	H	0.940171	-0.189419	-0.346601
H228	H	1.440171	0.310581	0.153399
H229	H	0.941747	-0.290427	-0.536408
H230	H	1.441747	0.209573	-0.036408
H231	H	1.341064	-0.744041	-0.701408
H232	H	1.841064	-0.244041	-0.201408
H233	H	1.124687	-0.226907	-0.686360
H234	H	1.624687	0.273093	-0.186360
H235	H	1.122856	-0.189597	-0.345753
H236	H	1.622856	0.310403	0.154247
H237	H	1.341017	-0.688392	-0.701414
H238	H	1.841017	-0.188392	-0.201414
H239	H	1.123160	-0.290432	-0.537689
H240	H	1.623160	0.209568	-0.037689
H241	H	0.942442	-0.229818	-0.683735
H242	H	1.442442	0.270182	-0.183735
N243	N	1.736802	-0.598379	-0.306079
N244	N	2.236802	-0.098379	0.193921
N245	N	1.797371	-0.619328	-0.245622
N246	N	2.297371	-0.119328	0.254378
H247	H	1.846306	-0.602409	-0.196742
H248	H	2.346306	-0.102409	0.303258
N249	N	1.736882	-0.693195	-0.306112
N250	N	2.236882	-0.193195	0.193888
N251	N	1.797418	-0.672227	-0.245644
N252	N	2.297418	-0.172227	0.254356
H253	H	1.846378	-0.689131	-0.196770
H254	H	2.346378	-0.189131	0.303230
H255	H	1.367112	-0.243054	-0.919945
H256	H	1.867112	0.256946	-0.419945
H257	H	1.655165	-0.959818	-0.387927
H258	H	2.155165	-0.459818	0.112073
N259	N	1.345501	-0.240943	-1.109568
N260	N	1.845501	0.259057	-0.609568
N261	N	1.269277	-0.264960	-1.082024
N262	N	1.769277	0.235040	-0.582024
H263	H	1.195669	-0.257912	-1.108135
H264	H	1.695669	0.242088	-0.608135
N265	N	1.394968	-0.955006	-0.647768
N266	N	1.894968	-0.455006	-0.147768
N267	N	1.334427	-0.975972	-0.708234
N268	N	1.834427	-0.475972	-0.208234
H269	H	1.285471	-0.959067	-0.757110
H270	H	1.785471	-0.459067	-0.257110
N271	N	1.473055	-0.294850	-1.111248
N272	N	1.973055	0.205150	-0.611248
N273	N	1.560447	-0.312485	-1.091340
N274	N	2.060447	0.187515	-0.591340
H275	H	1.576935	-0.343508	-1.118634
H276	H	2.076935	0.156492	-0.618634
H277	H	1.423538	-0.157071	-1.103193
H278	H	1.923538	0.342929	-0.603193
H279	H	1.408674	-0.472579	-0.633616
H280	H	1.908674	0.027421	-0.133616
H281	H	1.468704	-0.286331	-0.920719
H282	H	1.968704	0.213669	-0.420719
H283	H	1.408605	-0.387457	-0.633580
H284	H	1.908605	0.112543	-0.133580
H285	H	1.722855	-0.743983	-0.320162
H286	H	2.222855	-0.243983	0.179838
H287	H	1.667301	-0.264187	-1.100785
H288	H	2.167301	0.235813	-0.600785
H289	H	1.706571	-0.205328	-1.101872
H290	H	2.206571	0.294672	-0.601872
