data_functionalizedCrystal
_audit_creation_method	'MofGen! by Chris Wilmer'
_symmetry_space_group_name_H-M	'P1'
_symmetry_Int_Tables_number	1
_symmetry_cell_setting	triclinic
loop_
_symmetry_equiv_pos_as_xyz
  x,y,z
_cell_length_a	18.215407
_cell_length_b	18.215405
_cell_length_c	18.215399
_cell_angle_alpha	89.969030
_cell_angle_beta	89.980650
_cell_angle_gamma	90.025333
loop_
_atom_site_label
_atom_site_type_symbol
_atom_site_fract_x
_atom_site_fract_y
_atom_site_fract_z
Zn1	Zn	1.125068	-0.292980	-0.416103
Zn2	Zn	1.625068	0.207020	0.083897
Zn3	Zn	1.124978	-0.416052	-0.293031
Zn4	Zn	1.624978	0.083948	0.206969
Zn5	Zn	1.002002	-0.293005	-0.293050
Zn6	Zn	1.502002	0.206995	0.206950
Zn7	Zn	1.001967	-0.416010	-0.416056
Zn8	Zn	1.501967	0.083990	0.083944
O9	O	1.063504	-0.354512	-0.354560
O10	O	1.563504	0.145488	0.145440
O11	O	1.228041	-0.309313	-0.399788
O12	O	1.728041	0.190687	0.100212
O13	O	1.108642	-0.399758	-0.190049
O14	O	1.608642	0.100242	0.309951
O15	O	1.018380	-0.190017	-0.309401
O16	O	1.518380	0.309983	0.190599
O17	O	1.227974	-0.399733	-0.309368
O18	O	1.727974	0.100267	0.190632
O19	O	1.108796	-0.189999	-0.399807
O20	O	1.608796	0.310001	0.100193
O21	O	1.018292	-0.309355	-0.190063
O22	O	1.518292	0.190645	0.309937
O23	O	0.899013	-0.309315	-0.309355
O24	O	1.399013	0.190685	0.190645
O25	O	1.018320	-0.399662	-0.519046
O26	O	1.518320	0.100338	-0.019046
O27	O	0.898987	-0.399686	-0.399727
O28	O	1.398987	0.100314	0.100273
O29	O	1.108762	-0.309272	-0.519081
O30	O	1.608762	0.190728	-0.019081
O31	O	1.108608	-0.519031	-0.309322
O32	O	1.608608	-0.019031	0.190678
O33	O	1.018232	-0.519000	-0.399708
O34	O	1.518232	-0.019000	0.100292
C35	C	0.872298	-0.354499	-0.354539
C36	C	1.372298	0.145501	0.145461
C37	C	0.790499	-0.354512	-0.354547
C38	C	1.290499	0.145488	0.145453
C39	C	0.602311	-0.401642	-0.401544
C40	C	1.102311	0.098358	0.098456
C41	C	0.525452	-0.401644	-0.401554
C42	C	1.025452	0.098356	0.098446
C43	C	0.525449	-0.307395	-0.307591
C44	C	1.025449	0.192605	0.192409
C45	C	0.602306	-0.307390	-0.307586
C46	C	1.102306	0.192610	0.192414
C47	C	0.640735	-0.354517	-0.354562
C48	C	1.140735	0.145483	0.145438
C49	C	0.487019	-0.354525	-0.354576
C50	C	0.987019	0.145475	0.145424
C51	C	0.403685	-0.354527	-0.354585
C52	C	0.903685	0.145473	0.145415
C53	C	0.724074	-0.354514	-0.354553
C54	C	1.224074	0.145486	0.145447
C55	C	1.063426	-0.545718	-0.354524
C56	C	1.563426	-0.045718	0.145476
C57	C	1.063460	-0.627517	-0.354534
C58	C	1.563460	-0.127517	0.145466
C59	C	1.110629	-0.815702	-0.307556
C60	C	1.610629	-0.315702	0.192444
C61	C	1.110662	-0.892561	-0.307574
C62	C	1.610662	-0.392561	0.192426
C63	C	1.016473	-0.892569	-0.401616
C64	C	1.516473	-0.392569	0.098384
C65	C	1.016444	-0.815712	-0.401601
C66	C	1.516444	-0.315712	0.098399
C67	C	1.063521	-0.777280	-0.354567
C68	C	1.563521	-0.277280	0.145433
C69	C	1.063583	-0.930997	-0.354600
C70	C	1.563583	-0.430997	0.145400
C71	C	1.063618	-1.014330	-0.354619
C72	C	1.563618	-0.514330	0.145381
C73	C	1.063487	-0.693942	-0.354548
C74	C	1.563487	-0.193942	0.145452
C75	C	1.255457	-0.354525	-0.354581
C76	C	1.755457	0.145475	0.145419
C77	C	1.337256	-0.354531	-0.354591
C78	C	1.837256	0.145469	0.145409
C79	C	1.063547	-0.354460	-0.546513
C80	C	1.563547	0.145540	-0.046513
C81	C	1.063565	-0.354437	-0.628312
C82	C	1.563565	0.145563	-0.128312
C83	C	1.063602	-0.162559	-0.354611
C84	C	1.563602	0.337441	0.145389
C85	C	1.063644	-0.080760	-0.354633
C86	C	1.563644	0.419240	0.145367
C87	C	1.110686	-0.307308	-0.893389
C88	C	1.610686	0.192692	-0.393389
C89	C	1.110677	-0.307328	-0.816530
C90	C	1.610677	0.192672	-0.316530
C91	C	1.016505	-0.401460	-0.816483
C92	C	1.516505	0.098540	-0.316483
C93	C	1.016518	-0.401444	-0.893341
C94	C	1.516518	0.098556	-0.393341
C95	C	1.063607	-0.354363	-0.931791
C96	C	1.563607	0.145637	-0.431791
C97	C	1.063586	-0.354400	-0.778075
C98	C	1.563586	0.145600	-0.278075
C99	C	1.063576	-0.354422	-0.694742
C100	C	1.563576	0.145578	-0.194742
C101	C	1.063618	-0.354342	-1.015130
C102	C	1.563618	0.145658	-0.515130
C103	C	1.063503	-0.354511	-0.163353
C104	C	1.563503	0.145489	0.336647
C105	C	1.063627	-0.354326	-0.081555
C106	C	1.563627	0.145674	0.418445
H107	H	0.494170	-0.440017	-0.439813
H108	H	0.994170	0.059983	0.060187
C109	C	0.964702	-0.453239	-0.774181
C110	C	1.464702	0.046761	-0.274181
N111	N	0.925680	-0.492237	-0.742319
N112	N	1.425680	0.007763	-0.242319
C113	C	0.964634	-0.773445	-0.453335
C114	C	1.464634	-0.273445	0.046665
N115	N	0.925618	-0.741610	-0.492305
N116	N	1.425618	-0.241610	0.007695
H117	H	1.149014	-0.269012	-0.785265
H118	H	1.649014	0.230988	-0.285265
C119	C	0.964724	-0.453209	-0.935587
C120	C	1.464724	0.046791	-0.435587
N121	N	0.925715	-0.492199	-0.967406
N122	N	1.425715	0.007801	-0.467406
C123	C	1.162491	-0.255524	-0.935681
C124	C	1.662491	0.244476	-0.435681
N125	N	1.201515	-0.216522	-0.967534
N126	N	1.701515	0.283478	-0.467534
H127	H	0.494151	-0.269026	-0.269344
H128	H	0.994151	0.230974	0.230656
H129	H	0.633597	-0.440015	-0.439797
H130	H	1.133597	0.059985	0.060203
C131	C	0.644576	-0.255546	-0.255898
C132	C	1.144576	0.244454	0.244102
N133	N	0.676414	-0.216498	-0.216970
N134	N	1.176414	0.283502	0.283030
H135	H	1.149023	-0.923841	-0.269294
H136	H	1.649023	-0.423841	0.230706
C137	C	0.964682	-0.934851	-0.453342
C138	C	1.464682	-0.434851	0.046658
N139	N	0.925669	-0.966697	-0.492300
N140	N	1.425669	-0.466697	0.007700
C141	C	1.162420	-0.773431	-0.255822
C142	C	1.662420	-0.273431	0.244178
N143	N	1.201432	-0.741594	-0.216856
N144	N	1.701432	-0.241594	0.283144
