data_functionalizedCrystal
_audit_creation_method	'MofGen! by Chris Wilmer'
_symmetry_space_group_name_H-M	'P1'
_symmetry_Int_Tables_number	1
_symmetry_cell_setting	triclinic
loop_
_symmetry_equiv_pos_as_xyz
  x,y,z
_cell_length_a	18.101398
_cell_length_b	12.827892
_cell_length_c	12.827885
_cell_angle_alpha	89.970214
_cell_angle_beta	90.026581
_cell_angle_gamma	89.989341
loop_
_atom_site_label
_atom_site_type_symbol
_atom_site_fract_x
_atom_site_fract_y
_atom_site_fract_z
Zn1	Zn	1.132218	0.416114	0.591052
Zn2	Zn	1.132143	0.590892	0.416313
Zn3	Zn	1.008372	0.416151	0.416304
Zn4	Zn	1.008362	0.590800	0.590990
O5	O	1.070274	0.503489	0.503665
O6	O	1.235841	0.439322	0.567903
O7	O	1.115698	0.567766	0.270075
O8	O	1.024837	0.269910	0.439507
O9	O	1.235786	0.567730	0.439522
O10	O	1.115826	0.269883	0.567894
O11	O	1.024764	0.439384	0.270069
O12	O	0.904738	0.439295	0.439447
O13	O	1.024819	0.567573	0.737235
O14	O	0.904731	0.567609	0.567788
O15	O	1.115816	0.439233	0.737280
O16	O	1.115688	0.737115	0.439462
O17	O	1.024746	0.737048	0.567797
C18	C	1.070228	0.774999	0.503646
C19	C	1.070276	0.891152	0.503673
C20	C	0.877863	0.503447	0.503610
C21	C	0.795549	0.503454	0.503612
C22	C	1.070324	0.503389	0.776235
C23	C	1.070346	0.503346	0.892388
C24	C	0.496458	0.503519	0.503700
C25	C	0.527764	0.422384	0.423344
C26	C	0.613382	0.422602	0.423002
C27	C	0.644841	0.503486	0.503656
C28	C	0.613743	0.613571	0.473573
C29	C	0.528098	0.613120	0.473014
C30	C	0.528071	0.475526	0.614327
C31	C	0.613721	0.473075	0.613723
C32	C	0.728700	0.503474	0.503633
C33	C	0.412599	0.503538	0.503720
C34	C	1.263436	0.503532	0.503720
C35	C	1.345750	0.503551	0.503744
C36	C	1.070341	0.230919	0.503706
C37	C	1.070369	0.114766	0.503724
C38	C	1.115330	0.942936	0.440240
C39	C	1.115380	1.062986	0.440266
C40	C	1.070266	0.503514	0.232155
C41	C	1.070388	0.503262	0.116002
C42	C	1.115379	0.439827	0.944196
C43	C	1.115402	0.439781	1.064246
H44	H	0.634407	0.340969	0.441857
Br45	Br	0.494332	0.574021	0.714118
Br46	Br	1.179592	0.349207	0.869999
H47	H	1.031835	0.557650	1.071456
Br48	Br	1.006104	0.593926	0.966585
Br49	Br	1.179669	1.137203	0.349735
Br50	Br	0.493456	0.285902	0.454421
Br51	Br	0.491832	0.452854	0.287513
H52	H	1.153959	0.385403	1.108799
H53	H	0.633837	0.441108	0.341028
H54	H	1.153868	0.898395	0.385915
Br55	Br	0.494743	0.652683	0.338220
H56	H	0.634122	0.675643	0.530269
H57	H	0.635161	0.637720	0.393573
Br58	Br	0.493578	0.717291	0.566301
H59	H	0.506484	0.396649	0.641679
H60	H	0.634050	0.392065	0.636407
H61	H	1.031791	1.070241	0.558031
Br62	Br	0.649412	0.564394	0.718863
Br63	Br	1.006050	0.965382	0.594237
