data_functionalizedCrystal
_audit_creation_method	'MofGen! by Chris Wilmer'
_symmetry_space_group_name_H-M	'P1'
_symmetry_Int_Tables_number	1
_symmetry_cell_setting	triclinic
loop_
_symmetry_equiv_pos_as_xyz
  x,y,z
_cell_length_a	19.376997
_cell_length_b	27.440280
_cell_length_c	27.440280
_cell_angle_alpha	89.992545
_cell_angle_beta	111.037564
_cell_angle_gamma	68.963118
loop_
_atom_site_label
_atom_site_type_symbol
_atom_site_fract_x
_atom_site_fract_y
_atom_site_fract_z
Zr1	Zr	0.619875	0.579081	-0.045679
O2	O	0.738050	0.522146	0.011259
O3	O	0.501713	0.582050	-0.048649
O4	O	0.619880	0.602929	0.032136
O5	O	0.619875	0.501274	-0.149726
O6	O	0.619869	0.683130	0.032127
O7	O	0.619883	0.501266	-0.069526
O8	O	0.408490	0.645781	-0.112382
O9	O	0.831254	0.538623	-0.005216
O10	O	0.550302	0.660670	-0.067421
O11	O	0.550304	0.600822	-0.127268
O12	O	0.689430	0.625405	-0.032154
O13	O	0.689432	0.565557	-0.092000
Zr14	Zr	0.619844	0.707004	-0.173602
Zr15	Zr	0.619858	0.706992	-0.045691
Zr16	Zr	0.619862	0.579093	-0.173589
Zr17	Zr	0.768524	0.605361	-0.071955
Zr18	Zr	0.471195	0.680724	-0.147325
O19	O	0.738006	0.704035	-0.170631
O20	O	0.738026	0.704019	0.011241
O21	O	0.738031	0.522162	-0.170612
O22	O	0.501669	0.763939	-0.230539
O23	O	0.501689	0.763923	-0.048668
O24	O	0.501694	0.582066	-0.230521
O25	O	0.619845	0.784812	-0.069554
O26	O	0.619839	0.683156	-0.251416
O27	O	0.619850	0.602955	-0.251408
O28	O	0.619836	0.784819	-0.149755
O29	O	0.831240	0.640295	-0.005227
O30	O	0.408479	0.645790	-0.214053
O31	O	0.408465	0.747462	-0.214064
O32	O	0.408476	0.747453	-0.112392
O33	O	0.831243	0.538632	-0.106888
O34	O	0.831229	0.640305	-0.106898
O35	O	0.550289	0.660680	-0.187126
O36	O	0.550288	0.720528	-0.127280
O37	O	0.689416	0.685263	-0.092012
O38	O	0.689418	0.625416	-0.151859
C39	C	0.433922	0.610171	-0.076772
C40	C	0.370817	0.599015	-0.065617
C41	C	0.333226	0.548183	-0.014785
C42	C	0.392517	0.558670	-0.025271
C43	C	0.289810	0.628890	-0.095490
C44	C	0.230509	0.618411	-0.085008
C45	C	0.252224	0.578056	-0.044655
C46	C	0.149507	0.648284	-0.114879
C47	C	0.090211	0.637804	-0.104399
C48	C	0.111918	0.597450	-0.064049
C49	C	0.192928	0.567576	-0.034175
C50	C	0.127794	0.688636	-0.155234
C51	C	0.046792	0.718509	-0.185105
C52	C	-0.012506	0.708032	-0.174623
C53	C	0.009201	0.667678	-0.134273
C54	C	-0.093516	0.737906	-0.204496
C55	C	-0.152812	0.727425	-0.194017
C56	C	-0.050095	0.657197	-0.123793
C57	C	0.619882	0.483045	-0.109624
C58	C	0.619889	0.428744	-0.109618
C59	C	0.547223	0.110446	-0.128063
C60	C	0.547219	0.059427	-0.128068
O61	O	0.485455	0.048694	-0.143742
N62	N	0.619841	0.015502	-0.109658
C63	C	0.692473	0.022598	-0.091247
O64	O	0.754244	-0.019448	-0.075589
C65	C	0.692477	0.073617	-0.091246
C66	C	0.619849	0.117540	-0.109653
C67	C	0.474602	0.154368	-0.146469
C68	C	0.474606	0.205384	-0.146463
C69	C	0.547233	0.212478	-0.128052
C70	C	0.619854	0.168556	-0.109647
C71	C	0.765108	0.080712	-0.072840
C72	C	0.765105	0.131736	-0.072841
C73	C	0.692478	0.175659	-0.091247
C74	C	0.692485	0.226665	-0.091231
N75	N	0.619862	0.270590	-0.109641
C76	C	0.547236	0.263496	-0.128052
C77	C	0.692460	-0.084542	-0.091251
C78	C	0.692457	-0.135560	-0.091248
C79	C	0.547203	-0.098728	-0.128070
C80	C	0.547206	-0.047710	-0.128069
C81	C	0.619837	-0.040618	-0.109661
C82	C	0.547252	0.370631	-0.128038
C83	C	0.547263	0.421650	-0.128029
C84	C	0.692517	0.384813	-0.091210
C85	C	0.692506	0.333799	-0.091217
C86	C	0.619867	0.326711	-0.109634
O87	O	0.754217	0.237439	-0.075566
O88	O	0.485476	0.305546	-0.143714
C89	C	0.805797	0.675914	-0.142508
C90	C	0.868903	0.687070	-0.153664
C91	C	0.619877	0.643028	0.050356
C92	C	0.619883	0.643023	0.104657
C93	C	0.619838	0.803040	-0.109656
C94	C	0.619831	0.857341	-0.109662
C95	C	0.619866	0.598852	0.339356
C96	C	0.619866	0.598850	0.288335
O97	O	0.619844	0.561281	0.261943
N98	N	0.619866	0.643032	0.262817
C99	C	0.619856	0.687222	0.288319
O100	O	0.619855	0.724802	0.261928
C101	C	0.619850	0.687225	0.339336
C102	C	0.619859	0.643038	0.364855
C103	C	0.619874	0.554669	0.364874
C104	C	0.619875	0.554671	0.415891
C105	C	0.619868	0.598856	0.441390
C106	C	0.619860	0.643040	0.415872
C107	C	0.619835	0.731415	0.364836
C108	C	0.619828	0.731415	0.415857
C109	C	0.619837	0.687228	0.441375
C110	C	0.619854	0.687227	0.492388
N111	N	0.619855	0.643045	0.517907
C112	C	0.619862	0.598860	0.492408
C113	C	0.619868	0.687212	0.181177
C114	C	0.619880	0.687208	0.130162
C115	C	0.619888	0.598836	0.130182
C116	C	0.619882	0.598840	0.181200
C117	C	0.619869	0.643030	0.206696
C118	C	0.619865	0.598867	0.599547
C119	C	0.619869	0.598872	0.650570
C120	C	0.619856	0.687244	0.650544
C121	C	0.619856	0.687239	0.599528
C122	C	0.619858	0.643047	0.574030
O123	O	0.619873	0.724778	0.518812
O124	O	0.619853	0.561288	0.518802
C125	C	0.619849	0.643056	0.730365
C126	C	0.619862	0.643058	0.676069
C127	C	0.433901	0.770168	-0.076788
C128	C	0.370788	0.813314	-0.065638
C129	C	0.433905	0.610185	-0.236768
C130	C	0.370794	0.599034	-0.279914
C131	C	0.433884	0.770183	-0.236784
C132	C	0.370765	0.813333	-0.279935
C133	C	0.805836	0.515902	0.017504
C134	C	0.868955	0.472752	0.060655
C135	C	0.805819	0.515917	-0.142492
C136	C	0.868932	0.472772	-0.153642
C137	C	0.805814	0.675900	0.017488
C138	C	0.868926	0.687051	0.060634
C139	C	0.341157	0.802330	-0.029151
C140	C	0.281864	0.842866	-0.018664
C141	C	0.252199	0.894385	-0.044668
C142	C	0.281835	0.905369	-0.081157
C143	C	0.341131	0.864834	-0.091640
C144	C	0.341149	0.625043	-0.331427
C145	C	0.281857	0.614564	-0.371973
C146	C	0.252208	0.578079	-0.361005
C147	C	0.281859	0.552068	-0.309487
C148	C	0.341154	0.562544	-0.268943
C149	C	0.341123	0.864842	-0.268961
C150	C	0.281824	0.905392	-0.309503
C151	C	0.252165	0.894432	-0.361018
C152	C	0.281813	0.842918	-0.371993
C153	C	0.341114	0.802370	-0.331452
C154	C	0.898604	0.421244	0.049679
C155	C	0.957921	0.380697	0.090218
C156	C	0.987583	0.391658	0.141733
C157	C	0.957931	0.443171	0.152709
C158	C	0.898620	0.483718	0.112169
C159	C	0.898569	0.483757	-0.190125
C160	C	0.957878	0.443223	-0.200600
C161	C	0.987546	0.391705	-0.174595
C162	C	0.957906	0.380720	-0.138108
C163	C	0.898602	0.421254	-0.127631
C164	C	0.898556	0.723539	0.049650
C165	C	0.957848	0.734027	0.090187
C166	C	0.987512	0.708024	0.141706
C167	C	0.957876	0.671535	0.152690
C168	C	0.898581	0.661050	0.112154
H169	H	0.350910	0.515327	0.018079
H170	H	0.982053	0.338756	0.081272
H171	H	0.874418	0.525702	-0.211306
O172	O	0.249901	0.831014	0.020690
H173	H	0.222881	0.801471	0.007403
H174	H	1.035794	0.716566	0.174708
H175	H	0.982001	0.452177	-0.230312
O176	O	0.619889	0.507006	0.337376
H177	H	0.619900	0.476287	0.363702
H178	H	0.365241	0.760429	-0.340395
O179	O	1.051564	0.347925	0.185455
H180	H	1.067192	0.310268	0.169163
H181	H	0.982070	0.338769	-0.116938
H182	H	0.257722	0.635750	-0.413917
H183	H	0.488118	0.457413	-0.143019
O184	O	0.866630	0.409402	-0.088285
H185	H	0.897221	0.366766	-0.071970
O186	O	0.619904	0.551176	0.208721
H187	H	0.565609	0.543747	0.185166
O188	O	1.051487	0.347983	-0.185914
H189	H	1.067094	0.364280	-0.215662
H190	H	0.982038	0.650366	0.194642
O191	O	0.249830	0.960935	-0.109207
H192	H	0.203613	0.987270	-0.095788
O193	O	0.866631	0.539272	0.124012
H194	H	0.897219	0.540075	0.166647
O195	O	0.373156	0.746767	-0.001094
H196	H	0.323385	0.732777	-0.010338
H197	H	0.203878	0.927454	-0.394024
O198	O	0.866622	0.409417	-0.005883
H199	H	0.897219	0.366788	-0.006697
H200	H	0.257656	0.834002	-0.413942
O201	O	0.373113	0.876675	-0.213402
H202	H	0.323339	0.892660	-0.199416
H203	H	0.982090	0.452090	0.194657
O204	O	0.866558	0.751593	-0.005914
H205	H	0.897122	0.778732	-0.006732
H206	H	0.210612	0.534719	-0.001311
H207	H	0.257691	0.947334	-0.300557
H208	H	0.981971	0.763738	0.081233
H209	H	0.824249	0.044957	-0.057852
O210	O	0.866634	0.621687	0.124002
H211	H	0.897235	0.605366	0.166636
H212	H	0.824252	0.137505	-0.057858
H213	H	0.619864	0.562882	0.578792
H214	H	0.619863	0.723197	0.201936
H215	H	-0.032411	0.624341	-0.090929
O216	O	0.770837	0.286421	-0.071364
H217	H	0.821339	0.299927	-0.058563
O218	O	0.249877	0.512720	-0.297655
H219	H	0.222864	0.526001	-0.268108
H220	H	0.063633	0.588916	-0.055519
H221	H	0.272141	0.661746	-0.128347
O222	O	0.479890	0.526451	0.006952
H223	H	0.485023	0.496633	0.036774
H224	H	0.029122	0.751365	-0.217961
O225	O	0.191748	0.699944	-0.166535
H226	H	0.229562	0.664191	-0.177492
O227	O	0.373077	0.876681	-0.131004
H228	H	0.342475	0.919315	-0.147326
H229	H	0.751598	-0.171320	-0.076252
O230	O	-0.116933	0.781434	-0.248015
H231	H	-0.062092	0.783705	-0.250281
H232	H	0.488102	0.364868	-0.143036
O233	O	-0.240183	0.759647	-0.226228
H234	H	-0.245321	0.789473	-0.256044
H235	H	0.415457	0.148601	-0.161463
O236	O	0.396271	0.252755	-0.166318
H237	H	0.361449	0.251796	-0.208184
O238	O	0.468874	-0.000336	-0.147925
H239	H	0.418376	-0.013847	-0.160729
H240	H	0.488066	-0.104512	-0.143059
H241	H	0.751609	-0.078775	-0.076259
H242	H	0.365283	0.541364	-0.226999
O243	O	0.770849	0.392469	-0.071281
H244	H	0.758643	0.435325	-0.074351
H245	H	0.203927	0.569554	-0.394024
O246	O	0.619901	0.551202	0.678094
H247	H	0.565606	0.543771	0.654544
O248	O	0.619921	0.507003	0.443421
H249	H	0.619935	0.476280	0.417114
H250	H	0.619893	0.562859	0.109411
O251	O	0.619812	0.779080	0.337319
H252	H	0.674102	0.786512	0.360879
O253	O	0.619875	0.734865	0.102641
H254	H	0.619863	0.765589	0.128947
H255	H	0.619815	0.767401	0.436613
H256	H	0.619860	0.723217	0.578753
H257	H	0.619854	0.723219	0.671315
H258	H	0.203915	0.927386	-0.036127
H259	H	0.365283	0.654751	-0.340367
