data_functionalizedCrystal
_audit_creation_method	'MofGen! by Chris Wilmer'
_symmetry_space_group_name_H-M	'P1'
_symmetry_Int_Tables_number	1
_symmetry_cell_setting	triclinic
loop_
_symmetry_equiv_pos_as_xyz
  x,y,z
_cell_length_a	25.639242
_cell_length_b	25.639240
_cell_length_c	25.639233
_cell_angle_alpha	89.974071
_cell_angle_beta	89.985652
_cell_angle_gamma	90.025061
loop_
_atom_site_label
_atom_site_type_symbol
_atom_site_fract_x
_atom_site_fract_y
_atom_site_fract_z
Zn1	Zn	0.799247	-0.208322	-0.295607
Zn2	Zn	1.299247	0.291678	0.204393
Zn3	Zn	0.799179	-0.295741	-0.208160
Zn4	Zn	1.299179	0.204259	0.291840
Zn5	Zn	0.711823	-0.208309	-0.208183
Zn6	Zn	1.211823	0.291691	0.291817
Zn7	Zn	0.711777	-0.295716	-0.295562
Zn8	Zn	1.211777	0.204284	0.204438
O9	O	0.755506	-0.252022	-0.251878
O10	O	1.255506	0.247978	0.248122
O11	O	0.872403	-0.219933	-0.284016
O12	O	1.372403	0.280067	0.215984
O13	O	0.787582	-0.284148	-0.134998
O14	O	1.287582	0.215852	0.365002
O15	O	0.723467	-0.135146	-0.219808
O16	O	1.223467	0.364854	0.280192
O17	O	0.872353	-0.284160	-0.219770
O18	O	1.372353	0.215840	0.280230
O19	O	0.787697	-0.135155	-0.284038
O20	O	1.287697	0.364845	0.215962
O21	O	0.723402	-0.219912	-0.135015
O22	O	1.223402	0.280088	0.364985
O23	O	0.638652	-0.219889	-0.219765
O24	O	1.138652	0.280111	0.280235
O25	O	0.723389	-0.284118	-0.368733
O26	O	1.223389	0.215882	0.131267
O27	O	0.638618	-0.284106	-0.283962
O28	O	1.138618	0.215894	0.216038
O29	O	0.787653	-0.219910	-0.368766
O30	O	1.287653	0.280090	0.131234
O31	O	0.787538	-0.368903	-0.219726
O32	O	1.287538	0.131097	0.280274
O33	O	0.723324	-0.368885	-0.283940
O34	O	1.223324	0.131115	0.216060
C35	C	0.619664	-0.251994	-0.251861
C36	C	1.119664	0.248006	0.248139
C37	C	0.561550	-0.251994	-0.251866
C38	C	1.061550	0.248006	0.248134
C39	C	0.310390	-0.218639	-0.285392
C40	C	0.810390	0.281361	0.214608
C41	C	0.364994	-0.218634	-0.285389
C42	C	0.864994	0.281366	0.214611
O43	O	0.393260	-0.190251	-0.313891
O44	O	0.893260	0.309749	0.186109
N45	N	0.392276	-0.252016	-0.251884
N46	N	0.892276	0.247984	0.248116
C47	C	0.364950	-0.285409	-0.218383
C48	C	0.864950	0.214591	0.281617
O49	O	0.393169	-0.313803	-0.189885
O50	O	0.893169	0.186197	0.310115
C51	C	0.310347	-0.285417	-0.218389
C52	C	0.810347	0.214583	0.281611
C53	C	0.283068	-0.252028	-0.251893
C54	C	0.783068	0.247972	0.248107
C55	C	0.283112	-0.185254	-0.318894
C56	C	0.783112	0.314746	0.181106
C57	C	0.228511	-0.185258	-0.318896
C58	C	0.728511	0.314742	0.181104
C59	C	0.201189	-0.218648	-0.285397
C60	C	0.701189	0.281352	0.214603
C61	C	0.228468	-0.252033	-0.251895
C62	C	0.728468	0.247967	0.248105
C63	C	0.283022	-0.318812	-0.184892
C64	C	0.783022	0.181188	0.315108
C65	C	0.228415	-0.318817	-0.184901
C66	C	0.728415	0.181183	0.315099
C67	C	0.201136	-0.285429	-0.218405
C68	C	0.701136	0.214571	0.281595
C69	C	0.146545	-0.285427	-0.218398
C70	C	0.646545	0.214573	0.281602
N71	N	0.119264	-0.252045	-0.251904
N72	N	0.619264	0.247955	0.248096
C73	C	0.146586	-0.218655	-0.285403
C74	C	0.646586	0.281345	0.214597
C75	C	0.479621	-0.285392	-0.218374
C76	C	0.979621	0.214608	0.281626
C77	C	0.534223	-0.285382	-0.218365
C78	C	1.034223	0.214618	0.281635
C79	C	0.534264	-0.218607	-0.285372
C80	C	1.034264	0.281393	0.214628
C81	C	0.479660	-0.218614	-0.285378
C82	C	0.979660	0.281386	0.214622
C83	C	0.452339	-0.252010	-0.251879
C84	C	0.952339	0.247990	0.248121
C85	C	0.031921	-0.218667	-0.285404
C86	C	0.531921	0.281333	0.214596
C87	C	-0.022685	-0.218673	-0.285402
C88	C	0.477315	0.281327	0.214598
C89	C	-0.022721	-0.285450	-0.218397
C90	C	0.477279	0.214550	0.281603
C91	C	0.031880	-0.285442	-0.218398
C92	C	0.531880	0.214558	0.281602
C93	C	0.059199	-0.252049	-0.251905
C94	C	0.559199	0.247951	0.248095
O95	O	0.118245	-0.313797	-0.189913
O96	O	0.618245	0.186203	0.310087
O97	O	0.118360	-0.190271	-0.313902
O98	O	0.618360	0.309729	0.186098
C99	C	0.755432	-0.387865	-0.251837
C100	C	1.255432	0.112135	0.248163
C101	C	0.755449	-0.445979	-0.251837
C102	C	1.255449	0.054021	0.248163
C103	C	0.788967	-0.806308	-0.285383
C104	C	1.288967	-0.306308	0.214617
C105	C	0.788983	-0.860912	-0.285394
C106	C	1.288983	-0.360912	0.214606
O107	O	0.817394	-0.889120	-0.313874
O108	O	1.317394	-0.389120	0.186126
N109	N	0.755579	-0.888261	-0.251929
N110	N	1.255579	-0.388261	0.248071
C111	C	0.722154	-0.861003	-0.218455
C112	C	1.222154	-0.361003	0.281545
O113	O	0.693742	-0.889279	-0.189991
O114	O	1.193742	-0.389279	0.310009
C115	C	0.722136	-0.806399	-0.218447
C116	C	1.222136	-0.306399	0.281553
C117	C	0.755546	-0.779053	-0.251911
C118	C	1.255546	-0.279053	0.248089
C119	C	0.822374	-0.778962	-0.318844
C120	C	1.322374	-0.278962	0.181156
C121	C	0.822359	-0.724361	-0.318833
C122	C	1.322359	-0.224361	0.181167
C123	C	0.788938	-0.697107	-0.285360
C124	C	1.288938	-0.197107	0.214640
C125	C	0.755531	-0.724453	-0.251899
C126	C	1.255531	-0.224453	0.248101
C127	C	0.688708	-0.779142	-0.184976
C128	C	1.188708	-0.279142	0.315024
C129	C	0.688693	-0.724535	-0.184972
C130	C	1.188693	-0.224535	0.315028
C131	C	0.722103	-0.697189	-0.218435
C132	C	1.222103	-0.197189	0.281565
C133	C	0.722094	-0.642598	-0.218415
C134	C	1.222094	-0.142598	0.281585
N135	N	0.755498	-0.615249	-0.251880
N136	N	1.255498	-0.115249	0.248120
C137	C	0.788920	-0.642504	-0.285353
C138	C	1.288920	-0.142504	0.214647
C139	C	0.722193	-0.975673	-0.218474
C140	C	1.222193	-0.475673	0.281526
C141	C	0.722213	-1.030276	-0.218478
C142	C	1.222213	-0.530276	0.281522
C143	C	0.789041	-1.030181	-0.285418
C144	C	1.289041	-0.530181	0.214582
C145	C	0.789024	-0.975578	-0.285411
C146	C	1.289024	-0.475578	0.214589
C147	C	0.755597	-0.948324	-0.251939
C148	C	1.255597	-0.448324	0.248061
C149	C	0.788887	-0.527838	-0.285326
C150	C	1.288887	-0.027838	0.214674
C151	C	0.788870	-0.473233	-0.285310
C152	C	1.288870	0.026767	0.214690
C153	C	0.722040	-0.473332	-0.218372
C154	C	1.222040	0.026668	0.281628
C155	C	0.722058	-0.527933	-0.218386
C156	C	1.222058	-0.027933	0.281614
C157	C	0.755483	-0.555185	-0.251867
C158	C	1.255483	-0.055185	0.248133
O159	O	0.693697	-0.614355	-0.189951
O160	O	1.193697	-0.114355	0.310049
O161	O	0.817322	-0.614221	-0.313816
O162	O	1.317322	-0.114221	0.186184
C163	C	0.891879	-0.252051	-0.251895
C164	C	1.391879	0.247949	0.248105
C165	C	0.949993	-0.252063	-0.251903
C166	C	1.449993	0.247937	0.248097
C167	C	0.755523	-0.252013	-0.388251
C168	C	1.255523	0.247987	0.111749
C169	C	0.755530	-0.252009	-0.446365
C170	C	1.255530	0.247991	0.053635
C171	C	0.755595	-0.115649	-0.251931
C172	C	1.255595	0.384351	0.248069
C173	C	0.755632	-0.057535	-0.251953
C174	C	1.255632	0.442465	0.248047
C175	C	0.789035	-0.218476	-0.806751
C176	C	1.289035	0.281524	-0.306751
C177	C	0.789041	-0.218462	-0.861356
C178	C	1.289041	0.281538	-0.361356
O179	O	0.817486	-0.190013	-0.889612
O180	O	1.317486	0.309987	-0.389612
N181	N	0.755588	-0.251886	-0.888648
N182	N	1.255588	0.248114	-0.388648
C183	C	0.722122	-0.285324	-0.861333
C184	C	1.222122	0.214676	-0.361333
O185	O	0.693668	-0.313752	-0.889561
O186	O	1.193668	0.186248	-0.389561
C187	C	0.722114	-0.285335	-0.806730
C188	C	1.222114	0.214665	-0.306730
C189	C	0.755573	-0.251912	-0.779440
C190	C	1.255573	0.248088	-0.279440
C191	C	0.822491	-0.185056	-0.779462
C192	C	1.322491	0.314944	-0.279462
C193	C	0.822485	-0.185071	-0.724861
C194	C	1.322485	0.314929	-0.224861
C195	C	0.789023	-0.218507	-0.697550
C196	C	1.289023	0.281493	-0.197550
C197	C	0.755567	-0.251927	-0.724840
C198	C	1.255567	0.248073	-0.224840
C199	C	0.688646	-0.318770	-0.779416
C200	C	1.188646	0.181230	-0.279416
C201	C	0.688640	-0.318778	-0.724809
C202	C	1.188640	0.181222	-0.224809
C203	C	0.722099	-0.285355	-0.697519
C204	C	1.222099	0.214645	-0.197519
C205	C	0.722099	-0.285379	-0.642928
C206	C	1.222099	0.214621	-0.142928
N207	N	0.755552	-0.251954	-0.615636
N208	N	1.255552	0.248046	-0.115636
C209	C	0.789014	-0.218518	-0.642947
C210	C	1.289014	0.281482	-0.142947
C211	C	0.722143	-0.285296	-0.976004
C212	C	1.222143	0.214704	-0.476004
C213	C	0.722154	-0.285288	-1.030606
C214	C	1.222154	0.214712	-0.530606
C215	C	0.789072	-0.218425	-1.030625
C216	C	1.289072	0.281575	-0.530625
C217	C	0.789063	-0.218437	-0.976022
C218	C	1.289063	0.281563	-0.476022
C219	C	0.755596	-0.251872	-0.948712
C220	C	1.255596	0.248128	-0.448712
C221	C	0.789000	-0.218553	-0.528282
C222	C	1.289000	0.281447	-0.028282
C223	C	0.788992	-0.218573	-0.473676
C224	C	1.288992	0.281427	0.026324
C225	C	0.722072	-0.285434	-0.473662
C226	C	1.222072	0.214566	0.026338
C227	C	0.722081	-0.285416	-0.528263
C228	C	1.222081	0.214584	-0.028263
C229	C	0.755547	-0.251971	-0.555571
C230	C	1.255547	0.248029	-0.055571
O231	O	0.693668	-0.313812	-0.614637
O232	O	1.193668	0.186188	-0.114637
O233	O	0.817459	-0.190090	-0.614712
O234	O	1.317459	0.309910	-0.114712
C235	C	0.755520	-0.251993	-0.116036
C236	C	1.255520	0.248007	0.383964
C237	C	0.755614	-0.251850	-0.057922
C238	C	1.255614	0.248150	0.442078
H239	H	0.556429	-0.312565	-0.191077
H240	H	1.056429	0.187435	0.308923
C241	C	0.825805	-1.060167	-0.322242
C242	C	1.325805	-0.560167	0.177758
C243	C	0.866877	-1.097692	-0.299631
C244	C	1.366877	-0.597692	0.200369
C245	C	0.903638	-1.127679	-0.336452
C246	C	1.403638	-0.627679	0.163548
C247	C	0.899328	-1.120140	-0.395885
C248	C	1.399328	-0.620140	0.104115
C249	C	0.858254	-1.082614	-0.418499
C250	C	1.358254	-0.582614	0.081501
C251	C	0.821492	-1.052627	-0.381678
C252	C	1.321492	-0.552627	0.118322
H253	H	0.870069	-1.103274	-0.255633
H254	H	1.370069	-0.603274	0.244367
H255	H	0.934044	-1.155459	-0.319711
H256	H	1.434044	-0.655459	0.180289
H257	H	0.926541	-1.142338	-0.423142
H258	H	1.426541	-0.642338	0.076858
H259	H	0.855062	-1.077032	-0.462498
H260	H	1.355062	-0.577032	0.037502
H261	H	0.791087	-1.024847	-0.398419
H262	H	1.291087	-0.524847	0.101581
C263	C	-0.052783	-0.322179	-0.181552
C264	C	0.447217	0.177821	0.318448
C265	C	-0.090332	-0.299468	-0.140554
C266	C	0.409668	0.200532	0.359446
C267	C	-0.120396	-0.336201	-0.103712
C268	C	0.379604	0.163799	0.396288
C269	C	-0.112911	-0.395644	-0.107868
C270	C	0.387089	0.104356	0.392132
C271	C	-0.075360	-0.418358	-0.148868
C272	C	0.424640	0.081642	0.351132
C273	C	-0.045296	-0.381625	-0.185710
C274	C	0.454704	0.118375	0.314290
H275	H	-0.095874	-0.255462	-0.137476
H276	H	0.404126	0.244538	0.362524
H277	H	-0.148194	-0.319386	-0.073361
H278	H	0.351806	0.180614	0.426639
H279	H	-0.135166	-0.422836	-0.080596
H280	H	0.364834	0.077164	0.419404
H281	H	-0.069817	-0.462364	-0.151946
H282	H	0.430183	0.037636	0.348054
H283	H	-0.017498	-0.398440	-0.216061
H284	H	0.482502	0.101560	0.283939
H285	H	0.849563	-0.702100	-0.346083
H286	H	1.349563	-0.202100	0.153917
H287	H	0.054091	-0.312625	-0.191112
H288	H	0.554091	0.187375	0.308888
H289	H	0.816078	-0.450970	-0.312560
H290	H	1.316078	0.049030	0.187440
C291	C	0.061966	-0.181931	-0.322259
C292	C	0.561966	0.318069	0.177741
C293	C	0.099508	-0.140842	-0.299681
C294	C	0.599508	0.359158	0.200319
C295	C	0.129552	-0.104103	-0.336532
C296	C	0.629552	0.395897	0.163468
C297	C	0.122055	-0.108452	-0.395961
C298	C	0.622055	0.391548	0.104039
C299	C	0.084511	-0.149542	-0.418542
C300	C	0.584511	0.350458	0.081458
C301	C	0.054467	-0.186282	-0.381691
C302	C	0.554467	0.313718	0.118309
H303	H	0.105059	-0.137621	-0.255685
H304	H	0.605059	0.362379	0.244315
H305	H	0.157345	-0.073685	-0.319815
H306	H	0.657345	0.426315	0.180185
H307	H	0.144295	-0.081255	-0.423240
H308	H	0.644295	0.418745	0.076760
H309	H	0.078959	-0.152764	-0.462538
H310	H	0.578959	0.347236	0.037462
H311	H	0.026674	-0.216700	-0.398408
H312	H	0.526674	0.283300	0.101592
C313	C	0.685294	-0.322192	-0.558293
C314	C	1.185294	0.177808	-0.058293
C315	C	0.689538	-0.381631	-0.550777
C316	C	1.189538	0.118369	-0.050777
C317	C	0.652753	-0.418407	-0.580807
C318	C	1.152753	0.081593	-0.080807
C319	C	0.611725	-0.395743	-0.618351
C320	C	1.111725	0.104257	-0.118351
C321	C	0.607480	-0.336301	-0.625868
C322	C	1.107480	0.163699	-0.125868
C323	C	0.644264	-0.299525	-0.595839
C324	C	1.144264	0.200475	-0.095839
H325	H	0.719911	-0.398411	-0.522983
H326	H	1.219911	0.101589	-0.022983
H327	H	0.655896	-0.462411	-0.575242
H328	H	1.155896	0.037589	-0.075242
H329	H	0.584495	-0.422967	-0.640581
H330	H	1.084495	0.077033	-0.140581
H331	H	0.577106	-0.319521	-0.653663
H332	H	1.077106	0.180479	-0.153663
H333	H	0.641121	-0.255521	-0.601404
H334	H	1.141121	0.244479	-0.101404
C335	C	0.564326	-0.181882	-0.322226
C336	C	1.064326	0.318118	0.177774
C337	C	0.556847	-0.122437	-0.318082
C338	C	1.056847	0.377563	0.181918
C339	C	0.586912	-0.085715	-0.354933
C340	C	1.086912	0.414285	0.145067
C341	C	0.624456	-0.108438	-0.395929
C342	C	1.124456	0.391562	0.104071
C343	C	0.631937	-0.167886	-0.400076
C344	C	1.131937	0.332114	0.099924
C345	C	0.601872	-0.204608	-0.363224
C346	C	1.101872	0.295392	0.136776
H347	H	0.529053	-0.105614	-0.287732
H348	H	1.029053	0.394386	0.212268
H349	H	0.581374	-0.041708	-0.351864
H350	H	1.081374	0.458292	0.148136
H351	H	0.646712	-0.081254	-0.423209
H352	H	1.146712	0.418746	0.076791
H353	H	0.659731	-0.184709	-0.430425
H354	H	1.159731	0.315291	0.069575
H355	H	0.607410	-0.248615	-0.366294
H356	H	1.107410	0.251385	0.133706
C357	C	0.825771	-0.945500	-0.322224
C358	C	1.325771	-0.445500	0.177776
C359	C	0.866826	-0.907944	-0.299606
C360	C	1.366826	-0.407944	0.200394
C361	C	0.903574	-0.877869	-0.336422
C362	C	1.403574	-0.377869	0.163578
C363	C	0.899268	-0.885350	-0.395856
C364	C	1.399268	-0.385350	0.104144
C365	C	0.858211	-0.922908	-0.418477
C366	C	1.358211	-0.422908	0.081523
C367	C	0.821463	-0.952983	-0.381661
C368	C	1.321463	-0.452983	0.118339
H369	H	0.870015	-0.902404	-0.255607
H370	H	1.370015	-0.402404	0.244393
H371	H	0.933967	-0.850066	-0.319676
H372	H	1.433967	-0.350066	0.180324
H373	H	0.926471	-0.863087	-0.423109
H374	H	1.426471	-0.363087	0.076891
H375	H	0.855022	-0.928447	-0.462476
H376	H	1.355022	-0.428447	0.037524
H377	H	0.791071	-0.980785	-0.398407
H378	H	1.291071	-0.480785	0.101593
C379	C	0.313158	-0.148519	-0.355746
C380	C	0.813158	0.351481	0.144254
C381	C	0.305661	-0.152871	-0.415175
C382	C	0.805661	0.347129	0.084825
C383	C	0.335702	-0.116129	-0.452027
C384	C	0.835702	0.383871	0.047973
C385	C	0.373240	-0.075036	-0.429450
C386	C	0.873240	0.424964	0.070550
C387	C	0.380739	-0.070683	-0.370018
C388	C	0.880739	0.429317	0.129982
C389	C	0.350698	-0.107424	-0.333166
C390	C	0.850698	0.392576	0.166834
H391	H	0.277872	-0.183292	-0.431891
H392	H	0.777872	0.316708	0.068109
H393	H	0.330151	-0.119352	-0.496023
H394	H	0.830151	0.380648	0.003977
H395	H	0.395479	-0.047838	-0.456730
H396	H	0.895479	0.452162	0.043270
H397	H	0.408529	-0.040262	-0.353302
H398	H	0.908529	0.459738	0.146698
H399	H	0.356249	-0.104201	-0.289170
H400	H	0.856249	0.395799	0.210830
C401	C	0.449570	-0.322123	-0.181516
C402	C	0.949570	0.177877	0.318484
C403	C	0.457065	-0.317762	-0.122087
C404	C	0.957065	0.182238	0.377913
C405	C	0.427018	-0.354493	-0.085231
C406	C	0.927018	0.145507	0.414769
C407	C	0.389476	-0.395586	-0.107802
C408	C	0.889476	0.104414	0.392198
C409	C	0.381980	-0.399949	-0.167234
C410	C	0.881980	0.100051	0.332766
C411	C	0.412027	-0.363218	-0.204091
C412	C	0.912027	0.136782	0.295909
H413	H	0.484857	-0.287341	-0.105376
H414	H	0.984857	0.212659	0.394624
H415	H	0.432567	-0.351263	-0.041235
H416	H	0.932567	0.148737	0.458765
H417	H	0.367234	-0.422777	-0.080519
H418	H	0.867234	0.077223	0.419481
H419	H	0.354188	-0.430370	-0.183946
H420	H	0.854188	0.069630	0.316054
H421	H	0.406478	-0.366448	-0.248086
H422	H	0.906478	0.133552	0.251914
C423	C	0.198362	-0.355551	-0.148049
C424	C	0.698362	0.144449	0.351951
C425	C	0.205855	-0.351197	-0.088620
C426	C	0.705855	0.148803	0.411380
C427	C	0.175804	-0.387929	-0.051767
C428	C	0.675804	0.112071	0.448233
C429	C	0.138259	-0.429016	-0.074345
C430	C	0.638259	0.070984	0.425655
C431	C	0.130764	-0.433372	-0.133777
C432	C	0.630764	0.066628	0.366223
C433	C	0.160816	-0.396640	-0.170629
C434	C	0.660816	0.103360	0.329371
H435	H	0.233650	-0.320780	-0.071904
H436	H	0.733650	0.179220	0.428096
H437	H	0.181352	-0.384704	-0.007772
H438	H	0.681352	0.115296	0.492228
H439	H	0.116013	-0.456207	-0.047064
H440	H	0.616013	0.043793	0.452936
H441	H	0.102970	-0.463789	-0.150493
H442	H	0.602970	0.036211	0.349507
H443	H	0.155268	-0.399865	-0.214625
H444	H	0.655268	0.100135	0.285375
H445	H	0.694857	-0.550199	-0.191133
H446	H	1.194857	-0.050199	0.308867
C447	C	0.685352	-0.322056	-1.060623
C448	C	1.185352	0.177944	-0.560623
C449	C	0.644321	-0.299383	-1.098159
C450	C	1.144321	0.200617	-0.598159
C451	C	0.607516	-0.336149	-1.128175
C452	C	1.107516	0.163851	-0.628175
C453	C	0.611741	-0.395589	-1.120654
C454	C	1.111741	0.104411	-0.620654
C455	C	0.652774	-0.418266	-1.083116
C456	C	1.152774	0.081734	-0.583116
C457	C	0.689579	-0.381500	-1.053101
C458	C	1.189579	0.118500	-0.553101
H459	H	0.641192	-0.255379	-1.103728
H460	H	1.141192	0.244621	-0.603728
H461	H	0.577141	-0.319362	-1.155963
H462	H	1.077141	0.180638	-0.655963
H463	H	0.584496	-0.422806	-1.142873
H464	H	1.084496	0.077194	-0.642873
H465	H	0.655903	-0.462270	-1.077548
H466	H	1.155903	0.037730	-0.577548
H467	H	0.719954	-0.398287	-1.025313
H468	H	1.219954	0.101713	-0.525313
C469	C	0.825865	-0.181668	-0.946006
C470	C	1.325865	0.318332	-0.446006
C471	C	0.866896	-0.204336	-0.908466
C472	C	1.366896	0.295664	-0.408466
C473	C	0.903699	-0.167564	-0.878454
C474	C	1.403699	0.332436	-0.378454
C475	C	0.899471	-0.108125	-0.885981
C476	C	1.399471	0.391875	-0.385981
C477	C	0.858439	-0.085454	-0.923523
C478	C	1.358439	0.414546	-0.423523
C479	C	0.821636	-0.122226	-0.953535
C480	C	1.321636	0.377774	-0.453535
H481	H	0.870027	-0.248339	-0.902892
H482	H	1.370027	0.251661	-0.402892
H483	H	0.934074	-0.184347	-0.850663
H484	H	1.434074	0.315653	-0.350663
H485	H	0.926715	-0.080905	-0.863764
H486	H	1.426715	0.419095	-0.363764
H487	H	0.855308	-0.041451	-0.929096
H488	H	1.355308	0.458549	-0.429096
H489	H	0.791261	-0.105443	-0.981326
H490	H	1.291261	0.394557	-0.481326
C491	C	0.825656	-0.557811	-0.322152
C492	C	1.325656	-0.057811	0.177848
C493	C	0.885094	-0.550256	-0.317933
C494	C	1.385094	-0.050256	0.182067
C495	C	0.921866	-0.580228	-0.354756
C496	C	1.421866	-0.080228	0.145244
C497	C	0.899201	-0.617755	-0.395797
C498	C	1.399201	-0.117755	0.104203
C499	C	0.839761	-0.625311	-0.400017
C500	C	1.339761	-0.125311	0.099983
C501	C	0.802989	-0.595339	-0.363194
C502	C	1.302989	-0.095339	0.136806
H503	H	0.901874	-0.522475	-0.287551
H504	H	1.401874	-0.022475	0.212449
H505	H	0.965867	-0.574635	-0.351631
H506	H	1.465867	-0.074635	0.148369
H507	H	0.926422	-0.639942	-0.423055
H508	H	1.426422	-0.139942	0.076945
H509	H	0.822981	-0.653091	-0.430399
H510	H	1.322981	-0.153091	0.069601
H511	H	0.758987	-0.600932	-0.366318
H512	H	1.258987	-0.100932	0.133682
H513	H	0.206306	-0.158072	-0.346181
H514	H	0.706306	0.341928	0.153819
H515	H	0.457454	-0.191426	-0.312659
H516	H	0.957454	0.308574	0.187341
C517	C	0.685464	-1.060352	-0.181664
C518	C	1.185464	-0.560352	0.318336
C519	C	0.689769	-1.052874	-0.122230
C520	C	1.189769	-0.552874	0.377770
C521	C	0.653016	-1.082948	-0.085417
C522	C	1.153016	-0.582948	0.414583
C523	C	0.611959	-1.120499	-0.108039
C524	C	1.111959	-0.620499	0.391961
C525	C	0.607653	-1.127978	-0.167476
C526	C	1.107653	-0.627978	0.332524
C527	C	0.644406	-1.097905	-0.204289
C528	C	1.144406	-0.597905	0.295711
H529	H	0.720163	-1.025075	-0.105481
H530	H	1.220163	-0.525075	0.394519
H531	H	0.656204	-1.077411	-0.041417
H532	H	1.156204	-0.577411	0.458583
H533	H	0.584753	-1.142762	-0.080788
H534	H	1.084753	-0.642762	0.419212
H535	H	0.577259	-1.155778	-0.184225
H536	H	1.077259	-0.655778	0.315775
H537	H	0.641218	-1.103442	-0.248289
H538	H	1.141218	-0.603442	0.251711
H539	H	0.849590	-0.801147	-0.346105
H540	H	1.349590	-0.301147	0.153895
H541	H	0.694830	-0.451133	-0.191117
H542	H	1.194830	0.048867	0.308883
H543	H	0.305223	-0.346001	-0.157609
H544	H	0.805223	0.153999	0.342391
H545	H	0.694974	-0.953486	-0.191213
H546	H	1.194974	-0.453486	0.308787
H547	H	0.849730	-0.157853	-0.702647
H548	H	1.349730	0.342147	-0.202647
H549	H	0.661503	-0.801398	-0.157726
H550	H	1.161503	-0.301398	0.342274
H551	H	0.661471	-0.702348	-0.157715
H552	H	1.161471	-0.202348	0.342285
C553	C	0.825878	-0.181640	-1.060673
C554	C	1.325878	0.318360	-0.560673
C555	C	0.866914	-0.204295	-1.098215
C556	C	1.366914	0.295705	-0.598215
C557	C	0.903718	-0.167512	-1.128264
C558	C	1.403718	0.332488	-0.628264
C559	C	0.899487	-0.108076	-1.120771
C560	C	1.399487	0.391924	-0.620771
C561	C	0.858449	-0.085418	-1.083227
C562	C	1.358449	0.414582	-0.583227
C563	C	0.821645	-0.122201	-1.053178
C564	C	1.321645	0.377799	-0.553178
H565	H	0.870048	-0.248296	-1.103764
H566	H	1.370048	0.251704	-0.603764
H567	H	0.934097	-0.184285	-1.156057
H568	H	1.434097	0.315715	-0.656057
H569	H	0.926732	-0.080847	-1.143015
H570	H	1.426732	0.419153	-0.643015
H571	H	0.855316	-0.041417	-1.077679
H572	H	1.355316	0.458583	-0.577679
H573	H	0.791267	-0.105428	-1.025386
H574	H	1.291267	0.394572	-0.525386
C575	C	0.825814	-0.181768	-0.558316
C576	C	1.325814	0.318232	-0.058316
C577	C	0.885247	-0.186056	-0.550808
C578	C	1.385247	0.313944	-0.050808
C579	C	0.922064	-0.149274	-0.580842
C580	C	1.422064	0.350726	-0.080842
C581	C	0.899449	-0.108205	-0.618384
C582	C	1.399449	0.391795	-0.118384
C583	C	0.840014	-0.103915	-0.625893
C584	C	1.340014	0.396085	-0.125893
C585	C	0.803196	-0.140696	-0.595859
C586	C	1.303196	0.359304	-0.095859
H587	H	0.901991	-0.216460	-0.523016
H588	H	1.401991	0.283540	-0.023016
H589	H	0.966062	-0.152450	-0.575283
H590	H	1.466062	0.347550	-0.075283
H591	H	0.926703	-0.080977	-0.640617
H592	H	1.426703	0.419023	-0.140617
H593	H	0.823270	-0.073511	-0.653685
H594	H	1.323270	0.426489	-0.153685
H595	H	0.759198	-0.137521	-0.601418
H596	H	1.259198	0.362479	-0.101418
H597	H	0.816241	-0.191355	-0.451460
H598	H	1.316241	0.308645	0.048540
C599	C	0.685331	-0.322085	-0.945966
C600	C	1.185331	0.177915	-0.445966
C601	C	0.625898	-0.317807	-0.953477
C602	C	1.125898	0.182193	-0.453477
C603	C	0.589086	-0.354594	-0.923443
C604	C	1.089086	0.145406	-0.423443
C605	C	0.611707	-0.395659	-0.885900
C606	C	1.111707	0.104341	-0.385900
C607	C	0.671143	-0.399939	-0.878388
C608	C	1.171143	0.100061	-0.378388
C609	C	0.707955	-0.363151	-0.908421
C610	C	1.207955	0.136849	-0.408421
H611	H	0.609150	-0.287407	-0.981270
H612	H	1.109150	0.212593	-0.481270
H613	H	0.545087	-0.351426	-0.929004
H614	H	1.045087	0.148574	-0.429004
H615	H	0.584456	-0.422892	-0.863667
H616	H	1.084456	0.077108	-0.363667
H617	H	0.687891	-0.430339	-0.850594
H618	H	1.187891	0.069661	-0.350594
H619	H	0.751953	-0.366319	-0.902860
H620	H	1.251953	0.133681	-0.402860
H621	H	0.661380	-0.346000	-0.702576
H622	H	1.161380	0.154000	-0.202576
H623	H	0.849740	-0.157825	-0.801693
H624	H	1.349740	0.342175	-0.301693
C625	C	0.685268	-0.322210	-0.443608
C626	C	1.185268	0.177790	0.056392
C627	C	0.625833	-0.317929	-0.451099
C628	C	1.125833	0.182071	0.048901
C629	C	0.589027	-0.354702	-0.421041
C630	C	1.089027	0.145298	0.078959
C631	C	0.611657	-0.395758	-0.383492
C632	C	1.111657	0.104242	0.116508
C633	C	0.671095	-0.400041	-0.376000
C634	C	1.171095	0.099959	0.124000
C635	C	0.707901	-0.363267	-0.406058
C636	C	1.207901	0.136733	0.093942
H637	H	0.609079	-0.287535	-0.478896
H638	H	1.109079	0.212465	0.021104
H639	H	0.545027	-0.351531	-0.426588
H640	H	1.045027	0.148469	0.073412
H641	H	0.584411	-0.422980	-0.361242
H642	H	1.084411	0.077020	0.138758
H643	H	0.687849	-0.430434	-0.348203
H644	H	1.187849	0.069566	0.151797
H645	H	0.751901	-0.366439	-0.400511
H646	H	1.251901	0.133561	0.099489
H647	H	-0.044892	-0.191482	-0.312685
H648	H	0.455108	0.308518	0.187315
H649	H	0.661400	-0.345986	-0.801626
H650	H	1.161400	0.154014	-0.301626
