data_functionalizedCrystal
_audit_creation_method	'MofGen! by Chris Wilmer'
_symmetry_space_group_name_H-M	'P1'
_symmetry_Int_Tables_number	1
_symmetry_cell_setting	triclinic
loop_
_symmetry_equiv_pos_as_xyz
  x,y,z
_cell_length_a	12.837943
_cell_length_b	14.044220
_cell_length_c	11.295483
_cell_angle_alpha	94.468632
_cell_angle_beta	85.461227
_cell_angle_gamma	94.008909
loop_
_atom_site_label
_atom_site_type_symbol
_atom_site_fract_x
_atom_site_fract_y
_atom_site_fract_z
O1	O	1.404877	0.242691	-0.099010
O2	O	1.101936	0.230415	-0.099017
O3	O	1.248859	0.098158	-0.099002
O4	O	1.257954	0.374947	-0.099025
O5	O	1.235952	0.109755	0.099047
O6	O	1.089030	0.242012	0.099032
O7	O	1.391970	0.254287	0.099039
Cu8	Cu	1.239322	0.249208	0.117119
Cu9	Cu	1.254585	0.235494	-0.117097
O10	O	1.245048	0.386544	0.099024
C11	C	1.056479	0.232067	0.000007
C12	C	0.940259	0.219699	0.000005
C13	C	0.713048	0.368378	0.000009
C14	C	0.603848	0.356763	0.000008
C15	C	0.612656	0.184853	0.000010
C16	C	0.721856	0.196469	0.000011
C17	C	0.772048	0.288234	0.000009
C18	C	0.881251	0.299849	0.000002
C19	C	0.890056	0.127940	0.000012
C20	C	0.780856	0.116324	0.000011
C21	C	1.238424	0.068282	0.000023
C22	C	1.226550	-0.038016	0.000024
C23	C	1.204843	-0.232639	0.000007
C24	C	1.289060	-0.282665	0.000005
C25	C	1.276982	-0.390961	-0.000005
C26	C	1.216919	-0.124334	0.000016
C27	C	1.437428	0.252635	0.000012
C28	C	1.553649	0.265002	0.000007
C29	C	1.255482	0.416420	-0.000004
C30	C	1.267357	0.522717	-0.000013
N31	N	1.228594	0.258854	0.281854
N32	N	1.265320	0.225841	-0.281832
C33	C	1.342540	0.156351	0.531156
C34	C	1.334441	0.163648	0.655818
C35	C	1.204292	0.280740	0.655845
C36	C	1.212391	0.273443	0.531182
C37	C	1.281518	0.211247	0.468842
C38	C	1.289622	0.203956	0.344177
C39	C	1.159469	0.321042	0.344206
C40	C	1.151370	0.328339	0.468869
H41	H	0.555814	0.422025	0.000012
H42	H	1.370237	-0.244167	-0.000073
H43	H	1.123677	-0.271140	0.000002
H44	H	1.345912	0.153316	0.293420
O45	O	1.393670	0.110180	0.716221
C46	C	1.369883	0.012231	0.685790
H47	H	1.335481	0.003394	0.595286
H48	H	1.310553	-0.017944	0.755966
C49	C	1.512768	-0.031211	0.791170
C50	C	1.470523	-0.042065	0.680006
H51	H	1.574846	-0.064705	0.787607
H52	H	1.528792	0.034779	0.811676
H53	H	1.463318	-0.056356	0.849638
H54	H	1.519969	-0.016910	0.621544
H55	H	1.454510	-0.108052	0.659490
O56	O	0.761874	0.457481	-0.000208
C57	C	0.831481	0.463328	-0.102764
H58	H	0.805741	0.406855	-0.174452
H59	H	0.913912	0.450393	-0.079569
C60	C	0.862548	0.632835	-0.061234
C61	C	0.830929	0.563478	-0.149286
H62	H	0.862212	0.694613	-0.089929
H63	H	0.815656	0.628896	0.007863
H64	H	0.931238	0.622043	-0.041913
H65	H	0.762235	0.574263	-0.168594
H66	H	0.877809	0.567421	-0.218387
O67	O	1.084073	0.388640	0.529381
C68	C	0.981137	0.361940	0.498919
H69	H	0.975775	0.283359	0.464647
H70	H	0.960034	0.407903	0.426566
C71	C	0.911029	0.473350	0.651770
C72	C	0.904441	0.376833	0.609686
H73	H	0.863718	0.482541	0.720094
H74	H	0.980379	0.491341	0.672290
H75	H	0.893446	0.511641	0.591465
H76	H	0.922037	0.338545	0.669985
H77	H	0.835091	0.358836	0.589178
H78	H	1.398833	0.105716	0.480397
H79	H	1.148003	0.331371	0.706619
O80	O	1.100345	0.374423	0.283546
C81	C	1.166476	0.434275	0.211454
H82	H	1.245965	0.402532	0.192757
H83	H	1.176996	0.508373	0.259504
C84	C	1.019495	0.481429	0.116014
C85	C	1.117122	0.442437	0.093042
H86	H	0.989050	0.486468	0.042974
H87	H	0.974940	0.441109	0.164587
H88	H	1.028275	0.543173	0.156059
H89	H	1.108339	0.380689	0.053012
H90	H	1.161675	0.482747	0.044460
H91	H	0.922115	0.374569	0.000002
O92	O	0.563928	0.095710	0.000226
C93	C	0.586634	0.052250	0.102781
H94	H	0.609410	0.109929	0.174471
H95	H	0.654275	0.004040	0.079587
C96	C	0.461324	-0.078858	0.061245
C97	C	0.489289	-0.008015	0.149300
H98	H	0.401280	-0.116036	0.089939
H99	H	0.446029	-0.049581	-0.007851
H100	H	0.517700	-0.119023	0.041925
H101	H	0.432919	0.032156	0.168608
H102	H	0.504573	-0.037287	0.218400
O103	O	0.732060	0.027196	-0.000201
C104	C	0.675818	0.009347	-0.102757
H105	H	0.710898	0.057432	-0.174446
H106	H	0.590364	0.024993	-0.079564
C107	C	0.639344	-0.155301	-0.061223
C108	C	0.682436	-0.096247	-0.149277
H109	H	0.643421	-0.220436	-0.089917
H110	H	0.677232	-0.143275	0.007873
H111	H	0.568136	-0.142251	-0.041904
H112	H	0.753646	-0.109289	-0.168584
H113	H	0.644560	-0.108277	-0.218378
O114	O	0.947524	0.050186	0.000060
C115	C	1.054673	0.080110	0.000022
H116	H	1.063364	0.157758	0.037523
H117	H	1.092054	0.073778	-0.094996
C118	C	1.098809	-0.078909	0.031618
C119	C	1.109483	0.016458	0.077687
H120	H	1.132621	-0.118174	0.079520
H121	H	1.026622	-0.099070	0.031639
H122	H	1.129960	-0.084172	-0.047563
H123	H	1.078322	0.021721	0.156860
H124	H	1.181667	0.036619	0.077680
