data_functionalizedCrystal
_audit_creation_method	'MofGen! by Chris Wilmer'
_symmetry_space_group_name_H-M	'P1'
_symmetry_Int_Tables_number	1
_symmetry_cell_setting	triclinic
loop_
_symmetry_equiv_pos_as_xyz
  x,y,z
_cell_length_a	19.288864
_cell_length_b	15.995350
_cell_length_c	18.366186
_cell_angle_alpha	89.995992
_cell_angle_beta	89.977106
_cell_angle_gamma	83.314311
loop_
_atom_site_label
_atom_site_type_symbol
_atom_site_fract_x
_atom_site_fract_y
_atom_site_fract_z
O1	O	0.921624	0.104451	-0.060780
O2	O	0.719400	0.118542	-0.060729
O3	O	0.826040	-0.010412	-0.060755
O4	O	0.814984	0.233405	-0.060754
O5	O	0.826022	-0.010418	0.060344
O6	O	0.719382	0.118535	0.060370
O7	O	0.921606	0.104445	0.060320
Zn8	Zn	0.820491	0.111489	0.079572
Zn9	Zn	0.820515	0.111498	-0.079982
O10	O	0.814966	0.233399	0.060346
C11	C	0.693513	0.118085	-0.000173
C12	C	0.616406	0.116724	-0.000154
C13	C	0.825574	-0.041608	-0.000207
C14	C	0.824203	-0.134553	-0.000211
C15	C	0.571906	0.192388	-0.000165
C16	C	0.499456	0.191110	-0.000173
C17	C	0.471508	0.114163	-0.000185
C18	C	0.516018	0.038489	-0.000170
C19	C	0.588467	0.039769	-0.000155
C20	C	0.363096	0.053676	-0.042636
C21	C	0.290648	0.052398	-0.042656
C22	C	0.248053	0.110209	-0.000229
C23	C	0.277912	0.169312	0.042208
C24	C	0.350361	0.170593	0.042224
C25	C	0.392951	0.112765	-0.000201
C26	C	0.124993	0.184492	-0.000248
C27	C	0.052542	0.183210	-0.000251
C28	C	0.069106	0.030587	-0.000255
C29	C	0.141556	0.031871	-0.000244
C30	C	0.169495	0.108826	-0.000244
C31	C	0.819282	-0.472282	-0.000207
C32	C	0.743335	-0.424562	-0.000460
C33	C	0.744706	-0.327877	-0.000187
C34	C	0.821723	-0.304731	-0.000209
C35	C	0.859173	-0.345953	0.068934
C36	C	0.857265	-0.442582	0.068992
C37	C	0.858854	-0.442939	-0.068721
C38	C	0.858836	-0.345993	-0.069635
C39	C	0.823107	-0.210039	-0.000208
C40	C	0.817901	-0.566975	-0.000203
C41	C	0.947492	0.104902	-0.000238
C42	C	1.024600	0.106263	-0.000262
C43	C	0.815432	0.264595	-0.000204
C44	C	0.816802	0.357540	-0.000206
N45	N	0.820480	0.111483	0.188463
N46	N	0.820531	0.111497	-0.188873
C47	C	0.867715	0.054410	0.226552
C48	C	0.867720	0.054407	0.302780
C49	C	0.820495	0.111490	0.340916
C50	C	0.773250	0.168567	0.302818
C51	C	0.773243	0.168564	0.226591
C52	C	0.811395	0.187781	0.461678
C53	C	0.811407	0.187785	0.537903
C54	C	0.820515	0.111500	0.576023
C55	C	0.829624	0.035208	0.537909
C56	C	0.829617	0.035204	0.461683
C57	C	0.820498	0.111500	0.423571
C58	C	0.867758	0.054419	0.696767
C59	C	0.867757	0.054414	0.772996
C60	C	0.773292	0.168582	0.773033
C61	C	0.773289	0.168579	0.696805
C62	C	0.820525	0.111499	0.658677
H63	H	0.463217	0.252727	-0.000180
N64	N	0.189550	-0.049744	-0.000244
H65	H	0.220004	-0.052613	-0.045129
H66	H	0.219908	-0.052572	0.044684
H67	H	0.734798	0.215044	0.333872
N68	N	0.703126	-0.448956	-0.066131
H69	H	0.688271	-0.397267	-0.096422
H70	H	0.733784	-0.491197	-0.096302
N71	N	0.839465	-0.047081	0.579008
H72	H	0.800866	-0.081886	0.565765
H73	H	0.886060	-0.078907	0.565694
N74	N	0.231974	0.231660	0.087976
H75	H	0.245403	0.224080	0.140917
H76	H	0.238209	0.290771	0.072084
N77	N	0.821073	-0.466700	0.137474
H78	H	0.806505	-0.414586	0.167339
H79	H	0.778444	-0.494491	0.124027
N80	N	0.839440	-0.047077	0.420576
H81	H	0.838055	-0.035499	0.366504
H82	H	0.886010	-0.078946	0.433879
N83	N	0.485873	-0.044501	-0.000177
H84	H	0.456210	-0.048434	-0.045075
H85	H	0.525097	-0.092196	-0.000138
H86	H	0.915755	-0.332041	0.071489
N87	N	0.918659	-0.007155	0.185428
H88	H	0.948583	-0.043312	0.221129
H89	H	0.892068	-0.044094	0.153821
N90	N	0.824695	-0.308247	0.137113
H91	H	0.849161	-0.335182	0.181309
H92	H	0.827782	-0.245654	0.137834
N93	N	0.602030	0.275392	-0.000155
H94	H	0.631693	0.279328	0.044744
H95	H	0.631711	0.279284	-0.045069
N96	N	0.801578	0.270067	0.420568
H97	H	0.802953	0.258490	0.366496
H98	H	0.755013	0.301946	0.433913
H99	H	0.734838	0.215057	0.804083
H100	H	0.016310	0.244828	-0.000256
N101	N	0.931119	-0.485585	0.073132
H102	H	0.964769	-0.441745	0.074915
H103	H	0.936671	-0.521493	0.118457
N104	N	0.933027	-0.485282	-0.069354
H105	H	0.966402	-0.441123	-0.067745
H106	H	0.940919	-0.523289	-0.025498
H107	H	0.624700	-0.021848	-0.000146
H108	H	0.906219	0.007938	0.665722
H109	H	0.046352	-0.032065	-0.000310
N110	N	0.722301	0.230128	0.185501
H111	H	0.691550	0.198223	0.153892
H112	H	0.692428	0.266277	0.221266
N113	N	0.825980	-0.470017	-0.138143
H114	H	0.785098	-0.501586	-0.125881
H115	H	0.809253	-0.418697	-0.168147
N116	N	0.409036	-0.008683	-0.088397
H117	H	0.379128	-0.046312	-0.115287
H118	H	0.435772	0.022662	-0.124628
H119	H	0.803994	0.249907	0.568929
N120	N	0.822615	-0.309706	-0.137395
H121	H	0.782334	-0.266714	-0.123189
H122	H	0.856817	-0.281834	-0.168093
H123	H	0.374670	0.218714	0.076780
H124	H	0.906186	0.007929	0.333798
H125	H	0.906220	0.007934	0.804009
N126	N	0.933236	-0.325936	-0.075192
H127	H	0.933657	-0.262953	-0.078277
H128	H	0.960138	-0.348211	-0.030740
N129	N	0.705438	-0.290810	0.065599
H130	H	0.655522	-0.303973	0.063486
H131	H	0.728373	-0.315865	0.111307
N132	N	0.155137	0.267487	-0.000235
H133	H	0.184848	0.271424	-0.045122
H134	H	0.115912	0.315180	-0.000209
H135	H	0.715267	-0.299341	-0.049751
N136	N	0.258443	-0.011343	-0.088424
H137	H	0.270238	-0.003329	-0.141361
H138	H	0.277446	-0.070001	-0.072515
N139	N	0.703289	-0.450360	0.064871
H140	H	0.734129	-0.492825	0.094630
H141	H	0.688139	-0.399194	0.095699
N142	N	0.722341	0.230136	0.655717
H143	H	0.692423	0.266298	0.691441
H144	H	0.748923	0.267072	0.624071
