data_functionalizedCrystal
_audit_creation_method	'MofGen! by Chris Wilmer'
_symmetry_space_group_name_H-M	'P1'
_symmetry_Int_Tables_number	1
_symmetry_cell_setting	triclinic
loop_
_symmetry_equiv_pos_as_xyz
  x,y,z
_cell_length_a	27.780882
_cell_length_b	27.780884
_cell_length_c	27.780936
_cell_angle_alpha	59.997472
_cell_angle_beta	90.001550
_cell_angle_gamma	119.999789
loop_
_atom_site_label
_atom_site_type_symbol
_atom_site_fract_x
_atom_site_fract_y
_atom_site_fract_z
O1	O	0.410270	-0.344534	0.014321
O2	O	0.340273	-0.245964	-0.014251
O3	O	0.340270	-0.344533	0.084319
O4	O	0.410274	-0.245965	-0.084248
O5	O	0.260210	-0.424592	0.084318
O6	O	0.260214	-0.326023	-0.014251
O7	O	0.330211	-0.424594	0.014321
Cu8	Cu	0.287902	-0.382618	0.000035
Cu9	Cu	0.382582	-0.287939	0.000035
O10	O	0.330214	-0.326025	-0.084249
C11	C	0.207596	-0.090567	-0.029862
C12	C	0.237299	-0.031162	-0.025773
C13	C	0.149664	-0.119397	-0.030268
C14	C	0.207598	-0.177730	-0.029868
C15	C	0.237303	-0.211520	-0.025784
C16	C	0.149666	-0.206427	-0.030273
C17	C	0.120430	-0.177734	-0.029862
C18	C	0.056934	-0.211526	-0.025772
C19	C	0.236700	-0.119393	-0.030273
C20	C	0.005636	-0.238828	-0.022467
C21	C	0.261296	0.016831	-0.022467
C22	C	0.261301	-0.238819	-0.022483
C23	C	-0.058720	-0.273079	-0.018321
C24	C	0.291401	0.077041	-0.018322
C25	C	0.291408	-0.273066	-0.018343
O26	O	-0.249047	-0.424605	0.014340
O27	O	-0.080481	-0.326036	-0.014230
O28	O	-0.179042	-0.424608	0.084339
O29	O	-0.150485	-0.326033	-0.084229
O30	O	-0.179044	-0.344552	0.084344
O31	O	-0.080483	-0.245979	-0.014225
O32	O	-0.249049	-0.344549	0.014344
Cu33	Cu	-0.164766	-0.287954	0.000060
Cu34	Cu	-0.164764	-0.382630	0.000055
O35	O	-0.150487	-0.245976	-0.084224
C36	C	0.462884	-0.177727	-0.372327
C37	C	0.433180	-0.211519	-0.402029
C38	C	0.520815	-0.119388	-0.401431
C39	C	0.462885	-0.177726	-0.285161
C40	C	0.433181	-0.211517	-0.221665
C41	C	0.520816	-0.119388	-0.314397
C42	C	0.550051	-0.090560	-0.372329
C43	C	0.613546	-0.031152	-0.402033
C44	C	0.433781	-0.206422	-0.314395
C45	C	0.664844	0.016842	-0.426031
C46	C	0.409182	-0.238820	-0.426025
C47	C	0.409184	-0.238818	-0.170367
C48	C	0.729200	0.077053	-0.456138
C49	C	0.379076	-0.273070	-0.456130
C50	C	0.379079	-0.273067	-0.106011
C51	C	0.550044	-0.492843	0.029965
C52	C	0.613538	-0.459053	0.025879
C53	C	0.520808	-0.551182	0.030373
C54	C	0.462879	-0.492840	0.029960
C55	C	0.433176	-0.459047	0.025869
C56	C	0.433776	-0.551179	0.030369
C57	C	0.462878	-0.580009	0.029964
C58	C	0.433174	-0.639417	0.025878
C59	C	0.520809	-0.464146	0.030369
C60	C	0.409177	-0.687412	0.022575
C61	C	0.664836	-0.431753	0.022576
C62	C	0.409180	-0.431744	0.022562
C63	C	0.379071	-0.747624	0.018433
C64	C	0.729190	-0.397505	0.018434
C65	C	0.379075	-0.397492	0.018415
O66	O	0.330206	0.234705	0.014343
O67	O	0.260205	0.094709	-0.014226
O68	O	0.260208	0.094700	0.084342
O69	O	0.330203	0.234713	-0.084225
O70	O	0.340270	0.094703	0.084337
O71	O	0.340266	0.094711	-0.014231
O72	O	0.410267	0.234707	0.014338
Cu73	Cu	0.382577	0.164709	0.000053
Cu74	Cu	0.287895	0.164706	0.000059
O75	O	0.410264	0.234716	-0.084231
O76	O	0.919528	0.234725	-0.494947
O77	O	0.750963	0.094724	-0.424943
O78	O	0.849525	0.094720	-0.424940
O79	O	0.820966	0.234728	-0.494951
O80	O	0.849523	0.094718	-0.504999
O81	O	0.750961	0.094722	-0.505002
O82	O	0.919526	0.234723	-0.575006
Cu83	Cu	0.835243	0.164722	-0.547314
Cu84	Cu	0.835246	0.164724	-0.452635
O85	O	0.820964	0.234726	-0.575009
O86	O	0.340270	-0.344533	-0.574994
O87	O	0.410271	-0.245968	-0.504995
O88	O	0.410269	-0.344536	-0.504989
O89	O	0.340272	-0.245965	-0.574999
O90	O	0.330209	-0.424596	-0.424929
O91	O	0.330210	-0.326029	-0.424934
O92	O	0.260210	-0.424593	-0.494933
Cu93	Cu	0.287900	-0.382621	-0.452624
Cu94	Cu	0.382580	-0.287940	-0.547304
O95	O	0.260211	-0.326026	-0.494939
C96	C	0.120431	-0.580000	0.372398
C97	C	0.056936	-0.639407	0.402102
C98	C	0.149667	-0.551172	0.401501
C99	C	0.207598	-0.492833	0.285231
C100	C	0.237302	-0.459041	0.221736
C101	C	0.236701	-0.464137	0.314466
C102	C	0.207598	-0.492833	0.372397
C103	C	0.237302	-0.459042	0.402100
C104	C	0.149667	-0.551171	0.314467
C105	C	0.261299	-0.431741	0.426097
C106	C	0.005638	-0.687401	0.426100
C107	C	0.261299	-0.431740	0.170437
C108	C	0.291405	-0.397491	0.456202
C109	C	-0.058718	-0.747613	0.456206
C110	C	0.291405	-0.397490	0.106081
C111	C	-0.194662	-0.492867	0.372424
C112	C	-0.190574	-0.459078	0.402130
C113	C	-0.195067	-0.551205	0.401525
C114	C	-0.194664	-0.492861	0.285255
C115	C	-0.190579	-0.459066	0.221759
C116	C	-0.195069	-0.551199	0.314488
C117	C	-0.194660	-0.580030	0.372420
C118	C	-0.190570	-0.639437	0.402122
C119	C	-0.195071	-0.464168	0.314492
C120	C	-0.187264	-0.687431	0.426117
C121	C	-0.187270	-0.431780	0.426129
C122	C	-0.187277	-0.431762	0.170460
C123	C	-0.183118	-0.747643	0.456221
C124	C	-0.183126	-0.397533	0.456237
C125	C	-0.183135	-0.397509	0.106104
C126	C	-0.134870	-0.090557	-0.372306
C127	C	-0.138960	-0.031149	-0.402008
C128	C	-0.134463	-0.119382	-0.401410
C129	C	-0.134866	-0.177726	-0.285140
C130	C	-0.138951	-0.211520	-0.221644
C131	C	-0.134459	-0.206419	-0.314377
C132	C	-0.134868	-0.177721	-0.372309
C133	C	-0.138956	-0.211509	-0.402014
C134	C	-0.134461	-0.119387	-0.314374
C135	C	-0.142260	-0.238808	-0.426013
C136	C	-0.142266	0.016845	-0.426004
C137	C	-0.142253	-0.238823	-0.170345
C138	C	-0.146404	-0.273055	-0.456120
C139	C	-0.146412	0.077056	-0.456108
C140	C	-0.146394	-0.273076	-0.105989
C141	C	0.207598	-0.177788	0.372409
C142	C	0.237303	-0.211581	0.402109
C143	C	0.149666	-0.206489	0.401514
C144	C	0.207597	-0.090611	0.285248
C145	C	0.237301	-0.031194	0.221754
C146	C	0.149665	-0.119445	0.314485
C147	C	0.120430	-0.177791	0.372415
C148	C	0.056934	-0.211588	0.402120
C149	C	0.236701	-0.119441	0.314480
C150	C	0.005636	-0.238893	0.426118
C151	C	0.261301	-0.238884	0.426102
C152	C	0.261298	0.016807	0.170457
C153	C	-0.058720	-0.273148	0.456225
C154	C	0.291407	-0.273135	0.456204
C155	C	0.291404	0.077028	0.106102
O156	O	-0.150447	-0.326068	0.575099
O157	O	-0.179029	-0.424636	0.505101
O158	O	-0.080457	-0.326067	0.505088
O159	O	-0.249019	-0.424637	0.575111
O160	O	-0.080467	-0.246008	0.425031
O161	O	-0.179038	-0.344577	0.425044
O162	O	-0.150456	-0.246009	0.495042
Cu163	Cu	-0.164748	-0.287983	0.452733
Cu164	Cu	-0.164737	-0.382662	0.547409
O165	O	-0.249028	-0.344578	0.495054
C166	C	0.550043	0.507206	-0.372303
C167	C	0.613538	0.541003	-0.402008
C168	C	0.520807	0.535905	-0.401402
C169	C	0.462876	0.420027	-0.285136
C170	C	0.433172	0.360610	-0.221642
C171	C	0.433772	0.448858	-0.314368
C172	C	0.462875	0.507204	-0.372297
C173	C	0.433171	0.540998	-0.401996
C174	C	0.520807	0.448860	-0.314373
C175	C	0.409173	0.568301	-0.425990
C176	C	0.664837	0.568308	-0.426006
C177	C	0.409174	0.312608	-0.170345
C178	C	0.379066	0.602553	-0.456091
C179	C	0.729192	0.602563	-0.456114
C180	C	0.379069	0.252387	-0.105990
H181	H	0.126197	-0.253370	-0.030929
H182	H	0.284299	-0.095314	0.291008
H183	H	-0.133852	-0.095291	-0.290887
C184	C	0.369472	-0.583781	0.031261
C185	C	0.337322	-0.648091	0.031719
C186	C	0.273019	-0.680696	0.032616
C187	C	0.240866	-0.648990	0.033056
C188	C	0.273016	-0.584676	0.032598
C189	C	0.337319	-0.552072	0.031701
H190	H	0.361124	-0.671565	0.031394
H191	H	0.249220	-0.728305	0.032955
H192	H	0.193266	-0.673126	0.033720
H193	H	0.249214	-0.561202	0.032923
H194	H	0.361118	-0.504462	0.031362
C195	C	0.117951	-0.086810	-0.031147
C196	C	0.150094	-0.022517	-0.031579
C197	C	0.118380	0.010066	-0.032456
C198	C	0.054523	-0.021644	-0.032902
C199	C	0.022377	-0.085941	-0.032470
C200	C	0.054091	-0.118524	-0.031592
H201	H	0.197368	0.000960	-0.031249
H202	H	0.142177	0.057663	-0.032776
H203	H	0.031047	0.002475	-0.033551
H204	H	-0.024897	-0.109418	-0.032799
H205	H	0.030294	-0.166121	-0.031272
H206	H	0.544282	-0.575308	0.031030
H207	H	0.386173	0.424725	-0.290891
C208	C	-0.133586	-0.086796	-0.465711
C209	C	-0.082233	-0.060870	-0.514209
C210	C	-0.081359	-0.028290	-0.578506
C211	C	-0.131837	-0.021637	-0.594305
C212	C	-0.183194	-0.047564	-0.545806
C213	C	-0.184068	-0.080144	-0.481509
H214	H	-0.044862	-0.065794	-0.502515
H215	H	-0.043341	-0.009097	-0.614409
H216	H	-0.131190	0.002480	-0.641902
H217	H	-0.220565	-0.042640	-0.557500
H218	H	-0.222086	-0.099337	-0.445606
C219	C	0.552524	0.599354	-0.465691
C220	C	0.616393	0.631094	-0.497837
C221	C	0.648114	0.694552	-0.562118
C222	C	0.615964	0.726271	-0.594253
C223	C	0.552091	0.694531	-0.562107
C224	C	0.520371	0.631073	-0.497826
H225	H	0.640195	0.607614	-0.474049
H226	H	0.695397	0.718048	-0.585914
H227	H	0.639445	0.773246	-0.641837
H228	H	0.528289	0.718011	-0.585895
H229	H	0.473088	0.607578	-0.474030
C230	C	0.369468	-0.269814	-0.282695
C231	C	0.337307	-0.301512	-0.314848
C232	C	0.272990	-0.364890	-0.283153
C233	C	0.240835	-0.396570	-0.219307
C234	C	0.272996	-0.364871	-0.187151
C235	C	0.337312	-0.301493	-0.218845
H236	H	0.361110	-0.278062	-0.362114
H237	H	0.249183	-0.388355	-0.306958
H238	H	0.193224	-0.443485	-0.195845
H239	H	0.249192	-0.388322	-0.139885
H240	H	0.361119	-0.278029	-0.195041
H241	H	-0.195733	-0.575327	0.291016
H242	H	0.544280	-0.095256	-0.449033
H243	H	0.544287	0.424743	-0.290902
H244	H	-0.195726	-0.417223	0.291024
H245	H	-0.133802	-0.253362	-0.290904
C246	C	0.552513	-0.400733	0.031259
C247	C	0.616370	-0.369021	0.031701
C248	C	0.648070	-0.305612	0.032594
C249	C	0.615912	-0.273916	0.033045
C250	C	0.552050	-0.305627	0.032602
C251	C	0.520351	-0.369036	0.031710
H252	H	0.640179	-0.392485	0.031368
H253	H	0.695344	-0.282138	0.032921
H254	H	0.639377	-0.226977	0.033706
H255	H	0.528242	-0.282163	0.032936
H256	H	0.473076	-0.392511	0.031382
C257	C	0.552527	-0.086789	-0.282694
C258	C	0.616382	-0.022483	-0.314853
C259	C	0.648093	0.010116	-0.283152
C260	C	0.615949	-0.021591	-0.219293
C261	C	0.552090	-0.085900	-0.187130
C262	C	0.520379	-0.118499	-0.218830
H263	H	0.640180	0.000991	-0.362129
H264	H	0.695366	0.057722	-0.306962
H265	H	0.639423	0.002541	-0.195826
H266	H	0.528292	-0.109375	-0.139854
H267	H	0.473107	-0.166106	-0.195021
C268	C	0.117956	-0.583772	0.465804
C269	C	0.108823	-0.542441	0.481616
C270	C	0.077113	-0.575042	0.545917
C271	C	0.054536	-0.648975	0.594407
C272	C	0.063668	-0.690310	0.578597
C273	C	0.095378	-0.657708	0.514296
H274	H	0.125537	-0.487708	0.445719
H275	H	0.070353	-0.544443	0.557620
H276	H	0.031062	-0.673108	0.642007
H277	H	0.046955	-0.745043	0.614494
H278	H	0.102139	-0.688307	0.502593
H279	H	-0.195712	-0.575327	0.449122
H280	H	0.126193	-0.095317	0.291012
C281	C	0.301004	-0.400723	0.282761
C282	C	0.333157	-0.369008	0.218902
C283	C	0.397457	-0.305597	0.187200
C284	C	0.429605	-0.273901	0.219358
C285	C	0.397453	-0.305615	0.283221
C286	C	0.333152	-0.369026	0.314923
H287	H	0.309359	-0.392472	0.195093
H288	H	0.421259	-0.282120	0.139924
H289	H	0.477204	-0.226960	0.195890
H290	H	0.421251	-0.282152	0.307029
H291	H	0.309351	-0.392503	0.362199
H292	H	0.284300	-0.095261	-0.030933
C293	C	0.117959	-0.583756	0.282753
C294	C	0.054096	-0.648048	0.314896
C295	C	0.022389	-0.680628	0.283181
C296	C	0.054545	-0.648916	0.219323
C297	C	0.118411	-0.584620	0.187177
C298	C	0.150118	-0.552041	0.218892
H299	H	0.030290	-0.671527	0.362171
H300	H	-0.024889	-0.728224	0.306978
H301	H	0.031074	-0.673033	0.195846
H302	H	0.142218	-0.561141	0.139902
H303	H	0.197396	-0.504445	0.195095
H304	H	0.126199	-0.253435	0.449114
