data_functionalizedCrystal
_audit_creation_method	'MofGen! by Chris Wilmer'
_symmetry_space_group_name_H-M	'P1'
_symmetry_Int_Tables_number	1
_symmetry_cell_setting	triclinic
loop_
_symmetry_equiv_pos_as_xyz
  x,y,z
_cell_length_a	16.120530
_cell_length_b	12.594516
_cell_length_c	16.120297
_cell_angle_alpha	87.126738
_cell_angle_beta	89.871860
_cell_angle_gamma	87.109090
loop_
_atom_site_label
_atom_site_type_symbol
_atom_site_fract_x
_atom_site_fract_y
_atom_site_fract_z
Zn1	Zn	1.247514	-0.539248	0.534570
Zn2	Zn	1.580847	-0.205915	0.867903
Zn3	Zn	1.914180	0.127418	1.201236
Zn4	Zn	1.254487	-0.708691	0.395513
Zn5	Zn	1.587821	-0.375358	0.728847
Zn6	Zn	1.921154	-0.042024	1.062180
Zn7	Zn	1.115501	-0.521262	0.388487
Zn8	Zn	1.448835	-0.187929	0.721821
Zn9	Zn	1.782168	0.145405	1.055154
Zn10	Zn	1.108444	-0.707711	0.527483
Zn11	Zn	1.441777	-0.374378	0.860816
Zn12	Zn	1.775110	-0.041044	1.194149
O13	O	1.181487	-0.619228	0.461513
O14	O	1.514820	-0.285895	0.794847
O15	O	1.848153	0.047439	1.128180
O16	O	1.364806	-0.569663	0.522030
O17	O	1.698139	-0.236329	0.855363
O18	O	2.031473	0.097004	1.188696
O19	O	1.241923	-0.676711	0.278216
O20	O	1.575256	-0.343378	0.611549
O21	O	1.908590	-0.010044	0.944883
O22	O	1.133048	-0.374706	0.407891
O23	O	1.466382	-0.041373	0.741224
O24	O	1.799715	0.291961	1.074558
O25	O	1.369930	-0.694152	0.419866
O26	O	1.703263	-0.360818	0.753199
O27	O	2.036596	-0.027485	1.086532
O28	O	1.230037	-0.387920	0.515217
O29	O	1.563370	-0.054587	0.848550
O30	O	1.896704	0.278746	1.181884
O31	O	1.139811	-0.539008	0.273054
O32	O	1.473144	-0.205675	0.606387
O33	O	1.806477	0.127659	0.939721
O34	O	0.998198	-0.538057	0.401019
O35	O	1.331531	-0.204724	0.734352
O36	O	1.664865	0.128609	1.067686
O37	O	1.121019	-0.692481	0.644788
O38	O	1.454353	-0.359148	0.978122
O39	O	1.787686	-0.025814	1.311455
O40	O	0.993013	-0.675040	0.503138
O41	O	1.326346	-0.341707	0.836472
O42	O	1.659679	-0.008374	1.169805
O43	O	1.223193	-0.568712	0.649995
O44	O	1.556527	-0.235379	0.983328
O45	O	1.889860	0.097954	1.316662
O46	O	1.235079	-0.857503	0.412994
O47	O	1.568413	-0.524170	0.746327
O48	O	1.901746	-0.190836	1.079661
O49	O	1.127781	-0.856783	0.509951
O50	O	1.461115	-0.523449	0.843285
O51	O	1.794448	-0.190116	1.176618
C52	C	0.965432	-0.604492	0.450548
C53	C	1.298766	-0.271158	0.783881
C54	C	1.632099	0.062175	1.117214
C55	C	0.873003	-0.598214	0.445876
C56	C	1.206336	-0.264881	0.779210
C57	C	1.539669	0.068452	1.112543
C58	C	1.181443	-0.895764	0.461485
C59	C	1.514776	-0.562431	0.794819
C60	C	1.848110	-0.229098	1.128152
C61	C	1.181499	-1.014075	0.461505
C62	C	1.514832	-0.680741	0.794838
C63	C	1.848166	-0.347408	1.128172
C64	C	0.703771	-0.586729	0.437355
C65	C	1.037105	-0.253395	0.770688
C66	C	1.370438	0.079938	1.104022
C67	C	0.660039	-0.651809	0.485732
C68	C	0.993372	-0.318476	0.819066
C69	C	1.326706	0.014857	1.152399
C70	C	0.565873	-0.645419	0.480991
C71	C	0.899206	-0.312086	0.814324
C72	C	1.232540	0.021248	1.147658
C73	C	0.797946	-0.593118	0.442095
C74	C	1.131279	-0.259785	0.775429
C75	C	1.464613	0.073549	1.108762
C76	C	1.239955	-1.154457	0.408872
C77	C	1.573288	-0.821124	0.742205
C78	C	1.906622	-0.487791	1.075538
C79	C	1.165106	-1.077346	0.384592
C80	C	1.498439	-0.744013	0.717926
C81	C	1.831773	-0.410680	1.051259
C82	C	1.256341	-1.089611	0.485746
C83	C	1.589674	-0.756278	0.819079
C84	C	1.923007	-0.422944	1.152413
C85	C	1.106694	-1.147754	0.437261
C86	C	1.440027	-0.814421	0.770594
C87	C	1.773360	-0.481088	1.103927
C88	C	1.197978	-1.160031	0.538452
C89	C	1.531311	-0.826698	0.871786
C90	C	1.864644	-0.493364	1.205119
C91	C	1.123075	-1.082950	0.514199
C92	C	1.456408	-0.749617	0.847533
C93	C	1.789741	-0.416284	1.180866
C94	C	1.398384	-0.634023	0.472522
C95	C	1.731718	-0.300689	0.805855
C96	C	2.065051	0.032644	1.139189
C97	C	1.490813	-0.640327	0.477213
C98	C	1.824146	-0.306994	0.810547
C99	C	2.157480	0.026339	1.143880
C100	C	1.170541	-0.632494	0.678408
C101	C	1.503875	-0.299160	1.011741
C102	C	1.837208	0.034173	1.345074
C103	C	1.165877	-0.638147	0.770835
C104	C	1.499210	-0.304813	1.104168
C105	C	1.832544	0.028520	1.437502
C106	C	1.181552	-0.341615	0.461561
C107	C	1.514885	-0.008281	0.794894
C108	C	1.848219	0.325052	1.128227
C109	C	1.181580	-0.223312	0.461581
C110	C	1.514913	0.110021	0.794914
C111	C	1.848247	0.443355	1.128248
C112	C	1.192437	-0.605941	0.245465
C113	C	1.525771	-0.272607	0.578799
C114	C	1.859104	0.060726	0.912132
C115	C	1.197263	-0.599999	0.153046
C116	C	1.530596	-0.266665	0.486380
C117	C	1.863929	0.066668	0.819713
C118	C	1.157331	-0.648442	0.940060
C119	C	1.490664	-0.315108	1.273393
C120	C	1.823997	0.018225	1.606726
C121	C	1.205806	-0.589707	0.983827
C122	C	1.539140	-0.256373	1.317160
C123	C	1.872473	0.076960	1.650494
C124	C	1.201051	-0.595435	1.077989
C125	C	1.534384	-0.262102	1.411323
C126	C	1.867718	0.071232	1.744656
C127	C	1.162085	-0.642715	0.845889
C128	C	1.495418	-0.309381	1.179222
C129	C	1.828751	0.023952	1.512555
H130	H	0.670493	-0.526218	0.392380
H131	H	1.003826	-0.192884	0.725713
H132	H	1.337160	0.140449	1.059047
O133	O	0.704114	-0.731974	0.545314
O134	O	1.037447	-0.398641	0.878647
O135	O	1.370781	-0.065308	1.211980
H136	H	0.745547	-0.786407	0.509971
H137	H	1.078881	-0.453073	0.843304
H138	H	1.412214	-0.119740	1.176637
H139	H	1.211911	-1.196178	0.603477
H140	H	1.545244	-0.862845	0.936810
H141	H	1.878577	-0.529512	1.270144
O142	O	1.265518	-0.517407	0.939792
O143	O	1.598852	-0.184074	1.273126
O144	O	1.932185	0.149259	1.606459
H145	H	1.329951	-0.541113	0.959735
H146	H	1.663285	-0.207780	1.293068
H147	H	1.996618	0.125553	1.626402
O148	O	1.305318	-1.196033	0.349828
O149	O	1.638652	-0.862700	0.683162
O150	O	1.971985	-0.529367	1.016495
H151	H	1.291469	-1.162734	0.286024
H152	H	1.624802	-0.829400	0.619358
H153	H	1.958135	-0.496067	0.952691
O154	O	1.146678	-1.029477	0.298444
O155	O	1.480011	-0.696144	0.631777
O156	O	1.813345	-0.362811	0.965111
H157	H	1.195251	-1.058127	0.254835
H158	H	1.528584	-0.724793	0.588169
H159	H	1.861918	-0.391460	0.921502
H160	H	1.043421	-1.173369	0.416717
H161	H	1.376754	-0.840036	0.750050
H162	H	1.710087	-0.506703	1.083384
H163	H	1.073620	-1.051760	0.558739
H164	H	1.406953	-0.718427	0.892072
H165	H	1.740287	-0.385093	1.225405
H166	H	1.319598	-1.063858	0.506216
H167	H	1.652932	-0.730525	0.839549
H168	H	1.986265	-0.397192	1.172883
H169	H	1.112262	-0.703025	0.973306
H170	H	1.445596	-0.369692	1.306639
H171	H	1.778929	-0.036358	1.639972
