data_functionalizedCrystal
_audit_creation_method	'MofGen! by Chris Wilmer'
_symmetry_space_group_name_H-M	'P1'
_symmetry_Int_Tables_number	1
_symmetry_cell_setting	triclinic
loop_
_symmetry_equiv_pos_as_xyz
  x,y,z
_cell_length_a	15.944551
_cell_length_b	15.944551
_cell_length_c	15.021413
_cell_angle_alpha	90.009487
_cell_angle_beta	89.990850
_cell_angle_gamma	96.501262
loop_
_atom_site_label
_atom_site_type_symbol
_atom_site_fract_x
_atom_site_fract_y
_atom_site_fract_z
O1	O	1.114524	-0.108337	-0.074120
O2	O	0.869975	-0.121693	-0.074103
O3	O	0.998927	0.007260	-0.074104
O4	O	0.985571	-0.237290	-0.074119
O5	O	0.998916	0.007273	0.073960
O6	O	0.869963	-0.121680	0.073961
O7	O	1.114513	-0.108323	0.073944
Zn8	Zn	0.992236	-0.114999	0.097461
Zn9	Zn	0.992251	-0.115017	-0.097620
O10	O	0.985560	-0.237276	0.073945
C11	C	0.838675	-0.121132	-0.000069
C12	C	0.745429	-0.119470	-0.000062
C13	C	1.145813	-0.108885	-0.000093
C14	C	1.239059	-0.110547	-0.000105
C15	C	0.998367	0.038561	-0.000072
C16	C	0.996705	0.131807	-0.000071
C17	C	1.453915	-0.194451	-0.000090
C18	C	1.514941	-0.155495	-0.073090
C19	C	1.409784	-0.113554	-0.000092
C20	C	1.514908	-0.155463	0.072890
C21	C	1.574697	-0.116465	-0.000076
C22	C	1.469582	-0.074576	-0.073153
C23	C	1.469542	-0.074555	0.072892
C24	C	1.530550	-0.035541	-0.000126
C25	C	1.314782	-0.111880	-0.000102
C26	C	1.669698	-0.118133	-0.000072
C27	C	0.986120	-0.268577	-0.000090
C28	C	0.987782	-0.361823	-0.000096
N29	N	0.992232	-0.114987	0.230598
C30	C	0.912801	0.346663	-0.000078
C31	C	0.951758	0.407687	0.072924
C32	C	0.993698	0.302533	-0.000078
C33	C	0.951788	0.407658	-0.073056
C34	C	0.990787	0.467445	-0.000088
C35	C	1.032677	0.362328	0.072984
C36	C	1.032696	0.362292	-0.073061
C37	C	1.071711	0.423298	-0.000041
C38	C	0.995372	0.207530	-0.000071
C39	C	0.989119	0.562446	-0.000089
C40	C	1.051414	-0.054886	0.529589
C41	C	1.068401	-0.130556	0.470216
C42	C	0.992253	-0.115013	0.587635
C43	C	0.975295	-0.039332	0.470266
C44	C	0.992245	-0.114996	0.412211
C45	C	1.009278	-0.190721	0.529569
C46	C	0.916139	-0.099447	0.529624
C47	C	0.933094	-0.175172	0.470278
C48	C	0.992259	-0.115021	0.688692
C49	C	0.992238	-0.114996	0.311156
N50	N	0.992263	-0.115023	0.769242
H51	H	1.420609	-0.261600	-0.000167
H52	H	0.851794	-0.086258	0.555738
H53	H	1.138919	0.456457	-0.000005
H54	H	1.534988	-0.189688	0.134605
N55	N	1.572167	0.048762	-0.000171
N56	N	1.650989	0.061173	0.000418
H57	H	1.680383	0.120711	0.000384
N58	N	1.114208	0.008820	0.562287
N59	N	1.093137	0.067226	0.609911
H60	H	1.137486	0.112214	0.633008
H61	H	1.066887	0.342156	-0.134786
H62	H	0.960956	0.024664	0.444216
H63	H	1.535060	-0.189719	-0.134808
N64	N	0.828562	0.304886	0.000021
N65	N	0.779598	0.316749	0.062613
H66	H	0.720106	0.287244	0.062687
H67	H	0.917537	0.427801	0.134646
H68	H	1.132766	-0.143721	0.444122
H69	H	0.917566	0.427729	-0.134777
H70	H	1.449598	-0.040396	-0.134940
N71	N	1.027349	-0.271020	0.562117
N72	N	1.030293	-0.283978	0.644064
H73	H	1.043055	-0.340688	0.667054
N74	N	1.444285	-0.031665	0.150330
N75	N	1.458553	-0.059231	0.226076
H76	H	1.440714	-0.028945	0.280774
H77	H	0.883057	-0.226068	0.444400
H78	H	1.066860	0.342343	0.134769
