data_functionalizedCrystal
_audit_creation_method	'MofGen! by Chris Wilmer'
_symmetry_space_group_name_H-M	'P1'
_symmetry_Int_Tables_number	1
_symmetry_cell_setting	triclinic
loop_
_symmetry_equiv_pos_as_xyz
  x,y,z
_cell_length_a	16.109302
_cell_length_b	16.109301
_cell_length_c	14.586319
_cell_angle_alpha	89.994786
_cell_angle_beta	89.994552
_cell_angle_gamma	83.461631
loop_
_atom_site_label
_atom_site_type_symbol
_atom_site_fract_x
_atom_site_fract_y
_atom_site_fract_z
O1	O	1.103130	0.106869	-0.076284
O2	O	1.603130	0.606869	0.423716
O3	O	0.861069	0.120168	-0.076278
O4	O	1.361069	0.620168	0.423722
O5	O	0.988749	-0.007513	-0.076272
O6	O	1.488749	0.492487	0.423728
O7	O	0.975450	0.234549	-0.076290
O8	O	1.475450	0.734549	0.423710
O9	O	0.988740	-0.007515	0.076209
O10	O	1.488740	0.492485	0.576209
O11	O	0.861060	0.120166	0.076203
O12	O	1.361060	0.620166	0.576203
O13	O	1.103122	0.106867	0.076196
O14	O	1.603122	0.606867	0.576196
Cu15	Cu	0.982090	0.113516	0.090122
Cu16	Cu	1.482090	0.613516	0.590122
Cu17	Cu	0.982100	0.113519	-0.090204
Cu18	Cu	1.482100	0.613519	0.409796
O19	O	0.975441	0.234547	0.076191
O20	O	1.475441	0.734547	0.576191
C21	C	0.830089	0.119628	-0.000036
C22	C	1.330089	0.619628	0.499964
C23	C	0.737794	0.118013	-0.000033
C24	C	1.237794	0.618013	0.499967
C25	C	0.525448	0.114276	0.083075
C26	C	1.025448	0.614276	0.583075
C27	C	0.438728	0.112750	0.083072
C28	C	0.938728	0.612750	0.583072
C29	C	0.438748	0.112756	-0.083171
C30	C	0.938748	0.612756	0.416829
C31	C	0.525468	0.114277	-0.083167
C32	C	1.025468	0.614277	0.416833
C33	C	0.568815	0.115041	-0.000041
C34	C	1.068815	0.615041	0.499959
C35	C	0.395375	0.111994	-0.000048
C36	C	0.895375	0.611994	0.499952
C37	C	0.301350	0.110338	-0.000052
C38	C	0.801350	0.610338	0.499948
C39	C	0.662847	0.116695	-0.000037
C40	C	1.162847	0.616695	0.499963
C41	C	0.988206	-0.038488	-0.000031
C42	C	1.488206	0.461512	0.499969
C43	C	0.986591	-0.130784	-0.000030
C44	C	1.486591	0.369216	0.499970
C45	C	1.058599	-0.353056	-0.000046
C46	C	1.558599	0.146944	0.499954
C47	C	1.057074	-0.439776	-0.000054
C48	C	1.557074	0.060224	0.499946
C49	C	0.905586	-0.419902	-0.000046
C50	C	1.405586	0.080098	0.499954
C51	C	0.907111	-0.333184	-0.000045
C52	C	1.407111	0.166816	0.499955
C53	C	0.983620	-0.299763	-0.000040
C54	C	1.483620	0.200237	0.499960
C55	C	0.980571	-0.473202	-0.000049
C56	C	1.480571	0.026798	0.499951
C57	C	0.978918	-0.567228	-0.000057
C58	C	1.478918	-0.067228	0.499943
C59	C	0.985273	-0.205731	-0.000034
C60	C	1.485273	0.294269	0.499966
C61	C	1.134101	0.107407	-0.000047
C62	C	1.634101	0.607407	0.499953
C63	C	1.226396	0.109022	-0.000056
C64	C	1.726396	0.609022	0.499944
C65	C	0.975984	0.265523	-0.000052
C66	C	1.475984	0.765523	0.499948
C67	C	0.977599	0.357819	-0.000060
C68	C	1.477599	0.857819	0.499940
N69	N	0.982088	0.113514	0.216954
N70	N	1.482088	0.613514	0.716954
N71	N	0.982108	0.113514	-0.217035
N72	N	1.482108	0.613514	0.282965
C73	C	1.038644	0.056996	0.451963
C74	C	1.538644	0.556996	0.951963
C75	C	1.038647	0.056994	0.547944
C76	C	1.538647	0.556994	1.047944
C77	C	0.925546	0.170035	0.547949
C78	C	1.425546	0.670035	1.047949
C79	C	0.925541	0.170032	0.451969
C80	C	1.425541	0.670032	0.951969
C81	C	0.982094	0.113514	0.403979
C82	C	1.482094	0.613514	0.903979
C83	C	0.982102	0.113514	0.595940
C84	C	1.482102	0.613514	1.095940
C85	C	0.982105	0.113513	0.700007
C86	C	1.482105	0.613513	1.200007
C87	C	0.982091	0.113514	0.299905
C88	C	1.482091	0.613514	0.799905
H89	H	0.403444	0.112135	-0.150849
H90	H	0.903444	0.612135	0.349151
H91	H	1.118130	-0.483165	-0.000060
H92	H	1.618130	0.016835	0.499940
C93	C	0.835983	-0.544012	-0.000032
C94	C	1.335983	-0.044012	0.499968
C95	C	0.821490	-0.456642	-0.000037
C96	C	1.321490	0.043358	0.499963
H97	H	0.784064	-0.566690	-0.000019
H98	H	1.284064	-0.066690	0.499981
H99	H	0.866848	-0.562299	-0.053205
H100	H	1.366848	-0.062299	0.446795
H101	H	0.866857	-0.562301	0.053142
H102	H	1.366857	-0.062301	0.553142
H103	H	0.790622	-0.438353	-0.053215
H104	H	1.290622	0.061647	0.446785
H105	H	0.790613	-0.438348	0.053142
H106	H	1.290613	0.061652	0.553142
H107	H	0.560778	0.114897	-0.150854
H108	H	1.060778	0.614897	0.349146
C109	C	1.128204	-0.228947	-0.000043
C110	C	1.628204	0.271053	0.499957
C111	C	1.142695	-0.316318	-0.000050
C112	C	1.642695	0.183682	0.499950
H113	H	1.180124	-0.206271	-0.000042
H114	H	1.680124	0.293729	0.499958
H115	H	1.097338	-0.210652	-0.053210
H116	H	1.597338	0.289348	0.446790
H117	H	1.097332	-0.210666	0.053137
H118	H	1.597332	0.289334	0.553137
H119	H	1.173562	-0.334599	-0.053234
H120	H	1.673562	0.165401	0.446766
H121	H	1.173573	-0.334620	0.053122
H122	H	1.673573	0.165380	0.553122
C123	C	0.516717	0.114103	0.247397
C124	C	1.016717	0.614103	0.747397
C125	C	0.573098	0.115103	0.174445
C126	C	1.073098	0.615103	0.674445
H127	H	0.546135	0.114606	0.303806
H128	H	1.046135	0.614606	0.803806
H129	H	0.476543	0.161963	0.243941
H130	H	0.976543	0.661963	0.743941
H131	H	0.489245	0.065054	0.243927
H132	H	0.989245	0.565054	0.743927
H133	H	0.600565	0.164156	0.177912
H134	H	1.100565	0.664156	0.677912
H135	H	0.613287	0.067239	0.177903
H136	H	1.113287	0.567239	0.677903
C137	C	0.757211	-0.322242	-0.000028
C138	C	1.257211	0.177758	0.499972
C139	C	0.824687	-0.274597	-0.000035
C140	C	1.324687	0.225403	0.499965
H141	H	0.706330	-0.286071	-0.000019
H142	H	1.206330	0.213929	0.499981
H143	H	0.759766	-0.356472	-0.053198
H144	H	1.259766	0.143528	0.446802
H145	H	0.759770	-0.356485	0.053149
H146	H	1.259770	0.143515	0.553149
H147	H	0.822132	-0.240357	-0.053216
H148	H	1.322132	0.259643	0.446784
H149	H	0.822131	-0.240352	0.053140
H150	H	1.322131	0.259648	0.553140
H151	H	1.084692	0.010975	0.412892
H152	H	1.584692	0.510975	0.912892
C153	C	0.350578	0.039598	0.179518
C154	C	0.850578	0.539598	0.679518
C155	C	0.391064	0.111906	0.174439
C156	C	0.891064	0.611906	0.674439
H157	H	0.321158	0.039074	0.235930
H158	H	0.821158	0.539074	0.735930
H159	H	0.312349	0.038934	0.130024
H160	H	0.812349	0.538934	0.630024
H161	H	0.390775	-0.008254	0.176061
H162	H	0.890775	0.491746	0.676061
H163	H	0.350866	0.159758	0.177890
H164	H	0.850866	0.659758	0.677890
H165	H	0.429296	0.112577	0.223946
H166	H	0.929296	0.612577	0.723946
C167	C	0.876675	0.313952	0.577479
C168	C	1.376675	0.813952	1.077479
C169	C	0.863386	0.232162	0.600698
C170	C	1.363386	0.732162	1.100698
H171	H	0.838295	0.352306	0.610038
H172	H	1.338295	0.852306	1.110038
H173	H	0.932150	0.322995	0.593205
H174	H	1.432150	0.822995	1.093205
H175	H	0.868580	0.322025	0.513447
H176	H	1.368580	0.822025	1.013447
H177	H	0.871487	0.224087	0.664729
H178	H	1.371487	0.724087	1.164729
H179	H	0.807897	0.223116	0.584978
H180	H	1.307897	0.723116	1.084978
H181	H	1.084694	0.010972	0.587011
H182	H	1.584694	0.510972	1.087011
H183	H	0.879487	0.216056	0.412898
H184	H	1.379487	0.716056	0.912898
