data_functionalizedCrystal
_audit_creation_method	'MofGen! by Chris Wilmer'
_symmetry_space_group_name_H-M	'P1'
_symmetry_Int_Tables_number	1
_symmetry_cell_setting	triclinic
loop_
_symmetry_equiv_pos_as_xyz
  x,y,z
_cell_length_a	18.215407
_cell_length_b	18.215405
_cell_length_c	18.215399
_cell_angle_alpha	89.969449
_cell_angle_beta	89.983101
_cell_angle_gamma	90.022344
loop_
_atom_site_label
_atom_site_type_symbol
_atom_site_fract_x
_atom_site_fract_y
_atom_site_fract_z
Zn1	Zn	1.125072	-0.293042	-0.416045
Zn2	Zn	1.124980	-0.416113	-0.292973
Zn3	Zn	1.002004	-0.293059	-0.292999
Zn4	Zn	1.001970	-0.416066	-0.416004
O5	O	1.063507	-0.354570	-0.354505
O6	O	1.228044	-0.309380	-0.399726
O7	O	1.108643	-0.399817	-0.189992
O8	O	1.018382	-0.190073	-0.309349
O9	O	1.227977	-0.399800	-0.309305
O10	O	1.108799	-0.190060	-0.399750
O11	O	1.018293	-0.309410	-0.190011
O12	O	0.899016	-0.309364	-0.309309
O13	O	1.018324	-0.399719	-0.518994
O14	O	0.898991	-0.399736	-0.399681
O15	O	1.108766	-0.309334	-0.519024
O16	O	1.108610	-0.519091	-0.309266
O17	O	1.018235	-0.519056	-0.399656
C18	C	0.872300	-0.354547	-0.354494
C19	C	0.790502	-0.354555	-0.354507
C20	C	0.525450	-0.401704	-0.401497
C21	C	0.602309	-0.401698	-0.401494
C22	C	0.602305	-0.307452	-0.307526
C23	C	0.525447	-0.307463	-0.307527
C24	C	0.487022	-0.354588	-0.354516
C25	C	0.640738	-0.354571	-0.354512
C26	C	0.724072	-0.354564	-0.354508
C27	C	0.403683	-0.354596	-0.354520
C28	C	1.063429	-0.545776	-0.354470
C29	C	1.063463	-0.627575	-0.354479
C30	C	1.110632	-0.815763	-0.307500
C31	C	1.110665	-0.892621	-0.307517
C32	C	1.016476	-0.892625	-0.401564
C33	C	1.016447	-0.815768	-0.401549
C34	C	1.063524	-0.777339	-0.354513
C35	C	1.063586	-0.931055	-0.354545
C36	C	1.063621	-1.014388	-0.354565
C37	C	1.063490	-0.694000	-0.354494
C38	C	1.255460	-0.354593	-0.354517
C39	C	1.337259	-0.354603	-0.354522
C40	C	1.063552	-0.354519	-0.546458
C41	C	1.063571	-0.354498	-0.628257
C42	C	1.063605	-0.162617	-0.354557
C43	C	1.063647	-0.080818	-0.354579
C44	C	1.110681	-0.307390	-0.816468
C45	C	1.110690	-0.307369	-0.893327
C46	C	1.016513	-0.401491	-0.893284
C47	C	1.016501	-0.401509	-0.816427
C48	C	1.063589	-0.354459	-0.778021
C49	C	1.063610	-0.354420	-0.931737
C50	C	1.063619	-0.354397	-1.015071
C51	C	1.063579	-0.354481	-0.694682
C52	C	1.063504	-0.354567	-0.163299
C53	C	1.063628	-0.354382	-0.081500
H54	H	0.633594	-0.440065	-0.439749
H55	H	1.149035	-0.269039	-0.924627
H56	H	0.978148	-0.439837	-0.785122
H57	H	0.978177	-0.439799	-0.924564
H58	H	0.494167	-0.440076	-0.439759
H59	H	1.149026	-0.923903	-0.269235
H60	H	0.978086	-0.784481	-0.439837
H61	H	0.633600	-0.269084	-0.269270
H62	H	0.494158	-0.269094	-0.269266
H63	H	1.148966	-0.784475	-0.269201
H64	H	0.978146	-0.923924	-0.439858
H65	H	1.149021	-0.269077	-0.785200
