data_functionalizedCrystal
_audit_creation_method	'MofGen! by Chris Wilmer'
_symmetry_space_group_name_H-M	'P1'
_symmetry_Int_Tables_number	1
_symmetry_cell_setting	triclinic
loop_
_symmetry_equiv_pos_as_xyz
  x,y,z
_cell_length_a	19.805407
_cell_length_b	16.625546
_cell_length_c	19.805398
_cell_angle_alpha	89.973797
_cell_angle_beta	89.984135
_cell_angle_gamma	90.022468
loop_
_atom_site_label
_atom_site_type_symbol
_atom_site_fract_x
_atom_site_fract_y
_atom_site_fract_z
Zn1	Zn	1.034729	-0.321034	-0.382718
Zn2	Zn	1.034659	-0.455867	-0.269529
Zn3	Zn	0.921551	-0.321052	-0.269543
Zn4	Zn	0.921515	-0.455828	-0.382676
O5	O	0.978114	-0.388445	-0.326117
O6	O	1.129437	-0.338928	-0.367716
O7	O	1.019641	-0.438007	-0.174815
O8	O	0.936609	-0.208217	-0.284579
O9	O	1.129385	-0.437990	-0.284556
O10	O	1.019761	-0.208204	-0.367729
O11	O	0.936541	-0.338959	-0.174825
O12	O	0.826830	-0.338922	-0.284538
O13	O	0.936548	-0.437923	-0.477398
O14	O	0.826804	-0.437941	-0.367657
O15	O	1.019726	-0.338890	-0.477429
O16	O	1.019606	-0.568694	-0.284515
O17	O	0.936480	-0.568665	-0.367644
C18	C	0.802258	-0.388430	-0.326095
C19	C	0.727026	-0.388442	-0.326102
C20	C	0.978050	-0.597936	-0.326088
C21	C	0.978084	-0.687557	-0.326099
C22	C	0.691686	-0.440079	-0.369311
C23	C	0.620997	-0.440081	-0.369321
C24	C	0.585650	-0.388449	-0.326117
C25	C	0.620995	-0.336806	-0.282905
C26	C	0.691683	-0.336801	-0.282899
C27	C	0.335922	-0.336824	-0.282927
C28	C	0.265230	-0.336834	-0.282935
C29	C	0.265237	-0.440104	-0.369349
C30	C	0.335924	-0.440099	-0.369343
C31	C	0.371263	-0.388453	-0.326134
C32	C	0.447911	-0.388451	-0.326125
C33	C	0.509003	-0.388454	-0.326122
C34	C	0.978202	-1.015733	-0.326169
C35	C	0.978167	-0.924424	-0.326152
C36	C	0.978143	-0.851648	-0.326134
C37	C	0.978109	-0.760333	-0.326117
C38	C	1.154657	-0.388461	-0.326139
C39	C	1.229889	-0.388468	-0.326149
C40	C	0.978140	-0.388400	-0.502660
C41	C	0.978152	-0.388381	-0.577892
C42	C	0.978197	-0.178136	-0.326160
C43	C	0.978232	-0.088515	-0.326178
C44	C	1.021544	-0.336672	-1.039700
C45	C	1.021533	-0.336697	-0.969012
C46	C	0.978221	-0.388269	-0.933653
C47	C	0.934921	-0.439826	-0.968988
C48	C	0.934936	-0.439805	-1.039675
C49	C	0.934863	-0.439913	-0.683914
C50	C	0.934850	-0.439929	-0.613222
C51	C	1.021460	-0.336806	-0.613251
C52	C	1.021475	-0.336784	-0.683938
C53	C	0.978178	-0.388344	-0.719266
C54	C	0.978191	-0.388317	-0.795914
C55	C	0.978204	-0.388292	-0.857006
C56	C	0.978126	-0.388431	-0.150261
C57	C	0.978246	-0.388223	-0.075029
H58	H	0.720460	-0.482127	-0.404491
Br59	Br	0.739645	-0.266715	-0.224259
Br60	Br	1.080299	-0.266734	-0.921067
Br61	Br	0.876176	-0.509774	-1.087623
Br62	Br	0.217259	-0.266758	-0.224296
Br63	Br	1.080264	-0.266798	-0.731921
H64	H	1.056810	-0.294671	-1.068483
H65	H	1.056716	-0.294826	-0.584478
Br66	Br	0.876142	-0.509821	-0.921003
Br67	Br	0.383874	-0.266729	-0.224291
H68	H	0.592226	-0.482130	-0.404506
H69	H	0.899575	-0.481925	-0.584435
Br70	Br	0.573026	-0.266725	-0.224276
Br71	Br	0.383891	-0.510178	-0.427975
Br72	Br	0.217273	-0.510197	-0.427989
H73	H	0.899607	-0.481895	-0.712670
