data_functionalizedCrystal
_audit_creation_method	'MofGen! by Chris Wilmer'
_symmetry_space_group_name_H-M	'P1'
_symmetry_Int_Tables_number	1
_symmetry_cell_setting	triclinic
loop_
_symmetry_equiv_pos_as_xyz
  x,y,z
_cell_length_a	14.560438
_cell_length_b	14.560438
_cell_length_c	14.560438
_cell_angle_alpha	59.999942
_cell_angle_beta	89.999627
_cell_angle_gamma	60.000219
loop_
_atom_site_label
_atom_site_type_symbol
_atom_site_fract_x
_atom_site_fract_y
_atom_site_fract_z
Zr1	Zr	0.884750	1.005296	-0.120518
O2	O	0.738103	1.196898	-0.267163
O3	O	0.929705	0.813695	-0.075566
O4	O	0.929705	1.005300	-0.267167
O5	O	0.738104	1.005290	0.075579
O6	O	1.080843	1.005302	-0.267168
O7	O	0.738104	1.005293	-0.075561
O8	O	1.080844	0.662556	0.075572
O9	O	0.738103	1.348037	-0.267161
O10	O	1.061671	0.892505	-0.056392
O11	O	0.948878	0.892501	0.056403
O12	O	0.948877	1.118091	-0.169183
O13	O	0.836084	1.118087	-0.056387
Zr14	Zr	1.125798	1.005296	0.120532
Zr15	Zr	1.125798	1.005300	-0.120520
Zr16	Zr	0.884750	1.005292	0.120534
Zr17	Zr	0.884749	1.246345	-0.120515
Zr18	Zr	1.125799	0.764248	0.120529
O19	O	1.080843	1.196898	0.075580
O20	O	1.080842	1.196904	-0.267165
O21	O	0.738103	1.196892	0.075582
O22	O	1.272445	0.813695	0.267177
O23	O	1.272445	0.813700	-0.075568
O24	O	0.929706	0.813689	0.267180
O25	O	1.272444	1.005302	-0.075565
O26	O	1.080843	1.005293	0.267181
O27	O	0.929705	1.005290	0.267182
O28	O	1.272444	1.005299	0.075575
O29	O	0.929704	1.348040	-0.267162
O30	O	1.080844	0.662553	0.267176
O31	O	1.272445	0.662556	0.267175
O32	O	1.272445	0.662559	0.075571
O33	O	0.738103	1.348033	-0.075556
O34	O	0.929704	1.348036	-0.075558
O35	O	1.061671	0.892501	0.169197
O36	O	1.174464	0.892505	0.056402
O37	O	1.061670	1.118091	-0.056389
O38	O	0.948877	1.118087	0.056406
C39	C	0.703760	1.005291	0.000009
C40	C	0.601428	1.005289	0.000010
C41	C	1.005275	0.703781	0.000003
C42	C	1.005275	0.601450	0.000001
C43	C	0.612227	0.887538	0.058881
C44	C	0.516072	0.887544	0.058882
C45	C	0.398323	1.123064	-0.058869
C46	C	0.494477	1.123056	-0.058862
C47	C	1.064148	0.553377	-0.058879
C48	C	1.064150	0.457220	-0.058870
C49	C	0.946399	0.457219	0.058900
C50	C	0.946403	0.553368	0.058897
C51	C	1.123019	0.601458	-0.117775
C52	C	1.181896	0.553387	-0.176661
C53	C	1.181898	0.457229	-0.176652
C54	C	1.123024	0.409143	-0.117757
C55	C	1.306788	1.005301	0.000005
C56	C	1.409120	1.005303	0.000004
C57	C	1.005274	1.005301	-0.301512
C58	C	1.005274	1.005303	-0.403845
C59	C	1.005273	1.306811	0.000011
C60	C	1.005273	1.409143	0.000013
C61	C	0.946392	1.123055	-0.510797
C62	C	0.946395	1.123048	-0.606946
C63	C	1.064163	0.887529	-0.489177
C64	C	1.064166	0.887536	-0.393031
C65	C	0.887500	1.240821	-0.521612
C66	C	0.828612	1.358582	-0.628568
C67	C	0.828616	1.358576	-0.724717
C68	C	0.887506	1.240809	-0.713909
C69	C	1.005274	1.005291	0.301527
C70	C	1.005274	1.005289	0.403860
C71	C	1.306789	0.703786	0.000000
C72	C	1.409121	0.601456	-0.000002
C73	C	1.005275	0.703776	0.301522
C74	C	1.005275	0.601443	0.403854
C75	C	1.306790	0.703781	0.301520
C76	C	1.409121	0.601450	0.403851
C77	C	0.703759	1.306812	-0.301506
C78	C	0.601427	1.409143	-0.403837
C79	C	0.703759	1.306806	0.000014
C80	C	0.601427	1.409136	0.000016
C81	C	1.005273	1.306817	-0.301508
C82	C	1.005273	1.409150	-0.403840
C83	C	1.398323	0.553379	-0.058877
C84	C	1.494478	0.457237	-0.058883
C85	C	1.612226	0.457255	0.058871
C86	C	1.516072	0.553401	0.058870
C87	C	1.064151	0.553364	0.510806
C88	C	1.064139	0.457220	0.606954
C89	C	0.946373	0.457238	0.489182
C90	C	0.946380	0.553387	0.393037
C91	C	1.516073	0.553374	0.393051
C92	C	1.612221	0.457231	0.489205
C93	C	1.494450	0.457244	0.606956
C94	C	1.398305	0.553392	0.510803
H95	H	0.699308	0.791645	0.106832
H96	H	1.485676	0.418099	-0.106828
H97	H	0.524875	0.791659	0.106823
H98	H	0.311234	1.218945	-0.106802
Cl99	Cl	0.480900	1.271099	-0.132872
Cl100	Cl	1.123014	0.722347	-0.117794
Cl101	Cl	1.263873	0.613795	-0.132894
H102	H	1.229837	0.592536	-0.224603
Cl103	Cl	1.255916	0.396795	-0.250674
Cl104	Cl	0.754597	1.506615	-0.859173
Cl105	Cl	0.754594	1.506624	-0.642153
Cl106	Cl	1.138154	0.396787	0.741408
H107	H	1.311214	0.592539	0.519605
Cl108	Cl	1.123043	0.288247	-0.117739
Cl109	Cl	1.529648	0.613852	0.132885
Cl110	Cl	0.872391	0.396768	0.132933
Cl111	Cl	1.138186	0.739490	-0.475597
H112	H	0.898424	0.418097	0.480389
Cl113	Cl	0.872390	0.613808	0.132918
H114	H	0.887487	1.240840	-0.443329
Cl115	Cl	0.887522	1.240806	-0.834785
Cl116	Cl	1.138188	0.613778	0.524407
Cl117	Cl	0.872351	0.613840	0.258571
H118	H	1.699304	0.418092	0.480404
Cl119	Cl	1.529673	0.613794	0.258600
H120	H	1.485658	0.418102	0.694046
H121	H	1.112110	0.791653	-0.305945
H122	H	1.699315	0.418115	0.106804
