data_functionalizedCrystal
_audit_creation_method	'MofGen! by Chris Wilmer'
_symmetry_space_group_name_H-M	'P1'
_symmetry_Int_Tables_number	1
_symmetry_cell_setting	triclinic
loop_
_symmetry_equiv_pos_as_xyz
  x,y,z
_cell_length_a	16.992694
_cell_length_b	14.519709
_cell_length_c	16.053789
_cell_angle_alpha	92.884833
_cell_angle_beta	92.715794
_cell_angle_gamma	87.174184
loop_
_atom_site_label
_atom_site_type_symbol
_atom_site_fract_x
_atom_site_fract_y
_atom_site_fract_z
O1	O	1.043615	0.199250	0.069328
O2	O	0.815328	0.197106	0.069353
O3	O	0.935524	0.064374	0.069332
O4	O	0.923419	0.331983	0.069349
O5	O	0.929606	0.056998	-0.069527
O6	O	0.809409	0.189730	-0.069507
O7	O	1.037697	0.191874	-0.069531
Zn8	Zn	0.922613	0.189631	-0.091566
Zn9	Zn	0.930411	0.199349	0.091387
O10	O	0.917501	0.324607	-0.069511
C11	C	0.783152	0.190658	-0.000074
C12	C	0.696097	0.182423	-0.000065
C13	C	0.645968	0.261883	-0.000061
C14	C	0.564170	0.254139	-0.000073
C15	C	0.532503	0.166934	-0.000083
C16	C	0.582638	0.087468	-0.000089
C17	C	0.664434	0.095213	-0.000083
C18	C	0.288859	0.134836	-0.000107
C19	C	0.207057	0.127097	-0.000111
C20	C	0.188594	0.293769	-0.000095
C21	C	0.270393	0.301506	-0.000084
C22	C	0.320521	0.222040	-0.000095
N23	N	0.448893	0.159017	-0.000092
N24	N	0.404129	0.229958	-0.000092
C25	C	0.932001	0.026285	-0.000097
C26	C	0.930310	-0.076217	-0.000098
C27	C	0.924087	-0.451559	-0.000075
C28	C	0.925815	-0.347127	-0.000082
C29	C	0.927198	-0.263891	-0.000087
C30	C	0.928927	-0.159453	-0.000092
C31	C	1.069872	0.198322	-0.000103
C32	C	1.156928	0.206557	-0.000106
C33	C	0.921024	0.362695	-0.000079
C34	C	0.922715	0.465198	-0.000073
N35	N	0.917297	0.182998	-0.216426
C36	C	0.963074	0.240157	-0.260118
C37	C	0.959366	0.235512	-0.347525
C38	C	0.909876	0.173713	-0.391238
C39	C	0.864098	0.116548	-0.347540
C40	C	0.867811	0.121188	-0.260135
C41	C	0.893668	0.153451	-0.652649
C42	C	0.889957	0.148816	-0.740060
C43	C	0.985226	0.267780	-0.740039
C44	C	0.988931	0.272420	-0.652632
C45	C	0.943156	0.215251	-0.608942
N46	N	0.906083	0.168965	-0.480582
N47	N	0.946954	0.219994	-0.519599
N48	N	0.935734	0.205975	0.216248
H49	H	0.296170	0.372518	-0.000066
H50	H	0.856395	0.106899	-0.617086
H51	H	0.556848	0.016463	-0.000110
O52	O	1.029811	0.323263	-0.782389
C53	C	1.110275	0.304742	-0.761041
H54	H	1.116285	0.272589	-0.697582
H55	H	1.136999	0.254797	-0.810236
C56	C	1.146571	0.434903	-0.834932
C57	C	1.153953	0.395419	-0.756987
H58	H	1.173515	0.490835	-0.832435
H59	H	1.092361	0.447379	-0.849318
H60	H	1.168840	0.393273	-0.875919
H61	H	1.131675	0.437044	-0.716004
H62	H	1.208160	0.382951	-0.742595
H63	H	0.823807	0.066224	-0.383138
H64	H	0.671745	0.332895	-0.000052
H65	H	0.329664	0.070128	-0.000117
H66	H	0.523358	0.318844	-0.000068
H67	H	0.147772	0.358466	-0.000088
H68	H	0.830535	0.074644	-0.224562
O69	O	0.841866	0.088696	-0.782393
C70	C	0.802247	0.039250	-0.725086
H71	H	0.837348	0.039588	-0.662779
H72	H	0.741142	0.073156	-0.715788
C73	C	0.750985	-0.061437	-0.835738
C74	C	0.794100	-0.061028	-0.759214
H75	H	0.745955	-0.123292	-0.856791
H76	H	0.777674	-0.028123	-0.874348
H77	H	0.700068	-0.033177	-0.827980
H78	H	0.845019	-0.089277	-0.766976
H79	H	0.767419	-0.094349	-0.720606
H80	H	0.181277	0.056081	-0.000118
H81	H	0.705249	0.030508	-0.000086
H82	H	0.996643	0.282056	-0.383096
O83	O	1.011215	0.300215	-0.217788
C84	C	1.050809	0.349683	-0.275100
H85	H	1.052686	0.308532	-0.337408
H86	H	1.018208	0.419184	-0.284393
C87	C	1.133255	0.415967	-0.164456
C88	C	1.135567	0.365420	-0.240981
H89	H	1.185537	0.425678	-0.143409
H90	H	1.106579	0.382642	-0.125843
H91	H	1.106085	0.473879	-0.172211
H92	H	1.162728	0.307505	-0.233224
H93	H	1.162250	0.398736	-0.279592
H94	H	1.029233	0.322741	-0.617047
