data_functionalizedCrystal
_audit_creation_method	'MofGen! by Chris Wilmer'
_symmetry_space_group_name_H-M	'P1'
_symmetry_Int_Tables_number	1
_symmetry_cell_setting	triclinic
loop_
_symmetry_equiv_pos_as_xyz
  x,y,z
_cell_length_a	12.811457
_cell_length_b	11.792241
_cell_length_c	11.295501
_cell_angle_alpha	94.573551
_cell_angle_beta	89.163056
_cell_angle_gamma	84.118185
loop_
_atom_site_label
_atom_site_type_symbol
_atom_site_fract_x
_atom_site_fract_y
_atom_site_fract_z
O1	O	1.390253	0.149328	-0.051112
O2	O	1.890253	0.649328	0.448888
O3	O	1.086866	0.168220	-0.018346
O4	O	1.586866	0.668220	0.481654
O5	O	1.245921	-0.006466	-0.035532
O6	O	1.745921	0.493534	0.464468
O7	O	1.231198	0.324015	-0.033925
O8	O	1.731198	0.824015	0.466075
O9	O	1.233303	-0.020075	-0.232221
O10	O	1.733303	0.479925	0.267779
O11	O	1.074248	0.154611	-0.215034
O12	O	1.574248	0.654611	0.284966
O13	O	1.377635	0.135719	-0.247801
O14	O	1.877635	0.635719	0.252199
Cu15	Cu	1.224789	0.143923	-0.249377
Cu16	Cu	1.724789	0.643923	0.250623
Cu17	Cu	1.239712	0.160017	-0.016770
Cu18	Cu	1.739712	0.660017	0.483230
O19	O	1.218580	0.310406	-0.230614
O20	O	1.718580	0.810406	0.269386
C21	C	1.041717	0.160775	-0.112495
C22	C	1.541717	0.660775	0.387505
C23	C	0.925986	0.158851	-0.099996
C24	C	1.425986	0.658851	0.400004
C25	C	0.694757	0.140376	-0.290964
C26	C	1.194757	0.640376	0.209036
C27	C	0.586017	0.138567	-0.279226
C28	C	1.086017	0.638567	0.220774
C29	C	0.599764	0.153417	-0.064784
C30	C	1.099764	0.653417	0.435216
C31	C	0.708504	0.155226	-0.076522
C32	C	1.208504	0.655226	0.423478
C33	C	0.755997	0.148706	-0.189615
C34	C	1.255997	0.648706	0.310385
C35	C	0.864738	0.150523	-0.201352
C36	C	1.364738	0.650523	0.298648
C37	C	0.878484	0.165365	0.013089
C38	C	1.378484	0.665365	0.513089
C39	C	0.769743	0.163556	0.024826
C40	C	1.269743	0.663556	0.524826
C41	C	1.238688	-0.055553	-0.133776
C42	C	1.738688	0.444447	0.366224
C43	C	1.235919	-0.181540	-0.133476
C44	C	1.735919	0.318460	0.366524
C45	C	1.230830	-0.412203	-0.132907
C46	C	1.730830	0.087797	0.367093
C47	C	1.233658	-0.283846	-0.133223
C48	C	1.733658	0.216154	0.366777
C49	C	1.422784	0.143165	-0.153648
C50	C	1.922784	0.643165	0.346352
C51	C	1.538516	0.145089	-0.166140
C52	C	2.038516	0.645089	0.333860
C53	C	1.225814	0.359493	-0.132367
C54	C	1.725814	0.859493	0.367633
C55	C	1.228583	0.485481	-0.132660
C56	C	1.728583	0.985481	0.367340
N57	N	1.214301	0.132602	-0.412981
N58	N	1.714301	0.632602	0.087019
C59	C	1.325696	0.252876	-0.674296
C60	C	1.825696	0.752876	-0.174296
C61	C	1.317778	0.244311	-0.798105
C62	C	1.817778	0.744311	-0.298105
C63	C	1.190554	0.106903	-0.784410
C64	C	1.690554	0.606903	-0.284410
C65	C	1.198472	0.115468	-0.660602
C66	C	1.698472	0.615468	-0.160602
C67	C	1.266044	0.188458	-0.605549
C68	C	1.766044	0.688458	-0.105549
C69	C	1.273955	0.197027	-0.481737
C70	C	1.773955	0.697027	0.018263
C71	C	1.146738	0.059614	-0.468046
C72	C	1.646738	0.559614	0.031954
C73	C	1.138820	0.051049	-0.591854
C74	C	1.638820	0.551049	-0.091854
N75	N	1.250208	0.171329	0.146834
N76	N	1.750208	0.671329	0.646834
H77	H	0.928356	0.172155	0.095614
H78	H	1.428356	0.672155	0.595614
H79	H	0.731061	0.168858	0.116904
H80	H	1.231061	0.668858	0.616904
C81	C	1.383388	0.315190	-0.873721
C82	C	1.883388	0.815190	-0.373721
N83	N	1.432805	0.368583	-0.930675
N84	N	1.932805	0.868583	-0.430675
C85	C	1.064490	-0.029231	-0.652427
C86	C	1.564490	0.470769	-0.152427
N87	N	1.008499	-0.089694	-0.698048
N88	N	1.508499	0.410306	-0.198048
C89	C	0.747001	0.133212	-0.415366
C90	C	1.247001	0.633212	0.084634
N91	N	0.786349	0.127814	-0.509068
N92	N	1.286349	0.627814	-0.009068
C93	C	0.518656	0.129413	-0.390717
C94	C	1.018656	0.629413	0.109283
N95	N	0.467919	0.122520	-0.474697
N96	N	0.967919	0.622520	0.025303
H97	H	0.561078	0.158706	0.027291
H98	H	1.061078	0.658706	0.527291
H99	H	0.903404	0.145221	-0.293439
H100	H	1.403404	0.645221	0.206561
H101	H	1.135551	0.047466	-0.829258
H102	H	1.635551	0.547466	-0.329258
H103	H	1.328971	0.256464	-0.436914
H104	H	1.828971	0.756464	0.063086
H105	H	1.380705	0.312318	-0.629470
H106	H	1.880705	0.812318	-0.129470
C107	C	1.081048	-0.011177	-0.392406
C108	C	1.581048	0.488823	0.107594
N109	N	1.031546	-0.064465	-0.335430
N110	N	1.531546	0.435535	0.164570
