data_functionalizedCrystal
_audit_creation_method	'MofGen! by Chris Wilmer'
_symmetry_space_group_name_H-M	'P1'
_symmetry_Int_Tables_number	1
_symmetry_cell_setting	triclinic
loop_
_symmetry_equiv_pos_as_xyz
  x,y,z
_cell_length_a	14.908571
_cell_length_b	16.994746
_cell_length_c	14.908308
_cell_angle_alpha	86.704843
_cell_angle_beta	89.824947
_cell_angle_gamma	86.707907
loop_
_atom_site_label
_atom_site_type_symbol
_atom_site_fract_x
_atom_site_fract_y
_atom_site_fract_z
Zn1	Zn	1.345367	-0.411654	0.587812
Zn2	Zn	1.353969	-0.536423	0.437522
Zn3	Zn	1.203680	-0.396503	0.428801
Zn4	Zn	1.194997	-0.535486	0.579173
O5	O	1.274503	-0.470016	0.508327
O6	O	1.472335	-0.434938	0.575140
O7	O	1.341267	-0.511914	0.310537
O8	O	1.222509	-0.288131	0.449860
O9	O	1.478655	-0.526605	0.464723
O10	O	1.326606	-0.299263	0.566684
O11	O	1.230850	-0.409115	0.304130
O12	O	1.076701	-0.408206	0.441483
O13	O	1.207710	-0.525008	0.706147
O14	O	1.070321	-0.510316	0.551961
O15	O	1.318186	-0.434029	0.712494
O16	O	1.332847	-0.646680	0.456346
O17	O	1.216051	-0.645991	0.560417
C18	C	1.040885	-0.457516	0.494839
C19	C	0.940941	-0.452188	0.489090
C20	C	1.274451	-0.674957	0.508388
C21	C	1.274459	-0.764279	0.508396
Zn22	Zn	1.203836	-1.027568	0.428655
Zn23	Zn	1.354104	-0.903674	0.437630
Zn24	Zn	1.345279	-1.042740	0.587884
Zn25	Zn	1.194913	-0.902883	0.579036
O26	O	1.274533	-0.969216	0.508301
O27	O	1.231198	-1.005115	0.304029
O28	O	1.478749	-0.928803	0.465020
O29	O	1.326557	-1.151108	0.566709
O30	O	1.341598	-0.914091	0.310623
O31	O	1.222640	-1.139961	0.449724
O32	O	1.472265	-1.030974	0.575411
O33	O	1.317904	-1.030206	0.712527
O34	O	1.070281	-0.912741	0.551628
O35	O	1.207431	-0.927453	0.706026
O36	O	1.076837	-1.004347	0.441144
O37	O	1.332946	-0.793189	0.456441
O38	O	1.215989	-0.792607	0.560331
C39	C	0.746551	-0.548654	0.593173
C40	C	0.652644	-0.543650	0.587774
C41	C	0.659220	-0.437175	0.472899
C42	C	0.753127	-0.442179	0.478298
C43	C	0.796789	-0.497920	0.538436
C44	C	0.890697	-0.502927	0.543829
C45	C	0.897271	-0.396449	0.428959
C46	C	0.803364	-0.391445	0.423561
C47	C	1.509033	-0.482566	0.521868
C48	C	1.608976	-0.487914	0.527639
C49	C	1.261020	-0.481104	0.742858
C50	C	1.255274	-0.485829	0.842802
C51	C	1.274560	-0.264276	0.508260
C52	C	1.274588	-0.174954	0.508232
C53	C	1.287986	-0.458918	0.274711
C54	C	1.293906	-0.453980	0.174778
C55	C	1.359514	-0.399953	1.037216
C56	C	1.354118	-0.404390	1.131122
C57	C	1.239083	-0.499135	1.124521
C58	C	1.244479	-0.494698	1.030615
C59	C	1.304697	-0.445106	0.986966
C60	C	1.310097	-0.440674	0.893059
C61	C	1.195058	-0.535414	0.886459
C62	C	1.189662	-0.539851	0.980364
C63	C	1.260741	-0.980390	0.741899
C64	C	1.254820	-0.985150	0.841832
C65	C	1.040024	-0.956763	0.494398
C66	C	0.940090	-0.951457	0.488474
C67	C	1.288378	-0.957999	0.273791
C68	C	1.294278	-0.953218	0.173857
C69	C	1.508133	-0.981674	0.522099
C70	C	1.608076	-0.987193	0.527852
C71	C	1.194605	-0.933812	0.885362
C72	C	1.189024	-0.938283	0.979259
C73	C	1.243662	-0.994089	1.029624
C74	C	1.303879	-1.045432	0.986088
C75	C	1.309456	-1.040964	0.892193
C76	C	0.896569	-0.996665	0.428168
C77	C	0.802671	-0.991695	0.422601
C78	C	0.752296	-0.941512	0.477337
C79	C	0.795823	-0.896302	0.537649
C80	C	0.889720	-0.901277	0.543220
C81	C	1.354566	-1.004477	0.130306
C82	C	1.360110	-1.000002	0.036407
C83	C	1.305369	-0.944263	-0.013939
C84	C	1.245073	-0.893002	0.029617
C85	C	1.239526	-0.897482	0.123514
C86	C	1.651870	-0.941719	0.587679
C87	C	1.745776	-0.946905	0.593103
C88	C	1.795888	-0.997561	0.538693
C89	C	1.752088	-1.043040	0.478863
C90	C	1.658182	-1.037858	0.473445
H91	H	0.926245	-0.548316	0.592795
C92	C	1.123433	-0.594403	1.028390
C93	C	1.158685	-0.661458	1.095219
C94	C	1.092460	-0.716013	1.143246
C95	C	0.990981	-0.703514	1.124444
C96	C	0.955723	-0.636456	1.057612
C97	C	1.021949	-0.581900	1.009585
H98	H	1.233810	-0.670713	1.109140
H99	H	1.118560	-0.765654	1.192720
H100	H	0.941957	-0.743899	1.159997
H101	H	0.880599	-0.627200	1.043691
H102	H	0.995848	-0.532259	0.960111
H103	H	1.409214	-1.041744	0.000958
H104	H	0.611744	-0.584961	0.632348
H105	H	1.200505	-0.847621	-0.011389
H106	H	1.611081	-0.900465	0.631985
H107	H	1.781424	-0.909866	0.641822
C108	C	0.755336	-0.330128	0.357414
C109	C	0.774099	-0.332283	0.255927
C110	C	0.726075	-0.270964	0.189778
C111	C	0.659287	-0.207490	0.225116
C112	C	0.640521	-0.205333	0.326609
C113	C	0.688545	-0.266652	0.392758
H114	H	0.823543	-0.379272	0.229762
H115	H	0.739968	-0.272560	0.114646
H116	H	0.623737	-0.162098	0.176149
H117	H	0.591078	-0.158344	0.352773
H118	H	0.674652	-0.265056	0.467889
H119	H	0.782101	-0.594045	0.642134
H120	H	1.150111	-0.888365	0.844366
C121	C	1.311483	-0.939337	-0.117227
C122	C	1.377809	-0.995722	-0.165122
C123	C	1.383930	-0.990798	-0.268409
C124	C	1.323725	-0.929489	-0.323800
C125	C	1.257394	-0.873099	-0.275905
C126	C	1.251273	-0.878023	-0.172618
H127	H	1.422380	-1.041111	-0.124118
H128	H	1.433032	-1.032541	-0.303863
H129	H	1.328256	-0.925843	-0.400259
H130	H	1.212822	-0.827710	-0.316909
H131	H	1.202170	-0.836280	-0.137163
H132	H	0.754794	-0.855444	0.582213
H133	H	1.622534	-1.074888	0.424722
C134	C	0.611171	-0.375861	0.406765
C135	C	0.544379	-0.312402	0.442127
C136	C	0.496323	-0.251086	0.375997
C137	C	0.515060	-0.253229	0.274504
C138	C	0.581856	-0.316690	0.239136
C139	C	0.629911	-0.378006	0.305266
H140	H	0.530506	-0.310814	0.517263
H141	H	0.446877	-0.204109	0.402179
H142	H	0.479487	-0.207839	0.225550
H143	H	0.595729	-0.318278	0.164000
H144	H	0.679357	-0.424983	0.279084
C145	C	1.899185	-1.003251	0.544654
C146	C	1.947348	-0.953221	0.610463
C147	C	2.050644	-0.958906	0.616426
C148	C	2.105777	-1.014620	0.556580
C149	C	2.057614	-1.064654	0.490767
C150	C	1.954318	-1.058970	0.484804
H151	H	1.906535	-0.911975	0.654769
H152	H	2.086298	-0.921867	0.665146
H153	H	2.182243	-1.018827	0.560994
H154	H	2.098427	-1.105900	0.446461
H155	H	1.918664	-1.096008	0.436084
C156	C	1.134744	-0.585087	0.831192
C157	C	1.031786	-0.573793	0.838215
C158	C	0.971474	-0.623467	0.782953
C159	C	1.014120	-0.684436	0.720668
C160	C	1.117083	-0.695733	0.713643
C161	C	1.177396	-0.646059	0.768905
H162	H	1.000213	-0.528658	0.884324
H163	H	0.895253	-0.615104	0.788154
H164	H	0.969473	-0.721208	0.679760
H165	H	1.148657	-0.740869	0.667534
H166	H	1.253616	-0.654422	0.763703
C167	C	0.951969	-1.051873	0.367956
C168	C	0.945084	-1.039874	0.264983
C169	C	1.000478	-1.095089	0.204772
C170	C	1.062756	-1.162303	0.247534
C171	C	1.069644	-1.174305	0.350513
C172	C	1.014250	-1.119090	0.410724
H173	H	0.898980	-0.990116	0.233323
H174	H	0.995379	-1.086204	0.128541
H175	H	1.103762	-1.203176	0.202962
H176	H	1.115748	-1.224063	0.382173
H177	H	1.019349	-1.127975	0.486956
C178	C	1.363985	-1.106811	1.041498
C179	C	1.357850	-1.111710	1.144779
C180	C	1.417960	-1.173083	1.200193
C181	C	1.484205	-1.229558	1.152325
C182	C	1.490343	-1.224661	1.049038
C183	C	1.430233	-1.163287	0.993625
H184	H	1.308808	-1.069902	1.180219
H185	H	1.413416	-1.176708	1.276652
H186	H	1.528702	-1.274991	1.193345
H187	H	1.539385	-1.266469	1.013599
H188	H	1.434777	-1.159662	0.917165
H189	H	1.190435	-0.855735	0.158965
H190	H	1.139989	-0.896469	1.014692
C191	C	0.937585	-0.851535	0.609553
C192	C	0.918631	-0.862167	0.710993
C193	C	0.966489	-0.812421	0.777331
C194	C	1.033302	-0.752044	0.742229
C195	C	1.052259	-0.741409	0.640784
C196	C	1.004401	-0.791155	0.574446
H197	H	0.869169	-0.906864	0.736983
H198	H	0.952455	-0.820294	0.852427
H199	H	1.068729	-0.715219	0.791336
H200	H	1.101721	-0.696712	0.614794
H201	H	1.018435	-0.783282	0.499349
C202	C	1.375709	-1.097433	0.844321
C203	C	1.477154	-1.097164	0.863349
C204	C	1.543413	-1.153637	0.815486
C205	C	1.508227	-1.210379	0.748595
C206	C	1.406777	-1.210650	0.729565
C207	C	1.340518	-1.154178	0.777428
H208	H	1.503205	-1.055158	0.912868
H209	H	1.618513	-1.153435	0.829574
H210	H	1.557276	-1.252184	0.713164
H211	H	1.380726	-1.252656	0.680045
H212	H	1.265418	-1.154379	0.763339
H213	H	1.792903	-1.084283	0.434565
C214	C	1.172859	-0.553680	1.172565
C215	C	1.208124	-0.620724	1.239402
C216	C	1.141907	-0.675271	1.287457
C217	C	1.040425	-0.662774	1.268674
C218	C	1.005155	-0.595727	1.201833
C219	C	1.071372	-0.541181	1.153779
H220	H	1.283252	-0.629978	1.253309
H221	H	1.168017	-0.724904	1.336937
H222	H	0.991407	-0.703153	1.304246
H223	H	0.930027	-0.586474	1.187926
H224	H	1.045262	-0.491548	1.104299
C225	C	1.414774	-1.065806	0.185674
C226	C	1.481071	-1.122197	0.137750
C227	C	1.541274	-1.183536	0.193110
C228	C	1.535180	-1.188486	0.296394
C229	C	1.468880	-1.132094	0.344323
C230	C	1.408677	-1.070754	0.288963
H231	H	1.485585	-1.118534	0.061289
H232	H	1.590354	-1.225281	0.157629
H233	H	1.579746	-1.233893	0.337374
H234	H	1.464366	-1.135756	0.420784
H235	H	1.359598	-1.029009	0.324444
H236	H	0.938185	-0.355139	0.384386
H237	H	0.675840	-0.937468	0.472792
H238	H	1.359131	-0.400295	0.857522
H239	H	1.408551	-0.359577	1.001677
H240	H	1.398753	-0.367619	1.172033
H241	H	1.239114	-0.997718	1.106079
H242	H	0.767244	-1.028510	0.373486
