data_functionalizedCrystal
_audit_creation_method	'MofGen! by Chris Wilmer'
_symmetry_space_group_name_H-M	'P1'
_symmetry_Int_Tables_number	1
_symmetry_cell_setting	triclinic
loop_
_symmetry_equiv_pos_as_xyz
  x,y,z
_cell_length_a	27.732048
_cell_length_b	27.732048
_cell_length_c	18.366186
_cell_angle_alpha	89.988789
_cell_angle_beta	89.996446
_cell_angle_gamma	82.642655
loop_
_atom_site_label
_atom_site_type_symbol
_atom_site_fract_x
_atom_site_fract_y
_atom_site_fract_z
O1	O	0.640930	0.057518	-0.060464
O2	O	0.500137	0.066263	-0.060487
O3	O	0.574906	-0.008506	-0.060461
O4	O	0.566161	0.132287	-0.060490
O5	O	0.574894	-0.008510	0.060639
O6	O	0.500124	0.066260	0.060613
O7	O	0.640918	0.057514	0.060636
Zn8	Zn	0.570519	0.061886	0.079851
Zn9	Zn	0.570535	0.061891	-0.079702
O10	O	0.566148	0.132284	0.060610
C11	C	0.482124	0.066078	0.000060
C12	C	0.428469	0.065525	0.000052
C13	C	0.089654	0.106229	0.000075
C14	C	-0.112006	0.104178	0.000082
O15	O	-0.143262	0.141398	0.000106
N16	N	-0.131130	0.059843	0.000090
C17	C	-0.099835	0.016017	0.000101
O18	O	-0.120728	-0.021740	0.000115
C19	C	0.101824	0.018068	0.000099
C20	C	0.120944	0.062407	0.000084
C21	C	0.108775	0.150563	0.000061
C22	C	0.159187	0.151075	0.000055
C23	C	0.190477	0.107253	0.000064
C24	C	0.171356	0.062919	0.000078
C25	C	0.133117	-0.025757	0.000115
C26	C	0.183535	-0.025240	0.000117
C27	C	0.202655	0.019098	0.000101
C28	C	0.253059	0.019609	0.000081
N29	N	0.272183	0.063944	0.000073
C30	C	0.240892	0.107766	0.000065
C31	C	-0.205709	0.014943	0.000100
C32	C	-0.256124	0.014430	0.000099
C33	C	-0.268291	0.102591	0.000082
C34	C	-0.217876	0.103104	0.000078
C35	C	-0.186585	0.059278	0.000092
C36	C	0.346761	0.108839	0.000052
C37	C	0.397178	0.109347	0.000043
C38	C	0.409341	0.021186	0.000065
C39	C	0.358929	0.020678	0.000069
C40	C	0.327639	0.064508	0.000066
O41	O	0.284343	-0.017592	0.000066
O42	O	0.261794	0.145518	0.000066
C43	C	0.039242	0.105716	0.000081
C44	C	0.020120	0.061382	0.000095
C45	C	0.051411	0.017560	0.000104
C46	C	-0.030294	0.060869	0.000094
C47	C	-0.061585	0.104691	0.000086
C48	C	-0.042461	0.149026	0.000078
C49	C	0.007951	0.149539	0.000072
C50	C	0.032287	-0.026775	0.000112
C51	C	-0.018125	-0.027284	0.000117
C52	C	-0.049416	0.016538	0.000108
C53	C	0.574716	-0.026515	0.000091
C54	C	0.574164	-0.080170	0.000097
C55	C	0.614867	-0.418985	0.000066
C56	C	0.612816	-0.620645	0.000056
O57	O	0.650037	-0.651900	0.000030
N58	N	0.568481	-0.639768	0.000049
C59	C	0.524656	-0.608474	0.000040
O60	O	0.486899	-0.629367	0.000027
C61	C	0.526707	-0.406815	0.000046
C62	C	0.571045	-0.387694	0.000060
C63	C	0.659202	-0.399864	0.000079
C64	C	0.659714	-0.349452	0.000086
C65	C	0.615892	-0.318161	0.000079
C66	C	0.571557	-0.337282	0.000066
C67	C	0.482882	-0.375521	0.000032
C68	C	0.483399	-0.325104	0.000031
C69	C	0.527737	-0.305983	0.000045
C70	C	0.528247	-0.255580	0.000066
N71	N	0.572583	-0.236456	0.000073
C72	C	0.616405	-0.267747	0.000080
C73	C	0.523582	-0.714348	0.000039
C74	C	0.523069	-0.764762	0.000039
C75	C	0.611230	-0.776930	0.000053
C76	C	0.611742	-0.726514	0.000058
C77	C	0.567917	-0.695224	0.000046
C78	C	0.617477	-0.161878	0.000094
C79	C	0.617986	-0.111461	0.000104
C80	C	0.529825	-0.099298	0.000086
C81	C	0.529316	-0.149710	0.000080
C82	C	0.573147	-0.180999	0.000082
O83	O	0.491047	-0.224296	0.000084
O84	O	0.654156	-0.246844	0.000077
C85	C	0.614355	-0.469397	0.000060
C86	C	0.570021	-0.488518	0.000047
C87	C	0.526198	-0.457228	0.000040
C88	C	0.569508	-0.538933	0.000047
C89	C	0.613330	-0.570223	0.000053
C90	C	0.657665	-0.551100	0.000060
C91	C	0.658177	-0.500688	0.000066
C92	C	0.481863	-0.476351	0.000033
C93	C	0.481355	-0.526764	0.000028
C94	C	0.525177	-0.558054	0.000034
C95	C	0.658931	0.057699	0.000087
C96	C	0.712586	0.058252	0.000091
C97	C	0.566338	0.150292	0.000056
C98	C	0.566891	0.203947	0.000046
N99	N	0.570511	0.061883	0.188743
N100	N	0.570547	0.061891	-0.188593
C101	C	0.603630	0.028791	0.226854
C102	C	0.603633	0.028789	0.303082
C103	C	0.570522	0.061887	0.341195
C104	C	0.537397	0.094981	0.303074
C105	C	0.537392	0.094979	0.226848
C106	C	0.563860	0.105958	0.461946
C107	C	0.563869	0.105961	0.538171
C108	C	0.570536	0.061893	0.576303
C109	C	0.577204	0.017820	0.538200
C110	C	0.577199	0.017818	0.461974
C111	C	0.570524	0.061892	0.423850
C112	C	0.603659	0.028796	0.697070
C113	C	0.603659	0.028793	0.773299
C114	C	0.537426	0.094989	0.773289
C115	C	0.537424	0.094988	0.697061
C116	C	0.570543	0.061892	0.658956
H117	H	0.321291	0.144530	0.000051
H118	H	0.493213	-0.165279	0.000089
H119	H	0.445246	-0.542327	0.000023
H120	H	0.510457	0.121936	0.666029
O121	O	0.557475	0.148759	0.575216
C122	C	0.598471	0.152379	0.619312
H123	H	0.631193	0.128063	0.596339
H124	H	0.606462	0.191689	0.620165
H125	H	0.590908	0.140314	0.677087
H126	H	-0.202311	0.139207	0.000069
O127	O	-0.036718	-0.070346	0.000000
C128	C	-0.065527	-0.073281	-0.062702
H129	H	-0.053793	-0.048112	-0.106551
H130	H	-0.060712	-0.112274	-0.083741
H131	H	-0.105370	-0.061832	-0.048519
O132	O	0.653831	-0.807281	-0.000042
C133	C	0.680768	-0.798665	-0.062771
H134	H	0.668612	-0.760326	-0.083677
H135	H	0.721111	-0.802515	-0.048668
H136	H	0.674365	-0.826187	-0.106690
O137	O	-0.274637	-0.028671	0.000009
C138	C	-0.258620	-0.055354	-0.062712
H139	H	-0.223748	-0.042442	-0.083626
H140	H	-0.251323	-0.095661	-0.048597
H141	H	-0.287836	-0.049535	-0.106631
O142	O	0.114632	-0.068870	0.000169
C143	C	0.153070	-0.107432	0.000165
H144	H	0.187219	-0.094134	0.023080
H145	H	0.142767	-0.138409	0.035341
H146	H	0.160304	-0.120935	-0.057926
H147	H	0.343360	-0.015426	0.000071
O148	O	-0.298643	0.145192	0.000174
C149	C	-0.290040	0.172122	0.062901
H150	H	-0.251704	0.159965	0.083809
H151	H	-0.293889	0.212467	0.048795
H152	H	-0.317569	0.165713	0.106820
H153	H	0.057760	-0.062462	0.000121
O154	O	0.700247	-0.581481	0.000193
C155	C	0.727193	-0.572872	0.062905
H156	H	0.701543	-0.555457	0.106743
H157	H	0.746844	-0.608793	0.083953
H158	H	0.754981	-0.547405	0.048731
O159	O	0.026461	0.192641	-0.000037
C160	C	0.010445	0.219324	-0.062770
H161	H	-0.024424	0.206409	-0.083675
H162	H	0.003142	0.259631	-0.048673
H163	H	0.039663	0.213511	-0.106688
H164	H	0.647846	-0.710950	0.000069
O165	O	0.415692	0.152451	-0.000068
C166	C	0.399676	0.179136	-0.062800
H167	H	0.364804	0.166225	-0.083702
H168	H	0.392379	0.219443	-0.048704
H169	H	0.428893	0.173319	-0.106720
O170	O	0.078363	0.193123	0.000176
C171	C	0.048821	0.195469	0.062880
H172	H	0.067458	0.170609	0.106730
H173	H	0.042873	0.234451	0.083915
H174	H	0.012246	0.183245	0.048700
O175	O	0.213978	-0.067781	0.000031
C176	C	0.243496	-0.070130	-0.062699
H177	H	0.245767	-0.031782	-0.083620
H178	H	0.281522	-0.088427	-0.048592
H179	H	0.227067	-0.092079	-0.106609
H180	H	0.582627	-0.018068	0.430954
H181	H	0.558422	0.141846	0.430905
H182	H	0.486964	-0.780325	0.000040
O183	O	0.177676	0.194189	0.000081
C184	C	0.139240	0.232752	0.000059
H185	H	0.105089	0.219455	0.022985
H186	H	0.149543	0.263728	0.035216
H187	H	0.132008	0.246255	-0.058040
O188	O	0.505214	0.127067	0.340175
C189	C	0.475586	0.101384	0.384273
H190	H	0.495125	0.063426	0.395701
H191	H	0.467792	0.121614	0.437870
H192	H	0.439884	0.098343	0.354908
H193	H	0.582633	-0.018065	0.569246
H194	H	0.447710	-0.299629	0.000020
H195	H	0.434827	-0.014492	0.000069
H196	H	0.695819	-0.333889	0.000094
H197	H	0.510422	0.121927	0.195816
O198	O	-0.072911	0.191564	-0.000027
C199	C	-0.102429	0.193910	-0.062752
H200	H	-0.104692	0.155562	-0.083656
H201	H	-0.140458	0.212199	-0.048646
H202	H	-0.086007	0.215867	-0.106675
H203	H	0.654093	-0.095896	0.000117
O204	O	0.439798	-0.394063	-0.000116
C205	C	0.413118	-0.378015	-0.062834
H206	H	0.439063	-0.367717	-0.106659
H207	H	0.392782	-0.408400	-0.083899
H208	H	0.385936	-0.344954	-0.048661
O209	O	0.660097	-0.192199	0.000131
C210	C	0.699333	-0.164502	0.000126
H211	H	0.686766	-0.126786	0.023052
H212	H	0.730012	-0.183324	0.035291
H213	H	0.712949	-0.161000	-0.057968
H214	H	0.694889	-0.425336	0.000082
O215	O	0.480962	-0.684024	0.000066
C216	C	0.441727	-0.711721	0.000044
H217	H	0.454289	-0.749444	0.022970
H218	H	0.411041	-0.692909	0.035202
H219	H	0.428122	-0.715205	-0.058054
H220	H	0.630626	0.001845	0.666043
H221	H	-0.180236	-0.020747	0.000112
H222	H	0.494146	-0.073812	0.000083
H223	H	0.694282	-0.485125	0.000077
O224	O	0.439324	-0.445910	0.000126
C225	C	0.436969	-0.416404	0.062858
H226	H	0.475315	-0.414133	0.083773
H227	H	0.418670	-0.378376	0.048756
H228	H	0.415018	-0.432842	0.106771
O229	O	0.635816	-0.003408	0.189953
C230	C	0.665056	-0.032609	0.239944
H231	H	0.645247	-0.033015	0.294287
H232	H	0.672719	-0.071265	0.217936
H233	H	0.700845	-0.017159	0.248035
O234	O	0.635827	-0.003292	0.340191
C235	C	0.665462	0.022396	0.384251
H236	H	0.645923	0.060353	0.395662
H237	H	0.673267	0.002168	0.437859
H238	H	0.701157	0.025437	0.354862
O239	O	0.635880	-0.003372	0.810210
C240	C	0.665101	-0.032589	0.760228
H241	H	0.665492	-0.012774	0.705884
H242	H	0.703760	-0.040223	0.782246
H243	H	0.649682	-0.068394	0.752137
H244	H	0.510464	0.121937	0.804320
