data_functionalizedCrystal
_audit_creation_method	'MofGen! by Chris Wilmer'
_symmetry_space_group_name_H-M	'P1'
_symmetry_Int_Tables_number	1
_symmetry_cell_setting	triclinic
loop_
_symmetry_equiv_pos_as_xyz
  x,y,z
_cell_length_a	8.559649
_cell_length_b	11.892095
_cell_length_c	8.597249
_cell_angle_alpha	78.362811
_cell_angle_beta	77.625029
_cell_angle_gamma	93.349364
loop_
_atom_site_label
_atom_site_type_symbol
_atom_site_fract_x
_atom_site_fract_y
_atom_site_fract_z
O1	O	2.130015	0.100330	-0.065143
O2	O	1.665223	0.092363	0.016710
O3	O	1.909167	0.118967	-0.256489
O4	O	1.886071	0.073726	0.208056
O5	O	1.888828	-0.071256	-0.233741
O6	O	1.644883	-0.097860	0.039458
O7	O	2.109675	-0.089892	-0.042395
Zn8	Zn	1.874050	-0.124078	0.002143
Zn9	Zn	1.900848	0.126548	-0.027828
O10	O	1.865731	-0.116496	0.230804
C11	C	1.595555	-0.003352	0.034287
C12	C	1.418268	-0.005149	0.052751
N13	N	1.855772	-0.295124	0.022595
C14	C	2.046322	-0.511001	-0.190699
C15	C	2.033558	-0.630736	-0.176393
C16	C	1.817473	-0.654330	0.065505
C17	C	1.830237	-0.534595	0.051199
C18	C	1.944667	-0.462935	-0.076906
C19	C	1.957438	-0.343198	-0.091204
C20	C	1.741346	-0.366794	0.150686
C21	C	1.728582	-0.486529	0.164992
C22	C	2.179344	0.005825	-0.059972
C23	C	2.356632	0.007629	-0.078437
C24	C	1.897650	0.029596	-0.304037
C25	C	1.893615	0.046701	-0.479602
N26	N	1.919139	0.297596	-0.048294
C27	C	1.877249	-0.027123	0.278351
C28	C	1.881284	-0.044221	0.453916
H29	H	1.439493	0.019948	-0.204880
Br30	Br	1.906100	0.198257	-0.608607
H31	H	1.658576	-0.327645	0.243348
Br32	Br	1.280161	-0.025658	0.263513
Br33	Br	1.573283	-0.583788	0.338835
H34	H	2.050616	-0.284853	-0.195509
Br35	Br	2.201637	-0.413747	-0.364532
H36	H	2.116333	-0.669867	-0.269056
Br37	Br	1.868838	-0.195769	-0.417095
Br38	Br	1.662162	-0.751592	0.239333
