data_functionalizedCrystal
_audit_creation_method	'MofGen! by Chris Wilmer'
_symmetry_space_group_name_H-M	'P1'
_symmetry_Int_Tables_number	1
_symmetry_cell_setting	triclinic
loop_
_symmetry_equiv_pos_as_xyz
  x,y,z
_cell_length_a	17.077404
_cell_length_b	16.120484
_cell_length_c	16.120297
_cell_angle_alpha	95.614431
_cell_angle_beta	92.878347
_cell_angle_gamma	92.925780
loop_
_atom_site_label
_atom_site_type_symbol
_atom_site_fract_x
_atom_site_fract_y
_atom_site_fract_z
Zn1	Zn	1.159640	-0.356743	-0.489453
Zn2	Zn	1.659640	0.143257	0.010547
Zn3	Zn	1.159541	-0.489433	-0.356764
Zn4	Zn	1.659541	0.010567	0.143236
Zn5	Zn	1.035382	-0.349680	-0.349700
Zn6	Zn	1.535382	0.150320	0.150300
Zn7	Zn	1.021327	-0.496475	-0.496486
Zn8	Zn	1.521327	0.003525	0.003514
O9	O	1.093973	-0.423083	-0.423101
O10	O	1.593973	0.076917	0.076899
O11	O	1.269473	-0.374354	-0.471865
O12	O	1.769473	0.125646	0.028135
O13	O	1.148912	-0.464991	-0.238865
O14	O	1.648912	0.035009	0.261135
O15	O	1.057788	-0.233651	-0.362338
O16	O	1.557788	0.266349	0.137662
O17	O	1.269400	-0.471840	-0.374379
O18	O	1.769400	0.028160	0.125621
O19	O	1.149080	-0.238841	-0.465015
O20	O	1.649080	0.261159	0.034985
O21	O	1.057692	-0.362315	-0.233675
O22	O	1.557692	0.137685	0.266325
O23	O	0.923671	-0.369143	-0.369158
O24	O	1.423671	0.130857	0.130842
O25	O	1.033834	-0.483842	-0.612515
O26	O	1.533834	0.016158	-0.112515
O27	O	0.913346	-0.476993	-0.477002
O28	O	1.413346	0.023007	0.022998
O29	O	1.135452	-0.381182	-0.607348
O30	O	1.635452	0.118818	-0.107348
O31	O	1.135284	-0.607332	-0.381198
O32	O	1.635284	-0.107332	0.118802
O33	O	1.033738	-0.612506	-0.483852
O34	O	1.533738	-0.112506	0.016148
C35	C	0.890027	-0.423066	-0.423077
C36	C	1.390027	0.076934	0.076923
C37	C	0.802776	-0.423080	-0.423088
C38	C	1.302776	0.076920	0.076912
C39	C	0.756430	-0.479314	-0.479160
C40	C	1.256430	0.020686	0.020840
C41	C	0.674448	-0.479316	-0.479174
C42	C	1.174448	0.020684	0.020826
C43	C	0.638815	-0.423089	-0.423110
C44	C	1.138815	0.076911	0.076890
C45	C	0.685167	-0.366849	-0.367035
C46	C	1.185167	0.133151	0.132965
C47	C	0.767147	-0.366843	-0.367026
C48	C	1.267147	0.133157	0.132974
C49	C	0.514295	-0.366867	-0.367056
C50	C	1.014295	0.133133	0.132944
C51	C	0.432310	-0.366873	-0.367063
C52	C	0.932310	0.133127	0.132937
C53	C	0.421597	-0.479340	-0.479203
C54	C	0.921597	0.020660	0.020797
C55	C	0.503577	-0.479334	-0.479195
C56	C	1.003577	0.020666	0.020805
C57	C	0.549923	-0.423095	-0.423118
C58	C	1.049923	0.076905	0.076882
C59	C	1.082995	-0.640248	-0.434073
C60	C	1.582995	-0.140248	0.065927
C61	C	1.078370	-0.733153	-0.438795
C62	C	1.578370	-0.233153	0.061205
C63	C	1.069928	-0.903253	-0.447433
C64	C	1.569928	-0.403253	0.052567
C65	C	1.118157	-0.942072	-0.398782
C66	C	1.618157	-0.442072	0.101218
C67	C	1.113460	-1.036721	-0.403589
C68	C	1.613460	-0.536721	0.096411
C69	C	1.074624	-0.808595	-0.442628
C70	C	1.574624	-0.308595	0.057372
C71	C	1.298715	-0.423100	-0.423125
C72	C	1.798715	0.076900	0.076875
C73	C	1.385964	-0.423107	-0.423136
C74	C	1.885964	0.076893	0.076864
C75	C	1.083086	-0.434085	-0.641107
C76	C	1.583086	0.065915	-0.141107
C77	C	1.078447	-0.438774	-0.734008
C78	C	1.578447	0.061226	-0.234008
C79	C	1.105013	-0.205070	-0.412104
C80	C	1.605013	0.294930	0.087896
C81	C	1.109718	-0.112167	-0.407418
C82	C	1.609718	0.387833	0.092582
C83	C	1.069950	-0.447316	-0.904098
C84	C	1.569950	0.052684	-0.404098
C85	C	1.118162	-0.398599	-0.942943
C86	C	1.618162	0.101401	-0.442943
C87	C	1.113434	-0.403352	-1.037587
C88	C	1.613434	0.096648	-0.537587
C89	C	1.074677	-0.442564	-0.809445
C90	C	1.574677	0.057436	-0.309445
C91	C	1.104865	-0.412062	-0.205940
C92	C	1.604865	0.087938	0.294060
C93	C	1.109667	-0.407138	-0.113028
C94	C	1.609667	0.092862	0.386972
H95	H	0.552028	-0.321064	-0.321399
H96	H	1.052028	0.178936	0.178601
H97	H	1.162973	-0.904221	-0.353521
H98	H	1.662973	-0.404221	0.146479
H99	H	0.383857	-0.525129	-0.524865
H100	H	0.883857	-0.025129	-0.024865
N101	N	0.646735	-0.306209	-0.306561
N102	N	1.146735	0.193791	0.193439
H103	H	0.688537	-0.270583	-0.271038
H104	H	1.188537	0.229417	0.228962
H105	H	0.612975	-0.269303	-0.338696
H106	H	1.112975	0.230697	0.161304
N107	N	1.177547	-0.338632	-0.892842
N108	N	1.677547	0.161368	-0.392842
H109	H	1.232230	-0.352371	-0.908655
H110	H	1.732230	0.147629	-0.408655
H111	H	1.167578	-0.279676	-0.904970
H112	H	1.667578	0.220324	-0.404970
N113	N	1.010576	-0.507299	-0.954181
N114	N	1.510576	-0.007299	-0.454181
H115	H	0.955889	-0.493571	-0.938371
H116	H	1.455889	0.006429	-0.438371
H117	H	1.015639	-0.502214	-1.015655
H118	H	1.515639	-0.002214	-0.515655
N119	N	0.393861	-0.306256	-0.306581
N120	N	0.893861	0.193744	0.193419
H121	H	0.360091	-0.269300	-0.338648
H122	H	0.860091	0.230700	0.161352
H123	H	0.360119	-0.338304	-0.269540
H124	H	0.860119	0.161696	0.230460
N125	N	0.817138	-0.306186	-0.306554
N126	N	1.317138	0.193814	0.193446
H127	H	0.782126	-0.270567	-0.271038
H128	H	1.282126	0.229433	0.228962
H129	H	0.851367	-0.338187	-0.269529
H130	H	1.351367	0.161813	0.230471
H131	H	1.025114	-0.941101	-0.492689
H132	H	1.525114	-0.441101	0.007311
N133	N	0.794856	-0.539967	-0.539627
N134	N	1.294856	-0.039967	-0.039627
H135	H	0.778270	-0.530094	-0.598717
H136	H	1.278270	-0.030094	-0.098717
H137	H	0.853813	-0.531405	-0.531041
H138	H	1.353813	-0.031405	-0.031041
H139	H	0.636717	-0.525108	-0.524833
H140	H	1.136717	-0.025108	-0.024833
H141	H	0.532587	-0.525124	-0.524842
H142	H	1.032587	-0.025124	-0.024842
