data_functionalizedCrystal
_audit_creation_method	'MofGen! by Chris Wilmer'
_symmetry_space_group_name_H-M	'P1'
_symmetry_Int_Tables_number	1
_symmetry_cell_setting	triclinic
loop_
_symmetry_equiv_pos_as_xyz
  x,y,z
_cell_length_a	18.101398
_cell_length_b	18.101397
_cell_length_c	19.805399
_cell_angle_alpha	90.029325
_cell_angle_beta	90.009370
_cell_angle_gamma	90.016023
loop_
_atom_site_label
_atom_site_type_symbol
_atom_site_fract_x
_atom_site_fract_y
_atom_site_fract_z
Zn1	Zn	1.132173	-0.294935	0.382527
Zn2	Zn	1.132093	-0.418778	0.269335
Zn3	Zn	1.008333	-0.294945	0.269372
Zn4	Zn	1.008306	-0.418729	0.382502
O5	O	1.070226	-0.356847	0.325934
O6	O	1.235795	-0.311379	0.367507
O7	O	1.115653	-0.402377	0.174624
O8	O	1.024805	-0.191311	0.284408
O9	O	1.235736	-0.402366	0.284346
O10	O	1.115790	-0.191303	0.367542
O11	O	1.024727	-0.311397	0.174650
O12	O	0.904696	-0.311350	0.284384
O13	O	1.024759	-0.402283	0.477222
O14	O	0.904676	-0.402293	0.367500
O15	O	1.115764	-0.311331	0.477240
O16	O	1.115627	-0.522405	0.284322
O17	O	1.024681	-0.522369	0.367465
C18	C	0.877815	-0.356818	0.325944
C19	C	0.795501	-0.356823	0.325964
C20	C	0.496410	-0.356867	0.325935
C21	C	0.527748	-0.414362	0.377972
C22	C	0.613366	-0.414182	0.378186
C23	C	0.644793	-0.356846	0.325950
C24	C	0.613724	-0.278844	0.345446
C25	C	0.528079	-0.279189	0.345816
C26	C	0.527962	-0.376685	0.254278
C27	C	0.613612	-0.378396	0.254660
C28	C	0.728652	-0.356829	0.325956
C29	C	0.412551	-0.356878	0.325930
C30	C	1.070163	-0.549257	0.325901
C31	C	1.070203	-0.631572	0.325910
C32	C	1.070298	-0.930662	0.325972
C33	C	1.127359	-0.899329	0.273520
C34	C	1.127556	-0.813710	0.273656
C35	C	1.070251	-0.782280	0.325941
C36	C	1.091406	-0.813291	0.397282
C37	C	1.091848	-0.898935	0.396996
C38	C	0.991929	-0.899165	0.307699
C39	C	0.992316	-0.813515	0.306107
C40	C	1.070223	-0.698420	0.325927
C41	C	1.070327	-1.014522	0.325990
C42	C	1.263388	-0.356877	0.325925
C43	C	1.345702	-0.356889	0.325921
C44	C	1.070268	-0.356800	0.502477
C45	C	1.070285	-0.356780	0.577709
C46	C	1.070310	-0.163685	0.325982
C47	C	1.070345	-0.081371	0.326002
C48	C	1.070227	-0.356840	0.150078
C49	C	1.070353	-0.356651	0.074847
C50	C	1.117672	-0.309420	0.613064
C51	C	1.117680	-0.309398	0.683752
C52	C	1.070304	-0.356742	0.719085
C53	C	1.022911	-0.404104	0.683725
C54	C	1.022900	-0.404122	0.613038
C55	C	1.022953	-0.404035	0.968798
C56	C	1.022969	-0.404016	1.039491
C57	C	1.117733	-0.309312	1.039513
C58	C	1.117722	-0.309329	0.968826
C59	C	1.070327	-0.356689	0.933472
C60	C	1.070318	-0.356711	0.856824
C61	C	1.070315	-0.356724	0.795732
H62	H	0.634080	-0.234844	0.308727
H63	H	0.506359	-0.432591	0.236561
O64	O	1.163634	-0.263293	0.934435
C65	C	1.121473	-0.215455	0.893579
H66	H	1.065343	-0.241579	0.882979
H67	H	1.113352	-0.160572	0.920845
C68	C	1.231150	-0.169961	0.839459
C69	C	1.162212	-0.202050	0.826435
H70	H	1.256280	-0.161688	0.798042
H71	H	1.259555	-0.202188	0.866986
H72	H	1.224373	-0.124229	0.862182
H73	H	1.168991	-0.247784	0.803720
H74	H	1.133809	-0.169830	0.798902
H75	H	0.635005	-0.339560	0.213807
H76	H	0.972683	-0.920823	0.256580
O77	O	0.976986	-0.450143	0.934499
C78	C	0.993118	-0.523952	0.951766
H79	H	1.052288	-0.527708	0.971181
H80	H	0.953421	-0.543282	0.992803
C81	C	0.911763	-0.568780	0.865118
C82	C	0.984439	-0.573394	0.888959
H83	H	0.906406	-0.599280	0.826377
H84	H	0.900893	-0.519054	0.853486
H85	H	0.878691	-0.584887	0.899321
H86	H	1.017509	-0.557279	0.854759
H87	H	0.995315	-0.623120	0.900583
H88	H	1.156321	-0.270747	1.068306
O89	O	1.196773	-0.789076	0.288043
C90	C	1.197222	-0.711186	0.288238
H91	H	1.149233	-0.689856	0.256480
H92	H	1.191265	-0.690285	0.342273
C93	C	1.329527	-0.709352	0.297367
C94	C	1.270590	-0.683153	0.258355
H95	H	1.374785	-0.692058	0.278936
H96	H	1.329225	-0.761827	0.297238
H97	H	1.324553	-0.691931	0.342393
H98	H	1.275560	-0.700580	0.213333
H99	H	1.270894	-0.630679	0.258476
O100	O	0.938911	-0.788084	0.348434
C101	C	0.955118	-0.810129	0.415078
H102	H	0.992533	-0.860763	0.413955
H103	H	0.984322	-0.763159	0.442650
C104	C	0.836878	-0.767069	0.453527
C105	C	0.882826	-0.829263	0.452147
H106	H	0.792286	-0.778869	0.476395
H107	H	0.825960	-0.752215	0.408628
H108	H	0.861223	-0.727934	0.476502
H109	H	0.858485	-0.868394	0.429165
H110	H	0.893739	-0.844125	0.497043
H111	H	0.633927	-0.435794	0.239956
H112	H	1.051116	-0.792929	0.437413
H113	H	0.976364	-0.793254	0.253605
O114	O	0.976957	-0.450240	0.578718
C115	C	0.993106	-0.524046	0.595984
H116	H	1.052268	-0.527783	0.615423
H117	H	0.953397	-0.543394	0.637004
C118	C	0.911809	-0.568893	0.509300
C119	C	0.984474	-0.573484	0.533170
H120	H	0.906481	-0.599390	0.470555
H121	H	0.900926	-0.519169	0.497669
H122	H	0.878725	-0.585015	0.543489
H123	H	1.017555	-0.557353	0.498984
H124	H	0.995362	-0.623207	0.544794
H125	H	1.149132	-0.918859	0.412476
O126	O	0.977048	-0.450086	1.073842
C127	C	1.019196	-0.497905	1.114728
H128	H	1.077516	-0.502497	1.093422
H129	H	1.021772	-0.474996	1.168307
C130	C	0.911349	-0.569245	1.141964
C131	C	0.982977	-0.574889	1.115791
H132	H	0.889007	-0.616731	1.142622
H133	H	0.882952	-0.537027	1.114420
H134	H	0.913505	-0.550151	1.186610
H135	H	0.980820	-0.593974	1.071143
H136	H	1.011373	-0.607112	1.143327
H137	H	0.507143	-0.472394	0.365889
O138	O	0.976783	-0.450016	0.718014
C139	C	0.902978	-0.433836	0.700732
H140	H	0.899261	-0.374677	0.681318
H141	H	0.883596	-0.473545	0.659689
C142	C	0.858125	-0.515095	0.787366
C143	C	0.853559	-0.442432	0.763527
H144	H	0.827640	-0.520400	0.826100
H145	H	0.907849	-0.525998	0.799008
H146	H	0.841975	-0.548178	0.753158
H147	H	0.869717	-0.409352	0.797733
H148	H	0.803837	-0.431523	0.751893
O149	O	1.196193	-0.924990	0.287879
C150	C	1.193005	-0.971179	0.345105
H151	H	1.142011	-0.956869	0.376241
H152	H	1.189743	-1.031324	0.328258
C153	C	1.325443	-0.977294	0.350072
C154	C	1.262815	-0.959714	0.388317
H155	H	1.368506	-0.970225	0.376727
H156	H	1.327592	-0.946178	0.311516
H157	H	1.322715	-1.027415	0.336036
H158	H	1.265539	-0.909592	0.402346
H159	H	1.260669	-0.990821	0.426877
H160	H	1.052108	-0.919660	0.437423
O161	O	0.502051	-0.398797	0.440910
C162	C	0.455832	-0.336189	0.438118
H163	H	0.470141	-0.302020	0.391586
H164	H	0.395697	-0.354631	0.435089
C165	C	0.449674	-0.331011	0.559172
C166	C	0.467253	-0.289041	0.502023
H167	H	0.456715	-0.301929	0.598592
H168	H	0.480810	-0.373193	0.561054
H169	H	0.399562	-0.346377	0.556638
H170	H	0.517366	-0.273683	0.504553
H171	H	0.436125	-0.246855	0.500143
O172	O	1.159042	-0.787732	0.415982
C173	C	1.212275	-0.810702	0.368445
H174	H	1.191291	-0.861739	0.340670
H175	H	1.222544	-0.764374	0.330617
C176	C	1.310672	-0.766750	0.439251
C177	C	1.284902	-0.829438	0.405141
H178	H	1.355473	-0.778303	0.461885
H179	H	1.274808	-0.751272	0.471276
H180	H	1.319223	-0.728149	0.407722
H181	H	1.276343	-0.868034	0.436671
H182	H	1.320766	-0.844923	0.373121
H183	H	0.949414	-0.919428	0.345902
H184	H	0.634372	-0.472025	0.365966
H185	H	1.156254	-0.270869	0.584301
H186	H	0.633866	-0.401070	0.431280
H187	H	0.508114	-0.262380	0.398201
H188	H	0.507349	-0.234816	0.309653
H189	H	0.507696	-0.334805	0.215505
H190	H	1.114321	-0.792747	0.220757
O191	O	1.111682	-0.924044	0.210268
C192	C	1.048842	-0.970020	0.212484
H193	H	1.042104	-0.993272	0.265610
H194	H	0.997730	-0.936556	0.198530
C195	C	1.066621	-1.005476	0.096741
C196	C	1.058349	-1.034040	0.161989
H197	H	1.072483	-1.044965	0.065591
H198	H	1.108956	-0.974499	0.095247
H199	H	1.024026	-0.977590	0.085122
H200	H	1.100948	-1.061917	0.173610
H201	H	1.016022	-1.065023	0.163484
H202	H	0.635185	-0.261731	0.397261
H203	H	1.156269	-0.270834	0.712535
