data_functionalizedCrystal
_audit_creation_method	'MofGen! by Chris Wilmer'
_symmetry_space_group_name_H-M	'P1'
_symmetry_Int_Tables_number	1
_symmetry_cell_setting	triclinic
loop_
_symmetry_equiv_pos_as_xyz
  x,y,z
_cell_length_a	16.625548
_cell_length_b	18.215405
_cell_length_c	18.215407
_cell_angle_alpha	89.985182
_cell_angle_beta	90.010073
_cell_angle_gamma	89.974047
loop_
_atom_site_label
_atom_site_type_symbol
_atom_site_fract_x
_atom_site_fract_y
_atom_site_fract_z
Zn1	Zn	1.232583	0.293085	0.416099
Zn2	Zn	1.232506	0.416123	0.293027
Zn3	Zn	1.097770	0.293077	0.293047
Zn4	Zn	1.097710	0.416117	0.416052
O5	O	1.165142	0.354600	0.354556
O6	O	1.345405	0.309412	0.399785
O7	O	1.214625	0.399799	0.190046
O8	O	1.115711	0.190094	0.309398
O9	O	1.345348	0.399807	0.309364
O10	O	1.214758	0.190100	0.399804
O11	O	1.115635	0.309398	0.190060
O12	O	0.984930	0.309392	0.309353
O13	O	1.115609	0.399797	0.519043
O14	O	0.984885	0.399789	0.399724
O15	O	1.214700	0.309407	0.519077
O16	O	1.214567	0.519106	0.309319
O17	O	1.115533	0.519102	0.399705
C18	C	1.165057	0.545807	0.354521
C19	C	1.165094	0.627606	0.354531
C20	C	0.955651	0.354590	0.354536
C21	C	0.866030	0.354603	0.354545
C22	C	1.165156	0.354602	0.546509
C23	C	1.165162	0.354603	0.628308
C24	C	0.537855	0.354608	0.354576
C25	C	0.629163	0.354604	0.354565
C26	C	0.701939	0.354606	0.354560
C27	C	0.793254	0.354602	0.354550
C28	C	1.375451	0.354611	0.354578
C29	C	1.465072	0.354616	0.354587
C30	C	1.165250	0.162647	0.354608
C31	C	1.165295	0.080848	0.354630
C32	C	1.216782	0.815777	0.307553
C33	C	1.216818	0.892636	0.307571
C34	C	1.113605	0.892671	0.401613
C35	C	1.113574	0.815814	0.401598
C36	C	1.165161	0.777369	0.354564
C37	C	1.165229	0.931085	0.354597
C38	C	1.165267	1.014419	0.354616
C39	C	1.165124	0.694030	0.354545
C40	C	1.216743	0.307544	0.816521
C41	C	1.216738	0.307544	0.893380
C42	C	1.113555	0.401673	0.893333
C43	C	1.113556	0.401669	0.816476
C44	C	1.165154	0.354606	0.778072
C45	C	1.165149	0.354609	0.931788
C46	C	1.165144	0.354609	1.015121
C47	C	1.165159	0.354604	0.694733
C48	C	1.165129	0.354614	1.163350
C49	C	1.165141	0.354612	1.081551
H50	H	1.258789	0.784477	0.269256
O51	O	1.267091	0.929956	0.262030
C52	C	1.319140	0.974334	0.304017
H53	H	1.323992	0.951142	0.361984
H54	H	1.294278	1.032618	0.306521
C55	C	1.397063	1.003892	0.197001
C56	C	1.403029	0.975403	0.268195
H57	H	1.448809	1.004555	0.174903
H58	H	1.361996	0.973996	0.168713
H59	H	1.376342	1.052460	0.199098
H60	H	1.423740	0.926834	0.266097
H61	H	1.438102	1.005292	0.296482
H62	H	1.071603	0.923983	0.439905
H63	H	1.071538	0.784540	0.439884
H64	H	1.258755	0.269221	0.785255
H65	H	1.258745	0.269221	0.924682
O66	O	1.063515	0.447367	0.930754
C67	C	1.074562	0.437268	1.006836
H68	H	1.136800	0.413168	1.017351
H69	H	1.026756	0.398078	1.028651
C70	C	0.990691	0.541332	1.033355
C71	C	1.067136	0.511738	1.046270
H72	H	0.986107	0.587268	1.057681
H73	H	0.983246	0.548135	0.982097
H74	H	0.950861	0.508667	1.051534
H75	H	1.106963	0.544399	1.028083
H76	H	1.074587	0.504943	1.097526
H77	H	1.071541	0.439991	0.785169
