data_functionalizedCrystal
_audit_creation_method	'MofGen! by Chris Wilmer'
_symmetry_space_group_name_H-M	'P1'
_symmetry_Int_Tables_number	1
_symmetry_cell_setting	triclinic
loop_
_symmetry_equiv_pos_as_xyz
  x,y,z
_cell_length_a	19.805407
_cell_length_b	13.897447
_cell_length_c	13.897441
_cell_angle_alpha	89.973472
_cell_angle_beta	90.021065
_cell_angle_gamma	89.981488
loop_
_atom_site_label
_atom_site_type_symbol
_atom_site_fract_x
_atom_site_fract_y
_atom_site_fract_z
Zn1	Zn	1.034782	0.384053	0.545417
Zn2	Zn	1.368115	0.717387	0.878750
Zn3	Zn	1.701449	1.050720	1.212084
Zn4	Zn	1.034701	0.545375	0.384130
Zn5	Zn	1.368034	0.878708	0.717463
Zn6	Zn	1.701367	1.212042	1.050796
Zn7	Zn	0.921590	0.384088	0.384134
Zn8	Zn	1.254924	0.717421	0.717468
Zn9	Zn	1.588257	1.050755	1.050801
Zn10	Zn	0.921570	0.545300	0.545381
Zn11	Zn	1.254904	0.878634	0.878715
Zn12	Zn	1.588237	1.211967	1.212048
O13	O	0.978161	0.464704	0.464766
O14	O	1.311494	0.798037	0.798099
O15	O	1.644827	1.131371	1.131432
O16	O	1.129488	0.405470	0.524035
O17	O	1.462821	0.738803	0.857368
O18	O	1.796154	1.072136	1.190701
O19	O	1.019671	0.524026	0.249149
O20	O	1.353004	0.857359	0.582482
O21	O	1.686337	1.190692	0.915815
O22	O	0.936648	0.249102	0.405546
O23	O	1.269981	0.582435	0.738879
O24	O	1.603314	0.915768	1.072212
O25	O	1.129428	0.523992	0.405538
O26	O	1.462761	0.857325	0.738871
O27	O	1.796095	1.190659	1.072204
O28	O	1.019809	0.249076	0.524039
O29	O	1.353142	0.582410	0.857373
O30	O	1.686476	0.915743	1.190706
O31	O	0.936569	0.405529	0.249152
O32	O	1.269902	0.738862	0.582485
O33	O	1.603235	1.072195	0.915819
O34	O	0.826871	0.405456	0.405511
O35	O	1.160204	0.738790	0.738845
O36	O	1.493538	1.072123	1.072178
O37	O	0.936614	0.523865	0.680368
O38	O	1.269947	0.857198	1.013701
O39	O	1.603281	1.190532	1.347035
O40	O	0.826857	0.523899	0.523979
O41	O	1.160190	0.857232	0.857312
O42	O	1.493523	1.190565	1.190645
O43	O	1.019790	0.405397	0.680394
O44	O	1.353123	0.738731	1.013727
O45	O	1.686457	1.072064	1.347061
O46	O	1.019651	0.680347	0.405503
O47	O	1.352985	1.013680	0.738837
O48	O	1.686318	1.347013	1.072170
O49	O	0.936535	0.680292	0.523974
O50	O	1.269868	1.013625	0.857308
O51	O	1.603202	1.346959	1.190641
C52	C	0.802305	0.464674	0.464742
C53	C	1.135638	0.798007	0.798076
C54	C	1.468971	1.131341	1.131409
C55	C	0.727073	0.464684	0.464755
C56	C	1.060406	0.798018	0.798088
C57	C	1.393739	1.131351	1.131422
C58	C	0.691760	0.403079	0.526550
C59	C	1.025094	0.736412	0.859884
C60	C	1.358427	1.069745	1.193217
C61	C	0.621072	0.403084	0.526554
C62	C	0.954405	0.736417	0.859887
C63	C	1.287739	1.069750	1.193221
C64	C	0.585697	0.464700	0.464767
C65	C	0.919031	0.798033	0.798100
C66	C	1.252364	1.131367	1.131433
C67	C	0.621015	0.526308	0.402965
C68	C	0.954348	0.859641	0.736298
C69	C	1.287681	1.192975	1.069631
C70	C	0.691702	0.526297	0.402957
C71	C	1.025035	0.859631	0.736290
C72	C	1.358368	1.192964	1.069623
C73	C	0.335941	0.526351	0.402994
C74	C	0.669275	0.859685	0.736328
C75	C	1.002608	1.193018	1.069661
C76	C	0.265249	0.526359	0.403009
C77	C	0.598583	0.859693	0.736342
C78	C	0.931916	1.193026	1.069676
C79	C	0.265312	0.403138	0.526591
C80	C	0.598645	0.736471	0.859925
C81	C	0.931978	1.069804	1.193258
C82	C	0.335999	0.403127	0.526584
C83	C	0.669332	0.736461	0.859917
C84	C	1.002665	1.069794	1.193250
C85	C	0.371310	0.464731	0.464778
C86	C	0.704643	0.798065	0.798112
C87	C	1.037977	1.131398	1.131445
C88	C	0.447958	0.464724	0.464774
C89	C	0.781292	0.798057	0.798107
C90	C	1.114625	1.131390	1.131440
C91	C	0.509050	0.464713	0.464775
C92	C	0.842383	0.798046	0.798109
C93	C	1.175717	1.131380	1.131442
C94	C	0.978101	0.715318	0.464756
C95	C	1.311434	1.048652	0.798089
C96	C	1.644767	1.381985	1.131422
C97	C	0.978137	0.822532	0.464783
C98	C	1.311470	1.155866	0.798117
C99	C	1.644804	1.489199	1.131450
C100	C	0.978168	0.909602	0.464810
C101	C	1.311501	1.242935	0.798143
C102	C	1.644834	1.576269	1.131476
C103	C	0.978213	1.018835	0.464840
C104	C	1.311546	1.352168	0.798173
C105	C	1.644880	1.685501	1.131506
C106	C	1.154704	0.464735	0.464790
C107	C	1.488037	0.798068	0.798123
C108	C	1.821370	1.131402	1.131456
C109	C	1.229935	0.464748	0.464800
C110	C	1.563269	0.798082	0.798133
C111	C	1.896602	1.131415	1.131467
C112	C	0.978209	0.464619	0.716359
C113	C	1.311542	0.797952	1.049692
C114	C	1.644876	1.131286	1.383025
C115	C	0.978229	0.464583	0.823573
C116	C	1.311563	0.797916	1.156906
C117	C	1.644896	1.131249	1.490239
C118	C	0.978235	1.213111	0.464809
C119	C	1.311568	1.546444	0.798143
C120	C	1.644901	1.879778	1.131476
C121	C	0.978253	1.105897	0.464859
C122	C	1.311586	1.439230	0.798192
C123	C	1.644920	1.772564	1.131526
C124	C	0.978152	0.464719	0.214151
C125	C	1.311485	0.798053	0.547485
C126	C	1.644819	1.131386	0.880818
C127	C	0.978263	0.464484	0.106938
C128	C	1.311596	0.797817	0.440271
C129	C	1.644929	1.131151	0.773605
C130	C	0.978248	0.464517	1.019868
C131	C	1.311581	0.797851	1.353201
C132	C	1.644914	1.131184	1.686535
C133	C	0.978235	0.464556	0.910635
C134	C	1.311569	0.797890	1.243969
C135	C	1.644902	1.131223	1.577302
H136	H	0.236553	0.352973	0.576913
H137	H	0.569886	0.686307	0.910246
H138	H	0.903219	1.019640	1.243580
H139	H	0.364797	0.352956	0.576900
H140	H	0.698131	0.686290	0.910234
H141	H	1.031464	1.019623	1.243567
O142	O	0.729794	0.592744	0.336308
O143	O	1.063128	0.926077	0.669642
O144	O	1.396461	1.259410	1.002975
H145	H	0.693322	0.635597	0.293350
H146	H	1.026655	0.968931	0.626683
H147	H	1.359989	1.302264	0.960017
H148	H	0.236449	0.576537	0.352691
H149	H	0.569782	0.909870	0.686024
H150	H	0.903116	1.243204	1.019357
O151	O	0.729908	0.336613	0.593192
O152	O	1.063241	0.669946	0.926525
O153	O	1.396574	1.003279	1.259859
H154	H	0.762118	0.379835	0.642201
H155	H	1.095451	0.713168	0.975535
H156	H	1.428785	1.046501	1.308868
O157	O	0.582860	0.592761	0.336318
O158	O	0.916193	0.926094	0.669652
O159	O	1.249527	1.259428	1.002985
H160	H	0.619293	0.635590	0.293339
H161	H	0.952626	0.968923	0.626672
H162	H	1.285959	1.302257	0.960006
O163	O	0.374024	0.592789	0.336334
O164	O	0.707357	0.926123	0.669667
O165	O	1.040690	1.259456	1.003000
H166	H	0.337548	0.635639	0.293378
H167	H	0.670881	0.968972	0.626711
H168	H	1.004214	1.302306	0.960044
H169	H	0.592324	0.352920	0.576876
H170	H	0.925657	0.686254	0.910209
H171	H	1.258990	1.019587	1.243542
