data_functionalizedCrystal
_audit_creation_method	'MofGen! by Chris Wilmer'
_symmetry_space_group_name_H-M	'P1'
_symmetry_Int_Tables_number	1
_symmetry_cell_setting	triclinic
loop_
_symmetry_equiv_pos_as_xyz
  x,y,z
_cell_length_a	15.944551
_cell_length_b	16.992694
_cell_length_c	16.053802
_cell_angle_alpha	92.750953
_cell_angle_beta	92.564789
_cell_angle_gamma	92.916519
loop_
_atom_site_label
_atom_site_type_symbol
_atom_site_fract_x
_atom_site_fract_y
_atom_site_fract_z
O1	O	0.174798	-1.043704	-0.069327
O2	O	0.172843	-0.815419	-0.069352
O3	O	0.051964	-0.935795	-0.069332
O4	O	0.295677	-0.923328	-0.069348
O5	O	0.058588	-0.929169	0.069526
O6	O	0.179467	-0.808793	0.069506
O7	O	0.181422	-1.037078	0.069530
Zn8	Zn	0.181497	-0.921884	0.091565
Zn9	Zn	0.172769	-0.930613	-0.091386
O10	O	0.302301	-0.916702	0.069510
C11	C	0.173641	-0.782894	0.000074
C12	C	0.166141	-0.695850	0.000065
C13	C	0.023948	-0.931964	0.000097
C14	C	-0.069402	-0.930413	0.000098
C15	C	0.180624	-1.069603	0.000103
C16	C	0.188124	-1.156648	0.000106
C17	C	-0.289513	-0.852090	0.000078
C18	C	-0.344825	-0.885194	0.068547
C19	C	-0.240317	-0.927606	0.000091
C20	C	-0.351338	-0.891744	-0.068356
C21	C	-0.405412	-0.924889	0.000081
C22	C	-0.294396	-0.960728	0.068617
C23	C	-0.300907	-0.967271	-0.068348
C24	C	-0.356196	-1.000429	0.000138
C25	C	-0.145209	-0.929169	0.000098
C26	C	-0.500518	-0.923332	0.000080
C27	C	0.330318	-0.920533	0.000079
C28	C	0.423667	-0.922085	0.000073
N29	N	0.187453	-0.915931	0.216424
C30	C	0.238506	-0.645613	0.000061
C31	C	0.231454	-0.563826	0.000073
C32	C	0.152037	-0.532276	0.000083
C33	C	0.079667	-0.582519	0.000089
C34	C	0.086719	-0.664305	0.000083
C35	C	0.122807	-0.288676	0.000107
C36	C	0.115759	-0.206884	0.000111
C37	C	0.267548	-0.188196	0.000095
C38	C	0.274593	-0.269984	0.000084
C39	C	0.202223	-0.320220	0.000095
N40	N	0.144827	-0.448677	0.000092
N41	N	0.209434	-0.403818	0.000092
N42	N	0.166806	-0.936572	-0.216246
C43	C	0.136040	-0.967170	0.260127
C44	C	0.140215	-0.963014	0.347533
C45	C	0.195808	-0.907622	0.391235
C46	C	0.247223	-0.856378	0.347526
C47	C	0.243043	-0.860531	0.260121
C48	C	0.214042	-0.889481	0.652641
C49	C	0.218220	-0.885333	0.740052
C50	C	0.111209	-0.991968	0.740053
C51	C	0.107038	-0.996120	0.652646
C52	C	0.158450	-0.944873	0.608945
N53	N	0.200078	-0.903374	0.480578
N54	N	0.154175	-0.949118	0.519604
H55	H	-0.364314	-0.850491	0.126426
O56	O	-0.254891	-0.777277	0.000036
C57	C	-0.285076	-0.740603	-0.071481
H58	H	-0.347609	-0.770997	-0.095093
H59	H	-0.294438	-0.675751	-0.054915
H60	H	-0.237590	-0.745405	-0.122263
H61	H	0.339262	-0.295666	0.000066
H62	H	0.015004	-0.556825	0.000110
O63	O	0.293074	-0.810724	0.217795
C64	C	0.343024	-0.760930	0.275108
H65	H	0.349133	-0.790116	0.337408
H66	H	0.408086	-0.750168	0.249842
H67	H	0.312248	-0.702244	0.284418
O68	O	0.315611	-0.676345	0.000159
C69	C	0.327675	-0.719659	0.072080
H70	H	0.263984	-0.738887	0.096061
H71	H	0.363982	-0.773984	0.055896
H72	H	0.364813	-0.681133	0.122437
O73	O	0.016511	-0.713218	0.000121
C74	C	0.039763	-0.792169	0.000095
H75	H	0.107205	-0.794056	0.026376
H76	H	-0.004100	-0.827303	0.040412
H77	H	0.034987	-0.818991	-0.066524
O78	O	-0.264561	-0.995450	0.137726
C79	C	-0.176236	-0.996479	0.136904
H80	H	-0.151351	-0.948081	0.096323
H81	H	-0.148117	-0.985897	0.203284
H82	H	-0.157818	-1.056288	0.110442
H83	H	-0.376319	-0.862556	-0.126245
H84	H	0.290381	-0.522926	0.000068
H85	H	-0.385145	-1.063164	0.000184
O86	O	0.052475	-0.337440	-0.000036
C87	C	0.001143	-0.326543	-0.071937
H88	H	0.041215	-0.300990	-0.122205
H89	H	-0.029804	-0.385714	-0.096075
H90	H	-0.049489	-0.284117	-0.055672
H91	H	0.090773	-1.012279	0.224550
O92	O	0.337760	-0.139284	0.000128
C93	C	0.314510	-0.060333	0.000115
H94	H	0.249577	-0.055942	0.026407
H95	H	0.362222	-0.021365	0.040429
H96	H	0.312929	-0.039848	-0.066501
O97	O	0.264033	-0.839821	0.610110
C98	C	0.316296	-0.884216	0.559556
H99	H	0.286364	-0.946187	0.546449
H100	H	0.324443	-0.854406	0.498100
H101	H	0.380342	-0.887955	0.593238
O102	O	0.052749	-1.049587	0.610069
C103	C	0.059877	-1.042081	0.523553
H104	H	0.124280	-1.013793	0.511485
H105	H	0.052342	-1.102930	0.490141
H106	H	0.008776	-1.003453	0.499073
O107	O	0.090249	-1.012878	0.389856
C108	C	0.040279	-1.062652	0.332541
H109	H	0.071797	-1.066488	0.270228
H110	H	0.032931	-1.124071	0.357785
H111	H	-0.024297	-1.037649	0.323264
O112	O	0.301112	-0.802533	0.390069
C113	C	0.255266	-0.751750	0.440629
H114	H	0.192279	-0.782356	0.453729
H115	H	0.292424	-0.736428	0.502088
H116	H	0.244022	-0.695401	0.406956
O117	O	0.038622	-0.176203	-0.000022
C118	C	0.026577	-0.132860	-0.071925
H119	H	0.069362	-0.154603	-0.122198
H120	H	-0.041780	-0.141339	-0.096052
H121	H	0.042409	-0.067593	-0.055667
H122	H	0.069351	-1.033690	0.775642
H123	H	-0.281397	-1.001946	-0.126229
O124	O	0.272237	-0.831444	0.782376
C125	C	0.316730	-0.787112	0.725063
H126	H	0.279257	-0.789191	0.662762
H127	H	0.326493	-0.723296	0.750326
H128	H	0.380417	-0.812998	0.715756
