data_functionalizedCrystal
_audit_creation_method	'MofGen! by Chris Wilmer'
_symmetry_space_group_name_H-M	'P1'
_symmetry_Int_Tables_number	1
_symmetry_cell_setting	triclinic
loop_
_symmetry_equiv_pos_as_xyz
  x,y,z
_cell_length_a	25.639242
_cell_length_b	25.639239
_cell_length_c	16.120297
_cell_angle_alpha	92.868703
_cell_angle_beta	92.869733
_cell_angle_gamma	90.034213
loop_
_atom_site_label
_atom_site_type_symbol
_atom_site_fract_x
_atom_site_fract_y
_atom_site_fract_z
Zn1	Zn	0.784258	-0.223221	-0.471560
Zn2	Zn	1.117591	0.110112	-0.138227
Zn3	Zn	1.450925	0.443446	0.195107
Zn4	Zn	0.788606	-0.306221	-0.332144
Zn5	Zn	1.121940	0.027112	0.001189
Zn6	Zn	1.455273	0.360445	0.334523
Zn7	Zn	0.701259	-0.218795	-0.332144
Zn8	Zn	1.034593	0.114538	0.001190
Zn9	Zn	1.367926	0.447872	0.334523
Zn10	Zn	0.696782	-0.310618	-0.471487
Zn11	Zn	1.030115	0.022715	-0.138154
Zn12	Zn	1.363448	0.356049	0.195180
O13	O	0.742726	-0.264714	-0.401834
O14	O	1.076060	0.068620	-0.068500
O15	O	1.409393	0.401953	0.264833
O16	O	0.857999	-0.234243	-0.453097
O17	O	1.191332	0.099090	-0.119763
O18	O	1.524666	0.432423	0.213570
O19	O	0.780713	-0.290932	-0.215482
O20	O	1.114047	0.042401	0.117851
O21	O	1.447380	0.375735	0.451184
O22	O	0.712323	-0.146218	-0.350668
O23	O	1.045657	0.187115	-0.017335
O24	O	1.378990	0.520449	0.315999
O25	O	0.861194	-0.295224	-0.350669
O26	O	1.194527	0.038110	-0.017335
O27	O	1.527861	0.371443	0.315998
O28	O	0.773302	-0.149470	-0.453096
O29	O	1.106635	0.183864	-0.119763
O30	O	1.439969	0.517197	0.213570
O31	O	0.716540	-0.226700	-0.215482
O32	O	1.049873	0.106633	0.117851
O33	O	1.383206	0.439967	0.451185
O34	O	0.627501	-0.230963	-0.350597
O35	O	0.960834	0.102370	-0.017264
O36	O	1.294168	0.435703	0.316070
O37	O	0.704692	-0.302717	-0.588158
O38	O	1.038025	0.030617	-0.254825
O39	O	1.371359	0.363950	0.078508
O40	O	0.624211	-0.298425	-0.452972
O41	O	0.957545	0.034908	-0.119639
O42	O	1.290878	0.368242	0.213695
O43	O	0.768960	-0.238506	-0.588212
O44	O	1.102294	0.094827	-0.254879
O45	O	1.435627	0.428160	0.078455
O46	O	0.776372	-0.379969	-0.350598
O47	O	1.109705	-0.046636	-0.017264
O48	O	1.443038	0.286698	0.316069
O49	O	0.708908	-0.383199	-0.452972
O50	O	1.042242	-0.049866	-0.119639
O51	O	1.375575	0.283468	0.213694
C52	C	0.606886	-0.264691	-0.401777
C53	C	0.940219	0.068642	-0.068444
C54	C	1.273552	0.401975	0.264890
C55	C	0.548772	-0.264695	-0.401773
C56	C	0.882105	0.068638	-0.068439
C57	C	1.215438	0.401972	0.264894
C58	C	0.186704	-0.299896	-0.455090
C59	C	0.520038	0.033438	-0.121756
C60	C	0.853371	0.366771	0.211577
C61	C	0.132100	-0.299899	-0.455103
C62	C	0.465433	0.033434	-0.121770
C63	C	0.798766	0.366768	0.211564
O64	O	0.102415	-0.329801	-0.500387
O65	O	0.435749	0.003533	-0.167054
O66	O	0.769082	0.336866	0.166280
N67	N	0.106486	-0.264730	-0.401888
N68	N	0.439819	0.068603	-0.068555
N69	N	0.773152	0.401937	0.264779
C70	C	0.135479	-0.229551	-0.348662
C71	C	0.468812	0.103782	-0.015329
C72	C	0.802146	0.437115	0.318004
O73	O	0.108678	-0.199637	-0.303401
O74	O	0.442012	0.133696	0.029932
O75	O	0.775345	0.467030	0.363266
C76	C	0.190083	-0.229546	-0.348654
C77	C	0.523416	0.103788	-0.015321
C78	C	0.856749	0.437121	0.318012
C79	C	0.215694	-0.264721	-0.401867
C80	C	0.549027	0.068613	-0.068533
C81	C	0.882361	0.401946	0.264800
C82	C	0.212316	-0.335067	-0.508298
C83	C	0.545649	-0.001734	-0.174965
C84	C	0.878982	0.331599	0.158368
C85	C	0.266917	-0.335064	-0.508284
C86	C	0.600250	-0.001731	-0.174951
C87	C	0.933583	0.331602	0.158383
C88	C	0.295906	-0.299889	-0.455061
C89	C	0.629240	0.033444	-0.121727
C90	C	0.962573	0.366777	0.211606
C91	C	0.270295	-0.264718	-0.401852
C92	C	0.603628	0.068616	-0.068519
C93	C	0.936962	0.401949	0.264815
C94	C	0.219075	-0.194365	-0.295434
C95	C	0.552408	0.138968	0.037900
C96	C	0.885742	0.472302	0.371233
C97	C	0.273682	-0.194362	-0.295430
C98	C	0.607016	0.138971	0.037903
C99	C	0.940349	0.472305	0.371236
C100	C	0.299293	-0.229537	-0.348643
C101	C	0.632627	0.103796	-0.015309
C102	C	0.965960	0.437130	0.318024
C103	C	0.353886	-0.229540	-0.348614
C104	C	0.687219	0.103794	-0.015281
C105	C	1.020552	0.437127	0.318052
N106	N	0.379499	-0.264709	-0.401829
N107	N	0.712833	0.068625	-0.068496
N108	N	1.046166	0.401958	0.264837
C109	C	0.350510	-0.299884	-0.455052
C110	C	0.683843	0.033450	-0.121719
C111	C	1.017177	0.366783	0.211614
C112	C	0.020808	-0.229565	-0.348685
C113	C	0.354141	0.103768	-0.015352
C114	C	0.687474	0.437101	0.317982
C115	C	-0.033795	-0.229573	-0.348689
C116	C	0.299539	0.103760	-0.015355
C117	C	0.632872	0.437094	0.317978
C118	C	-0.037170	-0.299920	-0.455130
C119	C	0.296163	0.033413	-0.121797
C120	C	0.629496	0.366746	0.211536
C121	C	0.017433	-0.299915	-0.455122
C122	C	0.350766	0.033419	-0.121789
C123	C	0.684100	0.366752	0.211545
C124	C	0.046422	-0.264735	-0.401900
C125	C	0.379755	0.068599	-0.068567
C126	C	0.713088	0.401932	0.264767
C127	C	0.465176	-0.299875	-0.455018
C128	C	0.798509	0.033459	-0.121684
C129	C	1.131843	0.366792	0.211649
C130	C	0.519782	-0.299870	-0.454996
C131	C	0.853115	0.033463	-0.121663
C132	C	1.186449	0.366797	0.211671
C133	C	0.523153	-0.229521	-0.348558
C134	C	0.856486	0.103812	-0.015224
C135	C	1.189820	0.437146	0.318109
C136	C	0.468552	-0.229527	-0.348576
C137	C	0.801885	0.103806	-0.015243
C138	C	1.135219	0.437139	0.318091
C139	C	0.439565	-0.264706	-0.401813
C140	C	0.772898	0.068627	-0.068479
C141	C	1.106231	0.401960	0.264854
O142	O	0.383604	-0.199652	-0.303356
O143	O	0.716937	0.133682	0.029978
O144	O	1.050270	0.467015	0.363311
O145	O	0.377317	-0.329788	-0.500314
O146	O	0.710651	0.003545	-0.166981
O147	O	1.043984	0.336879	0.166352
C148	C	0.742640	-0.400555	-0.401795
C149	C	1.075973	-0.067222	-0.068462
C150	C	1.409306	0.266111	0.264871
C151	C	0.742650	-0.458670	-0.401807
C152	C	1.075983	-0.125336	-0.068474
C153	C	1.409316	0.207997	0.264860
C154	C	0.777939	-0.817342	-0.348618
C155	C	1.111272	-0.484009	-0.015285
C156	C	1.444606	-0.150675	0.318049
C157	C	0.777959	-0.871947	-0.348629
C158	C	1.111292	-0.538613	-0.015296
C159	C	1.444625	-0.205280	0.318037
O160	O	0.807873	-0.898744	-0.303364
O161	O	1.141206	-0.565411	0.029969
O162	O	1.474540	-0.232078	0.363303
N163	N	0.742817	-0.900955	-0.401889
N164	N	1.076150	-0.567621	-0.068556
N165	N	1.409483	-0.234288	0.264778
C166	C	0.707656	-0.875355	-0.455147
C167	C	1.040989	-0.542022	-0.121814
C168	C	1.374322	-0.208689	0.211520
O169	O	0.677767	-0.905043	-0.500450
O170	O	1.011100	-0.571710	-0.167117
O171	O	1.344433	-0.238376	0.166217
C172	C	0.707639	-0.820752	-0.455139
C173	C	1.040972	-0.487419	-0.121806
C174	C	1.374305	-0.154085	0.211527
C175	C	0.742780	-0.791746	-0.401870
C176	C	1.076113	-0.458413	-0.068537
C177	C	1.409446	-0.125080	0.264797
C178	C	0.813077	-0.788336	-0.295354
C179	C	1.146411	-0.455003	0.037979
C180	C	1.479744	-0.121670	0.371313
C181	C	0.813057	-0.733735	-0.295342
C182	C	1.146390	-0.400402	0.037992
C183	C	1.479723	-0.067069	0.371325
C184	C	0.777897	-0.708140	-0.348594
C185	C	1.111231	-0.374807	-0.015261
C186	C	1.444564	-0.041473	0.318073
C187	C	0.742759	-0.737145	-0.401858
C188	C	1.076092	-0.403812	-0.068525
C189	C	1.409426	-0.070479	0.264809
C190	C	0.672481	-0.795154	-0.508401
C191	C	1.005814	-0.461821	-0.175068
C192	C	1.339147	-0.128487	0.158266
C193	C	0.672467	-0.740547	-0.508389
C194	C	1.005800	-0.407213	-0.175056
C195	C	1.339134	-0.073880	0.158277
C196	C	0.707608	-0.711541	-0.455120
C197	C	1.040941	-0.378208	-0.121787
C198	C	1.374275	-0.044874	0.211547
C199	C	0.707579	-0.656949	-0.455098
C200	C	1.040912	-0.323616	-0.121765
C201	C	1.374246	0.009718	0.211568
N202	N	0.742721	-0.627941	-0.401838
N203	N	1.076055	-0.294608	-0.068505
N204	N	1.409388	0.038726	0.264828
C205	C	0.777880	-0.653536	-0.348586
C206	C	1.111214	-0.320203	-0.015253
C207	C	1.444547	0.013130	0.318080
C208	C	0.707695	-0.990027	-0.455160
C209	C	1.041028	-0.656693	-0.121826
C210	C	1.374361	-0.323360	0.211507
C211	C	0.707709	-1.044629	-0.455164
C212	C	1.041042	-0.711296	-0.121830
C213	C	1.374375	-0.377962	0.211503
C214	C	0.778013	-1.041216	-0.348647
C215	C	1.111346	-0.707883	-0.015314
C216	C	1.444679	-0.374550	0.318020
C217	C	0.777996	-0.986613	-0.348639
C218	C	1.111329	-0.653279	-0.015306
C219	C	1.444662	-0.319946	0.318027
C220	C	0.742837	-0.961018	-0.401900
C221	C	1.076170	-0.627685	-0.068567
C222	C	1.409504	-0.294352	0.264767
C223	C	0.777834	-0.538871	-0.348565
C224	C	1.111167	-0.205537	-0.015231
C225	C	1.444501	0.127796	0.318102
C226	C	0.777809	-0.484265	-0.348555
C227	C	1.111142	-0.150932	-0.015222
C228	C	1.444475	0.182402	0.318112
C229	C	0.707507	-0.487683	-0.455074
C230	C	1.040840	-0.154349	-0.121741
C231	C	1.374174	0.178984	0.211592
C232	C	0.707530	-0.542283	-0.455081
C233	C	1.040863	-0.208950	-0.121748
C234	C	1.374197	0.124383	0.211585
C235	C	0.742698	-0.567876	-0.401824
C236	C	1.076031	-0.234543	-0.068490
C237	C	1.409365	0.098791	0.264843
O238	O	0.677681	-0.630116	-0.500343
O239	O	1.011015	-0.296783	-0.167009
O240	O	1.344348	0.036551	0.166324
O241	O	0.807769	-0.623843	-0.303299
O242	O	1.141102	-0.290509	0.030035
O243	O	1.474436	0.042824	0.363368
C244	C	0.879098	-0.264737	-0.401891
C245	C	1.212431	0.068597	-0.068557
C246	C	1.545764	0.401930	0.264776
C247	C	0.937211	-0.264746	-0.401915
C248	C	1.270544	0.068587	-0.068582
C249	C	1.603877	0.401920	0.264751
C250	C	0.735842	-0.271596	-0.619280
C251	C	1.069175	0.061738	-0.285947
C252	C	1.402508	0.395071	0.047387
C253	C	0.732908	-0.274528	-0.711943
C254	C	1.066241	0.058805	-0.378609
C255	C	1.399574	0.392138	-0.045276
C256	C	0.742827	-0.128343	-0.401890
C257	C	1.076160	0.204991	-0.068557
C258	C	1.409494	0.538324	0.264776
C259	C	0.742870	-0.070229	-0.401914
C260	C	1.076203	0.263104	-0.068581
C261	C	1.409537	0.596437	0.264752
C262	C	0.727532	-0.279871	-0.881598
C263	C	1.060865	0.053462	-0.548265
C264	C	1.394199	0.386796	-0.214932
C265	C	0.758024	-0.249400	-0.922921
C266	C	1.091357	0.083933	-0.589587
C267	C	1.424690	0.417267	-0.256254
C268	C	0.755033	-0.252373	-1.017323
C269	C	1.088366	0.080961	-0.683990
C270	C	1.421699	0.414294	-0.350656
C271	C	0.730522	-0.276899	-0.787188
C272	C	1.063856	0.056434	-0.453854
C273	C	1.397189	0.389768	-0.120521
C274	C	0.749614	-0.257821	-0.185233
C275	C	1.082948	0.075512	0.148100
C276	C	1.416281	0.408846	0.481433
C277	C	0.752650	-0.254741	-0.092571
C278	C	1.085983	0.078592	0.240762
C279	C	1.419316	0.411926	0.574096
H280	H	0.038282	-0.328557	-0.498453
H281	H	0.371615	0.004777	-0.165120
H282	H	0.704949	0.338110	0.168213
H283	H	0.679089	-1.068241	-0.498533
H284	H	1.012422	-0.734907	-0.165200
H285	H	1.345755	-0.401574	0.168134
C286	C	0.816655	-0.954712	-0.290042
C287	C	1.149988	-0.621378	0.043291
C288	C	1.483321	-0.288045	0.376624
N289	N	0.845775	-0.930686	-0.245906
N290	N	1.179108	-0.597353	0.087428
N291	N	1.512442	-0.264020	0.420761
C292	C	0.547951	-0.338566	-0.513537
C293	C	0.881284	-0.005233	-0.180203
C294	C	1.214618	0.328100	0.153130
N295	N	0.569166	-0.367711	-0.557630
N296	N	0.902499	-0.034378	-0.224297
N297	N	1.235833	0.298956	0.109037
H298	H	0.786374	-0.221080	-0.887400
H299	H	1.119708	0.112253	-0.554066
H300	H	1.453041	0.445587	-0.220733
H301	H	-0.054642	-0.200935	-0.305349
H302	H	0.278691	0.132398	0.027984
H303	H	0.612024	0.465732	0.361317
H304	H	0.806425	-0.460650	-0.305174
H305	H	1.139758	-0.127317	0.028160
H306	H	1.473091	0.206017	0.361493
H307	H	0.287764	-0.363706	-0.551617
H308	H	0.621098	-0.030373	-0.218283
H309	H	0.954431	0.302960	0.115050
H310	H	0.643863	-0.818761	-0.551774
H311	H	0.977196	-0.485428	-0.218441
H312	H	1.310529	-0.152094	0.114892
H313	H	0.546766	-0.200884	-0.305222
H314	H	0.880100	0.132449	0.028111
H315	H	1.213433	0.465783	0.361445
C316	C	0.689233	-0.318126	-0.929584
C317	C	1.022566	0.015207	-0.596250
C318	C	1.355899	0.348541	-0.262917
N319	N	0.660386	-0.346940	-0.965736
N320	N	0.993720	-0.013607	-0.632403
N321	N	1.327053	0.319727	-0.299069
C322	C	0.433298	-0.338577	-0.513574
C323	C	0.766631	-0.005243	-0.180241
C324	C	1.099965	0.328090	0.153092
N325	N	0.409288	-0.367730	-0.557674
N326	N	0.742621	-0.034397	-0.224341
N327	N	1.075955	0.298936	0.108992
H328	H	0.188718	-0.363711	-0.551644
H329	H	0.522051	-0.030378	-0.218310
H330	H	0.855384	0.302955	0.115023
H331	H	-0.060784	-0.328560	-0.498470
H332	H	0.272549	0.004773	-0.165137
H333	H	0.605883	0.338106	0.168196
H334	H	0.044407	-0.200918	-0.305339
H335	H	0.377741	0.132416	0.027994
H336	H	0.711074	0.465749	0.361327
H337	H	0.297282	-0.165710	-0.252094
H338	H	0.630615	0.167623	0.081239
H339	H	0.963949	0.500956	0.414572
C340	C	0.440379	-0.190837	-0.290034
C341	C	0.773712	0.142496	0.043300
C342	C	1.107046	0.475830	0.376633
N343	N	0.419163	-0.161692	-0.245944
N344	N	0.752496	0.171642	0.087390
N345	N	1.085829	0.504975	0.420723
C346	C	0.190915	-0.155663	-0.236904
C347	C	0.524248	0.177670	0.096430
C348	C	0.857581	0.511003	0.429763
N349	N	0.169705	-0.126509	-0.192819
N350	N	0.503039	0.206825	0.140514
N351	N	0.836372	0.540158	0.473847
C352	C	0.816517	-0.567014	-0.289973
C353	C	1.149851	-0.233681	0.043360
C354	C	1.483184	0.099652	0.376693
N355	N	0.845651	-0.588212	-0.245838
N356	N	1.178984	-0.254878	0.087496
N357	N	1.512318	0.078455	0.420829
H358	H	0.841711	-0.809170	-0.251989
H359	H	1.175044	-0.475837	0.081344
H360	H	1.508378	-0.142504	0.414677
C361	C	0.851711	-0.701836	-0.236734
C362	C	1.185044	-0.368503	0.096599
C363	C	1.518378	-0.035170	0.429932
N364	N	0.880826	-0.677813	-0.192586
N365	N	1.214159	-0.344479	0.140748
N366	N	1.547493	-0.011146	0.474081
H367	H	0.806643	-1.062066	-0.305289
H368	H	1.139976	-0.728733	0.028044
H369	H	1.473310	-0.395399	0.361378
H370	H	0.643837	-0.719711	-0.551763
H371	H	0.977170	-0.386377	-0.218430
H372	H	1.310504	-0.053044	0.114903
C373	C	0.669017	-0.961878	-0.513758
C374	C	1.002350	-0.628545	-0.180425
C375	C	1.335683	-0.295211	0.152909
N376	N	0.639887	-0.940680	-0.557899
N377	N	0.973221	-0.607346	-0.224566
N378	N	1.306554	-0.274013	0.108768
H379	H	0.678917	-0.565901	-0.498460
H380	H	1.012250	-0.232568	-0.165127
H381	H	1.345584	0.100766	0.168207
C382	C	0.668836	-0.459517	-0.513652
C383	C	1.002169	-0.126184	-0.180319
C384	C	1.335502	0.207149	0.153014
N385	N	0.639711	-0.438302	-0.557779
N386	N	0.973045	-0.104968	-0.224445
N387	N	1.306378	0.228365	0.108888
