data_functionalizedCrystal
_audit_creation_method	'MofGen! by Chris Wilmer'
_symmetry_space_group_name_H-M	'P1'
_symmetry_Int_Tables_number	1
_symmetry_cell_setting	triclinic
loop_
_symmetry_equiv_pos_as_xyz
  x,y,z
_cell_length_a	16.109301
_cell_length_b	16.109301
_cell_length_c	14.586319
_cell_angle_alpha	89.994230
_cell_angle_beta	89.998582
_cell_angle_gamma	83.461481
loop_
_atom_site_label
_atom_site_type_symbol
_atom_site_fract_x
_atom_site_fract_y
_atom_site_fract_z
O1	O	-1.103131	-0.106867	0.076185
O2	O	-0.853131	0.143133	0.326185
O3	O	-0.603131	0.393133	0.576185
O4	O	-0.353131	0.643133	0.826185
O5	O	-0.861070	-0.120166	0.076200
O6	O	-0.611070	0.129834	0.326200
O7	O	-0.361070	0.379834	0.576200
O8	O	-0.111070	0.629834	0.826200
O9	O	-0.988750	0.007515	0.076183
O10	O	-0.738750	0.257515	0.326183
O11	O	-0.488750	0.507515	0.576183
O12	O	-0.238750	0.757515	0.826183
O13	O	-0.975451	-0.234547	0.076203
O14	O	-0.725451	0.015453	0.326203
O15	O	-0.475451	0.265453	0.576203
O16	O	-0.225451	0.515453	0.826203
O17	O	-0.988740	0.007518	-0.076298
O18	O	-0.738740	0.257518	0.173702
O19	O	-0.488740	0.507518	0.423702
O20	O	-0.238740	0.757518	0.673702
O21	O	-0.861059	-0.120163	-0.076281
O22	O	-0.611059	0.129837	0.173719
O23	O	-0.361059	0.379837	0.423719
O24	O	-0.111059	0.629837	0.673719
O25	O	-1.103121	-0.106864	-0.076295
O26	O	-0.853121	0.143136	0.173705
O27	O	-0.603121	0.393136	0.423705
O28	O	-0.353121	0.643136	0.673705
Cu29	Cu	-0.982089	-0.113513	-0.090211
Cu30	Cu	-0.732089	0.136487	0.159789
Cu31	Cu	-0.482089	0.386487	0.409789
Cu32	Cu	-0.232089	0.636487	0.659789
Cu33	Cu	-0.982101	-0.113517	0.090115
Cu34	Cu	-0.732101	0.136483	0.340115
Cu35	Cu	-0.482101	0.386483	0.590115
Cu36	Cu	-0.232101	0.636483	0.840115
O37	O	-0.975441	-0.234544	-0.076278
O38	O	-0.725441	0.015456	0.173722
O39	O	-0.475441	0.265456	0.423722
O40	O	-0.225441	0.515456	0.673722
C41	C	-0.830090	-0.119626	-0.000038
C42	C	-0.580090	0.130374	0.249962
C43	C	-0.330090	0.380374	0.499962
C44	C	-0.080090	0.630374	0.749962
C45	C	-0.737794	-0.118011	-0.000033
C46	C	-0.487794	0.131989	0.249967
C47	C	-0.237794	0.381989	0.499967
C48	C	0.012206	0.631989	0.749967
C49	C	-0.988206	0.038491	-0.000058
C50	C	-0.738206	0.288491	0.249942
C51	C	-0.488206	0.538491	0.499942
C52	C	-0.238206	0.788491	0.749942
C53	C	-0.986591	0.130786	-0.000059
C54	C	-0.736591	0.380786	0.249941
C55	C	-0.486591	0.630786	0.499941
C56	C	-0.236591	0.880786	0.749941
N57	N	-0.982087	-0.113510	-0.217042
N58	N	-0.732087	0.136490	0.032958
N59	N	-0.482087	0.386490	0.282958
N60	N	-0.232087	0.636490	0.532958
C61	C	-1.134101	-0.107404	-0.000055
C62	C	-0.884101	0.142596	0.249945
C63	C	-0.634101	0.392596	0.499945
C64	C	-0.384101	0.642596	0.749945
C65	C	-1.226397	-0.109019	-0.000054
C66	C	-0.976397	0.140981	0.249946
C67	C	-0.726397	0.390981	0.499946
C68	C	-0.476397	0.640981	0.749946
C69	C	-0.515522	-0.190018	-0.000038
C70	C	-0.265522	0.059982	0.249962
C71	C	-0.015522	0.309982	0.499962
C72	C	0.234478	0.559982	0.749962
C73	C	-0.428801	-0.188494	-0.000044
C74	C	-0.178801	0.061506	0.249956
C75	C	0.071199	0.311506	0.499956
C76	C	0.321199	0.561506	0.749956
C77	C	-0.448676	-0.037006	-0.000052
C78	C	-0.198676	0.212994	0.249948
C79	C	0.051324	0.462994	0.499948
C80	C	0.301324	0.712994	0.749948
C81	C	-0.535394	-0.038530	-0.000053
C82	C	-0.285394	0.211470	0.249947
C83	C	-0.035394	0.461470	0.499947
C84	C	0.214606	0.711470	0.749947
C85	C	-0.568815	-0.115039	-0.000041
C86	C	-0.318815	0.134961	0.249959
C87	C	-0.068815	0.384961	0.499959
C88	C	0.181185	0.634961	0.749959
C89	C	-0.395376	-0.111990	-0.000046
C90	C	-0.145376	0.138010	0.249954
C91	C	0.104624	0.388010	0.499954
C92	C	0.354624	0.638010	0.749954
C93	C	-0.301350	-0.110337	-0.000053
C94	C	-0.051350	0.139663	0.249947
C95	C	0.198650	0.389663	0.499947
C96	C	0.448650	0.639663	0.749947
C97	C	-0.662847	-0.116693	-0.000036
C98	C	-0.412847	0.133307	0.249964
C99	C	-0.162847	0.383307	0.499964
C100	C	0.087153	0.633307	0.749964
C101	C	-0.975984	-0.265521	-0.000035
C102	C	-0.725984	-0.015521	0.249965
C103	C	-0.475984	0.234479	0.499965
C104	C	-0.225984	0.484479	0.749965
C105	C	-0.977600	-0.357816	-0.000028
C106	C	-0.727600	-0.107816	0.249972
C107	C	-0.477600	0.142184	0.499972
C108	C	-0.227600	0.392184	0.749972
C109	C	-1.058599	0.353059	-0.000049
C110	C	-0.808599	0.603059	0.249951
C111	C	-0.558599	0.853059	0.499951
C112	C	-0.308599	1.103059	0.749951
C113	C	-1.057075	0.439779	-0.000041
C114	C	-0.807075	0.689779	0.249959
C115	C	-0.557075	0.939779	0.499959
C116	C	-0.307075	1.189779	0.749959
C117	C	-0.905586	0.419905	-0.000036
C118	C	-0.655586	0.669905	0.249964
C119	C	-0.405586	0.919905	0.499964
C120	C	-0.155586	1.169905	0.749964
C121	C	-0.907111	0.333186	-0.000037
C122	C	-0.657111	0.583186	0.249963
C123	C	-0.407111	0.833186	0.499963
C124	C	-0.157111	1.083186	0.749963
C125	C	-0.983620	0.299766	-0.000048
C126	C	-0.733620	0.549766	0.249952
C127	C	-0.483620	0.799766	0.499952
C128	C	-0.233620	1.049766	0.749952
C129	C	-0.980571	0.473205	-0.000039
C130	C	-0.730571	0.723205	0.249961
C131	C	-0.480571	0.973205	0.499961
C132	C	-0.230571	1.223205	0.749961
C133	C	-0.978918	0.567231	-0.000031
C134	C	-0.728918	0.817231	0.249969
C135	C	-0.478918	1.067231	0.499969
C136	C	-0.228918	1.317231	0.749969
C137	C	-0.985273	0.205734	-0.000055
C138	C	-0.735273	0.455734	0.249945
C139	C	-0.485273	0.705734	0.499945
C140	C	-0.235273	0.955734	0.749945
C141	C	-1.038646	-0.056991	-0.548044
C142	C	-0.788646	0.193009	-0.298044
C143	C	-0.538646	0.443009	-0.048044
C144	C	-0.288646	0.693009	0.201956
C145	C	-1.038644	-0.056992	-0.452063
C146	C	-0.788644	0.193008	-0.202063
C147	C	-0.538644	0.443008	0.047937
C148	C	-0.288644	0.693008	0.297937
C149	C	-0.925549	-0.170038	-0.452058
C150	C	-0.675549	0.079962	-0.202058
C151	C	-0.425549	0.329962	0.047942
C152	C	-0.175549	0.579962	0.297942
C153	C	-0.925555	-0.170040	-0.548038
C154	C	-0.675555	0.079960	-0.298038
C155	C	-0.425555	0.329960	-0.048038
C156	C	-0.175555	0.579960	0.201962
C157	C	-0.982103	-0.113513	-0.596028
C158	C	-0.732103	0.136487	-0.346028
C159	C	-0.482103	0.386487	-0.096028
C160	C	-0.232103	0.636487	0.153972
C161	C	-0.982094	-0.113510	-0.404067
C162	C	-0.732094	0.136490	-0.154067
C163	C	-0.482094	0.386490	0.095933
C164	C	-0.232094	0.636490	0.345933
C165	C	-0.982092	-0.113511	-0.300000
C166	C	-0.732092	0.136489	-0.050000
C167	C	-0.482092	0.386489	0.200000
C168	C	-0.232092	0.636489	0.450000
C169	C	-0.982107	-0.113513	-0.700102
C170	C	-0.732107	0.136487	-0.450102
C171	C	-0.482107	0.386487	-0.200102
C172	C	-0.232107	0.636487	0.049898
N173	N	-0.982110	-0.113513	0.216947
N174	N	-0.732110	0.136487	0.466947
N175	N	-0.482110	0.386487	0.716947
N176	N	-0.232110	0.636487	0.966947
H177	H	-0.542730	-0.252317	-0.000035
H178	H	-0.292730	-0.002317	0.249965
H179	H	-0.042730	0.247683	0.499965
H180	H	0.207270	0.497683	0.749965
Br181	Br	-1.158837	0.512103	-0.000037
Br182	Br	-0.908837	0.762103	0.249963
Br183	Br	-0.658837	1.012103	0.499963
Br184	Br	-0.408837	1.262103	0.749963
Br185	Br	-0.848820	-0.246760	-0.613167
Br186	Br	-0.598820	0.003240	-0.363167
Br187	Br	-0.348820	0.253240	-0.113167
Br188	Br	-0.098820	0.503240	0.136833
Br189	Br	-1.162431	0.307705	-0.000065
Br190	Br	-0.912431	0.557705	0.249935
Br191	Br	-0.662431	0.807705	0.499935
Br192	Br	-0.412431	1.057705	0.749935
H193	H	-0.385413	-0.249550	-0.000043
H194	H	-0.135413	0.000450	0.249957
H195	H	0.114587	0.250450	0.499957
H196	H	0.364587	0.500450	0.749957
H197	H	-0.578788	0.022530	-0.000058
H198	H	-0.328788	0.272530	0.249942
H199	H	-0.078788	0.522530	0.499942
H200	H	0.171212	0.772530	0.749942
Br201	Br	-0.403314	0.066823	-0.000065
Br202	Br	-0.153314	0.316823	0.249935
Br203	Br	0.096686	0.566823	0.499935
Br204	Br	0.346686	0.816823	0.749935
Br205	Br	-0.801758	0.465267	-0.000017
Br206	Br	-0.551758	0.715267	0.249983
Br207	Br	-0.301758	0.965267	0.499983
Br208	Br	-0.051758	1.215267	0.749983
H209	H	-0.846050	0.289792	-0.000033
H210	H	-0.596050	0.539792	0.249967
H211	H	-0.346050	0.789792	0.499967
H212	H	-0.096050	1.039792	0.749967
H213	H	-1.084691	-0.010964	-0.587116
H214	H	-0.834691	0.239036	-0.337116
H215	H	-0.584691	0.489036	-0.087116
H216	H	-0.334691	0.739036	0.162884
Br217	Br	-1.115387	0.019715	-0.386943
Br218	Br	-0.865387	0.269715	-0.136943
Br219	Br	-0.615387	0.519715	0.113057
Br220	Br	-0.365387	0.769715	0.363057
H221	H	-0.879508	-0.216060	-0.412975
H222	H	-0.629508	0.033940	-0.162975
H223	H	-0.379508	0.283940	0.087025
H224	H	-0.129508	0.533940	0.337025
