data_functionalizedCrystal
_audit_creation_method	'MofGen! by Chris Wilmer'
_symmetry_space_group_name_H-M	'P1'
_symmetry_Int_Tables_number	1
_symmetry_cell_setting	triclinic
loop_
_symmetry_equiv_pos_as_xyz
  x,y,z
_cell_length_a	34.408637
_cell_length_b	34.407814
_cell_length_c	34.404193
_cell_angle_alpha	60.004510
_cell_angle_beta	60.009006
_cell_angle_gamma	59.994604
loop_
_atom_site_label
_atom_site_type_symbol
_atom_site_fract_x
_atom_site_fract_y
_atom_site_fract_z
O1	O	0.053973	-0.567860	0.474801
O2	O	0.020377	-0.442124	0.382567
O3	O	0.100004	-0.521670	0.382483
O4	O	-0.025653	-0.488314	0.474886
O5	O	0.126426	-0.495253	0.408816
O6	O	0.046800	-0.415707	0.408900
O7	O	0.080396	-0.541443	0.501134
Zn8	Zn	0.067793	-0.474381	0.459198
Zn9	Zn	0.032980	-0.509186	0.424503
O10	O	0.000769	-0.461897	0.501219
N11	N	0.091552	-0.450631	0.482879
N12	N	0.009225	-0.532940	0.400823
C13	C	0.142848	-0.268847	0.534081
C14	C	0.142979	-0.399386	0.664559
C15	C	0.142862	-0.399365	0.534081
C16	C	0.273409	-0.399338	0.533986
C17	C	0.157225	-0.311914	0.548422
C18	C	0.157300	-0.385019	0.621491
C19	C	0.230339	-0.384991	0.548370
C20	C	0.157235	-0.385007	0.548422
C21	C	0.124548	-0.214028	0.515827
C22	C	0.124571	-0.417639	0.515827
C23	C	0.175526	-0.366733	0.566676
C24	C	0.353121	-0.385580	0.491988
C25	C	0.402952	-0.402180	0.475348
C26	C	0.402981	-0.482812	0.506096
C27	C	0.353151	-0.466211	0.522737
C28	C	0.136544	-0.189099	0.466839
C29	C	0.119905	-0.139265	0.450247
C30	C	0.079280	-0.139291	0.531632
C31	C	0.095918	-0.189125	0.548224
C32	C	0.075577	-0.405615	0.527900
C33	C	0.058953	-0.422228	0.511301
C34	C	0.140315	-0.462889	0.470566
C35	C	0.156941	-0.446276	0.487159
C36	C	0.075772	-0.405653	0.744326
C37	C	0.059206	-0.422280	0.794159
C38	C	0.140607	-0.462951	0.794094
C39	C	0.157172	-0.446325	0.744260
C40	C	0.124753	-0.417674	0.719377
C41	C	0.328223	-0.417595	0.515681
C42	C	-0.172390	-0.583988	0.349141
C43	C	-0.041751	-0.584138	0.218783
C44	C	-0.041941	-0.584130	0.349402
C45	C	-0.041957	-0.714607	0.349338
C46	C	-0.129326	-0.598388	0.334853
C47	C	-0.056165	-0.598473	0.261852
C48	C	-0.056282	-0.671535	0.334962
C49	C	-0.056272	-0.598469	0.334999
C50	C	-0.227205	-0.565659	0.367327
C51	C	-0.023703	-0.565882	0.367734
C52	C	-0.074511	-0.616717	0.316667
C53	C	-0.055754	-0.794298	0.391257
C54	C	-0.039181	-0.844132	0.407888
C55	C	0.041447	-0.844215	0.377269
C56	C	0.024873	-0.794381	0.360637
C57	C	-0.252183	-0.577666	0.416302
C58	C	-0.302014	-0.561001	0.432833
C59	C	-0.301886	-0.520329	0.351410
C60	C	-0.252055	-0.536994	0.334880
C61	C	-0.035709	-0.516892	0.355682
C62	C	-0.019129	-0.500308	0.372353
C63	C	0.021465	-0.581700	0.413115
C64	C	0.004884	-0.598286	0.396450
C65	C	-0.035389	-0.516907	0.139026
C66	C	-0.018707	-0.500324	0.089193
C67	C	0.021949	-0.581721	0.089240
C68	C	0.005268	-0.598303	0.139074
C69	C	-0.023402	-0.565894	0.163965
C70	C	-0.023728	-0.769425	0.367633
N71	N	0.427173	-0.450553	0.482630
O72	O	0.589997	-0.458460	0.365361
O73	O	0.590185	-0.550997	0.490963
O74	O	0.590104	-0.550786	0.411309
O75	O	0.590077	-0.458671	0.445016
O76	O	0.510940	-0.524462	0.437777
O77	O	0.511020	-0.524674	0.517432
O78	O	0.510832	-0.432136	0.391830
Zn79	Zn	0.498357	-0.474225	0.458833
Zn80	Zn	0.602660	-0.508908	0.423960
O81	O	0.510913	-0.432348	0.471484
N82	N	0.673844	-0.532580	0.400158
N83	N	0.091520	-0.115070	0.482873
O84	O	-0.025663	0.047841	0.474857
O85	O	0.099940	0.047877	0.382299
O86	O	0.020247	0.047844	0.382560
O87	O	0.054030	0.047874	0.474596
O88	O	0.046674	-0.031326	0.408942
O89	O	0.126367	-0.031293	0.408680
O90	O	0.000764	-0.031329	0.501238
Zn91	Zn	0.067761	-0.043881	0.459148
Zn92	Zn	0.032943	0.060429	0.424389
O93	O	0.080457	-0.031296	0.500977
N94	N	0.009178	0.131618	0.400665
N95	N	0.091852	-0.450680	0.818332
O96	O	0.083862	-0.567845	0.981235
O97	O	-0.008657	-0.442198	0.981276
O98	O	-0.008441	-0.521875	0.981252
O99	O	0.083646	-0.488168	0.981258
O100	O	0.017919	-0.495468	0.902085
O101	O	0.017703	-0.415791	0.902109
O102	O	0.110222	-0.541438	0.902067
Zn103	Zn	0.068148	-0.474422	0.889518
Zn104	Zn	0.033417	-0.509214	0.993825
O105	O	0.110006	-0.461761	0.902091
N106	N	0.009712	-0.532961	1.065011
C107	C	0.030439	-0.413071	0.383027
C108	C	0.129046	-0.511580	0.382922
C109	C	0.070334	-0.570496	0.500675
C110	C	-0.028274	-0.471987	0.500780
C111	C	0.550625	-0.550579	0.520021
C112	C	0.550527	-0.550317	0.421379
C113	C	0.550389	-0.432554	0.362773
C114	C	0.550491	-0.432816	0.461414
C115	C	0.128944	0.008394	0.382712
C116	C	0.030287	0.008256	0.383068
C117	C	-0.028273	0.008252	0.500793
C118	C	0.070417	0.008292	0.500470
C119	C	-0.008218	-0.413165	0.941698
C120	C	-0.007945	-0.511830	0.941653
C121	C	0.109783	-0.570471	0.941646
C122	C	0.109516	-0.471800	0.941673
H123	H	0.019320	-0.412483	0.814467
C124	C	0.020518	0.008246	0.344003
H125	H	0.048019	0.008257	0.316288
H126	H	0.012971	-0.019367	0.355007
H127	H	-0.005459	0.035853	0.336607
H128	H	0.165136	-0.518689	0.353905
C129	C	-0.077000	0.008239	0.540048
H130	H	-0.097015	0.008231	0.528566
H131	H	-0.072809	-0.019368	0.567095
H132	H	-0.091241	0.035852	0.548693
H133	H	-0.064365	-0.464880	0.529794
H134	H	0.077514	-0.606615	0.529644
C135	C	0.550695	-0.589827	0.568751
H136	H	0.550709	-0.617466	0.568794
H137	H	0.578313	-0.597297	0.574535
H138	H	0.523097	-0.578932	0.592988
H139	H	0.164941	0.008624	0.353583
C140	C	0.550540	-0.589410	0.411639
H141	H	0.550497	-0.577771	0.380128
H142	H	0.578170	-0.616467	0.415158
H143	H	0.522954	-0.598102	0.433618
C144	C	0.080189	0.008300	0.539533
H145	H	0.111709	0.008307	0.527885
H146	H	0.058230	0.035905	0.548209
H147	H	0.076663	-0.019316	0.566605
C148	C	-0.047459	-0.364419	0.941715
H149	H	-0.035964	-0.344419	0.941724
H150	H	-0.056120	-0.350172	0.914111
H151	H	-0.074502	-0.368594	0.969329
C152	C	0.149026	-0.619216	0.941628
H153	H	0.176660	-0.619259	0.941623
H154	H	0.138125	-0.643440	0.969229
H155	H	0.156509	-0.625017	0.914011
C156	C	-0.047012	-0.521554	0.941605
H157	H	-0.035372	-0.553071	0.941583
H158	H	-0.074090	-0.518008	0.969207
H159	H	-0.055669	-0.499583	0.913988
H160	H	-0.095331	-0.773979	0.396956
C161	C	0.550310	-0.393304	0.314045
H162	H	0.550299	-0.404805	0.294048
H163	H	0.522686	-0.366269	0.318244
H164	H	0.577903	-0.384629	0.299779
C165	C	0.094907	-0.871666	0.369573
H166	H	0.111609	-0.849715	0.353118
H167	H	0.099486	-0.891105	0.399535
H168	H	0.106611	-0.891110	0.351310
H169	H	0.138447	-0.464586	0.941669
H170	H	0.167007	-0.486271	0.814352
C171	C	0.040111	-0.374138	0.716957
H172	H	0.056991	-0.365954	0.683706
H173	H	0.020674	-0.391049	0.725138
H174	H	0.020674	-0.345962	0.725138
C175	C	0.211053	-0.459547	0.716820
H176	H	0.227986	-0.478985	0.738778
H177	H	0.219214	-0.476449	0.697377
H178	H	0.219202	-0.431359	0.697381
H179	H	0.550485	-0.403881	0.468626
H180	H	0.019058	-0.412426	0.521121
C181	C	0.039970	-0.374115	0.559430
H182	H	0.008410	-0.369329	0.564237
H183	H	0.044786	-0.389336	0.589288
H184	H	0.044743	-0.344240	0.544213
H185	H	0.166679	-0.486211	0.447227
H186	H	0.196836	-0.456064	0.477324
H187	H	0.423275	-0.522397	0.511838
C188	C	0.325764	-0.501429	0.548801
H189	H	0.292516	-0.484583	0.557707
H190	H	0.333916	-0.517181	0.528300
H191	H	0.333960	-0.524247	0.576485
C192	C	0.430342	-0.366963	0.449282
H193	H	0.408360	-0.335630	0.447458
H194	H	0.449805	-0.375296	0.466240
H195	H	0.449757	-0.368232	0.418057
C196	C	0.325700	-0.332103	0.484229
H197	H	0.347668	-0.315415	0.467739
H198	H	0.306240	-0.320415	0.465988
H199	H	0.306282	-0.327486	0.514177
H200	H	0.129672	-0.118967	0.410356
C201	C	0.168032	-0.216489	0.431201
H202	H	0.172787	-0.194504	0.399649
H203	H	0.197914	-0.235923	0.435963
H204	H	0.152816	-0.235934	0.436003
H205	H	0.055974	-0.119015	0.558014
H206	H	-0.028474	-0.460433	0.068892
C207	C	0.082723	-0.216545	0.602110
H208	H	0.096728	-0.249792	0.607353
H209	H	0.094194	-0.208377	0.616096
H210	H	0.049102	-0.208389	0.616123
C211	C	-0.066929	-0.481257	0.166404
H212	H	-0.075150	-0.498147	0.199654
H213	H	-0.050019	-0.461839	0.158272
H214	H	-0.095080	-0.461797	0.158181
C215	C	0.053475	-0.617371	0.061861
H216	H	0.058226	-0.648921	0.083852
H217	H	0.038295	-0.612566	0.042377
H218	H	0.083362	-0.612621	0.042469
H219	H	-0.058984	-0.490504	0.332300
C220	C	0.018452	-0.652191	0.166507
H221	H	0.004416	-0.657427	0.199751
H222	H	0.007007	-0.666170	0.158304
H223	H	0.052071	-0.666220	0.158396
C224	C	-0.032689	-0.446421	0.359456
H225	H	-0.052192	-0.429498	0.340069
H226	H	-0.049659	-0.438553	0.387810
H227	H	-0.004684	-0.437969	0.342628
H228	H	0.044746	-0.608091	0.436494
H229	H	0.050956	-0.774133	0.341399
C230	C	0.018091	-0.652175	0.409703
H231	H	0.037494	-0.669098	0.429189
H232	H	-0.010097	-0.660312	0.426561
H233	H	0.035035	-0.660362	0.381530
C234	C	-0.074409	-0.871498	0.433881
H235	H	-0.057575	-0.904751	0.442783
H236	H	-0.097251	-0.863308	0.461557
H237	H	-0.090128	-0.863323	0.413337
C238	C	-0.224852	-0.609194	0.451995
H239	H	-0.246866	-0.613951	0.483531
H240	H	-0.205420	-0.639075	0.447231
H241	H	-0.205412	-0.594001	0.447246
H242	H	-0.322118	-0.496994	0.324987
C243	C	-0.329494	-0.574223	0.486706
H244	H	-0.362730	-0.560195	0.491905
H245	H	-0.321351	-0.607845	0.500698
H246	H	-0.321357	-0.562782	0.500751
C247	C	-0.224582	-0.523787	0.281007
H248	H	-0.246521	-0.504330	0.264052
H249	H	-0.205136	-0.506909	0.272877
H250	H	-0.205146	-0.551978	0.272854
H251	H	0.023260	-0.376951	0.354059
