data_functionalizedCrystal
_audit_creation_method	'MofGen! by Chris Wilmer'
_symmetry_space_group_name_H-M	'P1'
_symmetry_Int_Tables_number	1
_symmetry_cell_setting	triclinic
loop_
_symmetry_equiv_pos_as_xyz
  x,y,z
_cell_length_a	12.970454
_cell_length_b	20.016444
_cell_length_c	12.970454
_cell_angle_alpha	59.998626
_cell_angle_beta	89.998131
_cell_angle_gamma	60.001798
loop_
_atom_site_label
_atom_site_type_symbol
_atom_site_fract_x
_atom_site_fract_y
_atom_site_fract_z
Zr1	Zr	0.993271	0.731258	-0.135344
O2	O	0.828658	0.870631	-0.299965
O3	O	1.043726	0.591885	-0.084877
O4	O	1.043738	0.731258	-0.299969
O5	O	0.828646	0.731258	0.084794
O6	O	1.213405	0.731258	-0.299974
O7	O	0.828647	0.731258	-0.084873
O8	O	1.213384	0.481945	0.084787
O9	O	0.828667	0.980572	-0.299967
O10	O	1.191874	0.649212	-0.063359
O11	O	1.065253	0.649212	0.063265
O12	O	1.065266	0.813306	-0.189979
O13	O	0.938645	0.813306	-0.063355
Zr14	Zr	1.263868	0.731260	0.135246
Zr15	Zr	1.263869	0.731259	-0.135352
Zr16	Zr	0.993269	0.731259	0.135255
Zr17	Zr	0.993284	0.906601	-0.135347
Zr18	Zr	1.263855	0.555918	0.135250
O19	O	1.213412	0.870634	0.084779
O20	O	1.213415	0.870632	-0.299977
O21	O	0.828656	0.870632	0.084791
O22	O	1.428480	0.591887	0.299868
O23	O	1.428483	0.591886	-0.084889
O24	O	1.043724	0.591886	0.299880
O25	O	1.428493	0.731260	-0.084891
O26	O	1.213400	0.731260	0.299872
O27	O	1.043734	0.731260	0.299877
O28	O	1.428492	0.731260	0.084775
O29	O	1.043756	0.980572	-0.299974
O30	O	1.213382	0.481946	0.299876
O31	O	1.428472	0.481947	0.299870
O32	O	1.428473	0.481946	0.084780
O33	O	0.828665	0.980572	-0.084878
O34	O	1.043755	0.980573	-0.084884
O35	O	1.191872	0.649213	0.189881
O36	O	1.318493	0.649213	0.063257
O37	O	1.191886	0.813307	-0.063362
O38	O	1.065265	0.813307	0.063262
C39	C	1.128553	0.511932	-0.000045
C40	C	1.128548	0.437495	-0.000043
C41	C	0.790092	0.731258	-0.000038
C42	C	0.675215	0.731258	-0.000035
C43	C	1.035100	0.326799	-0.093521
C44	C	1.035108	0.256855	-0.093525
C45	C	1.222048	0.135719	0.093428
C46	C	1.222043	0.205663	0.093426
C47	C	1.128563	0.301203	-0.000047
C48	C	1.128575	0.161315	-0.000050
C49	C	1.128585	0.085478	-0.000055
C50	C	1.128554	0.377046	-0.000045
C51	C	1.467047	0.731260	-0.000059
C52	C	1.581923	0.731261	-0.000063
C53	C	1.128572	0.731258	-0.338526
C54	C	1.128572	0.731258	-0.453402
C55	C	1.128585	0.950586	-0.000053
C56	C	1.128591	1.025023	-0.000054
C57	C	1.128567	0.731260	0.338429
C58	C	1.128566	0.731261	0.453305
C59	C	1.467031	0.511933	-0.000055
C60	C	1.581901	0.437496	-0.000057
C61	C	1.128551	0.511934	0.338433
C62	C	1.128544	0.437496	0.453311
C63	C	1.467028	0.511935	0.338423
C64	C	1.581898	0.437498	0.453297
C65	C	0.790110	0.950584	-0.338520
C66	C	0.675240	1.025020	-0.453394
C67	C	0.790108	0.950585	-0.000043
C68	C	0.675237	1.025022	-0.000040
C69	C	1.128588	0.950585	-0.338531
C70	C	1.128594	1.025022	-0.453408
C71	C	1.569752	0.402539	-0.066162
C72	C	1.677675	0.332608	-0.066189
C73	C	1.797746	0.297629	-0.000103
C74	C	1.809893	0.332593	0.066003
C75	C	1.701971	0.402528	0.066022
C76	C	1.194635	0.402541	0.573362
C77	C	1.194625	0.332609	0.681312
C78	C	1.128530	0.297629	0.669208
C79	C	1.062430	0.332592	0.549144
C80	C	1.062435	0.402528	0.441196
C81	C	1.701949	0.402542	0.441146
C82	C	1.809891	0.332610	0.549072
C83	C	1.797781	0.297632	0.669147
C84	C	1.677718	0.332595	0.681295
C85	C	1.569778	0.402530	0.573371
C86	C	0.555190	1.059985	-0.441244
C87	C	0.447247	1.129938	-0.549170
C88	C	0.459357	1.164921	-0.669245
C89	C	0.579420	1.129953	-0.681393
C90	C	0.687360	1.060006	-0.573468
C91	C	0.687387	1.059986	0.066053
C92	C	0.579464	1.129937	0.066050
C93	C	0.459392	1.164918	-0.000039
C94	C	0.447245	1.129951	-0.066141
C95	C	0.555167	1.060006	-0.066145
C96	C	1.194702	1.059979	-0.441263
C97	C	1.194732	1.129911	-0.549193
C98	C	1.128647	1.164890	-0.669266
C99	C	1.062537	1.129926	-0.681408
C100	C	1.062515	1.059990	-0.573480
H101	H	0.958975	0.404589	-0.169626
H102	H	0.959003	0.277704	-0.169642
H103	H	1.298155	0.057925	0.169532
H104	H	1.128675	1.221836	-0.757137
H105	H	1.667876	0.304105	0.779075
H106	H	1.885683	0.240686	0.757017
H107	H	0.371526	1.221872	-0.000025
H108	H	1.248458	0.431013	0.583242
H109	H	0.545305	1.031506	-0.343482
H110	H	0.349469	1.158443	-0.119949
H111	H	1.298159	0.184814	0.169546
H112	H	1.471994	0.431018	-0.119992
H113	H	1.008732	1.158416	-0.779186
H114	H	0.589266	1.158445	-0.779171
H115	H	1.472031	0.430982	0.583281
H116	H	0.785145	1.031510	0.119879
H117	H	1.907642	0.304150	0.539159
H118	H	0.545257	1.031540	-0.119962
H119	H	1.667760	0.304149	-0.120021
H120	H	1.248517	1.031510	-0.343504
H121	H	1.008676	1.031536	-0.583386
H122	H	1.907669	0.304103	0.119807
H123	H	1.248455	0.304150	0.779063
H124	H	1.128537	0.240684	0.757116
H125	H	1.008618	0.304102	0.539307
H126	H	1.008619	0.430980	0.343449
H127	H	1.885612	0.240682	-0.000128
H128	H	1.248565	1.158371	-0.539282
H129	H	0.589379	1.158396	0.119883
H130	H	1.711881	0.430981	0.119860
H131	H	1.711833	0.431011	0.343385
H132	H	0.349497	1.158397	-0.539254
H133	H	0.371455	1.221876	-0.757114
H134	H	0.785108	1.031538	-0.583376
