data_functionalizedCrystal
_audit_creation_method	'MofGen! by Chris Wilmer'
_symmetry_space_group_name_H-M	'P1'
_symmetry_Int_Tables_number	1
_symmetry_cell_setting	triclinic
loop_
_symmetry_equiv_pos_as_xyz
  x,y,z
_cell_length_a	10.723023
_cell_length_b	16.992695
_cell_length_c	15.455446
_cell_angle_alpha	87.143805
_cell_angle_beta	87.309421
_cell_angle_gamma	92.432115
loop_
_atom_site_label
_atom_site_type_symbol
_atom_site_fract_x
_atom_site_fract_y
_atom_site_fract_z
O1	O	1.661548	-0.113430	0.072122
O2	O	1.299302	-0.123963	0.072126
O3	O	1.478973	-0.004546	0.072117
O4	O	1.481876	-0.232848	0.072131
O5	O	1.489188	0.002258	-0.072143
O6	O	1.309517	-0.117159	-0.072134
O7	O	1.671763	-0.106626	-0.072138
Cu8	Cu	1.491573	-0.111271	-0.085308
Cu9	Cu	1.479492	-0.119318	0.085296
O10	O	1.492092	-0.226043	-0.072129
C11	C	1.257844	-0.119795	-0.000004
C12	C	1.119092	-0.117502	-0.000002
C13	C	0.908540	-0.117635	0.074728
C14	C	1.051948	-0.120005	0.074729
C15	C	1.480344	0.028089	-0.000013
C16	C	1.469197	0.115193	-0.000012
C17	C	1.713221	-0.110795	-0.000006
C18	C	1.851972	-0.113088	-0.000002
C19	C	1.490720	-0.258678	0.000003
C20	C	1.501867	-0.345783	0.000008
N21	N	1.500079	-0.105611	-0.205301
C22	C	1.576757	0.164855	-0.000014
C23	C	1.566275	0.246698	-0.000006
C24	C	1.448231	0.278877	-0.000002
C25	C	1.340662	0.229208	0.000003
C26	C	1.351146	0.147367	0.000001
C27	C	1.404782	0.522707	0.000011
C28	C	1.394307	0.604555	0.000010
C29	C	1.619920	0.622039	0.000003
C30	C	1.630393	0.540196	-0.000004
C31	C	1.522825	0.490534	0.000005
N32	N	1.437514	0.362533	0.000004
N33	N	1.533543	0.406879	0.000005
C34	C	1.547342	-0.074260	-0.749298
C35	C	1.540882	-0.078550	-0.658491
C36	C	1.458067	-0.133549	-0.613100
C37	C	1.381717	-0.184267	-0.658519
C38	C	1.388184	-0.179980	-0.749324
C39	C	1.430196	-0.152042	-0.341525
C40	C	1.423732	-0.156323	-0.250714
C41	C	1.582899	-0.050606	-0.250693
C42	C	1.589354	-0.046321	-0.341499
C43	C	1.513009	-0.097042	-0.386911
N44	N	1.451459	-0.137934	-0.520281
N45	N	1.519624	-0.092660	-0.479728
N46	N	1.470995	-0.124972	0.205289
H47	H	0.909711	-0.110946	-0.063981
H48	H	1.672881	0.138662	-0.000023
C49	C	1.684597	0.301323	-0.000011
C50	C	1.784396	0.300822	-0.074928
C51	C	1.902726	0.355446	-0.074931
C52	C	1.921257	0.410571	-0.000017
C53	C	1.821455	0.411074	0.074906
C54	C	1.703125	0.356450	0.074909
H55	H	1.770681	0.260014	-0.130389
H56	H	1.976606	0.355074	-0.130394
H57	H	2.008852	0.451007	-0.000019
H58	H	1.835170	0.451883	0.130366
H59	H	1.629245	0.356823	0.130372
H60	H	1.356289	-0.201113	-0.213761
H61	H	1.368030	-0.193339	-0.378492
H62	H	1.314291	-0.229053	-0.621556
H63	H	1.726517	0.514002	-0.000008
C64	C	1.624858	-0.022764	-0.608533
C65	C	1.614749	0.067176	-0.621015
C66	C	1.698728	0.122963	-0.571054
C67	C	1.792817	0.088811	-0.508611
C68	C	1.802930	-0.001134	-0.496126
C69	C	1.718950	-0.056922	-0.546087
H70	H	1.545096	0.092462	-0.667242
H71	H	1.691242	0.189547	-0.580297
H72	H	1.854983	0.130108	-0.471628
H73	H	1.872583	-0.026421	-0.449900
H74	H	1.726437	-0.123505	-0.536844
C75	C	1.738239	0.676668	0.000003
C76	C	1.767367	0.738878	-0.074903
C77	C	1.885691	0.793506	-0.074898
C78	C	1.974887	0.785925	0.000012
C79	C	1.945761	0.723712	0.074923
C80	C	1.827437	0.669084	0.074919
H81	H	1.701336	0.744492	-0.130361
H82	H	1.907251	0.839560	-0.130353
H83	H	2.062477	0.826364	0.000015
H84	H	2.011791	0.718098	0.130381
H85	H	1.805877	0.623030	0.130374
C86	C	1.304198	-0.235764	-0.799281
C87	C	1.213100	-0.296261	-0.749355
C88	C	1.129115	-0.352050	-0.799311
C89	C	1.136229	-0.347341	-0.899192
C90	C	1.227330	-0.286841	-0.949124
C91	C	1.311315	-0.231053	-0.899168
H92	H	1.207831	-0.299749	-0.675412
H93	H	1.061676	-0.396835	-0.762348
H94	H	1.074058	-0.388639	-0.936172
H95	H	1.232599	-0.283353	-1.023067
H96	H	1.378754	-0.186267	-0.936131
C97	C	1.666886	0.005178	-0.200740
C98	C	1.659819	0.000448	-0.100858
C99	C	1.743814	0.056233	-0.050907
C100	C	1.834877	0.116749	-0.100837
C101	C	1.841948	0.121481	-0.200724
C102	C	1.757953	0.065696	-0.250676
H103	H	1.592405	-0.044351	-0.063892
H104	H	1.738579	0.052730	0.023036
H105	H	1.897055	0.158044	-0.063860
H106	H	1.909362	0.166281	-0.237690
H107	H	1.763188	0.069200	-0.324619
C108	C	1.286455	0.468091	0.000005
C109	C	1.186637	0.468600	0.074909
C110	C	1.068302	0.413981	0.074898
C111	C	1.049786	0.358854	-0.000016
C112	C	1.149608	0.358343	-0.074925
C113	C	1.267943	0.412962	-0.074915
H114	H	1.200340	0.509410	0.130369
H115	H	0.994408	0.414359	0.130352
H116	H	0.962188	0.318422	-0.000023
H117	H	1.135904	0.317533	-0.130386
H118	H	1.341837	0.412584	-0.130368
H119	H	0.850803	-0.119768	0.138707
H120	H	1.298178	0.630752	-0.000001
H121	H	1.100615	-0.123906	0.138708
H122	H	1.070432	-0.113609	-0.063985
H123	H	1.244548	0.255414	0.000012
C124	C	1.232829	0.092734	0.000001
C125	C	1.133023	0.093237	0.074914
C126	C	1.014702	0.038604	0.074921
C127	C	0.996187	-0.016531	0.000014
C128	C	1.095995	-0.017035	-0.074905
C129	C	1.214316	0.037597	-0.074911
H130	H	1.146727	0.134053	0.130370
H131	H	0.940818	0.038978	0.130381
H132	H	0.908598	-0.056973	0.000018
H133	H	1.082291	-0.057851	-0.130361
H134	H	1.288200	0.037223	-0.130371
H135	H	1.614773	-0.029470	-0.786250
H136	H	1.656789	-0.001536	-0.378455
