data_functionalizedCrystal
_audit_creation_method	'MofGen! by Chris Wilmer'
_symmetry_space_group_name_H-M	'P1'
_symmetry_Int_Tables_number	1
_symmetry_cell_setting	triclinic
loop_
_symmetry_equiv_pos_as_xyz
  x,y,z
_cell_length_a	11.792254
_cell_length_b	23.532357
_cell_length_c	10.868271
_cell_angle_alpha	89.989339
_cell_angle_beta	89.995741
_cell_angle_gamma	83.513444
loop_
_atom_site_label
_atom_site_type_symbol
_atom_site_fract_x
_atom_site_fract_y
_atom_site_fract_z
O1	O	1.505034	0.078091	-0.102337
O2	O	1.174503	0.086128	-0.102342
O3	O	1.349765	-0.000765	-0.102314
O4	O	1.329772	0.164984	-0.102365
O5	O	1.349751	-0.000768	0.102330
O6	O	1.174488	0.086125	0.102303
O7	O	1.505020	0.078088	0.102307
Zn8	Zn	1.339752	0.082105	0.134797
Zn9	Zn	1.339770	0.082110	-0.134831
O10	O	1.329757	0.164980	0.102280
C11	C	1.132217	0.085620	-0.000020
C12	C	1.006240	0.084105	-0.000020
C13	C	0.903933	0.082873	-0.000025
C14	C	0.775583	0.081334	-0.000025
C15	C	1.349258	-0.021986	0.000012
C16	C	1.347754	-0.085214	0.000023
C17	C	1.338323	-0.477279	-0.111595
C18	C	1.336893	-0.536687	-0.111602
O19	O	1.336122	-0.567406	-0.206472
N20	N	1.336177	-0.566404	-0.000052
C21	C	1.336878	-0.536710	0.111513
O22	O	1.336136	-0.567442	0.206394
C23	C	1.338299	-0.477303	0.111519
C24	C	1.339027	-0.447589	-0.000039
C25	C	1.339049	-0.447566	-0.223143
C26	C	1.340481	-0.388162	-0.223136
C27	C	1.341185	-0.358472	-0.111580
C28	C	1.340459	-0.388185	-0.000031
C29	C	1.338992	-0.447609	0.223082
C30	C	1.340413	-0.388197	0.223078
C31	C	1.341141	-0.358484	0.111521
C32	C	1.342595	-0.299092	0.111532
N33	N	1.343311	-0.269374	-0.000018
C34	C	1.342606	-0.299064	-0.111574
C35	C	1.333892	-0.661469	0.111492
C36	C	1.332479	-0.720876	0.111488
C37	C	1.332492	-0.720849	-0.111627
C38	C	1.333913	-0.661442	-0.111622
C39	C	1.334608	-0.631752	-0.000058
C40	C	1.345613	-0.174312	-0.111550
C41	C	1.347050	-0.114904	-0.111533
C42	C	1.347030	-0.114936	0.111582
C43	C	1.345600	-0.174339	0.111565
C44	C	1.344888	-0.204026	-0.000011
O45	O	1.343362	-0.268334	0.206354
O46	O	1.343333	-0.268324	-0.206440
C47	C	1.547305	0.078596	-0.000018
C48	C	1.673282	0.080111	-0.000025
C49	C	1.330264	0.186202	-0.000049
C50	C	1.331768	0.249429	-0.000069
N51	N	1.339747	0.082102	0.318811
N52	N	1.339784	0.082109	-0.318846
C53	C	1.339765	0.082109	0.569817
C54	C	1.339751	0.082107	0.430139
H55	H	1.345028	-0.198476	-0.202406
H56	H	1.338401	-0.471791	0.313924
C57	C	1.341182	-0.355540	0.345805
C58	C	1.440724	-0.320870	0.376506
C59	C	1.441496	-0.288215	0.499230
C60	C	1.342727	-0.290231	0.591254
C61	C	1.243177	-0.324902	0.560556
C62	C	1.242405	-0.357557	0.437831
H63	H	1.513846	-0.319377	0.308382
H64	H	1.515190	-0.262549	0.521955
H65	H	1.343298	-0.266057	0.682103
H66	H	1.170055	-0.326395	0.628679
H67	H	1.168711	-0.383223	0.415106
C68	C	1.334703	-0.628759	-0.234336
C69	C	1.237116	-0.581754	-0.265026
C70	C	1.237903	-0.549075	-0.387746
C71	C	1.336277	-0.563401	-0.479776
C72	C	1.433872	-0.610409	-0.449089
C73	C	1.433085	-0.643087	-0.326369
H74	H	1.164287	-0.571147	-0.196897
H75	H	1.165656	-0.514277	-0.410462
H76	H	1.336860	-0.539210	-0.570621
H77	H	1.506701	-0.621016	-0.517217
H78	H	1.505331	-0.677885	-0.303652
H79	H	1.334461	-0.637300	0.202347
C80	C	1.347799	-0.082267	0.234287
C81	C	1.250206	-0.035263	0.264943
C82	C	1.250965	-0.002592	0.387648
C83	C	1.349317	-0.016924	0.479698
C84	C	1.446917	-0.063930	0.449045
C85	C	1.446159	-0.096602	0.326340
H86	H	1.177393	-0.024652	0.196800
H87	H	1.178713	0.032205	0.410339
H88	H	1.349878	0.007261	0.570532
H89	H	1.519730	-0.074542	0.517188
H90	H	1.518410	-0.131399	0.303649
C91	C	1.331710	-0.753514	-0.234346
C92	C	1.429293	-0.800520	-0.265022
C93	C	1.428513	-0.833185	-0.387733
C94	C	1.330151	-0.818846	-0.479767
C95	C	1.232561	-0.771837	-0.449093
C96	C	1.233340	-0.739172	-0.326382
H97	H	1.502113	-0.811137	-0.196891
H98	H	1.500757	-0.867984	-0.410439
H99	H	1.329574	-0.843027	-0.570605
H100	H	1.159740	-0.761220	-0.517224
H101	H	1.161097	-0.704373	-0.303675
H102	H	1.331903	-0.745065	0.202329
H103	H	1.338472	-0.471733	-0.313991
H104	H	1.347645	-0.090714	-0.202380
H105	H	1.345018	-0.198534	0.202405
H106	H	1.341069	-0.363974	-0.313978
