data_functionalizedCrystal
_audit_creation_method	'MofGen! by Chris Wilmer'
_symmetry_space_group_name_H-M	'P1'
_symmetry_Int_Tables_number	1
_symmetry_cell_setting	triclinic
loop_
_symmetry_equiv_pos_as_xyz
  x,y,z
_cell_length_a	11.169417
_cell_length_b	12.594516
_cell_length_c	11.169409
_cell_angle_alpha	89.968704
_cell_angle_beta	89.979436
_cell_angle_gamma	90.016931
loop_
_atom_site_label
_atom_site_type_symbol
_atom_site_fract_x
_atom_site_fract_y
_atom_site_fract_z
Zn1	Zn	1.834923	-0.423632	-0.678551
Zn2	Zn	1.834790	-0.601658	-0.477871
Zn3	Zn	1.634207	-0.423696	-0.477885
Zn4	Zn	1.634197	-0.601571	-0.678516
O5	O	1.734529	-0.512639	-0.578206
O6	O	2.002855	-0.447256	-0.651939
O7	O	1.808131	-0.578114	-0.309923
O8	O	1.660892	-0.274742	-0.504524
O9	O	2.002758	-0.578051	-0.504501
O10	O	1.808358	-0.274694	-0.651953
O11	O	1.660763	-0.447366	-0.309934
O12	O	1.466256	-0.447283	-0.504491
O13	O	1.660875	-0.577904	-0.846471
O14	O	1.466248	-0.577967	-0.651893
O15	O	1.808348	-0.447172	-0.846496
O16	O	1.808121	-0.750592	-0.504467
O17	O	1.660746	-0.750528	-0.651880
C18	C	1.422705	-0.512623	-0.578190
C19	C	1.289305	-0.512642	-0.578212
C20	C	1.734451	-0.789180	-0.578194
C21	C	1.734527	-0.907486	-0.578229
C22	C	1.654362	-0.976743	-0.658351
C23	C	1.625114	-1.047617	-0.548838
C24	C	1.763884	-1.047410	-0.687761
C25	C	1.705221	-0.976802	-0.468658
C26	C	1.844042	-0.976588	-0.607656
C27	C	1.814836	-1.047431	-0.498067
C28	C	2.047572	-0.512656	-0.578222
C29	C	2.180972	-0.512663	-0.578229
C30	C	1.734625	-0.512521	-0.891249
C31	C	1.734666	-0.512471	-1.024649
C32	C	1.734641	-0.235018	-0.578244
C33	C	1.734689	-0.116713	-0.578260
C34	C	1.734503	-0.512680	-0.266381
C35	C	1.734694	-0.512430	-0.132982
H36	H	1.586447	-0.945704	-0.726008
C37	C	1.905302	-1.088779	-0.407744
C38	C	1.905125	-1.199937	-0.409430
C39	C	1.988449	-1.238067	-0.326249
H40	H	1.884415	-1.064586	-0.329959
H41	H	1.982844	-1.063445	-0.427977
H42	H	1.827601	-1.225261	-0.389190
H43	H	1.926025	-1.224158	-0.487196
H44	H	2.065991	-1.212733	-0.346482
H45	H	1.967555	-1.213867	-0.248470
H46	H	1.988348	-1.313491	-0.327390
C47	C	1.967338	-0.934743	-0.640788
C48	C	1.965861	-0.823592	-0.639222
C49	C	2.079424	-0.785006	-0.669734
H50	H	1.988150	-0.958759	-0.718663
H51	H	2.024566	-0.959941	-0.584652
H52	H	1.908651	-0.798404	-0.695355
H53	H	1.945071	-0.799548	-0.561357
H54	H	2.136652	-0.810203	-0.613598
H55	H	2.100226	-0.809029	-0.747608
H56	H	2.078440	-0.709587	-0.668665
C57	C	1.501731	-1.089371	-0.515850
C58	C	1.457704	-1.152060	-0.609499
C59	C	1.344053	-1.190547	-0.579157
H60	H	1.449034	-1.031384	-0.502519
H61	H	1.507206	-1.130962	-0.445077
H62	H	1.452222	-1.110471	-0.680252
H63	H	1.510369	-1.210062	-0.622843
H64	H	1.349528	-1.232138	-0.508383
H65	H	1.291366	-1.132554	-0.565825
H66	H	1.314171	-1.233094	-0.642687
H67	H	1.788649	-1.078426	-0.780379
H68	H	1.680349	-0.945914	-0.376015
