data_functionalizedCrystal
_audit_creation_method	'MofGen! by Chris Wilmer'
_symmetry_space_group_name_H-M	'P1'
_symmetry_Int_Tables_number	1
_symmetry_cell_setting	triclinic
loop_
_symmetry_equiv_pos_as_xyz
  x,y,z
_cell_length_a	19.121424
_cell_length_b	19.120786
_cell_length_c	10.686551
_cell_angle_alpha	96.651844
_cell_angle_beta	91.780155
_cell_angle_gamma	95.008527
loop_
_atom_site_label
_atom_site_type_symbol
_atom_site_fract_x
_atom_site_fract_y
_atom_site_fract_z
Zn1	Zn	1.091153	-0.206762	0.614281
Zn2	Zn	1.076234	-0.334259	0.394622
Zn3	Zn	0.964449	-0.220854	0.411885
Zn4	Zn	0.968432	-0.329428	0.614172
O5	O	1.025067	-0.272826	0.508740
O6	O	1.187315	-0.219799	0.577963
O7	O	1.053495	-0.327135	0.220326
O8	O	0.985833	-0.120188	0.446003
O9	O	1.176354	-0.313471	0.416580
O10	O	1.078922	-0.109835	0.594702
O11	O	0.971367	-0.243817	0.233009
O12	O	0.866836	-0.239133	0.445899
O13	O	0.992622	-0.305237	0.790773
O14	O	0.869762	-0.318902	0.594518
O15	O	1.082784	-0.215115	0.790852
O16	O	1.057357	-0.432415	0.416476
O17	O	0.978156	-0.428866	0.577779
C18	C	0.842852	-0.280023	0.522071
C19	C	0.764900	-0.283117	0.527802
C20	C	0.324103	-0.302678	0.564195
C21	C	0.397346	-0.299777	0.558786
C22	C	0.432430	-0.256717	0.478842
C23	C	0.394267	-0.216560	0.404294
C24	C	0.321025	-0.219465	0.409697
C25	C	0.653495	-0.245866	0.458657
C26	C	0.726743	-0.242962	0.453262
C27	C	0.729817	-0.326181	0.607753
C28	C	0.656574	-0.329079	0.613155
C29	C	0.618417	-0.288925	0.538602
C30	C	0.507296	-0.253748	0.473314
C31	C	0.543552	-0.291898	0.544124
C32	C	1.016590	-0.456256	0.495268
C33	C	1.013030	-0.534723	0.489542
C34	C	1.059793	-0.566135	0.564340
C35	C	1.056445	-0.639863	0.558962
C36	C	1.006336	-0.682179	0.478780
C37	C	0.959568	-0.650763	0.403979
C38	C	0.962914	-0.577035	0.409364
C39	C	0.993810	-0.905061	0.458650
C40	C	0.990469	-0.978794	0.453267
C41	C	1.087345	-0.967889	0.608253
C42	C	1.090689	-0.894161	0.613625
C43	C	1.043918	-0.862751	0.538830
C44	C	1.002914	-0.757542	0.473278
C45	C	1.047338	-0.787389	0.544339
C46	C	1.207993	-0.265602	0.495358
C47	C	1.285946	-0.262523	0.489655
C48	C	1.039811	-0.258065	0.837879
C49	C	1.046095	-0.251775	0.978139
C50	C	1.033597	-0.088678	0.522291
C51	C	1.037232	-0.010205	0.528065
C52	C	1.010423	-0.287477	0.180882
C53	C	1.004284	-0.293563	0.040627
H54	H	0.428411	-0.332478	0.619482
Br55	Br	1.113781	-0.184125	1.067814
Br56	Br	0.601721	-0.191364	0.357489
H57	H	0.760892	-0.358872	0.668449
H58	H	0.535870	-0.218687	0.408226
H59	H	0.963684	-0.334154	0.986823
Br60	Br	1.150814	-1.010521	0.709759
Br61	Br	0.891555	-0.708190	0.295175
H62	H	0.628013	-0.364145	0.678251
H63	H	0.295544	-0.337739	0.629302
H64	H	1.100599	-0.531686	0.629627
H65	H	0.422838	-0.181502	0.339196
Br66	Br	0.899444	-0.534404	0.307855
Br67	Br	0.774356	-0.184520	0.344757
H68	H	1.094529	-0.665435	0.619860
H69	H	1.088134	-0.752933	0.609629
H70	H	1.131491	-0.859708	0.678916
H71	H	0.289958	-0.186765	0.349002
Br72	Br	0.922464	-1.036223	0.344432
H73	H	0.514983	-0.326960	0.609210
Br74	Br	0.930327	-0.862442	0.357157
H75	H	0.962118	-0.792004	0.407989
