data_functionalizedCrystal
_audit_creation_method	'MofGen! by Chris Wilmer'
_symmetry_space_group_name_H-M	'P1'
_symmetry_Int_Tables_number	1
_symmetry_cell_setting	triclinic
loop_
_symmetry_equiv_pos_as_xyz
  x,y,z
_cell_length_a	22.863218
_cell_length_b	22.862586
_cell_length_c	22.858745
_cell_angle_alpha	60.006856
_cell_angle_beta	60.013818
_cell_angle_gamma	59.991795
loop_
_atom_site_label
_atom_site_type_symbol
_atom_site_fract_x
_atom_site_fract_y
_atom_site_fract_z
O1	O	0.081006	-0.854581	0.714630
O2	O	0.030492	-0.665350	0.575795
O3	O	0.150314	-0.785089	0.575706
O4	O	-0.038816	-0.734841	0.714718
O5	O	0.190066	-0.745348	0.615369
O6	O	0.070244	-0.625609	0.615458
O7	O	0.120758	-0.814840	0.754293
Zn8	Zn	0.101812	-0.713914	0.691173
Zn9	Zn	0.049438	-0.766275	0.638915
O10	O	0.000936	-0.695100	0.754381
N11	N	0.137558	-0.678184	0.726840
N12	N	0.013698	-0.802011	0.603247
C13	C	0.187224	-0.518558	0.776483
C14	C	0.187235	-0.628552	0.776467
C15	C	0.214753	-0.601061	0.803961
C16	C	0.334724	-0.580392	0.740801
C17	C	0.409718	-0.605392	0.715784
C18	C	0.409746	-0.726732	0.762051
C19	C	0.334754	-0.701730	0.787070
C20	C	0.205297	-0.481049	0.702756
C21	C	0.180267	-0.406048	0.677779
C22	C	0.119099	-0.406071	0.800259
C23	C	0.144128	-0.481071	0.825236
C24	C	0.113501	-0.610437	0.794610
C25	C	0.088492	-0.635428	0.769607
C26	C	0.210943	-0.696652	0.708337
C27	C	0.235956	-0.671660	0.733331
C28	C	0.113585	-0.610461	0.923980
C29	C	0.088635	-0.635476	0.998978
C30	C	0.211128	-0.696714	0.998930
C31	C	0.236077	-0.671700	0.923930
C32	C	0.187303	-0.628571	0.886457
C33	C	0.297246	-0.628559	0.776441
C34	C	-0.117796	-0.823430	0.581283
C35	C	-0.007671	-0.823587	0.471446
C36	C	-0.007879	-0.933535	0.581483
C37	C	-0.007861	-0.823583	0.581554
C38	C	-0.035301	-0.851035	0.553942
N39	N	0.446162	-0.678198	0.726752
O40	O	0.691234	-0.690164	0.550341
O41	O	0.691462	-0.829422	0.739388
O42	O	0.691373	-0.829102	0.619485
O43	O	0.691323	-0.690484	0.670244
O44	O	0.572233	-0.789455	0.659278
O45	O	0.572322	-0.789775	0.779181
O46	O	0.572094	-0.650517	0.590134
Zn47	Zn	0.553292	-0.713851	0.690976
Zn48	Zn	0.710264	-0.766088	0.638547
O49	O	0.572183	-0.650837	0.710037
N50	N	0.817394	-0.801741	0.602763
N51	N	0.137538	-0.369628	0.726874
O52	O	-0.038795	-0.124419	0.714761
O53	O	0.150256	-0.124417	0.575522
O54	O	0.030331	-0.124432	0.575860
O55	O	0.081131	-0.124404	0.714423
O56	O	0.070086	-0.243584	0.615573
O57	O	0.190011	-0.243569	0.615236
O58	O	0.000960	-0.243571	0.754474
Zn59	Zn	0.101797	-0.262488	0.691160
Zn60	Zn	0.049419	-0.105500	0.638836
O61	O	0.120885	-0.243556	0.754137
N62	N	0.013669	0.001640	0.603123
N63	N	0.137749	-0.678230	1.035381
O64	O	0.125655	-0.854547	1.280566
O65	O	-0.013567	-0.665426	1.280590
O66	O	-0.013245	-0.785328	1.280537
O67	O	0.125333	-0.734644	1.280618
O68	O	0.026456	-0.745599	1.161392
O69	O	0.026134	-0.625697	1.161444
O70	O	0.165355	-0.814817	1.161420
Zn71	Zn	0.102048	-0.713949	1.142516
Zn72	Zn	0.049740	-0.766294	1.299495
O73	O	0.165033	-0.694915	1.161473
N74	N	0.014038	-0.802020	1.406629
C75	C	0.045634	-0.621635	0.576499
C76	C	0.194019	-0.769918	0.576389
C77	C	0.105616	-0.858555	0.753588
C78	C	-0.042769	-0.710272	0.753698
C79	C	0.631920	-0.828776	0.783102
C80	C	0.631811	-0.828380	0.634616
C81	C	0.631633	-0.651162	0.546422
C82	C	0.631745	-0.651559	0.694907
C83	C	0.193900	-0.183846	0.576155
C84	C	0.045437	-0.184012	0.576622
C85	C	-0.042734	-0.183994	0.753792
C86	C	0.105780	-0.183977	0.753375
C87	C	-0.012889	-0.621735	1.221020
C88	C	-0.012483	-0.770211	1.220931
C89	C	0.164678	-0.858508	1.220991
C90	C	0.164280	-0.710023	1.221052
H91	H	0.073862	-0.575336	0.893474
H92	H	0.631832	-0.871926	0.623751
H93	H	0.208389	-0.912821	1.220975
C94	C	0.631517	-0.617646	0.428767
C95	C	0.631535	-0.592135	0.473132
H96	H	0.631461	-0.581206	0.383521
H97	H	0.589997	-0.630688	0.450220
H98	H	0.673091	-0.658341	0.422465
H99	H	0.589959	-0.551444	0.479439
H100	H	0.673060	-0.579083	0.451675
H101	H	-0.097093	-0.699562	0.797349
C102	C	0.038591	-0.122780	0.457806
C103	C	0.030751	-0.184027	0.517863
H104	H	0.029518	-0.122791	0.421536
H105	H	0.086020	-0.122782	0.440293
H106	H	0.005544	-0.081230	0.470859
H107	H	0.063803	-0.225577	0.504811
H108	H	-0.016684	-0.184031	0.535378
H109	H	-0.097027	-0.183996	0.797505
C110	C	0.112598	-0.245224	0.872197
C111	C	0.120450	-0.183973	0.812150
H112	H	0.121650	-0.245218	0.908484
H113	H	0.145648	-0.286766	0.859145
H114	H	0.065166	-0.245218	0.889692
H115	H	0.167885	-0.183981	0.794652
H116	H	0.087400	-0.142420	0.825203
C117	C	0.321027	-0.244508	0.540938
C118	C	0.267044	-0.183399	0.516997
H119	H	0.366184	-0.244229	0.504418
H120	H	0.312522	-0.286145	0.552074
H121	H	0.320991	-0.244587	0.582552
H122	H	0.267077	-0.183323	0.475386
H123	H	0.275551	-0.141751	0.505851
C124	C	0.631789	-0.618587	0.779475
C125	C	0.631721	-0.592770	0.709566
H126	H	0.631770	-0.582290	0.788525
H127	H	0.673365	-0.659307	0.784779
H128	H	0.590271	-0.631660	0.812534
H129	H	0.673242	-0.579701	0.676507
H130	H	0.590141	-0.552036	0.704255
H131	H	-0.056000	-0.781036	1.220859
C132	C	-0.046396	-0.504062	1.221061
C133	C	-0.071900	-0.548413	1.221029
H134	H	-0.082829	-0.458798	1.221071
H135	H	-0.005697	-0.497795	1.179522
H136	H	-0.033378	-0.525511	1.262620
H137	H	-0.084913	-0.526966	1.179468
H138	H	-0.112612	-0.554678	1.262573
C139	C	0.197249	-0.625466	1.221086
C140	C	0.223058	-0.695390	1.221071
H141	H	0.233538	-0.616433	1.221092
H142	H	0.156521	-0.620125	1.262632
H143	H	0.184195	-0.592418	1.179534
H144	H	0.236107	-0.728439	1.262625
H145	H	0.263798	-0.700738	1.179520
C146	C	0.258111	-0.776429	0.457455
C147	C	0.267348	-0.784374	0.517454
H148	H	0.303383	-0.785359	0.421074
H149	H	0.228060	-0.729016	0.440087
H150	H	0.236636	-0.809536	0.470515
H151	H	0.288818	-0.751263	0.504396
H152	H	0.297411	-0.831795	0.534824
C153	C	-0.029939	-0.572411	0.991483
C154	C	0.007596	-0.615552	1.040216
H155	H	-0.079967	-0.560108	1.016944
H156	H	-0.017664	-0.597851	0.962231
H157	H	-0.017648	-0.530010	0.962232
H158	H	-0.004691	-0.657956	1.069464
H159	H	-0.004684	-0.590112	1.069481
H160	H	0.296108	-0.686456	0.893383
C161	C	0.334716	-0.754717	0.991336
C162	C	0.264743	-0.744109	1.040114
H163	H	0.367816	-0.783980	1.016764
H164	H	0.341890	-0.709763	0.962092
H165	H	0.341900	-0.777612	0.962081
H166	H	0.257557	-0.721208	1.069366
H167	H	0.257566	-0.789070	1.069370
H168	H	0.073825	-0.575337	0.829731
H169	H	0.631977	-0.872492	0.837399
C170	C	-0.030043	-0.572422	0.832702
C171	C	0.007442	-0.615528	0.789554
H172	H	-0.080079	-0.560143	0.845021
H173	H	-0.017776	-0.530013	0.807264
H174	H	-0.017704	-0.597882	0.875092
H175	H	-0.004893	-0.590066	0.747162
H176	H	-0.004831	-0.657944	0.814992
H177	H	0.250621	-0.731757	0.673222
H178	H	0.295996	-0.686402	0.718551
C179	C	0.136892	-0.985597	0.788136
C180	C	0.120171	-0.931936	0.812456
H181	H	0.145873	-1.030898	0.824481
H182	H	0.178317	-0.985402	0.746484
H183	H	0.097817	-0.976889	0.776960
H184	H	0.159249	-0.940641	0.823627
H185	H	0.078741	-0.932134	0.854120
C186	C	0.342318	-0.824182	0.830278
C187	C	0.293555	-0.754680	0.826242
H188	H	0.316882	-0.856869	0.854459
H189	H	0.371587	-0.836731	0.855823
H190	H	0.371546	-0.826083	0.783287
H191	H	0.264329	-0.752777	0.873234
H192	H	0.264273	-0.742127	0.800699
H193	H	0.440287	-0.786313	0.770693
H194	H	0.440232	-0.566167	0.686761
H195	H	0.304191	-0.520811	0.732143
C196	C	0.263226	-0.473491	0.579180
C197	C	0.252660	-0.522256	0.649169
H198	H	0.292462	-0.498932	0.546097
H199	H	0.286124	-0.444241	0.571970
H200	H	0.218256	-0.444236	0.572005
H201	H	0.297630	-0.551507	0.656346
H202	H	0.229764	-0.551518	0.656382
H203	H	0.194981	-0.375507	0.617742
H204	H	0.084019	-0.375548	0.839959
C205	C	0.149714	-0.504193	0.937317
C206	C	0.124267	-0.522310	0.906282
H207	H	0.137454	-0.529655	0.987349
H208	H	0.128638	-0.454167	0.929421
H209	H	0.200310	-0.516482	0.916233
H210	H	0.073670	-0.510016	0.927362
H211	H	0.145341	-0.572347	0.914183
C212	C	-0.038830	-0.504034	0.543332
C213	C	0.031072	-0.548257	0.517629
H214	H	-0.047819	-0.458736	0.506986
H215	H	-0.044176	-0.497823	0.584042
H216	H	-0.071901	-0.525549	0.556389
H217	H	0.064144	-0.526744	0.504578
H218	H	0.036425	-0.554466	0.476906
