data_functionalizedCrystal
_audit_creation_method	'MofGen! by Chris Wilmer'
_symmetry_space_group_name_H-M	'P1'
_symmetry_Int_Tables_number	1
_symmetry_cell_setting	triclinic
loop_
_symmetry_equiv_pos_as_xyz
  x,y,z
_cell_length_a	8.559649
_cell_length_b	14.853567
_cell_length_c	7.088929
_cell_angle_alpha	83.771294
_cell_angle_beta	95.325015
_cell_angle_gamma	76.706797
loop_
_atom_site_label
_atom_site_type_symbol
_atom_site_fract_x
_atom_site_fract_y
_atom_site_fract_z
O1	O	2.103683	-0.020180	-0.158959
O2	O	1.638582	0.026373	-0.158964
O3	O	1.883556	-0.129002	-0.158967
O4	O	1.858710	0.135195	-0.158956
O5	O	1.916294	-0.149808	0.159008
O6	O	1.671320	0.005566	0.159011
O7	O	2.136422	-0.040986	0.159016
Cu8	Cu	1.906860	-0.019609	0.188047
Cu9	Cu	1.868144	0.004996	-0.187995
O10	O	1.891448	0.114389	0.159019
C11	C	1.595429	0.019497	0.000023
C12	C	1.418072	0.029999	0.000021
C13	C	1.898798	-0.172915	0.000015
C14	C	1.895423	-0.272761	-0.000002
C15	C	1.735645	-0.674122	0.000033
C16	C	2.026680	-0.715759	0.000036
C17	C	2.029851	-0.621946	0.000024
C18	C	1.885917	-0.554217	0.000020
C19	C	1.738813	-0.580300	0.000028
C20	C	2.176955	-0.595857	0.000037
C21	C	2.180133	-0.502039	0.000027
C22	C	2.036196	-0.434307	0.000010
C23	C	1.889085	-0.460395	0.000015
C24	C	1.745151	-0.392666	0.000011
C25	C	1.598037	-0.418751	0.000002
C26	C	1.594876	-0.512568	0.000010
C27	C	2.039357	-0.340490	0.000002
C28	C	1.748318	-0.298844	0.000005
C29	C	2.179574	-0.034110	0.000025
C30	C	2.356930	-0.044611	0.000015
C31	C	1.876205	0.158302	0.000033
C32	C	1.879579	0.258149	0.000037
N33	N	1.934103	-0.036917	0.452535
N34	N	1.840913	0.022296	-0.452483
H35	H	1.440266	-0.116520	0.000002
H36	H	1.744333	0.083658	0.465873
O37	O	1.608365	-0.233122	-0.000256
C38	C	1.502131	-0.232590	-0.164968
H39	H	1.535559	-0.303035	-0.219873
H40	H	1.372712	-0.219177	-0.127939
H41	H	1.512217	-0.175131	-0.280281
H42	H	1.475103	-0.533816	0.000005
H43	H	2.030702	-0.098278	0.534189
O44	O	1.318435	0.115723	0.000102
C45	C	1.157588	0.107484	0.000041
H46	H	1.157389	0.033162	0.060238
H47	H	1.091606	0.158442	0.092353
H48	H	1.093704	0.124186	-0.152511
H49	H	2.159136	-0.319257	0.000022
H50	H	1.480848	-0.363595	0.000012
O51	O	1.592893	-0.699621	0.000112
C52	C	1.620942	-0.796944	0.000059
H53	H	1.751765	-0.831594	0.060260
H54	H	1.536304	-0.825339	0.092371
H55	H	1.597438	-0.812597	-0.152492
H56	H	2.294140	-0.651009	0.000058
O57	O	2.166566	-0.781447	-0.000215
C58	C	2.238886	-0.760434	-0.164929
H59	H	2.194162	-0.682806	-0.219840
H60	H	2.375930	-0.778698	-0.127898
H61	H	2.205047	-0.802807	-0.280236
O62	O	2.323036	-0.476728	-0.000318
C63	C	2.393846	-0.501575	-0.164973
H64	H	2.295976	-0.507656	-0.280069
H65	H	2.456246	-0.445709	-0.220266
H66	H	2.486572	-0.571449	-0.127732
