data_functionalizedCrystal
_audit_creation_method	'MofGen! by Chris Wilmer'
_symmetry_space_group_name_H-M	'P1'
_symmetry_Int_Tables_number	1
_symmetry_cell_setting	triclinic
loop_
_symmetry_equiv_pos_as_xyz
  x,y,z
_cell_length_a	23.532355
_cell_length_b	23.532357
_cell_length_c	22.010155
_cell_angle_alpha	89.998697
_cell_angle_beta	89.997414
_cell_angle_gamma	82.827896
loop_
_atom_site_label
_atom_site_type_symbol
_atom_site_fract_x
_atom_site_fract_y
_atom_site_fract_z
O1	O	0.755271	0.068988	-0.050450
O2	O	1.255271	0.568988	0.449550
O3	O	0.589401	0.079022	-0.050470
O4	O	1.089401	0.579022	0.449530
O5	O	0.677352	-0.008930	-0.050447
O6	O	1.177352	0.491070	0.449553
O7	O	0.667319	0.156940	-0.050473
O8	O	1.167319	0.656940	0.449527
O9	O	0.677336	-0.008916	0.050604
O10	O	1.177336	0.491084	0.550604
O11	O	0.589385	0.079035	0.050580
O12	O	1.089385	0.579035	0.550580
O13	O	0.755255	0.069001	0.050601
O14	O	1.255255	0.569001	0.550601
Cu15	Cu	0.672318	0.074019	0.059817
Cu16	Cu	1.172318	0.574019	0.559817
Cu17	Cu	0.672337	0.074004	-0.059687
Cu18	Cu	1.172337	0.574004	0.440313
O19	O	0.667303	0.156953	0.050577
O20	O	1.167303	0.656953	0.550577
C21	C	0.568177	0.078778	0.000053
C22	C	1.068177	0.578778	0.500053
C23	C	0.504958	0.078024	0.000045
C24	C	1.004958	0.578024	0.500045
C25	C	0.112936	0.073293	0.055154
C26	C	0.612936	0.573293	0.555154
C27	C	0.053537	0.072575	0.055157
C28	C	0.553537	0.572575	0.555157
O29	O	0.022811	0.072191	0.102002
O30	O	0.522811	0.572191	0.602002
N31	N	0.023837	0.072212	0.000074
N32	N	0.523837	0.572212	0.500074
C33	C	0.053541	0.072561	-0.055014
C34	C	0.553541	0.572561	0.444986
O35	O	0.022825	0.072186	-0.101866
O36	O	0.522825	0.572186	0.398134
C37	C	0.112940	0.073275	-0.055016
C38	C	0.612940	0.573275	0.444984
C39	C	0.142636	0.073643	0.000070
C40	C	0.642636	0.573643	0.500070
C41	C	0.142632	0.073661	0.110236
C42	C	0.642632	0.573661	0.610236
C43	C	0.202027	0.074379	0.110233
C44	C	0.702027	0.574379	0.610233
C45	C	0.231727	0.074730	0.055149
C46	C	0.731727	0.574730	0.555149
C47	C	0.202031	0.074362	0.000067
C48	C	0.702031	0.574362	0.500067
C49	C	0.142643	0.073619	-0.110104
C50	C	0.642643	0.573619	0.389896
C51	C	0.202045	0.074332	-0.110101
C52	C	0.702045	0.574332	0.389899
C53	C	0.231741	0.074701	-0.055015
C54	C	0.731741	0.574701	0.444985
C55	C	0.291125	0.075431	-0.055019
C56	C	0.791125	0.575431	0.444981
N57	N	0.320824	0.075794	0.000063
N58	N	0.820824	0.575794	0.500063
C59	C	0.291125	0.075443	0.055147
C60	C	0.791125	0.575443	0.555147
C61	C	-0.071200	0.071062	-0.055006
C62	C	0.428800	0.571062	0.444994
C63	C	-0.130599	0.070353	-0.055005
C64	C	0.369401	0.570353	0.444995
C65	C	-0.130598	0.070366	0.055166
C66	C	0.369402	0.570366	0.555166
C67	C	-0.071199	0.071079	0.055164
C68	C	0.428801	0.571079	0.555164
C69	C	-0.041501	0.071425	0.000076
C70	C	0.458499	0.571425	0.500076
C71	C	0.415859	0.076953	0.055137
C72	C	0.915859	0.576953	0.555137
C73	C	0.475259	0.077674	0.055130
C74	C	0.975259	0.577674	0.555130
C75	C	0.475254	0.077657	-0.055041
C76	C	0.975254	0.577657	0.444959
C77	C	0.415859	0.076939	-0.055034
C78	C	0.915859	0.576939	0.444966
C79	C	0.386163	0.076585	0.000060
C80	C	0.886163	0.576585	0.500060
O81	O	0.321889	0.075813	-0.101841
O82	O	0.821889	0.575813	0.398159
O83	O	0.321850	0.075811	0.101991
O84	O	0.821850	0.575811	0.601991
C85	C	0.677094	-0.030140	0.000080
C86	C	1.177094	0.469860	0.500080
C87	C	0.676339	-0.093358	0.000086
C88	C	1.176339	0.406642	0.500086
C89	C	0.671611	-0.485376	-0.055030
C90	C	1.171611	0.014624	0.444970
C91	C	0.670894	-0.544775	-0.055034
C92	C	1.170894	-0.044775	0.444966
O93	O	0.670511	-0.575497	-0.101879
O94	O	1.170511	-0.075497	0.398121
N95	N	0.670529	-0.574479	0.000048
N96	N	1.170529	-0.074479	0.500048
C97	C	0.670876	-0.544780	0.055137
C98	C	1.170876	-0.044780	0.555137
O99	O	0.670500	-0.575499	0.101988
O100	O	1.170500	-0.075499	0.601988
C101	C	0.671589	-0.485381	0.055140
C102	C	1.171589	0.014619	0.555140
C103	C	0.671960	-0.455681	0.000055
C104	C	1.171960	0.044319	0.500055
C105	C	0.671980	-0.455675	-0.110111
C106	C	1.171980	0.044325	0.389889
C107	C	0.672699	-0.396280	-0.110107
C108	C	1.172699	0.103720	0.389893
C109	C	0.673047	-0.366585	-0.055023
C110	C	1.173047	0.133415	0.444977
C111	C	0.672678	-0.396286	0.000058
C112	C	1.172678	0.103714	0.500058
C113	C	0.671932	-0.455682	0.110228
C114	C	1.171932	0.044318	0.610228
C115	C	0.672645	-0.396279	0.110226
C116	C	1.172645	0.103721	0.610226
C117	C	0.673015	-0.366579	0.055141
C118	C	1.173015	0.133421	0.555141
C119	C	0.673745	-0.307196	0.055147
C120	C	1.173745	0.192804	0.555147
N121	N	0.674109	-0.277492	0.000065
N122	N	1.174109	0.222508	0.500065
C123	C	0.673761	-0.307187	-0.055020
C124	C	1.173761	0.192813	0.444980
C125	C	0.669378	-0.669521	0.055127
C126	C	1.169378	-0.169521	0.555127
C127	C	0.668669	-0.728919	0.055124
C128	C	1.168669	-0.228919	0.555124
C129	C	0.668685	-0.728910	-0.055046
C130	C	1.168685	-0.228910	0.444954
C131	C	0.669398	-0.669511	-0.055044
C132	C	1.169398	-0.169511	0.444956
C133	C	0.669742	-0.639817	0.000045
C134	C	1.169742	-0.139817	0.500045
C135	C	0.675269	-0.182453	-0.055008
C136	C	1.175269	0.317547	0.444992
C137	C	0.675990	-0.123053	-0.054999
C138	C	1.175990	0.376947	0.445001
C139	C	0.675971	-0.123067	0.055172
C140	C	1.175971	0.376933	0.555172
C141	C	0.675253	-0.182462	0.055163
C142	C	1.175253	0.317538	0.555163
C143	C	0.674901	-0.212153	0.000069
C144	C	1.174901	0.287847	0.500069
O145	O	0.674126	-0.276435	0.101968
O146	O	1.174126	0.223565	0.601968
O147	O	0.674129	-0.276459	-0.101863
O148	O	1.174129	0.223541	0.398137
C149	C	0.776479	0.069245	0.000077
C150	C	1.276479	0.569245	0.500077
C151	C	0.839698	0.069999	0.000080
C152	C	1.339698	0.569999	0.500080
C153	C	0.667562	0.178163	0.000049
C154	C	1.167562	0.678163	0.500049
C155	C	0.668317	0.241381	0.000039
C156	C	1.168317	0.741381	0.500039
N157	N	0.672309	0.074030	0.143870
N158	N	1.172309	0.574030	0.643870
N159	N	0.672351	0.073989	-0.143739
N160	N	1.172351	0.573989	0.356261
C161	C	0.711284	0.035064	0.563659
C162	C	1.211284	0.535064	1.063659
C163	C	0.711287	0.035060	0.627267
C164	C	1.211287	0.535060	1.127267
O165	O	0.744402	0.001938	0.660167
O166	O	1.244402	0.501938	1.160167
N167	N	0.672337	0.073992	0.659077
N168	N	1.172337	0.573992	1.159077
C169	C	0.633378	0.112926	0.627276
C170	C	1.133378	0.612926	1.127276
O171	O	0.600248	0.146040	0.660173
O172	O	1.100248	0.646040	1.160173
C173	C	0.633373	0.112927	0.563669
C174	C	1.133373	0.612927	1.063669
C175	C	0.672329	0.073997	0.531863
C176	C	1.172329	0.573997	1.031863
C177	C	0.750237	-0.003863	0.531853
C178	C	1.250237	0.496137	1.031853
C179	C	0.750235	-0.003858	0.468249
C180	C	1.250235	0.496142	0.968249
C181	C	0.711280	0.035074	0.436453
C182	C	1.211280	0.535074	0.936453
C183	C	0.672327	0.074001	0.468259
C184	C	1.172327	0.574001	0.968259
C185	C	0.594412	0.151858	0.531869
C186	C	1.094412	0.651858	1.031869
C187	C	0.594410	0.151855	0.468258
C188	C	1.094410	0.651855	0.968258
C189	C	0.633366	0.112925	0.436452
C190	C	1.133366	0.612925	0.936452
C191	C	0.633370	0.112938	0.372860
C192	C	1.133370	0.612938	0.872860
N193	N	0.672320	0.074007	0.341050
N194	N	1.172320	0.574007	0.841050
C195	C	0.711275	0.035075	0.372846
C196	C	1.211275	0.535075	0.872846
C197	C	0.633391	0.112921	0.760853
C198	C	1.133391	0.612921	1.260853
C199	C	0.633398	0.112923	0.824459
C200	C	1.133398	0.612923	1.324459
C201	C	0.711306	0.035057	0.824446
C202	C	1.211306	0.535057	1.324446
C203	C	0.711301	0.035057	0.760839
C204	C	1.211301	0.535057	1.260839
C205	C	0.672341	0.073989	0.729044
C206	C	1.172341	0.573989	1.229044
C207	C	0.711268	0.035088	0.239275
C208	C	1.211268	0.535088	0.739275
C209	C	0.711264	0.035098	0.175666
C210	C	1.211264	0.535098	0.675666
C211	C	0.633354	0.112962	0.175685
C212	C	1.133354	0.612962	0.675685
C213	C	0.633360	0.112955	0.239288
C214	C	1.133360	0.612955	0.739288
C215	C	0.672319	0.074013	0.271082
C216	C	1.172319	0.574013	0.771082
O217	O	0.600271	0.146043	0.339919
O218	O	1.100271	0.646043	0.839919
O219	O	0.744395	0.001962	0.339941
O220	O	1.244395	0.501962	0.839941
H221	H	-0.047025	0.071380	0.100020
H222	H	0.452975	0.571380	0.600020
H223	H	0.562682	0.183558	0.442374
H224	H	1.062682	0.683558	0.942374
Br225	Br	0.673111	-0.355983	0.184994
Br226	Br	1.173111	0.144017	0.684994
Br227	Br	0.669848	-0.629228	0.129897
Br228	Br	1.169848	-0.129228	0.629897
H229	H	0.668399	-0.753098	-0.099900
H230	H	1.168399	-0.253098	0.400100
H231	H	0.743023	0.003357	0.734946
H232	H	1.243023	0.503357	1.234946
H233	H	0.671632	-0.479854	0.155085
H234	H	1.171632	0.020146	0.655085
H235	H	0.562690	0.183558	0.557757
H236	H	1.062690	0.683558	1.057757
H237	H	0.676293	-0.098874	-0.099858
H238	H	1.176293	0.401126	0.400142
H239	H	0.674957	-0.206645	0.100018
H240	H	1.174957	0.293355	0.600018
H241	H	0.601682	0.144630	0.850351
H242	H	1.101682	0.644630	1.350351
H243	H	0.499435	0.077976	0.099989
H244	H	0.999435	0.577976	0.599989
H245	H	0.743025	0.003355	0.850346
H246	H	1.243025	0.503355	1.350346
Br247	Br	0.102356	0.073118	-0.184868
Br248	Br	0.602356	0.573118	0.315132
H249	H	0.668376	-0.753097	0.099980
H250	H	1.168376	-0.253097	0.599980
Br251	Br	0.803103	-0.056697	0.425090
Br252	Br	1.303103	0.443303	0.925090
H253	H	0.669699	-0.645333	-0.099899
H254	H	1.169699	-0.145333	0.400101
Br255	Br	0.676446	-0.082755	0.129926
Br256	Br	1.176446	0.417245	0.629926
Br257	Br	0.764139	-0.017737	0.132503
Br258	Br	1.264139	0.482263	0.632503
H259	H	0.601643	0.144661	0.265186
H260	H	1.101643	0.644661	0.765186
Br261	Br	0.674791	-0.222739	-0.129779
Br262	Br	1.174791	0.277261	0.370221
Br263	Br	0.764142	-0.017763	0.282413
Br264	Br	1.264142	0.482237	0.782413
H265	H	0.226223	0.074614	-0.154961
H266	H	0.726223	0.574614	0.345039
Br267	Br	0.803111	-0.056708	0.574994
Br268	Br	1.303111	0.443292	1.074994
Br269	Br	0.580490	0.165799	0.132522
Br270	Br	1.080490	0.665799	0.632522
Br271	Br	0.102338	0.073188	0.185003
Br272	Br	0.602338	0.573188	0.685003
Br273	Br	0.580514	0.165766	0.717708
Br274	Br	1.080514	0.665766	1.217708
Br275	Br	0.375554	0.076451	-0.129793
Br276	Br	0.875554	0.576451	0.370207
Br277	Br	-0.170915	0.069890	0.129924
Br278	Br	0.329085	0.569890	0.629924
H279	H	0.391687	0.076669	0.100000
H280	H	0.891687	0.576669	0.600000
Br281	Br	-0.030902	0.071536	-0.129776
Br282	Br	0.469098	0.571536	0.370224
H283	H	0.226201	0.074676	0.155090
H284	H	0.726201	0.574676	0.655090
H285	H	-0.154773	0.070062	-0.099861
H286	H	0.345227	0.570062	0.400139
H287	H	0.499445	0.077945	-0.099889
H288	H	0.999445	0.577945	0.400111
H289	H	0.671694	-0.479846	-0.154970
H290	H	1.171694	0.020154	0.345030
Br291	Br	0.673197	-0.355982	-0.184870
Br292	Br	1.173197	0.144018	0.315130
