data_functionalizedCrystal
_audit_creation_method	'MofGen! by Chris Wilmer'
_symmetry_space_group_name_H-M	'P1'
_symmetry_Int_Tables_number	1
_symmetry_cell_setting	triclinic
loop_
_symmetry_equiv_pos_as_xyz
  x,y,z
_cell_length_a	15.298068
_cell_length_b	29.839131
_cell_length_c	15.298259
_cell_angle_alpha	80.273620
_cell_angle_beta	91.587309
_cell_angle_gamma	99.692747
loop_
_atom_site_label
_atom_site_type_symbol
_atom_site_fract_x
_atom_site_fract_y
_atom_site_fract_z
Zn1	Zn	1.253481	-0.008246	-0.727432
Zn2	Zn	1.278690	-0.093840	-0.580907
Zn3	Zn	1.132326	-0.033507	-0.555569
Zn4	Zn	1.106935	-0.098161	-0.701940
O5	O	1.192858	-0.058439	-0.641462
O6	O	1.379408	-0.007220	-0.729267
O7	O	1.280451	-0.094600	-0.454968
O8	O	1.148474	0.032723	-0.578432
O9	O	1.397929	-0.070106	-0.621616
O10	O	1.237485	0.051282	-0.704699
O11	O	1.172918	-0.050274	-0.436352
O12	O	1.006375	-0.054464	-0.553714
O13	O	1.105198	-0.077470	-0.827900
O14	O	0.987720	-0.101965	-0.661251
O15	O	1.212864	-0.011410	-0.846629
O16	O	1.255830	-0.157293	-0.596897
O17	O	1.129643	-0.160467	-0.685820
C18	C	0.965263	-0.081425	-0.601967
C19	C	0.867893	-0.091268	-0.585092
C20	C	0.554792	0.011797	-0.762074
C21	C	0.646275	0.021044	-0.777934
C22	C	0.701684	-0.007033	-0.729725
C23	C	0.665601	-0.044359	-0.665653
C24	C	0.574108	-0.053609	-0.649796
C25	C	0.721000	-0.072439	-0.617447
C26	C	0.684917	-0.109765	-0.553375
C27	C	0.593433	-0.119013	-0.537521
C28	C	0.538024	-0.090936	-0.585730
C29	C	0.812493	-0.063189	-0.633304
C30	C	0.831809	-0.128595	-0.521026
C31	C	0.740326	-0.137842	-0.505166
C32	C	1.192737	-0.175180	-0.641365
C33	C	1.192761	-0.225112	-0.641367
C34	C	1.239180	-0.525036	-0.707287
C35	C	1.239266	-0.712696	-0.707356
O36	O	1.278612	-0.728713	-0.763326
N37	N	1.192990	-0.745859	-0.641585
C38	C	1.146684	-0.732105	-0.575796
O39	O	1.107318	-0.764618	-0.519860
C40	C	1.146594	-0.544446	-0.575731
C41	C	1.192880	-0.511285	-0.641501
C42	C	1.285462	-0.491875	-0.773052
C43	C	1.285444	-0.444963	-0.773031
C44	C	1.239144	-0.431212	-0.707245
C45	C	1.192862	-0.464372	-0.641480
C46	C	1.100283	-0.530693	-0.509946
C47	C	1.100263	-0.483775	-0.509937
C48	C	1.146549	-0.450613	-0.575707
C49	C	1.146544	-0.403709	-0.575673
N50	N	1.192820	-0.370546	-0.641444
C51	C	1.239120	-0.384297	-0.707230
C52	C	1.146736	-0.830628	-0.575833
C53	C	1.146760	-0.877542	-0.575848
C54	C	1.239341	-0.858130	-0.707410
C55	C	1.239322	-0.811214	-0.707390
C56	C	1.193013	-0.797465	-0.641604
C57	C	1.239080	-0.285779	-0.707181
C58	C	1.239061	-0.238864	-0.707153
C59	C	1.146476	-0.258280	-0.575594
C60	C	1.146499	-0.305192	-0.575620
C61	C	1.192802	-0.318939	-0.641421
O62	O	1.107210	-0.387658	-0.519738
O63	O	1.278465	-0.351777	-0.763169
C64	C	1.239198	-0.571948	-0.707308
C65	C	1.192916	-0.605109	-0.641542
C66	C	1.146616	-0.591357	-0.575756
C67	C	1.192940	-0.652023	-0.641557
C68	C	1.239240	-0.665775	-0.707343
C69	C	1.285516	-0.632611	-0.773114
C70	C	1.285498	-0.585699	-0.773094
C71	C	1.100340	-0.624521	-0.509985
C72	C	1.100362	-0.671432	-0.510011
C73	C	1.146663	-0.685183	-0.575797
C74	C	1.421342	-0.035363	-0.681111
C75	C	1.518708	-0.025530	-0.698008
C76	C	1.153387	-0.042104	-0.869936
C77	C	1.136567	-0.035143	-0.967298
C78	C	1.193000	0.058762	-0.641583
C79	C	1.193060	0.108706	-0.641634
C80	C	1.313103	-0.107839	-1.280506
C81	C	1.328902	-0.114383	-1.189029
C82	C	1.280820	-0.094573	-1.133592
C83	C	1.216936	-0.068220	-1.169640
C84	C	1.201130	-0.061679	-1.261126
C85	C	1.168847	-0.048413	-1.114211
C86	C	1.104963	-0.022059	-1.150260
C87	C	1.089161	-0.015519	-1.241737
C88	C	1.137243	-0.035328	-1.297174
C89	C	1.184652	-0.054954	-1.022726
C90	C	1.072679	-0.008793	-1.003346
C91	C	1.056880	-0.002250	-1.094823
C92	C	1.232226	-0.074672	-0.413886
C93	C	1.249216	-0.081489	-0.316554
H94	H	1.276756	-0.211863	-0.760711
H95	H	1.293687	-0.099903	-1.059107
F96	F	1.021494	0.012285	-0.944349
F97	F	1.288362	-0.300403	-0.777214
F98	F	0.850885	-0.023465	-0.701491
H99	H	0.509670	0.034651	-0.801324
H100	H	1.352239	-0.123969	-1.325649
H101	H	0.776174	0.000500	-0.742639
F102	F	1.334703	-0.409675	-0.843038
F103	F	1.120434	-0.028364	-1.394537
H104	H	0.564056	-0.149409	-0.485356
H105	H	0.675647	0.051434	-0.830104
H106	H	1.062592	-0.557686	-0.456388
F107	F	1.288618	-0.872773	-0.777424
H108	H	0.463529	-0.098465	-0.572826
H109	H	1.277012	-0.784216	-0.760946
F110	F	0.701912	-0.177565	-0.436978
F111	F	1.097204	-0.243636	-0.505583
H112	H	0.876922	-0.151459	-0.481774
F113	F	1.021140	0.012511	-1.280095
H114	H	1.236673	-0.076408	-0.993385
H115	H	1.323164	-0.503065	-0.826628
H116	H	1.062549	-0.472583	-0.456366
F117	F	1.097509	-0.912831	-0.505838
F118	F	0.988891	0.025797	-1.133200
H119	H	1.109025	-0.819437	-0.522260
H120	H	1.380909	-0.135845	-1.159683
H121	H	1.108817	-0.332193	-0.522059
F122	F	1.334796	-0.647255	-0.843126
F123	F	1.334762	-0.550411	-0.843097
F124	F	1.051053	-0.609893	-0.439966
F125	F	1.051099	-0.706721	-0.440001
