data_functionalizedCrystal
_audit_creation_method	'MofGen! by Chris Wilmer'
_symmetry_space_group_name_H-M	'P1'
_symmetry_Int_Tables_number	1
_symmetry_cell_setting	triclinic
loop_
_symmetry_equiv_pos_as_xyz
  x,y,z
_cell_length_a	19.805407
_cell_length_b	21.295417
_cell_length_c	19.805399
_cell_angle_alpha	90.030843
_cell_angle_beta	90.019573
_cell_angle_gamma	90.030507
loop_
_atom_site_label
_atom_site_type_symbol
_atom_site_fract_x
_atom_site_fract_y
_atom_site_fract_z
Zn1	Zn	1.034716	-0.250624	0.382704
Zn2	Zn	1.534716	0.249376	0.882704
Zn3	Zn	1.034623	-0.355893	0.269510
Zn4	Zn	1.534623	0.144107	0.769510
Zn5	Zn	0.921531	-0.250641	0.269529
Zn6	Zn	1.421531	0.249359	0.769529
Zn7	Zn	0.921486	-0.355859	0.382656
Zn8	Zn	1.421486	0.144141	0.882656
O9	O	0.978089	-0.303254	0.326100
O10	O	1.478089	0.196746	0.826100
O11	O	1.129421	-0.264595	0.367701
O12	O	1.629421	0.235405	0.867701
O13	O	1.019601	-0.341952	0.174796
O14	O	1.519601	0.158048	0.674796
O15	O	0.936603	-0.162549	0.284570
O16	O	1.436603	0.337451	0.784570
O17	O	1.129352	-0.341935	0.284537
O18	O	1.629352	0.158065	0.784537
O19	O	1.019760	-0.162537	0.367719
O20	O	1.519760	0.337463	0.867719
O21	O	0.936513	-0.264624	0.174810
O22	O	1.436513	0.235376	0.674810
O23	O	0.826809	-0.264592	0.284523
O24	O	1.326809	0.235408	0.784523
O25	O	0.936527	-0.341878	0.477379
O26	O	1.436527	0.158122	0.977379
O27	O	0.826776	-0.341895	0.367638
O28	O	1.326776	0.158105	0.867638
O29	O	1.019717	-0.264562	0.477415
O30	O	1.519717	0.235438	0.977415
O31	O	1.019558	-0.443977	0.284491
O32	O	1.519558	0.056023	0.784491
O33	O	0.936437	-0.443953	0.367619
O34	O	1.436437	0.056047	0.867619
C35	C	0.802233	-0.303242	0.326078
C36	C	1.302233	0.196758	0.826078
C37	C	0.727001	-0.303252	0.326085
C38	C	1.227001	0.196748	0.826085
C39	C	0.978001	-0.466806	0.326062
C40	C	1.478001	0.033194	0.826062
C41	C	0.978024	-0.536774	0.326069
C42	C	1.478024	-0.036774	0.826069
C43	C	0.691658	-0.343564	0.369292
C44	C	1.191658	0.156436	0.869292
C45	C	0.620969	-0.343566	0.369302
C46	C	1.120969	0.156434	0.869302
C47	C	0.585626	-0.303257	0.326100
C48	C	1.085626	0.196743	0.826100
C49	C	0.620974	-0.262940	0.282890
C50	C	1.120974	0.237060	0.782890
C51	C	0.691661	-0.262936	0.282885
C52	C	1.191661	0.237064	0.782885
C53	C	0.335901	-0.262954	0.282913
C54	C	0.835901	0.237046	0.782913
C55	C	0.265209	-0.262962	0.282920
C56	C	0.765209	0.237038	0.782920
C57	C	0.265209	-0.343583	0.369330
C58	C	0.765209	0.156417	0.869330
C59	C	0.335896	-0.343579	0.369324
C60	C	0.835896	0.156421	0.869324
C61	C	0.371238	-0.303261	0.326117
C62	C	0.871238	0.196739	0.826117
C63	C	0.447887	-0.303259	0.326109
C64	C	0.947887	0.196741	0.826109
C65	C	0.508979	-0.303261	0.326105
C66	C	1.008979	0.196739	0.826105
C67	C	1.021344	-0.569632	0.282828
C68	C	1.521344	-0.069632	0.782828
C69	C	1.021376	-0.635375	0.282844
C70	C	1.521376	-0.135375	0.782844
C71	C	0.978076	-0.668256	0.326092
C72	C	1.478076	-0.168256	0.826092
C73	C	0.934753	-0.635390	0.369341
C74	C	1.434753	-0.135390	0.869341
C75	C	0.934728	-0.569649	0.369330
C76	C	1.434728	-0.069649	0.869330
N77	N	0.918865	-0.771522	0.331245
N78	N	1.418865	-0.271522	0.831245
N79	N	0.918892	-0.833974	0.331252
N80	N	1.418892	-0.333974	0.831252
C81	C	0.978152	-0.866331	0.326131
C82	C	1.478152	-0.366331	0.826131
N83	N	1.037386	-0.833878	0.320989
N84	N	1.537386	-0.333878	0.820989
N85	N	1.037358	-0.771421	0.320979
N86	N	1.537358	-0.271421	0.820979
C87	C	0.978099	-0.739542	0.326110
C88	C	1.478099	-0.239542	0.826110
C89	C	1.021509	-0.970475	0.282905
C90	C	1.521509	-0.470475	0.782905
C91	C	1.021542	-1.036219	0.282925
C92	C	1.521542	-0.536219	0.782925
C93	C	0.934914	-1.036233	0.369419
C94	C	1.434914	-0.536233	0.869419
C95	C	0.934887	-0.970490	0.369402
C96	C	1.434887	-0.470490	0.869402
C97	C	0.978184	-0.937615	0.326142
C98	C	1.478184	-0.437615	0.826142
C99	C	1.154632	-0.303267	0.326122
C100	C	1.654632	0.196733	0.826122
C101	C	1.229864	-0.303272	0.326132
C102	C	1.729864	0.196728	0.826132
C103	C	0.978127	-0.303214	0.502643
C104	C	1.478127	0.196786	1.002643
C105	C	0.978143	-0.303198	0.577875
C106	C	1.478143	0.196802	1.077875
C107	C	0.978197	-0.139064	0.326152
C108	C	1.478197	0.360936	0.826152
C109	C	0.978243	-0.069096	0.326175
C110	C	1.478243	0.430904	0.826175
C111	C	0.978090	-0.303248	0.150244
C112	C	1.478090	0.196752	0.650244
C113	C	0.978205	-0.303088	0.075012
C114	C	1.478205	0.196912	0.575012
C115	C	1.021461	-0.262937	0.613238
C116	C	1.521461	0.237063	1.113238
C117	C	1.021468	-0.262919	0.683927
C118	C	1.521468	0.237081	1.183927
C119	C	0.978160	-0.303165	0.719250
C120	C	1.478160	0.196835	1.219250
C121	C	0.934838	-0.343427	0.683882
C122	C	1.434838	0.156573	1.183882
C123	C	0.934828	-0.343442	0.613195
C124	C	1.434828	0.156558	1.113195
C125	C	0.934876	-0.343368	0.968955
C126	C	1.434876	0.156632	1.468955
C127	C	0.934891	-0.343352	1.039647
C128	C	1.434891	0.156648	1.539647
C129	C	1.021516	-0.262846	1.039687
C130	C	1.521516	0.237154	1.539687
C131	C	1.021506	-0.262860	0.969000
C132	C	1.521506	0.237140	1.469000
C133	C	0.978182	-0.303120	0.933638
C134	C	1.478182	0.196880	1.433638
C135	C	0.978174	-0.303138	0.856989
C136	C	1.478174	0.196862	1.356989
C137	C	0.978171	-0.303150	0.795897
C138	C	1.478171	0.196850	1.295897
H139	H	0.720429	-0.376391	0.404470
H140	H	1.220429	0.123609	0.904470
C141	C	1.060150	-1.136987	0.244642
C142	C	1.560150	-0.636987	0.744642
C143	C	1.069234	-1.072340	0.235462
C144	C	1.569234	-0.572340	0.735462
H145	H	1.089617	-1.159286	0.215362
H146	H	1.589617	-0.659286	0.715362
H147	H	1.014712	-1.147838	0.234632
H148	H	1.514712	-0.647838	0.734632
H149	H	1.069973	-1.147680	0.290155
H150	H	1.569973	-0.647680	0.790155
H151	H	1.059406	-1.061647	0.189949
H152	H	1.559406	-0.561647	0.689949
H153	H	1.114682	-1.061485	0.245467
H154	H	1.614682	-0.561485	0.745467
H155	H	0.899451	-0.542895	0.404542
H156	H	1.399451	-0.042895	0.904542
H157	H	0.236425	-0.376411	0.404513
H158	H	0.736425	0.123589	0.904513
C159	C	0.925396	-0.896510	0.460425
C160	C	1.425396	-0.396510	0.960425
C161	C	0.887262	-0.934369	0.416930
C162	C	1.387262	-0.434369	0.916930
H163	H	0.895992	-0.874215	0.489771
H164	H	1.395992	-0.374215	0.989771
H165	H	0.951172	-0.867522	0.434665
H166	H	1.451172	-0.367522	0.934665
H167	H	0.954878	-0.922122	0.486346
H168	H	1.454878	-0.422122	0.986346
H169	H	0.857782	-0.908757	0.391006
H170	H	1.357782	-0.408757	0.891006
H171	H	0.861474	-0.963360	0.442693
H172	H	1.361474	-0.463360	0.942693
H173	H	0.899661	-1.063004	0.404636
H174	H	1.399661	-0.563004	0.904636
C175	C	1.107085	-0.183352	0.620385
C176	C	1.607085	0.316648	1.120385
C177	C	1.069066	-0.218695	0.574414
C178	C	1.569066	0.281305	1.074414
H179	H	1.136471	-0.156034	0.596417
H180	H	1.636471	0.343966	1.096417
H181	H	1.132961	-0.210774	0.647949
H182	H	1.632961	0.289226	1.147949
H183	H	1.077606	-0.159268	0.647960
H184	H	1.577606	0.340732	1.147960
H185	H	1.098545	-0.242783	0.546842
H186	H	1.598545	0.257217	1.046842
H187	H	1.043188	-0.191270	0.546838
H188	H	1.543188	0.308730	1.046838
C189	C	1.107141	-0.977062	0.197412
C190	C	1.607141	-0.477062	0.697412
C191	C	1.069104	-0.934334	0.235358
C192	C	1.569104	-0.434334	0.735358
H193	H	1.136526	-0.954750	0.168062
H194	H	1.636526	-0.454750	0.668062
H195	H	1.077678	-1.002747	0.171502
H196	H	1.577678	-0.502747	0.671502
H197	H	1.133025	-1.002661	0.226940
H198	H	1.633025	-0.502661	0.726940
H199	H	1.043217	-0.908738	0.205831
H200	H	1.543217	-0.408738	0.705831
H201	H	1.098571	-0.908639	0.261270
H202	H	1.598571	-0.408639	0.761270
C203	C	1.112437	-0.709261	0.273505
C204	C	1.612437	-0.209261	0.773505
C205	C	1.068977	-0.671511	0.235298
C206	C	1.568977	-0.171511	0.735298
H207	H	1.141820	-0.731567	0.244148
H208	H	1.641820	-0.231567	0.744148
H209	H	1.086654	-0.738239	0.299270
H210	H	1.586654	-0.238239	0.799270
H211	H	1.138320	-0.683574	0.303000
H212	H	1.638320	-0.183574	0.803000
H213	H	1.043091	-0.697199	0.205806
H214	H	1.543091	-0.197199	0.705806
H215	H	1.094763	-0.642529	0.209521
H216	H	1.594763	-0.142529	0.709521
H217	H	1.056601	-0.542868	0.247605
H218	H	1.556601	-0.042868	0.747605
C219	C	1.030933	-0.178215	0.763431
C220	C	1.530933	0.321785	1.263431
C221	C	1.069081	-0.218655	0.722792
C222	C	1.569081	0.281345	1.222792
H223	H	1.060328	-0.150882	0.787418
H224	H	1.560328	0.349118	1.287418
H225	H	1.005153	-0.202179	0.794586
H226	H	1.505153	0.297821	1.294586
H227	H	1.001454	-0.154151	0.735844
H228	H	1.501454	0.345849	1.235844
H229	H	1.098557	-0.242723	0.750379
H230	H	1.598557	0.257277	1.250379
H231	H	1.094873	-0.194689	0.691632
H232	H	1.594873	0.305311	1.191632
C233	C	0.415351	-0.254087	0.191876
C234	C	0.915351	0.245913	0.691876
C235	C	0.374741	-0.218640	0.235415
C236	C	0.874741	0.281360	0.735415
H237	H	0.439333	-0.226726	0.162555
H238	H	0.939333	0.273274	0.662555
H239	H	0.387751	-0.281480	0.165938
H240	H	0.887751	0.218520	0.665938
H241	H	0.446519	-0.278085	0.217611
H242	H	0.946519	0.221915	0.717611
H243	H	0.343570	-0.194645	0.209680
H244	H	0.843570	0.305355	0.709680
H245	H	0.402343	-0.191235	0.261356
H246	H	0.902343	0.308765	0.761356
H247	H	0.236434	-0.230134	0.247740
H248	H	0.736434	0.269866	0.747740
C249	C	0.512617	-0.227146	0.244530
C250	C	1.012617	0.272854	0.744530
C251	C	0.582126	-0.218629	0.235404
C252	C	1.082126	0.281371	0.735404
H253	H	0.488636	-0.199792	0.215210
H254	H	0.988636	0.300208	0.715210
H255	H	0.501061	-0.217991	0.290022
H256	H	1.001061	0.282009	0.790022
H257	H	0.501014	-0.269431	0.234537
H258	H	1.001014	0.230569	0.734537
H259	H	0.593730	-0.176345	0.245402
H260	H	1.093730	0.323655	0.745402
H261	H	0.593687	-0.227780	0.189902
H262	H	1.093687	0.272220	0.689902
H263	H	0.720437	-0.230107	0.247704
H264	H	1.220437	0.269893	0.747704
H265	H	0.899499	-0.662166	0.404556
H266	H	1.399499	-0.162166	0.904556
C267	C	1.107131	-0.183273	0.976142
C268	C	1.607131	0.316727	1.476142
C269	C	1.069109	-0.218619	0.930173
C270	C	1.569109	0.281381	1.430173
H271	H	1.136514	-0.155956	0.952171
H272	H	1.636514	0.344044	1.452171
H273	H	1.133008	-0.210694	1.003705
H274	H	1.633008	0.289306	1.503705
H275	H	1.077652	-0.159189	1.003717
H276	H	1.577652	0.340811	1.503717
H277	H	1.098587	-0.242706	0.902601
H278	H	1.598587	0.257294	1.402601
H279	H	1.043229	-0.191194	0.902598
H280	H	1.543229	0.308806	1.402598
H281	H	1.056791	-0.230062	1.068488
H282	H	1.556791	0.269938	1.568488
C283	C	0.849244	-0.422926	1.032511
C284	C	1.349244	0.077074	1.532511
C285	C	0.887277	-0.387588	1.078477
C286	C	1.387277	0.112412	1.578477
H287	H	0.819850	-0.450231	1.056485
H288	H	1.319850	0.049769	1.556485
H289	H	0.878709	-0.447016	1.004939
H290	H	1.378709	0.052984	1.504939
H291	H	0.823371	-0.395495	1.004944
H292	H	1.323371	0.104505	1.504944
H293	H	0.913155	-0.415020	1.106041
H294	H	1.413155	0.084980	1.606041
H295	H	0.857809	-0.363496	1.106061
H296	H	1.357809	0.136504	1.606061
C297	C	0.925386	-0.428064	0.889443
C298	C	1.425386	0.071936	1.389443
C299	C	0.887253	-0.387625	0.930097
C300	C	1.387253	0.112375	1.430097
H301	H	0.895982	-0.455385	0.865451
H302	H	1.395982	0.044615	1.365451
H303	H	0.954863	-0.452136	0.917014
H304	H	1.454863	0.047864	1.417014
H305	H	0.951168	-0.404094	0.858284
H306	H	1.451168	0.095906	1.358284
H307	H	0.861475	-0.411595	0.961260
H308	H	1.361475	0.088405	1.461260
H309	H	0.857765	-0.363551	0.902524
H310	H	1.357765	0.136449	1.402524
H311	H	0.899547	-0.376219	0.584402
H312	H	1.399547	0.123781	1.084402
C313	C	0.628070	-0.423276	0.454695
C314	C	1.128070	0.076724	0.954695
C315	C	0.582120	-0.387889	0.416786
C316	C	1.082120	0.112111	0.916786
H317	H	0.604084	-0.450644	0.484006
H318	H	1.104084	0.049356	0.984006
H319	H	0.655660	-0.395884	0.480645
H320	H	1.155660	0.104116	0.980645
H321	H	0.655620	-0.447306	0.425142
H322	H	1.155620	0.052694	0.925142
H323	H	0.554573	-0.363854	0.446339
H324	H	1.054573	0.136146	0.946339
H325	H	0.554517	-0.415284	0.390834
H326	H	1.054517	0.084716	0.890834
C327	C	0.328794	-0.423268	0.454746
C328	C	0.828794	0.076732	0.954746
C329	C	0.374745	-0.387886	0.416815
C330	C	0.874745	0.112114	0.916815
H331	H	0.352779	-0.450616	0.484069
H332	H	0.852779	0.049384	0.984069
H333	H	0.301202	-0.447314	0.425212
H334	H	0.801202	0.052686	0.925212
H335	H	0.301246	-0.395867	0.480690
H336	H	0.801246	0.104133	0.980690
H337	H	0.402290	-0.415286	0.390867
H338	H	0.902290	0.084714	0.890867
H339	H	0.402349	-0.363838	0.446353
H340	H	0.902349	0.136162	0.946353
C341	C	0.896390	-0.379155	0.792221
C342	C	1.396390	0.120845	1.292221
C343	C	0.887232	-0.387666	0.722708
C344	C	1.387232	0.112334	1.222708
H345	H	0.867003	-0.406472	0.816188
H346	H	1.367003	0.093528	1.316188
H347	H	0.886513	-0.336862	0.803815
H348	H	1.386513	0.163138	1.303815
H349	H	0.941865	-0.388371	0.803803
H350	H	1.441865	0.111629	1.303803
H351	H	0.841758	-0.378446	0.711125
H352	H	1.341758	0.121554	1.211125
H353	H	0.897105	-0.429969	0.711109
H354	H	1.397105	0.070031	1.211109
