data_functionalizedCrystal
_audit_creation_method	'MofGen! by Chris Wilmer'
_symmetry_space_group_name_H-M	'P1'
_symmetry_Int_Tables_number	1
_symmetry_cell_setting	triclinic
loop_
_symmetry_equiv_pos_as_xyz
  x,y,z
_cell_length_a	12.759401
_cell_length_b	13.032721
_cell_length_c	12.759393
_cell_angle_alpha	97.149226
_cell_angle_beta	89.979062
_cell_angle_gamma	97.205831
loop_
_atom_site_label
_atom_site_type_symbol
_atom_site_fract_x
_atom_site_fract_y
_atom_site_fract_z
Zn1	Zn	1.553113	-0.415945	-0.647098
Zn2	Zn	1.530669	-0.590725	-0.493722
Zn3	Zn	1.377404	-0.416001	-0.471441
Zn4	Zn	1.355078	-0.590652	-0.669350
O5	O	1.454066	-0.503331	-0.570403
O6	O	1.697156	-0.439137	-0.626765
O7	O	1.510289	-0.567601	-0.343752
O8	O	1.419449	-0.269756	-0.476105
O9	O	1.680666	-0.567547	-0.514080
O10	O	1.548541	-0.269715	-0.605160
O11	O	1.397686	-0.439232	-0.327382
O12	O	1.227423	-0.439161	-0.497681
O13	O	1.381397	-0.567423	-0.813412
O14	O	1.211019	-0.567477	-0.643084
O15	O	1.526892	-0.439067	-0.797064
O16	O	1.488640	-0.736953	-0.535656
O17	O	1.359634	-0.736899	-0.664689
C18	C	1.181100	-0.503318	-0.570380
C19	C	1.064321	-0.503338	-0.570399
C20	C	1.000932	-0.570253	-0.646017
C21	C	0.891208	-0.570257	-0.646038
C22	C	0.908271	-0.436427	-0.494813
C23	C	1.017994	-0.436419	-0.494797
C24	C	1.419307	-0.774844	-0.605028
C25	C	1.404533	-0.890999	-0.619876
C26	C	1.461832	-0.942776	-0.562700
C27	C	1.446564	-1.062828	-0.578045
C28	C	1.728097	-0.503344	-0.570426
C29	C	1.844873	-0.503350	-0.570436
C30	C	1.454157	-0.503230	-0.844423
C31	C	1.454196	-0.503188	-0.961194
C32	C	1.488989	-0.230757	-0.535665
C33	C	1.503872	-0.114602	-0.520862
C34	C	1.529962	-0.436342	-1.007544
C35	C	1.529986	-0.436297	-1.117263
C36	C	1.378473	-0.569952	-1.134273
C37	C	1.378446	-0.569991	-1.024556
C38	C	1.454045	-0.503355	-0.297438
C39	C	1.454247	-0.503104	-0.180630
H40	H	1.069608	-0.381922	-0.433219
C41	C	1.542149	-0.883328	-0.482143
C42	C	1.490590	-0.820787	-0.406799
C43	C	1.564543	-0.766022	-0.332563
H44	H	1.593322	-0.840594	-0.516828
H45	H	1.576105	-0.931346	-0.448193
H46	H	1.456651	-0.772775	-0.440745
H47	H	1.439423	-0.863496	-0.372087
H48	H	1.598499	-0.814039	-0.298613
H49	H	1.615711	-0.723293	-0.367258
H50	H	1.529569	-0.723588	-0.281428
H51	H	1.386205	-1.107373	-0.638364
C52	C	0.858172	-0.363670	-0.412673
C53	C	0.937177	-0.305046	-0.346464
C54	C	0.891070	-0.238003	-0.270789
H55	H	0.810249	-0.403479	-0.371820
H56	H	0.821239	-0.318132	-0.447112
H57	H	0.974093	-0.350578	-0.312027
H58	H	0.985105	-0.265215	-0.387287
H59	H	0.854137	-0.192465	-0.305228
H60	H	0.843148	-0.277820	-0.229943
H61	H	0.944668	-0.198212	-0.225863
H62	H	1.564240	-1.070058	-0.460551
C63	C	1.296359	-0.642445	-1.203252
C64	C	1.312615	-0.628127	-1.309262
C65	C	1.237000	-0.694902	-1.372835
H66	H	1.227673	-0.627218	-1.183447
H67	H	1.302740	-0.712690	-1.194284
H68	H	1.306225	-0.557898	-1.318226
H69	H	1.381286	-0.643361	-1.329100
H70	H	1.243381	-0.765146	-1.363867
H71	H	1.168319	-0.679669	-1.353020
H72	H	1.248026	-0.685203	-1.444770
C73	C	1.324064	-0.950577	-0.700207
C74	C	1.324894	-1.057807	-0.699432
C75	C	1.250770	-1.112719	-0.773411
H76	H	1.341580	-0.932800	-0.768598
H77	H	1.255693	-0.932877	-0.682511
H78	H	1.393250	-1.075500	-0.717135
H79	H	1.307367	-1.075615	-0.631059
H80	H	1.182398	-1.095019	-0.755715
H81	H	1.268292	-1.094934	-0.841797
H82	H	1.251316	-1.185480	-0.772888
C83	C	1.612299	-0.363978	-0.938715
C84	C	1.672063	-0.423169	-0.883295
C85	C	1.747928	-0.356539	-0.819891
H86	H	1.578053	-0.318440	-0.890018
H87	H	1.657483	-0.324175	-0.982004
H88	H	1.626885	-0.462954	-0.840009
H89	H	1.706332	-0.468705	-0.931965
H90	H	1.793112	-0.316736	-0.863180
H91	H	1.713673	-0.311004	-0.771201
H92	H	1.788493	-0.396690	-0.782289
H93	H	1.591680	-0.381863	-1.154995
H94	H	0.839601	-0.624745	-0.707616
C95	C	1.051039	-0.642936	-0.728224
C96	C	0.972038	-0.701516	-0.794470
C97	C	1.018154	-0.768471	-0.870224
H98	H	1.087992	-0.688513	-0.693886
H99	H	1.098948	-0.603032	-0.769028
H100	H	0.924147	-0.741417	-0.753671
H101	H	0.935078	-0.655967	-0.828832
H102	H	1.066063	-0.728567	-0.911028
H103	H	1.055106	-0.814041	-0.835877
H104	H	0.964560	-0.808219	-0.915187
C105	C	1.296290	-0.642748	-0.974302
C106	C	1.305940	-0.746139	-1.014145
C107	C	1.230288	-0.813184	-0.967864
H108	H	1.227608	-0.627582	-0.990293
H109	H	1.307123	-0.633269	-0.899883
H110	H	1.295099	-0.755612	-1.088547
H111	H	1.374606	-0.761337	-0.998156
H112	H	1.241121	-0.803706	-0.893445
H113	H	1.161611	-0.798009	-0.983858
H114	H	1.236831	-0.883343	-0.994883
