data_functionalizedCrystal
_audit_creation_method	'MofGen! by Chris Wilmer'
_symmetry_space_group_name_H-M	'P1'
_symmetry_Int_Tables_number	1
_symmetry_cell_setting	triclinic
loop_
_symmetry_equiv_pos_as_xyz
  x,y,z
_cell_length_a	13.897448
_cell_length_b	10.686220
_cell_length_c	13.897449
_cell_angle_alpha	85.635580
_cell_angle_beta	90.009266
_cell_angle_gamma	94.399460
loop_
_atom_site_label
_atom_site_type_symbol
_atom_site_fract_x
_atom_site_fract_y
_atom_site_fract_z
Zn1	Zn	-0.270883	1.928937	0.432426
Zn2	Zn	0.229117	2.428937	0.932426
Zn3	Zn	-0.432149	1.928860	0.271132
Zn4	Zn	0.067851	2.428860	0.771132
Zn5	Zn	-0.283257	1.717978	0.283498
Zn6	Zn	0.216743	2.217978	0.783498
Zn7	Zn	-0.444534	1.717892	0.444738
Zn8	Zn	0.055466	2.217892	0.944738
O9	O	-0.357706	1.823417	0.357949
O10	O	0.142294	2.323417	0.857949
O11	O	-0.281914	2.105504	0.400702
O12	O	0.218086	2.605504	0.900702
O13	O	-0.412394	1.900890	0.137791
O14	O	0.087606	2.400890	0.637791
O15	O	-0.146630	1.746030	0.303276
O16	O	0.353370	2.246030	0.803276
O17	O	-0.400395	2.105448	0.282200
O18	O	0.099605	2.605448	0.782200
O19	O	-0.137539	1.901021	0.412693
O20	O	0.362461	2.401021	0.912693
O21	O	-0.303003	1.745956	0.146876
O22	O	0.196997	2.245956	0.646876
O23	O	-0.315012	1.541389	0.315215
O24	O	0.184988	2.041389	0.815215
O25	O	-0.421504	1.745884	0.578087
O26	O	0.078496	2.245884	1.078087
O27	O	-0.433502	1.541326	0.433677
O28	O	0.066498	2.041326	0.933677
O29	O	-0.293923	1.900937	0.569041
O30	O	0.206077	2.400937	1.069041
O31	O	-0.568778	1.900807	0.294139
O32	O	-0.068778	2.400807	0.794139
O33	O	-0.577877	1.745810	0.421687
O34	O	-0.077877	2.245810	0.921687
C35	C	-0.376945	1.495573	0.377125
C36	C	0.123055	1.995573	0.877125
C37	C	-0.385198	1.355320	0.385351
C38	C	0.114802	1.855320	0.885351
C39	C	-0.608326	1.823325	0.357926
C40	C	-0.108326	2.323325	0.857926
C41	C	-0.715535	1.823401	0.357942
C42	C	-0.215535	2.323401	0.857942
C43	C	-0.911822	1.823533	0.357995
C44	C	-0.411822	2.323533	0.857995
C45	C	-0.802595	1.823456	0.357969
C46	C	-0.302595	2.323456	0.857969
C47	C	-0.106106	1.823544	0.357990
C48	C	0.393894	2.323544	0.857990
C49	C	0.001112	1.823598	0.358008
C50	C	0.501112	2.323598	0.858008
C51	C	-0.357715	1.823409	0.609542
C52	C	0.142285	2.323409	1.109542
C53	C	-0.357719	1.823406	0.716756
C54	C	0.142281	2.323406	1.216756
C55	C	-0.338393	2.152541	0.338699
C56	C	0.161607	2.652541	0.838699
C57	C	-0.330163	2.292793	0.330495
C58	C	0.169837	2.792793	0.830495
C59	C	-0.357722	1.823403	0.803826
C60	C	0.142278	2.323403	1.303826
C61	C	-0.357718	1.823402	0.913059
C62	C	0.142282	2.323402	1.413059
C63	C	-0.357718	1.823412	1.107335
C64	C	0.142282	2.323412	1.607335
C65	C	-0.357709	1.823408	1.000121
C66	C	0.142291	2.323408	1.500121
H67	H	-0.438640	1.301548	0.438607
H68	H	0.061360	1.801548	0.938607
H69	H	-0.276731	1.346559	0.277237
H70	H	0.223269	1.846559	0.777237
