data_functionalizedCrystal
_audit_creation_method	'MofGen! by Chris Wilmer'
_symmetry_space_group_name_H-M	'P1'
_symmetry_Int_Tables_number	1
_symmetry_cell_setting	triclinic
loop_
_symmetry_equiv_pos_as_xyz
  x,y,z
_cell_length_a	13.897449
_cell_length_b	13.033615
_cell_length_c	13.033429
_cell_angle_alpha	105.197869
_cell_angle_beta	82.838309
_cell_angle_gamma	97.186198
loop_
_atom_site_label
_atom_site_type_symbol
_atom_site_fract_x
_atom_site_fract_y
_atom_site_fract_z
Zn1	Zn	1.370042	-0.346479	0.546888
Zn2	Zn	1.870042	0.153521	1.046888
Zn3	Zn	1.369962	-0.546694	0.346728
Zn4	Zn	1.869962	-0.046694	0.846728
Zn5	Zn	1.226901	-0.369099	0.369286
Zn6	Zn	1.726901	0.130901	0.869286
Zn7	Zn	1.190574	-0.524059	0.524300
Zn8	Zn	1.690574	-0.024059	1.024300
O9	O	1.289370	-0.446583	0.446800
O10	O	1.789370	0.053417	0.946800
O11	O	1.505011	-0.373045	0.520348
O12	O	2.005011	0.126955	1.020348
O13	O	1.366154	-0.542074	0.201079
O14	O	1.866154	-0.042074	0.701079
O15	O	1.261126	-0.217456	0.411739
O16	O	1.761126	0.282544	0.911739
O17	O	1.504952	-0.520141	0.373292
O18	O	2.004952	-0.020141	0.873292
O19	O	1.366291	-0.200838	0.542222
O20	O	1.866291	0.299162	1.042222
O21	O	1.261048	-0.411596	0.217652
O22	O	1.761048	0.088404	0.717652
O23	O	1.087103	-0.389648	0.389836
O24	O	1.587103	0.110352	0.889836
O25	O	1.199212	-0.481564	0.675938
O26	O	1.699212	0.018436	1.175938
O27	O	1.060414	-0.503497	0.503725
O28	O	1.560414	-0.003497	1.003725
O29	O	1.331066	-0.351097	0.692533
O30	O	1.831066	0.148903	1.192533
O31	O	1.330929	-0.692333	0.351390
O32	O	1.830929	-0.192333	0.851390
O33	O	1.199133	-0.675703	0.481851
O34	O	1.699133	-0.175703	0.981851
C35	C	1.261104	-0.722556	0.411745
C36	C	1.761104	-0.222556	0.911745
C37	C	1.249097	-0.840615	0.396784
C38	C	1.749097	-0.340615	0.896784
C39	C	1.038759	-0.446572	0.446778
C40	C	1.538759	0.053428	0.946778
C41	C	0.931542	-0.446589	0.446790
C42	C	1.431542	0.053411	0.946790
C43	C	1.261096	-0.411283	0.723854
C44	C	1.761096	0.088717	1.223854
C45	C	1.249047	-0.396240	0.841918
C46	C	1.749047	0.103760	1.341918
C47	C	0.735244	-0.446589	0.446818
C48	C	1.235244	0.053411	0.946818
C49	C	0.844479	-0.446586	0.446800
C50	C	1.344479	0.053414	0.946800
C51	C	1.540959	-0.446595	0.446823
C52	C	2.040959	0.053405	0.946823
C53	C	1.648171	-0.446600	0.446833
C54	C	2.148171	0.053400	0.946833
C55	C	1.317770	-0.169528	0.482016
C56	C	1.817770	0.330472	0.982016
C57	C	1.329872	-0.051464	0.497023
C58	C	1.829872	0.448536	0.997023
C59	C	1.283234	-0.007050	0.439153
C60	C	1.783234	0.492950	0.939153
C61	C	1.295741	0.114975	0.454662
C62	C	1.795741	0.614975	0.954662
C63	C	1.317597	-0.481669	0.170834
C64	C	1.817597	0.018331	0.670834
C65	C	1.329863	-0.496413	0.052809
C66	C	1.829863	0.003587	0.552809
C67	C	1.283232	-0.438559	1.008374
C68	C	1.783232	0.061441	1.508374
C69	C	1.295685	-0.454101	0.886349
C70	C	1.795685	0.045899	1.386349
H71	H	1.234042	-0.059364	0.378130
H72	H	1.734042	0.440636	0.878130
Cl73	Cl	1.405745	-0.590646	0.972077
Cl74	Cl	1.905745	-0.090646	1.472077
Cl75	Cl	1.371684	0.195733	0.548895
Cl76	Cl	1.871684	0.695733	1.048895
H77	H	1.199898	0.107077	0.335759
H78	H	1.699898	0.607077	0.835759
H79	H	1.344836	-0.515138	0.834058
H80	H	1.844836	-0.015138	1.334058
H81	H	1.379056	0.000849	0.558053
H82	H	1.879056	0.500849	1.058053
Cl83	Cl	1.173173	-0.301989	0.922645
Cl84	Cl	1.673173	0.198011	1.422645
H85	H	1.234092	-0.377519	1.060670
H86	H	1.734092	0.122481	1.560670
