data_functionalizedCrystal
_audit_creation_method	'MofGen! by Chris Wilmer'
_symmetry_space_group_name_H-M	'P1'
_symmetry_Int_Tables_number	1
_symmetry_cell_setting	triclinic
loop_
_symmetry_equiv_pos_as_xyz
  x,y,z
_cell_length_a	11.169417
_cell_length_b	17.077402
_cell_length_c	11.169409
_cell_angle_alpha	90.037934
_cell_angle_beta	90.022388
_cell_angle_gamma	90.021105
loop_
_atom_site_label
_atom_site_type_symbol
_atom_site_fract_x
_atom_site_fract_y
_atom_site_fract_z
Zn1	Zn	-1.834866	0.312482	-0.678554
Zn2	Zn	-1.834709	0.443776	-0.477851
Zn3	Zn	-1.634150	0.312524	-0.477882
Zn4	Zn	-1.634116	0.443706	-0.678490
O5	O	-1.734460	0.378122	-0.578194
O6	O	-2.002795	0.329910	-0.651944
O7	O	-1.808053	0.426412	-0.309905
O8	O	-1.660855	0.202671	-0.504541
O9	O	-2.002680	0.426371	-0.504489
O10	O	-1.808321	0.202641	-0.651974
O11	O	-1.660703	0.329981	-0.309928
O12	O	-1.466196	0.329914	-0.504479
O13	O	-1.660798	0.426252	-0.846448
O14	O	-1.466171	0.426293	-0.651864
O15	O	-1.808288	0.329843	-0.846495
O16	O	-1.808020	0.553613	-0.504426
O17	O	-1.660645	0.553562	-0.651834
C18	C	-1.422636	0.378101	-0.578169
C19	C	-1.289236	0.378110	-0.578186
C20	C	-1.734345	0.582070	-0.578146
C21	C	-1.734405	0.669320	-0.578166
C22	C	-1.734557	0.378035	-0.891237
C23	C	-1.734598	0.377998	-1.024637
C24	C	-1.047503	0.378136	-0.578212
C25	C	-1.180903	0.378123	-0.578200
C26	C	-1.734609	0.173378	-0.578268
C27	C	-1.734673	0.086128	-0.578300
C28	C	-1.811221	0.710310	-0.501493
C29	C	-1.811280	0.792291	-0.501523
C30	C	-1.734515	0.833279	-0.578222
C31	C	-1.657695	0.792282	-0.654903
C32	C	-1.657643	0.710304	-0.654878
C33	C	-1.657806	0.963152	-0.654949
C34	C	-1.657856	1.045137	-0.654973
C35	C	-1.811443	1.045140	-0.501594
C36	C	-1.811391	0.963161	-0.501569
C37	C	-1.734569	0.922170	-0.578249
C38	C	-1.734434	0.378152	-0.266369
C39	C	-1.734625	0.377968	-0.132970
H40	H	-1.873727	0.676943	-0.439031
Cl41	Cl	-1.907858	0.843819	-0.405134
H42	H	-1.595254	0.929780	-0.717394
Cl43	Cl	-1.908008	1.096671	-0.405185
Cl44	Cl	-1.907897	0.911634	-0.405146
H45	H	-1.595370	1.078507	-0.717450
Cl46	Cl	-1.561197	0.843811	-0.751332
H47	H	-1.595093	0.676930	-0.717314
