data_functionalizedCrystal
_audit_creation_method	'MofGen! by Chris Wilmer'
_symmetry_space_group_name_H-M	'P1'
_symmetry_Int_Tables_number	1
_symmetry_cell_setting	triclinic
loop_
_symmetry_equiv_pos_as_xyz
  x,y,z
_cell_length_a	14.519731
_cell_length_b	19.188924
_cell_length_c	12.996460
_cell_angle_alpha	89.991787
_cell_angle_beta	89.994327
_cell_angle_gamma	83.415409
loop_
_atom_site_label
_atom_site_type_symbol
_atom_site_fract_x
_atom_site_fract_y
_atom_site_fract_z
O1	O	1.223285	0.091596	-0.085574
O2	O	1.556618	0.424929	0.247759
O3	O	1.889951	0.758262	0.581093
O4	O	0.954743	0.102358	-0.085576
O5	O	1.288077	0.435692	0.247757
O6	O	1.621410	0.769025	0.581091
O7	O	1.096767	-0.004651	-0.085563
O8	O	1.430100	0.328682	0.247771
O9	O	1.763433	0.662016	0.581104
O10	O	1.081261	0.198605	-0.085587
O11	O	1.414594	0.531938	0.247746
O12	O	1.747928	0.865272	0.581079
O13	O	1.096752	-0.004657	0.085571
O14	O	1.430085	0.328676	0.418904
O15	O	1.763419	0.662010	0.752238
O16	O	0.954729	0.102352	0.085558
O17	O	1.288062	0.435686	0.418891
O18	O	1.621395	0.769019	0.752224
O19	O	1.223270	0.091590	0.085560
O20	O	1.556603	0.424923	0.418893
O21	O	1.889937	0.758256	0.752227
Cu22	Cu	1.088998	0.096970	0.101185
Cu23	Cu	1.422331	0.430304	0.434518
Cu24	Cu	1.755665	0.763637	0.767851
Cu25	Cu	1.089015	0.096977	-0.101201
Cu26	Cu	1.422349	0.430311	0.232132
Cu27	Cu	1.755682	0.763644	0.565466
O28	O	1.081246	0.198599	0.085547
O29	O	1.414580	0.531932	0.418880
O30	O	1.747913	0.865266	0.752213
C31	C	0.920380	0.101851	-0.000009
C32	C	1.253713	0.435184	0.333324
C33	C	1.587046	0.768518	0.666657
C34	C	0.818009	0.100340	-0.000010
C35	C	1.151342	0.433673	0.333324
C36	C	1.484675	0.767006	0.666657
C37	C	0.734872	0.099112	-0.000014
C38	C	1.068206	0.432445	0.333320
C39	C	1.401539	0.765779	0.666653
C40	C	0.630573	0.097578	-0.000014
C41	C	0.963906	0.430911	0.333319
C42	C	1.297240	0.764244	0.666653
C43	C	0.547442	0.096360	-0.000014
C44	C	0.880775	0.429693	0.333320
C45	C	1.214108	0.763027	0.666653
C46	C	0.443136	0.094826	-0.000016
C47	C	0.776469	0.428159	0.333318
C48	C	1.109803	0.761492	0.666651
C49	C	1.096258	-0.030667	0.000005
C50	C	1.429592	0.302666	0.333338
C51	C	1.762925	0.636000	0.666672
C52	C	1.094754	-0.108177	0.000008
C53	C	1.428088	0.225156	0.333341
C54	C	1.761421	0.558490	0.666674
C55	C	1.094060	-0.144575	-0.093277
C56	C	1.427394	0.188758	0.240056
C57	C	1.760727	0.522091	0.573389
C58	C	1.092634	-0.217403	-0.093285
C59	C	1.425967	0.115930	0.240048
C60	C	1.759301	0.449264	0.573381
C61	C	1.091920	-0.253832	-0.000003
C62	C	1.425253	0.079501	0.333331
C63	C	1.758587	0.412835	0.666664
C64	C	1.092609	-0.217424	0.093295
C65	C	1.425942	0.115909	0.426628
C66	C	1.759276	0.449242	0.759962
C67	C	1.094026	-0.144597	0.093300
C68	C	1.427359	0.188736	0.426634
C69	C	1.760693	0.522070	0.759967
N70	N	1.142169	-0.373316	0.069426
N71	N	1.475502	-0.039982	0.402759
N72	N	1.808836	0.293351	0.736093
N73	N	1.140825	-0.442499	0.069415
N74	N	1.474158	-0.109165	0.402748
N75	N	1.807491	0.224168	0.736081
C76	C	1.087648	-0.473256	-0.000013
C77	C	1.420982	-0.139923	0.333321
C78	C	1.754315	0.193410	0.666654
N79	N	1.035879	-0.432219	-0.069444
N80	N	1.369212	-0.098885	0.263890
N81	N	1.702545	0.234448	0.597223
N82	N	1.037227	-0.363029	-0.069435
N83	N	1.370560	-0.029696	0.263898
N84	N	1.703894	0.303637	0.597231
C85	C	1.090383	-0.332801	0.000002
C86	C	1.423716	0.000532	0.333336
C87	C	1.757049	0.333866	0.666669
C88	C	1.085406	-0.588623	-0.093313
C89	C	1.418740	-0.255289	0.240021
C90	C	1.752073	0.078044	0.573354
C91	C	1.083974	-0.661451	-0.093317
C92	C	1.417308	-0.328118	0.240017
C93	C	1.750641	0.005215	0.573350
C94	C	1.083959	-0.661472	0.093266
C95	C	1.417292	-0.328139	0.426600
C96	C	1.750625	0.005194	0.759933
C97	C	1.085381	-0.588644	0.093268
C98	C	1.418715	-0.255311	0.426601
C99	C	1.752048	0.078023	0.759934
C100	C	1.086110	-0.552224	-0.000025
C101	C	1.419443	-0.218891	0.333309
C102	C	1.752776	0.114443	0.666642
C103	C	1.257634	0.092097	-0.000009
C104	C	1.590967	0.425430	0.333324
C105	C	1.924300	0.758764	0.666658
C106	C	1.360004	0.093608	-0.000016
C107	C	1.693338	0.426941	0.333318
C108	C	2.026671	0.760275	0.666651
C109	C	1.081755	0.224615	-0.000023
C110	C	1.415088	0.557948	0.333310
C111	C	1.748421	0.891281	0.666643
C112	C	1.083259	0.302125	-0.000033
C113	C	1.416592	0.635458	0.333300
C114	C	1.749926	0.968792	0.666634
N115	N	1.088992	0.096965	0.243532
N116	N	1.422326	0.430298	0.576865
N117	N	1.755659	0.763632	0.910198
N118	N	1.089028	0.096977	-0.243548
N119	N	1.422361	0.430311	0.089785
N120	N	1.755695	0.763644	0.423119
C121	C	1.089014	0.096978	0.663346
C122	C	1.422347	0.430312	0.996679
C123	C	1.755681	0.763645	1.330013
C124	C	1.089005	0.096977	0.546541
C125	C	1.422339	0.430310	0.879874
C126	C	1.755672	0.763644	1.213208
C127	C	1.089004	0.096972	0.453443
C128	C	1.422337	0.430306	0.786776
C129	C	1.755670	0.763639	1.120109
C130	C	1.088994	0.096970	0.336630
C131	C	1.422327	0.430303	0.669963
C132	C	1.755661	0.763636	1.003297
H133	H	1.092063	-0.247044	-0.169252
H134	H	1.425396	0.086290	0.164082
H135	H	1.758730	0.419623	0.497415
O136	O	1.091790	-0.252871	0.183846
O137	O	1.425123	0.080462	0.517179
O138	O	1.758456	0.413795	0.850512
C139	C	1.011107	-0.287180	0.189432
C140	C	1.344441	0.046154	0.522765
C141	C	1.677774	0.379487	0.856098
H142	H	0.984285	-0.295480	0.108433
H143	H	1.317618	0.037853	0.441766
H144	H	1.650951	0.371186	0.775100
H145	H	0.955731	-0.253652	0.235464
H146	H	1.289064	0.079681	0.568797
H147	H	1.622398	0.413014	0.902131
C148	C	1.066955	-0.348540	0.342250
C149	C	1.400288	-0.015206	0.675584
C150	C	1.733621	0.318127	1.008917
C151	C	1.034015	-0.358740	0.242766
C152	C	1.367349	-0.025406	0.576099
C153	C	1.700682	0.307927	0.909432
H154	H	1.081083	-0.392680	0.375153
H155	H	1.414416	-0.059346	0.708487
H156	H	1.747750	0.273987	1.041820
H157	H	1.121311	-0.325424	0.338490
H158	H	1.454644	0.007910	0.671823
H159	H	1.787977	0.341243	1.005157
H160	H	1.020802	-0.320598	0.380598
H161	H	1.354136	0.012736	0.713931
H162	H	1.687469	0.346069	1.047264
H163	H	1.080172	-0.386673	0.204417
H164	H	1.413505	-0.053340	0.537750
H165	H	1.746838	0.279993	0.871083
H166	H	0.979667	-0.381862	0.246521
H167	H	1.313001	-0.048529	0.579854
H168	H	1.646334	0.284804	0.913188
O169	O	1.094742	-0.109348	0.184014
O170	O	1.428075	0.223985	0.517347
O171	O	1.761408	0.557318	0.850681
C172	C	1.093775	-0.157111	0.266350
C173	C	1.427109	0.176223	0.599684
C174	C	1.760442	0.509556	0.933017
H175	H	1.121956	-0.211876	0.239003
H176	H	1.455290	0.121458	0.572336
H177	H	1.788623	0.454791	0.905670
H178	H	1.019652	-0.157627	0.295028
H179	H	1.352985	0.175707	0.628361
H180	H	1.686319	0.509040	0.961695
C181	C	1.120169	-0.067345	0.388082
C182	C	1.453503	0.265989	0.721415
C183	C	1.786836	0.599322	1.054748
C184	C	1.154789	-0.134607	0.354495
C185	C	1.488122	0.198726	0.687828
C186	C	1.821456	0.532059	1.021162
H187	H	1.157801	-0.053463	0.442456
H188	H	1.491135	0.279871	0.775789
H189	H	1.824468	0.613204	1.109123
H190	H	1.120817	-0.035165	0.332611
H191	H	1.454150	0.298168	0.665944
H192	H	1.787483	0.631501	0.999278
H193	H	1.058400	-0.067783	0.411973
H194	H	1.391733	0.265550	0.745306
H195	H	1.725067	0.598883	1.078639
H196	H	1.216552	-0.134165	0.330593
H197	H	1.549885	0.199168	0.663926
H198	H	1.883219	0.532501	0.997260
H199	H	1.154153	-0.166786	0.409964
H200	H	1.487486	0.166547	0.743297
H201	H	1.820820	0.499880	1.076631
H202	H	1.083405	-0.691085	-0.169284
H203	H	1.416738	-0.357752	0.164049
H204	H	1.750071	-0.024419	0.497383
O205	O	1.086060	-0.553342	-0.184024
O206	O	1.419393	-0.220009	0.149310
O207	O	1.752727	0.113324	0.482643
C208	C	1.085155	-0.601091	-0.266365
C209	C	1.418488	-0.267757	0.066968
C210	C	1.751822	0.065576	0.400302
H211	H	1.054950	-0.650153	-0.239020
H212	H	1.388283	-0.316820	0.094314
H213	H	1.721616	0.016513	0.427647
H214	H	1.158974	-0.616065	-0.295051
H215	H	1.492307	-0.282732	0.038282
H216	H	1.825640	0.050601	0.371615
C217	C	1.062350	-0.506485	-0.388084
C218	C	1.395683	-0.173151	-0.054751
C219	C	1.729016	0.160182	0.278582
C220	C	1.025244	-0.566742	-0.354500
C221	C	1.358577	-0.233409	-0.021167
C222	C	1.691910	0.099925	0.312166
H223	H	1.025398	-0.485297	-0.442453
H224	H	1.358731	-0.151963	-0.109120
H225	H	1.692064	0.181370	0.224214
H226	H	1.062963	-0.474315	-0.332610
H227	H	1.396296	-0.140982	0.000723
H228	H	1.729630	0.192352	0.334056
H229	H	1.123864	-0.518972	-0.411982
H230	H	1.457198	-0.185639	-0.078649
H231	H	1.790531	0.147695	0.254684
H232	H	0.963735	-0.554253	-0.330591
H233	H	1.297068	-0.220919	0.002742
H234	H	1.630402	0.112414	0.336076
H235	H	1.024619	-0.598909	-0.409973
H236	H	1.357952	-0.265575	-0.076639
H237	H	1.691285	0.067758	0.256694
O238	O	1.094715	-0.109301	-0.183991
O239	O	1.428048	0.224032	0.149343
O240	O	1.761381	0.557365	0.482676
C241	C	1.093819	-0.157053	-0.266329
C242	C	1.427152	0.176281	0.067004
C243	C	1.760485	0.509614	0.400337
H244	H	1.063619	-0.206117	-0.238983
H245	H	1.396952	0.127216	0.094351
H246	H	1.730286	0.460549	0.427684
H247	H	1.167640	-0.172023	-0.295012
H248	H	1.500973	0.161311	0.038322
H249	H	1.834306	0.494644	0.371655
C250	C	1.071006	-0.062451	-0.388055
C251	C	1.404340	0.270883	-0.054721
C252	C	1.737673	0.604216	0.278612
C253	C	1.033907	-0.122710	-0.354469
C254	C	1.367240	0.210623	-0.021136
C255	C	1.700574	0.543956	0.312198
H256	H	1.034054	-0.041267	-0.442426
H257	H	1.367387	0.292067	-0.109093
H258	H	1.700721	0.625400	0.224241
H259	H	1.071613	-0.030279	-0.332583
H260	H	1.404947	0.303054	0.000751
H261	H	1.738280	0.636388	0.334084
H262	H	1.132523	-0.074934	-0.411950
H263	H	1.465856	0.258399	-0.078616
H264	H	1.799189	0.591732	0.254717
H265	H	0.972396	-0.110225	-0.330563
H266	H	1.305730	0.223109	0.002770
H267	H	1.639063	0.556442	0.336104
H268	H	1.033288	-0.154879	-0.409940
H269	H	1.366622	0.178454	-0.076606
H270	H	1.699955	0.511788	0.256727
O271	O	1.083383	-0.696791	0.183943
O272	O	1.416717	-0.363458	0.517276
O273	O	1.750050	-0.030125	0.850609
C274	C	1.163584	-0.686832	0.240700
C275	C	1.496918	-0.353499	0.574033
C276	C	1.830251	-0.020166	0.907366
H277	H	1.191246	-0.636554	0.214193
H278	H	1.524579	-0.303220	0.547527
H279	H	1.857913	0.030113	0.880860
H280	H	1.218699	-0.733286	0.227762
H281	H	1.552033	-0.399953	0.561095
H282	H	1.885366	-0.066620	0.894429
C283	C	1.105398	-0.742873	0.388535
C284	C	1.438732	-0.409540	0.721869
C285	C	1.772065	-0.076207	1.055202
C286	C	1.139369	-0.681117	0.355986
C287	C	1.472702	-0.347784	0.689319
C288	C	1.806035	-0.014450	1.022652
H289	H	1.090463	-0.739351	0.459650
H290	H	1.423797	-0.406018	0.792983
H291	H	1.757130	-0.072684	1.126316
H292	H	1.051367	-0.749586	0.350297
H293	H	1.384700	-0.416252	0.683630
H294	H	1.718033	-0.082919	1.016963
H295	H	1.151333	-0.781579	0.377745
H296	H	1.484666	-0.448246	0.711079
H297	H	1.818000	-0.114912	1.044412
H298	H	1.093430	-0.642414	0.366764
H299	H	1.426763	-0.309081	0.700097
H300	H	1.760097	0.024252	1.033431
H301	H	1.193392	-0.674398	0.394229
H302	H	1.526725	-0.341065	0.727562
H303	H	1.860059	-0.007732	1.060896
H304	H	1.085954	-0.559009	0.169231
H305	H	1.419288	-0.225676	0.502564
H306	H	1.752621	0.107658	0.835897
