data_functionalizedCrystal
_audit_creation_method	'MofGen! by Chris Wilmer'
_symmetry_space_group_name_H-M	'P1'
_symmetry_Int_Tables_number	1
_symmetry_cell_setting	triclinic
loop_
_symmetry_equiv_pos_as_xyz
  x,y,z
_cell_length_a	16.959454
_cell_length_b	16.959455
_cell_length_c	16.959447
_cell_angle_alpha	89.982031
_cell_angle_beta	89.974537
_cell_angle_gamma	90.017022
loop_
_atom_site_label
_atom_site_type_symbol
_atom_site_fract_x
_atom_site_fract_y
_atom_site_fract_z
Zn1	Zn	-0.314740	1.208412	-0.446928
Zn2	Zn	0.185260	1.708412	0.053072
Zn3	Zn	-0.446930	1.208326	-0.314758
Zn4	Zn	0.053070	1.708326	0.185242
Zn5	Zn	-0.314762	1.076232	-0.314766
Zn6	Zn	0.185238	1.576232	0.185234
Zn7	Zn	-0.446874	1.076205	-0.446897
Zn8	Zn	0.053126	1.576205	0.053103
O9	O	-0.380826	1.142294	-0.380837
O10	O	0.119174	1.642294	0.119163
O11	O	-0.332290	1.319012	-0.429406
O12	O	0.167710	1.819012	0.070594
O13	O	-0.429430	1.190779	-0.204148
O14	O	0.070570	1.690779	0.295852
O15	O	-0.204148	1.093813	-0.332314
O16	O	0.295852	1.593813	0.167686
O17	O	-0.429409	1.318949	-0.332301
O18	O	0.070591	1.818949	0.167699
O19	O	-0.204132	1.190925	-0.429413
O20	O	0.295868	1.690925	0.070587
O21	O	-0.332327	1.093730	-0.204154
O22	O	0.167673	1.593730	0.295846
O23	O	-0.332273	0.965618	-0.332283
O24	O	0.167727	1.465618	0.167717
O25	O	-0.429313	1.093768	-0.557512
O26	O	0.070687	1.593768	-0.057512
O27	O	-0.429334	0.965598	-0.429359
O28	O	0.070666	1.465598	0.070641
O29	O	-0.332235	1.190899	-0.557535
O30	O	0.167765	1.690899	-0.057535
O31	O	-0.557533	1.190753	-0.332270
O32	O	-0.057533	1.690753	0.167730
O33	O	-0.557492	1.093684	-0.429352
O34	O	-0.057492	1.593684	0.070648
C35	C	-0.380800	0.936928	-0.380819
C36	C	0.119200	1.436928	0.119181
C37	C	-0.380808	0.849071	-0.380830
C38	C	0.119192	1.349071	0.119170
C39	C	-0.586193	1.142228	-0.380824
C40	C	-0.086193	1.642228	0.119176
C41	C	-0.674049	1.142272	-0.380844
C42	C	-0.174049	1.642272	0.119156
C43	C	-0.330245	0.477581	-0.330395
C44	C	0.169755	0.977581	0.169605
C45	C	-0.431473	0.477610	-0.431324
C46	C	0.068527	0.977610	0.068676
C47	C	-0.431462	0.560156	-0.431320
C48	C	0.068538	1.060156	0.068680
C49	C	-0.380842	0.601418	-0.380851
C50	C	0.119158	1.101418	0.119149
C51	C	-0.330234	0.560135	-0.330387
C52	C	0.169766	1.060135	0.169613
C53	C	-0.482075	0.601445	-0.481777
C54	C	0.017925	1.101445	0.018223
C55	C	-0.482066	0.683996	-0.481773
C56	C	0.017934	1.183996	0.018227
C57	C	-0.431442	0.725260	-0.431308
C58	C	0.068558	1.225260	0.068692
C59	C	-0.380831	0.683972	-0.380843
C60	C	0.119169	1.183972	0.119157
C61	C	-0.330211	0.725234	-0.330374
C62	C	0.169789	1.225234	0.169626
C63	C	-0.279596	0.683948	-0.279913
C64	C	0.220404	1.183948	0.220087
C65	C	-0.279610	0.601399	-0.279922
C66	C	0.220390	1.101399	0.220078
C67	C	-0.431428	0.807809	-0.431299
C68	C	0.068572	1.307809	0.068701
C69	C	-0.330200	0.807788	-0.330366
C70	C	0.169800	1.307788	0.169634
C71	C	-1.045533	1.091824	-0.431382
C72	C	-0.545533	1.591824	0.068618
C73	C	-1.045516	1.192985	-0.330373
C74	C	-0.545516	1.692985	0.169627
C75	C	-0.962970	1.192957	-0.330365
C76	C	-0.462970	1.692957	0.169635
C77	C	-0.921702	1.142361	-0.380867
C78	C	-0.421702	1.642361	0.119133
C79	C	-0.962980	1.091793	-0.431375
C80	C	-0.462980	1.591793	0.068625
C81	C	-0.921687	1.243519	-0.279852
C82	C	-0.421687	1.743519	0.220148
C83	C	-0.839136	1.243492	-0.279842
C84	C	-0.339136	1.743492	0.220158
C85	C	-0.797866	1.192900	-0.330348
C86	C	-0.297866	1.692900	0.169652
C87	C	-0.839149	1.142330	-0.380859
C88	C	-0.339149	1.642330	0.119141
C89	C	-0.797880	1.091734	-0.431360
C90	C	-0.297880	1.591734	0.068640
C91	C	-0.839162	1.041168	-0.481876
C92	C	-0.339162	1.541168	0.018124
C93	C	-0.921710	1.041200	-0.481881
C94	C	-0.421710	1.541200	0.018119
C95	C	-0.715318	1.192868	-0.330343
C96	C	-0.215318	1.692868	0.169657
C97	C	-0.715327	1.091704	-0.431353
C98	C	-0.215327	1.591704	0.068647
C99	C	-0.174658	1.142382	-0.380868
C100	C	0.325342	1.642382	0.119132
C101	C	-0.086802	1.142420	-0.380881
C102	C	0.413198	1.642420	0.119119
C103	C	-0.380766	1.142340	-0.587006
C104	C	0.119234	1.642340	-0.087006
C105	C	-0.380740	1.142360	-0.674862
C106	C	0.119260	1.642360	-0.174862
C107	C	-0.380853	1.348462	-0.380856
C108	C	0.119147	1.848462	0.119144
C109	C	-0.380865	1.436319	-0.380864
C110	C	0.119135	1.936319	0.119136
C111	C	-0.431283	1.192899	-0.716135
C112	C	0.068717	1.692899	-0.216135
C113	C	-0.330176	1.091834	-0.716143
C114	C	0.169824	1.591834	-0.216143
C115	C	-0.330153	1.091848	-0.798689
C116	C	0.169847	1.591848	-0.298689
C117	C	-0.380696	1.142387	-0.839962
C118	C	0.119304	1.642387	-0.339962
C119	C	-0.431263	1.192912	-0.798688
C120	C	0.068737	1.692912	-0.298688
C121	C	-0.279592	1.041318	-0.839969
C122	C	0.220408	1.541318	-0.339969
C123	C	-0.279568	1.041329	-0.922520
C124	C	0.220432	1.541329	-0.422520
C125	C	-0.330108	1.091872	-0.963794
C126	C	0.169892	1.591872	-0.463794
C127	C	-0.380676	1.142400	-0.922515
C128	C	0.119324	1.642400	-0.422515
C129	C	-0.431220	1.192939	-0.963788
C130	C	0.068780	1.692939	-0.463788
C131	C	-0.481785	1.243472	-0.922511
C132	C	0.018215	1.743472	-0.422511
C133	C	-0.481804	1.243456	-0.839963
C134	C	0.018196	1.743456	-0.339963
C135	C	-0.330089	1.091888	-1.046342
C136	C	0.169911	1.591888	-0.546342
C137	C	-0.431200	1.192953	-1.046342
C138	C	0.068800	1.692953	-0.546342
C139	C	-0.380830	1.142294	-0.175471
C140	C	0.119170	1.642294	0.324529
C141	C	-0.380633	1.142427	-0.087615
C142	C	0.119367	1.642427	0.412385
H143	H	-0.238385	0.717554	-0.238818
H144	H	0.261615	1.217554	0.261182
H145	H	-0.522941	1.284618	-0.956126
H146	H	-0.022941	1.784618	-0.456126
N147	N	-0.486069	0.433102	-0.485748
N148	N	0.013931	0.933102	0.014252
H149	H	-0.453996	0.398870	-0.522432
H150	H	0.046004	0.898870	-0.022432
H151	H	-0.518118	0.471828	-0.517664
H152	H	-0.018118	0.971828	-0.017664
N153	N	-0.670825	1.037126	-0.485823
N154	N	-0.170825	1.537126	0.014177
H155	H	-0.636621	1.000500	-0.453663
H156	H	-0.136621	1.500500	0.046337
H157	H	-0.636577	1.069266	-0.522469
H158	H	-0.136577	1.569266	-0.022469
N159	N	-0.485815	1.247404	-0.671622
N160	N	0.014185	1.747404	-0.171622
H161	H	-0.478250	1.239641	-0.613064
H162	H	0.021750	1.739641	-0.113064
H163	H	-0.542257	1.235168	-0.686132
H164	H	-0.042257	1.735168	-0.186132
N165	N	-0.536339	1.297954	-0.795445
N166	N	-0.036339	1.797954	-0.295445
H167	H	-0.528766	1.290191	-0.736888
H168	H	-0.028766	1.790191	-0.236888
H169	H	-0.592780	1.285710	-0.809949
H170	H	-0.092780	1.785710	-0.309949
H171	H	-1.079122	1.234173	-0.289252
H172	H	-0.579122	1.734173	0.210748
H173	H	-0.289030	1.050683	-0.682534
H174	H	0.210970	1.550683	-0.182534
N175	N	-0.275572	1.037378	-1.090860
N176	N	0.224428	1.537378	-0.590860
H177	H	-0.283232	1.045050	-1.149417
H178	H	0.216768	1.545050	-0.649417
H179	H	-0.287897	0.980926	-1.076412
H180	H	0.212103	1.480926	-0.576412
H181	H	-0.289033	0.443962	-0.289313
H182	H	0.210967	0.943962	0.210687
N183	N	-0.966197	1.298090	-0.225393
N184	N	-0.466197	1.798090	0.274607
H185	H	-0.927522	1.330117	-0.193391
H186	H	-0.427522	1.830117	0.306609
H187	H	-1.000493	1.265951	-0.188791
H188	H	-0.500493	1.765951	0.311209
N189	N	-0.966233	0.986662	-0.536357
N190	N	-0.466233	1.486662	-0.036357
H191	H	-1.024789	0.994356	-0.528694
H192	H	-0.524789	1.494356	-0.028694
H193	H	-0.951845	0.930213	-0.523999
H194	H	-0.451845	1.430213	-0.023999
N195	N	-0.275593	0.852291	-0.275941
N196	N	0.224407	1.352291	0.224059
H197	H	-0.243532	0.813608	-0.243980
H198	H	0.256468	1.313608	0.256020
H199	H	-0.307712	0.886521	-0.239298
H200	H	0.192288	1.386521	0.260702
N201	N	-0.225046	0.556870	-0.225475
N202	N	0.274954	1.056870	0.274525
H203	H	-0.232746	0.498315	-0.233129
H204	H	0.267254	0.998315	0.266871
H205	H	-0.237301	0.571289	-0.169010
H206	H	0.262699	1.071289	0.330990
N207	N	-0.536668	0.556933	-0.536199
N208	N	-0.036668	1.056933	-0.036199
H209	H	-0.504593	0.522706	-0.572886
H210	H	-0.004593	1.022706	-0.072886
H211	H	-0.568725	0.595656	-0.568112
H212	H	-0.068725	1.095656	-0.068112
H213	H	-0.238448	1.000166	-0.806358
H214	H	0.261552	1.500166	-0.306358
H215	H	-0.523280	0.717605	-0.522863
H216	H	-0.023280	1.217605	-0.022863
N217	N	-0.486018	0.852340	-0.485712
N218	N	0.013982	1.352340	0.014288
H219	H	-0.518090	0.813674	-0.517680
H220	H	-0.018090	1.313674	-0.017680
H221	H	-0.453888	0.886610	-0.522346
H222	H	0.046112	1.386610	-0.022346
H223	H	-0.238394	1.000182	-0.956120
H224	H	0.261606	1.500182	-0.456120
H225	H	-1.079148	1.050656	-0.472513
H226	H	-0.579148	1.550656	0.027487
N227	N	-0.794648	0.986590	-0.536336
N228	N	-0.294648	1.486590	-0.036336
H229	H	-0.736091	0.994244	-0.528659
H230	H	-0.236091	1.494244	-0.028659
H231	H	-0.809029	0.998863	-0.592803
H232	H	-0.309029	1.498863	-0.092803
N233	N	-0.794614	1.298035	-0.225369
N234	N	-0.294614	1.798035	0.274631
H235	H	-0.833284	1.330093	-0.193381
H236	H	-0.333284	1.830093	0.306619
H237	H	-0.760329	1.334582	-0.257583
H238	H	-0.260329	1.834582	0.242417
H239	H	-0.472357	1.234111	-1.079940
H240	H	0.027643	1.734111	-0.579940
N241	N	-0.670792	1.247394	-0.275861
N242	N	-0.170792	1.747394	0.224139
H243	H	-0.709461	1.279447	-0.243867
H244	H	-0.209461	1.779447	0.256133
H245	H	-0.636501	1.283945	-0.308064
H246	H	-0.136501	1.783945	0.191936
