data_functionalizedCrystal
_audit_creation_method	'MofGen! by Chris Wilmer'
_symmetry_space_group_name_H-M	'P1'
_symmetry_Int_Tables_number	1
_symmetry_cell_setting	triclinic
loop_
_symmetry_equiv_pos_as_xyz
  x,y,z
_cell_length_a	10.540539
_cell_length_b	10.540535
_cell_length_c	9.616153
_cell_angle_alpha	89.999627
_cell_angle_beta	89.996293
_cell_angle_gamma	84.524567
loop_
_atom_site_label
_atom_site_type_symbol
_atom_site_fract_x
_atom_site_fract_y
_atom_site_fract_z
O1	O	0.178875	1.685887	-0.115562
O2	O	0.195737	1.316473	-0.115581
O3	O	0.002600	1.509608	-0.115570
O4	O	0.372013	1.492752	-0.115574
O5	O	0.002589	1.509598	0.115722
O6	O	0.195726	1.316463	0.115710
O7	O	0.178865	1.685877	0.115729
Zn8	Zn	0.187294	1.501169	0.152442
Zn9	Zn	0.187308	1.501182	-0.152294
O10	O	0.372002	1.492742	0.115717
C11	C	0.194469	1.269165	0.000062
C12	C	0.190689	1.128217	0.000055
C13	C	-0.044709	1.508339	0.000073
C14	C	-0.185657	1.504557	0.000066
C15	C	0.049675	1.091546	0.000062
C16	C	0.045698	0.944946	0.000601
C17	C	0.255053	0.918875	0.131892
C18	C	0.258054	1.065641	0.131989
C19	C	0.260118	1.065536	-0.131042
C20	C	0.253596	0.919190	-0.132760
C21	C	-0.369081	1.359640	-0.000461
C22	C	-0.222463	1.363474	0.000060
C23	C	-0.247322	1.572447	0.132148
C24	C	-0.393866	1.567632	0.132259
C25	C	-0.394372	1.570513	-0.130762
C26	C	-0.247390	1.571813	-0.132509
C27	C	0.419311	1.494011	0.000071
C28	C	0.560259	1.497793	0.000070
C29	C	0.180133	1.733185	0.000083
C30	C	0.183913	1.874134	0.000081
N31	N	0.187283	1.501169	0.360417
C32	C	0.083980	1.604541	0.419421
C33	C	0.084267	1.604927	0.580589
C34	C	0.320184	1.530771	0.581196
C35	C	0.319565	1.531501	0.419979
C36	C	0.158904	1.367919	0.419844
C37	C	0.155917	1.368797	0.581073
N38	N	0.187307	1.501193	0.639731
H39	H	-0.009939	0.915612	-0.093868
Br40	Br	0.177966	1.132596	0.296846
H41	H	0.102582	1.703801	0.619152
H42	H	-0.004471	1.133519	-0.094449
Br43	Br	0.424672	0.839952	0.139449
Br44	Br	0.272995	1.234490	0.648152
H45	H	0.361428	1.088671	0.137620
Br46	Br	-0.152860	1.273791	0.158119
Br47	Br	-0.151439	1.274438	-0.157750
Br48	Br	0.173693	0.867368	0.296027
Br49	Br	-0.178457	1.489727	-0.295395
Br50	Br	-0.473086	1.740359	-0.132238
Br51	Br	-0.046567	0.897501	0.159039
H52	H	0.216120	1.107999	-0.230985
H53	H	-0.015064	1.587124	0.380637
Br54	Br	0.000693	1.320808	0.352106
Br55	Br	-0.416733	1.266748	-0.158336
Br56	Br	0.451531	1.408670	0.645029
Br57	Br	-0.420041	1.266848	0.156036
Br58	Br	0.360817	1.693502	0.357287
H59	H	-0.223170	1.674674	-0.140479
H60	H	-0.422069	1.517450	0.230988
H61	H	0.398646	1.458896	0.380943
H62	H	0.058159	1.346367	0.619332
H63	H	0.234219	1.290985	0.381684
Br64	Br	-0.473827	1.736741	0.142272
H65	H	-0.224969	1.676055	0.137064
H66	H	-0.014451	1.587218	0.620167
Br67	Br	0.114070	1.768405	0.351894
H68	H	-0.003574	1.135000	0.094449
Br69	Br	0.167279	0.871577	-0.295299
Br70	Br	0.421736	0.837453	-0.146711
Br71	Br	0.433063	1.102444	-0.133126
Br72	Br	-0.176332	1.493835	0.295971
H73	H	-0.425919	1.524856	-0.230872
Br74	Br	0.362384	1.690938	0.648480
