data_functionalizedCrystal
_audit_creation_method	'MofGen! by Chris Wilmer'
_symmetry_space_group_name_H-M	'P1'
_symmetry_Int_Tables_number	1
_symmetry_cell_setting	triclinic
loop_
_symmetry_equiv_pos_as_xyz
  x,y,z
_cell_length_a	8.559649
_cell_length_b	14.519709
_cell_length_c	7.088929
_cell_angle_alpha	83.763835
_cell_angle_beta	95.325015
_cell_angle_gamma	76.729405
loop_
_atom_site_label
_atom_site_type_symbol
_atom_site_fract_x
_atom_site_fract_y
_atom_site_fract_z
O1	O	2.103670	-0.020642	-0.158956
O2	O	1.638600	0.026977	-0.158968
O3	O	1.883467	-0.131957	-0.158944
O4	O	1.858803	0.138292	-0.158979
O5	O	1.916191	-0.153240	0.159034
O6	O	1.671324	0.005694	0.159010
O7	O	2.136393	-0.041925	0.159023
Cu8	Cu	1.906847	-0.020059	0.188050
Cu9	Cu	1.868147	0.005111	-0.187996
O10	O	1.891526	0.117009	0.158999
C11	C	1.595443	0.019944	0.000020
C12	C	1.418093	0.030686	0.000015
C13	C	1.898680	-0.176876	0.000045
C14	C	1.895236	-0.279010	0.000046
C15	C	1.882552	-0.652993	-0.000004
C16	C	1.886074	-0.548938	0.000011
C17	C	1.888894	-0.466005	0.000023
C18	C	1.892417	-0.361944	0.000034
C19	C	2.179551	-0.034892	0.000031
C20	C	2.356899	-0.045633	0.000022
C21	C	1.876313	0.161928	0.000005
C22	C	1.879756	0.264063	-0.000008
N23	N	1.934078	-0.037763	0.452541
N24	N	1.840929	0.022807	-0.452487
H25	H	1.440186	-0.119190	0.000023
C26	C	2.033411	-0.208145	0.514537
C27	C	2.064417	-0.122503	0.562769
H28	H	2.113882	-0.260458	0.582581
H29	H	1.930091	-0.212720	0.547281
H30	H	2.035262	-0.209344	0.381038
H31	H	2.062555	-0.121302	0.696267
H32	H	2.167765	-0.117928	0.530037
H33	H	1.334795	0.104249	-0.000005
C34	C	1.741601	0.193186	0.485516
C35	C	1.710597	0.107542	0.437291
H36	H	1.661142	0.245498	0.417450
H37	H	1.739741	0.194391	0.618994
H38	H	1.844940	0.197756	0.452775
H39	H	1.607262	0.102969	0.470045
H40	H	1.712440	0.106336	0.303783
