data_functionalizedCrystal
_audit_creation_method	'MofGen! by Chris Wilmer'
_symmetry_space_group_name_H-M	'P1'
_symmetry_Int_Tables_number	1
_symmetry_cell_setting	triclinic
loop_
_symmetry_equiv_pos_as_xyz
  x,y,z
_cell_length_a	12.594517
_cell_length_b	16.959454
_cell_length_c	16.959447
_cell_angle_alpha	90.021714
_cell_angle_beta	89.997816
_cell_angle_gamma	90.005370
loop_
_atom_site_label
_atom_site_type_symbol
_atom_site_fract_x
_atom_site_fract_y
_atom_site_fract_z
Zn1	Zn	-1.627320	-0.314800	0.446700
Zn2	Zn	-1.627275	-0.446993	0.314541
Zn3	Zn	-1.449341	-0.314817	0.314565
Zn4	Zn	-1.449353	-0.446926	0.446708
O5	O	-1.538322	-0.380884	0.380629
O6	O	-1.776260	-0.332356	0.429155
O7	O	-1.603648	-0.429494	0.203934
O8	O	-1.472964	-0.204204	0.332100
O9	O	-1.776227	-0.429478	0.332059
O10	O	-1.603725	-0.204192	0.429179
O11	O	-1.472921	-0.332386	0.203951
O12	O	-1.300397	-0.332321	0.332108
O13	O	-1.472984	-0.429364	0.557318
O14	O	-1.300405	-0.429381	0.429192
O15	O	-1.603736	-0.332292	0.557312
O16	O	-1.603659	-0.557595	0.332067
O17	O	-1.472941	-0.557546	0.429169
C18	C	-1.261781	-0.380846	0.380654
C19	C	-1.143476	-0.380849	0.380684
C20	C	-1.074258	-0.433741	0.433389
C21	C	-1.003422	-0.361670	0.452826
C22	C	-1.003513	-0.452973	0.361239
C23	C	-1.074197	-0.308740	0.400158
C24	C	-1.074295	-0.400091	0.308538
C25	C	-1.003491	-0.327971	0.327947
C26	C	-1.538325	-0.586250	0.380633
C27	C	-1.538424	-0.674107	0.380662
C28	C	-0.815943	-0.380915	0.380616
C29	C	-0.934248	-0.380910	0.380641
C30	C	-1.538366	-0.380819	0.586797
C31	C	-1.538385	-0.380791	0.674654
C32	C	-1.538348	-0.174716	0.380641
C33	C	-1.538359	-0.086859	0.380647
C34	C	-1.606499	0.284625	0.431205
C35	C	-1.470337	0.284607	0.330116
C36	C	-1.470322	0.202062	0.330113
C37	C	-1.538397	0.160794	0.380656
C38	C	-1.606488	0.202072	0.431202
C39	C	-1.402240	0.160777	0.279562
C40	C	-1.402223	0.078226	0.279557
C41	C	-1.470293	0.036957	0.330104
C42	C	-1.538386	0.078240	0.380653
C43	C	-1.606461	0.036973	0.431196
C44	C	-1.674549	0.078254	0.481749
C45	C	-1.674559	0.160803	0.481749
C46	C	-1.470284	-0.045591	0.330104
C47	C	-1.606450	-0.045581	0.431193
C48	C	-1.538339	-0.380892	0.175262
C49	C	-1.538527	-0.380697	0.087406
C50	C	-1.470436	-0.431248	1.046135
C51	C	-1.606589	-0.330166	1.046124
C52	C	-1.606561	-0.330183	0.963578
C53	C	-1.538470	-0.380734	0.922307
C54	C	-1.470408	-0.431268	0.963581
C55	C	-1.674629	-0.279655	0.922297
C56	C	-1.674604	-0.279671	0.839746
C57	C	-1.606508	-0.330218	0.798473
C58	C	-1.538442	-0.380754	0.839753
C59	C	-1.470351	-0.431305	0.798482
C60	C	-1.402279	-0.481837	0.839760
C61	C	-1.402311	-0.481816	0.922308
C62	C	-1.606476	-0.330240	0.715925
C63	C	-1.470323	-0.431325	0.715928
H64	H	-0.972458	-0.513941	0.344813
H65	H	-1.729981	0.044643	0.522897
C66	C	-1.749512	-0.224045	0.967700
N67	N	-1.805910	-0.182152	1.001902
H68	H	-1.661878	-0.079175	0.472357
C69	C	-1.327433	-0.537392	0.967720
N70	N	-1.271035	-0.579251	1.001928
C71	C	-1.327382	-0.537441	0.794351
N72	N	-1.270970	-0.579320	0.760145
C73	C	-1.681395	0.330035	0.486808
N74	N	-1.737809	0.364239	0.528688
C75	C	-1.749458	0.206219	0.537345
N76	N	-1.805876	0.240429	0.579217
C77	C	-1.395459	0.330005	0.274521
N78	N	-1.339055	0.364201	0.232647
C79	C	-1.116388	-0.422079	0.226161
N80	N	-1.148094	-0.438650	0.164114
C81	C	-1.395414	-0.486935	0.670536
N82	N	-1.338993	-0.528821	0.636348
C83	C	-1.395393	-0.090997	0.274499
N84	N	-1.338978	-0.125196	0.232615
H85	H	-1.661902	-0.289099	0.682320
C86	C	-1.327363	0.206176	0.223969
N87	N	-1.270959	0.240375	0.182096
C88	C	-1.327317	0.032824	0.223954
N89	N	-1.270893	-0.001374	0.182076
C90	C	-1.115965	-0.226351	0.422454
N91	N	-1.147427	-0.164298	0.439250
C92	C	-1.395553	-0.486826	1.091541
N93	N	-1.339148	-0.528685	1.125742
H94	H	-1.662031	-0.289014	1.079732
H95	H	-1.730032	-0.238524	0.806144
H96	H	-1.105333	-0.478386	0.478013
H97	H	-0.972291	-0.345416	0.513820
H98	H	-0.972614	-0.283216	0.283358
