data_functionalizedCrystal
_audit_creation_method	'MofGen! by Chris Wilmer'
_symmetry_space_group_name_H-M	'P1'
_symmetry_Int_Tables_number	1
_symmetry_cell_setting	triclinic
loop_
_symmetry_equiv_pos_as_xyz
  x,y,z
_cell_length_a	12.837943
_cell_length_b	15.944551
_cell_length_c	11.295483
_cell_angle_alpha	94.094426
_cell_angle_beta	85.461227
_cell_angle_gamma	89.163839
loop_
_atom_site_label
_atom_site_type_symbol
_atom_site_fract_x
_atom_site_fract_y
_atom_site_fract_z
O1	O	1.382450	0.213265	-0.099009
O2	O	1.080644	0.202478	-0.099016
O3	O	1.239788	0.086257	-0.099002
O4	O	1.223306	0.329487	-0.099023
O5	O	1.225810	0.096448	0.099048
O6	O	1.066666	0.212669	0.099034
O7	O	1.368472	0.223456	0.099040
Cu8	Cu	1.216293	0.218993	0.117121
Cu9	Cu	1.232823	0.206941	-0.117096
O10	O	1.209328	0.339677	0.099026
C11	C	1.035034	0.203930	0.000008
C12	C	0.919957	0.193062	0.000006
C13	C	0.679007	0.323714	0.000011
C14	C	0.570881	0.313507	0.000010
C15	C	0.595575	0.162440	0.000011
C16	C	0.703701	0.172648	0.000012
C17	C	0.745413	0.253287	0.000011
C18	C	0.853542	0.263494	0.000003
C19	C	0.878234	0.112428	0.000013
C20	C	0.770107	0.102221	0.000011
C21	C	1.232115	0.060004	0.000023
C22	C	1.230063	-0.033407	0.000024
C23	C	1.126515	-0.256548	0.000005
C24	C	1.167708	-0.308694	0.097657
C25	C	1.226352	-0.204430	0.000015
C26	C	1.181513	-0.318722	-0.097604
C27	C	1.222761	-0.369631	0.000001
C28	C	1.267567	-0.255341	0.097747
C29	C	1.281364	-0.265369	-0.097602
C30	C	1.322627	-0.317491	0.000073
C31	C	1.228418	-0.109262	0.000024
C32	C	1.220702	-0.464796	0.000000
C33	C	1.414082	0.222005	0.000014
C34	C	1.529160	0.232872	0.000008
C35	C	1.217002	0.365931	-0.000001
C36	C	1.219054	0.459340	-0.000010
N37	N	1.204674	0.227469	0.281856
N38	N	1.244451	0.198459	-0.281831
C39	C	1.328092	0.137394	0.531156
C40	C	1.319318	0.143806	0.655819
C41	C	1.178349	0.246701	0.655847
C42	C	1.187123	0.240289	0.531184
C43	C	1.261997	0.185634	0.468843
C44	C	1.270775	0.179227	0.344178
C45	C	1.129802	0.282117	0.344208
C46	C	1.121028	0.288530	0.468871
H47	H	0.712969	0.389374	0.000008
H48	H	1.119654	-0.327932	0.180211
H49	H	1.303925	-0.227723	0.180394
H50	H	1.043639	-0.229864	0.000101
O51	O	1.383558	0.097072	0.716481
C52	C	1.442460	0.150908	0.788550
H53	H	1.399867	0.214277	0.807235
H54	H	1.522452	0.160307	0.740485
C55	C	1.508592	0.033590	0.884012
C56	C	1.456274	0.111418	0.906970
H57	H	1.517119	0.009230	0.957057
H58	H	1.468913	-0.002681	0.835455
H59	H	1.575247	0.041433	0.843955
H60	H	1.389616	0.103573	0.947013
H61	H	1.495943	0.147688	0.955537
H62	H	0.561586	0.096792	0.000111
O63	O	0.893952	0.341858	-0.000155
C64	C	0.867275	0.380034	-0.102739
H65	H	0.794693	0.349386	-0.136937
H66	H	0.934909	0.371620	-0.174564
C67	C	0.933963	0.512146	-0.029573
C68	C	0.844812	0.474508	-0.071570
H69	H	0.920111	0.570422	-0.010350
H70	H	0.951940	0.486425	0.039538
H71	H	0.990317	0.505126	-0.089435
H72	H	0.788464	0.481519	-0.011704
H73	H	0.826825	0.500232	-0.140670
O74	O	0.506525	0.382006	-0.000047
C75	C	0.566531	0.455367	-0.000017
H76	H	0.649873	0.438571	-0.037509
H77	H	0.567528	0.484562	0.094998
C78	C	0.415787	0.539379	-0.031639
C79	C	0.518148	0.518752	-0.077697
H80	H	0.385941	0.578480	-0.079550
H81	H	0.375359	0.489956	-0.031655
H82	H	0.416632	0.563704	0.047539
H83	H	0.517300	0.494418	-0.156867
H84	H	0.558575	0.568173	-0.077696
H85	H	1.389064	0.092898	0.480398
H86	H	0.736129	0.036567	0.000026
O87	O	1.421635	-0.348984	0.000200
C88	C	1.492614	-0.282335	0.001199
H89	H	1.450220	-0.221825	0.039157
H90	H	1.526455	-0.274111	-0.093560
C91	C	1.633770	-0.376701	0.032397
C92	C	1.581703	-0.302383	0.079027
H93	H	1.688728	-0.389067	0.080400
H94	H	1.585952	-0.421604	0.031720
H95	H	1.661962	-0.369837	-0.046568
H96	H	1.553501	-0.309250	0.157984
H97	H	1.629519	-0.257481	0.079719
H98	H	1.329382	-0.246112	-0.180161
H99	H	0.932315	0.055081	0.000004
H100	H	1.145100	-0.346426	-0.180167
O101	O	1.048249	0.341507	0.529567
C102	C	0.979202	0.295084	0.601670
H103	H	1.019164	0.233635	0.620335
H104	H	0.905969	0.280747	0.553645
C105	C	0.899638	0.422221	0.697169
C106	C	0.948724	0.346751	0.720102
H107	H	0.880834	0.454092	0.770221
H108	H	0.946154	0.453498	0.648589
H109	H	0.838617	0.410263	0.657145
H110	H	1.009750	0.358710	0.760111
H111	H	0.902218	0.315478	0.768691
O112	O	1.343394	0.126000	0.283697
C113	C	1.324372	0.043078	0.314230
H114	H	1.238959	0.037777	0.348501
H115	H	1.376710	0.026760	0.386606
C116	C	1.453179	-0.011791	0.161430
C117	C	1.348271	-0.018302	0.203512
H118	H	1.467925	-0.049654	0.093137
H119	H	1.465998	0.044076	0.140861
H120	H	1.496782	-0.025387	0.221753
H121	H	1.304671	-0.004695	0.143195
H122	H	1.335445	-0.074168	0.224069
O123	O	1.065539	0.329069	0.283860
C124	C	0.997558	0.378664	0.365622
H125	H	1.033801	0.387600	0.454478
H126	H	0.919617	0.345877	0.378895
C127	C	0.935112	0.454085	0.207840
C128	C	0.979631	0.465066	0.316971
H129	H	0.924049	0.507380	0.177829
H130	H	0.980909	0.420670	0.152755
H131	H	0.870166	0.426760	0.218916
H132	H	1.044581	0.492381	0.305891
H133	H	0.933844	0.498488	0.372054
H134	H	1.117381	0.291194	0.706621
