data_functionalizedCrystal
_audit_creation_method	'MofGen! by Chris Wilmer'
_symmetry_space_group_name_H-M	'P1'
_symmetry_Int_Tables_number	1
_symmetry_cell_setting	triclinic
loop_
_symmetry_equiv_pos_as_xyz
  x,y,z
_cell_length_a	6.817900
_cell_length_b	10.943624
_cell_length_c	17.253917
_cell_angle_alpha	97.444049
_cell_angle_beta	102.659311
_cell_angle_gamma	108.838799
loop_
_atom_site_label
_atom_site_type_symbol
_atom_site_fract_x
_atom_site_fract_y
_atom_site_fract_z
V1	V	-4.091005	-0.414803	-0.111272
O2	O	-4.074386	-0.394297	0.005369
O3	O	-4.044882	-0.424093	-0.220655
O4	O	-4.069347	-0.590180	-0.109551
O5	O	-4.049751	-0.227061	-0.106504
V6	V	-4.570873	-0.390874	-0.097322
O7	O	-4.360282	-0.467292	-0.141874
O8	O	-4.751794	-0.338385	-0.066720
O9	O	-4.393790	-0.381584	0.012061
O10	O	-4.704890	-0.411380	-0.213963
O11	O	-4.729524	-0.578616	-0.102090
O12	O	-4.369325	-0.215497	-0.099043
C13	C	-3.889571	-0.420679	-0.247321
C14	C	-3.933325	-0.429444	-0.336743
C15	C	-3.895303	-0.314064	-0.367272
C16	C	-3.936434	-0.322304	-0.451294
C17	C	-4.015574	-0.445925	-0.504785
C18	C	-4.053604	-0.561314	-0.474251
C19	C	-4.012487	-0.553073	-0.390231
C20	C	-4.144841	-0.483386	-0.757302
C21	C	-4.185951	-0.491618	-0.841327
C22	C	-4.068782	-0.252608	-0.818365
C23	C	-4.027657	-0.244377	-0.734343
C24	C	-4.065701	-0.359766	-0.703817
N25	N	-4.057612	-0.454351	-0.590669
N26	N	-4.023677	-0.351340	-0.617934
C27	C	-3.920777	-0.632537	-0.105595
C28	C	-3.984368	-0.775988	-0.104912
C29	C	-3.830211	-0.852629	-0.100310
C30	C	-4.004534	-0.966141	-0.168622
C31	C	-3.923376	-0.918084	-0.035390
C32	C	-4.157888	-0.887630	-0.173289
C33	C	-4.076662	-0.839544	-0.039995
C34	C	-4.251118	-0.953028	-0.108327
C35	C	-4.212442	-0.384995	0.038722
C36	C	-4.147928	-0.376238	0.128143
C37	C	-4.181236	-0.173133	-0.103001
C38	C	-4.096884	-0.029681	-0.103681
H39	H	-4.043472	-0.647028	-0.365376
C40	C	-3.790279	-0.937388	0.043349
H41	H	-3.641345	-0.902844	0.046099
H42	H	-3.832852	-1.029004	0.043472
H43	H	-3.814495	-0.892194	0.089054
C44	C	-4.116835	-0.765268	0.033466
H45	H	-4.032808	-0.774939	0.082400
H46	H	-4.265380	-0.800899	0.031130
H47	H	-4.077039	-0.674121	0.032200
C48	C	-3.940581	-0.108394	-0.675508
H49	H	-3.923832	-0.040856	-0.705725
H50	H	-3.804907	-0.095816	-0.639641
H51	H	-4.039303	-0.104609	-0.644869
C52	C	-3.589112	-0.793424	-0.095849
H53	H	-3.515730	-0.725168	-0.048240
H54	H	-3.573558	-0.757940	-0.142521
H55	H	-3.529302	-0.860642	-0.094022
H56	H	-3.974704	-1.021077	-0.223001
H57	H	-3.830845	-0.213398	-0.323724
C58	C	-4.291005	-0.868566	-0.252109
H59	H	-4.249437	-0.776916	-0.252087
H60	H	-4.440029	-0.903863	-0.255129
H61	H	-4.265627	-0.913141	-0.297742
H62	H	-3.905475	-0.228350	-0.476146
H63	H	-4.037816	-0.158665	-0.843229
C64	C	-4.273016	-0.627607	-0.900167
H65	H	-4.289803	-0.695150	-0.869954
H66	H	-4.174288	-0.631381	-0.930800
H67	H	-4.408697	-0.640190	-0.936041
H68	H	-4.175796	-0.577343	-0.732458
C69	C	-4.492336	-1.011970	-0.112928
H70	H	-4.575763	-1.002091	-0.161926
H71	H	-4.518627	-0.966983	-0.067694
H72	H	-4.531442	-1.103221	-0.112020
C73	C	-4.140653	-0.697294	-0.533089
H74	H	-4.159675	-0.685678	-0.587501
H75	H	-4.275184	-0.749458	-0.526657
H76	H	-4.040764	-0.740629	-0.521413
