data_functionalizedCrystal
_audit_creation_method	'MofGen! by Chris Wilmer'
_symmetry_space_group_name_H-M	'P1'
_symmetry_Int_Tables_number	1
_symmetry_cell_setting	triclinic
loop_
_symmetry_equiv_pos_as_xyz
  x,y,z
_cell_length_a	16.120530
_cell_length_b	11.169416
_cell_length_c	11.169409
_cell_angle_alpha	89.969126
_cell_angle_beta	87.079404
_cell_angle_gamma	87.106171
loop_
_atom_site_label
_atom_site_type_symbol
_atom_site_fract_x
_atom_site_fract_y
_atom_site_fract_z
Zn1	Zn	1.274670	-0.570869	-0.771606
Zn2	Zn	1.774670	-0.070869	-0.271606
Zn3	Zn	1.274593	-0.771604	-0.570923
Zn4	Zn	1.774593	-0.271604	-0.070923
Zn5	Zn	1.135242	-0.560749	-0.560762
Zn6	Zn	1.635242	-0.060749	-0.060762
Zn7	Zn	1.135248	-0.761319	-0.761395
Zn8	Zn	1.635248	-0.261319	-0.261395
O9	O	1.204938	-0.666135	-0.666172
O10	O	1.704938	-0.166135	-0.166172
O11	O	1.391327	-0.606036	-0.753510
O12	O	1.891327	-0.106036	-0.253510
O13	O	1.256074	-0.743702	-0.401622
O14	O	1.756074	-0.243702	0.098378
O15	O	1.153768	-0.394144	-0.588752
O16	O	1.653768	0.105856	-0.088752
O17	O	1.391271	-0.753515	-0.606069
O18	O	1.891271	-0.253515	-0.106069
O19	O	1.256205	-0.401579	-0.743658
O20	O	1.756205	0.098421	-0.243658
O21	O	1.153693	-0.588788	-0.394158
O22	O	1.653693	-0.088788	0.105842
O23	O	1.018576	-0.578815	-0.578851
O24	O	1.518576	-0.078815	-0.078851
O25	O	1.153777	-0.735986	-0.930702
O26	O	1.653777	-0.235986	-0.430702
O27	O	1.018580	-0.726173	-0.726255
O28	O	1.518580	-0.226173	-0.226255
O29	O	1.256210	-0.596063	-0.938204
O30	O	1.756210	-0.096063	-0.438204
O31	O	1.256079	-0.938187	-0.596168
O32	O	1.756079	-0.438187	-0.096168
O33	O	1.153702	-0.930631	-0.736107
O34	O	1.653702	-0.430631	-0.236107
C35	C	1.204905	-0.977957	-0.666160
C36	C	1.704905	-0.477957	-0.166160
C37	C	1.204967	-1.111362	-0.666201
C38	C	1.704967	-0.611362	-0.166201
C39	C	0.988327	-0.650281	-0.650343
C40	C	1.488327	-0.150281	-0.150343
C41	C	0.895660	-0.643528	-0.643601
C42	C	1.395660	-0.143528	-0.143601
C43	C	0.725996	-0.631170	-0.631300
C44	C	1.225996	-0.131170	-0.131300
C45	C	0.684722	-0.701189	-0.701130
C46	C	1.184722	-0.201189	-0.201130
C47	C	0.590315	-0.694313	-0.694286
C48	C	1.090315	-0.194313	-0.194286
C49	C	0.820411	-0.638044	-0.638143
C50	C	1.320411	-0.138044	-0.138143
C51	C	1.422395	-0.682052	-0.682062
C52	C	1.922395	-0.182052	-0.182062
C53	C	1.515063	-0.688835	-0.688834
C54	C	2.015063	-0.188835	-0.188834
C55	C	1.205002	-0.666007	-0.979219
C56	C	1.705002	-0.166007	-0.479219
C57	C	1.205030	-0.665952	-1.112621
C58	C	1.705030	-0.165952	-0.612621
C59	C	1.204994	-0.353097	-0.666211
C60	C	1.704994	0.146903	-0.166211
C61	C	1.205018	-0.219699	-0.666228
C62	C	1.705018	0.280301	-0.166228
C63	C	1.204923	-0.666180	-0.354346
C64	C	1.704923	-0.166180	0.145654
C65	C	1.205057	-0.665909	-0.220956
C66	C	1.705057	-0.165909	0.279044
H67	H	0.720288	-0.766297	-0.766056
H68	H	1.220288	-0.266297	-0.266056
Cl69	Cl	0.671087	-0.530653	-0.531066
Cl70	Cl	1.171087	-0.030653	-0.031066
