data_functionalizedCrystal
_audit_creation_method	'MofGen! by Chris Wilmer'
_symmetry_space_group_name_H-M	'P1'
_symmetry_Int_Tables_number	1
_symmetry_cell_setting	triclinic
loop_
_symmetry_equiv_pos_as_xyz
  x,y,z
_cell_length_a	21.295417
_cell_length_b	21.395364
_cell_length_c	21.395355
_cell_angle_alpha	90.025298
_cell_angle_beta	89.978549
_cell_angle_gamma	89.952792
loop_
_atom_site_label
_atom_site_type_symbol
_atom_site_fract_x
_atom_site_fract_y
_atom_site_fract_z
Zn1	Zn	-0.250402	-0.957860	-0.354261
Zn2	Zn	-0.355653	-0.957763	-0.249478
Zn3	Zn	-0.250432	-0.853075	-0.249497
Zn4	Zn	-0.355668	-0.853045	-0.354217
O5	O	-0.303039	-0.905436	-0.301863
O6	O	-0.264345	-1.045525	-0.340372
O7	O	-0.341702	-0.943848	-0.161803
O8	O	-0.162339	-0.867028	-0.263420
O9	O	-0.341672	-1.045454	-0.263389
O10	O	-0.162316	-0.944014	-0.340390
O11	O	-0.264397	-0.866934	-0.161816
O12	O	-0.264411	-0.765393	-0.263377
O13	O	-0.341697	-0.866977	-0.441901
O14	O	-0.341727	-0.765371	-0.340315
O15	O	-0.264359	-0.943984	-0.441933
O16	O	-0.443744	-0.943818	-0.263346
O17	O	-0.443755	-0.866882	-0.340297
C18	C	-0.303074	-0.742648	-0.301844
C19	C	-0.303105	-0.673007	-0.301850
C20	C	-0.262907	-0.640353	-0.341997
C21	C	-0.262892	-0.574918	-0.341998
C22	C	-0.303086	-0.542138	-0.301860
C23	C	-0.343287	-0.574800	-0.261705
C24	C	-0.343296	-0.640234	-0.261700
C25	C	-0.359779	-0.438414	-0.296818
C26	C	-0.359771	-0.372981	-0.296827
C27	C	-0.303058	-0.340318	-0.301871
C28	C	-0.246351	-0.373095	-0.306919
C29	C	-0.246360	-0.438529	-0.306914
C30	C	-0.303081	-0.471186	-0.301860
C31	C	-0.262841	-0.236712	-0.342022
C32	C	-0.262825	-0.171275	-0.342019
C33	C	-0.343225	-0.171158	-0.261729
C34	C	-0.343236	-0.236594	-0.261728
C35	C	-0.303044	-0.269366	-0.301878
C36	C	-0.466590	-0.905354	-0.301829
C37	C	-0.536558	-0.905376	-0.301835
C38	C	-0.569399	-0.945472	-0.261807
C39	C	-0.635141	-0.945501	-0.261821
C40	C	-0.668041	-0.905423	-0.301856
C41	C	-0.635193	-0.865324	-0.341892
C42	C	-0.569452	-0.865300	-0.341881
N43	N	-0.771324	-0.850613	-0.306626
N44	N	-0.833775	-0.850638	-0.306633
C45	C	-0.866116	-0.905493	-0.301892
N46	N	-0.833645	-0.960325	-0.297133
N47	N	-0.771188	-0.960300	-0.297123
C48	C	-0.739326	-0.905445	-0.301873
C49	C	-0.970241	-0.945625	-0.261878
C50	C	-1.035985	-0.945655	-0.261896
C51	C	-1.036035	-0.865473	-0.341963
C52	C	-0.970293	-0.865448	-0.341948
C53	C	-0.937400	-0.905523	-0.301902
C54	C	-0.138848	-0.905535	-0.301912
C55	C	-0.068880	-0.905578	-0.301933
C56	C	-0.303026	-0.905488	-0.465287
C57	C	-0.303020	-0.905510	-0.534928
C58	C	-0.303011	-0.068859	-0.301880
C59	C	-0.303019	-0.138500	-0.301879
C60	C	-0.262749	-0.945606	-0.567659
C61	C	-0.262722	-0.945605	-0.633094
C62	C	-0.302978	-0.905515	-0.665796
C63	C	-0.343252	-0.865411	-0.633057
C64	C	-0.343274	-0.865408	-0.567623
C65	C	-0.359659	-0.900539	-0.769459
C66	C	-0.359639	-0.900546	-0.834892
C67	C	-0.302911	-0.905519	-0.867617
C68	C	-0.246202	-0.910498	-0.834901
C69	C	-0.246223	-0.910495	-0.769467
C70	C	-0.302959	-0.905513	-0.736749
C71	C	-0.262606	-0.945616	-0.971301
C72	C	-0.262578	-0.945611	-1.036737
C73	C	-0.343115	-0.865420	-1.036699
C74	C	-0.343137	-0.865422	-0.971264
C75	C	-0.302884	-0.905523	-0.938569
C76	C	-0.303006	-0.905420	-0.139076
C77	C	-0.302834	-0.905519	-0.069435
H78	H	-0.200188	-0.465214	-0.311022
H79	H	-0.405842	-0.896322	-0.742820
Cl80	Cl	-0.212000	-0.996025	-0.930195
Cl81	Cl	-0.431059	-0.331782	-0.290492
Cl82	Cl	-0.393833	-0.681287	-0.211224
H83	H	-0.375935	-0.832775	-0.944614
Cl84	Cl	-0.431082	-0.479470	-0.290468
Cl85	Cl	-0.528051	-0.995861	-0.211473
Cl86	Cl	-0.928887	-0.996004	-0.211535
H87	H	-0.375952	-0.144470	-0.229047
H88	H	-0.405815	-0.896495	-0.861524
H89	H	-1.062722	-0.978310	-0.229303
Cl90	Cl	-0.929006	-0.815035	-0.392268
Cl91	Cl	-0.393857	-0.815009	-0.674167
H92	H	-0.229781	-0.978261	-1.063386
Cl93	Cl	-0.174936	-0.916750	-0.728341
Cl94	Cl	-0.393814	-0.533593	-0.211242
H95	H	-0.230111	-0.263397	-0.374710
H96	H	-0.229971	-0.978259	-0.541042
Cl97	Cl	-0.212283	-0.130224	-0.392491
Cl98	Cl	-0.676435	-0.995911	-0.211496
Cl99	Cl	-0.212078	-0.996003	-0.674251
Cl100	Cl	-0.174882	-0.916752	-0.876034
H101	H	-0.661984	-0.832694	-0.374489
H102	H	-0.542712	-0.832649	-0.374477
Cl103	Cl	-1.077389	-0.815092	-0.392298
Cl104	Cl	-0.393717	-0.815014	-1.077804
H105	H	-0.230180	-0.667033	-0.374689
Cl106	Cl	-0.175049	-0.332040	-0.313259
Cl107	Cl	-0.212354	-0.533859	-0.392472
Cl108	Cl	-0.393770	-0.277646	-0.211252
H109	H	-0.376067	-0.832755	-0.540974
