data_functionalizedCrystal
_audit_creation_method	'MofGen! by Chris Wilmer'
_symmetry_space_group_name_H-M	'P1'
_symmetry_Int_Tables_number	1
_symmetry_cell_setting	triclinic
loop_
_symmetry_equiv_pos_as_xyz
  x,y,z
_cell_length_a	17.077404
_cell_length_b	19.077068
_cell_length_c	17.077396
_cell_angle_alpha	92.267122
_cell_angle_beta	89.980499
_cell_angle_gamma	92.327269
loop_
_atom_site_label
_atom_site_type_symbol
_atom_site_fract_x
_atom_site_fract_y
_atom_site_fract_z
Zn1	Zn	1.187475	-0.280197	-0.456376
Zn2	Zn	1.687475	0.219803	0.043624
Zn3	Zn	1.182097	-0.397901	-0.330375
Zn4	Zn	1.682097	0.102099	0.169625
Zn5	Zn	1.056205	-0.280222	-0.325125
Zn6	Zn	1.556205	0.219778	0.174875
Zn7	Zn	1.050892	-0.397859	-0.461596
Zn8	Zn	1.550892	0.102141	0.038404
O9	O	1.119167	-0.339045	-0.393368
O10	O	1.619167	0.160955	0.106632
O11	O	1.296608	-0.295818	-0.439674
O12	O	1.796608	0.204182	0.060326
O13	O	1.165371	-0.382318	-0.219833
O14	O	1.665371	0.117682	0.280167
O15	O	1.078093	-0.181727	-0.338154
O16	O	1.578093	0.318273	0.161846
O17	O	1.292657	-0.382294	-0.347101
O18	O	1.792657	0.117706	0.152899
O19	O	1.174536	-0.181709	-0.434583
O20	O	1.674536	0.318291	0.065417
O21	O	1.072878	-0.295860	-0.215976
O22	O	1.572878	0.204140	0.284024
O23	O	0.945654	-0.295819	-0.343216
O24	O	1.445654	0.204181	0.156784
O25	O	1.069036	-0.382223	-0.570750
O26	O	1.569036	0.117777	-0.070750
O27	O	0.941750	-0.382247	-0.443481
O28	O	1.441750	0.117753	0.056519
O29	O	1.169383	-0.295777	-0.566914
O30	O	1.669383	0.204223	-0.066914
O31	O	1.160218	-0.496386	-0.352163
O32	O	1.660218	0.003614	0.147837
O33	O	1.063822	-0.496356	-0.448571
O34	O	1.563822	0.003644	0.051429
C35	C	0.915220	-0.339032	-0.393346
C36	C	1.415220	0.160968	0.106654
C37	C	0.827970	-0.339043	-0.393356
C38	C	1.327970	0.160957	0.106644
C39	C	0.784964	-0.384114	-0.445486
C40	C	1.284964	0.115886	0.054514
C41	C	0.702984	-0.384116	-0.445499
C42	C	1.202984	0.115884	0.054501
C43	C	0.664010	-0.339050	-0.393376
C44	C	1.164010	0.160950	0.106624
C45	C	0.707021	-0.293974	-0.341243
C46	C	1.207021	0.206026	0.158757
C47	C	0.789000	-0.293969	-0.341235
C48	C	1.289000	0.206031	0.158765
C49	C	0.536151	-0.293988	-0.341263
C50	C	1.036151	0.206012	0.158737
C51	C	0.454166	-0.293993	-0.341270
C52	C	0.954166	0.206007	0.158730
C53	C	0.450134	-0.384134	-0.445526
C54	C	0.950134	0.115866	0.054474
C55	C	0.532113	-0.384130	-0.445518
C56	C	1.032113	0.115870	0.054482
C57	C	0.575119	-0.339055	-0.393384
C58	C	1.075119	0.160945	0.106616
C59	C	1.110881	-0.521909	-0.401521
C60	C	1.610881	-0.021909	0.098479
C61	C	1.107408	-0.600139	-0.405035
C62	C	1.607408	-0.100139	0.094965
C63	C	1.156004	-0.636884	-0.356533
C64	C	1.656004	-0.136884	0.143467
C65	C	1.152742	-0.710389	-0.359843
C66	C	1.652742	-0.210389	0.140157
C67	C	1.100880	-0.747148	-0.411651
C68	C	1.600880	-0.247148	0.088349
C69	C	1.052283	-0.710398	-0.460158
C70	C	1.552283	-0.210398	0.039842
C71	C	1.055549	-0.636894	-0.456852
C72	C	1.555549	-0.136894	0.043148
C73	C	1.085729	-0.966982	-0.426921
C74	C	1.585729	-0.466982	0.073079
C75	C	1.082465	-1.040491	-0.430222
C76	C	1.582465	-0.540491	0.069778
C77	C	1.182926	-1.040478	-0.329907
C78	C	1.682926	-0.540478	0.170093
C79	C	1.186184	-0.966973	-0.326602
C80	C	1.686184	-0.466973	0.173398
C81	C	1.137590	-0.930229	-0.375112
C82	C	1.637590	-0.430229	0.124888
N83	N	1.097543	-0.822282	-0.415033
N84	N	1.597543	-0.322282	0.084967
N85	N	1.140931	-0.855096	-0.371733
N86	N	1.640931	-0.355096	0.128267
C87	C	1.323911	-0.339058	-0.393391
C88	C	1.823911	0.160942	0.106609
C89	C	1.411160	-0.339064	-0.393400
C90	C	1.911160	0.160936	0.106600
C91	C	1.119217	-0.338993	-0.598110
C92	C	1.619217	0.161007	-0.098110
C93	C	1.119238	-0.338971	-0.685359
C94	C	1.619238	0.161029	-0.185359
C95	C	1.127507	-0.155467	-0.385201
C96	C	1.627507	0.344533	0.114799
C97	C	1.131061	-0.077237	-0.381720
C98	C	1.631061	0.422763	0.118280
C99	C	1.171491	-0.293955	-0.724353
C100	C	1.671491	0.206045	-0.224353
C101	C	1.171501	-0.293931	-0.806332
C102	C	1.671501	0.206069	-0.306332
C103	C	1.119262	-0.338928	-0.849316
C104	C	1.619262	0.161072	-0.349316
C105	C	1.067004	-0.383946	-0.810317
C106	C	1.567004	0.116054	-0.310317
C107	C	1.066990	-0.383965	-0.728339
C108	C	1.566990	0.116035	-0.228339
C109	C	1.067038	-0.383904	-0.981185
C110	C	1.567038	0.116096	-0.481185
C111	C	1.067052	-0.383885	-1.063169
C112	C	1.567052	0.116115	-0.563169
C113	C	1.171549	-0.293870	-1.059179
C114	C	1.671549	0.206130	-0.559179
C115	C	1.171535	-0.293889	-0.977201
C116	C	1.671535	0.206111	-0.477201
C117	C	1.119277	-0.338908	-0.938207
C118	C	1.619277	0.161092	-0.438207
C119	C	1.119165	-0.339046	-0.189420
C120	C	1.619165	0.160954	0.310580
C121	C	1.119305	-0.338869	-0.102163
C122	C	1.619305	0.161131	0.397837
H123	H	0.415115	-0.420834	-0.487978
H124	H	0.915115	0.079166	0.012022
H125	H	0.816690	-0.420815	-0.487928
H126	H	1.316690	0.079185	0.012072
Br127	Br	0.996069	-0.445057	-0.675417
Br128	Br	1.496069	0.054943	-0.175417
Br129	Br	0.989600	-0.587024	-0.522683
Br130	Br	1.489600	-0.087024	-0.022683
H131	H	0.667972	-0.420818	-0.487948
H132	H	1.167972	0.079182	0.012052
Br133	Br	0.401272	-0.232836	-0.270526
Br134	Br	0.901272	0.267164	0.229474
Br135	Br	0.654130	-0.232805	-0.270512
Br136	Br	1.154130	0.267195	0.229488
H137	H	1.024513	-0.420524	-1.098164
H138	H	1.524513	0.079476	-0.598164
Br139	Br	0.585006	-0.445298	-0.516249
Br140	Br	1.085006	0.054702	-0.016249
H141	H	0.571164	-0.257277	-0.298816
H142	H	1.071164	0.242723	0.201184
Br143	Br	1.256581	-0.917090	-0.256298
Br144	Br	1.756581	-0.417090	0.243702
H145	H	1.046160	-0.937071	-0.466418
H146	H	1.546160	-0.437071	0.033582
H147	H	0.824015	-0.257264	-0.298789
H148	H	1.324015	0.242736	0.201211
H149	H	1.198232	-0.606960	-0.314342
H150	H	1.698232	-0.106960	0.185658
H151	H	1.214052	-0.257276	-0.838078
H152	H	1.714052	0.242724	-0.338078
H153	H	1.024468	-0.420581	-0.845321
H154	H	1.524468	0.079419	-0.345321
H155	H	1.192313	-0.740304	-0.320346
H156	H	1.692313	-0.240304	0.179654
Br157	Br	1.248876	-1.090348	-0.264080
Br158	Br	1.748876	-0.590348	0.235920
H159	H	1.010059	-0.740332	-0.502345
H160	H	1.510059	-0.240332	-0.002345
Br161	Br	1.012063	-1.090379	-0.500525
Br162	Br	1.512063	-0.590379	-0.000525
Br163	Br	1.242396	-0.232890	-0.666025
Br164	Br	1.742396	0.267110	-0.166025
Br165	Br	1.242438	-0.232828	-0.918865
Br166	Br	1.742438	0.267172	-0.418865
H167	H	1.024472	-0.420552	-0.949438
H168	H	1.524472	0.079448	-0.449438
Br169	Br	1.242473	-0.232775	-1.112098
Br170	Br	1.742473	0.267225	-0.612098
