data_functionalizedCrystal
_audit_creation_method	'MofGen! by Chris Wilmer'
_symmetry_space_group_name_H-M	'P1'
_symmetry_Int_Tables_number	1
_symmetry_cell_setting	triclinic
loop_
_symmetry_equiv_pos_as_xyz
  x,y,z
_cell_length_a	19.188930
_cell_length_b	19.188940
_cell_length_c	17.666332
_cell_angle_alpha	89.993076
_cell_angle_beta	89.976766
_cell_angle_gamma	83.146747
loop_
_atom_site_label
_atom_site_type_symbol
_atom_site_fract_x
_atom_site_fract_y
_atom_site_fract_z
O1	O	0.926153	0.087168	-0.063192
O2	O	0.722842	0.098903	-0.063141
O3	O	0.830361	-0.008620	-0.063162
O4	O	0.818634	0.194691	-0.063171
O5	O	0.830342	-0.008625	0.062735
O6	O	0.722823	0.098897	0.062756
O7	O	0.926134	0.087163	0.062704
Cu8	Cu	0.824477	0.093029	0.074226
Cu9	Cu	0.824499	0.093036	-0.074662
O10	O	0.818615	0.194685	0.062726
C11	C	0.696821	0.098520	-0.000186
C12	C	0.619317	0.097379	-0.000166
C13	C	0.574395	0.160470	-0.000180
C14	C	0.501571	0.159398	-0.000188
C15	C	0.473672	0.095232	-0.000197
C16	C	0.518604	0.032133	-0.000179
C17	C	0.591426	0.033207	-0.000163
N18	N	0.365697	0.046187	-0.043074
N19	N	0.296518	0.045172	-0.043091
C20	C	0.254264	0.091994	-0.000244
N21	N	0.283800	0.139881	0.042611
N22	N	0.352984	0.140898	0.042625
C23	C	0.394710	0.094061	-0.000214
C24	C	0.130377	0.153927	-0.000266
C25	C	0.057553	0.152853	-0.000270
C26	C	0.074587	0.025586	-0.000267
C27	C	0.147410	0.026662	-0.000256
C28	C	0.175301	0.090835	-0.000259
C29	C	0.829970	-0.034633	-0.000214
C30	C	0.828827	-0.112138	-0.000214
C31	C	0.820682	-0.665400	0.068397
C32	C	0.821749	-0.592575	0.068401
C33	C	0.822296	-0.556153	-0.000225
C34	C	0.821758	-0.592558	-0.068860
C35	C	0.820684	-0.665380	-0.068862
N36	N	0.863720	-0.447127	-0.051315
N37	N	0.864741	-0.377949	-0.051308
C38	C	0.825530	-0.336744	-0.000223
N39	N	0.785267	-0.367331	0.050867
N40	N	0.784248	-0.436515	0.050862
C41	C	0.823460	-0.477189	-0.000231
C42	C	0.827219	-0.221382	0.068411
C43	C	0.828281	-0.148555	0.068412
C44	C	0.828298	-0.148540	-0.068850
C45	C	0.827228	-0.221364	-0.068849
C46	C	0.826692	-0.257781	-0.000216
C47	C	0.952154	0.087546	-0.000252
C48	C	1.029659	0.088686	-0.000277
C49	C	0.819005	0.220699	-0.000224
C50	C	0.820148	0.298203	-0.000229
N51	N	0.824466	0.093024	0.178945
N52	N	0.824515	0.093036	-0.179381
C53	C	0.872091	0.045437	0.218545
C54	C	0.872095	0.045433	0.297793
C55	C	0.824481	0.093029	0.337437
C56	C	0.776847	0.140621	0.297828
C57	C	0.776840	0.140618	0.218581
N58	N	0.815407	0.154836	0.461855
N59	N	0.815418	0.154837	0.537135
C60	C	0.824499	0.093039	0.576201
N61	N	0.833583	0.031239	0.537143
N62	N	0.833575	0.031240	0.461856
C63	C	0.824483	0.093037	0.423366
C64	C	0.872131	0.045444	0.701731
C65	C	0.872130	0.045440	0.780980
C66	C	0.776886	0.140633	0.781013
C67	C	0.776883	0.140632	0.701765
C68	C	0.824510	0.093038	0.662129
H69	H	0.153087	0.206180	-0.000257
N70	N	0.923452	-0.005900	0.175795
H71	H	0.954279	0.020705	0.142895
H72	H	0.953575	-0.036034	0.212960
H73	H	0.910909	0.006688	0.669458
H74	H	0.828714	-0.118922	0.124298
H75	H	0.464989	0.210775	-0.000198
H76	H	0.738115	0.179384	0.813291
N77	N	0.488510	-0.037071	-0.000190
H78	H	0.504933	-0.064702	-0.046855
H79	H	0.504885	-0.064648	0.046516
N80	N	0.820090	-0.704667	0.142424
H81	H	0.776370	-0.729086	0.145495
H82	H	0.862942	-0.740638	0.145434
N83	N	0.923462	-0.005897	0.340518
H84	H	0.953630	-0.036048	0.303383
H85	H	0.954243	0.020764	0.373375
N86	N	0.820120	-0.704642	-0.142884
H87	H	0.819361	-0.756301	-0.132471
H88	H	0.777038	-0.686122	-0.172841
H89	H	0.828734	-0.118885	-0.124726
H90	H	0.826777	-0.251033	0.124296
H91	H	0.910910	0.006684	0.813223
H92	H	0.020977	0.204231	-0.000277
H93	H	0.051873	-0.026659	-0.000321
N94	N	0.195867	-0.041386	-0.000240
H95	H	0.167146	-0.082199	-0.000246
H96	H	0.226480	-0.043712	-0.046904
H97	H	0.822171	-0.562933	0.124285
N98	N	0.822286	-0.553271	-0.142878
H99	H	0.823030	-0.501612	-0.132464
H100	H	0.865354	-0.571763	-0.172906
N101	N	0.725516	0.191958	0.659048
H102	H	0.695351	0.222110	0.696185
H103	H	0.752143	0.222760	0.626146
N104	N	0.826717	-0.260636	-0.142867
H105	H	0.827246	-0.226517	-0.186342
H106	H	0.869565	-0.296619	-0.145823
H107	H	0.628002	-0.018171	-0.000151
H108	H	0.738078	0.179373	0.330110
N109	N	0.725468	0.191949	0.175871
H110	H	0.733354	0.241484	0.189650
H111	H	0.732713	0.184666	0.119667
N112	N	0.604477	0.229681	-0.000189
H113	H	0.564965	0.269486	-0.000201
H114	H	0.634296	0.232903	0.046487
