data_functionalizedCrystal
_audit_creation_method	'MofGen! by Chris Wilmer'
_symmetry_space_group_name_H-M	'P1'
_symmetry_Int_Tables_number	1
_symmetry_cell_setting	triclinic
loop_
_symmetry_equiv_pos_as_xyz
  x,y,z
_cell_length_a	19.188930
_cell_length_b	10.654550
_cell_length_c	9.730223
_cell_angle_alpha	90.003749
_cell_angle_beta	89.993564
_cell_angle_gamma	96.185159
loop_
_atom_site_label
_atom_site_type_symbol
_atom_site_fract_x
_atom_site_fract_y
_atom_site_fract_z
O1	O	0.098059	-1.665759	-0.114420
O2	O	0.107401	-1.300083	-0.114400
O3	O	0.001144	-1.493474	-0.114384
O4	O	0.204317	-1.472368	-0.114436
O5	O	0.001146	-1.493471	0.114196
O6	O	0.107404	-1.300081	0.114180
O7	O	0.098061	-1.665757	0.114160
Zn8	Zn	0.102733	-1.482918	0.150462
Zn9	Zn	0.102730	-1.482921	-0.150702
O10	O	0.204319	-1.472366	0.114144
C11	C	0.106717	-1.253298	-0.000107
C12	C	0.104664	-1.113898	-0.000098
C13	C	-0.024871	-1.492789	-0.000090
C14	C	-0.102389	-1.490737	-0.000078
C15	C	0.098746	-1.712541	-0.000136
C16	C	0.100798	-1.851941	-0.000154
C17	C	-0.146570	-1.604213	-0.000078
C18	C	-0.219407	-1.602285	-0.000099
C19	C	-0.248058	-1.486876	-0.000094
C20	C	-0.203867	-1.373386	-0.000102
C21	C	-0.131032	-1.375316	-0.000094
N22	N	-0.356639	-1.398658	0.077701
N23	N	-0.425830	-1.396832	0.077696
C24	C	-0.467505	-1.481052	-0.000121
N25	N	-0.437377	-1.567186	-0.077917
N26	N	-0.368180	-1.569016	-0.077906
C27	C	-0.327034	-1.484770	-0.000104
C28	C	-0.590665	-1.592445	-0.000147
C29	C	-0.663502	-1.590513	-0.000177
C30	C	-0.647960	-1.361610	-0.000166
C31	C	-0.575125	-1.363545	-0.000149
C32	C	-0.546481	-1.478966	-0.000133
C33	C	0.230334	-1.473051	-0.000153
C34	C	0.307852	-1.475102	-0.000174
N35	N	0.102735	-1.482925	0.355998
C36	C	0.167227	-1.033089	-0.000134
C37	C	0.165295	-0.902109	-0.000157
C38	C	0.038231	-0.932761	-0.000114
C39	C	0.040164	-1.063738	-0.000081
C40	C	0.231728	-1.083249	-0.000151
C41	C	0.294296	-1.002438	-0.000189
C42	C	0.292363	-0.871458	-0.000212
C43	C	0.227863	-0.821289	-0.000198
N44	N	0.102722	-1.482924	-0.356238
C45	C	0.055700	-1.568581	0.427932
C46	C	0.055692	-1.568577	0.571815
C47	C	0.149759	-1.397260	0.571818
C48	C	0.149764	-1.397258	0.427938
C49	C	0.008672	-1.654248	0.355992
C50	C	-0.038367	-1.739911	0.427925
C51	C	-0.038375	-1.739908	0.571808
C52	C	0.008655	-1.654242	0.643758
H53	H	-0.123254	-1.698197	-0.000069
O54	O	-0.024438	-0.884090	0.000129
C55	C	-0.133649	-0.870234	0.118514
C56	C	-0.062693	-0.925410	0.118435
H57	H	-0.164605	-0.903640	0.214140
H58	H	-0.124326	-0.762735	0.118568
H59	H	-0.164568	-0.903551	0.022824
H60	H	-0.031738	-0.892189	0.214110
H61	H	-0.072066	-1.032903	0.118310
H62	H	-0.076661	-1.809651	0.369336
H63	H	-0.255386	-1.694693	-0.000105
H64	H	0.188064	-1.327509	0.369370
O65	O	0.353203	-0.793136	-0.000303
C66	C	0.479437	-0.776565	-0.000268
C67	C	0.410587	-0.865404	-0.000188
H68	H	0.525850	-0.834957	-0.000146
H69	H	0.481754	-0.714524	-0.095964
H70	H	0.481675	-0.714430	0.095357
H71	H	0.408303	-0.927618	-0.095748
H72	H	0.408299	-0.927358	0.095571
O73	O	-0.084093	-1.823232	0.641473
C74	C	-0.177421	-1.993108	0.626275
C75	C	-0.125673	-1.898823	0.547213
H76	H	-0.211062	-2.054230	0.550101
H77	H	-0.146990	-2.055753	0.693595
H78	H	-0.212555	-1.939068	0.693677
H79	H	-0.090526	-1.952760	0.479737
H80	H	-0.156148	-1.836179	0.479980
O81	O	0.008570	-1.654434	0.783526
C82	C	-0.043093	-1.748363	0.989999
C83	C	-0.043061	-1.748298	0.831718
H84	H	-0.084842	-1.824225	1.029010
H85	H	0.010539	-1.768757	1.029146
H86	H	-0.055028	-1.652076	1.029021
H87	H	-0.031154	-1.844558	0.792579
H88	H	-0.096697	-1.727833	0.792665
O89	O	-0.020626	-1.142196	-0.000299
C90	C	-0.128653	-1.208467	-0.118642
C91	C	-0.059827	-1.119561	-0.118587
H92	H	-0.160373	-1.190180	-0.214253
H93	H	-0.116228	-1.310718	-0.118707
H94	H	-0.160333	-1.190261	-0.022937
H95	H	-0.028113	-1.137654	-0.214276
H96	H	-0.072300	-1.017339	-0.118451
H97	H	-0.567342	-1.686428	-0.000140
H98	H	-0.095058	-1.282908	-0.000094
H99	H	-0.227199	-1.279418	-0.000101
O100	O	-0.532302	-1.253198	-0.000071
C101	C	-0.524576	-1.025959	-0.000139
C102	C	-0.573152	-1.150839	-0.000191
H103	H	-0.557583	-0.943169	-0.000265
H104	H	-0.490111	-1.021054	0.095550
H105	H	-0.490064	-1.021210	-0.095771
H106	H	-0.607707	-1.155671	0.095377
H107	H	-0.607570	-1.155691	-0.095942
H108	H	0.008676	-1.654261	0.238835
O109	O	0.195373	-1.313883	0.641647
C110	C	0.235179	-1.095311	0.685633
C111	C	0.183469	-1.189594	0.606494
H112	H	0.225583	-0.994803	0.657219
H113	H	0.227096	-1.109920	0.800840
H114	H	0.291181	-1.111422	0.657355
H115	H	0.127447	-1.173540	0.634656
H116	H	0.191614	-1.174962	0.491306
H117	H	0.233309	-1.189898	-0.000138
H118	H	-0.699475	-1.682922	-0.000185
H119	H	0.346810	-1.043295	-0.000189
H120	H	-0.671287	-1.267641	-0.000168
H121	H	0.226294	-0.714635	-0.000195
