data_functionalizedCrystal
_audit_creation_method	'MofGen! by Chris Wilmer'
_symmetry_space_group_name_H-M	'P1'
_symmetry_Int_Tables_number	1
_symmetry_cell_setting	triclinic
loop_
_symmetry_equiv_pos_as_xyz
  x,y,z
_cell_length_a	11.026607
_cell_length_b	26.809956
_cell_length_c	11.026607
_cell_angle_alpha	90.000192
_cell_angle_beta	71.413983
_cell_angle_gamma	90.015370
loop_
_atom_site_label
_atom_site_type_symbol
_atom_site_fract_x
_atom_site_fract_y
_atom_site_fract_z
O1	O	1.726754	0.041478	-0.533625
O2	O	1.360174	0.041479	-0.472862
O3	O	1.513083	0.041477	-0.319954
O4	O	1.573846	0.041481	-0.686534
O5	O	1.513022	-0.041482	-0.319940
O6	O	1.360114	-0.041480	-0.472848
O7	O	1.726694	-0.041481	-0.533612
Zn8	Zn	1.543395	-0.054652	-0.503228
Zn9	Zn	1.543474	0.054650	-0.503246
O10	O	1.573786	-0.041479	-0.686520
C11	C	1.312485	-0.000000	-0.461645
C12	C	1.170471	-0.000000	-0.428228
N13	N	1.543349	-0.129248	-0.503217
C14	C	1.116821	0.000001	-0.520498
C15	C	0.970043	0.000001	-0.485962
C16	C	1.637631	-0.473874	-0.597444
C17	C	1.637672	-0.682751	-0.597452
O18	O	1.717797	-0.709755	-0.677546
N19	N	1.543502	-0.708875	-0.503240
C20	C	1.449319	-0.682776	-0.409013
O21	O	1.369230	-0.709789	-0.328872
C22	C	1.449285	-0.473900	-0.409001
C23	C	1.543454	-0.447778	-0.503227
C24	C	1.731793	-0.447752	-0.691662
C25	C	1.731778	-0.395536	-0.691663
C26	C	1.637601	-0.369441	-0.597446
C27	C	1.543438	-0.395562	-0.503228
C28	C	1.355109	-0.447802	-0.314770
C29	C	1.355110	-0.395579	-0.314774
C30	C	1.449279	-0.369458	-0.409000
C31	C	1.449246	-0.317251	-0.409013
N32	N	1.543416	-0.291127	-0.503225
C33	C	1.637593	-0.317222	-0.597442
C34	C	1.449343	-0.792440	-0.409028
C35	C	1.449350	-0.844659	-0.409032
C36	C	1.637704	-0.844630	-0.597470
C37	C	1.637691	-0.792410	-0.597470
C38	C	1.543513	-0.766316	-0.503241
C39	C	1.637554	-0.207564	-0.597438
C40	C	1.637527	-0.155343	-0.597434
C41	C	1.449177	-0.155376	-0.408993
C42	C	1.449199	-0.207593	-0.409000
C43	C	1.543398	-0.233685	-0.503229
O44	O	1.369171	-0.290215	-0.328953
O45	O	1.717687	-0.290200	-0.677555
C46	C	1.637646	-0.526090	-0.597443
C47	C	1.543484	-0.552211	-0.503225
C48	C	1.449307	-0.526116	-0.409008
C49	C	1.543491	-0.604430	-0.503229
C50	C	1.637669	-0.630525	-0.597446
C51	C	1.731839	-0.604401	-0.691659
C52	C	1.731824	-0.552185	-0.691660
C53	C	1.355136	-0.552240	-0.314796
C54	C	1.355158	-0.604456	-0.314803
C55	C	1.449336	-0.630551	-0.409020
C56	C	1.774384	-0.000000	-0.544828
C57	C	1.916398	0.000003	-0.578245
C58	C	1.501843	-0.000002	-0.272287
C59	C	1.468426	-0.000000	-0.130273
N60	N	1.543527	0.129246	-0.503249
C61	C	1.585026	0.000001	-0.734187
C62	C	1.618443	0.000003	-0.876200
C63	C	1.560695	0.000000	-0.076624
C64	C	1.526160	0.000002	0.070155
H65	H	1.179555	-0.000001	-0.625061
H66	H	1.723013	0.000040	0.061072
H67	H	1.665258	-0.000003	-0.139357
O68	O	1.728977	-0.130025	-0.689135
C69	C	1.825536	-0.114022	-0.914508
C70	C	1.721937	-0.142731	-0.810796
H71	H	1.819862	-0.124276	-1.012893
H72	H	1.924015	-0.124285	-0.909120
H73	H	1.809368	-0.072219	-0.898275
H74	H	1.737984	-0.184541	-0.826961
H75	H	1.623494	-0.132426	-0.816211
O76	O	1.095696	-0.000089	-0.303463
C77	C	1.037255	-0.043051	-0.101044
C78	C	1.121986	-0.043020	-0.242324
H79	H	1.058500	-0.077752	-0.051565
H80	H	0.932189	-0.043083	-0.095340
H81	H	1.058413	-0.008317	-0.051613
H82	H	1.100941	-0.077748	-0.291842
H83	H	1.227027	-0.042962	-0.247936
O84	O	1.401360	-0.000062	0.144845
C85	C	1.198955	-0.043054	0.203383
C86	C	1.340251	-0.043037	0.118699
H87	H	1.149514	-0.077801	0.182293
H88	H	1.149414	-0.008359	0.182209
H89	H	1.193360	-0.043027	0.308418
H90	H	1.345963	-0.043081	0.013637
H91	H	1.389729	-0.077729	0.139983
O92	O	1.729219	-0.232851	-0.688940
C93	C	1.954579	-0.248805	-0.785653
C94	C	1.850910	-0.220129	-0.681987
H95	H	2.052988	-0.238538	-0.780049
H96	H	1.949112	-0.238526	-0.884100
H97	H	1.938369	-0.290614	-0.769496
H98	H	1.867052	-0.178314	-0.698023
H99	H	1.856404	-0.230449	-0.583577
H100	H	1.363863	0.000003	-0.067540
O101	O	0.991079	0.000072	-0.703048
C102	C	1.049599	0.043073	-0.905417
C103	C	0.964934	0.043049	-0.764115
H104	H	1.028511	0.077822	-0.954824
H105	H	1.028406	0.008381	-0.954981
H106	H	1.154639	0.043049	-0.911029
H107	H	0.859867	0.043091	-0.758386
H108	H	0.986237	0.077739	-0.714614
O109	O	0.895352	0.000068	-0.361163
C110	C	0.836862	0.043062	-0.158802
C111	C	0.921546	0.043043	-0.300098
H112	H	0.857990	0.077808	-0.109397
H113	H	0.857998	0.008367	-0.109225
H114	H	0.731827	0.043037	-0.153207
H115	H	1.026608	0.043084	-0.305811
H116	H	0.900300	0.077734	-0.349612
O117	O	1.823390	-0.370243	-0.783246
C118	C	2.010177	-0.375745	-0.970182
C119	C	1.906509	-0.404447	-0.866521
H120	H	2.077390	-0.403387	-1.037553
H121	H	2.066970	-0.351306	-0.922996
H122	H	1.962854	-0.351290	-1.026792
H123	H	1.953728	-0.428930	-0.809877
H124	H	1.849725	-0.428855	-0.913785
O125	O	1.823390	-0.473118	-0.783036
C126	C	1.997062	-0.532063	-0.828129
C127	C	1.893403	-0.503365	-0.724506
H128	H	2.053678	-0.556532	-0.780845
H129	H	2.064438	-0.504437	-0.895448
H130	H	1.949740	-0.556492	-0.884815
H131	H	1.940614	-0.478935	-0.667727
H132	H	1.826037	-0.531018	-0.657275
H133	H	1.372506	-0.228862	-0.332286
O134	O	1.729296	-0.767115	-0.689056
C135	C	1.916068	-0.772613	-0.876008
C136	C	1.812411	-0.801317	-0.772343
H137	H	1.983278	-0.800252	-0.943389
H138	H	1.972867	-0.748173	-0.828828
H139	H	1.868733	-0.748156	-0.932606
H140	H	1.859641	-0.825801	-0.715710
H141	H	1.755622	-0.825725	-0.819602
H142	H	1.808506	-0.530922	-0.768389
O143	O	1.357971	-0.870008	-0.317352
C144	C	1.261312	-0.885968	-0.091970
C145	C	1.364870	-0.857240	-0.195677
H146	H	1.266838	-0.875648	0.006429
H147	H	1.277471	-0.927780	-0.108038
H148	H	1.162890	-0.875718	-0.097531
H149	H	1.463335	-0.867449	-0.190177
H150	H	1.348599	-0.815436	-0.179575
O151	O	1.357677	-0.767122	-0.317597
C152	C	1.132297	-0.751225	-0.220824
C153	C	1.235988	-0.779914	-0.324439
H154	H	1.033886	-0.761565	-0.226303
H155	H	1.148326	-0.709407	-0.236962
H156	H	1.137919	-0.761492	-0.122428
H157	H	1.230427	-0.769689	-0.422877
H158	H	1.219925	-0.821724	-0.308188
H159	H	1.278463	-0.625720	-0.238073
O160	O	1.263580	-0.473093	-0.223108
C161	C	1.076736	-0.467594	-0.036228
C162	C	1.180337	-0.438890	-0.139950
H163	H	1.009392	-0.439954	0.031017
H164	H	1.123981	-0.492018	0.020519
H165	H	1.020084	-0.492065	-0.083496
H166	H	1.237023	-0.414392	-0.092786
H167	H	1.133014	-0.414497	-0.196687
O168	O	1.263584	-0.370178	-0.223405
C169	C	1.089819	-0.311276	-0.178341
C170	C	1.193436	-0.340001	-0.281942
H171	H	1.033059	-0.286880	-0.225628
H172	H	1.137051	-0.286786	-0.121693
H173	H	1.022578	-0.338929	-0.110987
H174	H	1.260710	-0.312384	-0.349382
H175	H	1.146119	-0.364499	-0.338495
O176	O	1.357573	-0.130100	-0.317412
C177	C	1.170814	-0.135624	-0.130443
C178	C	1.274455	-0.164314	-0.234107
H179	H	1.103602	-0.163274	-0.063048
H180	H	1.114015	-0.111198	-0.177623
H181	H	1.218165	-0.111157	-0.073861
H182	H	1.227210	-0.188809	-0.290724
H183	H	1.331245	-0.188709	-0.186849
O184	O	1.823222	-0.629733	-0.783339
C185	C	1.919899	-0.645691	-1.008710
C186	C	1.816336	-0.616978	-0.905026
H187	H	1.914384	-0.635381	-1.107118
H188	H	1.903735	-0.687505	-0.992620
H189	H	2.018318	-0.635417	-1.003145
H190	H	1.717873	-0.627210	-0.910530
H191	H	1.832612	-0.575171	-0.921149
H192	H	1.714383	-0.865885	-0.674189
H193	H	1.278446	-0.530998	-0.238069
