data_functionalizedCrystal
_audit_creation_method	'MofGen! by Chris Wilmer'
_symmetry_space_group_name_H-M	'P1'
_symmetry_Int_Tables_number	1
_symmetry_cell_setting	triclinic
loop_
_symmetry_equiv_pos_as_xyz
  x,y,z
_cell_length_a	13.032831
_cell_length_b	19.805405
_cell_length_c	19.805399
_cell_angle_alpha	90.029301
_cell_angle_beta	97.189586
_cell_angle_gamma	82.830509
loop_
_atom_site_label
_atom_site_type_symbol
_atom_site_fract_x
_atom_site_fract_y
_atom_site_fract_z
Zn1	Zn	-1.597580	0.401093	-0.513861
Zn2	Zn	-1.097580	0.901093	-0.013861
Zn3	Zn	-1.597448	0.514271	-0.400659
Zn4	Zn	-1.097448	1.014271	0.099341
Zn5	Zn	-1.422827	0.386715	-0.386340
Zn6	Zn	-0.922827	0.886715	0.113660
Zn7	Zn	-1.422771	0.499844	-0.499466
Zn8	Zn	-0.922771	0.999844	0.000534
O9	O	-1.510157	0.450481	-0.450082
O10	O	-1.010157	0.950481	0.049918
O11	O	-1.743800	0.428162	-0.510862
O12	O	-1.243800	0.928162	-0.010862
O13	O	-1.574253	0.497371	-0.304040
O14	O	-1.074253	0.997371	0.195960
O15	O	-1.446087	0.293913	-0.403288
O16	O	-0.946087	0.793913	0.096712
O17	O	-1.743703	0.511313	-0.427692
O18	O	-1.243703	1.011313	0.072308
O19	O	-1.574477	0.304476	-0.496977
O20	O	-1.074477	0.804476	0.003023
O21	O	-1.445960	0.403656	-0.293520
O22	O	-0.945960	0.903656	0.206480
O23	O	-1.276582	0.389667	-0.389329
O24	O	-0.776582	0.889667	0.110671
O25	O	-1.445991	0.486725	-0.596095
O26	O	-0.945991	0.986725	-0.096095
O27	O	-1.276541	0.472783	-0.472442
O28	O	-0.776541	0.972783	0.027558
O29	O	-1.574423	0.414173	-0.606671
O30	O	-1.074423	0.914173	-0.106671
O31	O	-1.574198	0.607067	-0.413734
O32	O	-1.074198	1.107067	0.086266
O33	O	-1.445864	0.596468	-0.486327
O34	O	-0.945864	1.096468	0.013673
C35	C	-1.238644	0.428100	-0.427770
C36	C	-0.738644	0.928100	0.072230
C37	C	-1.122489	0.418541	-0.418242
C38	C	-0.622489	0.918541	0.081758
C39	C	-1.510039	0.626327	-0.450039
C40	C	-1.010039	1.126327	0.049961
C41	C	-1.510084	0.701563	-0.450051
C42	C	-1.010084	1.201563	0.049949
C43	C	-1.782730	0.472950	-0.472480
C44	C	-1.282730	0.972950	0.027520
C45	C	-1.898884	0.482525	-0.482025
C46	C	-1.398884	0.982525	0.017975
C47	C	-1.070711	0.455470	-0.455055
C48	C	-0.570711	0.955470	0.044945
C49	C	-0.950660	0.445592	-0.445207
C50	C	-0.450660	0.945592	0.054793
C51	C	-1.510215	0.450443	-0.626629
C52	C	-1.010215	0.950443	-0.126629
C53	C	-1.510240	0.450427	-0.701863
C54	C	-1.010240	0.950427	-0.201863
C55	C	-1.510303	0.273950	-0.450141
C56	C	-1.010303	0.773950	0.049859
C57	C	-1.510366	0.198724	-0.450167
C58	C	-1.010366	0.698724	0.049833
C59	C	-1.576973	0.742409	-0.412303
C60	C	-1.076973	1.242409	0.087697
C61	C	-1.577018	0.813101	-0.412321
C62	C	-1.077018	1.313101	0.087679
C63	C	-1.510167	0.842945	-0.450085
C64	C	-1.010167	1.342945	0.049915
C65	C	-1.443275	0.802094	-0.487838
C66	C	-0.943275	1.302094	0.012162
C67	C	-1.443237	0.731404	-0.487823
C68	C	-0.943237	1.231404	0.012177
C69	C	-1.443429	1.087180	-0.487901
C70	C	-0.943429	1.587180	0.012099
C71	C	-1.443471	1.157876	-0.487912
C72	C	-0.943471	1.657876	0.012088
C73	C	-1.577210	1.168877	-0.412400
C74	C	-1.077210	1.668877	0.087600
C75	C	-1.577172	1.098187	-0.412384
C76	C	-1.077172	1.598187	0.087616
C77	C	-1.510284	1.057342	-0.450140
C78	C	-1.010284	1.557342	0.049860
C79	C	-1.510238	0.980690	-0.450120
C80	C	-1.010238	1.480690	0.049880
C81	C	-1.510207	0.919596	-0.450101
C82	C	-1.010207	1.419596	0.049899
C83	C	-1.577116	0.412647	-0.742716
C84	C	-1.077116	0.912647	-0.242716
C85	C	-1.577127	0.412629	-0.813405
C86	C	-1.077127	0.912629	-0.313405
C87	C	-1.510266	0.450394	-0.843241
C88	C	-1.010266	0.950394	-0.343241
C89	C	-1.443383	0.488175	-0.802383
C90	C	-0.943383	0.988175	-0.302383
C91	C	-1.443368	0.488190	-0.731695
C92	C	-0.943368	0.988190	-0.231695
C93	C	-1.443442	0.488117	-1.087461
C94	C	-0.943442	0.988117	-0.587461
C95	C	-1.443465	0.488101	-1.158155
C96	C	-0.943465	0.988101	-0.658155
C97	C	-1.577201	0.412556	-1.169172
C98	C	-1.077201	0.912556	-0.669172
C99	C	-1.577186	0.412570	-1.098483
C100	C	-1.077186	0.912570	-0.598483
C101	C	-1.510299	0.450348	-1.057631
C102	C	-1.010299	0.950348	-0.557631
C103	C	-1.510287	0.450367	-0.980982
C104	C	-1.010287	0.950367	-0.480982
C105	C	-1.510283	0.450379	-0.919890
C106	C	-1.010283	0.950379	-0.419890
C107	C	-1.510158	0.450475	-0.274226
C108	C	-1.010158	0.950475	0.225774
C109	C	-1.510336	0.450317	-0.199009
C110	C	-1.010336	0.950317	0.300991
H111	H	-1.115260	0.494396	-0.493864
H112	H	-0.615260	0.994396	0.006136
H113	H	-1.388940	0.518921	-0.826681
H114	H	-0.888940	1.018921	-0.326681
C115	C	-1.650513	0.709587	-0.370757
C116	C	-1.150513	1.209587	0.129243
N117	N	-1.705908	0.684868	-0.339465
N118	N	-1.205908	1.184868	0.160535
H119	H	-1.388771	0.698147	-0.518563
H120	H	-0.888771	1.198147	-0.018563
H121	H	-1.388994	0.518889	-1.054209
H122	H	-0.888994	1.018889	-0.554209
C123	C	-1.650668	0.371101	-0.709903
C124	C	-1.150668	0.871101	-0.209903
N125	N	-1.706066	0.339804	-0.685190
N126	N	-1.206066	0.839804	-0.185190
C127	C	-0.890486	0.392996	-0.392777
C128	C	-0.390486	0.892996	0.107223
N129	N	-0.845161	0.353382	-0.353286
N130	N	-0.345161	0.853382	0.146714
C131	C	-0.959056	0.535121	-0.534457
C132	C	-0.459056	1.035121	-0.034457
N133	N	-1.004378	0.574736	-0.573947
N134	N	-0.504378	1.074736	-0.073947
H135	H	-1.388849	0.826399	-0.518590
H136	H	-0.888849	1.326399	-0.018590
H137	H	-1.077941	0.379610	-0.379437
H138	H	-0.577941	0.879610	0.120563
C139	C	-1.650697	0.371069	-0.858340
C140	C	-1.150697	0.871069	-0.358340
N141	N	-1.706114	0.339764	-0.892185
N142	N	-1.206114	0.839764	-0.392185
C143	C	-1.650594	0.858028	-0.370790
C144	C	-1.150594	1.358028	0.129210
N145	N	-1.706013	0.891867	-0.339506
N146	N	-1.206013	1.391867	0.160494
C147	C	-1.650703	1.065362	-0.370834
C148	C	-1.150703	1.565362	0.129166
N149	N	-1.706088	1.040639	-0.339538
N150	N	-1.206088	1.540639	0.160462
H151	H	-1.631634	0.381820	-1.074195
H152	H	-1.131634	0.881820	-0.574195
H153	H	-1.631677	1.202142	-0.381660
H154	H	-1.131677	1.702142	0.118340
H155	H	-1.389034	1.182172	-0.518669
H156	H	-0.889034	1.682172	-0.018669
C157	C	-1.650765	0.370989	-1.214114
C158	C	-1.150765	0.870989	-0.714114
N159	N	-1.706172	0.339682	-1.247964
N160	N	-1.206172	0.839682	-0.747964
C161	C	-1.369902	0.529643	-1.190972
C162	C	-0.869902	1.029643	-0.690972
N163	N	-1.314497	0.560930	-1.215690
N164	N	-0.814497	1.060930	-0.715690
H165	H	-1.388966	1.053930	-0.518642
H166	H	-0.888966	1.553930	-0.018642
C167	C	-1.369801	0.529752	-0.686757
C168	C	-0.869801	1.029752	-0.186757
N169	N	-1.314387	0.561056	-0.652911
N170	N	-0.814387	1.061056	-0.152911
