data_functionalizedCrystal
_audit_creation_method	'MofGen! by Chris Wilmer'
_symmetry_space_group_name_H-M	'P1'
_symmetry_Int_Tables_number	1
_symmetry_cell_setting	triclinic
loop_
_symmetry_equiv_pos_as_xyz
  x,y,z
_cell_length_a	19.288864
_cell_length_b	19.288865
_cell_length_c	17.766277
_cell_angle_alpha	89.988397
_cell_angle_beta	90.023209
_cell_angle_gamma	96.863755
loop_
_atom_site_label
_atom_site_type_symbol
_atom_site_fract_x
_atom_site_fract_y
_atom_site_fract_z
O1	O	0.921353	-0.086649	0.062844
O2	O	1.254686	0.246685	0.396177
O3	O	1.588020	0.580018	0.729511
O4	O	0.719092	-0.098337	0.062794
O5	O	1.052426	0.234996	0.396127
O6	O	1.385759	0.568329	0.729461
O7	O	0.826067	0.008637	0.062806
O8	O	1.159400	0.341971	0.396139
O9	O	1.492734	0.675304	0.729472
O10	O	0.814378	-0.193623	0.062832
O11	O	1.147712	0.139710	0.396166
O12	O	1.481045	0.473043	0.729499
O13	O	0.826048	0.008643	-0.062383
O14	O	1.159382	0.341976	0.270950
O15	O	1.492715	0.675309	0.604284
O16	O	0.719074	-0.098332	-0.062395
O17	O	1.052407	0.235001	0.270939
O18	O	1.385740	0.568335	0.604272
O19	O	0.921334	-0.086643	-0.062344
O20	O	1.254668	0.246690	0.270989
O21	O	1.588001	0.580023	0.604322
Cu22	Cu	0.820202	-0.092487	-0.073800
Cu23	Cu	1.153536	0.240846	0.259533
Cu24	Cu	1.486869	0.574179	0.592866
Cu25	Cu	0.820224	-0.092494	0.074250
Cu26	Cu	1.153558	0.240840	0.407583
Cu27	Cu	1.486891	0.574173	0.740916
O28	O	0.814360	-0.193618	-0.062356
O29	O	1.147693	0.139715	0.270977
O30	O	1.481026	0.473049	0.604311
C31	C	0.693207	-0.097959	0.000193
C32	C	1.026540	0.235375	0.333526
C33	C	1.359873	0.568708	0.666860
C34	C	0.616103	-0.096830	0.000173
C35	C	0.949436	0.236504	0.333506
C36	C	1.282770	0.569837	0.666840
N37	N	0.820192	-0.092482	-0.177931
N38	N	1.153525	0.240851	0.155403
N39	N	1.486858	0.574184	0.488736
C40	C	0.571407	-0.159598	0.000193
C41	C	0.904740	0.173736	0.333527
C42	C	1.238073	0.507069	0.666860
C43	C	0.498960	-0.158537	0.000201
C44	C	0.832293	0.174796	0.333535
C45	C	1.165626	0.508130	0.666868
C46	C	0.471212	-0.094705	0.000205
C47	C	0.804545	0.238629	0.333538
C48	C	1.137879	0.571962	0.666871
C49	C	0.515918	-0.031929	0.000180
C50	C	0.849252	0.301405	0.333513
C51	C	1.182585	0.634738	0.666847
C52	C	0.588364	-0.032991	0.000164
C53	C	0.921697	0.300342	0.333498
C54	C	1.255030	0.633676	0.666831
C55	C	0.362957	-0.044527	0.044082
C56	C	0.696290	0.288806	0.377416
C57	C	1.029623	0.622139	0.710749
C58	C	0.290512	-0.043468	0.044103
C59	C	0.623846	0.289866	0.377436
C60	C	0.957179	0.623199	0.710769
C61	C	0.247767	-0.091425	0.000250
C62	C	0.581100	0.241908	0.333583
C63	C	0.914433	0.575242	0.666916
C64	C	0.277473	-0.140454	-0.043614
C65	C	0.610806	0.192879	0.289719
C66	C	0.944139	0.526212	0.623053
C67	C	0.349918	-0.141517	-0.043630
C68	C	0.683251	0.191817	0.289704
C69	C	1.016585	0.525150	0.623037
C70	C	0.392658	-0.093546	0.000221
C71	C	0.725991	0.239788	0.333554
C72	C	1.059325	0.573121	0.666888
C73	C	0.124514	-0.153047	0.000278
C74	C	0.457848	0.180286	0.333611
C75	C	0.791181	0.513619	0.666944
C76	C	0.052066	-0.151984	0.000281
C77	C	0.385400	0.181349	0.333614
C78	C	0.718733	0.514683	0.666948
C79	C	0.069026	-0.025374	0.000267
C80	C	0.402360	0.307960	0.333601
C81	C	0.735693	0.641293	0.666934
C82	C	0.141473	-0.026439	0.000256
C83	C	0.474806	0.306894	0.333590
C84	C	0.808140	0.640228	0.666923
C85	C	0.169212	-0.090278	0.000265
C86	C	0.502546	0.243056	0.333598
C87	C	0.835879	0.576389	0.666932
C88	C	0.947220	-0.087022	0.000258
C89	C	1.280554	0.246311	0.333592
C90	C	1.613887	0.579645	0.666925
C91	C	1.024324	-0.088151	0.000283
C92	C	1.357657	0.245182	0.333616
C93	C	1.690990	0.578516	0.666950
C94	C	0.825682	0.034516	0.000209
C95	C	1.159015	0.367850	0.333542
C96	C	1.492348	0.701183	0.666876
C97	C	0.824553	0.111620	0.000202
C98	C	1.157886	0.444953	0.333535
C99	C	1.491219	0.778287	0.666869
C100	C	0.814745	-0.219497	0.000242
C101	C	1.148078	0.113836	0.333576
C102	C	1.481412	0.447169	0.666909
C103	C	0.815874	-0.296601	0.000254
C104	C	1.149207	0.036733	0.333587
C105	C	1.482541	0.370066	0.666921
C106	C	0.887321	0.156316	0.000214
C107	C	1.220654	0.489650	0.333547
C108	C	1.553987	0.822983	0.666881
C109	C	0.886260	0.228763	0.000226
C110	C	1.219593	0.562097	0.333559
C111	C	1.552927	0.895430	0.666892
C112	C	0.822428	0.256511	0.000210
C113	C	1.155761	0.589844	0.333544
C114	C	1.489094	0.923178	0.666877
C115	C	0.759652	0.211805	0.000203
C116	C	1.092985	0.545138	0.333536
C117	C	1.426318	0.878471	0.666869
C118	C	0.760714	0.139359	0.000198
C119	C	1.094047	0.472693	0.333532
C120	C	1.427381	0.806026	0.666865
C121	C	0.772242	0.364800	-0.043653
C122	C	1.105575	0.698133	0.289680
C123	C	1.438908	1.031467	0.623014
C124	C	0.771182	0.437245	-0.043654
C125	C	1.104515	0.770578	0.289680
C126	C	1.437848	1.103911	0.623013
C127	C	0.819148	0.479956	0.000226
C128	C	1.152481	0.813290	0.333560
C129	C	1.485815	1.146623	0.666893
C130	C	0.868186	0.450216	0.044097
C131	C	1.201519	0.783550	0.377430
C132	C	1.534853	1.116883	0.710764
C133	C	0.869249	0.377771	0.044093
C134	C	1.202582	0.711104	0.377426
C135	C	1.535915	1.044438	0.710760
C136	C	0.821269	0.335065	0.000215
C137	C	1.154602	0.668398	0.333548
C138	C	1.487935	1.001732	0.666882
C139	C	0.880770	0.603209	0.000252
C140	C	1.214104	0.936542	0.333585
C141	C	1.547437	1.269875	0.666919
C142	C	0.879707	0.675657	0.000268
C143	C	1.213040	1.008990	0.333602
C144	C	1.546374	1.342323	0.666935
C145	C	0.753097	0.658697	0.000238
C146	C	1.086430	0.992030	0.333571
C147	C	1.419763	1.325363	0.666904
C148	C	0.754162	0.586250	0.000229
C149	C	1.087495	0.919583	0.333562
C150	C	1.420829	1.252917	0.666895
C151	C	0.818001	0.558511	0.000232
C152	C	1.151334	0.891844	0.333566
C153	C	1.484667	1.225177	0.666899
C154	C	0.867575	-0.045137	-0.217312
C155	C	1.200909	0.288196	0.116021
C156	C	1.534242	0.621530	0.449354
C157	C	0.867579	-0.045134	-0.296114
C158	C	1.200913	0.288200	0.037219
C159	C	1.534246	0.621533	0.370553
C160	C	0.820206	-0.092488	-0.335531
C161	C	1.153540	0.240846	-0.002198
C162	C	1.486873	0.574179	0.331136
C163	C	0.772814	-0.139837	-0.296140
C164	C	1.106147	0.193497	0.037193
C165	C	1.439481	0.526830	0.370527
C166	C	0.772807	-0.139834	-0.217340
C167	C	1.106140	0.193499	0.115994
C168	C	1.439473	0.526833	0.449327
C169	C	0.810908	-0.155775	-0.460362
C170	C	1.144241	0.177558	-0.127029
C171	C	1.477574	0.510891	0.206305
C172	C	0.810920	-0.155779	-0.539161
C173	C	1.144253	0.177554	-0.205828
C174	C	1.477586	0.510888	0.127506
C175	C	0.820225	-0.092496	-0.578577
C176	C	1.153558	0.240837	-0.245244
C177	C	1.486892	0.574171	0.088089
C178	C	0.829533	-0.029207	-0.539185
C179	C	1.162866	0.304127	-0.205852
C180	C	1.496199	0.637460	0.127481
C181	C	0.829525	-0.029204	-0.460385
C182	C	1.162859	0.304129	-0.127052
C183	C	1.496192	0.637463	0.206282
C184	C	0.820209	-0.092496	-0.420977
C185	C	1.153542	0.240838	-0.087643
C186	C	1.486875	0.574171	0.245690
C187	C	0.867616	-0.045143	-0.703405
C188	C	1.200949	0.288190	-0.370072
C189	C	1.534282	0.621523	-0.036738
C190	C	0.867615	-0.045139	-0.782208
C191	C	1.200948	0.288194	-0.448875
C192	C	1.534281	0.621527	-0.115542
C193	C	0.772853	-0.139848	-0.782233
C194	C	1.106186	0.193485	-0.448899
C195	C	1.439519	0.526818	-0.115566
C196	C	0.772850	-0.139846	-0.703431
C197	C	1.106183	0.193487	-0.370098
C198	C	1.439517	0.526820	-0.036764
C199	C	0.820235	-0.092495	-0.664022
C200	C	1.153569	0.240839	-0.330689
C201	C	1.486902	0.574172	0.002645
N202	N	0.820241	-0.092493	0.178380
N203	N	1.153574	0.240840	0.511713
N204	N	1.486907	0.574174	0.845047
H205	H	0.593987	-0.211580	0.000202
H206	H	0.927320	0.121753	0.333535
H207	H	1.260654	0.455087	0.666868
H208	H	0.803345	-0.207313	-0.571228
H209	H	1.136679	0.126020	-0.237895
H210	H	1.470012	0.459354	0.095439
H211	H	0.177866	0.024674	0.000244
H212	H	0.511199	0.358007	0.333577
H213	H	0.844533	0.691340	0.666911
H214	H	0.707679	0.234401	0.000192
H215	H	1.041012	0.567735	0.333525
H216	H	1.374346	0.901068	0.666858
H217	H	0.374102	-0.181436	-0.079347
H218	H	0.707435	0.151898	0.253986
H219	H	1.040769	0.485231	0.587319
Br220	Br	0.675522	0.078695	0.000184
Br221	Br	1.008856	0.412029	0.333518
Br222	Br	1.342189	0.745362	0.666851
H223	H	0.266331	-0.003548	0.079822
H224	H	0.599664	0.329785	0.413155
H225	H	0.932998	0.663119	0.746489
Br226	Br	0.162165	-0.239683	0.000284
Br227	Br	0.495498	0.093651	0.333617
Br228	Br	0.828832	0.426984	0.666951
Br229	Br	0.708553	-0.204108	-0.835721
Br230	Br	1.041886	0.129226	-0.502387
Br231	Br	1.375219	0.462559	-0.169054
H232	H	0.734241	-0.178392	-0.328237
H233	H	1.067574	0.154941	0.005096
H234	H	1.400908	0.488275	0.338429
Br235	Br	0.931890	0.019127	-0.349570
Br236	Br	1.265224	0.352460	-0.016237
Br237	Br	1.598557	0.685794	0.317096
H238	H	0.930822	0.712049	0.000282
H239	H	1.264156	1.045382	0.333615
H240	H	1.597489	1.378715	0.666949
H241	H	0.907245	0.484991	0.079829
H242	H	1.240578	0.818325	0.413162
H243	H	1.573911	1.151658	0.746495
H244	H	0.906198	-0.006585	-0.671317
H245	H	1.239531	0.326749	-0.337984
H246	H	1.572864	0.660082	-0.004650
Br247	Br	-0.008596	-0.237177	0.000302
Br248	Br	0.324737	0.096157	0.333635
Br249	Br	0.658071	0.429490	0.666969
Br250	Br	0.420962	0.020566	0.103600
Br251	Br	0.754296	0.353899	0.436934
Br252	Br	1.087629	0.687232	0.770267
H253	H	0.803318	-0.207311	-0.428276
H254	H	1.136651	0.126022	-0.094942
H255	H	1.469985	0.459355	0.238391
H256	H	0.734220	-0.178389	-0.185274
H257	H	1.067554	0.154945	0.148059
H258	H	1.400887	0.488278	0.481392
H259	H	0.734269	-0.178402	-0.671364
H260	H	1.067602	0.154931	-0.338031
H261	H	1.400935	0.488265	-0.004697
H262	H	0.242670	-0.179505	-0.079324
H263	H	0.576004	0.153828	0.254009
H264	H	0.909337	0.487161	0.587343
Br265	Br	0.438288	-0.243728	0.000224
Br266	Br	0.771622	0.089606	0.333558
Br267	Br	1.104955	0.422939	0.666891
Br268	Br	0.935793	0.337410	0.103632
Br269	Br	1.269126	0.670744	0.436965
Br270	Br	1.602460	1.004077	0.770299
H271	H	0.046435	0.026600	0.000317
H272	H	0.379769	0.359933	0.333650
H273	H	0.713102	0.693266	0.666983
Br274	Br	0.931880	0.019126	-0.163828
Br275	Br	1.265213	0.352459	0.169505
Br276	Br	1.598546	0.685793	0.502839
H277	H	0.493322	0.020044	0.000193
H278	H	0.826655	0.353377	0.333526
H279	H	1.159988	0.686711	0.666860
H280	H	0.624756	0.018124	0.000148
H281	H	0.958090	0.351457	0.333482
H282	H	1.291423	0.684790	0.666815
H283	H	0.939303	0.133736	0.000220
H284	H	1.272636	0.467069	0.333553
H285	H	1.605970	0.800403	0.666886
H286	H	0.937375	0.265162	0.000238
H287	H	1.270708	0.598495	0.333572
H288	H	1.604041	0.931829	0.666905
Br289	Br	0.967406	0.565558	0.000249
Br290	Br	1.300739	0.898891	0.333582
Br291	Br	1.634072	1.232225	0.666916
Br292	Br	0.666466	0.696346	0.000224
Br293	Br	0.999799	1.029679	0.333558
Br294	Br	1.333132	1.363012	0.666891
H295	H	0.703049	0.549857	0.000215
H296	H	1.036383	0.883190	0.333548
H297	H	1.369716	1.216524	0.666881
Br298	Br	0.842150	0.056684	-0.406926
Br299	Br	1.175483	0.390017	-0.073593
Br300	Br	1.508817	0.723350	0.259740
Br301	Br	0.704636	0.477599	-0.103196
Br302	Br	1.037969	0.810933	0.230137
Br303	Br	1.371303	1.144266	0.563470
H304	H	0.733180	0.330029	-0.079389
H305	H	1.066513	0.663363	0.253944
H306	H	1.399847	0.996696	0.587277
H307	H	0.837110	0.022324	-0.571277
H308	H	1.170443	0.355658	-0.237943
H309	H	1.503776	0.688991	0.095390
H310	H	0.906198	-0.006581	-0.814274
H311	H	1.239531	0.326752	-0.480940
H312	H	1.572865	0.660085	-0.147607
