data_functionalizedCrystal
_audit_creation_method	'MofGen! by Chris Wilmer'
_symmetry_space_group_name_H-M	'P1'
_symmetry_Int_Tables_number	1
_symmetry_cell_setting	triclinic
loop_
_symmetry_equiv_pos_as_xyz
  x,y,z
_cell_length_a	17.077404
_cell_length_b	18.215405
_cell_length_c	17.077396
_cell_angle_alpha	90.028580
_cell_angle_beta	90.019501
_cell_angle_gamma	90.022957
loop_
_atom_site_label
_atom_site_type_symbol
_atom_site_fract_x
_atom_site_fract_y
_atom_site_fract_z
Zn1	Zn	1.200055	-0.292980	0.443842
Zn2	Zn	1.533389	0.040353	0.777176
Zn3	Zn	1.866722	0.373687	1.110509
Zn4	Zn	1.199963	-0.416053	0.312576
Zn5	Zn	1.533296	-0.082720	0.645909
Zn6	Zn	1.866630	0.250613	0.979243
Zn7	Zn	1.068787	-0.293006	0.312590
Zn8	Zn	1.402121	0.040328	0.645923
Zn9	Zn	1.735454	0.373661	0.979257
Zn10	Zn	1.068756	-0.416010	0.443800
Zn11	Zn	1.402089	-0.082676	0.777133
Zn12	Zn	1.735422	0.250657	1.110466
O13	O	1.134390	-0.354512	0.378202
O14	O	1.467724	-0.021179	0.711535
O15	O	1.801057	0.312155	1.044869
O16	O	1.309890	-0.309313	0.426441
O17	O	1.643223	0.024020	0.759775
O18	O	1.976557	0.357353	1.093108
O19	O	1.182537	-0.399760	0.202731
O20	O	1.515870	-0.066427	0.536064
O21	O	1.849203	0.266907	0.869398
O22	O	1.086252	-0.190018	0.330025
O23	O	1.419586	0.143315	0.663358
O24	O	1.752919	0.476649	0.996691
O25	O	1.309822	-0.399735	0.330001
O26	O	1.643155	-0.066402	0.663334
O27	O	1.976489	0.266932	0.996667
O28	O	1.182694	-0.189999	0.426455
O29	O	1.516028	0.143334	0.759788
O30	O	1.849361	0.476668	1.093122
O31	O	1.086163	-0.309357	0.202741
O32	O	1.419496	0.023976	0.536075
O33	O	1.752829	0.357309	0.869408
O34	O	0.958936	-0.309315	0.329983
O35	O	1.292270	0.024018	0.663317
O36	O	1.625603	0.357352	0.996650
O37	O	1.086198	-0.399660	0.553652
O38	O	1.419532	-0.066327	0.886985
O39	O	1.752865	0.267006	1.220319
O40	O	0.958913	-0.399685	0.426382
O41	O	1.292246	-0.066352	0.759716
O42	O	1.625580	0.266981	1.093049
O43	O	1.182664	-0.309271	0.553683
O44	O	1.515997	0.024062	0.887017
O45	O	1.849330	0.357396	1.220350
O46	O	1.182506	-0.519032	0.329959
O47	O	1.515839	-0.185698	0.663293
O48	O	1.849173	0.147635	0.996626
O49	O	1.086109	-0.519000	0.426369
O50	O	1.419442	-0.185666	0.759702
O51	O	1.752775	0.147667	1.093035
C52	C	0.930442	-0.354499	0.378180
C53	C	1.263776	-0.021165	0.711514
C54	C	1.597109	0.312168	1.044847
C55	C	0.843193	-0.354511	0.378190
C56	C	1.176526	-0.021177	0.711523
C57	C	1.509859	0.312156	1.044856
C58	C	0.802211	-0.401638	0.428304
C59	C	1.135544	-0.068304	0.761637
C60	C	1.468878	0.265029	1.094971
C61	C	0.720230	-0.401639	0.428317
C62	C	1.053564	-0.068306	0.761650
C63	C	1.386897	0.265027	1.094983
C64	C	0.679233	-0.354517	0.378210
C65	C	1.012567	-0.021184	0.711544
C66	C	1.345900	0.312150	1.044877
C67	C	0.720221	-0.307385	0.328094
C68	C	1.053554	0.025948	0.661427
C69	C	1.386887	0.359282	0.994760
C70	C	0.802200	-0.307380	0.328086
C71	C	1.135533	0.025953	0.661419
C72	C	1.468866	0.359286	0.994752
C73	C	0.549351	-0.307400	0.328112
C74	C	0.882684	0.025934	0.661446
C75	C	1.216017	0.359267	0.994779
C76	C	0.467366	-0.307405	0.328119
C77	C	0.800699	0.025928	0.661453
C78	C	1.134033	0.359262	0.994786
C79	C	0.467381	-0.401659	0.428344
C80	C	0.800715	-0.068325	0.761677
C81	C	1.134048	0.265008	1.095010
C82	C	0.549360	-0.401654	0.428336
C83	C	0.882694	-0.068320	0.761669
C84	C	1.216027	0.265013	1.095002
C85	C	0.590342	-0.354522	0.378218
C86	C	0.923676	-0.021189	0.711551
C87	C	1.257009	0.312144	1.044884
C88	C	1.134315	-0.545718	0.378175
C89	C	1.467648	-0.212385	0.711508
C90	C	1.800982	0.120948	1.044842
C91	C	1.134355	-0.627517	0.378190
C92	C	1.467688	-0.294184	0.711523
C93	C	1.801021	0.039149	1.044856
C94	C	1.184596	-0.815640	0.428469
C95	C	1.517929	-0.482307	0.761802
C96	C	1.851263	-0.148974	1.095135
C97	C	1.184625	-0.892499	0.428484
C98	C	1.517958	-0.559166	0.761817
C99	C	1.851291	-0.225832	1.095150
C100	C	1.084282	-0.892632	0.327984
C101	C	1.417615	-0.559299	0.661317
C102	C	1.750948	-0.225965	0.994650
C103	C	1.084250	-0.815775	0.327974
C104	C	1.417583	-0.482441	0.661307
C105	C	1.750916	-0.149108	0.994640
C106	C	1.134411	-0.777281	0.378215
C107	C	1.467745	-0.443947	0.711548
C108	C	1.801078	-0.110614	1.044882
C109	C	1.134472	-0.930997	0.378240
C110	C	1.467805	-0.597663	0.711573
C111	C	1.801138	-0.264330	1.044906
C112	C	1.134502	-1.014330	0.378255
C113	C	1.467836	-0.680997	0.711589
C114	C	1.801169	-0.347664	1.044922
C115	C	1.134380	-0.693942	0.378201
C116	C	1.467713	-0.360608	0.711534
C117	C	1.801047	-0.027275	1.044867
C118	C	1.339135	-0.354526	0.378224
C119	C	1.672468	-0.021193	0.711557
C120	C	2.005801	0.312141	1.044891
C121	C	1.426384	-0.354532	0.378234
C122	C	1.759718	-0.021199	0.711567
C123	C	2.093051	0.312135	1.044900
C124	C	1.134438	-0.354458	0.582946
C125	C	1.467771	-0.021125	0.916280
C126	C	1.801104	0.312209	1.249613
C127	C	1.134458	-0.354435	0.670196
C128	C	1.467791	-0.021101	1.003529
C129	C	1.801125	0.312232	1.336863
C130	C	1.134487	-0.162559	0.378246
C131	C	1.467821	0.170774	0.711580
C132	C	1.801154	0.504107	1.044913
C133	C	1.134529	-0.080760	0.378265
C134	C	1.467862	0.252573	0.711598
C135	C	1.801195	0.585906	1.044932
C136	C	1.134388	-0.354513	0.174254
C137	C	1.467722	-0.021180	0.507587
C138	C	1.801055	0.312154	0.840921
C139	C	1.134520	-0.354329	0.087005
C140	C	1.467853	-0.020995	0.420338
C141	C	1.801187	0.312338	0.753671
C142	C	1.184689	-0.307365	0.711204
C143	C	1.518023	0.025968	1.044537
C144	C	1.851356	0.359302	1.377871
C145	C	1.184699	-0.307341	0.793184
C146	C	1.518032	0.025993	1.126518
C147	C	1.851366	0.359326	1.459851
C148	C	1.134480	-0.354390	0.834156
C149	C	1.467814	-0.021057	1.167489
C150	C	1.801147	0.312277	1.500822
C151	C	1.084243	-0.401462	0.793142
C152	C	1.417577	-0.068129	1.126476
C153	C	1.750910	0.265205	1.459809
C154	C	1.084231	-0.401482	0.711163
C155	C	1.417564	-0.068149	1.044497
C156	C	1.750897	0.265185	1.377830
C157	C	1.084275	-0.401418	0.964012
C158	C	1.417608	-0.068084	1.297346
C159	C	1.750942	0.265249	1.630679
C160	C	1.084289	-0.401399	1.045997
C161	C	1.417622	-0.068065	1.379330
C162	C	1.750955	0.265268	1.712664
C163	C	1.184743	-0.307276	1.046034
C164	C	1.518077	0.026057	1.379367
C165	C	1.851410	0.359391	1.712700
C166	C	1.184730	-0.307296	0.964055
C167	C	1.518064	0.026037	1.297388
C168	C	1.851397	0.359370	1.630721
C169	C	1.134494	-0.354369	0.923047
C170	C	1.467828	-0.021036	1.256380
C171	C	1.801161	0.312297	1.589713
H172	H	0.686834	-0.269014	0.287299
H173	H	1.020168	0.064319	0.620633
H174	H	1.353501	0.397652	0.953966
O175	O	1.030194	-0.934160	0.273791
O176	O	1.363527	-0.600826	0.607125
O177	O	1.696860	-0.267493	0.940458
H178	H	0.968569	-0.919457	0.287193
H179	H	1.301902	-0.586124	0.620527
H180	H	1.635235	-0.252791	0.953860
H181	H	1.043380	-0.784540	0.287051
H182	H	1.376713	-0.451207	0.620384
H183	H	1.710046	-0.117873	0.953717
H184	H	1.225586	-0.269054	0.677851
H185	H	1.558919	0.064279	1.011184
H186	H	1.892252	0.397613	1.344518
H187	H	0.582716	-0.269014	0.287308
H188	H	0.916049	0.064320	0.620641
H189	H	1.249382	0.397653	0.953975
H190	H	0.835566	-0.269001	0.287281
H191	H	1.168899	0.064332	0.620615
H192	H	1.502233	0.397666	0.953948
O193	O	1.238697	-0.774118	0.482654
O194	O	1.572030	-0.440785	0.815987
O195	O	1.905363	-0.107452	1.149320
H196	H	1.273595	-0.813708	0.517603
H197	H	1.606928	-0.480374	0.850936
H198	H	1.940261	-0.147041	1.184270
H199	H	1.225604	-0.269013	0.826569
H200	H	1.558938	0.064320	1.159903
H201	H	1.892271	0.397653	1.493236
H202	H	0.686867	-0.440015	0.469124
H203	H	1.020200	-0.106682	0.802457
H204	H	1.353533	0.226651	1.135791
H205	H	0.433988	-0.269025	0.287327
H206	H	0.767322	0.064308	0.620661
H207	H	1.100655	0.397641	0.953994
O208	O	0.593584	-0.452474	0.482380
O209	O	0.926918	-0.119141	0.815713
O210	O	1.260251	0.214193	1.149046
H211	H	0.551316	-0.485242	0.517238
H212	H	0.884650	-0.151909	0.850571
H213	H	1.217983	0.181424	1.183904
H214	H	1.043319	-0.439804	0.677776
H215	H	1.376652	-0.106470	1.011109
H216	H	1.709986	0.226863	1.344442
H217	H	1.225646	-0.268946	1.079426
H218	H	1.558979	0.064387	1.412759
H219	H	1.892313	0.397720	1.746093
O220	O	1.238754	-0.933876	0.482683
O221	O	1.572087	-0.600542	0.816016
O222	O	1.905421	-0.267209	1.149350
H223	H	1.273630	-0.894193	0.517611
H224	H	1.606963	-0.560860	0.850944
H225	H	1.940297	-0.227527	1.184278
O226	O	1.238897	-0.256556	0.919859
O227	O	1.572230	0.076778	1.253192
O228	O	1.905563	0.410111	1.586525
H229	H	1.273827	-0.223815	0.962145
H230	H	1.607160	0.109518	1.295478
H231	H	1.940494	0.442851	1.628812
H232	H	1.043395	-0.439709	1.079354
H233	H	1.376728	-0.106375	1.412687
H234	H	1.710061	0.226958	1.746020
H235	H	1.043355	-0.439738	0.930626
H236	H	1.376688	-0.106405	1.263960
H237	H	1.710022	0.226929	1.597293
O238	O	1.030073	-0.452203	0.837332
O239	O	1.363406	-0.118869	1.170666
O240	O	1.696740	0.214464	1.503999
H241	H	1.043495	-0.509967	0.821582
H242	H	1.376828	-0.176634	1.154916
H243	H	1.710162	0.156699	1.488249
O244	O	0.846433	-0.452453	0.482354
O245	O	1.179766	-0.119120	0.815688
O246	O	1.513099	0.214213	1.149021
H247	H	0.830674	-0.510200	0.468797
H248	H	1.164007	-0.176867	0.802131
H249	H	1.497340	0.156466	1.135464
O250	O	0.423187	-0.452490	0.482408
O251	O	0.756521	-0.119157	0.815741
O252	O	1.089854	0.214177	1.149074
H253	H	0.359295	-0.444571	0.474006
H254	H	0.692628	-0.111238	0.807339
H255	H	1.025961	0.222095	1.140672
