data_functionalizedCrystal
_audit_creation_method	'MofGen! by Chris Wilmer'
_symmetry_space_group_name_H-M	'P1'
_symmetry_Int_Tables_number	1
_symmetry_cell_setting	triclinic
loop_
_symmetry_equiv_pos_as_xyz
  x,y,z
_cell_length_a	13.033293
_cell_length_b	12.645330
_cell_length_c	13.032268
_cell_angle_alpha	97.142779
_cell_angle_beta	90.920818
_cell_angle_gamma	82.811681
loop_
_atom_site_label
_atom_site_type_symbol
_atom_site_fract_x
_atom_site_fract_y
_atom_site_fract_z
Zn1	Zn	1.498457	0.329809	0.781451
Zn2	Zn	1.998457	0.829809	1.281451
Zn3	Zn	1.520197	0.482151	0.609463
Zn4	Zn	2.020197	0.982151	1.109463
Zn5	Zn	1.348317	0.324211	0.587627
Zn6	Zn	1.848317	0.824211	1.087627
Zn7	Zn	1.326447	0.526343	0.759499
Zn8	Zn	1.826447	1.026343	1.259499
O9	O	1.423354	0.415629	0.684510
O10	O	1.923354	0.915629	1.184510
O11	O	1.645260	0.333866	0.776962
O12	O	2.145260	0.833866	1.276962
O13	O	1.515648	0.440363	0.462660
O14	O	2.015648	0.940363	0.962660
O15	O	1.368288	0.176606	0.613386
O16	O	1.868288	0.676606	1.113386
O17	O	1.661232	0.445791	0.650603
O18	O	2.161232	0.945791	1.150603
O19	O	1.478595	0.180719	0.755788
O20	O	1.978595	0.680719	1.255788
O21	O	1.389368	0.324325	0.446617
O22	O	1.889368	0.824325	0.946617
O23	O	1.201497	0.367176	0.592101
O24	O	1.701497	0.867176	1.092101
O25	O	1.331013	0.521109	0.906317
O26	O	1.831013	1.021109	1.406317
O27	O	1.185429	0.515681	0.718374
O28	O	1.685429	1.015681	1.218374
O29	O	1.457388	0.376717	0.922445
O30	O	1.957388	0.876717	1.422445
O31	O	1.494441	0.636361	0.629317
O32	O	1.994441	1.136361	1.129317
O33	O	1.352094	0.668829	0.739548
O34	O	1.852094	1.168829	1.239548
C35	C	1.156146	0.445617	0.650486
C36	C	1.656146	0.945617	1.150486
C37	C	1.041830	0.458476	0.635955
C38	C	1.541830	0.958476	1.135955
C39	C	0.982950	0.408944	0.692093
C40	C	1.482950	0.908944	1.192093
C41	C	0.864798	0.422233	0.677076
C42	C	1.364798	0.922233	1.177076
C43	C	1.423279	0.691060	0.684446
C44	C	1.923279	1.191060	1.184446
C45	C	1.423336	0.808885	0.684465
C46	C	1.923336	1.308885	1.184465
C47	C	1.512763	0.955970	0.614921
C48	C	2.012763	1.455970	1.114921
C49	C	1.513009	0.833409	0.615163
C50	C	2.013009	1.333409	1.115163
C51	C	1.438949	0.865698	0.796595
C52	C	1.938949	1.365698	1.296595
C53	C	1.439620	0.988163	0.796238
C54	C	1.939620	1.488163	1.296238
C55	C	1.318091	0.984405	0.642897
C56	C	1.818091	1.484405	1.142897
C57	C	1.318934	0.861389	0.640547
C58	C	1.818934	1.361389	1.140547
C59	C	1.691606	0.385524	0.718667
C60	C	2.191606	0.885524	1.218667
C61	C	1.805919	0.372695	0.733222
C62	C	2.305919	0.872695	1.233222
C63	C	1.389336	0.454467	0.952738
C64	C	1.889336	0.954467	1.452738
C65	C	1.374840	0.471018	1.067040
C66	C	1.874840	0.971018	1.567040
C67	C	1.423431	1.139121	0.684570
C68	C	1.923431	1.639121	1.184570
C69	C	1.423400	1.021289	0.684518
C70	C	1.923400	1.521289	1.184518
C71	C	1.457300	0.376858	0.417333
C72	C	1.957300	0.876858	0.917333
C73	C	1.471995	0.359986	0.303056
C74	C	1.971995	0.859986	0.803056
C75	C	1.430904	0.406954	1.125980
C76	C	1.930904	0.906954	1.625980
C77	C	1.415923	0.424059	1.244118
C78	C	1.915923	0.924059	1.744118
H79	H	1.020011	0.356697	0.751269
H80	H	1.520011	0.856697	1.251269
H81	H	1.004770	0.510717	0.576774
H82	H	1.504770	1.010717	1.076774
H83	H	1.514572	0.829547	0.830529
H84	H	2.014572	1.329547	1.330529
C85	C	1.501982	0.779902	0.503431
C86	C	2.001982	1.279902	1.003431
H87	H	1.497315	0.833046	0.457483
H88	H	1.997315	1.333046	0.957483
H89	H	1.441234	0.745163	0.497830
H90	H	1.941234	1.245163	0.997830
H91	H	1.560616	0.728499	0.486041
H92	H	2.060616	1.228499	0.986041
H93	H	1.590635	0.980331	0.643287
H94	H	2.090635	1.480331	1.143287
H95	H	1.516186	1.011155	0.829887
H96	H	2.016186	1.511155	1.329887
H97	H	1.376631	1.032942	0.850629
H98	H	1.876631	1.532942	1.350629
C99	C	1.228391	1.043785	0.711251
C100	C	1.728391	1.543785	1.211251
H101	H	1.254930	1.090851	0.764876
H102	H	1.754930	1.590851	1.264876
H103	H	1.193827	0.992982	0.740709
H104	H	1.693827	1.492982	1.240709
H105	H	1.181097	1.084137	0.670369
H106	H	1.681097	1.584137	1.170369
H107	H	1.356822	0.491567	1.281113
H108	H	1.856822	0.991567	1.781113
H109	H	1.489991	0.339441	1.088979
H110	H	1.989991	0.839441	1.588979
H111	H	1.375252	0.851684	0.850440
H112	H	1.875252	1.351684	1.350440
H113	H	0.842974	0.320441	0.792401
H114	H	1.342974	0.820441	1.292401
C115	C	1.502173	0.982976	0.502937
C116	C	2.002173	1.482976	1.002937
H117	H	1.443151	1.034320	0.497617
H118	H	1.943151	1.534320	0.997617
H119	H	1.494581	0.919574	0.457559
H120	H	1.994581	1.419574	0.957559
H121	H	1.562277	1.011758	0.484564
H122	H	2.062277	1.511758	0.984564
C123	C	1.618759	0.785045	0.653851
C124	C	2.118759	1.285045	1.153851
H125	H	1.661732	0.840315	0.669490
H126	H	2.161732	1.340315	1.169490
H127	H	1.650456	0.732554	0.601637
H128	H	2.150456	1.232554	1.101637
H129	H	1.609329	0.752445	0.714313
H130	H	2.109329	1.252445	1.214313
H131	H	1.249883	0.845569	0.686417
H132	H	1.749883	1.345569	1.186417
H133	H	1.301229	1.007144	0.561827
H134	H	1.801229	1.507144	1.061827
C135	C	1.302681	0.809936	0.528985
C136	C	1.802681	1.309936	1.028985
H137	H	1.359276	0.756674	0.509247
H138	H	1.859276	1.256674	1.009247
H139	H	1.298300	0.863623	0.483639
H140	H	1.798300	1.363623	0.983639
H141	H	1.240444	0.777744	0.525251
H142	H	1.740444	1.277744	1.025251
C143	C	1.551827	0.268779	1.253089
C144	C	2.051827	0.768779	1.753089
H145	H	1.551430	0.269249	1.180242
H146	H	2.051430	0.769249	1.680242
H147	H	1.534594	0.201764	1.268751
H148	H	2.034594	0.701764	1.768751
H149	H	1.618716	0.279070	1.279436
H150	H	2.118716	0.779070	1.779436
C151	C	1.295017	0.562224	1.117015
C152	C	1.795017	1.062224	1.617015
H153	H	1.295426	0.561761	1.189863
H154	H	1.795426	1.061761	1.689863
H155	H	1.228129	0.551950	1.090670
H156	H	1.728129	1.051950	1.590670
H157	H	1.312265	0.629240	1.101356
H158	H	1.812265	1.129240	1.601356
H159	H	0.827742	0.474478	0.617891
H160	H	1.327742	0.974478	1.117891
