data_functionalizedCrystal
_audit_creation_method	'MofGen! by Chris Wilmer'
_symmetry_space_group_name_H-M	'P1'
_symmetry_Int_Tables_number	1
_symmetry_cell_setting	triclinic
loop_
_symmetry_equiv_pos_as_xyz
  x,y,z
_cell_length_a	10.686220
_cell_length_b	12.594516
_cell_length_c	10.685986
_cell_angle_alpha	85.588735
_cell_angle_beta	99.031303
_cell_angle_gamma	94.395335
loop_
_atom_site_label
_atom_site_type_symbol
_atom_site_fract_x
_atom_site_fract_y
_atom_site_fract_z
Zn1	Zn	1.885531	-0.264676	-0.569015
Zn2	Zn	1.901670	-0.455392	-0.356769
Zn3	Zn	1.689532	-0.290118	-0.373043
Zn4	Zn	1.673267	-0.455316	-0.585213
O5	O	1.787500	-0.366376	-0.471010
O6	O	2.065286	-0.279359	-0.527270
O7	O	1.887091	-0.444148	-0.181308
O8	O	1.715585	-0.137792	-0.399071
O9	O	2.077143	-0.419477	-0.371334
O10	O	1.859584	-0.119100	-0.543050
O11	O	1.731234	-0.322722	-0.193265
O12	O	1.509761	-0.322648	-0.414778
O13	O	1.687864	-0.419348	-0.760684
O14	O	1.497811	-0.444019	-0.570658
O15	O	1.843813	-0.279286	-0.748783
O16	O	1.871319	-0.604333	-0.387041
O17	O	1.703513	-0.604278	-0.554878
C18	C	1.457733	-0.386087	-0.496243
C19	C	1.316654	-0.394543	-0.507067
C20	C	1.787435	-0.642923	-0.470976
C21	C	1.787519	-0.761222	-0.470995
C22	C	1.878934	-0.901212	-0.379844
C23	C	1.765497	-0.839323	-0.357525
C24	C	1.900946	-0.821543	-0.493258
C25	C	1.674149	-0.910112	-0.448720
C26	C	1.809671	-0.892330	-0.584502
C27	C	1.696152	-0.830475	-0.562232
C28	C	2.118556	-0.346588	-0.445679
C29	C	2.259632	-0.338156	-0.434885
C30	C	1.787599	-0.088745	-0.471069
C31	C	1.787641	0.029565	-0.471094
C32	C	1.762224	-0.346470	-0.802076
C33	C	1.751453	-0.337988	-0.943156
C34	C	1.812751	-0.386123	-0.141227
C35	C	1.823769	-0.394290	-0.000128
H36	H	1.257538	-0.449298	-0.577145
H37	H	1.681306	-0.283296	-1.002310
C38	C	1.836032	-0.843168	-0.132634
C39	C	1.740259	-0.807483	-0.228005
H40	H	1.820459	-0.823506	-0.052676
H41	H	1.836657	-0.918610	-0.131484
H42	H	1.915932	-0.811571	-0.149056
H43	H	1.660359	-0.839086	-0.211589
H44	H	1.739621	-0.732026	-0.229153
H45	H	1.956104	-0.932282	-0.302671
C46	C	1.527000	-0.874786	-0.729709
C47	C	1.591752	-0.788805	-0.666353
H48	H	1.462542	-0.849058	-0.793978
H49	H	1.584982	-0.910982	-0.767254
H50	H	1.489545	-0.922622	-0.670862
H51	H	1.629216	-0.740973	-0.725199
H52	H	1.533761	-0.752593	-0.628809
C53	C	2.125858	-0.805093	-0.422948
C54	C	2.030356	-0.769378	-0.518595
H55	H	2.205749	-0.772881	-0.438577
H56	H	2.109490	-0.786158	-0.342991
H57	H	2.127114	-0.880463	-0.422426
H58	H	2.029094	-0.694009	-0.519110
H59	H	2.046728	-0.788306	-0.598573
H60	H	1.578257	-0.948598	-0.429823
H61	H	1.828403	-0.915928	-0.680419
C62	C	1.911176	-0.462519	-0.791283
C63	C	1.918478	-0.468126	-0.920275
H64	H	1.969640	-0.508108	-0.741988
H65	H	1.931417	-0.391187	-0.768225
H66	H	1.827521	-0.484480	-0.776153
H67	H	2.002131	-0.446158	-0.935406
H68	H	1.898245	-0.539474	-0.943341
H69	H	1.318741	-0.283413	-0.364804
