data_functionalizedCrystal
_audit_creation_method	'MofGen! by Chris Wilmer'
_symmetry_space_group_name_H-M	'P1'
_symmetry_Int_Tables_number	1
_symmetry_cell_setting	triclinic
loop_
_symmetry_equiv_pos_as_xyz
  x,y,z
_cell_length_a	12.759401
_cell_length_b	16.120484
_cell_length_c	12.759393
_cell_angle_alpha	92.864219
_cell_angle_beta	89.981798
_cell_angle_gamma	92.925560
loop_
_atom_site_label
_atom_site_type_symbol
_atom_site_fract_x
_atom_site_fract_y
_atom_site_fract_z
Zn1	Zn	1.584968	-0.331865	-0.615146
Zn2	Zn	1.575920	-0.471299	-0.448359
Zn3	Zn	1.409268	-0.331905	-0.439488
Zn4	Zn	1.400320	-0.471238	-0.623997
O5	O	1.492619	-0.401577	-0.531748
O6	O	1.730788	-0.350369	-0.593030
O7	O	1.553772	-0.452851	-0.300164
O8	O	1.440107	-0.215234	-0.455373
O9	O	1.724141	-0.452811	-0.470492
O10	O	1.569192	-0.215205	-0.584429
O11	O	1.431334	-0.350438	-0.293647
O12	O	1.261061	-0.350379	-0.463955
O13	O	1.424855	-0.452708	-0.769841
O14	O	1.254486	-0.452747	-0.599513
O15	O	1.560515	-0.350310	-0.763339
O16	O	1.545095	-0.587956	-0.479074
O17	O	1.416082	-0.587912	-0.608114
C18	C	1.219653	-0.401561	-0.531732
C19	C	1.102875	-0.401575	-0.531752
C20	C	1.478664	-0.618184	-0.545540
C21	C	1.472791	-0.710850	-0.551476
C22	C	1.044612	-0.454963	-0.602231
C23	C	0.934887	-0.454974	-0.602243
C24	C	0.941699	-0.348205	-0.461288
C25	C	1.051422	-0.348191	-0.461282
C26	C	1.096065	-0.508346	-0.672702
C27	C	1.037801	-0.561740	-0.743186
C28	C	0.928077	-0.561750	-0.743198
C29	C	0.876616	-0.508368	-0.672726
C30	C	1.462073	-0.880511	-0.562334
C31	C	1.523354	-0.921802	-0.501178
C32	C	1.517390	-1.016207	-0.507220
C33	C	1.468035	-0.786097	-0.556294
C34	C	1.766651	-0.401593	-0.531764
C35	C	1.883427	-0.401600	-0.531770
C36	C	1.492696	-0.401498	-0.805776
C37	C	1.492729	-0.401464	-0.922551
C38	C	1.506657	-0.184124	-0.517924
C39	C	1.512639	-0.091458	-0.512034
C40	C	1.556525	-0.454730	-1.090531
C41	C	1.556491	-0.454767	-0.980810
C42	C	1.428989	-0.348126	-0.974019
C43	C	1.429018	-0.348093	-1.083739
C44	C	1.620299	-0.508030	-1.148784
C45	C	1.684039	-0.561370	-1.097323
C46	C	1.684005	-0.561407	-0.987602
C47	C	1.620232	-0.508105	-0.929341
C48	C	1.492606	-0.401595	-0.258781
C49	C	1.492792	-0.401394	-0.141993
H50	H	1.185408	-0.508345	-0.672698
H51	H	1.079709	-0.605196	-0.800567
O52	O	1.745757	-0.613310	-0.937570
C53	C	1.682454	-0.667164	-0.877507
H54	H	1.599384	-0.672301	-0.910894
H55	H	1.680474	-0.641415	-0.792711
C56	C	1.830220	-0.747523	-0.840334
C57	C	1.728195	-0.753839	-0.881347
H58	H	1.858437	-0.800988	-0.842698
H59	H	1.872870	-0.711239	-0.880796
H60	H	1.828557	-0.726063	-0.769675
H61	H	1.729861	-0.775289	-0.952008
H62	H	1.685546	-0.790128	-0.840896
H63	H	1.377124	-0.304660	-1.125640
O64	O	1.591226	-0.879492	-0.433154
C65	C	1.566976	-0.900768	-0.329760
H66	H	1.522673	-0.964049	-0.331526
H67	H	1.516004	-0.851845	-0.291261
C68	C	1.723603	-0.826889	-0.264269
C69	C	1.669196	-0.904616	-0.266438
H70	H	1.786656	-0.829259	-0.225207
H71	H	1.739939	-0.812551	-0.333927
H72	H	1.681115	-0.786128	-0.232189
H73	H	1.711679	-0.945372	-0.298529
H74	H	1.652870	-0.918960	-0.196783
O75	O	1.745955	-0.613067	-1.154070
C76	C	1.732303	-0.601612	-1.261948
H77	H	1.702049	-0.537267	-1.272838
H78	H	1.673175	-0.651051	-1.296232
C79	C	1.875289	-0.688265	-1.305392
C80	C	1.838139	-0.609233	-1.318768
H81	H	1.940571	-0.692969	-1.340443
H82	H	1.884484	-0.695985	-1.232713
H83	H	1.826006	-0.729456	-1.333961
H84	H	1.887415	-0.568044	-1.290187
H85	H	1.828954	-0.601506	-1.391444
H86	H	1.620196	-0.508150	-0.839999
O87	O	1.367147	-0.296374	-0.917267
C88	C	1.380771	-0.307854	-0.809391
H89	H	1.460084	-0.335169	-0.796151
H90	H	1.315579	-0.352256	-0.781071
C91	C	1.279165	-0.189968	-0.763956
C92	C	1.376582	-0.223510	-0.747694
H93	H	1.276576	-0.137942	-0.725896
H94	H	1.269983	-0.182235	-0.836634
H95	H	1.224849	-0.226977	-0.740356
H96	H	1.430895	-0.186506	-0.771305
H97	H	1.385774	-0.231235	-0.675018
H98	H	0.880642	-0.605219	-0.800596
H99	H	0.787271	-0.508373	-0.672750
O100	O	1.394162	-0.923042	-0.630109
C101	C	1.403266	-1.009197	-0.621131
H102	H	1.437000	-1.021007	-0.540825
H103	H	1.457648	-1.033833	-0.685047
C104	C	1.252749	-1.039569	-0.732096
C105	C	1.294173	-1.054075	-0.633459
H106	H	1.185457	-1.067254	-0.739706
H107	H	1.246617	-0.981525	-0.738149
H108	H	1.298078	-1.060099	-0.785349
H109	H	1.248851	-1.033536	-0.580209
H110	H	1.300294	-1.112117	-0.627398
H111	H	0.899790	-0.304745	-0.403912
O112	O	1.107864	-0.296312	-0.392710
C113	C	1.038925	-0.249192	-0.330519
H114	H	0.958512	-0.283341	-0.328993
H115	H	1.031344	-0.185908	-0.365087
C116	C	1.181251	-0.195133	-0.219826
C117	C	1.082488	-0.237079	-0.217944
H118	H	1.208124	-0.187658	-0.150385
H119	H	1.227698	-0.226877	-0.261727
H120	H	1.174920	-0.142401	-0.248637
H121	H	1.088823	-0.289814	-0.189146
H122	H	1.036043	-0.205344	-0.176036
H123	H	1.620337	-0.508004	-1.238126
