data_functionalizedCrystal
_audit_creation_method	'MofGen! by Chris Wilmer'
_symmetry_space_group_name_H-M	'P1'
_symmetry_Int_Tables_number	1
_symmetry_cell_setting	triclinic
loop_
_symmetry_equiv_pos_as_xyz
  x,y,z
_cell_length_a	16.974885
_cell_length_b	14.853567
_cell_length_c	15.455425
_cell_angle_alpha	87.020188
_cell_angle_beta	90.646018
_cell_angle_gamma	83.513424
loop_
_atom_site_label
_atom_site_type_symbol
_atom_site_fract_x
_atom_site_fract_y
_atom_site_fract_z
O1	O	1.049198	0.114801	0.001459
O2	O	1.549198	0.614801	0.501459
O3	O	0.819701	0.130225	-0.014637
O4	O	1.319701	0.630225	0.485363
O5	O	0.940580	-0.008754	-0.006162
O6	O	1.440580	0.491246	0.493838
O7	O	0.928319	0.253780	-0.007016
O8	O	1.428319	0.753780	0.492984
O9	O	0.934400	-0.015739	0.137664
O10	O	1.434400	0.484261	0.637664
O11	O	0.813521	0.123240	0.129189
O12	O	1.313521	0.623240	0.629189
O13	O	1.043019	0.107816	0.145285
O14	O	1.543019	0.607816	0.645285
Cu15	Cu	0.927706	0.114890	0.150370
Cu16	Cu	1.427706	0.614890	0.650370
Cu17	Cu	0.935014	0.123150	-0.019722
Cu18	Cu	1.435014	0.623150	0.480278
O19	O	0.922140	0.246795	0.136810
O20	O	1.422140	0.746795	0.636810
C21	C	0.787241	0.126276	0.055216
C22	C	1.287241	0.626276	0.555216
C23	C	0.699726	0.124908	0.049078
C24	C	1.199726	0.624908	0.549078
C25	C	0.207482	0.117583	0.006052
C26	C	0.707482	0.617583	0.506052
C27	C	0.289711	0.118869	0.011831
C28	C	0.789711	0.618869	0.511831
C29	C	0.327448	0.115711	0.093121
C30	C	0.827448	0.615711	0.593121
C31	C	0.282953	0.111258	0.168637
C32	C	0.782953	0.611258	0.668637
C33	C	0.200727	0.109966	0.162857
C34	C	0.700727	0.609966	0.662857
C35	C	0.573006	0.119162	0.118814
C36	C	1.073006	0.619162	0.618814
C37	C	0.655237	0.120457	0.124588
C38	C	1.155237	0.620457	0.624588
C39	C	0.661990	0.128067	-0.032218
C40	C	1.161990	0.628067	0.467782
C41	C	0.579761	0.126780	-0.037991
C42	C	1.079761	0.626780	0.462009
C43	C	0.535274	0.122322	0.037525
C44	C	1.035274	0.622322	0.537525
N45	N	0.411498	0.117028	0.099030
N46	N	0.911498	0.617028	0.599030
N47	N	0.451226	0.120998	0.031615
N48	N	0.951226	0.620998	0.531615
C49	C	0.936935	-0.045832	0.065710
C50	C	1.436935	0.454168	0.565710
C51	C	0.935270	-0.145905	0.065586
C52	C	1.435270	0.354095	0.565586
C53	C	0.856428	-0.557958	0.060072
C54	C	1.356428	-0.057958	0.560072
C55	C	1.000034	-0.580117	0.070144
C56	C	1.500034	-0.080117	0.570144
C57	C	1.001600	-0.486092	0.070249
C58	C	1.501600	0.013908	0.570249
C59	C	0.930578	-0.427996	0.065267
C60	C	1.430578	0.072004	0.565267
C61	C	0.857991	-0.463925	0.060180
C62	C	1.357991	0.036075	0.560180
C63	C	1.074186	-0.450157	0.075345
C64	C	1.574186	0.049843	0.575345
C65	C	1.075754	-0.356127	0.075450
C66	C	1.575754	0.143873	0.575450
C67	C	1.004732	-0.298029	0.070462
C68	C	1.504732	0.201971	0.570462
C69	C	0.932141	-0.333963	0.065374
C70	C	1.432141	0.166037	0.565374
C71	C	0.861120	-0.275867	0.060391
C72	C	1.361120	0.224133	0.560391
C73	C	0.788529	-0.311798	0.055297
C74	C	1.288529	0.188202	0.555297
C75	C	0.786968	-0.405827	0.055191
C76	C	1.286968	0.094173	0.555191
C77	C	1.006292	-0.204001	0.070568
C78	C	1.506292	0.295999	0.570568
C79	C	0.862683	-0.181834	0.060499
C80	C	1.362683	0.318166	0.560499
C81	C	1.075479	0.111764	0.075430
C82	C	1.575479	0.611764	0.575430
C83	C	1.162993	0.113133	0.081562
C84	C	1.662993	0.613133	0.581562
C85	C	0.925785	0.283873	0.064936
C86	C	1.425785	0.783873	0.564936
C87	C	0.927449	0.383946	0.065055
C88	C	1.427449	0.883946	0.565055
N89	N	0.922571	0.109079	0.270003
N90	N	1.422571	0.609079	0.770003
N91	N	0.940154	0.128954	-0.139355
N92	N	1.440154	0.628954	0.360645
C93	C	0.894228	0.076682	0.812012
C94	C	1.394228	0.576682	1.312012
C95	C	0.898106	0.081111	0.721477
C96	C	1.398106	0.581111	1.221477
C97	C	0.947906	0.137818	0.679578
C98	C	1.447906	0.637818	1.179578
C99	C	0.993837	0.190092	0.728219
C100	C	1.493837	0.690092	1.228219
C101	C	0.989963	0.185657	0.818752
C102	C	1.489963	0.685657	1.318752
C103	C	0.964629	0.156919	0.409176
C104	C	1.464629	0.656919	0.909176
C105	C	0.968497	0.161352	0.318637
C106	C	1.468497	0.661352	0.818637
C107	C	0.872767	0.052369	0.311902
C108	C	1.372767	0.552369	0.811902
C109	C	0.868894	0.047943	0.402436
C110	C	1.368894	0.547943	0.902436
C111	C	0.914828	0.100214	0.451069
C112	C	1.414828	0.600214	0.951069
N113	N	0.951869	0.142348	0.587037
N114	N	1.451869	0.642348	1.087037
N115	N	0.910869	0.095678	0.543609
N116	N	1.410869	0.595678	1.043609
H117	H	0.698220	0.131695	-0.093699
H118	H	1.198220	0.631695	0.406301
Cl119	Cl	0.702677	0.116486	0.226789
Cl120	Cl	1.202677	0.616486	0.726789
H121	H	1.027361	0.228223	0.858348
H122	H	1.527361	0.728223	1.358348
H123	H	1.057857	-0.627424	0.074207
H124	H	1.557857	-0.127424	0.574207
Cl125	Cl	1.167009	-0.310964	0.081840
Cl126	Cl	1.667009	0.189036	0.581840
Cl127	Cl	0.517087	0.113582	0.213749
Cl128	Cl	1.017087	0.613582	0.713749
H129	H	0.176762	0.120162	-0.060143
H130	H	0.676762	0.620162	0.439857
Cl131	Cl	0.815028	-0.013342	0.250759
Cl132	Cl	1.315028	0.486658	0.750759
Cl133	Cl	0.765176	-0.603126	0.053660
Cl134	Cl	1.265176	-0.103126	0.553660
H135	H	1.132007	-0.497465	0.079409
H136	H	1.632007	0.002535	0.579409
H137	H	0.804847	-0.134537	0.056438
H138	H	1.304847	0.365463	0.556438
Cl139	Cl	0.699248	-0.238753	0.049041
Cl140	Cl	1.199248	0.261247	0.549041
H141	H	1.034389	0.236260	0.694097
H142	H	1.534389	0.736260	1.194097
Cl143	Cl	0.330394	0.107286	0.270831
Cl144	Cl	0.830394	0.607286	0.770831
Cl145	Cl	1.031130	0.232620	0.265966
Cl146	Cl	1.531130	0.732620	0.765966
H147	H	0.325931	0.122487	-0.049657
H148	H	0.825931	0.622487	0.450343
Cl149	Cl	0.695720	-0.451004	0.048785
Cl150	Cl	1.195720	0.048996	0.548785
H151	H	1.065394	-0.174750	0.074721
H152	H	1.565394	0.325250	0.574721
H153	H	0.853671	0.030510	0.846119
H154	H	1.353671	0.530510	1.346119
H155	H	0.860710	0.038542	0.681884
H156	H	1.360710	0.538542	1.181884
H157	H	1.002031	0.199482	0.448762
H158	H	1.502031	0.699482	0.948762
Cl159	Cl	0.806281	-0.023344	0.455103
Cl160	Cl	1.306281	0.476656	0.955103
Cl161	Cl	0.532326	0.130751	-0.140188
Cl162	Cl	1.032326	0.630751	0.359812
Cl163	Cl	0.144798	0.104363	0.257789
Cl164	Cl	0.644798	0.604363	0.757789
