data_functionalizedCrystal
_audit_creation_method	'MofGen! by Chris Wilmer'
_symmetry_space_group_name_H-M	'P1'
_symmetry_Int_Tables_number	1
_symmetry_cell_setting	triclinic
loop_
_symmetry_equiv_pos_as_xyz
  x,y,z
_cell_length_a	15.297327
_cell_length_b	12.827893
_cell_length_c	12.827885
_cell_angle_alpha	90.021189
_cell_angle_beta	99.642715
_cell_angle_gamma	80.294845
loop_
_atom_site_label
_atom_site_type_symbol
_atom_site_fract_x
_atom_site_fract_y
_atom_site_fract_z
Zn1	Zn	-0.359158	-1.525593	-0.662833
Zn2	Zn	0.140842	-1.025593	-0.162833
Zn3	Zn	-0.510042	-1.495208	-0.518312
Zn4	Zn	-0.010042	-0.995208	-0.018312
Zn5	Zn	-0.359197	-1.350827	-0.488109
Zn6	Zn	0.140803	-0.850827	0.011891
Zn7	Zn	-0.509970	-1.320555	-0.692992
Zn8	Zn	-0.009970	-0.820555	-0.192992
O9	O	-0.434592	-1.423046	-0.590562
O10	O	0.065408	-0.923046	-0.090562
O11	O	-0.379187	-1.667796	-0.643681
O12	O	0.120813	-1.167796	-0.143681
O13	O	-0.490079	-1.476008	-0.368079
O14	O	0.009921	-0.976008	0.131921
O15	O	-0.232947	-1.399395	-0.486025
O16	O	0.267053	-0.899395	0.013975
O17	O	-0.490041	-1.645472	-0.537502
O18	O	0.009959	-1.145472	-0.037502
O19	O	-0.232919	-1.527796	-0.614394
O20	O	0.267081	-1.027796	-0.114394
O21	O	-0.379254	-1.369932	-0.345889
O22	O	0.120746	-0.869932	0.154111
O23	O	-0.379184	-1.200578	-0.515268
O24	O	0.120816	-0.700578	-0.015268
O25	O	-0.489918	-1.347801	-0.835218
O26	O	0.010082	-0.847801	-0.335218
O27	O	-0.489956	-1.178337	-0.665795
O28	O	0.010044	-0.678337	-0.165795
O29	O	-0.379117	-1.498442	-0.813061
O30	O	0.120883	-0.998442	-0.313061
O31	O	-0.636277	-1.446654	-0.566746
O32	O	-0.136277	-0.946654	-0.066746
O33	O	-0.636224	-1.318338	-0.695082
O34	O	-0.136224	-0.818338	-0.195082
C35	C	-0.434567	-1.151541	-0.590528
C36	C	0.065433	-0.651541	-0.090528
C37	C	-0.434579	-1.035385	-0.590542
C38	C	0.065421	-0.535385	-0.090542
C39	C	-0.379820	-0.994628	-0.643199
C40	C	0.120180	-0.494628	-0.143199
C41	C	-0.379831	-0.874576	-0.643216
C42	C	0.120169	-0.374576	-0.143216
C43	C	-0.668985	-1.375942	-0.637487
C44	C	-0.168985	-0.875942	-0.137487
C45	C	-0.769259	-1.355887	-0.657596
C46	C	-0.269259	-0.855887	-0.157596
C47	C	-1.051900	-1.566816	-0.447191
C48	C	-0.551900	-1.066816	0.052809
C49	C	-0.957687	-1.585659	-0.428292
C50	C	-0.457687	-1.085659	0.071708
C51	C	-0.910575	-1.528218	-0.485616
C52	C	-0.410575	-1.028218	0.014384
C53	C	-0.957685	-1.451930	-0.561843
C54	C	-0.457685	-0.951930	-0.061843
C55	C	-1.051907	-1.433080	-0.580739
C56	C	-0.551907	-0.933080	-0.080739
C57	C	-0.910583	-1.394481	-0.619164
C58	C	-0.410583	-0.894481	-0.119164
C59	C	-0.957693	-1.318194	-0.695391
C60	C	-0.457693	-0.818194	-0.195391
C61	C	-1.051906	-1.299348	-0.714284
C62	C	-0.551906	-0.799348	-0.214284
C63	C	-1.099017	-1.356789	-0.656959
C64	C	-0.599017	-0.856789	-0.156959
C65	C	-0.816361	-1.413332	-0.600269
C66	C	-0.316361	-0.913332	-0.100269
C67	C	-0.816369	-1.279595	-0.733816
C68	C	-0.316369	-0.779595	-0.233816
C69	C	-0.910582	-1.260753	-0.752716
C70	C	-0.410582	-0.760753	-0.252716
C71	C	-0.199284	-1.470362	-0.543476
C72	C	0.300716	-0.970362	-0.043476
C73	C	-0.099010	-1.490525	-0.523411
C74	C	0.400990	-0.990525	-0.023411
C75	C	-0.434505	-1.423134	-0.863115
C76	C	0.065495	-0.923134	-0.363115
C77	C	-0.434468	-1.423172	-0.979260
C78	C	0.065532	-0.923172	-0.479260
C79	C	-0.434610	-0.695612	-0.590586
C80	C	0.065390	-0.195612	-0.090586
C81	C	-0.434599	-0.811768	-0.590572
C82	C	0.065401	-0.311768	-0.090572
C83	C	-0.379630	-1.497723	-1.020079
C84	C	0.120370	-0.997723	-0.520079
C85	C	-0.379590	-1.497764	-1.140121
C86	C	0.120410	-0.997764	-0.640121
C87	C	-0.434613	-1.423031	-0.319056
C88	C	0.065387	-0.923031	0.180944
C89	C	-0.434396	-1.423247	-0.202860
C90	C	0.065604	-0.923247	0.297140
H91	H	-0.332953	-0.839482	-0.688302
H92	H	0.167047	-0.339482	-0.188302
H93	H	-0.332644	-1.561592	-1.175267
H94	H	0.167356	-1.061592	-0.675267
H95	H	-0.481487	-0.846852	-0.545495
H96	H	0.018513	-0.346852	-0.045495
C97	C	-1.103724	-1.215420	-0.798126
C98	C	-0.603724	-0.715420	-0.298126
N99	N	-1.142753	-1.152204	-0.861277
N100	N	-0.642753	-0.652204	-0.361277
H101	H	-0.481465	-0.981402	-0.545470
H102	H	0.018535	-0.481402	-0.045470
C103	C	-0.497855	-1.336980	-1.052105
C104	C	0.002145	-0.836980	-0.552105
N105	N	-0.545599	-1.272058	-1.106971
N106	N	-0.045599	-0.772058	-0.606971
H107	H	-0.948952	-1.198638	-0.814780
H108	H	-0.448952	-0.698638	-0.314780
H109	H	-0.833863	-1.543563	-0.470223
H110	H	-0.333863	-1.043563	0.029777
C111	C	-0.764551	-1.497248	-0.516422
C112	C	-0.264551	-0.997248	-0.016422
N113	N	-0.725528	-1.560460	-0.453265
N114	N	-0.225528	-1.060460	0.046735
C115	C	-0.905873	-1.669555	-0.344427
C116	C	-0.405873	-1.169555	0.155573
N117	N	-0.866846	-1.732744	-0.281249
N118	N	-0.366846	-1.232744	0.218751
H119	H	-0.332929	-1.048613	-0.688265
H120	H	0.167071	-0.548613	-0.188265
C121	C	-0.316237	-1.583909	-0.947233
C122	C	0.183763	-1.083909	-0.447233
N123	N	-0.268489	-1.648827	-0.892366
N124	N	0.231511	-1.148827	-0.392366
C125	C	-1.103728	-1.629981	-0.384132
C126	C	-0.603728	-1.129981	0.115868
N127	N	-1.142767	-1.677558	-0.336629
N128	N	-0.642767	-1.177558	0.163371
H129	H	-0.778011	-1.232820	-0.780493
H130	H	-0.278011	-0.732820	-0.280493
C131	C	-1.202658	-1.336061	-0.677740
C132	C	-0.702658	-0.836061	-0.177740
N133	N	-1.280721	-1.320450	-0.693388
N134	N	-0.780721	-0.820450	-0.193388
H135	H	-0.481351	-1.359421	-1.167723
H136	H	0.018649	-0.859421	-0.667723
