data_functionalizedCrystal
_audit_creation_method	'MofGen! by Chris Wilmer'
_symmetry_space_group_name_H-M	'P1'
_symmetry_Int_Tables_number	1
_symmetry_cell_setting	triclinic
loop_
_symmetry_equiv_pos_as_xyz
  x,y,z
_cell_length_a	33.510554
_cell_length_b	33.509711
_cell_length_c	33.506470
_cell_angle_alpha	60.004186
_cell_angle_beta	60.008358
_cell_angle_gamma	59.994760
loop_
_atom_site_label
_atom_site_type_symbol
_atom_site_fract_x
_atom_site_fract_y
_atom_site_fract_z
O1	O	0.055430	-0.583081	0.487524
O2	O	0.020931	-0.453975	0.392819
O3	O	0.102693	-0.535652	0.392731
O4	O	-0.026332	-0.501404	0.487613
O5	O	0.129823	-0.508526	0.419767
O6	O	0.048062	-0.426850	0.419856
O7	O	0.082561	-0.555956	0.514561
Cu8	Cu	0.067789	-0.488926	0.469677
Cu9	Cu	0.035703	-0.521005	0.437703
O10	O	0.000799	-0.474279	0.514649
N11	N	0.090357	-0.466366	0.492168
N12	N	0.013139	-0.543569	0.415212
C13	C	0.143028	-0.279707	0.544737
C14	C	0.143165	-0.413746	0.678712
C15	C	0.143043	-0.413725	0.544739
C16	C	0.277090	-0.413694	0.544637
C17	C	0.157791	-0.323929	0.559462
C18	C	0.157869	-0.398994	0.634489
C19	C	0.232865	-0.398963	0.559407
C20	C	0.157801	-0.398982	0.559463
C21	C	0.124237	-0.223419	0.525994
C22	C	0.124262	-0.432490	0.525997
C23	C	0.176583	-0.380217	0.578205
C24	C	0.358938	-0.399566	0.501510
C25	C	0.410104	-0.416609	0.484423
C26	C	0.410135	-0.499402	0.515995
C27	C	0.358969	-0.482358	0.533084
C28	C	0.136554	-0.197822	0.475693
C29	C	0.119469	-0.146653	0.458657
C30	C	0.077755	-0.146680	0.542223
C31	C	0.094840	-0.197850	0.559260
C32	C	0.073954	-0.420144	0.538396
C33	C	0.056884	-0.437203	0.521352
C34	C	0.140427	-0.478952	0.479524
C35	C	0.157498	-0.461894	0.496561
C36	C	0.074158	-0.420182	0.760618
C37	C	0.057149	-0.437256	0.811786
C38	C	0.140732	-0.479014	0.811717
C39	C	0.157740	-0.461942	0.760547
C40	C	0.124452	-0.432525	0.734999
C41	C	0.333372	-0.432439	0.525839
C42	C	-0.020612	-0.577650	0.170305
C43	C	-0.020943	-0.788098	0.380897
C44	C	-0.020912	-0.577638	0.380991
C45	C	-0.231336	-0.577418	0.380585
C46	C	-0.129735	-0.611383	0.346870
C47	C	-0.054722	-0.611464	0.347017
C48	C	-0.073450	-0.630202	0.328195
C49	C	-0.087616	-0.712029	0.371239
C50	C	-0.070599	-0.763199	0.388315
C51	C	0.012191	-0.763282	0.356872
C52	C	-0.004828	-0.712113	0.339795
C53	C	-0.155381	-0.623711	0.397158
C54	C	-0.206547	-0.606601	0.414133
C55	C	-0.206417	-0.564839	0.330529
C56	C	-0.155251	-0.581949	0.313554
C57	C	-0.067051	-0.561160	0.334643
C58	C	-0.050026	-0.544131	0.351759
C59	C	-0.008343	-0.627704	0.393612
C60	C	-0.025368	-0.644736	0.376502
C61	C	-0.066922	-0.561168	0.246303
C62	C	-0.049794	-0.544141	0.195134
C63	C	-0.008048	-0.627719	0.195183
C64	C	-0.025175	-0.644745	0.246352
C65	C	-0.054614	-0.611468	0.271911
C66	C	-0.054732	-0.686488	0.346980
C67	C	-0.002117	-0.558258	0.114025
C68	C	-0.002879	-0.844379	0.399940
C69	C	-0.002504	-0.558243	0.399473
C70	C	-0.287615	-0.558285	0.398601
N71	N	0.434975	-0.466279	0.491900
O72	O	0.591199	-0.470749	0.375150
O73	O	0.591395	-0.565767	0.504116
O74	O	0.591311	-0.565550	0.422329
O75	O	0.591283	-0.470966	0.456937
O76	O	0.510024	-0.538522	0.449509
O77	O	0.510108	-0.538739	0.531297
O78	O	0.509913	-0.443721	0.402330
Cu79	Cu	0.502588	-0.488762	0.469295
Cu80	Cu	0.598719	-0.520726	0.437151
O81	O	0.509997	-0.443938	0.484117
N82	N	0.666332	-0.543209	0.414541
N83	N	0.090323	-0.121809	0.492157
O84	O	-0.026342	0.034503	0.487582
O85	O	0.102626	0.034543	0.392540
O86	O	0.020797	0.034507	0.392812
O87	O	0.055487	0.034539	0.487310
O88	O	0.047933	-0.046785	0.419900
O89	O	0.129763	-0.046749	0.419628
O90	O	0.000794	-0.046789	0.514670
Cu91	Cu	0.067756	-0.054192	0.469623
Cu92	Cu	0.035664	0.041946	0.437588
O93	O	0.082623	-0.046753	0.514399
N94	N	0.013091	0.109564	0.415054
N95	N	0.090671	-0.466416	0.836606
O96	O	0.086120	-0.583065	0.992910
O97	O	-0.008880	-0.454051	0.992954
O98	O	-0.008658	-0.535864	0.992931
O99	O	0.085897	-0.501252	0.992933
O100	O	0.018407	-0.508749	0.911642
O101	O	0.018185	-0.426936	0.911665
O102	O	0.113185	-0.555949	0.911621
Cu103	Cu	0.068156	-0.488967	0.904221
Cu104	Cu	0.036148	-0.521034	1.000355
O105	O	0.112963	-0.474136	0.911644
N106	N	0.013633	-0.543590	1.067970
C107	C	0.031262	-0.424144	0.393290
C108	C	0.132513	-0.525291	0.393180
C109	C	0.072229	-0.585787	0.514090
C110	C	-0.029022	-0.484640	0.514200
C111	C	0.550775	-0.565338	0.533954
C112	C	0.550672	-0.565070	0.432670
C113	C	0.550530	-0.444149	0.372492
C114	C	0.550635	-0.444418	0.473776
C115	C	0.132408	-0.005998	0.392963
C116	C	0.031106	-0.006142	0.393333
C117	C	-0.029021	-0.006147	0.514213
C118	C	0.072314	-0.006104	0.513878
C119	C	-0.008430	-0.424240	0.952316
C120	C	-0.008150	-0.525550	0.952271
C121	C	0.112735	-0.585760	0.952260
C122	C	0.112461	-0.484444	0.952286
H123	H	0.047048	-0.396226	0.739820
O124	O	0.550371	-0.408513	0.328345
C125	C	0.508166	-0.326996	0.284768
C126	C	0.508279	-0.367316	0.334794
H127	H	0.474144	-0.293675	0.289966
H128	H	0.508118	-0.341125	0.260115
H129	H	0.542179	-0.316327	0.267189
H130	H	0.474273	-0.378002	0.352415
H131	H	0.508353	-0.353165	0.359413
H132	H	0.550826	-0.595166	0.570996
O133	O	0.081025	-0.629995	0.549621
C134	C	0.085525	-0.673756	0.631047
C135	C	0.075563	-0.623661	0.590846
H136	H	0.081102	-0.668651	0.664391
H137	H	0.124359	-0.698328	0.616799
H138	H	0.058451	-0.691374	0.641724
H139	H	0.102605	-0.606001	0.580152
H140	H	0.036715	-0.599123	0.605117
O141	O	-0.073244	-0.006066	0.549766
C142	C	-0.160198	0.036024	0.573393
C143	C	-0.110147	0.035995	0.533093
H144	H	-0.190049	0.070021	0.559925
H145	H	-0.160266	0.036065	0.607431
H146	H	-0.167335	0.001982	0.582649
H147	H	-0.102979	0.070031	0.523796
H148	H	-0.110104	0.035929	0.499081
H149	H	-0.038255	-0.387188	0.952329
O150	O	0.550664	-0.600458	0.423766
C151	C	0.550647	-0.622828	0.365703
C152	C	0.550645	-0.582705	0.375725
H153	H	0.550642	-0.608493	0.326860
H154	H	0.516650	-0.633542	0.392757
H155	H	0.584687	-0.656172	0.370065
H156	H	0.516628	-0.549335	0.371357
H157	H	0.584664	-0.572033	0.348673
H158	H	0.169570	-0.532590	0.363385
O159	O	-0.073249	-0.475850	0.549700
C160	C	-0.153748	-0.417958	0.572310
C161	C	-0.103680	-0.427845	0.532067
H162	H	-0.178368	-0.379150	0.558065
H163	H	-0.148646	-0.422331	0.605635
H164	H	-0.171307	-0.445092	0.583016
H165	H	-0.086093	-0.400720	0.521320
H166	H	-0.108814	-0.423489	0.498768
O167	O	0.007999	-0.425189	0.533461
C168	C	-0.073066	-0.381970	0.576739
C169	C	-0.017719	-0.395546	0.563071
H170	H	-0.093875	-0.357994	0.600672
H171	H	-0.083138	-0.416688	0.597599
H172	H	-0.083160	-0.361151	0.542030
H173	H	-0.007585	-0.416354	0.597754
H174	H	-0.007676	-0.360811	0.542191
H175	H	-0.134369	-0.571905	0.272603
O176	O	-0.043514	-0.534441	0.952208
C177	C	-0.065855	-0.592500	0.952162
C178	C	-0.025758	-0.582493	0.952222
H179	H	-0.051518	-0.631352	0.952184
H180	H	-0.076524	-0.565458	0.918128
H181	H	-0.099225	-0.588106	0.986167
H182	H	0.007638	-0.586894	0.918240
H183	H	-0.015131	-0.609533	0.986278
O184	O	0.550602	-0.409016	0.482694
C185	C	0.550682	-0.386667	0.540736
C186	C	0.550708	-0.426799	0.530705
H187	H	0.550778	-0.401032	0.579548
H188	H	0.516626	-0.353323	0.536438
H189	H	0.584662	-0.375942	0.513629
H190	H	0.516751	-0.437565	0.557803
H191	H	0.584787	-0.460116	0.534987
H192	H	0.079744	-0.006095	0.543566
H193	H	0.142562	-0.622811	0.952240
O194	O	0.176520	-0.005692	0.357323
C195	C	0.256914	-0.005289	0.334432
C196	C	0.206976	-0.005625	0.374834
H197	H	0.281555	-0.005246	0.348578
H198	H	0.251589	0.028814	0.301208
H199	H	0.274581	-0.039226	0.323608
H200	H	0.189282	0.028289	0.385699
H201	H	0.212333	-0.039751	0.408031
H202	H	0.142166	-0.477036	0.952281
O203	O	0.008275	-0.425194	0.836592
C204	C	-0.072830	-0.381987	0.831254
C205	C	-0.017494	-0.395598	0.803101
H206	H	-0.093681	-0.358065	0.804188
H207	H	-0.082911	-0.361132	0.855197
H208	H	-0.082864	-0.416722	0.855224
H209	H	-0.007420	-0.360888	0.779104
H210	H	-0.007443	-0.416472	0.779188
O211	O	0.173134	-0.507600	0.836459
C212	C	0.257832	-0.547199	0.830990
C213	C	0.221191	-0.514824	0.802909
H214	H	0.296695	-0.553041	0.803878
H215	H	0.251996	-0.584031	0.854927
H216	H	0.251927	-0.528460	0.854961
H217	H	0.227074	-0.533520	0.778912
H218	H	0.227037	-0.477993	0.779004
O219	O	0.022178	-0.006188	0.357978
C220	C	-0.035919	-0.006219	0.335671
C221	C	-0.025873	-0.006170	0.375754
H222	H	-0.074771	-0.006194	0.350024
H223	H	-0.008886	-0.040251	0.324998
H224	H	-0.031546	0.027790	0.302298
H225	H	-0.030252	-0.040156	0.409153
H226	H	-0.052904	0.027885	0.386385
H227	H	0.198696	-0.471996	0.739692
H228	H	0.046887	-0.396202	0.562361
H229	H	0.198463	-0.471942	0.486461
O230	O	0.172783	-0.507496	0.450919
C231	C	0.257450	-0.547134	0.411255
C232	C	0.220864	-0.514797	0.443644
H233	H	0.296331	-0.553055	0.405371
H234	H	0.251556	-0.528386	0.374444
H235	H	0.251543	-0.583932	0.430003
H236	H	0.226749	-0.477993	0.424939
H237	H	0.226767	-0.533583	0.480454
H238	H	0.430973	-0.540048	0.521891
O239	O	0.334163	-0.514305	0.556636
C240	C	0.318542	-0.574488	0.552096
C241	C	0.346654	-0.538315	0.525365
H242	H	0.328638	-0.593918	0.526829
H243	H	0.277567	-0.553761	0.563054
H244	H	0.328634	-0.602591	0.586215
H245	H	0.336603	-0.510204	0.491229
H246	H	0.387621	-0.559076	0.514444
O247	O	0.334147	-0.351061	0.494452
C248	C	0.339521	-0.270737	0.461305
C249	C	0.367653	-0.325656	0.469278
H250	H	0.366598	-0.250180	0.440942
H251	H	0.315603	-0.265014	0.498193
H252	H	0.315527	-0.256354	0.438847
H253	H	0.391673	-0.340076	0.491719
H254	H	0.391540	-0.331347	0.432373
O255	O	0.165035	-0.222637	0.443359
C256	C	0.171525	-0.238258	0.377157
C257	C	0.139214	-0.210132	0.413755
H258	H	0.150665	-0.228151	0.353206
H259	H	0.181612	-0.279234	0.397949
H260	H	0.206238	-0.228187	0.353199
H261	H	0.104481	-0.220163	0.437723
H262	H	0.129167	-0.169164	0.392934
O263	O	0.049261	-0.121895	0.574585
C264	C	0.042800	-0.106232	0.640746
C265	C	0.075117	-0.134336	0.604129
H266	H	0.063696	-0.116273	0.664635
H267	H	0.008099	-0.116320	0.664763
H268	H	0.032689	-0.065264	0.619921
H269	H	0.085265	-0.175310	0.624914
H270	H	0.109795	-0.124207	0.580113
O271	O	0.082976	-0.222753	0.608113
C272	C	0.112479	-0.280464	0.675813
C273	C	0.125977	-0.252307	0.620475
H274	H	0.147237	-0.304357	0.685826
H275	H	0.091675	-0.304476	0.685955
H276	H	0.088525	-0.253372	0.696632
H277	H	0.149947	-0.279364	0.599618
H278	H	0.146756	-0.228288	0.610370
H279	H	0.129496	-0.125810	0.417697
O280	O	-0.061845	-0.495270	0.170286
C281	C	-0.126666	-0.418594	0.154554
C282	C	-0.113087	-0.473933	0.182716
H283	H	-0.168096	-0.401324	0.164601
H284	H	-0.109410	-0.412106	0.113586
H285	H	-0.112543	-0.401377	0.164651
H286	H	-0.127207	-0.491186	0.172660
H287	H	-0.130337	-0.480386	0.223677
O288	O	-0.095442	-0.528826	0.271113
C289	C	-0.101990	-0.462628	0.286779
C290	C	-0.069643	-0.499230	0.258657
H291	H	-0.081149	-0.438684	0.276711
H292	H	-0.112099	-0.483418	0.327753
H293	H	-0.136689	-0.438662	0.276666
H294	H	-0.034924	-0.523206	0.268728
H295	H	-0.059573	-0.478410	0.217690
H296	H	0.015913	-0.654818	0.174378
O297	O	-0.013190	-0.693626	0.271151
C298	C	0.030043	-0.774726	0.265796
C299	C	0.016499	-0.719384	0.237652
H300	H	0.054058	-0.795567	0.238725
H301	H	-0.004682	-0.784784	0.289684
H302	H	0.050809	-0.784798	0.289821
H303	H	-0.004254	-0.709272	0.213601
H304	H	0.051242	-0.709356	0.213795
H305	H	-0.090949	-0.534065	0.310634
O306	O	-0.061930	-0.495263	0.339652
C307	C	-0.057916	-0.418667	0.274759
C308	C	-0.044402	-0.474003	0.288405
H309	H	-0.043760	-0.401460	0.233325
H310	H	-0.040684	-0.412190	0.292019
H311	H	-0.099345	-0.401378	0.288834
H312	H	-0.002979	-0.491329	0.274332
H313	H	-0.061668	-0.480445	0.271152
H314	H	0.015562	-0.654800	0.417614
O315	O	-0.013414	-0.693609	0.388587
C316	C	-0.017437	-0.770229	0.453432
C317	C	-0.030998	-0.714891	0.439826
H318	H	-0.031657	-0.787450	0.494858
H319	H	0.023993	-0.787544	0.439403
H320	H	-0.034638	-0.776652	0.436099
H321	H	-0.013830	-0.708424	0.457155
H322	H	-0.072432	-0.697603	0.453846
O323	O	0.027181	-0.687377	0.316259
C324	C	0.111098	-0.692861	0.286849
C325	C	0.074900	-0.720935	0.313523
H326	H	0.149688	-0.719980	0.284620
H327	H	0.100843	-0.668914	0.307777
H328	H	0.109561	-0.668900	0.248369
H329	H	0.076418	-0.744922	0.352004
H330	H	0.085166	-0.744851	0.292558
H331	H	0.430920	-0.389838	0.464614
H332	H	-0.227429	-0.616637	0.455084
O333	O	-0.102619	-0.787935	0.411946
C334	C	-0.186547	-0.782455	0.441441
C335	C	-0.150333	-0.754379	0.414643
H336	H	-0.225130	-0.755337	0.443621
H337	H	-0.185033	-0.806356	0.479938
H338	H	-0.176278	-0.806462	0.420570
H339	H	-0.160577	-0.730345	0.435473
H340	H	-0.151853	-0.730508	0.376144
O341	O	-0.136071	-0.687079	0.378124
C342	C	-0.197887	-0.629281	0.340295
C343	C	-0.142998	-0.657503	0.332433
H344	H	-0.203506	-0.605370	0.303359
H345	H	-0.212331	-0.605281	0.362765
H346	H	-0.218466	-0.656330	0.360587
H347	H	-0.122379	-0.630489	0.312128
H348	H	-0.128592	-0.681510	0.309983
O349	O	-0.130669	-0.652279	0.429585
C350	C	-0.136199	-0.691915	0.514302
C351	C	-0.164245	-0.659548	0.477631
H352	H	-0.163333	-0.697810	0.553155
H353	H	-0.112254	-0.673206	0.508491
H354	H	-0.112241	-0.728723	0.508404
H355	H	-0.188230	-0.622734	0.483506
H356	H	-0.188159	-0.678295	0.483450
O357	O	0.060650	-0.788253	0.349956
C358	C	0.123562	-0.867121	0.362305
C359	C	0.068670	-0.838903	0.370181
H360	H	0.130065	-0.908077	0.378643
H361	H	0.136256	-0.857113	0.380923
H362	H	0.145010	-0.857057	0.321481
H363	H	0.047183	-0.848951	0.410993
H364	H	0.056015	-0.848914	0.351531
H365	H	-0.227194	-0.540877	0.303400
H366	H	0.023891	-0.387055	0.363546
