data_functionalizedCrystal
_audit_creation_method	'MofGen! by Chris Wilmer'
_symmetry_space_group_name_H-M	'P1'
_symmetry_Int_Tables_number	1
_symmetry_cell_setting	triclinic
loop_
_symmetry_equiv_pos_as_xyz
  x,y,z
_cell_length_a	10.489716
_cell_length_b	27.732048
_cell_length_c	9.565339
_cell_angle_alpha	89.995294
_cell_angle_beta	89.996780
_cell_angle_gamma	83.585895
loop_
_atom_site_label
_atom_site_type_symbol
_atom_site_fract_x
_atom_site_fract_y
_atom_site_fract_z
O1	O	1.691077	0.068131	-0.116266
O2	O	1.319595	0.074544	-0.116273
O3	O	1.516873	0.001013	-0.116242
O4	O	1.493798	0.141662	-0.116296
O5	O	1.516858	0.001018	0.116278
O6	O	1.319579	0.074549	0.116248
O7	O	1.691061	0.068135	0.116254
Zn8	Zn	1.505318	0.071343	0.153169
Zn9	Zn	1.505338	0.071337	-0.153187
O10	O	1.493783	0.141666	0.116224
C11	C	1.272076	0.074064	-0.000013
C12	C	1.130509	0.072623	-0.000014
C13	C	1.030853	0.117714	-0.000035
C14	C	0.954546	0.093889	0.114625
C15	C	0.954569	0.093874	-0.114622
C16	C	1.056067	0.048817	0.114740
C17	C	1.056094	0.048808	-0.114610
C18	C	0.979838	0.024950	0.000079
C19	C	1.516381	-0.016995	0.000022
C20	C	1.514923	-0.070659	0.000033
C21	C	1.622319	-0.408799	-0.000037
C22	C	1.616907	-0.610493	-0.000056
O23	O	1.715114	-0.641132	-0.000116
N24	N	1.499929	-0.630351	-0.000057
C25	C	1.384296	-0.599782	-0.000062
O26	O	1.284675	-0.621301	-0.000078
C27	C	1.389709	-0.398090	-0.000053
C28	C	1.506695	-0.378235	-0.000038
C29	C	1.739295	-0.388944	-0.000023
C30	C	1.740646	-0.338523	-0.000011
C31	C	1.625022	-0.307958	-0.000012
C32	C	1.508046	-0.327814	-0.000025
C33	C	1.274077	-0.367522	-0.000068
C34	C	1.275441	-0.317096	-0.000069
C35	C	1.392426	-0.297241	-0.000054
C36	C	1.393774	-0.246829	-0.000014
N37	N	1.510751	-0.226971	-0.000013
C38	C	1.626376	-0.257536	-0.000012
C39	C	1.381463	-0.705674	-0.000065
C40	C	1.380109	-0.756097	-0.000064
C41	C	1.612721	-0.766804	-0.000061
C42	C	1.614073	-0.716380	-0.000051
C43	C	1.498441	-0.685816	-0.000064
C44	C	1.629205	-0.151649	0.000016
C45	C	1.630547	-0.101223	0.000034
C46	C	1.397936	-0.090521	0.000023
C47	C	1.396594	-0.140942	0.000012
C48	C	1.512239	-0.171505	0.000004
O49	O	1.295620	-0.216161	0.000030
O50	O	1.725982	-0.236008	-0.000027
C51	C	1.620967	-0.459220	-0.000049
C52	C	1.503991	-0.479075	-0.000063
C53	C	1.388367	-0.448511	-0.000064
C54	C	1.502638	-0.529498	-0.000063
C55	C	1.618262	-0.560063	-0.000062
C56	C	1.735240	-0.540205	-0.000061
C57	C	1.736591	-0.489785	-0.000048
C58	C	1.271389	-0.468369	-0.000065
C59	C	1.270047	-0.518790	-0.000075
C60	C	1.385671	-0.549355	-0.000075
C61	C	1.738580	0.068615	-0.000008
C62	C	1.880147	0.070057	-0.000016
C63	C	1.494275	0.159674	-0.000043
C64	C	1.495733	0.213338	-0.000064
N65	N	1.505313	0.071347	0.362248
N66	N	1.505353	0.071329	-0.362266
C67	C	1.414051	0.105341	0.453437
C68	C	1.529120	0.115117	0.546614
C69	C	1.390294	0.061575	0.546627
C70	C	1.620439	0.081144	0.453373
C71	C	1.481538	0.027583	0.453378
C72	C	1.596690	0.037341	0.546512
H73	H	1.100213	0.029795	0.211771
C74	C	1.556316	0.165104	0.601956
N75	N	1.576789	0.202755	0.643640
C76	C	0.894715	0.119597	-0.245567
N77	N	0.849637	0.138975	-0.344190
C78	C	1.742764	-0.694545	-0.000047
N79	N	1.839701	-0.678101	-0.000049
H80	H	0.910221	0.112926	0.211545
H81	H	1.725814	-0.085060	0.000050
C82	C	1.756421	-0.185261	0.000019
N83	N	1.852240	-0.210578	0.000034
C84	C	0.949150	-0.028075	0.000192
N85	N	0.926030	-0.068013	0.000286
C86	C	1.862427	-0.573836	-0.000062
N87	N	1.958218	-0.599169	-0.000072
H88	H	1.461365	-0.009407	0.412392
H89	H	1.835908	-0.322362	-0.000004
H90	H	1.833455	-0.413825	-0.000028
C91	C	1.739908	-0.800435	-0.000071
N92	N	1.835700	-0.825768	-0.000091
C93	C	1.701089	-0.001504	0.601399
N94	N	1.779725	-0.030758	0.642750
C95	C	1.251416	-0.777932	-0.000064
N96	N	1.154480	-0.794376	-0.000072
C97	C	1.254249	-0.672059	-0.000077
N98	N	1.158430	-0.646742	-0.000083
H99	H	1.178815	-0.383679	-0.000089
C100	C	1.751895	0.092363	0.398272
N101	N	1.850904	0.100814	0.356767
C102	C	1.258865	0.050416	0.601959
N103	N	1.159869	0.042015	0.643629
C104	C	1.309890	0.144213	0.398210
N105	N	1.231443	0.173493	0.356609
C106	C	1.115995	0.023109	-0.245552
N107	N	1.161108	0.003754	-0.344189
H108	H	1.181277	-0.292213	-0.000081
H109	H	1.053798	0.156937	0.000057
H110	H	1.831853	-0.473623	-0.000037
C111	C	1.267905	-0.162783	0.000005
N112	N	1.170974	-0.179230	-0.000016
C113	C	1.270756	-0.056890	0.000012
N114	N	1.174963	-0.031558	-0.000009
H115	H	1.174777	-0.534951	-0.000075
H116	H	1.177232	-0.443488	-0.000068
