data_functionalizedCrystal
_audit_creation_method	'MofGen! by Chris Wilmer'
_symmetry_space_group_name_H-M	'P1'
_symmetry_Int_Tables_number	1
_symmetry_cell_setting	triclinic
loop_
_symmetry_equiv_pos_as_xyz
  x,y,z
_cell_length_a	14.519709
_cell_length_b	23.532407
_cell_length_c	13.596369
_cell_angle_alpha	89.989360
_cell_angle_beta	90.000291
_cell_angle_gamma	83.264412
loop_
_atom_site_label
_atom_site_type_symbol
_atom_site_fract_x
_atom_site_fract_y
_atom_site_fract_z
O1	O	1.222985	0.074654	-0.081674
O2	O	0.954404	0.083445	-0.081705
O3	O	1.096794	-0.003846	-0.081671
O4	O	1.080596	0.161945	-0.081708
O5	O	1.096780	-0.003850	0.081912
O6	O	0.954390	0.083441	0.081878
O7	O	1.222971	0.074649	0.081909
Zn8	Zn	1.088678	0.079044	0.107866
Zn9	Zn	1.088697	0.079050	-0.107662
O10	O	1.080582	0.161940	0.081874
C11	C	0.920042	0.083033	0.000083
C12	C	0.817676	0.081805	0.000071
C13	C	0.442833	0.077286	0.000117
C14	C	0.547126	0.078541	0.000104
C15	C	0.630251	0.079545	0.000093
C16	C	0.734551	0.080801	0.000082
C17	C	1.096374	-0.025066	0.000123
C18	C	1.095134	-0.088288	0.000131
C19	C	1.171619	-0.487046	0.000086
C20	C	1.170467	-0.546452	0.000078
O21	O	1.241369	-0.582876	0.000050
N22	N	1.085816	-0.569460	0.000069
C23	C	1.002312	-0.533059	0.000057
O24	O	0.930205	-0.558084	0.000048
C25	C	1.003465	-0.473655	0.000058
C26	C	1.088121	-0.450650	0.000077
C27	C	1.256268	-0.464041	0.000104
C28	C	1.257420	-0.404640	0.000113
C29	C	1.173922	-0.368244	0.000105
C30	C	1.089273	-0.391249	0.000087
C31	C	0.919962	-0.437255	0.000039
C32	C	0.921123	-0.377847	0.000039
C33	C	1.005779	-0.354843	0.000058
C34	C	1.006927	-0.295451	0.000087
N35	N	1.091578	-0.272443	0.000097
C36	C	1.175075	-0.308839	0.000105
C37	C	0.999897	-0.657813	0.000055
C38	C	0.998743	-0.717216	0.000061
C39	C	1.166898	-0.730604	0.000080
C40	C	1.168051	-0.671200	0.000080
C41	C	1.084548	-0.634804	0.000064
C42	C	1.177487	-0.184092	0.000126
C43	C	1.178632	-0.124685	0.000139
C44	C	1.010477	-0.111301	0.000115
C45	C	1.009332	-0.170703	0.000107
C46	C	1.092845	-0.207098	0.000109
O47	O	0.936062	-0.258992	0.000111
O48	O	1.247171	-0.283806	0.000102
C49	C	1.257333	0.075061	0.000119
C50	C	1.359700	0.076289	0.000124
C51	C	1.081001	0.183160	0.000078
C52	C	1.082241	0.246383	0.000064
N53	N	1.088673	0.079040	0.254958
N54	N	1.088710	0.079050	-0.254754
C55	C	1.088696	0.079051	0.656248
C56	C	1.088686	0.079050	0.544597
C57	C	1.088685	0.079046	0.455607
C58	C	1.088674	0.079044	0.343948
H59	H	1.247572	-0.105958	0.000158
O60	O	1.258670	-0.219382	0.000001
C61	C	1.310099	-0.208933	-0.084720
H62	H	1.287021	-0.163896	-0.112966
H63	H	1.387049	-0.213020	-0.065650
H64	H	1.297814	-0.241433	-0.144050
O65	O	0.916427	-0.739464	0.000010
C66	C	0.842984	-0.694595	0.000031
H67	H	0.868465	-0.654210	-0.030929
H68	H	0.783850	-0.707063	-0.047471
H69	H	0.817250	-0.686228	0.078508
H70	H	0.853122	-0.348216	0.000024
O71	O	1.250308	-0.648882	-0.000085
C72	C	1.301187	-0.667481	-0.084787
H73	H	1.251677	-0.679885	-0.144006
H74	H	1.340090	-0.631452	-0.113225
H75	H	1.352934	-0.706142	-0.065624
O76	O	1.339630	-0.382269	0.000292
C77	C	1.345329	-0.348305	0.084999
H78	H	1.297269	-0.362409	0.144216
H79	H	1.419703	-0.353562	0.113437
H80	H	1.323624	-0.301482	0.065843
H81	H	0.851027	-0.455975	0.000018
O82	O	0.927159	-0.193122	-0.000034
C83	C	0.921461	-0.227055	-0.084778
H84	H	0.994289	-0.241762	-0.113016
H85	H	0.885066	-0.265999	-0.065742
H86	H	0.880420	-0.200845	-0.144102
H87	H	0.942496	-0.081657	0.000112
H88	H	1.234886	-0.760249	0.000083
H89	H	1.324266	-0.493670	0.000107
H90	H	0.931894	-0.628182	0.000049
