data_functionalizedCrystal
_audit_creation_method	'MofGen! by Chris Wilmer'
_symmetry_space_group_name_H-M	'P1'
_symmetry_Int_Tables_number	1
_symmetry_cell_setting	triclinic
loop_
_symmetry_equiv_pos_as_xyz
  x,y,z
_cell_length_a	16.120530
_cell_length_b	19.805405
_cell_length_c	19.805399
_cell_angle_alpha	90.029301
_cell_angle_beta	92.915522
_cell_angle_gamma	87.121765
loop_
_atom_site_label
_atom_site_type_symbol
_atom_site_fract_x
_atom_site_fract_y
_atom_site_fract_z
Zn1	Zn	1.274516	-0.322020	0.435096
Zn2	Zn	1.274411	-0.435204	0.321900
Zn3	Zn	1.135102	-0.316291	0.316191
Zn4	Zn	1.135057	-0.429423	0.429319
O5	O	1.204772	-0.375735	0.375627
O6	O	1.391168	-0.341851	0.424888
O7	O	1.255907	-0.419452	0.226425
O8	O	1.153659	-0.222337	0.331992
O9	O	1.391091	-0.425007	0.341723
O10	O	1.256085	-0.226546	0.419351
O11	O	1.153557	-0.332087	0.222231
O12	O	1.018431	-0.326482	0.326390
O13	O	1.153582	-0.415154	0.524803
O14	O	1.018398	-0.409599	0.409506
O15	O	1.256042	-0.336245	0.529048
O16	O	1.255863	-0.529151	0.336122
O17	O	1.153480	-0.524904	0.415042
C18	C	1.204678	-0.551587	0.375590
C19	C	1.204714	-0.626820	0.375600
C20	C	0.988164	-0.366792	0.366702
C21	C	0.895499	-0.362983	0.362900
C22	C	1.258077	-0.664356	0.334554
C23	C	1.258112	-0.735045	0.334570
C24	C	1.204780	-0.768199	0.375630
C25	C	1.151415	-0.730658	0.416681
C26	C	1.151385	-0.659970	0.416668
C27	C	1.151538	-1.015737	0.416736
C28	C	1.151571	-1.086430	0.416745
C29	C	1.258266	-1.090812	0.334639
C30	C	1.258235	-1.020124	0.334626
C31	C	1.204874	-0.982590	0.375679
C32	C	1.204837	-0.905940	0.375662
C33	C	1.204812	-0.844847	0.375644
C34	C	0.725838	-0.356012	0.355964
C35	C	0.684546	-0.395507	0.395339
C36	C	0.590141	-0.391628	0.391480
C37	C	0.820252	-0.359890	0.359822
C38	C	1.422225	-0.384712	0.384587
C39	C	1.514890	-0.388538	0.388405
C40	C	1.204819	-0.375694	0.552171
C41	C	1.204838	-0.375677	0.627404
C42	C	1.204889	-0.199197	0.375679
C43	C	1.204938	-0.123967	0.375702
C44	C	1.204773	-0.375728	0.199771
C45	C	1.204915	-0.375562	0.124545
C46	C	1.258190	-0.334587	0.664960
C47	C	1.258199	-0.334567	0.735648
C48	C	1.204859	-0.375642	0.768781
C49	C	1.151501	-0.416734	0.731220
C50	C	1.151489	-0.416749	0.660533
C51	C	1.151548	-0.416672	1.016296
C52	C	1.151566	-0.416656	1.086989
C53	C	1.258258	-0.334491	1.091412
C54	C	1.258246	-0.334506	1.020724
C55	C	1.204885	-0.375595	0.983169
C56	C	1.204876	-0.375614	0.906521
C57	C	1.204873	-0.375627	0.845429
H58	H	1.301564	-0.765604	0.301146
C59	C	1.316745	-0.627891	0.289387
C60	C	1.382155	-0.581928	0.321447
C61	C	1.440828	-0.545467	0.276281
C62	C	1.434090	-0.554967	0.199055
C63	C	1.368677	-0.600932	0.166992
C64	C	1.310005	-0.637394	0.212157
H65	H	1.387145	-0.574893	0.378618
H66	H	1.489251	-0.511440	0.300017
H67	H	1.477523	-0.527976	0.165621
H68	H	1.363687	-0.607967	0.109821
H69	H	1.261582	-0.671420	0.188421
H70	H	0.720096	-0.432231	0.431947
C71	C	0.677817	-0.306406	0.306508
C72	C	0.617965	-0.250898	0.333534
C73	C	0.569930	-0.201295	0.284078
C74	C	0.581748	-0.207199	0.207596
C75	C	0.641602	-0.262708	0.180566
C76	C	0.689637	-0.312312	0.230023
H77	H	0.609214	-0.246526	0.390154
H78	H	0.525622	-0.160203	0.304087
H79	H	0.546190	-0.170479	0.170985
H80	H	0.650353	-0.267081	0.123946
H81	H	0.733945	-0.353404	0.210013
H82	H	1.301718	-1.121381	0.301214
C83	C	1.316866	-0.289403	0.628517
C84	C	1.310112	-0.212177	0.637979
C85	C	1.368787	-0.166990	0.601538
C86	C	1.434216	-0.199029	0.555636
C87	C	1.440973	-0.276259	0.546171
C88	C	1.382298	-0.321446	0.582612
H89	H	1.261675	-0.188456	0.671961
H90	H	1.363785	-0.109819	0.608545
H91	H	1.477651	-0.165579	0.528660
H92	H	1.489409	-0.299981	0.512190
H93	H	1.387300	-0.378617	0.575606
C94	C	1.316900	-0.983655	0.289460
C95	C	1.382307	-0.937690	0.321521
C96	C	1.440975	-0.901222	0.276356
C97	C	1.434235	-0.910718	0.199129
C98	C	1.368825	-0.956685	0.167064
C99	C	1.310158	-0.993153	0.212229
H100	H	1.387298	-0.930659	0.378692
H101	H	1.489395	-0.867194	0.300093
H102	H	1.477664	-0.883722	0.165696
H103	H	1.363834	-0.963716	0.109893
H104	H	1.261737	-1.027181	0.188492
C105	C	1.316950	-0.289285	1.132723
C106	C	1.316966	-0.289260	1.210476
C107	C	1.375659	-0.244057	1.251785
C108	C	1.434334	-0.198880	1.215340
C109	C	1.434320	-0.198904	1.137582
C110	C	1.375628	-0.244106	1.096273
H111	H	1.273529	-0.322704	1.237459
H112	H	1.375669	-0.244040	1.309347
H113	H	1.477782	-0.165418	1.245920
H114	H	1.477758	-0.165460	1.110600
H115	H	1.375618	-0.244124	1.038712
H116	H	1.108143	-1.113421	0.450186
C117	C	1.092834	-0.974455	0.461887
C118	C	1.092793	-0.896700	0.461880
C119	C	1.034084	-0.855415	0.507031
C120	C	0.975415	-0.891884	0.552189
C121	C	0.975454	-0.969643	0.552197
C122	C	1.034163	-1.010928	0.507046
H123	H	1.136225	-0.869699	0.428450
H124	H	1.034055	-0.797852	0.507024
H125	H	0.931955	-0.861322	0.585612
H126	H	0.932022	-0.996644	0.585627
H127	H	1.034191	-1.068491	0.507053
C128	C	1.316885	-0.289366	0.776959
C129	C	1.375560	-0.244187	0.740516
C130	C	1.434246	-0.198980	0.781827
C131	C	1.434257	-0.198953	0.859580
C132	C	1.375580	-0.244134	0.896028
C133	C	1.316894	-0.289340	0.854717
H134	H	1.375554	-0.244205	0.682955
H135	H	1.477683	-0.165535	0.754846
H136	H	1.477700	-0.165489	0.890161
H137	H	1.375586	-0.244116	0.953589
H138	H	1.273457	-0.322786	0.881698
H139	H	1.107995	-0.757657	0.450116
C140	C	1.092683	-0.618677	0.461817
C141	C	0.997914	-0.624552	0.452327
C142	C	0.939213	-0.583260	0.497480
C143	C	0.975281	-0.536093	0.552122
C144	C	1.070054	-0.530216	0.561613
C145	C	1.128755	-0.571508	0.516461
H146	H	0.971211	-0.659470	0.411876
H147	H	0.869056	-0.587611	0.490453
H148	H	0.931827	-0.505526	0.585546
H149	H	1.096757	-0.495298	0.602065
H150	H	1.198912	-0.567157	0.523488
C151	C	1.092882	-0.461835	1.123436
C152	C	1.034183	-0.507028	1.082129
C153	C	0.975502	-0.552204	1.118577
C154	C	0.975521	-0.552188	1.196331
C155	C	1.034222	-0.506993	1.237642
C156	C	1.092903	-0.461817	1.201194
H157	H	1.034167	-0.507042	1.024567
H158	H	0.932047	-0.585660	1.087995
H159	H	0.932082	-0.585630	1.223311
H160	H	1.034238	-0.506979	1.295204
H161	H	1.136358	-0.428360	1.231776
C162	C	1.092845	-0.461873	0.975006
C163	C	0.998079	-0.452426	0.980844
C164	C	0.939366	-0.497629	0.939558
C165	C	0.975418	-0.552281	0.892434
C166	C	1.070189	-0.561731	0.886594
C167	C	1.128902	-0.516527	0.927880
H168	H	0.971387	-0.411967	1.015730
H169	H	0.869211	-0.490634	0.943881
H170	H	0.931955	-0.585743	0.861871
H171	H	1.096881	-0.602189	0.851708
H172	H	1.199057	-0.523523	0.923557
H173	H	1.301684	-0.301061	0.993751
H174	H	1.108068	-0.450175	0.758202
H175	H	1.108036	-0.450201	0.629955
