data_functionalizedCrystal
_audit_creation_method	'MofGen! by Chris Wilmer'
_symmetry_space_group_name_H-M	'P1'
_symmetry_Int_Tables_number	1
_symmetry_cell_setting	triclinic
loop_
_symmetry_equiv_pos_as_xyz
  x,y,z
_cell_length_a	22.863218
_cell_length_b	22.862586
_cell_length_c	22.858745
_cell_angle_alpha	60.006856
_cell_angle_beta	60.013818
_cell_angle_gamma	59.991795
loop_
_atom_site_label
_atom_site_type_symbol
_atom_site_fract_x
_atom_site_fract_y
_atom_site_fract_z
O1	O	0.081006	-0.854581	0.714630
O2	O	0.581006	-0.354581	1.214630
O3	O	0.030492	-0.665350	0.575795
O4	O	0.530492	-0.165350	1.075795
O5	O	0.150314	-0.785089	0.575706
O6	O	0.650314	-0.285089	1.075706
O7	O	-0.038816	-0.734841	0.714718
O8	O	0.461184	-0.234841	1.214718
O9	O	0.190066	-0.745348	0.615369
O10	O	0.690066	-0.245348	1.115369
O11	O	0.070244	-0.625609	0.615458
O12	O	0.570244	-0.125609	1.115458
O13	O	0.120758	-0.814840	0.754293
O14	O	0.620758	-0.314840	1.254293
Zn15	Zn	0.101812	-0.713914	0.691173
Zn16	Zn	0.601812	-0.213914	1.191173
Zn17	Zn	0.049438	-0.766275	0.638915
Zn18	Zn	0.549438	-0.266275	1.138915
O19	O	0.000936	-0.695100	0.754381
O20	O	0.500936	-0.195100	1.254381
N21	N	0.137558	-0.678184	0.726840
N22	N	0.637558	-0.178184	1.226840
N23	N	0.013698	-0.802011	0.603247
N24	N	0.513698	-0.302011	1.103247
C25	C	0.187224	-0.518558	0.776483
C26	C	0.687224	-0.018558	1.276483
C27	C	0.187235	-0.628552	0.776467
C28	C	0.687235	-0.128552	1.276467
C29	C	0.214753	-0.601061	0.803961
C30	C	0.714753	-0.101061	1.303961
C31	C	0.334724	-0.580392	0.740801
C32	C	0.834724	-0.080392	1.240801
C33	C	0.409718	-0.605392	0.715784
C34	C	0.909718	-0.105392	1.215784
C35	C	0.409746	-0.726732	0.762051
C36	C	0.909746	-0.226732	1.262051
C37	C	0.334754	-0.701730	0.787070
C38	C	0.834754	-0.201730	1.287070
C39	C	0.205297	-0.481049	0.702756
C40	C	0.705297	0.018951	1.202756
C41	C	0.180267	-0.406048	0.677779
C42	C	0.680267	0.093952	1.177779
C43	C	0.119099	-0.406071	0.800259
C44	C	0.619099	0.093929	1.300259
C45	C	0.144128	-0.481071	0.825236
C46	C	0.644128	0.018929	1.325236
C47	C	0.113501	-0.610437	0.794610
C48	C	0.613501	-0.110437	1.294610
C49	C	0.088492	-0.635428	0.769607
C50	C	0.588492	-0.135428	1.269607
C51	C	0.210943	-0.696652	0.708337
C52	C	0.710943	-0.196652	1.208337
C53	C	0.235956	-0.671660	0.733331
C54	C	0.735956	-0.171660	1.233331
C55	C	0.113585	-0.610461	0.923980
C56	C	0.613585	-0.110461	1.423980
C57	C	0.088635	-0.635476	0.998978
C58	C	0.588635	-0.135476	1.498978
C59	C	0.211128	-0.696714	0.998930
C60	C	0.711128	-0.196714	1.498930
C61	C	0.236077	-0.671700	0.923930
C62	C	0.736077	-0.171700	1.423930
C63	C	0.187303	-0.628571	0.886457
C64	C	0.687303	-0.128571	1.386457
C65	C	0.297246	-0.628559	0.776441
C66	C	0.797246	-0.128559	1.276441
C67	C	-0.117796	-0.823430	0.581283
C68	C	0.382204	-0.323430	1.081283
C69	C	-0.007671	-0.823587	0.471446
C70	C	0.492329	-0.323587	0.971446
C71	C	-0.007879	-0.933535	0.581483
C72	C	0.492121	-0.433535	1.081483
C73	C	-0.007861	-0.823583	0.581554
C74	C	0.492139	-0.323583	1.081554
C75	C	-0.035301	-0.851035	0.553942
C76	C	0.464699	-0.351035	1.053942
N77	N	0.446162	-0.678198	0.726752
N78	N	0.946162	-0.178198	1.226752
O79	O	0.691234	-0.690164	0.550341
O80	O	1.191234	-0.190164	1.050341
O81	O	0.691462	-0.829422	0.739388
O82	O	1.191462	-0.329422	1.239388
O83	O	0.691373	-0.829102	0.619485
O84	O	1.191373	-0.329102	1.119485
O85	O	0.691323	-0.690484	0.670244
O86	O	1.191323	-0.190484	1.170244
O87	O	0.572233	-0.789455	0.659278
O88	O	1.072233	-0.289455	1.159278
O89	O	0.572322	-0.789775	0.779181
O90	O	1.072322	-0.289775	1.279181
O91	O	0.572094	-0.650517	0.590134
O92	O	1.072094	-0.150517	1.090134
Zn93	Zn	0.553292	-0.713851	0.690976
Zn94	Zn	1.053292	-0.213851	1.190976
Zn95	Zn	0.710264	-0.766088	0.638547
Zn96	Zn	1.210264	-0.266088	1.138547
O97	O	0.572183	-0.650837	0.710037
O98	O	1.072183	-0.150837	1.210037
N99	N	0.817394	-0.801741	0.602763
N100	N	1.317394	-0.301741	1.102763
N101	N	0.137538	-0.369628	0.726874
N102	N	0.637538	0.130372	1.226874
O103	O	-0.038795	-0.124419	0.714761
O104	O	0.461205	0.375581	1.214761
O105	O	0.150256	-0.124417	0.575522
O106	O	0.650256	0.375583	1.075522
O107	O	0.030331	-0.124432	0.575860
O108	O	0.530331	0.375568	1.075860
O109	O	0.081131	-0.124404	0.714423
O110	O	0.581131	0.375596	1.214423
O111	O	0.070086	-0.243584	0.615573
O112	O	0.570086	0.256416	1.115573
O113	O	0.190011	-0.243569	0.615236
O114	O	0.690011	0.256431	1.115236
O115	O	0.000960	-0.243571	0.754474
O116	O	0.500960	0.256429	1.254474
Zn117	Zn	0.101797	-0.262488	0.691160
Zn118	Zn	0.601797	0.237512	1.191160
Zn119	Zn	0.049419	-0.105500	0.638836
Zn120	Zn	0.549419	0.394500	1.138836
O121	O	0.120885	-0.243556	0.754137
O122	O	0.620885	0.256444	1.254137
N123	N	0.013669	0.001640	0.603123
N124	N	0.513669	0.501640	1.103123
N125	N	0.137749	-0.678230	1.035381
N126	N	0.637749	-0.178230	1.535381
O127	O	0.125655	-0.854547	1.280566
O128	O	0.625655	-0.354547	1.780566
O129	O	-0.013567	-0.665426	1.280590
O130	O	0.486433	-0.165426	1.780590
O131	O	-0.013245	-0.785328	1.280537
O132	O	0.486755	-0.285328	1.780537
O133	O	0.125333	-0.734644	1.280618
O134	O	0.625333	-0.234644	1.780618
O135	O	0.026456	-0.745599	1.161392
O136	O	0.526456	-0.245599	1.661392
O137	O	0.026134	-0.625697	1.161444
O138	O	0.526134	-0.125697	1.661444
O139	O	0.165355	-0.814817	1.161420
O140	O	0.665355	-0.314817	1.661420
Zn141	Zn	0.102048	-0.713949	1.142516
Zn142	Zn	0.602048	-0.213949	1.642516
Zn143	Zn	0.049740	-0.766294	1.299495
Zn144	Zn	0.549740	-0.266294	1.799495
O145	O	0.165033	-0.694915	1.161473
O146	O	0.665033	-0.194915	1.661473
N147	N	0.014038	-0.802020	1.406629
N148	N	0.514038	-0.302020	1.906629
C149	C	0.045634	-0.621635	0.576499
C150	C	0.545634	-0.121635	1.076499
C151	C	0.194019	-0.769918	0.576389
C152	C	0.694019	-0.269918	1.076389
C153	C	0.105616	-0.858555	0.753588
C154	C	0.605616	-0.358555	1.253588
C155	C	-0.042769	-0.710272	0.753698
C156	C	0.457231	-0.210272	1.253698
C157	C	0.631920	-0.828776	0.783102
C158	C	1.131920	-0.328776	1.283102
C159	C	0.631811	-0.828380	0.634616
C160	C	1.131811	-0.328380	1.134616
C161	C	0.631633	-0.651162	0.546422
C162	C	1.131633	-0.151162	1.046422
C163	C	0.631745	-0.651559	0.694907
C164	C	1.131745	-0.151559	1.194907
C165	C	0.193900	-0.183846	0.576155
C166	C	0.693900	0.316154	1.076155
C167	C	0.045437	-0.184012	0.576622
C168	C	0.545437	0.315988	1.076622
C169	C	-0.042734	-0.183994	0.753792
C170	C	0.457266	0.316006	1.253792
C171	C	0.105780	-0.183977	0.753375
C172	C	0.605780	0.316023	1.253375
C173	C	-0.012889	-0.621735	1.221020
C174	C	0.487111	-0.121735	1.721020
C175	C	-0.012483	-0.770211	1.220931
C176	C	0.487517	-0.270211	1.720931
C177	C	0.164678	-0.858508	1.220991
C178	C	0.664678	-0.358508	1.720991
C179	C	0.164280	-0.710023	1.221052
C180	C	0.664280	-0.210023	1.721052
H181	H	0.073862	-0.575336	0.893474
H182	H	0.573862	-0.075336	1.393474
O183	O	0.077153	-0.369577	0.847549
O184	O	0.577153	0.130423	1.347549
C185	C	0.010446	-0.326219	0.836799
C186	C	0.510446	0.173781	1.336799
H187	H	0.016447	-0.314973	0.779892
H188	H	0.516447	0.185027	1.279892
H189	H	-0.008773	-0.273484	0.845154
H190	H	0.491227	0.226516	1.345154
H191	H	-0.030276	-0.355140	0.876659
H192	H	0.469724	0.144860	1.376659
H193	H	0.194981	-0.375507	0.617742
H194	H	0.694981	0.124493	1.117742
H195	H	0.248339	-0.780632	0.532734
H196	H	0.748339	-0.280632	1.032734
H197	H	-0.056598	-0.567419	1.221026
H198	H	0.443402	-0.067419	1.721026
H199	H	0.631832	-0.871926	0.623751
H200	H	1.131832	-0.371926	1.123751
H201	H	0.034558	-0.184014	0.533090
H202	H	0.534558	0.315986	1.033090
O203	O	-0.107558	-0.183949	0.805852
O204	O	0.392442	0.316051	1.305852
C205	C	-0.152153	-0.183972	0.780079
C206	C	0.347847	0.316028	1.280079
H207	H	-0.132769	-0.161432	0.719055
H208	H	0.367231	0.338568	1.219055
H209	H	-0.209535	-0.149366	0.802035
H210	H	0.290465	0.350634	1.302035
H211	H	-0.150219	-0.241134	0.798305
H212	H	0.349781	0.258866	1.298305
O213	O	0.631871	-0.880918	0.847902
O214	O	1.131871	-0.380918	1.347902
C215	C	0.570210	-0.900204	0.879622
C216	C	1.070210	-0.400204	1.379622
H217	H	0.527035	-0.854204	0.855961
H218	H	1.027035	-0.354204	1.355961
H219	H	0.549549	-0.912062	0.939908
H220	H	1.049549	-0.412062	1.439908
H221	H	0.584186	-0.949940	0.868646
H222	H	1.084186	-0.449940	1.368646
O223	O	0.118882	-0.184013	0.805245
O224	O	0.618882	0.315987	1.305245
C225	C	0.189295	-0.183995	0.779140
C226	C	0.689295	0.316005	1.279140
H227	H	0.223169	-0.206546	0.733147
H228	H	0.723169	0.293454	1.233147
H229	H	0.213425	-0.218595	0.824001
H230	H	0.713425	0.281405	1.324001
H231	H	0.188231	-0.126833	0.759164
H232	H	0.688231	0.373167	1.259164
H233	H	-0.097093	-0.699562	0.797349
H234	H	0.402907	-0.199562	1.297349
H235	H	0.034845	-0.567275	0.532897
H236	H	0.534845	-0.067275	1.032897
H237	H	0.116407	-0.912913	0.797192
H238	H	0.616407	-0.412913	1.297192
H239	H	-0.056000	-0.781036	1.220859
H240	H	0.444000	-0.281036	1.720859
O241	O	0.631855	-0.599628	0.707784
O242	O	1.131855	-0.099628	1.207784
C243	C	0.693505	-0.580300	0.658640
C244	C	1.193505	-0.080300	1.158640
H245	H	0.736643	-0.626180	0.637608
H246	H	1.236643	-0.126180	1.137608
H247	H	0.714237	-0.568684	0.686546
H248	H	1.214237	-0.068684	1.186546
H249	H	0.679488	-0.530407	0.612027
H250	H	1.179488	-0.030407	1.112027
O251	O	0.631576	-0.599087	0.481605
O252	O	1.131576	-0.099087	0.981605
C253	C	0.631537	-0.624872	0.437026
C254	C	1.131537	-0.124872	0.937026
H255	H	0.654151	-0.685897	0.456397
H256	H	1.154151	-0.185897	0.956397
H257	H	0.666065	-0.602876	0.379629
H258	H	1.166065	-0.102876	0.879629
H259	H	0.574366	-0.606695	0.439005
H260	H	1.074366	-0.106695	0.939005
H261	H	0.208389	-0.912821	1.220975
H262	H	0.708389	-0.412821	1.720975
O263	O	0.216154	-0.696964	1.221039
O264	O	0.716154	-0.196964	1.721039
C265	C	0.190055	-0.626546	1.221075
C266	C	0.690055	-0.126546	1.721075
H267	H	0.144065	-0.592639	1.198514
H268	H	0.644065	-0.092639	1.698514
H269	H	0.234917	-0.602453	1.186497
H270	H	0.734917	-0.102453	1.686497
H271	H	0.170081	-0.627602	1.278242
H272	H	0.670081	-0.127602	1.778242
H273	H	0.028603	-0.620718	1.029520
H274	H	0.528603	-0.120718	1.529520
H275	H	0.248082	-0.183515	0.532333
H276	H	0.748082	0.316485	1.032333
H277	H	0.250848	-0.731818	1.029432
H278	H	0.750848	-0.231818	1.529432
H279	H	0.073825	-0.575337	0.829731
H280	H	0.573825	-0.075337	1.329731
O281	O	0.307715	-0.689338	0.887593
O282	O	0.807715	-0.189338	1.387593
C283	C	0.345409	-0.732779	0.936752
C284	C	0.845409	-0.232779	1.436752
H285	H	0.309667	-0.723214	0.990221
H286	H	0.809667	-0.223214	1.490221
H287	H	0.395452	-0.718725	0.915070
H288	H	0.895452	-0.218725	1.415070
H289	H	0.361589	-0.791523	0.944716
H290	H	0.861589	-0.291523	1.444716
H291	H	0.028452	-0.620662	0.784363
H292	H	0.528452	-0.120662	1.284363
H293	H	0.295996	-0.686402	0.718551
H294	H	0.795996	-0.186402	1.218551
O295	O	0.258370	-0.738496	0.666422
O296	O	0.758370	-0.238496	1.166422
C297	C	0.328810	-0.749140	0.655795
C298	C	0.828810	-0.249140	1.155795
H299	H	0.328676	-0.703929	0.664182
H300	H	0.828676	-0.203929	1.164182
H301	H	0.364389	-0.749525	0.598909
H302	H	0.864389	-0.249525	1.098909
H303	H	0.350326	-0.802573	0.695698
H304	H	0.850326	-0.302573	1.195698
H305	H	0.440287	-0.786313	0.770693
H306	H	0.940287	-0.286313	1.270693
O307	O	0.298378	-0.748534	0.821574
O308	O	0.798378	-0.248534	1.321574
C309	C	0.316693	-0.783662	0.775677
C310	C	0.816693	-0.283662	1.275677
H311	H	0.337276	-0.749513	0.717619
H312	H	0.837276	-0.249513	1.217619
H313	H	0.267370	-0.792088	0.784543
H314	H	0.767370	-0.292088	1.284543
H315	H	0.360241	-0.837790	0.787753
H316	H	0.860241	-0.337790	1.287753
O317	O	0.446093	-0.558557	0.681053
O318	O	0.946093	-0.058557	1.181053
C319	C	0.427713	-0.507632	0.619242
C320	C	0.927713	-0.007632	1.119242
H321	H	0.407084	-0.530739	0.602012
H322	H	0.907084	-0.030739	1.102012
H323	H	0.477013	-0.493903	0.574216
H324	H	0.977013	0.006097	1.074216
H325	H	0.384180	-0.457075	0.631513
H326	H	0.884180	0.042925	1.131513
O327	O	0.298213	-0.509343	0.730603
O328	O	0.798213	-0.009343	1.230603
C329	C	0.254880	-0.499144	0.797549
C330	C	0.754880	0.000856	1.297549
H331	H	0.243665	-0.550706	0.839340
H332	H	0.743665	-0.050706	1.339340
H333	H	0.202132	-0.454107	0.793235
H334	H	0.702132	0.045893	1.293235
H335	H	0.283799	-0.484374	0.814205
H336	H	0.783799	0.015626	1.314205
H337	H	0.240384	-0.511568	0.663058
H338	H	0.740384	-0.011568	1.163058
H339	H	0.129402	-0.511613	0.885274
H340	H	0.629402	-0.011613	1.385274
