data_functionalizedCrystal
_audit_creation_method	'MofGen! by Chris Wilmer'
_symmetry_space_group_name_H-M	'P1'
_symmetry_Int_Tables_number	1
_symmetry_cell_setting	triclinic
loop_
_symmetry_equiv_pos_as_xyz
  x,y,z
_cell_length_a	14.519709
_cell_length_b	14.519710
_cell_length_c	13.596369
_cell_angle_alpha	90.004381
_cell_angle_beta	89.993066
_cell_angle_gamma	96.319855
loop_
_atom_site_label
_atom_site_type_symbol
_atom_site_fract_x
_atom_site_fract_y
_atom_site_fract_z
O1	O	-0.120893	1.223868	0.081772
O2	O	0.129107	1.473868	0.331772
O3	O	0.379107	1.723868	0.581772
O4	O	0.629107	1.973868	0.831772
O5	O	-0.135129	0.955392	0.081779
O6	O	0.114871	1.205392	0.331779
O7	O	0.364871	1.455392	0.581779
O8	O	0.614871	1.705392	0.831779
O9	O	0.006227	1.096748	0.081766
O10	O	0.256227	1.346748	0.331766
O11	O	0.506227	1.596748	0.581766
O12	O	0.756227	1.846748	0.831766
O13	O	-0.262249	1.082512	0.081785
O14	O	-0.012249	1.332512	0.331785
O15	O	0.237751	1.582512	0.581785
O16	O	0.487751	1.832512	0.831785
O17	O	0.006235	1.096734	-0.081816
O18	O	0.256235	1.346734	0.168184
O19	O	0.506235	1.596734	0.418184
O20	O	0.756235	1.846734	0.668184
O21	O	-0.135122	0.955377	-0.081804
O22	O	0.114878	1.205377	0.168196
O23	O	0.364878	1.455377	0.418196
O24	O	0.614878	1.705377	0.668196
O25	O	-0.120885	1.223854	-0.081811
O26	O	0.129115	1.473854	0.168189
O27	O	0.379115	1.723854	0.418189
O28	O	0.629115	1.973854	0.668189
Zn29	Zn	-0.128002	1.089614	-0.107780
Zn30	Zn	0.121998	1.339614	0.142220
Zn31	Zn	0.371998	1.589614	0.392220
Zn32	Zn	0.621998	1.839614	0.642220
Zn33	Zn	-0.128012	1.089632	0.107748
Zn34	Zn	0.121988	1.339632	0.357748
Zn35	Zn	0.371988	1.589632	0.607748
Zn36	Zn	0.621988	1.839632	0.857748
O37	O	-0.262242	1.082498	-0.081798
O38	O	-0.012242	1.332498	0.168202
O39	O	0.237758	1.582498	0.418202
O40	O	0.487758	1.832498	0.668202
C41	C	0.040591	1.096078	-0.000025
C42	C	0.290591	1.346078	0.249975
C43	C	0.540591	1.596078	0.499975
C44	C	0.790591	1.846078	0.749975
C45	C	0.142972	1.094090	-0.000026
C46	C	0.392972	1.344090	0.249974
C47	C	0.642972	1.594090	0.499974
C48	C	0.892972	1.844090	0.749974
C49	C	-0.121553	1.258221	-0.000018
C50	C	0.128447	1.508221	0.249982
C51	C	0.378447	1.758221	0.499982
C52	C	0.628447	2.008221	0.749982
C53	C	-0.123541	1.360602	-0.000014
C54	C	0.126459	1.610602	0.249986
C55	C	0.376459	1.860602	0.499986
C56	C	0.626459	2.110602	0.749986
C57	C	-0.134462	0.921025	-0.000012
C58	C	0.115538	1.171025	0.249988
C59	C	0.365538	1.421025	0.499988
C60	C	0.615538	1.671025	0.749988
C61	C	-0.132474	0.818643	-0.000009
C62	C	0.117526	1.068643	0.249991
C63	C	0.367526	1.318643	0.499991
C64	C	0.617526	1.568643	0.749991
C65	C	-0.296606	1.083168	-0.000005
C66	C	-0.046606	1.333168	0.249995
C67	C	0.203394	1.583168	0.499995
C68	C	0.453394	1.833168	0.749995
C69	C	-0.398987	1.085156	0.000002
C70	C	-0.148987	1.335156	0.250002
C71	C	0.101013	1.585156	0.500002
C72	C	0.351013	1.835156	0.750002
C73	C	0.517868	1.086770	0.000000
C74	C	0.767868	1.336770	0.250000
C75	C	1.017868	1.586770	0.500000
C76	C	1.267868	1.836770	0.750000
C77	C	0.413560	1.088803	-0.000007
C78	C	0.663560	1.338803	0.249993
C79	C	0.913560	1.588803	0.499993
C80	C	1.163560	1.838803	0.749993
C81	C	0.330423	1.090430	-0.000014
C82	C	0.580423	1.340430	0.249986
C83	C	0.830423	1.590430	0.499986
C84	C	1.080423	1.840430	0.749986
C85	C	0.226109	1.092463	-0.000019
C86	C	0.476109	1.342463	0.249981
C87	C	0.726109	1.592463	0.499981
C88	C	0.976109	1.842463	0.749981
N89	N	-0.127995	1.089608	-0.254872
N90	N	0.122005	1.339608	-0.004872
N91	N	0.372005	1.589608	0.245128
N92	N	0.622005	1.839608	0.495128
C93	C	-0.130860	1.735498	-0.000013
C94	C	0.119140	1.985498	0.249987
C95	C	0.369140	2.235498	0.499987
C96	C	0.619140	2.485498	0.749987
C97	C	-0.128828	1.631190	-0.000013
C98	C	0.121172	1.881190	0.249987
C99	C	0.371172	2.131190	0.499987
C100	C	0.621172	2.381190	0.749987
C101	C	-0.127201	1.548054	-0.000013
C102	C	0.122799	1.798054	0.249987
C103	C	0.372799	2.048054	0.499987
C104	C	0.622799	2.298054	0.749987
C105	C	-0.125168	1.443739	-0.000014
C106	C	0.124832	1.693739	0.249986
C107	C	0.374832	1.943739	0.499986
C108	C	0.624832	2.193739	0.749986
C109	C	-0.128013	1.089631	-0.656162
C110	C	0.121987	1.339631	-0.406162
C111	C	0.371987	1.589631	-0.156162
C112	C	0.621987	1.839631	0.093838
C113	C	-0.128011	1.089622	-0.544511
C114	C	0.121989	1.339622	-0.294511
C115	C	0.371989	1.589622	-0.044511
C116	C	0.621989	1.839622	0.205489
C117	C	-0.128005	1.089620	-0.455521
C118	C	0.121995	1.339620	-0.205521
C119	C	0.371995	1.589620	0.044479
C120	C	0.621995	1.839620	0.294479
C121	C	-0.128001	1.089610	-0.343862
C122	C	0.121999	1.339610	-0.093862
C123	C	0.371999	1.589610	0.156138
C124	C	0.621999	1.839610	0.406138
N125	N	-0.128012	1.089645	0.254840
N126	N	0.121988	1.339645	0.504840
N127	N	0.371988	1.589645	0.754840
N128	N	0.621988	1.839645	1.004840
