data_functionalizedCrystal
_audit_creation_method	'MofGen! by Chris Wilmer'
_symmetry_space_group_name_H-M	'P1'
_symmetry_Int_Tables_number	1
_symmetry_cell_setting	triclinic
loop_
_symmetry_equiv_pos_as_xyz
  x,y,z
_cell_length_a	10.654550
_cell_length_b	16.992695
_cell_length_c	9.130313
_cell_angle_alpha	89.998255
_cell_angle_beta	89.996220
_cell_angle_gamma	87.576563
loop_
_atom_site_label
_atom_site_type_symbol
_atom_site_fract_x
_atom_site_fract_y
_atom_site_fract_z
O1	O	1.677356	0.110186	-0.121922
O2	O	1.312785	0.120685	-0.121899
O3	O	1.493609	0.001285	-0.121899
O4	O	1.496532	0.229586	-0.121922
O5	O	1.493607	0.001288	0.121700
O6	O	1.312783	0.120688	0.121700
O7	O	1.677354	0.110190	0.121676
Cu8	Cu	1.495068	0.115439	0.143931
Cu9	Cu	1.495071	0.115435	-0.144153
O10	O	1.496530	0.229589	0.121676
C11	C	1.265919	0.119915	-0.000097
C12	C	1.126277	0.117609	-0.000087
C13	C	1.052866	0.187910	-0.000116
C14	C	0.921658	0.185738	-0.000141
C15	C	0.937282	0.042959	-0.000115
C16	C	1.068488	0.045131	-0.000080
C17	C	1.043844	0.270342	-0.000137
C18	C	0.912636	0.268171	-0.000162
C19	C	1.489848	-0.027947	-0.000100
C20	C	1.478628	-0.115052	-0.000099
C21	C	1.586879	-0.164704	-0.000105
C22	C	1.576330	-0.246548	-0.000118
C23	C	1.457529	-0.278738	-0.000115
C24	C	1.349270	-0.229080	-0.000114
C25	C	1.359820	-0.147237	-0.000112
C26	C	1.413802	-0.522574	-0.000133
C27	C	1.403260	-0.604422	-0.000131
C28	C	1.630321	-0.621884	-0.000137
C29	C	1.640861	-0.540040	-0.000126
C30	C	1.532602	-0.490389	-0.000132
N31	N	1.446743	-0.362396	-0.000124
N32	N	1.543389	-0.406733	-0.000134
C33	C	1.724220	0.110959	-0.000129
C34	C	1.863862	0.113265	-0.000148
C35	C	1.500291	0.258821	-0.000126
C36	C	1.511510	0.345926	-0.000136
N37	N	1.495076	0.115441	0.346553
N38	N	1.495073	0.115427	-0.346776
C39	C	1.575168	0.062589	0.423205
C40	C	1.575164	0.062580	0.576542
C41	C	1.414971	0.168281	0.576561
C42	C	1.414970	0.168286	0.423227
C43	C	1.667658	0.001565	0.423195
C44	C	1.667654	0.001556	0.576532
H45	H	0.890215	-0.016050	-0.000131
C46	C	1.294715	-0.467968	-0.000113
C47	C	1.199595	-0.472021	-0.126589
C48	C	1.080500	-0.417413	-0.126562
C49	C	1.056525	-0.358753	-0.000059
C50	C	1.151648	-0.354698	0.126426
C51	C	1.270743	-0.409306	0.126399
H52	H	1.217340	-0.515446	-0.220242
H53	H	1.010084	-0.420415	-0.220196
H54	H	0.968364	-0.318329	-0.000039
H55	H	1.133903	-0.311272	0.220079
H56	H	1.341159	-0.406304	0.220032
C57	C	1.326860	0.226418	0.338903
C58	C	1.238816	0.284585	0.423239
C59	C	1.150702	0.342718	0.338912
C60	C	1.150630	0.342683	0.170251
C61	C	1.238677	0.284513	0.085906
C62	C	1.326791	0.226380	0.170233
H63	H	1.238866	0.284613	0.548100
H64	H	1.085524	0.385779	0.401351
H65	H	1.085402	0.385716	0.107828
H66	H	1.238627	0.284485	-0.038955
H67	H	1.391969	0.183319	0.107794
H68	H	1.252539	-0.255296	-0.000121
C69	C	1.631642	-0.079891	0.366965
C70	C	1.712761	-0.153813	0.407698
C71	C	1.676744	-0.235267	0.351467
C72	C	1.559608	-0.242798	0.254503
C73	C	1.478482	-0.168873	0.213764
C74	C	1.514499	-0.087420	0.269995
H75	H	1.799478	-0.148241	0.479482
H76	H	1.736799	-0.289991	0.381625
H77	H	1.532947	-0.303095	0.212877
H78	H	1.391765	-0.174446	0.141981
H79	H	1.454444	-0.032696	0.239837
C80	C	1.619812	-0.075433	0.640773
C81	C	1.705752	-0.127194	0.740399
C82	C	1.657920	-0.204185	0.804635
C83	C	1.524148	-0.229415	0.769244
C84	C	1.438200	-0.177654	0.669613
C85	C	1.486032	-0.100662	0.605378
H86	H	1.804785	-0.108518	0.766602
H87	H	1.721545	-0.242503	0.878388
H88	H	1.488739	-0.286409	0.816795
H89	H	1.339166	-0.196329	0.643410
H90	H	1.422407	-0.062345	0.531624
C91	C	1.799595	0.019729	0.632745
C92	C	1.817839	0.092505	0.729715
C93	C	1.949772	0.110685	0.785922
C94	C	2.063462	0.056090	0.745159
C95	C	2.045221	-0.016691	0.648185
C96	C	1.913288	-0.034871	0.591978
H97	H	1.733676	0.132924	0.759894
H98	H	1.963274	0.164563	0.857709
H99	H	2.161127	0.069548	0.786767
H100	H	2.129384	-0.057110	0.618005
H101	H	1.899785	-0.088748	0.520191
H102	H	1.081769	0.296589	-0.105312
C103	C	1.793070	0.027375	0.358926
C104	C	1.871124	-0.029047	0.259261
C105	C	1.996536	-0.003235	0.194993
C106	C	2.043894	0.078999	0.230390
C107	C	1.965839	0.135426	0.330060
C108	C	1.840427	0.109614	0.394328
H109	H	1.836068	-0.089926	0.233054
H110	H	2.054317	-0.045006	0.121211
H111	H	2.136731	0.098107	0.182815
H112	H	2.000895	0.196305	0.356267
H113	H	1.782646	0.151385	0.468110
H114	H	1.349751	0.211306	0.639006
C115	C	0.853830	0.301823	0.141904
C116	C	0.938620	0.332896	0.263667
C117	C	0.879812	0.366543	0.405732
C118	C	0.736214	0.369116	0.426034
C119	C	0.651415	0.338042	0.304268
C120	C	0.710223	0.304395	0.162203
H121	H	1.044927	0.330992	0.248641
H122	H	0.942586	0.389546	0.495871
H123	H	0.692681	0.394024	0.531199
H124	H	0.545108	0.339946	0.319294
H125	H	0.647449	0.281392	0.072063
H126	H	1.271671	-0.106811	-0.000107
H127	H	1.128255	-0.012114	-0.000035
H128	H	1.075960	0.302583	0.101811
C129	C	1.695412	-0.301162	-0.000119
C130	C	1.790511	-0.297116	0.126379
C131	C	1.909601	-0.351729	0.126374
C132	C	1.933591	-0.410387	-0.000128
C133	C	1.838489	-0.414434	-0.126636
C134	C	1.719399	-0.359822	-0.126631
H135	H	1.772755	-0.253692	0.220032
H136	H	1.980002	-0.348732	0.220024
H137	H	2.021748	-0.450814	-0.000132
H138	H	1.856245	-0.457859	-0.220289
H139	H	1.648998	-0.362819	-0.220281
H140	H	1.683620	-0.138501	-0.000098
H141	H	0.873588	0.299229	-0.102119
H142	H	1.737601	-0.513837	-0.000128
H143	H	1.718459	-0.662319	-0.000135
H144	H	1.306513	-0.630628	-0.000105
