data_functionalizedCrystal
_audit_creation_method	'MofGen! by Chris Wilmer'
_symmetry_space_group_name_H-M	'P1'
_symmetry_Int_Tables_number	1
_symmetry_cell_setting	triclinic
loop_
_symmetry_equiv_pos_as_xyz
  x,y,z
_cell_length_a	19.077105
_cell_length_b	19.077078
_cell_length_c	19.076919
_cell_angle_alpha	94.468470
_cell_angle_beta	90.076224
_cell_angle_gamma	90.116776
loop_
_atom_site_label
_atom_site_type_symbol
_atom_site_fract_x
_atom_site_fract_y
_atom_site_fract_z
Zn1	Zn	1.044040	-0.340449	-0.453486
Zn2	Zn	1.377373	-0.007116	-0.120153
Zn3	Zn	1.710706	0.326217	0.213181
Zn4	Zn	1.043950	-0.453599	-0.340322
Zn5	Zn	1.377283	-0.120265	-0.006989
Zn6	Zn	1.710617	0.213068	0.326344
Zn7	Zn	0.931652	-0.331022	-0.330917
Zn8	Zn	1.264985	0.002311	0.002416
Zn9	Zn	1.598318	0.335645	0.335749
Zn10	Zn	0.921790	-0.453174	-0.453059
Zn11	Zn	1.255123	-0.119841	-0.119725
Zn12	Zn	1.588456	0.213492	0.213608
O13	O	0.985358	-0.394561	-0.394446
O14	O	1.318691	-0.061228	-0.061113
O15	O	1.652024	0.272106	0.272221
O16	O	1.142187	-0.359582	-0.442589
O17	O	1.475521	-0.026248	-0.109256
O18	O	1.808854	0.307085	0.224077
O19	O	1.033143	-0.433571	-0.240599
O20	O	1.366477	-0.100238	0.092734
O21	O	1.699810	0.233096	0.426068
O22	O	0.950725	-0.233798	-0.343419
O23	O	1.284058	0.099535	-0.010086
O24	O	1.617392	0.432868	0.323247
O25	O	1.142121	-0.442712	-0.359449
O26	O	1.475455	-0.109379	-0.026115
O27	O	1.808788	0.223955	0.307218
O28	O	1.033296	-0.240724	-0.433470
O29	O	1.366629	0.092609	-0.100136
O30	O	1.699963	0.425942	0.233197
O31	O	0.950638	-0.343514	-0.233689
O32	O	1.283971	-0.010181	0.099644
O33	O	1.617305	0.323152	0.432978
O34	O	0.832184	-0.343103	-0.343005
O35	O	1.165517	-0.009770	-0.009672
O36	O	1.498851	0.323564	0.323662
O37	O	0.933917	-0.441989	-0.551591
O38	O	1.267250	-0.108655	-0.218258
O39	O	1.600583	0.224678	0.115075
O40	O	0.824938	-0.432848	-0.432742
O41	O	1.158272	-0.099514	-0.099408
O42	O	1.491605	0.233819	0.233925
O43	O	1.023733	-0.359170	-0.551905
O44	O	1.357067	-0.025837	-0.218572
O45	O	1.690400	0.307497	0.114762
O46	O	1.023580	-0.552017	-0.359034
O47	O	1.356914	-0.218683	-0.025701
O48	O	1.690247	0.114650	0.307632
O49	O	0.933830	-0.551705	-0.441861
O50	O	1.267163	-0.218372	-0.108528
O51	O	1.600496	0.114962	0.224805
C52	C	0.803109	-0.386907	-0.386807
C53	C	1.136443	-0.053573	-0.053473
C54	C	1.469776	0.279760	0.279860
C55	C	0.725141	-0.383650	-0.383556
C56	C	1.058475	-0.050316	-0.050223
C57	C	1.391808	0.283017	0.283111
C58	C	0.977643	-0.577396	-0.401438
C59	C	1.310977	-0.244062	-0.068105
C60	C	1.644310	0.089271	0.265229
C61	C	0.974406	-0.655616	-0.404455
C62	C	1.307740	-0.322283	-0.071122
C63	C	1.641073	0.011050	0.262211
C64	C	0.951186	-1.095906	-0.426123
C65	C	1.284519	-0.762572	-0.092790
C66	C	1.617853	-0.429239	0.240544
C67	C	0.954228	-1.022408	-0.423280
C68	C	1.287561	-0.689075	-0.089947
C69	C	1.620894	-0.355742	0.243387
C70	C	1.002509	-0.985804	-0.378769
C71	C	1.335843	-0.652470	-0.045435
C72	C	1.669176	-0.319137	0.287898
C73	C	1.047757	-1.022701	-0.337103
C74	C	1.381090	-0.689367	-0.003770
C75	C	1.714423	-0.356034	0.329564
C76	C	1.044718	-1.096197	-0.339950
C77	C	1.378051	-0.762863	-0.006617
C78	C	1.711385	-0.429530	0.326717
C79	C	1.016615	-0.766009	-0.365637
C80	C	1.349949	-0.432676	-0.032303
C81	C	1.683282	-0.099343	0.301030
C82	C	1.019649	-0.692508	-0.362791
C83	C	1.352983	-0.359175	-0.029458
C84	C	1.686316	-0.025841	0.303875
C85	C	0.926121	-0.692221	-0.448970
C86	C	1.259454	-0.358888	-0.115636
C87	C	1.592787	-0.025554	0.217697
C88	C	0.923083	-0.765718	-0.451810
C89	C	1.256417	-0.432385	-0.118476
C90	C	1.589750	-0.099052	0.214857
C91	C	0.968333	-0.802609	-0.410147
C92	C	1.301666	-0.469276	-0.076813
C93	C	1.635000	-0.135942	0.256520
N94	N	1.005618	-0.910678	-0.375860
N95	N	1.338951	-0.577344	-0.042527
N96	N	1.672285	-0.244011	0.290807
N97	N	0.965227	-0.877734	-0.413060
N98	N	1.298561	-0.544401	-0.079726
N99	N	1.631894	-0.211067	0.253607
C100	C	0.684758	-0.428910	-0.428682
C101	C	1.018091	-0.095577	-0.095348
C102	C	1.351425	0.237757	0.237985
C103	C	0.611499	-0.425841	-0.425630
C104	C	0.944832	-0.092507	-0.092297
C105	C	1.278166	0.240826	0.241036
C106	C	0.578625	-0.377514	-0.377449
C107	C	0.911958	-0.044181	-0.044116
C108	C	1.245291	0.289153	0.289218
C109	C	0.619014	-0.332249	-0.332322
C110	C	0.952347	0.001084	0.001012
C111	C	1.285680	0.334418	0.334345
C112	C	0.692271	-0.335315	-0.335377
C113	C	1.025605	-0.001982	-0.002044
C114	C	1.358938	0.331351	0.331290
C115	C	0.359931	-0.363322	-0.363312
C116	C	0.693264	-0.029989	-0.029978
C117	C	1.026597	0.303345	0.303355
C118	C	0.286668	-0.360260	-0.360258
C119	C	0.620001	-0.026927	-0.026925
C120	C	0.953334	0.306406	0.306408
C121	C	0.279158	-0.453852	-0.453568
C122	C	0.612491	-0.120518	-0.120235
C123	C	0.945825	0.212815	0.213098
C124	C	0.352417	-0.456917	-0.456617
C125	C	0.685751	-0.123583	-0.123283
C126	C	1.019084	0.209750	0.210050
C127	C	0.392800	-0.411649	-0.411492
C128	C	0.726133	-0.078316	-0.078158
C129	C	1.059467	0.255018	0.255175
N130	N	0.503742	-0.374377	-0.374327
N131	N	0.837076	-0.041043	-0.040994
N132	N	1.170409	0.292290	0.292339
N133	N	0.467681	-0.414783	-0.414617
N134	N	0.801014	-0.081450	-0.081284
N135	N	1.134348	0.251883	0.252050
C136	C	1.168318	-0.402246	-0.402116
C137	C	1.501651	-0.068912	-0.068782
C138	C	1.834984	0.264421	0.264551
C139	C	1.246284	-0.405521	-0.405384
C140	C	1.579618	-0.072187	-0.072051
C141	C	1.912951	0.261146	0.261283
C142	C	0.977735	-0.401584	-0.577996
C143	C	1.311068	-0.068250	-0.244663
C144	C	1.644401	0.265083	0.088671
C145	C	0.974486	-0.404576	-0.656214
C146	C	1.307820	-0.071243	-0.322880
C147	C	1.641153	0.262090	0.010453
C148	C	0.993121	-0.211014	-0.387443
C149	C	1.326454	0.122319	-0.054110
C150	C	1.659787	0.455653	0.279224
C151	C	0.996429	-0.132797	-0.384459
C152	C	1.329762	0.200536	-0.051125
C153	C	1.663095	0.533870	0.282208
C154	C	1.019721	-0.362865	-0.693125
C155	C	1.353054	-0.029532	-0.359792
C156	C	1.686387	0.303802	-0.026459
C157	C	1.016660	-0.365674	-0.766619
C158	C	1.349993	-0.032341	-0.433286
C159	C	1.683326	0.300993	-0.099952
C160	C	0.968368	-0.410198	-0.803200
C161	C	1.301701	-0.076865	-0.469867
C162	C	1.635034	0.256469	-0.136533
C163	C	0.923129	-0.451911	-0.766283
C164	C	1.256462	-0.118578	-0.432950
C165	C	1.589795	0.214756	-0.099617
C166	C	0.926187	-0.449098	-0.692791
C167	C	1.259520	-0.115765	-0.359457
C168	C	1.592853	0.217569	-0.026124
C169	C	0.954205	-0.423231	-1.022981
C170	C	1.287538	-0.089898	-0.689648
C171	C	1.620872	0.243435	-0.356315
C172	C	0.951152	-0.426043	-1.096479
C173	C	1.284485	-0.092709	-0.763146
C174	C	1.617819	0.240624	-0.429813
C175	C	1.044683	-0.339804	-1.096810
C176	C	1.378016	-0.006471	-0.763476
C177	C	1.711349	0.326862	-0.430143
C178	C	1.047739	-0.336998	-1.023316
C179	C	1.381072	-0.003665	-0.689983
C180	C	1.714406	0.329668	-0.356649
C181	C	1.002498	-0.378708	-0.986405
C182	C	1.335831	-0.045375	-0.653072
C183	C	1.669164	0.287958	-0.319739
N184	N	0.965240	-0.413072	-0.878322
N185	N	1.298573	-0.079739	-0.544989
N186	N	1.631906	0.253595	-0.211656
N187	N	1.005623	-0.375830	-0.911284
N188	N	1.338956	-0.042497	-0.577951
N189	N	1.672289	0.290836	-0.244617
C190	C	0.992994	-0.387517	-0.211610
C191	C	1.326327	-0.054183	0.121723
C192	C	1.659660	0.279150	0.455056
C193	C	0.996386	-0.384331	-0.133391
C194	C	1.329720	-0.050998	0.199943
C195	C	1.663053	0.282335	0.533276
H196	H	0.911871	-1.125704	-0.462370
H197	H	1.245204	-0.792371	-0.129036
H198	H	1.578537	-0.459037	0.204297
H199	H	1.081515	-0.305845	-1.126870
H200	H	1.414848	0.027488	-0.793537
H201	H	1.748181	0.360821	-0.460204
H202	H	0.592242	-0.292897	-0.293094
H203	H	0.925575	0.040436	0.040239
H204	H	1.258908	0.373769	0.373572
H205	H	1.087072	-0.992893	-0.300864
H206	H	1.420406	-0.659560	0.032470
H207	H	1.753739	-0.326226	0.365803
H208	H	1.058968	-0.662708	-0.326542
H209	H	1.392301	-0.329375	0.006791
H210	H	1.725635	0.003959	0.340125
H211	H	1.059047	-0.326611	-0.663346
H212	H	1.392381	0.006723	-0.330013
H213	H	1.725714	0.340056	0.003320
H214	H	0.917376	-0.457205	-0.992938
H215	H	1.250709	-0.123872	-0.659605
H216	H	1.584043	0.209461	-0.326272
H217	H	0.911825	-0.462301	-1.126261
H218	H	1.245158	-0.128968	-0.792928
H219	H	1.578491	0.204365	-0.459595
H220	H	1.081561	-1.126233	-0.306024
H221	H	1.414894	-0.792900	0.027309
H222	H	1.748228	-0.459566	0.360642
H223	H	1.053459	-0.796037	-0.331709
H224	H	1.386792	-0.462703	0.001624
H225	H	1.720125	-0.129370	0.334957
H226	H	0.711518	-0.468265	-0.467914
H227	H	1.044852	-0.134932	-0.134580
H228	H	1.378185	0.198402	0.198753
H229	H	0.259904	-0.320899	-0.321027
H230	H	0.593238	0.012434	0.012306
H231	H	0.926571	0.345768	0.345639
H232	H	0.725151	-0.298456	-0.298634
H233	H	1.058484	0.034877	0.034699
H234	H	1.391818	0.368211	0.368032
H235	H	0.379178	-0.496271	-0.495849
H236	H	0.712512	-0.162938	-0.162516
H237	H	1.045845	0.170396	0.170817
H238	H	1.087065	-0.300744	-0.993537
H239	H	1.420399	0.032589	-0.660204
H240	H	1.753732	0.365923	-0.326870
H241	H	1.053496	-0.331710	-0.796669
H242	H	1.386829	0.001623	-0.463336
H243	H	1.720163	0.334957	-0.130003
H244	H	0.392802	-0.326467	-0.326563
H245	H	0.726135	0.006866	0.006771
H246	H	1.059468	0.340200	0.340104
H247	H	0.917388	-0.992372	-0.457207
H248	H	1.250721	-0.659038	-0.123873
H249	H	1.584055	-0.325705	0.209460
H250	H	0.883759	-0.795516	-0.488047
H251	H	1.217093	-0.462183	-0.154714
H252	H	1.550426	-0.128849	0.178620
H253	H	0.889281	-0.662178	-0.482891
H254	H	1.222614	-0.328845	-0.149557
H255	H	1.555948	0.004489	0.183776
H256	H	0.883806	-0.488161	-0.796073
H257	H	1.217139	-0.154828	-0.462740
H258	H	1.550473	0.178506	-0.129406
H259	H	0.889345	-0.483056	-0.662738
H260	H	1.222679	-0.149723	-0.329404
H261	H	1.556012	0.183610	0.003929
H262	H	0.578622	-0.462697	-0.462376
H263	H	0.911955	-0.129364	-0.129042
H264	H	1.245288	0.203970	0.204291
H265	H	0.246271	-0.490705	-0.490308
H266	H	0.579604	-0.157371	-0.156974
H267	H	0.912938	0.175962	0.176359
