data_functionalizedCrystal
_audit_creation_method	'MofGen! by Chris Wilmer'
_symmetry_space_group_name_H-M	'P1'
_symmetry_Int_Tables_number	1
_symmetry_cell_setting	triclinic
loop_
_symmetry_equiv_pos_as_xyz
  x,y,z
_cell_length_a	14.044202
_cell_length_b	14.044220
_cell_length_c	12.503572
_cell_angle_alpha	86.150791
_cell_angle_beta	93.844866
_cell_angle_gamma	93.190789
loop_
_atom_site_label
_atom_site_type_symbol
_atom_site_fract_x
_atom_site_fract_y
_atom_site_fract_z
O1	O	-1.272121	-0.235257	0.089272
O2	O	-0.772121	0.264743	0.589272
O3	O	-0.995448	-0.226943	0.089286
O4	O	-0.495448	0.273057	0.589286
O5	O	-1.129632	-0.092763	0.089269
O6	O	-0.629632	0.407237	0.589269
O7	O	-1.137936	-0.369436	0.089290
O8	O	-0.637936	0.130564	0.589290
O9	O	-1.139727	-0.082659	-0.089375
O10	O	-0.639727	0.417341	0.410625
O11	O	-1.005543	-0.216838	-0.089357
O12	O	-0.505543	0.283162	0.410643
O13	O	-1.282216	-0.225152	-0.089371
O14	O	-0.782216	0.274848	0.410629
Cu15	Cu	-1.144801	-0.220073	-0.105676
Cu16	Cu	-0.644801	0.279927	0.394324
Cu17	Cu	-1.132862	-0.232022	0.105591
Cu18	Cu	-0.632862	0.267978	0.605591
O19	O	-1.148032	-0.359332	-0.089354
O20	O	-0.648032	0.140668	0.410646
C21	C	-0.964873	-0.218254	-0.000034
C22	C	-0.464873	0.281746	0.499966
C23	C	-0.858730	-0.207406	-0.000029
C24	C	-0.358730	0.292594	0.499971
C25	C	-0.613272	-0.264504	-0.000035
C26	C	-0.113272	0.235496	0.499965
C27	C	-0.664397	-0.187588	-0.000039
C28	C	-0.164397	0.312412	0.499961
C29	C	-0.772534	-0.198617	-0.000033
C30	C	-0.272534	0.301383	0.499967
C31	C	-0.505125	-0.253476	-0.000040
C32	C	-0.005125	0.246524	0.499960
N33	N	-1.153205	-0.211668	-0.254269
N34	N	-0.653205	0.288332	0.245731
C35	C	-1.131044	-0.052089	-0.000053
C36	C	-0.631044	0.447911	0.499947
C37	C	-1.120199	0.054054	-0.000054
C38	C	-0.620199	0.554054	0.499946
C39	C	-0.312790	-0.233839	-0.000048
C40	C	0.187210	0.266161	0.499952
C41	C	-0.418933	-0.244682	-0.000045
C42	C	0.081067	0.255318	0.499955
C43	C	-1.146619	-0.400006	-0.000029
C44	C	-0.646619	0.099994	0.499971
C45	C	-1.157464	-0.506150	-0.000022
C46	C	-0.657464	-0.006150	0.499978
C47	C	-1.100372	0.248392	-0.000038
C48	C	-0.600372	0.748392	0.499962
C49	C	-1.177287	0.299519	-0.000038
C50	C	-0.677287	0.799519	0.499962
C51	C	-1.166254	0.407655	-0.000029
C52	C	-0.666254	0.907655	0.499971
C53	C	-1.111403	0.140246	-0.000047
C54	C	-0.611403	0.640246	0.499953
N55	N	-1.124465	-0.240420	0.254184
N56	N	-0.624465	0.259580	0.754184
C57	C	-1.112105	-0.252773	0.473301
C58	C	-0.612105	0.247227	0.973301
C59	C	-1.165562	-0.199319	0.526621
C60	C	-0.665562	0.300681	1.026621
C61	C	-1.158685	-0.206192	0.648545
C62	C	-0.658685	0.293808	1.148545
C63	C	-1.118981	-0.245900	0.351366
C64	C	-0.618981	0.254100	0.851366
H65	H	-1.251416	0.262073	0.000030
H66	H	-0.751416	0.762073	0.500030
N67	N	-0.614810	-0.089387	-0.000048
N68	N	-0.114810	0.410613	0.499952
H69	H	-0.543470	-0.095323	-0.000048
H70	H	-0.043470	0.404677	0.499952
H71	H	-0.630195	-0.057326	0.066179
H72	H	-0.130195	0.442674	0.566179
H73	H	-1.026244	0.285831	-0.000031
H74	H	-0.526244	0.785831	0.499969
H75	H	-0.650712	-0.338631	-0.000026
H76	H	-0.150712	0.161369	0.499974
N77	N	-1.044635	-0.320221	0.534109
N78	N	-0.544635	0.179779	1.034109
H79	H	-1.082104	-0.368180	0.580781
H80	H	-0.582104	0.131820	1.080781
H81	H	-0.996697	-0.282659	0.580699
H82	H	-0.496697	0.217341	1.080699
H83	H	-1.216493	-0.148393	0.480702
H84	H	-0.716493	0.351607	0.980702
