data_functionalizedCrystal
_audit_creation_method	'MofGen! by Chris Wilmer'
_symmetry_space_group_name_H-M	'P1'
_symmetry_Int_Tables_number	1
_symmetry_cell_setting	triclinic
loop_
_symmetry_equiv_pos_as_xyz
  x,y,z
_cell_length_a	12.827892
_cell_length_b	11.169417
_cell_length_c	11.169409
_cell_angle_alpha	90.019824
_cell_angle_beta	89.966915
_cell_angle_gamma	89.983920
loop_
_atom_site_label
_atom_site_type_symbol
_atom_site_fract_x
_atom_site_fract_y
_atom_site_fract_z
Zn1	Zn	-0.415924	-1.834922	-0.678536
Zn2	Zn	0.084076	-1.334922	-0.178536
Zn3	Zn	-0.590711	-1.834794	-0.477851
Zn4	Zn	-0.090711	-1.334794	0.022149
Zn5	Zn	-0.415988	-1.634208	-0.477871
Zn6	Zn	0.084012	-1.134208	0.022129
Zn7	Zn	-0.590626	-1.634198	-0.678496
Zn8	Zn	-0.090626	-1.134198	-0.178496
O9	O	-0.503312	-1.734530	-0.578188
O10	O	-0.003312	-1.234530	-0.078188
O11	O	-0.439119	-2.002855	-0.651924
O12	O	0.060881	-1.502855	-0.151924
O13	O	-0.567596	-1.808136	-0.309904
O14	O	-0.067596	-1.308136	0.190096
O15	O	-0.269743	-1.660890	-0.504515
O16	O	0.230257	-1.160890	-0.004515
O17	O	-0.567534	-2.002761	-0.504481
O18	O	-0.067534	-1.502761	-0.004481
O19	O	-0.269696	-1.808354	-0.651943
O20	O	0.230304	-1.308354	-0.151943
O21	O	-0.439227	-1.660766	-0.309918
O22	O	0.060773	-1.160766	0.190082
O23	O	-0.439145	-1.466257	-0.504475
O24	O	0.060855	-0.966257	-0.004475
O25	O	-0.567389	-1.660874	-0.846451
O26	O	-0.067389	-1.160874	-0.346451
O27	O	-0.567451	-1.466250	-0.651874
O28	O	-0.067451	-0.966250	-0.151874
O29	O	-0.439036	-1.808345	-0.846481
O30	O	0.060964	-1.308345	-0.346481
O31	O	-0.736936	-1.808127	-0.504441
O32	O	-0.236936	-1.308127	-0.004441
O33	O	-0.736874	-1.660750	-0.651854
O34	O	-0.236874	-1.160750	-0.151854
C35	C	-0.503296	-1.422706	-0.578173
C36	C	-0.003296	-0.922706	-0.078173
C37	C	-0.503315	-1.289306	-0.578195
C38	C	-0.003315	-0.789306	-0.078195
C39	C	-0.774822	-1.734456	-0.578167
C40	C	-0.274822	-1.234456	-0.078167
C41	C	-0.890975	-1.734535	-0.578198
C42	C	-0.390975	-1.234535	-0.078198
C43	C	-0.503196	-1.734623	-0.891231
C44	C	-0.003196	-1.234623	-0.391231
C45	C	-0.503147	-1.734662	-1.024631
C46	C	-0.003147	-1.234662	-0.524631
C47	C	-1.062698	-1.807551	-0.651246
C48	C	-0.562698	-1.307551	-0.151246
C49	C	-0.942648	-1.807472	-0.651216
C50	C	-0.442648	-1.307472	-0.151216
C51	C	-0.230742	-1.734637	-0.578236
C52	C	0.269258	-1.234637	-0.078236
C53	C	-0.114589	-1.734683	-0.578256
C54	C	0.385411	-1.234683	-0.078256
C55	C	-0.503329	-2.047573	-0.578205
C56	C	-0.003329	-1.547573	-0.078205
C57	C	-0.503336	-2.180973	-0.578212
C58	C	-0.003336	-1.680973	-0.078212
C59	C	-0.503352	-1.734508	-0.266364
C60	C	-0.003352	-1.234508	0.233636
C61	C	-0.503108	-1.734701	-0.132964
C62	C	-0.003108	-1.234701	0.367036
H63	H	-1.107149	-1.869999	-0.713754
H64	H	-0.607149	-1.369999	-0.213754
H65	H	-1.070139	-1.672244	-0.515739
H66	H	-0.570139	-1.172244	-0.015739
H67	H	-0.898024	-1.869852	-0.713711
H68	H	-0.398024	-1.369852	-0.213711
H69	H	-0.935593	-1.672141	-0.515711
H70	H	-0.435593	-1.172141	-0.015711
