data_functionalizedCrystal
_audit_creation_method	'MofGen! by Chris Wilmer'
_symmetry_space_group_name_H-M	'P1'
_symmetry_Int_Tables_number	1
_symmetry_cell_setting	triclinic
loop_
_symmetry_equiv_pos_as_xyz
  x,y,z
_cell_length_a	25.639242
_cell_length_b	25.639240
_cell_length_c	25.639233
_cell_angle_alpha	89.974071
_cell_angle_beta	89.978417
_cell_angle_gamma	90.027658
loop_
_atom_site_label
_atom_site_type_symbol
_atom_site_fract_x
_atom_site_fract_y
_atom_site_fract_z
Zn1	Zn	0.799247	-0.208286	-0.295708
Zn2	Zn	0.799179	-0.295704	-0.208261
Zn3	Zn	0.711823	-0.208277	-0.208273
Zn4	Zn	0.711777	-0.295684	-0.295652
O5	O	0.755506	-0.251988	-0.251974
O6	O	0.872403	-0.219894	-0.284127
O7	O	0.787582	-0.284112	-0.135098
O8	O	0.723467	-0.135113	-0.219900
O9	O	0.872353	-0.284120	-0.219880
O10	O	0.787697	-0.135119	-0.284138
O11	O	0.723402	-0.219879	-0.135106
O12	O	0.638652	-0.219860	-0.219846
O13	O	0.723389	-0.284085	-0.368825
O14	O	0.638618	-0.284077	-0.284043
O15	O	0.787653	-0.219874	-0.368866
O16	O	0.787538	-0.368867	-0.219826
O17	O	0.723324	-0.368852	-0.284031
C18	C	0.619664	-0.251966	-0.251940
C19	C	0.561550	-0.251969	-0.251937
C20	C	0.755433	-0.387830	-0.251933
C21	C	0.755449	-0.445944	-0.251933
C22	C	0.310365	-0.218494	-0.218604
C23	C	0.364969	-0.218489	-0.218597
O24	O	0.393214	-0.189996	-0.190227
N25	N	0.392276	-0.251975	-0.251964
C26	C	0.364975	-0.285465	-0.285343
O27	O	0.393216	-0.313947	-0.313723
C28	C	0.310372	-0.285467	-0.285352
C29	C	0.283068	-0.251982	-0.251979
C30	C	0.283061	-0.185011	-0.185235
C31	C	0.228461	-0.185017	-0.185241
C32	C	0.201164	-0.218505	-0.218616
C33	C	0.228468	-0.251987	-0.251985
C34	C	0.283072	-0.318953	-0.318733
C35	C	0.228465	-0.318952	-0.318739
C36	C	0.201162	-0.285467	-0.285367
C37	C	0.146570	-0.285481	-0.285367
N38	N	0.119264	-0.251995	-0.252000
C39	C	0.146561	-0.218507	-0.218625
C40	C	0.479646	-0.285458	-0.285322
C41	C	0.534248	-0.285459	-0.285311
C42	C	0.534239	-0.218482	-0.218566
C43	C	0.479635	-0.218484	-0.218575
C44	C	0.452339	-0.251971	-0.251956
C45	C	0.031896	-0.218522	-0.218640
C46	C	-0.022710	-0.218532	-0.218648
C47	C	-0.022695	-0.285506	-0.285394
C48	C	0.031905	-0.285498	-0.285385
C49	C	0.059199	-0.252002	-0.252006
O50	O	0.118292	-0.313958	-0.313724
O51	O	0.118314	-0.190025	-0.190254
C52	C	0.788967	-0.806272	-0.285483
C53	C	0.788983	-0.860876	-0.285493
O54	O	0.817394	-0.889083	-0.313977
N55	N	0.755579	-0.888227	-0.252024
C56	C	0.722154	-0.860970	-0.218546
O57	O	0.693742	-0.889247	-0.190079
C58	C	0.722136	-0.806367	-0.218538
C59	C	0.755546	-0.779019	-0.252006
C60	C	0.822374	-0.778925	-0.318948
C61	C	0.822359	-0.724324	-0.318937
C62	C	0.788938	-0.697071	-0.285460
C63	C	0.755531	-0.724419	-0.251995
C64	C	0.688708	-0.779111	-0.185063
C65	C	0.688693	-0.724504	-0.185059
C66	C	0.722103	-0.697156	-0.218526
C67	C	0.722095	-0.642565	-0.218506
N68	N	0.755498	-0.615215	-0.251975
C69	C	0.788920	-0.642468	-0.285452
C70	C	0.722193	-0.975640	-0.218565
C71	C	0.722213	-1.030243	-0.218570
C72	C	0.789041	-1.030146	-0.285518
C73	C	0.789024	-0.975542	-0.285510
C74	C	0.755597	-0.948290	-0.252034
C75	C	0.788887	-0.527803	-0.285425
C76	C	0.788870	-0.473197	-0.285409
C77	C	0.722040	-0.473299	-0.218463
C78	C	0.722058	-0.527900	-0.218477
C79	C	0.755483	-0.555150	-0.251962
O80	O	0.693697	-0.614323	-0.190039
O81	O	0.817322	-0.614184	-0.313919
C82	C	0.891879	-0.252010	-0.252008
C83	C	0.949993	-0.252020	-0.252023
C84	C	0.755523	-0.251978	-0.388347
C85	C	0.755530	-0.251975	-0.446461
C86	C	0.755595	-0.115615	-0.252026
C87	C	0.755632	-0.057501	-0.252049
C88	C	0.789035	-0.218440	-0.806851
C89	C	0.789041	-0.218426	-0.861455
O90	O	0.817486	-0.189976	-0.889715
N91	N	0.755588	-0.251852	-0.888743
C92	C	0.722122	-0.285291	-0.861424
O93	O	0.693668	-0.313721	-0.889649
C94	C	0.722114	-0.285302	-0.806821
C95	C	0.755573	-0.251878	-0.779536
C96	C	0.822491	-0.185018	-0.779566
C97	C	0.822485	-0.185034	-0.724965
C98	C	0.789023	-0.218471	-0.697650
C99	C	0.755567	-0.251893	-0.724935
C100	C	0.688646	-0.318738	-0.779503
C101	C	0.688640	-0.318747	-0.724896
C102	C	0.722099	-0.285322	-0.697611
C103	C	0.722099	-0.285346	-0.643019
N104	N	0.755552	-0.251920	-0.615731
C105	C	0.789014	-0.218482	-0.643046
C106	C	0.722143	-0.285264	-0.976095
C107	C	0.722154	-0.285255	-1.030697
C108	C	0.789072	-0.218390	-1.030725
C109	C	0.789063	-0.218401	-0.976121
C110	C	0.755596	-0.251838	-0.948807
C111	C	0.789000	-0.218517	-0.528381
C112	C	0.788992	-0.218537	-0.473776
C113	C	0.722072	-0.285401	-0.473754
C114	C	0.722081	-0.285383	-0.528354
C115	C	0.755547	-0.251937	-0.555667
O116	O	0.693668	-0.313780	-0.614725
O117	O	0.817459	-0.190053	-0.614815
C118	C	0.755520	-0.251959	-0.116131
C119	C	0.755614	-0.251816	-0.058017
H120	H	-0.044938	-0.191264	-0.191470
H121	H	0.206244	-0.346220	-0.345924
H122	H	0.457425	-0.312732	-0.312504
H123	H	0.305281	-0.157738	-0.158057
Br124	Br	0.643237	-0.364106	-0.816519
Br125	Br	0.676685	-0.436303	-0.173032
Br126	Br	0.676753	-0.330629	-1.067721
H127	H	0.457408	-0.191216	-0.191402
H128	H	0.694830	-0.312626	-0.451504
H129	H	0.849730	-0.157815	-0.702754
H130	H	0.849740	-0.157787	-0.801800
Br131	Br	0.834250	-0.564777	-0.330869
H132	H	0.556474	-0.191213	-0.191391
Br133	Br	0.834473	-0.173038	-0.939097
H134	H	0.556474	-0.312731	-0.312480
Br135	Br	0.834406	-0.173174	-0.436749
Br136	Br	0.320113	-0.364400	-0.364027
H137	H	0.206235	-0.157750	-0.158066
Br138	Br	0.676722	-0.330650	-0.939031
H139	H	0.054137	-0.312768	-0.312555
H140	H	0.816249	-0.191281	-0.550613
H141	H	-0.044930	-0.312773	-0.312565
H142	H	0.661503	-0.801368	-0.157810
H143	H	0.661471	-0.702318	-0.157799
H144	H	0.816079	-0.450933	-0.312663
H145	H	0.661380	-0.345970	-0.702660
H146	H	0.816228	-0.953279	-0.312763
Br147	Br	0.834485	-0.173009	-1.067806
Br148	Br	0.676676	-0.330749	-0.565386
Br149	Br	0.867700	-0.687218	-0.364363
H150	H	0.816254	-1.052345	-0.312778
H151	H	0.849590	-0.801108	-0.346212
Br152	Br	0.068929	-0.173062	-0.173340
Br153	Br	0.676826	-0.938661	-0.173126
Br154	Br	0.676878	-1.067350	-0.173139
Br155	Br	0.676724	-0.565016	-0.173048
