data_functionalizedCrystal
_audit_creation_method	'MofGen! by Chris Wilmer'
_symmetry_space_group_name_H-M	'P1'
_symmetry_Int_Tables_number	1
_symmetry_cell_setting	triclinic
loop_
_symmetry_equiv_pos_as_xyz
  x,y,z
_cell_length_a	13.033748
_cell_length_b	13.031981
_cell_length_c	12.759393
_cell_angle_alpha	82.783445
_cell_angle_beta	97.153077
_cell_angle_gamma	105.194673
loop_
_atom_site_label
_atom_site_type_symbol
_atom_site_fract_x
_atom_site_fract_y
_atom_site_fract_z
Zn1	Zn	1.570139	-0.216334	-0.366181
Zn2	Zn	2.070139	0.283666	0.133819
Zn3	Zn	1.547469	-0.394030	-0.170679
Zn4	Zn	2.047469	0.105970	0.329321
Zn5	Zn	1.392510	-0.238980	-0.210268
Zn6	Zn	1.892510	0.261020	0.289732
Zn7	Zn	1.369958	-0.416533	-0.366072
Zn8	Zn	1.869958	0.083467	0.133928
O9	O	1.470019	-0.316469	-0.278300
O10	O	1.970019	0.183531	0.221700
O11	O	1.715759	-0.221010	-0.323724
O12	O	2.215759	0.278990	0.176276
O13	O	1.526864	-0.373522	-0.028908
O14	O	2.026864	0.126478	0.471092
O15	O	1.434998	-0.087303	-0.247564
O16	O	1.934998	0.412697	0.252436
O17	O	1.699104	-0.351563	-0.180089
O18	O	2.199104	0.148437	0.319911
O19	O	1.565501	-0.070665	-0.362112
O20	O	2.065501	0.429335	0.137888
O21	O	1.413016	-0.259608	-0.057994
O22	O	1.913016	0.240392	0.442006
O23	O	1.240891	-0.281428	-0.247459
O24	O	1.740891	0.218572	0.252541
O25	O	1.396562	-0.389916	-0.513109
O26	O	1.896562	0.110084	-0.013109
O27	O	1.224322	-0.411875	-0.361927
O28	O	1.724322	0.088125	0.138073
O29	O	1.543634	-0.242830	-0.513189
O30	O	2.043634	0.257170	-0.013189
O31	O	1.504997	-0.545688	-0.179984
O32	O	2.004997	-0.045688	0.320016
O33	O	1.374580	-0.562220	-0.323539
O34	O	1.874580	-0.062220	0.176461
C35	C	1.194069	-0.351552	-0.308978
C36	C	1.694069	0.148448	0.191022
C37	C	1.076013	-0.366586	-0.322124
C38	C	1.576013	0.133414	0.177876
C39	C	1.031563	-0.308650	-0.271462
C40	C	1.531563	0.191350	0.228538
C41	C	0.909546	-0.324187	-0.285048
C42	C	1.409546	0.175813	0.214952
C43	C	1.434910	-0.592500	-0.247473
C44	C	1.934910	-0.092500	0.252527
C45	C	1.419988	-0.710574	-0.234310
C46	C	1.919988	-0.210574	0.265690
C47	C	1.477864	-0.754905	-0.285185
C48	C	1.977864	-0.254905	0.214815
C49	C	1.462442	-0.876941	-0.271581
C50	C	1.962442	-0.376941	0.228419
C51	C	1.747046	-0.281250	-0.247503
C52	C	2.247046	0.218750	0.252497
C53	C	1.865099	-0.266242	-0.234379
C54	C	2.365099	0.233758	0.265621
C55	C	1.470111	-0.316357	-0.552336
C56	C	1.970111	0.183643	-0.052336
C57	C	1.470151	-0.316309	-0.669114
C58	C	1.970151	0.183691	-0.169114
C59	C	1.505294	-0.039357	-0.309267
C60	C	2.005294	0.460643	0.190733
C61	C	1.520326	0.078731	-0.322463
C62	C	2.020326	0.578731	0.177537
C63	C	1.546737	-0.239710	-0.724020
C64	C	2.046737	0.260290	-0.224020
C65	C	1.546761	-0.239662	-0.833747
C66	C	2.046761	0.260338	-0.333747
C67	C	1.393608	-0.392822	-0.833652
C68	C	1.893608	0.107178	-0.333652
C69	C	1.393580	-0.392864	-0.723928
C70	C	1.893580	0.107136	-0.223928
C71	C	1.469998	-0.316496	-0.005332
C72	C	1.969998	0.183504	0.494668
C73	C	1.470202	-0.316219	0.111435
C74	C	1.970202	0.183781	0.611435
H75	H	0.857272	-0.385298	-0.338480
H76	H	1.357272	0.114702	0.161520
H77	H	0.917370	-0.205137	-0.180939
H78	H	1.417370	0.294863	0.319061
Cl79	Cl	0.995310	-0.460935	-0.404615
Cl80	Cl	1.495310	0.039065	0.095385
Cl81	Cl	1.571983	-0.674024	-0.367996
Cl82	Cl	2.071983	-0.174024	0.132004
H83	H	1.083839	-0.247550	-0.218026
H84	H	1.583839	0.252450	0.281974
Cl85	Cl	1.297358	-0.489061	-0.902567
Cl86	Cl	1.797358	0.010939	-0.402567
Cl87	Cl	1.297286	-0.489163	-0.654899
Cl88	Cl	1.797286	0.010837	-0.154899
H89	H	1.401466	-0.929332	-0.217956
H90	H	1.901466	-0.429332	0.282044
H91	H	1.581293	-0.868880	-0.376098
H92	H	2.081293	-0.368880	0.123902
Cl93	Cl	1.325851	-0.791458	-0.151517
Cl94	Cl	1.825851	-0.291458	0.348483
H95	H	1.609084	-0.177372	-0.679394
H96	H	2.109084	0.322628	-0.179394
H97	H	1.609124	-0.177286	-0.878447
H98	H	2.109124	0.322714	-0.378447
