data_functionalizedCrystal
_audit_creation_method	'MofGen! by Chris Wilmer'
_symmetry_space_group_name_H-M	'P1'
_symmetry_Int_Tables_number	1
_symmetry_cell_setting	triclinic
loop_
_symmetry_equiv_pos_as_xyz
  x,y,z
_cell_length_a	18.215407
_cell_length_b	19.077068
_cell_length_c	18.215399
_cell_angle_alpha	92.268164
_cell_angle_beta	89.980167
_cell_angle_gamma	92.327501
loop_
_atom_site_label
_atom_site_type_symbol
_atom_site_fract_x
_atom_site_fract_y
_atom_site_fract_z
Zn1	Zn	1.113288	-0.280200	-0.427869
Zn2	Zn	1.108246	-0.397902	-0.309739
Zn3	Zn	0.990220	-0.280223	-0.304817
Zn4	Zn	0.985238	-0.397863	-0.432763
O5	O	1.049248	-0.339047	-0.368797
O6	O	1.215603	-0.295821	-0.412210
O7	O	1.092565	-0.382318	-0.206103
O8	O	1.010740	-0.181729	-0.317032
O9	O	1.211899	-0.382295	-0.325421
O10	O	1.101157	-0.181712	-0.407437
O11	O	1.005851	-0.295860	-0.202487
O12	O	0.886575	-0.295822	-0.321777
O13	O	1.002249	-0.382229	-0.535097
O14	O	0.882915	-0.382251	-0.415778
O15	O	1.096327	-0.295783	-0.531501
O16	O	1.087734	-0.496388	-0.330167
O17	O	0.997361	-0.496359	-0.420551
C18	C	0.858042	-0.339035	-0.368775
C19	C	0.776243	-0.339047	-0.368784
C20	C	0.586159	-0.384121	-0.417674
C21	C	0.509301	-0.384124	-0.417684
C22	C	0.513088	-0.293986	-0.319936
C23	C	0.589945	-0.293980	-0.319931
C24	C	0.626479	-0.339052	-0.368799
C25	C	0.472763	-0.339060	-0.368814
C26	C	0.389429	-0.339062	-0.368823
C27	C	0.709818	-0.339050	-0.368791
C28	C	1.041480	-0.521911	-0.376440
C29	C	1.038224	-0.600141	-0.379735
C30	C	1.083783	-0.636886	-0.334263
C31	C	1.080725	-0.710391	-0.337366
C32	C	1.032104	-0.747151	-0.385937
C33	C	0.986542	-0.710401	-0.431414
C34	C	0.989604	-0.636897	-0.428314
C35	C	1.017899	-0.966985	-0.400254
C36	C	1.014839	-1.040495	-0.403348
C37	C	1.109023	-1.040479	-0.309301
C38	C	1.112078	-0.966974	-0.306202
C39	C	1.066520	-0.930231	-0.351682
N40	N	1.028975	-0.822285	-0.389109
N41	N	1.069652	-0.855098	-0.348514
C42	C	1.241200	-0.339060	-0.368819
C43	C	1.322999	-0.339065	-0.368828
C44	C	1.049295	-0.338999	-0.560748
C45	C	1.049315	-0.338978	-0.642546
C46	C	1.057067	-0.155469	-0.361140
C47	C	1.060398	-0.077239	-0.357877
C48	C	1.098320	-0.293923	-0.828867
C49	C	1.098329	-0.293903	-0.905725
C50	C	1.000366	-0.383924	-0.909458
C51	C	1.000354	-0.383940	-0.832601
C52	C	1.049335	-0.338941	-0.792308
C53	C	1.049357	-0.338904	-0.946023
C54	C	1.049367	-0.338882	-1.029355
C55	C	1.049324	-0.338962	-0.708970
C56	C	1.049246	-0.339045	-0.177591
C57	C	1.049377	-0.338867	-0.095785
H58	H	1.123373	-0.606961	-0.294708
C59	C	0.472896	-0.244411	-0.266183
C60	C	0.486858	-0.164406	-0.268983
C61	C	0.446666	-0.114831	-0.215229
C62	C	0.392512	-0.145261	-0.158675
C63	C	0.378547	-0.225270	-0.155873
C64	C	0.418739	-0.274846	-0.209627
H65	H	0.526948	-0.141876	-0.310850
H66	H	0.457003	-0.055603	-0.217304
H67	H	0.362759	-0.108563	-0.118883
H68	H	0.338457	-0.247800	-0.114006
H69	H	0.408401	-0.334074	-0.207552
C70	C	0.634303	-0.244405	-0.266161
C71	C	0.594121	-0.194836	-0.212399
C72	C	0.638479	-0.145262	-0.158632
C73	C	0.723019	-0.145257	-0.158628
C74	C	0.763206	-0.194828	-0.212392
C75	C	0.718848	-0.244402	-0.266158
H76	H	0.531535	-0.194838	-0.212400
H77	H	0.608729	-0.108567	-0.118833
H78	H	0.755855	-0.108560	-0.118827
H79	H	0.825792	-0.194826	-0.212390
H80	H	0.748598	-0.281097	-0.305958
H81	H	1.138217	-0.257244	-0.935488
C82	C	1.130846	-0.750805	-0.287347
C83	C	1.125308	-0.740761	-0.203255
C84	C	1.175435	-0.781173	-0.153236
C85	C	1.231101	-0.831629	-0.187307
C86	C	1.236642	-0.841676	-0.271402
C87	C	1.186515	-0.801264	-0.321422
H88	H	1.084098	-0.703408	-0.178030
H89	H	1.171333	-0.773736	-0.090982
H90	H	1.268209	-0.861545	-0.150279
H91	H	1.277851	-0.879028	-0.296628
H92	H	1.190617	-0.808701	-0.383675
C93	C	0.626348	-0.433693	-0.471433
C94	C	0.612380	-0.513698	-0.468644
C95	C	0.652566	-0.563270	-0.522406
C96	C	0.706721	-0.532836	-0.578958
C97	C	0.720691	-0.452827	-0.581749
C98	C	0.680505	-0.403255	-0.527987
H99	H	0.572290	-0.536231	-0.426779
H100	H	0.642224	-0.622498	-0.520340
H101	H	0.736469	-0.569532	-0.618756
H102	H	0.760782	-0.430294	-0.623614
H103	H	0.690847	-0.344027	-0.530054
C104	C	1.159142	-1.080897	-0.259282
C105	C	1.155781	-1.161749	-0.262689
C106	C	1.205904	-1.202167	-0.212670
C107	C	1.259388	-1.161732	-0.159245
C108	C	1.262751	-1.080876	-0.155836
C109	C	1.212628	-1.040459	-0.205855
H110	H	1.116187	-1.191685	-0.302239
H111	H	1.203414	-1.262022	-0.215194
H112	H	1.296492	-1.191652	-0.122218
H113	H	1.302345	-1.050941	-0.116285
H114	H	1.215118	-0.980604	-0.203331
H115	H	0.975254	-1.070422	-0.442914
H116	H	0.980802	-0.937075	-0.437283
H117	H	0.476476	-0.420822	-0.457484
C118	C	0.946495	-0.433426	-0.953783
C119	C	0.946509	-0.433414	-1.038322
C120	C	0.892638	-0.482920	-1.082645
C121	C	0.838754	-0.532438	-1.042429
C122	C	0.838738	-0.532452	-0.957885
C123	C	0.892609	-0.482946	-0.913562
H124	H	0.986400	-0.396757	-1.068097
H125	H	0.892650	-0.482909	-1.145231
H126	H	0.798875	-0.569085	-1.075239
H127	H	0.798847	-0.569110	-0.928110
H128	H	0.892596	-0.482957	-0.850976
H129	H	0.960459	-0.420598	-0.802834
C130	C	0.933060	-0.750835	-0.484847
C131	C	0.929687	-0.831686	-0.488258
C132	C	0.876203	-0.872118	-0.541692
C133	C	0.826091	-0.831698	-0.591714
C134	C	0.829462	-0.750842	-0.588304
C135	C	0.882946	-0.710410	-0.534870
H136	H	0.966784	-0.861612	-0.451227
H137	H	0.873708	-0.931973	-0.544216
H138	H	0.786499	-0.861628	-0.631268
H139	H	0.792365	-0.720917	-0.625335
H140	H	0.885441	-0.650555	-0.532347
H141	H	0.952506	-0.606981	-0.465343
H142	H	1.151670	-0.937045	-0.266652
H143	H	1.138201	-0.257280	-0.796062
