data_functionalizedCrystal
_audit_creation_method	'MofGen! by Chris Wilmer'
_symmetry_space_group_name_H-M	'P1'
_symmetry_Int_Tables_number	1
_symmetry_cell_setting	triclinic
loop_
_symmetry_equiv_pos_as_xyz
  x,y,z
_cell_length_a	19.288864
_cell_length_b	18.266242
_cell_length_c	19.288865
_cell_angle_alpha	90.011586
_cell_angle_beta	83.136245
_cell_angle_gamma	90.022884
loop_
_atom_site_label
_atom_site_type_symbol
_atom_site_fract_x
_atom_site_fract_y
_atom_site_fract_z
O1	O	0.921353	0.061124	0.086649
O2	O	1.254686	0.394457	0.419982
O3	O	1.588019	0.727791	0.753315
O4	O	0.719092	0.061075	0.098338
O5	O	1.052425	0.394408	0.431671
O6	O	1.385759	0.727742	0.765004
O7	O	0.826067	0.061086	-0.008637
O8	O	1.159400	0.394420	0.324696
O9	O	1.492733	0.727753	0.658029
O10	O	0.814378	0.061113	0.193623
O11	O	1.147711	0.394446	0.526957
O12	O	1.481045	0.727779	0.860290
O13	O	0.826049	-0.060675	-0.008643
O14	O	1.159382	0.272658	0.324691
O15	O	1.492715	0.605991	0.658024
O16	O	0.719074	-0.060687	0.098332
O17	O	1.052407	0.272646	0.431665
O18	O	1.385741	0.605980	0.764999
O19	O	0.921335	-0.060638	0.086643
O20	O	1.254668	0.272695	0.419977
O21	O	1.588001	0.606029	0.753310
Zn22	Zn	0.820201	-0.079995	0.092487
Zn23	Zn	1.153535	0.253339	0.425820
Zn24	Zn	1.486868	0.586672	0.759153
Zn25	Zn	0.820225	0.080432	0.092494
Zn26	Zn	1.153559	0.413765	0.425827
Zn27	Zn	1.486892	0.747099	0.759161
O28	O	0.814360	-0.060649	0.193618
O29	O	1.147693	0.272684	0.526951
O30	O	1.481027	0.606017	0.860285
C31	C	0.693207	0.000188	0.097959
C32	C	1.026540	0.333521	0.431292
C33	C	1.359873	0.666854	0.764625
C34	C	0.616103	0.000168	0.096830
C35	C	0.949436	0.333502	0.430163
C36	C	1.282770	0.666835	0.763496
N37	N	0.820190	-0.189482	0.092481
N38	N	1.153524	0.143852	0.425815
N39	N	1.486857	0.477185	0.759148
C40	C	0.571407	0.000188	0.159598
C41	C	0.904740	0.333521	0.492931
C42	C	1.238073	0.666855	0.826264
C43	C	0.498960	0.000196	0.158537
C44	C	0.832293	0.333529	0.491870
C45	C	1.165626	0.666863	0.825204
C46	C	0.471212	0.000199	0.094705
C47	C	0.804545	0.333532	0.428038
C48	C	1.137879	0.666866	0.761371
C49	C	0.515918	0.000175	0.031929
C50	C	0.849252	0.333509	0.365262
C51	C	1.182585	0.666842	0.698595
C52	C	0.588364	0.000160	0.032991
C53	C	0.921697	0.333493	0.366324
C54	C	1.255030	0.666827	0.699658
C55	C	0.362956	0.042876	0.044527
C56	C	0.696290	0.376209	0.377861
C57	C	1.029623	0.709542	0.711194
C58	C	0.290512	0.042895	0.043468
C59	C	0.623845	0.376229	0.376801
C60	C	0.957179	0.709562	0.710134
C61	C	0.247767	0.000243	0.091425
C62	C	0.581100	0.333576	0.424758
C63	C	0.914433	0.666909	0.758092
C64	C	0.277473	-0.042420	0.140454
C65	C	0.610806	0.290913	0.473788
C66	C	0.944140	0.624246	0.807121
C67	C	0.349918	-0.042436	0.141517
C68	C	0.683252	0.290898	0.474850
C69	C	1.016585	0.624231	0.808183
C70	C	0.392658	0.000215	0.093546
C71	C	0.725991	0.333548	0.426879
C72	C	1.059325	0.666882	0.760212
C73	C	0.124514	0.000270	0.153047
C74	C	0.457848	0.333603	0.486381
C75	C	0.791181	0.666937	0.819714
C76	C	0.052066	0.000273	0.151984
C77	C	0.385400	0.333607	0.485317
C78	C	0.718733	0.666940	0.818651
C79	C	0.069026	0.000260	0.025374
C80	C	0.402360	0.333593	0.358707
C81	C	0.735693	0.666927	0.692040
C82	C	0.141473	0.000249	0.026439
C83	C	0.474806	0.333583	0.359772
C84	C	0.808140	0.666916	0.693106
C85	C	0.169212	0.000258	0.090278
C86	C	0.502546	0.333591	0.423611
C87	C	0.835879	0.666924	0.756944
C88	C	0.867574	-0.227785	0.045136
C89	C	1.200907	0.105548	0.378470
C90	C	1.534241	0.438881	0.711803
C91	C	0.867579	-0.304430	0.045133
C92	C	1.200912	0.028903	0.378466
C93	C	1.534245	0.362236	0.711800
C94	C	0.820206	-0.342769	0.092487
C95	C	1.153539	-0.009435	0.425820
C96	C	1.486872	0.323898	0.759154
C97	C	0.772813	-0.304456	0.139836
C98	C	1.106146	0.028878	0.473169
C99	C	1.439480	0.362211	0.806502
C100	C	0.772805	-0.227812	0.139833
C101	C	1.106139	0.105521	0.473166
C102	C	1.439472	0.438855	0.806500
N103	N	0.811172	-0.463094	0.153975
N104	N	1.144506	-0.129761	0.487309
N105	N	1.477839	0.203572	0.820642
N106	N	0.811184	-0.535902	0.153976
N107	N	1.144517	-0.202569	0.487309
N108	N	1.477851	0.130764	0.820643
C109	C	0.820225	-0.573691	0.092497
C110	C	1.153559	-0.240358	0.425830
C111	C	1.486892	0.092976	0.759164
N112	N	0.829268	-0.535921	0.031016
N113	N	1.162602	-0.202588	0.364349
N114	N	1.495935	0.130746	0.697682
N115	N	0.829260	-0.463106	0.031016
N116	N	1.162594	-0.129773	0.364349
N117	N	1.495927	0.203561	0.697683
C118	C	0.820209	-0.425876	0.092495
C119	C	1.153542	-0.092542	0.425828
C120	C	1.486875	0.240791	0.759162
C121	C	0.867616	-0.695102	0.045144
C122	C	1.200950	-0.361769	0.378478
C123	C	1.534283	-0.028435	0.711811
C124	C	0.867616	-0.771748	0.045140
C125	C	1.200949	-0.438415	0.378473
C126	C	1.534283	-0.105082	0.711807
C127	C	0.772854	-0.771772	0.139849
C128	C	1.106187	-0.438439	0.473182
C129	C	1.439520	-0.105105	0.806516
C130	C	0.772851	-0.695127	0.139847
C131	C	1.106184	-0.361794	0.473181
C132	C	1.439518	-0.028460	0.806514
C133	C	0.820236	-0.656797	0.092496
C134	C	1.153569	-0.323463	0.425829
C135	C	1.486903	0.009870	0.759162
C136	C	0.947220	0.000251	0.087022
C137	C	1.280553	0.333584	0.420355
C138	C	1.613887	0.666918	0.753689
C139	C	1.024324	0.000275	0.088151
C140	C	1.357657	0.333609	0.421484
C141	C	1.690990	0.666942	0.754818
N142	N	0.820242	0.189919	0.092494
N143	N	1.153575	0.523252	0.425827
N144	N	1.486909	0.856586	0.759160
C145	C	0.825682	0.000203	-0.034516
C146	C	1.159015	0.333537	0.298817
C147	C	1.492348	0.666870	0.632150
C148	C	0.824553	0.000197	-0.111620
C149	C	1.157886	0.333530	0.221713
C150	C	1.491219	0.666863	0.555047
C151	C	0.887321	0.000208	-0.156316
C152	C	1.220654	0.333541	0.177017
C153	C	1.553987	0.666875	0.510350
C154	C	0.886260	0.000219	-0.228763
C155	C	1.219593	0.333553	0.104570
C156	C	1.552927	0.666886	0.437903
C157	C	0.822428	0.000204	-0.256511
C158	C	1.155761	0.333538	0.076822
C159	C	1.489094	0.666871	0.410156
C160	C	0.759652	0.000197	-0.211805
C161	C	1.092985	0.333530	0.121529
C162	C	1.426318	0.666864	0.454862
C163	C	0.760714	0.000193	-0.139359
C164	C	1.094047	0.333526	0.193974
C165	C	1.427381	0.666860	0.527307
C166	C	0.772242	-0.042458	-0.364800
C167	C	1.105575	0.290875	-0.031467
C168	C	1.438908	0.624208	0.301867
C169	C	0.771182	-0.042459	-0.437245
C170	C	1.104515	0.290875	-0.103911
C171	C	1.437849	0.624208	0.229422
C172	C	0.819148	0.000220	-0.479956
C173	C	1.152481	0.333553	-0.146623
C174	C	1.485815	0.666887	0.186710
C175	C	0.868186	0.042890	-0.450216
C176	C	1.201519	0.376223	-0.116883
C177	C	1.534852	0.709557	0.216450
C178	C	0.869248	0.042886	-0.377771
C179	C	1.202582	0.376219	-0.044438
C180	C	1.535915	0.709553	0.288896
C181	C	0.821269	0.000209	-0.335065
C182	C	1.154602	0.333543	-0.001732
C183	C	1.487935	0.666876	0.331602
C184	C	0.880770	0.000245	-0.603209
C185	C	1.214104	0.333578	-0.269875
C186	C	1.547437	0.666912	0.063458
C187	C	0.879707	0.000261	-0.675657
C188	C	1.213040	0.333594	-0.342323
C189	C	1.546374	0.666928	-0.008990
C190	C	0.753097	0.000231	-0.658697
C191	C	1.086430	0.333564	-0.325363
C192	C	1.419763	0.666898	0.007970
C193	C	0.754162	0.000223	-0.586250
C194	C	1.087495	0.333556	-0.252917
C195	C	1.420829	0.666889	0.080417
C196	C	0.818001	0.000226	-0.558511
C197	C	1.151334	0.333559	-0.225177
C198	C	1.484667	0.666893	0.108156
C199	C	0.814745	0.000236	0.219497
C200	C	1.148078	0.333569	0.552831
C201	C	1.481412	0.666902	0.886164
C202	C	0.815874	0.000247	0.296601
C203	C	1.149207	0.333580	0.629934
C204	C	1.482541	0.666914	0.963267
H205	H	0.593987	0.000196	0.211580
H206	H	0.927320	0.333530	0.544913
H207	H	1.260654	0.666863	0.878247
H208	H	0.731250	-0.077199	-0.461453
H209	H	1.064583	0.256134	-0.128119
H210	H	1.397916	0.589468	0.205214
N211	N	0.686458	0.000198	-0.538042
N212	N	1.019791	0.333531	-0.204709
N213	N	1.353125	0.666864	0.128625
H214	H	0.684071	-0.044942	-0.507617
H215	H	1.017405	0.288391	-0.174284
H216	H	1.350738	0.621724	0.159049
H217	H	0.684121	0.045362	-0.507641
H218	H	1.017455	0.378695	-0.174308
H219	H	1.350788	0.712029	0.159026
N220	N	0.231380	-0.088424	0.192189
N221	N	0.564713	0.244909	0.525522
N222	N	0.898047	0.578242	0.858855
H223	H	0.180979	-0.081945	0.184076
H224	H	0.514312	0.251388	0.517410
H225	H	0.847645	0.584721	0.850743
H226	H	0.244886	-0.141637	0.185880
H227	H	0.578219	0.191697	0.519213
H228	H	0.911552	0.525030	0.852546
N229	N	0.947413	0.000271	-0.723865
N230	N	1.280746	0.333605	-0.390531
N231	N	1.614079	0.666938	-0.057198
H232	H	0.949781	-0.044862	-0.754312
H233	H	1.283114	0.288471	-0.420979
H234	H	1.616448	0.621804	-0.087645
H235	H	0.949767	0.045442	-0.754243
H236	H	1.283100	0.378775	-0.420910
H237	H	1.616433	0.712109	-0.087576
H238	H	0.707679	0.000186	-0.234401
H239	H	1.041012	0.333520	0.098932
H240	H	1.374346	0.666853	0.432265
H241	H	0.734240	-0.335674	0.178391
H242	H	1.067574	-0.002341	0.511724
H243	H	1.400907	0.330992	0.845058
H244	H	0.906156	-0.196579	0.006578
H245	H	1.239489	0.136754	0.339912
H246	H	1.572823	0.470088	0.673245
N247	N	0.039105	0.000256	-0.043473
N248	N	0.372438	0.333590	0.289860
N249	N	0.705771	0.666923	0.623194
H250	H	0.009449	0.045398	-0.046736
H251	H	0.342782	0.378732	0.286598
H252	H	0.676116	0.712065	0.619931
H253	H	0.078454	0.000216	-0.083037
H254	H	0.411787	0.333549	0.250296
H255	H	0.745120	0.666883	0.583630
H256	H	0.177866	0.000237	-0.024674
H257	H	0.511199	0.333571	0.308660
H258	H	0.844533	0.666904	0.641993
N259	N	0.721754	-0.813112	0.190921
N260	N	1.055088	-0.479779	0.524254
N261	N	1.388421	-0.146446	0.857587
H262	H	0.672486	-0.799800	0.183040
H263	H	1.005819	-0.466467	0.516373
H264	H	1.339153	-0.133133	0.849706
H265	H	0.729008	-0.867465	0.183709
H266	H	1.062342	-0.534132	0.517042
H267	H	1.395675	-0.200798	0.850376
H268	H	0.906165	-0.335623	0.006577
H269	H	1.239499	-0.002290	0.339911
H270	H	1.572832	0.331044	0.673244
N271	N	0.721694	-0.186493	0.190898
N272	N	1.055027	0.146840	0.524231
N273	N	1.388361	0.480174	0.857565
H274	H	0.691680	-0.222407	0.220895
H275	H	1.025014	0.110926	0.554228
H276	H	1.358347	0.444260	0.887562
H277	H	0.748182	-0.154672	0.221539
H278	H	1.081515	0.178662	0.554872
H279	H	1.414849	0.511995	0.888206
N280	N	0.636577	0.000135	-0.034711
N281	N	0.969911	0.333469	0.298622
N282	N	1.303244	0.666802	0.631956
H283	H	0.608010	0.000135	-0.075312
H284	H	0.941343	0.333468	0.258022
H285	H	1.274676	0.666801	0.591355
H286	H	0.667030	0.045268	-0.037028
H287	H	1.000363	0.378601	0.296305
H288	H	1.333696	0.711934	0.629639
H289	H	0.734269	-0.663938	0.178403
H290	H	1.067603	-0.330605	0.511736
H291	H	1.400936	0.002729	0.845070
H292	H	0.709599	0.000183	-0.102967
H293	H	1.042933	0.333517	0.230367
H294	H	1.376266	0.666850	0.563700
H295	H	0.733180	-0.077216	-0.330029
H296	H	1.066514	0.256117	0.003304
H297	H	1.399847	0.589450	0.336637
N298	N	0.381955	-0.088458	0.194388
N299	N	0.715289	0.244876	0.527721
N300	N	1.048622	0.578209	0.861055
H301	H	0.415408	-0.124943	0.169313
H302	H	0.748742	0.208390	0.502646
H303	H	1.082075	0.541723	0.835979
H304	H	0.407999	-0.055737	0.224650
H305	H	0.741333	0.277596	0.557983
H306	H	1.074666	0.610929	0.891316
H307	H	0.147101	0.000266	0.205028
H308	H	0.480434	0.333600	0.538362
H309	H	0.813767	0.666933	0.871695
H310	H	0.932751	0.000251	-0.580622
H311	H	1.266085	0.333585	-0.247289
H312	H	1.599418	0.666918	0.086044
H313	H	0.462561	0.000210	0.209652
H314	H	0.795894	0.333543	0.542985
H315	H	1.129228	0.666877	0.876318
H316	H	0.266331	0.077637	0.003548
H317	H	0.599664	0.410971	0.336881
H318	H	0.932997	0.744304	0.670215
N319	N	0.956172	0.000213	-0.126397
N320	N	1.289505	0.333547	0.206936
N321	N	1.622838	0.666880	0.540270
H322	H	0.995774	0.000223	-0.165710
H323	H	1.329108	0.333556	0.167624
H324	H	1.662441	0.666889	0.500957
H325	H	0.959380	0.045351	-0.096699
H326	H	1.292714	0.378685	0.236634
H327	H	1.626047	0.712018	0.569968
H328	H	0.397755	0.077613	0.005473
H329	H	0.731088	0.410946	0.338807
H330	H	1.064421	0.744280	0.672140
N331	N	0.918729	-0.813068	-0.005922
N332	N	1.252063	-0.479735	0.327412
N333	N	1.585396	-0.146402	0.660745
H334	H	0.949389	-0.844845	0.020556
H335	H	1.282723	-0.511512	0.353889
H336	H	1.616056	-0.178178	0.687223
H337	H	0.892243	-0.844848	-0.036599
H338	H	1.225577	-0.511515	0.296734
H339	H	1.558910	-0.178181	0.630067
H340	H	0.907244	0.077644	-0.484991
H341	H	1.240578	0.410977	-0.151658
H342	H	1.573911	0.744310	0.181675
H343	H	0.015674	0.000285	0.203099
H344	H	0.349008	0.333619	0.536433
H345	H	0.682341	0.666952	0.869766
N346	N	0.485989	0.000172	-0.036916
N347	N	0.819322	0.333506	0.296417
N348	N	1.152656	0.666839	0.629750
H349	H	0.456336	0.045316	-0.040179
H350	H	0.789669	0.378649	0.293154
H351	H	1.123002	0.711983	0.626488
H352	H	0.525336	0.000128	-0.076482
H353	H	0.858669	0.333462	0.256851
H354	H	1.192003	0.666795	0.590185
N355	N	0.918719	-0.653753	-0.005926
N356	N	1.252052	-0.320420	0.327407
N357	N	1.585386	0.012914	0.660741
H358	H	0.948735	-0.689652	-0.035925
H359	H	1.282068	-0.356318	0.297409
H360	H	1.615401	-0.022985	0.630742
H361	H	0.892224	-0.621972	-0.036565
H362	H	1.225558	-0.288639	0.296768
H363	H	1.558891	0.044695	0.630101
H364	H	0.937375	0.000232	-0.265162
H365	H	1.270708	0.333565	0.068171
H366	H	1.604041	0.666898	0.401505
H367	H	0.909175	0.077631	-0.353560
H368	H	1.242508	0.410964	-0.020226
H369	H	1.575842	0.744297	0.313107
N370	N	0.684247	0.000223	-0.688613
N371	N	1.017581	0.333556	-0.355280
N372	N	1.350914	0.666890	-0.021947
H373	H	0.693097	0.000230	-0.741290
H374	H	1.026431	0.333563	-0.407957
H375	H	1.359764	0.666896	-0.074623
H376	H	0.656781	-0.044922	-0.672259
H377	H	0.990114	0.288411	-0.338926
H378	H	1.323448	0.621745	-0.005593
