data_functionalizedCrystal
_audit_creation_method	'MofGen! by Chris Wilmer'
_symmetry_space_group_name_H-M	'P1'
_symmetry_Int_Tables_number	1
_symmetry_cell_setting	triclinic
loop_
_symmetry_equiv_pos_as_xyz
  x,y,z
_cell_length_a	11.169417
_cell_length_b	13.897441
_cell_length_c	11.169416
_cell_angle_alpha	89.974103
_cell_angle_beta	90.011589
_cell_angle_gamma	89.981769
loop_
_atom_site_label
_atom_site_type_symbol
_atom_site_fract_x
_atom_site_fract_y
_atom_site_fract_z
Zn1	Zn	1.834947	-0.545348	-0.477729
Zn2	Zn	1.834841	-0.384063	-0.678452
Zn3	Zn	1.634237	-0.384074	-0.477786
Zn4	Zn	1.634240	-0.545323	-0.678373
O5	O	1.734567	-0.464702	-0.578085
O6	O	2.002883	-0.523960	-0.504364
O7	O	1.808185	-0.249083	-0.651890
O8	O	1.660905	-0.405482	-0.309829
O9	O	2.002805	-0.405464	-0.651835
O10	O	1.808366	-0.523970	-0.309787
O11	O	1.660802	-0.249091	-0.504462
O12	O	1.466288	-0.405457	-0.504385
O13	O	1.660910	-0.680308	-0.651700
O14	O	1.466290	-0.523926	-0.651756
O15	O	1.808369	-0.680327	-0.504288
O16	O	1.808188	-0.405439	-0.846391
O17	O	1.660807	-0.523916	-0.846333
C18	C	1.422742	-0.464691	-0.578069
C19	C	1.289342	-0.464709	-0.578091
C20	C	1.734652	-0.716295	-0.577979
C21	C	1.734688	-0.823509	-0.577934
C22	C	1.734720	-1.019804	-0.577853
C23	C	1.734699	-0.910572	-0.577901
C24	C	2.047609	-0.464714	-0.578102
C25	C	2.181009	-0.464718	-0.578109
C26	C	1.734519	-0.464695	-0.889910
C27	C	1.734608	-0.464724	-1.023310
C28	C	1.734551	-0.214088	-0.578104
C29	C	1.734747	-0.106874	-0.577811
C30	C	1.734647	-0.464730	-0.265043
C31	C	1.734681	-0.464742	-0.131643
