data_functionalizedCrystal
_audit_creation_method	'MofGen! by Chris Wilmer'
_symmetry_space_group_name_H-M	'P1'
_symmetry_Int_Tables_number	1
_symmetry_cell_setting	triclinic
loop_
_symmetry_equiv_pos_as_xyz
  x,y,z
_cell_length_a	17.699077
_cell_length_b	17.699083
_cell_length_c	16.176319
_cell_angle_alpha	89.992304
_cell_angle_beta	89.993140
_cell_angle_gamma	83.281795
loop_
_atom_site_label
_atom_site_type_symbol
_atom_site_fract_x
_atom_site_fract_y
_atom_site_fract_z
O1	O	1.004082	0.095692	-0.068737
O2	O	1.337415	0.429025	0.264596
O3	O	1.670748	0.762358	0.597929
O4	O	0.783703	0.108149	-0.068741
O5	O	1.117036	0.441482	0.264592
O6	O	1.450369	0.774815	0.597925
O7	O	0.900118	-0.008269	-0.068732
O8	O	1.233452	0.325064	0.264601
O9	O	1.566785	0.658398	0.597935
O10	O	0.887666	0.212110	-0.068747
O11	O	1.220999	0.545443	0.264587
O12	O	1.554333	0.878776	0.597920
O13	O	0.900102	-0.008277	0.068761
O14	O	1.233436	0.325057	0.402095
O15	O	1.566769	0.658390	0.735428
O16	O	0.783687	0.108141	0.068752
O17	O	1.117020	0.441475	0.402085
O18	O	1.450353	0.774808	0.735418
O19	O	1.004066	0.095684	0.068756
O20	O	1.337399	0.429018	0.402089
O21	O	1.670732	0.762351	0.735423
Cu22	Cu	0.893875	0.101912	0.081308
Cu23	Cu	1.227208	0.435245	0.414641
Cu24	Cu	1.560541	0.768579	0.747975
Cu25	Cu	0.893894	0.101921	-0.081294
Cu26	Cu	1.227227	0.435254	0.252040
Cu27	Cu	1.560560	0.768588	0.585373
O28	O	0.887650	0.212102	0.068746
O29	O	1.220983	0.545435	0.402080
O30	O	1.554317	0.878769	0.735413
C31	C	0.755498	0.107700	0.000005
C32	C	1.088831	0.441033	0.333338
C33	C	1.422164	0.774366	0.666671
C34	C	0.671479	0.106363	0.000003
C35	C	1.004813	0.439696	0.333337
C36	C	1.338146	0.773029	0.666670
C37	C	0.632003	0.105729	0.074952
C38	C	0.965336	0.439062	0.408285
C39	C	1.298670	0.772395	0.741618
C40	C	0.553061	0.104461	0.074953
C41	C	0.886394	0.437794	0.408286
C42	C	1.219727	0.771127	0.741619
C43	C	0.513595	0.103832	0.000004
C44	C	0.846928	0.437165	0.333338
C45	C	1.180262	0.770498	0.666671
C46	C	0.553077	0.104464	-0.074950
C47	C	0.886410	0.437797	0.258383
C48	C	1.219743	0.771130	0.591717
C49	C	0.632019	0.105726	-0.074950
C50	C	0.965352	0.439060	0.258383
C51	C	1.298685	0.772393	0.591717
C52	C	0.234714	0.099370	-0.074951
C53	C	0.568047	0.432704	0.258382
C54	C	0.901380	0.766037	0.591715
C55	C	0.155766	0.098110	-0.074945
C56	C	0.489099	0.431443	0.258388
C57	C	0.822433	0.764776	0.591721
C58	C	0.155755	0.098105	0.074952
C59	C	0.489089	0.431438	0.408285
C60	C	0.822422	0.764771	0.741618
C61	C	0.234697	0.099367	0.074951
C62	C	0.568031	0.432701	0.408285
C63	C	0.901364	0.766034	0.741618
C64	C	0.274173	0.099995	-0.000002
C65	C	0.607506	0.433328	0.333331
C66	C	0.940840	0.766662	0.666664
C67	C	0.359772	0.101369	-0.000002
C68	C	0.693105	0.434702	0.333331
C69	C	1.026438	0.768035	0.666664
C70	C	0.427997	0.102464	0.000004
C71	C	0.761330	0.435797	0.333337
C72	C	1.094664	0.769130	0.666670
C73	C	0.899664	-0.036470	0.000015
C74	C	1.232998	0.296864	0.333348
C75	C	1.566331	0.630197	0.666681
C76	C	0.898326	-0.120488	0.000015
C77	C	1.231659	0.212845	0.333348
C78	C	1.564992	0.546179	0.666682
C79	C	0.966659	-0.169110	0.000018
C80	C	1.299993	0.164223	0.333351
C81	C	1.633326	0.497556	0.666684
C82	C	0.965397	-0.248054	0.000010
C83	C	1.298730	0.085280	0.333344
C84	C	1.632064	0.418613	0.666677
C85	C	0.895800	-0.278373	0.000006
C86	C	1.229134	0.054960	0.333340
C87	C	1.562467	0.388294	0.666673
C88	C	0.827461	-0.229744	0.000001
C89	C	1.160795	0.103589	0.333335
C90	C	1.494128	0.436922	0.666668
C91	C	0.828724	-0.150803	0.000003
C92	C	1.162058	0.182531	0.333336
C93	C	1.495391	0.515864	0.666669
C94	C	0.822366	-0.548107	-0.000005
C95	C	1.155699	-0.214774	0.333328
C96	C	1.489033	0.118559	0.666661
C97	C	0.821108	-0.627055	-0.000004
C98	C	1.154442	-0.293722	0.333329
C99	C	1.487775	0.039612	0.666662
C100	C	0.959039	-0.645358	0.000002
C101	C	1.292372	-0.312025	0.333335
C102	C	1.625705	0.021308	0.666669
C103	C	0.960302	-0.566417	0.000003
C104	C	1.293635	-0.233083	0.333337
C105	C	1.626968	0.100250	0.666670
C106	C	0.891963	-0.517795	-0.000006
C107	C	1.225297	-0.184461	0.333327
C108	C	1.558630	0.148872	0.666661
C109	C	0.893333	-0.432196	0.000000
C110	C	1.226666	-0.098862	0.333334
C111	C	1.559999	0.234471	0.666667
C112	C	0.894430	-0.363971	0.000006
C113	C	1.227763	-0.030637	0.333339
C114	C	1.561097	0.302696	0.666673
C115	C	1.032271	0.096133	0.000008
C116	C	1.365604	0.429467	0.333341
C117	C	1.698937	0.762800	0.666675
C118	C	1.116289	0.097470	0.000004
C119	C	1.449622	0.430804	0.333337
C120	C	1.782956	0.764137	0.666671
C121	C	0.888104	0.240303	-0.000002
C122	C	1.221437	0.573636	0.333331
C123	C	1.554771	0.906969	0.666665
C124	C	0.889443	0.324321	-0.000008
C125	C	1.222776	0.657654	0.333326
C126	C	1.556109	0.990988	0.666659
N127	N	0.893867	0.101906	0.195673
N128	N	1.227200	0.435239	0.529007
N129	N	1.560534	0.768572	0.862340
N130	N	0.893907	0.101921	-0.195659
N131	N	1.227241	0.435255	0.137675
N132	N	1.560574	0.768588	0.471008
C133	C	0.945431	0.050377	0.238942
C134	C	1.278765	0.383710	0.572275
C135	C	1.612098	0.717043	0.905608
C136	C	0.945435	0.050376	0.325489
C137	C	1.278768	0.383709	0.658822
C138	C	1.612102	0.717043	0.992155
C139	C	0.893878	0.101908	0.368766
C140	C	1.227211	0.435241	0.702099
C141	C	1.560544	0.768575	1.035433
C142	C	0.842308	0.153439	0.325491
C143	C	1.175641	0.486773	0.658825
C144	C	1.508974	0.820106	0.992158
C145	C	0.842301	0.153436	0.238946
C146	C	1.175634	0.486769	0.572279
C147	C	1.508968	0.820103	0.905613
C148	C	0.842334	0.153454	0.674520
C149	C	1.175667	0.486787	1.007853
C150	C	1.509000	0.820120	1.341186
C151	C	0.842346	0.153455	0.761071
C152	C	1.175679	0.486788	1.094405
C153	C	1.509013	0.820121	1.427738
C154	C	0.945468	0.050393	0.761063
C155	C	1.278801	0.383727	1.094396
C156	C	1.612135	0.717060	1.427729
C157	C	0.945461	0.050390	0.674517
C158	C	1.278794	0.383723	1.007850
C159	C	1.612128	0.717057	1.341184
C160	C	0.893889	0.101918	0.631250
C161	C	1.227222	0.435252	0.964583
C162	C	1.560556	0.768585	1.297917
C163	C	0.893884	0.101918	0.537406
C164	C	1.227218	0.435251	0.870739
C165	C	1.560551	0.768584	1.204073
C166	C	0.893885	0.101913	0.462608
C167	C	1.227218	0.435246	0.795942
C168	C	1.560552	0.768580	1.129275
H169	H	0.520938	0.103946	-0.135974
H170	H	0.854272	0.437280	0.197359
H171	H	1.187605	0.770613	0.530692
H172	H	0.987422	0.008417	0.360718
H173	H	1.320755	0.341750	0.694051
H174	H	1.654089	0.675083	1.027384
O175	O	0.786677	0.209001	0.192267
O176	O	1.120011	0.542335	0.525600
O177	O	1.453344	0.875668	0.858934
H178	H	0.818454	0.245742	0.152808
H179	H	1.151788	0.579075	0.486141
H180	H	1.485121	0.912409	0.819475
H181	H	0.987418	0.008416	0.203711
H182	H	1.320752	0.341750	0.537045
H183	H	1.654085	0.675083	0.870378
O184	O	0.113207	0.097408	-0.155792
O185	O	0.446541	0.430742	0.177542
O186	O	0.779874	0.764075	0.510875
H187	H	0.121522	0.149206	-0.191755
H188	H	0.454855	0.482540	0.141578
H189	H	0.788189	0.815873	0.474912
O190	O	1.001061	-0.005197	0.627836
O191	O	1.334394	0.328136	0.961170
O192	O	1.667728	0.661469	1.294503
H193	H	1.060047	0.004360	0.644429
H194	H	1.393380	0.337694	0.977763
H195	H	1.726713	0.671027	1.311096
O196	O	0.674568	0.106417	0.155789
O197	O	1.007901	0.439750	0.489123
O198	O	1.341235	0.773083	0.822456
H199	H	0.633852	0.105759	0.207905
H200	H	0.967186	0.439092	0.541239
H201	H	1.300519	0.772426	0.874572
H202	H	0.520924	0.103932	0.135983
H203	H	0.854258	0.437265	0.469317
H204	H	1.187591	0.770598	0.802650
O205	O	1.001089	-0.005194	0.807727
O206	O	1.334422	0.328139	1.141060
O207	O	1.667755	0.661472	1.474394
H208	H	0.992429	0.003456	0.875179
H209	H	1.325763	0.336789	1.208512
H210	H	1.659096	0.670122	1.541845
H211	H	0.800343	0.195411	0.639299
H212	H	1.133677	0.528744	0.972632
H213	H	1.467010	0.862078	1.305965
O214	O	0.746037	-0.659755	-0.000009
O215	O	1.079370	-0.326421	0.333324
O216	O	1.412704	0.006912	0.666658
H217	H	0.756643	-0.722816	0.000003
H218	H	1.089976	-0.389483	0.333337
H219	H	1.423309	-0.056150	0.666670
H220	H	0.664159	0.106244	-0.135981
H221	H	0.997492	0.439577	0.197352
H222	H	1.330826	0.772911	0.530686
O223	O	0.755019	-0.098360	0.000008
O224	O	1.088352	0.234974	0.333342
O225	O	1.421686	0.568307	0.666675
H226	H	0.752296	-0.061953	-0.056035
H227	H	1.085630	0.271380	0.277299
H228	H	1.418963	0.604713	0.610632
O229	O	1.041725	-0.136409	0.000014
O230	O	1.375058	0.196924	0.333347
O231	O	1.708391	0.530257	0.666681
H232	H	1.089028	-0.183485	0.000004
H233	H	1.422362	0.149848	0.333337
H234	H	1.755695	0.483181	0.666670
H235	H	1.021041	-0.287639	0.000014
H236	H	1.354374	0.045694	0.333347
H237	H	1.687708	0.379027	0.666681
H238	H	0.266826	0.099883	0.135982
H239	H	0.600159	0.433216	0.469315
H240	H	0.933493	0.766550	0.802649
H241	H	0.766721	-0.508528	-0.000013
H242	H	1.100054	-0.175195	0.333321
H243	H	1.433387	0.158138	0.666654
H244	H	0.266845	0.099879	-0.135983
H245	H	0.600179	0.433212	0.197350
H246	H	0.933512	0.766546	0.530684
H247	H	0.800359	0.195420	0.796306
H248	H	1.133692	0.528753	1.129639
H249	H	1.467026	0.862086	1.462973
H250	H	1.016974	-0.541735	0.000011
H251	H	1.350308	-0.208402	0.333344
H252	H	1.683641	0.124931	0.666677
H253	H	1.014683	-0.684956	0.000005
H254	H	1.348016	-0.351623	0.333339
H255	H	1.681350	-0.018289	0.666672
H256	H	0.770794	-0.254436	-0.000007
H257	H	1.104128	0.078897	0.333326
H258	H	1.437461	0.412230	0.666660
H259	H	0.800325	0.195395	0.360733
H260	H	1.133658	0.528729	0.694066
H261	H	1.466992	0.862062	1.027399
H262	H	0.123605	0.097590	0.135983
H263	H	0.456939	0.430923	0.469316
H264	H	0.790272	0.764257	0.802649
