data_functionalizedCrystal
_audit_creation_method	'MofGen! by Chris Wilmer'
_symmetry_space_group_name_H-M	'P1'
_symmetry_Int_Tables_number	1
_symmetry_cell_setting	triclinic
loop_
_symmetry_equiv_pos_as_xyz
  x,y,z
_cell_length_a	31.640172
_cell_length_b	14.560438
_cell_length_c	14.560438
_cell_angle_alpha	60.001909
_cell_angle_beta	59.997940
_cell_angle_gamma	90.004807
loop_
_atom_site_label
_atom_site_type_symbol
_atom_site_fract_x
_atom_site_fract_y
_atom_site_fract_z
Zr1	Zr	0.407183	-0.120387	1.005161
O2	O	0.339693	-0.267049	1.196778
O3	O	0.427872	-0.075430	0.813556
O4	O	0.427871	-0.267027	1.005153
O5	O	0.339693	0.075686	1.005183
O6	O	0.497428	-0.267007	1.005134
O7	O	0.339693	-0.075452	1.005180
O8	O	0.497429	0.075726	0.662401
O9	O	0.339693	-0.267047	1.347916
O10	O	0.488605	-0.056238	0.892347
O11	O	0.436696	0.056540	0.892364
O12	O	0.436695	-0.169042	1.117945
O13	O	0.384786	-0.056264	1.117961
Zr14	Zr	0.518119	0.120693	1.005135
Zr15	Zr	0.518118	-0.120355	1.005131
Zr16	Zr	0.407183	0.120661	1.005165
Zr17	Zr	0.407183	-0.120383	1.246209
Zr18	Zr	0.518118	0.120688	0.764087
O19	O	0.497429	0.075736	1.196741
O20	O	0.497429	-0.267004	1.196735
O21	O	0.339694	0.075690	1.196784
O22	O	0.585608	0.267355	0.813518
O23	O	0.585608	-0.075384	0.813512
O24	O	0.427873	0.267309	0.813561
O25	O	0.585608	-0.075381	1.005113
O26	O	0.497430	0.267333	1.005143
O27	O	0.427873	0.267313	1.005162
O28	O	0.585608	0.075758	1.005116
O29	O	0.427872	-0.267021	1.347892
O30	O	0.497429	0.267327	0.662404
O31	O	0.585608	0.267352	0.662380
O32	O	0.585608	0.075751	0.662377
O33	O	0.339693	-0.075445	1.347919
O34	O	0.427872	-0.075420	1.347895
O35	O	0.488606	0.169347	0.892351
O36	O	0.540515	0.056570	0.892335
O37	O	0.488605	-0.056234	1.117933
O38	O	0.436696	0.056544	1.117949
C39	C	0.323887	0.000113	1.005186
C40	C	0.276792	0.000099	1.005199
C41	C	0.462650	0.000147	0.703634
C42	C	0.462650	0.000145	0.601303
C43	C	0.462651	0.301667	1.005153
C44	C	0.462652	0.403998	1.005155
C45	C	0.011883	0.059058	0.887376
C46	C	-0.165103	0.059080	0.887354
O47	O	-0.164944	0.109198	0.787203
N48	N	-0.214329	0.000196	1.005112
C49	C	-0.219308	-0.058691	1.122885
O50	O	-0.265238	-0.108766	1.223046
C51	C	-0.042323	-0.058706	1.122906
C52	C	0.006903	0.000172	1.005140
C53	C	0.061106	0.117932	0.769620
C54	C	0.105349	0.117921	0.769626
C55	C	0.100369	0.059036	0.887390
C56	C	0.051146	0.000161	1.005147
C57	C	-0.047302	-0.117586	1.240678
C58	C	-0.003051	-0.117583	1.240672
C59	C	0.046174	-0.058704	1.122906
C60	C	0.090409	-0.058736	1.122917
N61	N	0.139635	0.000148	1.005158
C62	C	0.144615	0.059034	0.887395
C63	C	-0.312225	-0.058681	1.122866
C64	C	-0.356471	-0.058679	1.122861
C65	C	-0.302263	0.059094	0.887329
C66	C	-0.258016	0.059085	0.887335
C67	C	-0.262999	0.000203	1.005107
C68	C	0.237527	0.059005	0.887418
C69	C	0.281772	0.058985	0.887435
C70	C	0.227560	-0.058783	1.122966
C71	C	0.183319	-0.058768	1.122950
C72	C	0.188306	0.000134	1.005165
O73	O	0.090290	-0.108818	1.223015
O74	O	0.190550	0.109121	0.787249
C75	C	-0.032361	0.059069	0.887369
C76	C	-0.081584	0.000194	1.005126
C77	C	-0.086564	-0.058691	1.122890
C78	C	-0.125830	0.000196	1.005121
C79	C	-0.120850	0.059082	0.887358
C80	C	-0.071624	0.117966	0.769599
C81	C	-0.027381	0.117955	0.769606
C82	C	-0.135790	-0.117575	1.240649
C83	C	-0.180031	-0.117560	1.240632
C84	C	-0.175051	-0.058674	1.122868
C85	C	0.601414	0.000193	1.005110
C86	C	0.648509	0.000207	1.005097
C87	C	0.462650	-0.301362	1.005143
C88	C	0.462650	-0.403693	1.005141
C89	C	0.435556	0.393195	1.122912
C90	C	0.435553	0.489349	1.122906
C91	C	0.489746	0.607109	0.887375
C92	C	0.489745	0.510955	0.887382
C93	C	0.489745	-0.058724	0.553219
C94	C	0.489747	-0.058713	0.457059
C95	C	0.435555	0.059037	0.457081
C96	C	0.435556	0.059032	0.553232
C97	C	0.462651	0.000158	1.306662
C98	C	0.462651	0.000160	1.408993
C99	C	0.601414	0.000187	0.703596
C100	C	0.648509	0.000199	0.601252
C101	C	0.462651	0.301662	0.703639
C102	C	0.462651	0.403991	0.601310
C103	C	0.601414	0.301702	0.703601
C104	C	0.648510	0.404045	0.601259
C105	C	0.323887	-0.301396	1.306695
C106	C	0.276792	-0.403739	1.409037
C107	C	0.323888	0.000118	1.306700
C108	C	0.276793	0.000107	1.409044
C109	C	0.462650	-0.301356	1.306657
C110	C	0.462650	-0.403685	1.408986
C111	C	0.643528	-0.058690	0.553197
C112	C	0.687775	-0.058702	0.457047
C113	C	0.737001	0.000183	0.408948
C114	C	0.741980	0.059074	0.457013
C115	C	0.697734	0.059078	0.553168
C116	C	0.697727	0.393237	0.553190
C117	C	0.741982	0.489390	0.457042
C118	C	0.737019	0.596349	0.408958
C119	C	0.687796	0.607155	0.457037
C120	C	0.643542	0.511003	0.553190
C121	C	0.227574	-0.392932	1.457118
C122	C	0.183319	-0.489084	1.553296
C123	C	0.188282	-0.596044	1.601384
C124	C	0.237505	-0.606849	1.553299
C125	C	0.281759	-0.510697	1.457130
C126	C	0.281773	0.058986	1.457109
C127	C	0.237526	0.058971	1.553285
C128	C	0.188300	0.000082	1.601388
C129	C	0.183321	-0.058804	1.553319
C130	C	0.227567	-0.058795	1.457151
C131	C	0.489747	0.510950	0.553227
C132	C	0.489741	0.607095	0.457087
C133	C	0.435543	0.489309	0.457117
C134	C	0.435546	0.393166	0.553262
H135	H	0.321854	0.106934	0.791532
C136	C	0.519552	0.724751	0.404194
N137	N	0.542008	0.813371	0.364354
H138	H	0.143245	-0.480264	1.592430
C139	C	0.243015	0.123763	1.606134
N140	N	0.247151	0.172567	1.645933
C141	C	0.519553	0.522844	0.757833
N142	N	0.542001	0.531797	0.660261
C143	C	0.405745	0.275544	1.252465
N144	N	0.383288	0.186930	1.350049
C145	C	0.519554	-0.123490	0.606083
N146	N	0.542009	-0.172270	0.645893
H147	H	0.683711	-0.106657	0.417925
H148	H	0.782066	0.107016	0.417837
C149	C	0.139596	-0.701803	1.707164
N150	N	0.102924	-0.781458	1.786832
C151	C	0.405756	0.123813	0.606111
N152	N	0.383315	0.172613	0.645931
C153	C	0.139633	0.000090	1.707170
N154	N	0.102979	0.000103	1.786842
C155	C	0.405733	0.477414	0.404247
N156	N	0.383280	0.468452	0.364423
H157	H	0.773025	0.000172	0.330652
H158	H	0.511811	-0.106648	0.417910
H159	H	0.143235	-0.106749	1.592498
C160	C	0.222102	-0.275285	1.404247
N161	N	0.217976	-0.186676	1.364438
C162	C	0.785705	0.702109	0.303177
N163	N	0.822377	0.781763	0.223498
H164	H	0.701796	0.107040	0.592282
H165	H	0.603450	-0.106655	0.592358
C166	C	0.703199	0.275590	0.606071
N167	N	0.707325	0.186981	0.645901
H168	H	0.413479	0.306069	0.592415
C169	C	0.682345	0.724821	0.404121
N170	N	0.678241	0.813450	0.364253
H171	H	0.241596	0.106970	0.791507
H172	H	0.782057	0.480572	0.417906
H173	H	0.145428	0.165861	0.673729
H174	H	0.413489	0.480543	1.218796
H175	H	0.065170	0.165890	0.673717
H176	H	-0.217937	0.107039	0.791439
H177	H	0.603469	0.519818	0.592316
H178	H	-0.298215	0.107035	0.791441
H179	H	0.321833	-0.519510	1.417983
H180	H	0.413496	0.106979	0.417932
H181	H	-0.396550	-0.106638	1.218758
H182	H	0.223505	-0.106738	1.418018
H183	H	0.511816	0.519770	0.592349
C184	C	-0.101443	-0.182355	1.370232
N185	N	-0.142223	-0.231140	1.467821
H186	H	0.241540	-0.693947	1.592465
H187	H	-0.316291	-0.106638	1.218775
H188	H	0.511806	0.694203	0.791489
H189	H	-0.007114	-0.165518	1.336579
H190	H	0.143237	-0.106727	1.218845
H191	H	0.223514	-0.106731	1.218846
H192	H	0.012698	0.165902	0.673708
H193	H	-0.067576	0.165906	0.673712
H194	H	-0.220112	-0.165517	1.336539
H195	H	-0.139853	-0.165530	1.336548
H196	H	0.321851	0.106947	1.417951
