data_functionalizedCrystal
_audit_creation_method	'MofGen! by Chris Wilmer'
_symmetry_space_group_name_H-M	'P1'
_symmetry_Int_Tables_number	1
_symmetry_cell_setting	triclinic
loop_
_symmetry_equiv_pos_as_xyz
  x,y,z
_cell_length_a	19.288864
_cell_length_b	15.995292
_cell_length_c	18.366186
_cell_angle_alpha	89.996953
_cell_angle_beta	89.977106
_cell_angle_gamma	83.302432
loop_
_atom_site_label
_atom_site_type_symbol
_atom_site_fract_x
_atom_site_fract_y
_atom_site_fract_z
O1	O	0.921606	0.104454	-0.060778
O2	O	0.719379	0.118545	-0.060728
O3	O	0.826042	-0.010412	-0.060755
O4	O	0.814944	0.233412	-0.060750
O5	O	0.826023	-0.010419	0.060344
O6	O	0.719361	0.118539	0.060372
O7	O	0.921588	0.104448	0.060321
Zn8	Zn	0.820472	0.111492	0.079574
Zn9	Zn	0.820495	0.111501	-0.079980
O10	O	0.814925	0.233405	0.060349
C11	C	0.693493	0.118089	-0.000172
C12	C	0.616386	0.116727	-0.000153
C13	C	0.571873	0.192394	-0.000162
C14	C	0.499423	0.191115	-0.000171
C15	C	0.471489	0.114166	-0.000183
C16	C	0.516011	0.038490	-0.000169
C17	C	0.588460	0.039770	-0.000154
C18	C	0.363087	0.053677	-0.042636
C19	C	0.290639	0.052400	-0.042655
C20	C	0.248034	0.110212	-0.000227
C21	C	0.277883	0.169317	0.042211
C22	C	0.350332	0.170597	0.042226
C23	C	0.392931	0.112769	-0.000200
C24	C	0.124961	0.184497	-0.000245
C25	C	0.052510	0.183215	-0.000249
C26	C	0.069101	0.030588	-0.000255
C27	C	0.141550	0.031872	-0.000244
C28	C	0.169476	0.108829	-0.000243
C29	C	0.825581	-0.041609	-0.000207
C30	C	0.824227	-0.134557	-0.000213
C31	C	0.819248	-0.472277	-0.000205
C32	C	0.896234	-0.449255	0.000047
C33	C	0.897698	-0.352585	-0.000229
C34	C	0.821719	-0.304730	-0.000208
C35	C	0.783240	-0.333682	-0.069350
C36	C	0.782313	-0.430469	-0.069405
C37	C	0.780720	-0.430328	0.068308
C38	C	0.783573	-0.333846	0.069219
C39	C	0.823111	-0.210039	-0.000213
C40	C	0.817854	-0.566967	-0.000205
C41	C	0.947474	0.104905	-0.000236
C42	C	1.024581	0.106266	-0.000260
C43	C	0.815386	0.264602	-0.000201
C44	C	0.816740	0.357550	-0.000200
N45	N	0.820460	0.111486	0.188465
N46	N	0.820512	0.111500	-0.188871
C47	C	0.867706	0.054412	0.226553
C48	C	0.867710	0.054408	0.302781
C49	C	0.820476	0.111493	0.340917
C50	C	0.773221	0.168572	0.302820
C51	C	0.773214	0.168568	0.226594
C52	C	0.811362	0.187786	0.461681
C53	C	0.811375	0.187791	0.537906
C54	C	0.820495	0.111504	0.576025
C55	C	0.829618	0.035209	0.537910
C56	C	0.829611	0.035205	0.461684
C57	C	0.820479	0.111503	0.423572
C58	C	0.867748	0.054420	0.696768
C59	C	0.867748	0.054416	0.772997
C60	C	0.773262	0.168587	0.773035
C61	C	0.773259	0.168584	0.696808
C62	C	0.820506	0.111502	0.658678
H63	H	0.463173	0.252734	-0.000177
H64	H	0.837045	-0.026912	0.568945
O65	O	0.913404	-0.001300	0.189546
C66	C	0.876041	-0.052837	0.145653
H67	H	0.821777	-0.019118	0.134152
H68	H	0.871114	-0.114529	0.175233
C69	C	0.981834	-0.112760	0.087412
C70	C	0.915188	-0.071343	0.073281
H71	H	1.005982	-0.124180	0.042770
H72	H	1.007007	-0.078042	0.116985
H73	H	0.977719	-0.164166	0.112064
H74	H	0.919304	-0.019934	0.048638
H75	H	0.890016	-0.106054	0.043702
O76	O	0.809578	-0.464214	0.130764
C77	C	0.865051	-0.526446	0.113477
H78	H	0.885503	-0.514148	0.056697
H79	H	0.845683	-0.591097	0.114859
C80	C	0.899064	-0.538811	0.239165
C81	C	0.924187	-0.523701	0.169429
H82	H	0.935541	-0.537122	0.273680
H83	H	0.861689	-0.496886	0.250812
H84	H	0.882924	-0.592686	0.240306
H85	H	0.940318	-0.469823	0.168286
H86	H	0.961566	-0.565617	0.157783
O87	O	0.913662	-0.001113	0.659837
C88	C	0.955371	-0.051483	0.709805
H89	H	0.926899	-0.052341	0.764156
H90	H	1.006962	-0.024455	0.717885
C91	C	1.004673	-0.140805	0.613298
C92	C	0.969700	-0.141864	0.680052
H93	H	1.013514	-0.196554	0.594945
H94	H	0.976574	-0.106868	0.579633
H95	H	1.047661	-0.118277	0.620041
H96	H	0.926709	-0.164381	0.673307
H97	H	0.997791	-0.175807	0.713715
O98	O	0.009168	0.256645	-0.000229
C99	C	-0.060766	0.239016	-0.000259
H100	H	-0.063546	0.173261	0.022673
H101	H	-0.081686	0.242261	-0.058361
C102	C	-0.101730	0.384959	0.019052
C103	C	-0.105145	0.304200	0.047223
H104	H	-0.129106	0.425169	0.048338
H105	H	-0.054614	0.396837	0.019069
H106	H	-0.119161	0.387651	-0.029366
H107	H	-0.087705	0.301506	0.095636
H108	H	-0.152259	0.292323	0.047215
O109	O	0.802532	0.261974	0.424768
C110	C	0.794477	0.329311	0.474752
H111	H	0.818899	0.307677	0.529080
H112	H	0.736558	0.350921	0.482882
C113	C	0.800932	0.429468	0.378254
C114	C	0.830933	0.402899	0.444979
H115	H	0.823417	0.474863	0.359888
H116	H	0.806357	0.384103	0.344578
H117	H	0.752668	0.447470	0.385038
H118	H	0.879194	0.384888	0.438192
H119	H	0.825517	0.448264	0.478653
H120	H	0.925751	-0.478381	-0.049274
O121	O	0.913671	-0.001072	0.339677
C122	C	0.955353	-0.051473	0.289678
H123	H	0.956130	-0.017149	0.235337
H124	H	0.932813	-0.113607	0.281587
C125	C	1.029329	-0.111119	0.386137
C126	C	1.030288	-0.068959	0.319397
H127	H	1.075552	-0.121909	0.404470
H128	H	1.001246	-0.077166	0.419824
H129	H	1.010542	-0.162892	0.379386
H130	H	1.049066	-0.017182	0.326151
H131	H	1.058376	-0.102904	0.285712
H132	H	0.734761	0.215050	0.333875
H133	H	0.374632	0.218720	0.076783
H134	H	0.837037	-0.026917	0.430653
O135	O	0.631803	-0.033658	-0.000119
C136	C	0.701737	-0.016026	-0.000127
H137	H	0.704491	0.049730	0.022805
H138	H	0.722717	-0.019274	-0.058222
C139	C	0.742683	-0.161967	0.019200
C140	C	0.746067	-0.081207	0.047371
H141	H	0.770029	-0.202176	0.048496
H142	H	0.695568	-0.173848	0.019203
H143	H	0.760166	-0.164662	-0.029212
H144	H	0.728576	-0.078510	0.095778
H145	H	0.793180	-0.069328	0.047377
O146	O	0.933607	-0.329872	0.058873
C147	C	0.934975	-0.241933	0.058635
H148	H	0.889327	-0.210856	0.025119
H149	H	0.986135	-0.226584	0.033715
C150	C	0.985086	-0.246754	0.178477
C151	C	0.929018	-0.208585	0.137317
H152	H	0.981415	-0.226182	0.227012
H153	H	0.984168	-0.306000	0.178637
H154	H	1.027714	-0.233960	0.157703
H155	H	0.886392	-0.221387	0.158087
H156	H	0.929929	-0.149339	0.137163
H157	H	0.809975	-0.313720	-0.120820
H158	H	0.906219	0.007934	0.804009
H159	H	0.734800	0.215063	0.804086
H160	H	0.046358	-0.032066	-0.000310
H161	H	0.811591	-0.315389	0.120369
O162	O	0.933777	-0.330641	-0.059511
C163	C	0.889870	-0.274815	-0.103381
H164	H	0.845619	-0.242252	-0.068781
H165	H	0.867182	-0.311471	-0.149072
C166	C	0.986680	-0.248298	-0.178819
C167	C	0.932334	-0.208298	-0.136320
H168	H	1.012874	-0.207270	-0.199140
H169	H	1.016262	-0.285912	-0.149264
H170	H	0.967765	-0.278844	-0.216889
H171	H	0.951250	-0.177763	-0.098246
H172	H	0.902757	-0.170678	-0.165869
O173	O	0.717376	-0.294353	0.074122
C174	C	0.679166	-0.313189	0.012008
H175	H	0.704152	-0.374567	-0.013177
H176	H	0.679342	-0.260098	-0.029385
C177	C	0.572748	-0.247187	0.065024
C178	C	0.603434	-0.322575	0.034096
H179	H	0.526032	-0.252973	0.078647
H180	H	0.598491	-0.234493	0.106871
H181	H	0.572902	-0.202952	0.030526
H182	H	0.603288	-0.366806	0.068597
H183	H	0.577689	-0.335277	-0.007745
H184	H	0.734790	0.215063	0.665794
O185	O	0.404536	-0.002369	-0.083898
C186	C	0.441773	0.041485	-0.134482
H187	H	0.445406	0.107968	-0.113651
H188	H	0.413473	0.044780	-0.189071
C189	C	0.511309	-0.086525	-0.169717
C190	C	0.515776	-0.004872	-0.144130
H191	H	0.556956	-0.115122	-0.175672
H192	H	0.486221	-0.116072	-0.135641
H193	H	0.487723	-0.083768	-0.215206
H194	H	0.539354	-0.007631	-0.098638
H195	H	0.540870	0.024672	-0.178199
O196	O	0.802634	0.261879	0.574963
C197	C	0.861582	0.268459	0.619039
H198	H	0.908350	0.226584	0.596045
H199	H	0.850589	0.247503	0.676816
C200	C	0.820207	0.411954	0.648442
C201	C	0.877650	0.360527	0.620196
H202	H	0.830117	0.468746	0.649159
H203	H	0.780490	0.407520	0.618750
H204	H	0.811051	0.394480	0.696587
H205	H	0.886798	0.377995	0.572050
H206	H	0.917368	0.364966	0.649881
O207	O	0.727389	0.224133	0.189625
C208	C	0.738651	0.306988	0.208256
H209	H	0.794260	0.307227	0.229184
H210	H	0.700151	0.331699	0.252519
C211	C	0.659543	0.363496	0.114840
C212	C	0.727845	0.363791	0.140539
H213	H	0.652875	0.398537	0.073071
H214	H	0.651953	0.307676	0.102289
H215	H	0.627468	0.384088	0.151733
H216	H	0.759919	0.343190	0.103650
H217	H	0.735440	0.419609	0.153082
O218	O	0.598883	0.267221	-0.000121
C219	C	0.544053	0.333732	-0.000149
H220	H	0.494827	0.310444	0.022764
H221	H	0.533832	0.357063	-0.058248
C222	C	0.624921	0.434930	0.019210
C223	C	0.564462	0.406329	0.047358
H224	H	0.637511	0.479714	0.048511
H225	H	0.661862	0.390121	0.019226
H226	H	0.616396	0.454366	-0.029205
H227	H	0.572991	0.386884	0.095768
H228	H	0.527523	0.451137	0.047351
H229	H	0.243195	0.216393	0.076760
O230	O	0.814059	-0.462474	-0.131151
C231	C	0.777830	-0.426838	-0.192438
H232	H	0.747387	-0.364059	-0.176655
H233	H	0.740090	-0.471366	-0.212905
C234	C	0.867751	-0.489673	-0.272445
C235	C	0.830365	-0.412562	-0.253061
H236	H	0.900155	-0.480870	-0.309841
H237	H	0.892158	-0.513684	-0.231154
H238	H	0.836294	-0.526772	-0.289496
H239	H	0.861820	-0.375469	-0.236001
H240	H	0.805964	-0.388544	-0.294350
O241	O	0.151978	0.259323	-0.000204
C242	C	0.097150	0.325836	-0.000225
H243	H	0.047926	0.302550	0.022693
H244	H	0.086924	0.349169	-0.058322
C245	C	0.178023	0.427030	0.019126
C246	C	0.117566	0.398431	0.047280
H247	H	0.190617	0.471812	0.048426
H248	H	0.214963	0.382219	0.019137
H249	H	0.169493	0.446468	-0.029288
H250	H	0.126099	0.378984	0.095689
H251	H	0.080628	0.443240	0.047277
H252	H	0.925901	-0.477367	0.049631
O253	O	0.184765	-0.041654	-0.000372
C254	C	0.172129	-0.088396	-0.063087
H255	H	0.147384	-0.044094	-0.106926
H256	H	0.135239	-0.136722	-0.048918
C257	C	0.271976	-0.188430	-0.037672
C258	C	0.241590	-0.134016	-0.091518
H259	H	0.314821	-0.216574	-0.055208
H260	H	0.280488	-0.156942	0.004582
H261	H	0.241227	-0.228694	-0.025869
H262	H	0.272334	-0.093747	-0.103313
H263	H	0.233084	-0.165499	-0.133774
O264	O	0.488913	-0.036280	-0.000056
C265	C	0.511638	-0.082405	0.062656
H266	H	0.526674	-0.037405	0.106500
H267	H	0.558872	-0.129242	0.048486
C268	C	0.433877	-0.185574	0.037226
C269	C	0.452339	-0.130304	0.091078
H270	H	0.397301	-0.215125	0.054756
H271	H	0.418569	-0.154502	-0.005026
H272	H	0.473244	-0.224598	0.025422
H273	H	0.412975	-0.091276	0.102874
H274	H	0.467639	-0.161372	0.133333
H275	H	0.725867	-0.444807	-0.072523
H276	H	0.266341	0.004277	-0.077214
O277	O	0.716558	-0.295374	-0.072538
C278	C	0.707253	-0.247942	-0.137232
H279	H	0.747687	-0.274057	-0.179168
H280	H	0.713932	-0.179403	-0.125273
C281	C	0.583785	-0.221362	-0.115898
C282	C	0.633443	-0.253442	-0.167407
H283	H	0.538255	-0.224751	-0.134511
H284	H	0.590054	-0.253315	-0.072311
H285	H	0.589359	-0.164249	-0.105936
H286	H	0.627873	-0.310556	-0.177361
H287	H	0.627171	-0.221498	-0.210997
H288	H	0.724053	-0.444105	0.068790
