data_functionalizedCrystal
_audit_creation_method	'MofGen! by Chris Wilmer'
_symmetry_space_group_name_H-M	'P1'
_symmetry_Int_Tables_number	1
_symmetry_cell_setting	triclinic
loop_
_symmetry_equiv_pos_as_xyz
  x,y,z
_cell_length_a	17.077404
_cell_length_b	18.050589
_cell_length_c	17.077396
_cell_angle_alpha	89.975559
_cell_angle_beta	90.021444
_cell_angle_gamma	89.967055
loop_
_atom_site_label
_atom_site_type_symbol
_atom_site_fract_x
_atom_site_fract_y
_atom_site_fract_z
Zn1	Zn	1.199990	0.295694	0.443905
Zn2	Zn	1.199870	0.419891	0.312649
Zn3	Zn	1.068722	0.295716	0.312649
Zn4	Zn	1.068663	0.419843	0.443868
O5	O	1.134311	0.357786	0.378268
O6	O	1.309821	0.312180	0.426510
O7	O	1.182448	0.403449	0.202802
O8	O	1.086210	0.191788	0.330076
O9	O	1.309733	0.403428	0.330076
O10	O	1.182652	0.191772	0.426510
O11	O	1.086094	0.312217	0.202802
O12	O	0.958867	0.312171	0.330040
O13	O	1.086109	0.403345	0.553720
O14	O	0.958824	0.403366	0.426446
O15	O	1.182595	0.312133	0.553747
O16	O	1.182390	0.523810	0.330039
O17	O	1.085993	0.523774	0.426445
C18	C	0.930363	0.357766	0.378239
C19	C	0.843114	0.357775	0.378245
C20	C	1.134194	0.550738	0.378255
C21	C	1.134215	0.633284	0.378276
C22	C	0.467342	0.310380	0.428590
C23	C	0.549323	0.310374	0.428581
C24	C	0.590265	0.357802	0.378287
C25	C	0.549222	0.405243	0.328005
C26	C	0.467243	0.405252	0.328018
C27	C	0.720092	0.405221	0.327980
C28	C	0.802077	0.405211	0.327965
C29	C	0.802172	0.310343	0.428542
C30	C	0.720193	0.310352	0.428556
C31	C	0.679156	0.357792	0.378272
C32	C	1.081822	0.832742	0.430684
C33	C	1.062681	0.882183	0.359055
C34	C	1.134274	0.784414	0.378287
C35	C	1.153436	0.882055	0.449925
C36	C	1.134330	0.930400	0.378304
C37	C	1.115096	0.832768	0.306620
C38	C	1.205884	0.832636	0.397539
C39	C	1.186770	0.882054	0.325860
C40	C	1.134240	0.700316	0.378279
C41	C	1.134364	1.014496	0.378304
C42	C	1.339056	0.357807	0.378297
C43	C	1.426305	0.357816	0.378309
C44	C	1.134359	0.357731	0.583012
C45	C	1.134379	0.357708	0.670262
C46	C	1.134421	1.164081	0.378298
C47	C	1.134391	1.081535	0.378314
C48	C	1.134309	0.357787	0.174320
C49	C	1.134441	0.357601	0.087070
C50	C	1.184621	0.310210	0.711268
C51	C	1.184630	0.310186	0.793248
C52	C	1.134401	0.357663	0.834221
C53	C	1.084154	0.405163	0.793210
C54	C	1.084141	0.405183	0.711231
C55	C	1.084186	0.405118	0.964080
C56	C	1.084199	0.405099	1.046065
C57	C	1.184675	0.310120	1.046097
C58	C	1.184662	0.310141	0.964118
C59	C	1.134415	0.357642	0.923112
H60	H	0.582731	0.271749	0.469527
H61	H	0.686860	0.271729	0.469506
O62	O	0.990417	0.908116	0.339759
C63	C	0.935260	0.882981	0.395126
H64	H	0.966437	0.869066	0.452312
H65	H	0.904783	0.831347	0.371746
C66	C	0.835768	0.961164	0.339702
C67	C	0.874060	0.944079	0.409942
H68	H	0.798015	0.998850	0.348840
H69	H	0.872928	0.978096	0.302398
H70	H	0.810377	0.918131	0.320226
H71	H	0.899458	0.987110	0.429412
H72	H	0.836904	0.927156	0.447250
O73	O	0.680349	0.451328	0.279061
C74	C	0.734063	0.493200	0.234680
H75	H	0.792514	0.462772	0.232008
H76	H	0.742769	0.549638	0.263319
C77	C	0.630227	0.541175	0.154402
C78	C	0.702016	0.503799	0.151115
H79	H	0.610458	0.547716	0.102856
H80	H	0.594038	0.512967	0.184304
H81	H	0.637492	0.588202	0.178272
H82	H	0.694748	0.456769	0.127255
H83	H	0.738202	0.531999	0.121207
O84	O	1.028781	0.807029	0.483481
C85	C	0.991176	0.867358	0.520029
H86	H	0.995241	0.918242	0.480681
H87	H	1.020874	0.879482	0.578428
C88	C	0.899493	0.785645	0.582543
C89	C	0.904481	0.848141	0.534212
H90	H	0.846017	0.773791	0.591295
H91	H	0.924831	0.745000	0.557922
H92	H	0.924247	0.795757	0.631204
H93	H	0.879737	0.838025	0.485549
H94	H	0.879138	0.888784	0.558825
O95	O	0.427609	0.264388	0.477558
C96	C	0.447691	0.280704	0.555759
H97	H	0.470200	0.340036	0.559606
H98	H	0.495308	0.240910	0.576344
C99	C	0.347255	0.199264	0.603451
C100	C	0.374894	0.272139	0.608177
H101	H	0.302352	0.193978	0.635787
H102	H	0.333727	0.188269	0.550766
H103	H	0.386942	0.166110	0.620604
H104	H	0.335211	0.305290	0.591015
H105	H	0.388414	0.283140	0.660861
H106	H	0.835588	0.271714	0.469484
O107	O	1.095569	0.807018	0.234380
C108	C	1.027180	0.763602	0.239832
H109	H	0.993041	0.780023	0.294494
H110	H	1.043933	0.702559	0.243613
C111	C	1.017889	0.756286	0.099704
C112	C	0.975956	0.776458	0.166837
H113	H	0.986292	0.764213	0.054676
H114	H	1.063965	0.785534	0.096030
H115	H	1.031847	0.705417	0.102866
H116	H	0.962007	0.827328	0.163679
H117	H	0.929876	0.747219	0.170508
O118	O	1.239628	0.907695	0.272842
C119	C	1.219175	0.882431	0.197452
H120	H	1.154044	0.868700	0.195895
H121	H	1.254547	0.830657	0.182900
C122	C	1.317025	0.960184	0.138769
C123	C	1.237029	0.943326	0.136855
H124	H	1.328041	0.997744	0.101389
H125	H	1.330807	0.977203	0.189561
H126	H	1.346493	0.917034	0.126645
H127	H	1.207563	0.986473	0.148988
H128	H	1.223242	0.926315	0.086063
H129	H	1.043254	0.443817	0.826577
H130	H	1.043221	0.443854	0.677845
H131	H	0.835410	0.443833	0.287014
H132	H	1.043257	0.443787	0.930695
H133	H	0.582564	0.443862	0.287058
H134	H	1.043297	0.443758	1.079423
H135	H	1.225586	0.271442	1.079488
H136	H	1.225526	0.271551	0.677913
H137	H	1.225544	0.271510	0.826632
H138	H	1.225567	0.271485	0.930760
H139	H	0.433832	0.443881	0.287076
H140	H	1.266402	0.810857	0.413841
O141	O	1.172659	0.907796	0.522250
C142	C	1.117161	0.882686	0.577289
H143	H	1.087253	0.830724	0.553995
H144	H	1.071456	0.927710	0.587518
C145	C	1.195411	0.928451	0.683667
C146	C	1.158683	0.864627	0.655061
H147	H	1.221022	0.917314	0.731642
H148	H	1.232800	0.945371	0.646587
H149	H	1.157317	0.965965	0.692185
H150	H	1.196778	0.827118	0.646534
H151	H	1.121301	0.847700	0.692141
