data_functionalizedCrystal
_audit_creation_method	'MofGen! by Chris Wilmer'
_symmetry_space_group_name_H-M	'P1'
_symmetry_Int_Tables_number	1
_symmetry_cell_setting	triclinic
loop_
_symmetry_equiv_pos_as_xyz
  x,y,z
_cell_length_a	12.837942
_cell_length_b	19.288864
_cell_length_c	17.766277
_cell_angle_alpha	90.023209
_cell_angle_beta	89.994736
_cell_angle_gamma	91.017407
loop_
_atom_site_label
_atom_site_type_symbol
_atom_site_fract_x
_atom_site_fract_y
_atom_site_fract_z
O1	O	0.129276	-0.930181	-0.062838
O2	O	0.629276	-0.430181	0.437162
O3	O	0.146715	-0.729111	-0.062786
O4	O	0.646715	-0.229111	0.437214
O5	O	-0.012886	-0.825187	-0.062806
O6	O	0.487114	-0.325187	0.437194
O7	O	0.288878	-0.834104	-0.062818
O8	O	0.788878	-0.334104	0.437182
O9	O	-0.012894	-0.825168	0.062382
O10	O	0.487106	-0.325168	0.562382
O11	O	0.146707	-0.729091	0.062402
O12	O	0.646707	-0.229091	0.562402
O13	O	0.129268	-0.930161	0.062351
O14	O	0.629268	-0.430161	0.562351
Cu15	Cu	0.137987	-0.829625	0.073807
Cu16	Cu	0.637987	-0.329625	0.573807
Cu17	Cu	0.137996	-0.829647	-0.074243
Cu18	Cu	0.637996	-0.329647	0.425757
O19	O	0.288870	-0.834085	0.062371
O20	O	0.788870	-0.334085	0.562371
C21	C	0.146150	-0.703186	-0.000185
C22	C	0.646150	-0.203186	0.499815
C23	C	0.144466	-0.625968	-0.000166
C24	C	0.644466	-0.125968	0.499834
C25	C	-0.051497	-0.822165	-0.000212
C26	C	0.448503	-0.322165	0.499788
C27	C	-0.166532	-0.813181	-0.000211
C28	C	0.333468	-0.313181	0.499789
N29	N	0.137979	-0.829614	0.177938
N30	N	0.637979	-0.329614	0.677938
C31	C	-0.407995	-0.921187	-0.000254
C32	C	0.092005	-0.421187	0.499746
C33	C	-0.516081	-0.912748	-0.000253
C34	C	-0.016081	-0.412748	0.499747
C35	C	-0.490793	-0.787867	-0.000213
C36	C	0.009207	-0.287867	0.499787
C37	C	-0.382707	-0.796305	-0.000214
C38	C	0.117293	-0.296305	0.499786
C39	C	-0.341312	-0.862967	-0.000233
C40	C	0.158688	-0.362967	0.499767
C41	C	-0.233223	-0.871405	-0.000229
C42	C	0.266777	-0.371405	0.499771
C43	C	-0.207938	-0.746524	-0.000195
C44	C	0.292062	-0.246524	0.499805
C45	C	-0.316024	-0.738086	-0.000194
C46	C	0.183976	-0.238086	0.499806
C47	C	0.327480	-0.837107	-0.000225
C48	C	0.827480	-0.337107	0.499775
C49	C	0.442515	-0.846091	-0.000231
C50	C	0.942515	-0.346091	0.499769
C51	C	0.129833	-0.956086	-0.000252
C52	C	0.629833	-0.456086	0.499748
C53	C	0.131518	-1.033304	-0.000276
C54	C	0.631518	-0.533304	0.499724
C55	C	0.238113	-0.587666	-0.000181
C56	C	0.738113	-0.087666	0.499819
C57	C	0.236530	-0.515111	-0.000189
C58	C	0.736530	-0.015111	0.499811
C59	C	0.141295	-0.480860	-0.000197
C60	C	0.641295	0.019140	0.499803
C61	C	0.047636	-0.519171	-0.000178
C62	C	0.547636	-0.019171	0.499822
C63	C	0.049221	-0.591725	-0.000162
C64	C	0.549221	-0.091725	0.499838
C65	C	0.066433	-0.367493	-0.044079
C66	C	0.566433	0.132507	0.455921
C67	C	0.064852	-0.294941	-0.044099
C68	C	0.564852	0.205059	0.455901
C69	C	0.136402	-0.257081	-0.000243
C70	C	0.636402	0.242919	0.499757
C71	C	0.209552	-0.291782	0.043625
C72	C	0.709552	0.208218	0.543625
C73	C	0.211137	-0.364335	0.043640
C74	C	0.711137	0.135665	0.543640
C75	C	0.139566	-0.402188	-0.000214
C76	C	0.639566	0.097812	0.499786
C77	C	0.228340	-0.140106	-0.000266
C78	C	0.728340	0.359894	0.499734
C79	C	0.226753	-0.067550	-0.000270
C80	C	0.726753	0.432450	0.499730
C81	C	0.037857	-0.071611	-0.000265
C82	C	0.537857	0.428389	0.499735
C83	C	0.039446	-0.144166	-0.000254
C84	C	0.539446	0.355834	0.499746
C85	C	0.134690	-0.178409	-0.000258
C86	C	0.634690	0.321591	0.499742
N87	N	0.137996	-0.829663	-0.178373
N88	N	0.637996	-0.329663	0.321627
C89	C	0.067342	-0.872174	0.217316
C90	C	0.567342	-0.372174	0.717316
C91	C	0.067338	-0.872178	0.296118
C92	C	0.567338	-0.372178	0.796118
C93	C	0.137988	-0.829629	0.335538
C94	C	0.637988	-0.329629	0.835538
C95	C	0.208630	-0.787060	0.296151
C96	C	0.708630	-0.287060	0.796151
C97	C	0.208626	-0.787052	0.217350
C98	C	0.708626	-0.287052	0.717350
C99	C	0.232410	-0.826778	0.460374
C100	C	0.732410	-0.326778	0.960374
C101	C	0.232416	-0.826790	0.539173
C102	C	0.732416	-0.326790	1.039173
C103	C	0.138000	-0.829648	0.578584
C104	C	0.638000	-0.329648	1.078584
C105	C	0.043575	-0.832508	0.539188
C106	C	0.543575	-0.332508	1.039188
C107	C	0.043571	-0.832501	0.460387
C108	C	0.543571	-0.332501	0.960387
C109	C	0.138000	-0.829632	0.420984
C110	C	0.638000	-0.329632	0.920984
C111	C	0.067352	-0.872215	0.703409
C112	C	0.567352	-0.372215	1.203409
C113	C	0.067346	-0.872213	0.782212
C114	C	0.567346	-0.372213	1.282212
C115	C	0.208647	-0.787100	0.782243
C116	C	0.708647	-0.287100	1.282243
C117	C	0.208645	-0.787097	0.703442
C118	C	0.708645	-0.287097	1.203442
C119	C	0.137998	-0.829658	0.664029
C120	C	0.637998	-0.329658	1.164029
H121	H	-0.199522	-0.925684	-0.000242
H122	H	0.300478	-0.425684	0.499758
Cl123	Cl	-0.542852	-0.704071	-0.000212
Cl124	Cl	-0.042852	-0.204071	0.499788
H125	H	-0.033307	-0.834835	0.571275
H126	H	0.466693	-0.334835	1.071275
H127	H	-0.570371	-0.960157	-0.000272
H128	H	-0.070371	-0.460157	0.499728
H129	H	0.270694	-0.392586	0.079361
H130	H	0.770694	0.107414	0.579361
H131	H	0.305893	-0.167988	-0.000258
H132	H	0.805893	0.332012	0.499742
H133	H	0.266168	-0.752444	0.671378
H134	H	0.766168	-0.252444	1.171378
Cl135	Cl	-0.368075	-0.654287	-0.000176
Cl136	Cl	0.131925	-0.154287	0.499824
Cl137	Cl	0.297435	-0.733545	0.167843
Cl138	Cl	0.797435	-0.233545	0.667843
Cl139	Cl	-0.355951	-1.004987	-0.000259
Cl140	Cl	0.144049	-0.504987	0.499741
H141	H	0.009824	-0.906868	0.671317
H142	H	0.509824	-0.406868	1.171317
Cl143	Cl	-0.068516	-0.639878	-0.000143
Cl144	Cl	0.431484	-0.139878	0.499857
H145	H	-0.033313	-0.834828	0.428314
H146	H	0.466687	-0.334828	0.928314
H147	H	-0.039685	-0.043725	-0.000319
H148	H	0.460315	0.456275	0.499681
H149	H	0.267814	-0.260958	0.079337
H150	H	0.767814	0.239042	0.579337
H151	H	0.266168	-0.752453	0.814339
H152	H	0.766168	-0.252453	1.314339
Cl153	Cl	0.351119	-0.823200	0.588692
Cl154	Cl	0.851119	-0.323200	1.088692
Cl155	Cl	0.357848	-0.630711	-0.000182
Cl156	Cl	0.857848	-0.130711	0.499818
H157	H	-0.153632	-0.699118	-0.000172
H158	H	0.346368	-0.199118	0.499828
Cl159	Cl	0.354267	-0.466950	-0.000207
Cl160	Cl	0.854267	0.033050	0.499793
Cl161	Cl	-0.072088	-0.476114	-0.000183
Cl162	Cl	0.427912	0.023886	0.499817
H163	H	-0.036812	-0.175352	-0.000246
H164	H	0.463188	0.324648	0.499754
H165	H	0.005293	-0.266693	-0.079822
H166	H	0.505293	0.233307	0.420178
Cl167	Cl	0.344492	-0.019398	-0.000285
Cl168	Cl	0.844492	0.480602	0.499715
Cl169	Cl	0.351118	-0.823249	0.410836
Cl170	Cl	0.851118	-0.323249	0.910836
Cl171	Cl	-0.023526	-0.415081	-0.099218
Cl172	Cl	0.476474	0.084919	0.400782
H173	H	0.009816	-0.906828	0.185228
H174	H	0.509816	-0.406828	0.685228
Cl175	Cl	-0.021470	-0.925687	0.345630
Cl176	Cl	0.478530	-0.425687	0.845630
H177	H	0.009819	-0.906869	0.814274
H178	H	0.509819	-0.406869	1.314274
H179	H	0.266153	-0.752415	0.328251
H180	H	0.766153	-0.252415	0.828251
