data_functionalizedCrystal
_audit_creation_method	'MofGen! by Chris Wilmer'
_symmetry_space_group_name_H-M	'P1'
_symmetry_Int_Tables_number	1
_symmetry_cell_setting	triclinic
loop_
_symmetry_equiv_pos_as_xyz
  x,y,z
_cell_length_a	14.560438
_cell_length_b	27.440280
_cell_length_c	14.560438
_cell_angle_alpha	59.991886
_cell_angle_beta	89.999454
_cell_angle_gamma	60.000139
loop_
_atom_site_label
_atom_site_type_symbol
_atom_site_fract_x
_atom_site_fract_y
_atom_site_fract_z
Zr1	Zr	0.884730	0.533473	-0.120681
O2	O	0.738074	0.635154	-0.267361
O3	O	0.929693	0.431793	-0.075694
O4	O	0.929685	0.533474	-0.267329
O5	O	0.738081	0.533473	0.075415
O6	O	1.080826	0.533473	-0.267328
O7	O	0.738081	0.533474	-0.075726
O8	O	1.080839	0.351585	0.075472
O9	O	0.738068	0.715360	-0.267385
O10	O	1.061657	0.473614	-0.056533
O11	O	0.948863	0.473614	0.056261
O12	O	0.948854	0.593330	-0.169364
O13	O	0.836059	0.593330	-0.056570
Zr14	Zr	1.125782	0.533469	0.120373
Zr15	Zr	1.125782	0.533471	-0.120679
Zr16	Zr	0.884730	0.533471	0.120371
Zr17	Zr	0.884721	0.661392	-0.120719
Zr18	Zr	1.125791	0.405549	0.120411
O19	O	1.080819	0.635148	0.075386
O20	O	1.080819	0.635151	-0.267359
O21	O	0.738074	0.635151	0.075384
O22	O	1.272438	0.431787	0.267053
O23	O	1.272438	0.431790	-0.075692
O24	O	0.929693	0.431790	0.267051
O25	O	1.272430	0.533469	-0.075723
O26	O	1.080827	0.533468	0.267021
O27	O	0.929686	0.533469	0.267020
O28	O	1.272431	0.533468	0.075418
O29	O	0.929672	0.715359	-0.267384
O30	O	1.080839	0.351583	0.267076
O31	O	1.272444	0.351581	0.267077
O32	O	1.272444	0.351583	0.075473
O33	O	0.738068	0.715359	-0.075781
O34	O	0.929672	0.715357	-0.075780
O35	O	1.061658	0.473612	0.169057
O36	O	1.174452	0.473612	0.056263
O37	O	1.061649	0.593328	-0.056569
O38	O	0.948854	0.593328	0.056225
C39	C	1.005267	0.373463	-0.000106
C40	C	1.005271	0.319158	-0.000089
C41	C	0.703736	0.533474	-0.000156
C42	C	0.601403	0.533474	-0.000157
C43	C	0.494445	0.595964	-0.059049
C44	C	0.398296	0.595960	-0.059050
C45	C	0.516078	0.470973	0.058743
C46	C	0.612224	0.470977	0.058736
C47	C	0.426444	0.668124	-0.127051
C48	C	0.330295	0.668121	-0.127052
C49	C	0.921986	0.026661	-0.083465
C50	C	0.921985	-0.024356	-0.083477
O51	O	0.851193	-0.013162	-0.154328
N52	N	1.005252	-0.094061	-0.000198
C53	C	1.088531	-0.112750	0.083091
O54	O	1.159357	-0.176725	0.153925
C55	C	1.088536	-0.061733	0.083097
C56	C	1.005257	0.007972	-0.000180
C57	C	0.838715	0.096364	-0.166737
C58	C	0.838715	0.147377	-0.166723
C59	C	0.921986	0.128688	-0.083438
C60	C	1.005257	0.058986	-0.000167
C61	C	1.171819	-0.080423	0.166381
C62	C	1.171816	-0.029399	0.166379
C63	C	1.088538	0.040307	0.083102
C64	C	1.088528	0.091310	0.083131
N65	N	1.005261	0.161016	-0.000148
C66	C	0.921990	0.179705	-0.083432
C67	C	1.088517	-0.219885	0.083071
C68	C	1.088509	-0.270901	0.083070
C69	C	0.921964	-0.182503	-0.083499
C70	C	0.921968	-0.131487	-0.083493
C71	C	1.005250	-0.150180	-0.000208
C72	C	0.921996	0.286833	-0.083398
C73	C	0.922000	0.337847	-0.083374
C74	C	1.088548	0.249445	0.083191
C75	C	1.088541	0.198435	0.083172
C76	C	1.005259	0.217134	-0.000132
O77	O	1.159287	0.080168	0.153944
O78	O	0.851185	0.243679	-0.154262
C79	C	1.306775	0.533468	-0.000152
C80	C	1.409108	0.533467	-0.000151
C81	C	1.005256	0.533474	-0.301673
C82	C	1.005255	0.533474	-0.404006
C83	C	1.005244	0.693478	-0.000202
C84	C	1.005241	0.747783	-0.000218
C85	C	0.946369	0.595964	-0.510980
C86	C	0.946372	0.595960	-0.607128
C87	C	1.064150	0.470973	-0.489317
C88	C	1.064153	0.470977	-0.393171
C89	C	0.878366	0.668124	-0.578998
C90	C	0.878370	0.668121	-0.675147
C91	C	1.005256	0.533468	0.301366
C92	C	1.005256	0.533467	0.403699
C93	C	1.306787	0.373461	-0.000104
C94	C	1.409124	0.319154	-0.000087
C95	C	1.005268	0.373461	0.301414
C96	C	1.005271	0.319154	0.403763
C97	C	1.306787	0.373458	0.301416
C98	C	1.409124	0.319151	0.403766
C99	C	0.703725	0.693484	-0.301724
C100	C	0.601388	0.747791	-0.404074
C101	C	0.703725	0.693481	-0.000204
C102	C	0.601388	0.747787	-0.000221
C103	C	1.005244	0.693481	-0.301722
C104	C	1.005240	0.747787	-0.404071
C105	C	1.398304	0.293653	-0.058967
C106	C	1.494451	0.242634	-0.058973
C107	C	1.601417	0.217114	-0.000093
C108	C	1.612234	0.242620	0.058789
C109	C	1.516088	0.293642	0.058789
C110	C	1.064151	0.293651	0.510716
C111	C	1.064150	0.242632	0.606893
C112	C	1.005276	0.217114	0.596115
C113	C	0.946389	0.242622	0.489151
C114	C	0.946384	0.293644	0.392977
C115	C	1.516070	0.293648	0.392953
C116	C	1.612236	0.242628	0.489113
C117	C	1.601453	0.217108	0.596084
C118	C	1.494495	0.242616	0.606894
C119	C	1.398332	0.293639	0.510736
C120	C	0.494442	0.773300	-0.393261
C121	C	0.398276	0.824336	-0.489420
C122	C	0.409059	0.849858	-0.596391
C123	C	0.516016	0.824347	-0.607202
C124	C	0.612180	0.773315	-0.511043
C125	C	0.612207	0.773294	0.058649
C126	C	0.516060	0.824327	0.058629
C127	C	0.409095	0.849849	-0.000255
C128	C	0.398278	0.824340	-0.059133
C129	C	0.494424	0.773311	-0.059119
C130	C	1.064126	0.773289	-0.393257
C131	C	1.064144	0.824308	-0.489416
C132	C	1.005269	0.849829	-0.596387
C133	C	0.946382	0.824322	-0.607199
C134	C	0.946371	0.773300	-0.511041
H135	H	0.699312	0.420092	0.106672
Br136	Br	0.808944	-0.036889	-0.196517
Br137	Br	1.144067	0.328268	0.525374
H138	H	1.005287	0.891374	-0.674676
Br139	Br	0.866475	0.858970	-0.752384
H140	H	0.854177	0.394606	-0.151187
H141	H	0.898414	0.752542	-0.519862
H142	H	1.156343	0.234239	0.151002
H143	H	1.699338	0.221834	0.106728
Br144	Br	1.479745	0.208027	-0.138887
H145	H	0.770910	0.204132	-0.234545
H146	H	1.112107	0.221868	0.693978
H147	H	1.679764	0.175562	0.674373
H148	H	0.330747	0.891411	-0.674681
H149	H	1.112102	0.420090	-0.480508
Br150	Br	0.866494	0.207983	0.474544
Br151	Br	1.479880	0.207976	0.752078
Br152	Br	1.530736	0.328274	0.247790
Br153	Br	1.144063	0.858917	-0.474717
H154	H	1.679696	0.175568	-0.000100
H155	H	1.524913	0.314399	0.106742
Br156	Br	0.530754	0.386160	0.138662
Br157	Br	0.253102	0.858983	-0.139039
Br158	Br	0.808953	-0.157149	-0.196532
H159	H	0.485640	0.752523	-0.306168
Br160	Br	0.426418	0.714309	-0.277117
H161	H	0.435131	0.690554	-0.082261
Br162	Br	1.005295	0.147869	0.726652
Br163	Br	0.245379	0.705476	-0.272164
H164	H	0.524783	0.845134	-0.694309
H165	H	1.156312	-0.327656	0.150894
H166	H	1.699316	0.221864	0.480290
H167	H	0.699257	0.752546	-0.519861
Br168	Br	1.284844	-0.175014	0.279412
Br169	Br	1.253194	0.328241	0.525431
Br170	Br	0.757363	0.738671	0.138569
Br171	Br	1.144068	0.386167	-0.247992
H172	H	0.898441	0.314403	0.305895
H173	H	0.524890	0.845088	0.106578
H174	H	0.916180	0.695833	-0.579028
H175	H	0.278095	0.695823	-0.089235
H176	H	0.330816	0.891400	-0.000258
H177	H	0.311196	0.845099	-0.480596
H178	H	0.485599	0.752545	-0.107054
H179	H	1.112069	0.752518	-0.306164
Br180	Br	0.808971	0.312219	-0.196455
Br181	Br	0.725689	0.121745	-0.279782
Br182	Br	1.201547	-0.245265	0.196119
H183	H	1.239637	-0.044627	0.234201
H184	H	0.791314	0.690517	-0.570278
Br185	Br	0.953113	0.705451	-0.760054
Br186	Br	1.201553	0.103833	0.196201
Br187	Br	0.728318	0.714294	-0.762165
Br188	Br	1.253149	0.328278	-0.138890
