data_functionalizedCrystal
_audit_creation_method	'MofGen! by Chris Wilmer'
_symmetry_space_group_name_H-M	'P1'
_symmetry_Int_Tables_number	1
_symmetry_cell_setting	triclinic
loop_
_symmetry_equiv_pos_as_xyz
  x,y,z
_cell_length_a	25.639239
_cell_length_b	21.295419
_cell_length_c	21.295411
_cell_angle_alpha	90.025287
_cell_angle_beta	89.980474
_cell_angle_gamma	89.944755
loop_
_atom_site_label
_atom_site_type_symbol
_atom_site_fract_x
_atom_site_fract_y
_atom_site_fract_z
Zn1	Zn	-0.207979	-0.962320	-0.355933
Zn2	Zn	0.292021	-0.462320	0.144067
Zn3	Zn	-0.295399	-0.962207	-0.250662
Zn4	Zn	0.204601	-0.462207	0.249338
Zn5	Zn	-0.208005	-0.857043	-0.250677
Zn6	Zn	0.291995	-0.357043	0.249323
Zn7	Zn	-0.295411	-0.856997	-0.355893
Zn8	Zn	0.204589	-0.356997	0.144107
O9	O	-0.251699	-0.909642	-0.303291
O10	O	0.248301	-0.409642	0.196709
O11	O	-0.219560	-1.050394	-0.341979
O12	O	0.280440	-0.550394	0.158021
O13	O	-0.283812	-0.948229	-0.162575
O14	O	0.216188	-0.448229	0.337425
O15	O	-0.134836	-0.871074	-0.264662
O16	O	0.365164	-0.371074	0.235338
O17	O	-0.283787	-1.050312	-0.264637
O18	O	0.216213	-0.550312	0.235363
O19	O	-0.134818	-0.948421	-0.341993
O20	O	0.365182	-0.448421	0.158007
O21	O	-0.219604	-0.870965	-0.162585
O22	O	0.280396	-0.370965	0.337415
O23	O	-0.219615	-0.768948	-0.264623
O24	O	0.280385	-0.268948	0.235377
O25	O	-0.283807	-0.870997	-0.443987
O26	O	0.216193	-0.370997	0.056013
O27	O	-0.283832	-0.768914	-0.341925
O28	O	0.216168	-0.268914	0.158075
O29	O	-0.219571	-0.948377	-0.444017
O30	O	0.280429	-0.448377	0.055983
O31	O	-0.368566	-0.948185	-0.264598
O32	O	0.131434	-0.448185	0.235402
O33	O	-0.368575	-0.870887	-0.341911
O34	O	0.131425	-0.370887	0.158089
C35	C	-0.251728	-0.746090	-0.303271
C36	C	0.248272	-0.246090	0.196729
C37	C	-0.251753	-0.676122	-0.303278
C38	C	0.248247	-0.176122	0.196722
C39	C	-0.387541	-0.909536	-0.303262
C40	C	0.112459	-0.409536	0.196738
C41	C	-0.445655	-0.909548	-0.303271
C42	C	0.054345	-0.409548	0.196729
C43	C	-0.218365	-0.643321	-0.343612
C44	C	0.281635	-0.143321	0.156388
C45	C	-0.218353	-0.577578	-0.343613
C46	C	0.281647	-0.077578	0.156387
C47	C	-0.251738	-0.544640	-0.303288
C48	C	0.248262	-0.044640	0.196712
C49	C	-0.285127	-0.577449	-0.262946
C50	C	0.214873	-0.077449	0.237054
C51	C	-0.285135	-0.643190	-0.262941
C52	C	0.214865	-0.143190	0.237059
N53	N	-0.297486	-0.441356	-0.298368
N54	N	0.202514	0.058644	0.201632
N55	N	-0.297477	-0.378905	-0.298377
N56	N	0.202523	0.121095	0.201623
C57	C	-0.251716	-0.346565	-0.303299
C58	C	0.248284	0.153435	0.196701
N59	N	-0.205962	-0.379036	-0.308225
N60	N	0.294038	0.120964	0.191775
N61	N	-0.205971	-0.441493	-0.308220
N62	N	0.294029	0.058507	0.191780
C63	C	-0.251733	-0.473354	-0.303288
C64	C	0.248267	0.026646	0.196712
C65	C	-0.218312	-0.242478	-0.343636
C66	C	0.281688	0.257522	0.156364
C67	C	-0.218299	-0.176735	-0.343634
C68	C	0.281701	0.323265	0.156366
C69	C	-0.285078	-0.176606	-0.262970
C70	C	0.214922	0.323394	0.237030
C71	C	-0.285086	-0.242348	-0.262969
C72	C	0.214914	0.257652	0.237031
C73	C	-0.251704	-0.275281	-0.303306
C74	C	0.248296	0.224719	0.196694
C75	C	-0.806001	-0.949996	-0.263103
C76	C	-0.306001	-0.449996	0.236897
C77	C	-0.860606	-0.950020	-0.263112
C78	C	-0.360606	-0.450020	0.236888
O79	O	-0.888828	-0.984300	-0.228928
O80	O	-0.388828	-0.484300	0.271072
N81	N	-0.887938	-0.909752	-0.303333
N82	N	-0.387938	-0.409752	0.196667
C83	C	-0.860663	-0.869463	-0.343553
C84	C	-0.360663	-0.369463	0.156447
O85	O	-0.888925	-0.835215	-0.377765
O86	O	-0.388925	-0.335215	0.122235
C87	C	-0.806059	-0.869442	-0.343547
C88	C	-0.306059	-0.369442	0.156453
C89	C	-0.778730	-0.909707	-0.303319
C90	C	-0.278730	-0.409707	0.196681
C91	C	-0.778672	-0.990258	-0.222879
C92	C	-0.278672	-0.490258	0.277121
C93	C	-0.724071	-0.990233	-0.222870
C94	C	-0.224071	-0.490233	0.277130
C95	C	-0.696800	-0.949945	-0.263085
C96	C	-0.196800	-0.449945	0.236915
C97	C	-0.724130	-0.909682	-0.303310
C98	C	-0.224130	-0.409682	0.196690
C99	C	-0.778785	-0.829155	-0.383770
C100	C	-0.278785	-0.329155	0.116230
C101	C	-0.724178	-0.829138	-0.383761
C102	C	-0.224178	-0.329138	0.116239
C103	C	-0.696849	-0.869404	-0.343532
C104	C	-0.196849	-0.369404	0.156468
C105	C	-0.642258	-0.869368	-0.343516
C106	C	-0.142258	-0.369368	0.156484
N107	N	-0.614926	-0.909636	-0.303295
N108	N	-0.114926	-0.409636	0.196705
C109	C	-0.642197	-0.949924	-0.263079
C110	C	-0.142197	-0.449924	0.236921
C111	C	-0.975333	-0.869510	-0.343562
C112	C	-0.475333	-0.369510	0.156438
C113	C	-1.029935	-0.869527	-0.343565
C114	C	-0.529935	-0.369527	0.156435
C115	C	-1.029875	-0.950085	-0.263125
C116	C	-0.529875	-0.450085	0.236875
C117	C	-0.975271	-0.950065	-0.263119
C118	C	-0.475271	-0.450065	0.236881
C119	C	-0.948001	-0.909777	-0.303341
C120	C	-0.448001	-0.409777	0.196659
C121	C	-0.527532	-0.949867	-0.263063
C122	C	-0.027532	-0.449867	0.236937
C123	C	-0.472927	-0.949836	-0.263056
C124	C	0.027073	-0.449836	0.236944
C125	C	-0.472992	-0.869281	-0.343498
C126	C	0.027008	-0.369281	0.156502
C127	C	-0.527593	-0.869309	-0.343503
C128	C	-0.027593	-0.369309	0.156497
C129	C	-0.554861	-0.909607	-0.303284
C130	C	-0.054861	-0.409607	0.196716
O131	O	-0.614001	-0.835108	-0.377684
O132	O	-0.114001	-0.335108	0.122316
O133	O	-0.613928	-0.984172	-0.228878
O134	O	-0.113928	-0.484172	0.271122
C135	C	-0.115326	-0.909765	-0.303334
C136	C	0.384674	-0.409765	0.196666
C137	C	-0.057212	-0.909818	-0.303352
C138	C	0.442788	-0.409818	0.196648
C139	C	-0.251688	-0.909694	-0.467481
C140	C	0.248312	-0.409694	0.032519
C141	C	-0.251683	-0.909716	-0.537450
C142	C	0.248317	-0.409716	-0.037450
C143	C	-0.251676	-0.073832	-0.303308
C144	C	0.248324	0.426168	0.196692
C145	C	-0.251683	-0.143800	-0.303307
C146	C	0.248317	0.356200	0.196693
C147	C	-0.218234	-0.950006	-0.570333
C148	C	0.281766	-0.450006	-0.070333
C149	C	-0.218211	-0.950005	-0.636075
C150	C	0.281789	-0.450005	-0.136075
C151	C	-0.251647	-0.909721	-0.668932
C152	C	0.248353	-0.409721	-0.168932
C153	C	-0.285098	-0.869423	-0.636041
C154	C	0.214902	-0.369423	-0.136041
C155	C	-0.285116	-0.869421	-0.570300
C156	C	0.214884	-0.369421	-0.070300
N157	N	-0.297386	-0.904857	-0.772149
N158	N	0.202614	-0.404857	-0.272149
N159	N	-0.297368	-0.904863	-0.834601
N160	N	0.202632	-0.404863	-0.334601
C161	C	-0.251594	-0.909725	-0.867007
C162	C	0.248406	-0.409725	-0.367007
N163	N	-0.205838	-0.914594	-0.834602
N164	N	0.294162	-0.414594	-0.334602
N165	N	-0.205858	-0.914591	-0.772145
N166	N	0.294142	-0.414591	-0.272145
C167	C	-0.251631	-0.909719	-0.740218
C168	C	0.248369	-0.409719	-0.240218
C169	C	-0.218118	-0.950016	-0.971176
C170	C	0.281882	-0.450016	-0.471176
C171	C	-0.218094	-0.950011	-1.036919
C172	C	0.281906	-0.450011	-0.536919
C173	C	-0.284986	-0.869432	-1.036884
C174	C	0.215014	-0.369432	-0.536884
C175	C	-0.285004	-0.869434	-0.971142
C176	C	0.214996	-0.369434	-0.471142
C177	C	-0.251571	-0.909730	-0.938291
C178	C	0.248429	-0.409730	-0.438291
C179	C	-0.251672	-0.909626	-0.139740
C180	C	0.248328	-0.409626	0.360260
C181	C	-0.251529	-0.909726	-0.069772
C182	C	0.248471	-0.409726	0.430228
H183	H	-0.191183	-0.670130	-0.376456
H184	H	0.308817	-0.170130	0.123544
H185	H	-0.191009	-0.982817	-0.543590
H186	H	0.308991	-0.482817	-0.043590
O187	O	-0.446470	-0.830240	-0.382630
O188	O	0.053530	-0.330240	0.117370
C189	C	-0.384765	-0.821728	-0.467570
C190	C	0.115235	-0.321728	0.032430
C191	C	-0.414781	-0.866007	-0.423298
C192	C	0.085219	-0.366007	0.076702
H193	H	-0.359129	-0.850628	-0.500452
H194	H	0.140871	-0.350628	-0.000452
H195	H	-0.413648	-0.792961	-0.496374
H196	H	0.086352	-0.292961	0.003626
H197	H	-0.359269	-0.788806	-0.438623
H198	H	0.140731	-0.288806	0.061377
H199	H	-0.440278	-0.898968	-0.452196
H200	H	0.059722	-0.398968	0.047804
H201	H	-0.385870	-0.894730	-0.394491
H202	H	0.114130	-0.394730	0.105509
H203	H	-0.953132	-0.836698	-0.376314
H204	H	-0.453132	-0.336698	0.123686
H205	H	-0.312354	-0.836609	-0.543527
H206	H	0.187646	-0.336609	-0.043527
O207	O	-0.185994	-0.545636	-0.382828
O208	O	0.314006	-0.045636	0.117172
C209	C	-0.179074	-0.471491	-0.467862
C210	C	0.320926	0.028509	0.032138
C211	C	-0.215777	-0.507613	-0.423481
C212	C	0.284223	-0.007613	0.076519
H213	H	-0.203139	-0.440750	-0.500749
H214	H	0.296861	0.059250	-0.000749
H215	H	-0.151704	-0.440689	-0.439062
H216	H	0.348296	0.059311	0.060938
H217	H	-0.155204	-0.506332	-0.496661
H218	H	0.344796	-0.006332	0.003339
H219	H	-0.239681	-0.472817	-0.394672
H220	H	0.260319	0.027183	0.105328
H221	H	-0.243112	-0.538424	-0.452317
H222	H	0.256888	-0.038424	0.047683
H223	H	-0.549728	-0.982683	-0.230314
H224	H	-0.049728	-0.482683	0.269686
O225	O	-0.317528	-0.830388	-0.939127
O226	O	0.182472	-0.330388	-0.439127
C227	C	-0.388163	-0.821855	-0.864931
C228	C	0.111837	-0.321855	-0.364931
C229	C	-0.351354	-0.866149	-0.901135
C230	C	0.148646	-0.366149	-0.401135
H231	H	-0.415528	-0.850750	-0.834215
H232	H	0.084472	-0.350750	-0.334215
H233	H	-0.364202	-0.788969	-0.834097
H234	H	0.135798	-0.288969	-0.334097
H235	H	-0.412032	-0.793048	-0.899718
H236	H	0.087968	-0.293048	-0.399718
H237	H	-0.327477	-0.894996	-0.866393
H238	H	0.172523	-0.394996	-0.366393
H239	H	-0.375345	-0.898993	-0.931979
H240	H	0.124655	-0.398993	-0.431979
O241	O	-0.697633	-0.789970	-0.422746
O242	O	-0.197633	-0.289970	0.077254
C243	C	-0.636105	-0.704918	-0.431136
C244	C	-0.136105	-0.204918	0.068864
C245	C	-0.666124	-0.749247	-0.386917
C246	C	-0.166124	-0.249247	0.113083
H247	H	-0.610632	-0.671974	-0.402185
H248	H	-0.110632	-0.171974	0.097815
H249	H	-0.610462	-0.733757	-0.464065
H250	H	-0.110462	-0.233757	0.035935
H251	H	-0.665033	-0.676177	-0.459899
H252	H	-0.165033	-0.176177	0.040101
H253	H	-0.637234	-0.777998	-0.358113
H254	H	-0.137234	-0.277998	0.141887
H255	H	-0.691775	-0.720373	-0.354029
H256	H	-0.191775	-0.220373	0.145971
H257	H	-0.801027	-0.796364	-0.416525
H258	H	-0.301027	-0.296364	0.083475
H259	H	-0.549845	-0.836523	-0.376262
H260	H	-0.049845	-0.336523	0.123738
O261	O	-0.317614	-0.545427	-0.223865
O262	O	0.182386	-0.045427	0.276135
C263	C	-0.388166	-0.471078	-0.215248
C264	C	0.111834	0.028922	0.284752
C265	C	-0.351416	-0.507313	-0.259583
C266	C	0.148584	-0.007313	0.240417
H267	H	-0.415496	-0.440244	-0.244108
H268	H	0.084504	0.059756	0.255892
H269	H	-0.412070	-0.505789	-0.186429
H270	H	0.087930	-0.005789	0.313571
H271	H	-0.364107	-0.440340	-0.182377
H272	H	0.135893	0.059660	0.317623
H273	H	-0.375435	-0.538052	-0.292493
H274	H	0.124565	-0.038052	0.207507
H275	H	-0.327510	-0.472568	-0.288358
H276	H	0.172490	0.027432	0.211642
H277	H	-0.312324	-0.669896	-0.230095
H278	H	0.187676	-0.169896	0.269905
H279	H	-0.191127	-0.269293	-0.376477
H280	H	0.308873	0.230707	0.123523
H281	H	-0.190970	-0.982813	-0.662854
H282	H	0.309030	-0.482813	-0.162854
H283	H	-0.312320	-0.836622	-0.662797
H284	H	0.187680	-0.336622	-0.162797
H285	H	-0.701823	-1.023022	-0.190114
H286	H	-0.201823	-0.523022	0.309886
O287	O	-0.185846	-0.144967	-0.382874
O288	O	0.314154	0.355033	0.117126
C289	C	-0.119597	-0.152035	-0.462860
C290	C	0.380403	0.347965	0.037140
C291	C	-0.156331	-0.188091	-0.418463
C292	C	0.343669	0.311909	0.081537
H293	H	-0.095716	-0.186885	-0.491636
H294	H	0.404284	0.313115	0.008364
H295	H	-0.143613	-0.121256	-0.495764
H296	H	0.356387	0.378744	0.004236
H297	H	-0.092238	-0.121264	-0.434012
H298	H	0.407762	0.378736	0.065988
H299	H	-0.183696	-0.218896	-0.447260
H300	H	0.316304	0.281104	0.052740
H301	H	-0.132282	-0.218830	-0.385558
H302	H	0.367718	0.281170	0.114442
O303	O	-0.948807	-0.989240	-0.224024
O304	O	-0.448807	-0.489240	0.275976
C305	C	-0.954525	-1.069113	-0.144208
C306	C	-0.454525	-0.569113	0.355792
C307	C	-0.984557	-1.024787	-0.188463
C308	C	-0.484557	-0.524787	0.311537
H309	H	-0.983415	-1.097855	-0.115436
H310	H	-0.483415	-0.597855	0.384564
H311	H	-0.928931	-1.102050	-0.173104
H312	H	-0.428931	-0.602050	0.326896
H313	H	-0.928988	-1.040210	-0.111290
H314	H	-0.428988	-0.540210	0.388710
H315	H	-1.010121	-1.053639	-0.221391
H316	H	-0.510121	-0.553639	0.278609
H317	H	-1.010118	-0.991848	-0.159529
H318	H	-0.510118	-0.491848	0.340471
H319	H	-0.312260	-0.149788	-0.230136
H320	H	0.187740	0.350212	0.269864
O321	O	-0.446356	-0.988864	-0.223910
O322	O	0.053644	-0.488864	0.276090
C323	C	-0.384713	-0.997352	-0.138940
C324	C	0.115287	-0.497352	0.361060
C325	C	-0.414777	-0.953084	-0.183220
C326	C	0.085223	-0.453084	0.316780
H327	H	-0.359165	-0.968443	-0.106040
H328	H	0.140835	-0.468443	0.393960
H329	H	-0.413564	-1.026141	-0.110155
H330	H	0.086436	-0.526141	0.389845
H331	H	-0.359124	-1.030255	-0.167879
H332	H	0.140876	-0.530255	0.332121
H333	H	-0.440367	-0.920143	-0.154329
H334	H	0.059633	-0.420143	0.345671
H335	H	-0.385897	-0.924339	-0.212007
H336	H	0.114103	-0.424339	0.287993
O337	O	-1.056399	-0.830388	-0.382698
O338	O	-0.556399	-0.330388	0.117302
C339	C	-1.050681	-0.750457	-0.462456
C340	C	-0.550681	-0.250457	0.037544
C341	C	-1.020649	-0.794758	-0.418176
C342	C	-0.520649	-0.294758	0.081824
H343	H	-1.021791	-0.721630	-0.491142
H344	H	-0.521791	-0.221630	0.008858
H345	H	-1.076185	-0.779320	-0.495448
H346	H	-0.576185	-0.279320	0.004552
H347	H	-1.076307	-0.717593	-0.433521
H348	H	-0.576307	-0.217593	0.066479
H349	H	-0.994995	-0.827632	-0.447061
H350	H	-0.494995	-0.327632	0.052939
H351	H	-0.995178	-0.765856	-0.385183
H352	H	-0.495178	-0.265856	0.114817
O353	O	-0.317573	-0.274118	-0.223773
O354	O	0.182427	0.225882	0.276227
C355	C	-0.383784	-0.267050	-0.143741
C356	C	0.116216	0.232950	0.356259
C357	C	-0.347028	-0.230994	-0.188112
C358	C	0.152972	0.269006	0.311888
H359	H	-0.407600	-0.232201	-0.114888
H360	H	0.092400	0.267799	0.385112
H361	H	-0.411196	-0.297790	-0.172550
H362	H	0.088804	0.202210	0.327450
H363	H	-0.359734	-0.297861	-0.110903
H364	H	0.140266	0.202139	0.389097
H365	H	-0.371036	-0.200149	-0.220959
H366	H	0.128964	0.299851	0.279041
H367	H	-0.319614	-0.200294	-0.159264
H368	H	0.180386	0.299706	0.340736
O369	O	-0.185589	-0.989172	-0.939358
O370	O	0.314411	-0.489172	-0.439358
C371	C	-0.119260	-1.069117	-0.946330
C372	C	0.380740	-0.569117	-0.446330
C373	C	-0.156064	-1.024797	-0.982439
C374	C	0.343936	-0.524797	-0.482439
H375	H	-0.095388	-1.097941	-0.981145
H376	H	0.404612	-0.597941	-0.481145
H377	H	-0.091902	-1.040270	-0.915555
H378	H	0.408098	-0.540270	-0.415555
H379	H	-0.143276	-1.101985	-0.915549
H380	H	0.356724	-0.601985	-0.415549
H381	H	-0.132091	-0.991920	-1.013253
H382	H	0.367909	-0.491920	-0.513253
H383	H	-0.183424	-1.053683	-1.013174
H384	H	0.316576	-0.553683	-0.513174
H385	H	-0.800870	-1.023069	-0.190130
H386	H	-0.300870	-0.523069	0.309870
O387	O	-1.056452	-0.989248	-0.224163
O388	O	-0.556452	-0.489248	0.275837
C389	C	-1.140552	-1.025051	-0.188609
C390	C	-0.640552	-0.525051	0.311391
C391	C	-1.110516	-0.980655	-0.232744
C392	C	-0.610516	-0.480655	0.267256
H393	H	-1.184268	-1.018109	-0.195522
H394	H	-0.684268	-0.518109	0.304478
H395	H	-1.129771	-1.075793	-0.199770
H396	H	-0.629771	-0.575793	0.300230
H397	H	-1.129846	-1.014087	-0.137822
H398	H	-0.629846	-0.514087	0.362178
H399	H	-1.121206	-0.991562	-0.283545
H400	H	-0.621206	-0.491562	0.216455
H401	H	-1.121300	-0.929926	-0.221529
H402	H	-0.621300	-0.429926	0.278471
O403	O	-0.317453	-0.830364	-1.068891
O404	O	0.182547	-0.330364	-0.568891
C405	C	-0.347056	-0.794638	-1.170153
C406	C	0.152944	-0.294638	-0.670153
C407	C	-0.310268	-0.838925	-1.133981
C408	C	0.189732	-0.338925	-0.633981
H409	H	-0.341252	-0.801535	-1.222785
H410	H	0.158748	-0.301535	-0.722785
H411	H	-0.389227	-0.805662	-1.157275
H412	H	0.110773	-0.305662	-0.657275
H413	H	-0.337899	-0.743892	-1.157171
H414	H	0.162101	-0.243892	-0.657171
H415	H	-0.319378	-0.889686	-1.146943
H416	H	0.180622	-0.389686	-0.646943
H417	H	-0.268108	-0.827848	-1.146862
H418	H	0.231892	-0.327848	-0.646862
H419	H	-0.190853	-0.982819	-1.063692
H420	H	0.309147	-0.482819	-0.563692
