data_functionalizedCrystal
_audit_creation_method	'MofGen! by Chris Wilmer'
_symmetry_space_group_name_H-M	'P1'
_symmetry_Int_Tables_number	1
_symmetry_cell_setting	triclinic
loop_
_symmetry_equiv_pos_as_xyz
  x,y,z
_cell_length_a	12.645330
_cell_length_b	16.625547
_cell_length_c	16.625548
_cell_angle_alpha	89.985274
_cell_angle_beta	90.007257
_cell_angle_gamma	89.983122
loop_
_atom_site_label
_atom_site_type_symbol
_atom_site_fract_x
_atom_site_fract_y
_atom_site_fract_z
Zn1	Zn	-0.422238	-1.232609	0.456071
Zn2	Zn	0.077762	-0.732609	0.956071
Zn3	Zn	-0.599472	-1.232553	0.321248
Zn4	Zn	-0.099472	-0.732553	0.821248
Zn5	Zn	-0.422220	-1.097800	0.321237
Zn6	Zn	0.077780	-0.597800	0.821237
Zn7	Zn	-0.599458	-1.097753	0.456023
Zn8	Zn	-0.099458	-0.597753	0.956023
O9	O	-0.510847	-1.165179	0.388645
O10	O	-0.010847	-0.665179	0.888645
O11	O	-0.445762	-1.345434	0.438212
O12	O	0.054238	-0.845434	0.938212
O13	O	-0.575957	-1.214674	0.208414
O14	O	-0.075957	-0.714674	0.708414
O15	O	-0.273875	-1.115726	0.339138
O16	O	0.226125	-0.615726	0.839138
O17	O	-0.575975	-1.345392	0.339158
O18	O	-0.075975	-0.845392	0.839158
O19	O	-0.273889	-1.214770	0.438201
O20	O	0.226111	-0.714770	0.938201
O21	O	-0.445731	-1.115671	0.208406
O22	O	0.054269	-0.615671	0.708406
O23	O	-0.445718	-0.984961	0.339091
O24	O	0.054282	-0.484961	0.839091
O25	O	-0.575951	-1.115645	0.568862
O26	O	-0.075951	-0.615645	1.068862
O27	O	-0.575933	-0.984926	0.438118
O28	O	-0.075933	-0.484926	0.938118
O29	O	-0.445748	-1.214724	0.568897
O30	O	0.054252	-0.714724	1.068897
O31	O	-0.747817	-1.214628	0.339111
O32	O	-0.247817	-0.714628	0.839111
O33	O	-0.747807	-1.115591	0.438129
O34	O	-0.247807	-0.615591	0.938129
C35	C	-0.510823	-0.955688	0.388599
C36	C	-0.010823	-0.455688	0.888599
C37	C	-0.510838	-0.866067	0.388598
C38	C	-0.010838	-0.366067	0.888598
C39	C	-0.510839	-0.793284	0.388605
C40	C	-0.010839	-0.293284	0.888605
C41	C	-0.510843	-0.701976	0.388622
C42	C	-0.010843	-0.201976	0.888622
C43	C	-0.510851	-0.629199	0.388639
C44	C	-0.010851	-0.129199	0.888639
C45	C	-0.510857	-0.537885	0.388655
C46	C	-0.010857	-0.037885	0.888655
C47	C	-0.786277	-1.165120	0.388633
C48	C	-0.286277	-0.665120	0.888633
C49	C	-0.904107	-1.165168	0.388656
C50	C	-0.404107	-0.665168	0.888656
C51	C	-1.071708	-1.103121	0.451140
C52	C	-0.571708	-0.603121	0.951140
C53	C	-0.949149	-1.102804	0.450939
C54	C	-0.449149	-0.602804	0.950939
C55	C	-0.948666	-1.142185	0.303678
C56	C	-0.448666	-0.642185	0.803678
C57	C	-1.071265	-1.141806	0.304057
C58	C	-0.571265	-0.641806	0.804057
C59	C	-1.071206	-1.250579	0.410460
C60	C	-0.571206	-0.750579	0.910460
C61	C	-0.948600	-1.250055	0.412318
C62	C	-0.448600	-0.750055	0.912318
C63	C	-0.234342	-1.165260	0.388674
C64	C	0.265658	-0.665260	0.888674
C65	C	-0.116512	-1.165294	0.388686
C66	C	0.383488	-0.665294	0.888686
C67	C	-0.510850	-1.165186	0.598954
C68	C	-0.010850	-0.665186	1.098954
C69	C	-0.510851	-1.165189	0.688575
C70	C	-0.010851	-0.665189	1.188575
C71	C	-0.510868	-0.375487	0.388682
C72	C	-0.010868	0.124513	0.888682
C73	C	-0.510865	-0.465109	0.388673
C74	C	-0.010865	0.034891	0.888673
C75	C	-0.510861	-1.165155	1.016750
C76	C	-0.010861	-0.665155	1.516750
C77	C	-0.510861	-1.165162	0.925442
C78	C	-0.010861	-0.665162	1.425442
C79	C	-0.510857	-1.165172	0.852665
C80	C	-0.010857	-0.665172	1.352665
C81	C	-0.510856	-1.165179	0.761351
C82	C	-0.010856	-0.665179	1.261351
C83	C	-0.510865	-1.165164	1.179154
C84	C	-0.010865	-0.665164	1.679154
C85	C	-0.510858	-1.165156	1.089533
C86	C	-0.010858	-0.665156	1.589533
H87	H	-0.919021	-1.117181	0.513949
H88	H	-0.419021	-0.617181	1.013949
H89	H	-1.102075	-1.271548	0.471373
H90	H	-0.602075	-0.771548	0.971373
C91	C	-0.910356	-1.018458	0.431641
C92	C	-0.410356	-0.518458	0.931641
C93	C	-0.997305	-0.967583	0.420119
C94	C	-0.497305	-0.467583	0.920119
C95	C	-0.961611	-0.889878	0.402324
C96	C	-0.461611	-0.389878	0.902324
H97	H	-0.868673	-0.998967	0.474987
H98	H	-0.368673	-0.498967	0.974987
H99	H	-0.868856	-1.019749	0.384027
H100	H	-0.368856	-0.519749	0.884027
H101	H	-1.038788	-0.966290	0.467727
H102	H	-0.538788	-0.466290	0.967727
H103	H	-1.038997	-0.987048	0.376771
H104	H	-0.538997	-0.487048	0.876771
H105	H	-0.920112	-0.891169	0.354710
H106	H	-0.420112	-0.391169	0.854710
H107	H	-0.919928	-0.870396	0.445673
H108	H	-0.419928	-0.370396	0.945673
H109	H	-1.020600	-0.855352	0.394497
H110	H	-0.520600	-0.355352	0.894497
C111	C	-0.909991	-1.200746	0.239940
C112	C	-0.409991	-0.700746	0.739940
C113	C	-0.996926	-1.238442	0.203919
C114	C	-0.496926	-0.738442	0.703919
C115	C	-0.961347	-1.292415	0.145218
C116	C	-0.461347	-0.792415	0.645218
H117	H	-0.870929	-1.172394	0.200221
H118	H	-0.370929	-0.672394	0.700221
H119	H	-0.865958	-1.240152	0.264280
H120	H	-0.365958	-0.740152	0.764280
H121	H	-1.040941	-1.199043	0.179579
H122	H	-0.540941	-0.699043	0.679579
H123	H	-1.035997	-1.266810	0.243617
H124	H	-0.535997	-0.766810	0.743617
H125	H	-0.917314	-1.331821	0.169559
H126	H	-0.417314	-0.831821	0.669559
H127	H	-0.922285	-1.264057	0.105505
H128	H	-0.422285	-0.764057	0.605505
H129	H	-1.020325	-1.318004	0.120776
H130	H	-0.520325	-0.818004	0.620776
C131	C	-1.109889	-1.312456	0.349945
C132	C	-0.609889	-0.812456	0.849945
C133	C	-1.167874	-1.371991	0.389969
C134	C	-0.667874	-0.871991	0.889969
C135	C	-1.203519	-1.429004	0.334250
C136	C	-0.703519	-0.929004	0.834250
H137	H	-1.153681	-1.286890	0.311181
H138	H	-0.653681	-0.786890	0.811181
H139	H	-1.050935	-1.336324	0.323770
H140	H	-0.550935	-0.836324	0.823770
H141	H	-1.226821	-1.348125	0.416131
H142	H	-0.726821	-0.848125	0.916131
H143	H	-1.124105	-1.397577	0.428729
H144	H	-0.624105	-0.897577	0.928729
H145	H	-1.144564	-1.452872	0.308075
H146	H	-0.644564	-0.952872	0.808075
H147	H	-1.247306	-1.403431	0.295489
H148	H	-0.747306	-0.903431	0.795489
H149	H	-1.242857	-1.469409	0.361400
H150	H	-0.742857	-0.969409	0.861400
C151	C	-1.109583	-1.058741	0.279319
C152	C	-0.609583	-0.558741	0.779319
C153	C	-1.171212	-1.065073	0.209639
C154	C	-0.671212	-0.565073	0.709639
C155	C	-1.206512	-0.988567	0.186824
C156	C	-0.706512	-0.488567	0.686824
H157	H	-1.150871	-1.036225	0.321400
H158	H	-0.650871	-0.536225	0.821400
H159	H	-1.050428	-1.025065	0.269013
H160	H	-0.550428	-0.525065	0.769013
H161	H	-1.230359	-1.098736	0.219949
H162	H	-0.730359	-0.598736	0.719949
H163	H	-1.129947	-1.087575	0.167542
H164	H	-0.629947	-0.587575	0.667542
H165	H	-1.147357	-0.954891	0.176518
H166	H	-0.647357	-0.454891	0.676518
H167	H	-1.247795	-0.966057	0.228910
H168	H	-0.747795	-0.466057	0.728910
H169	H	-1.248323	-0.992852	0.139540
H170	H	-0.748323	-0.492852	0.639540
H171	H	-1.100903	-1.185126	0.255937
H172	H	-0.600903	-0.685126	0.755937
C173	C	-0.907925	-1.059949	0.278477
C174	C	-0.407925	-0.559949	0.778477
C175	C	-0.948440	-1.040436	0.202559
C176	C	-0.448440	-0.540436	0.702559
C177	C	-0.910924	-0.964690	0.179318
C178	C	-0.410924	-0.464690	0.679318
H179	H	-0.930043	-1.020757	0.316487
H180	H	-0.430043	-0.520757	0.816487
H181	H	-0.832867	-1.061001	0.276186
H182	H	-0.332867	-0.561001	0.776186
H183	H	-1.023481	-1.039378	0.204855
H184	H	-0.523481	-0.539378	0.704855
H185	H	-0.926325	-1.079608	0.164531
H186	H	-0.426325	-0.579608	0.664531
H187	H	-0.835866	-0.965742	0.177028
H188	H	-0.335866	-0.465742	0.677028
H189	H	-0.933044	-0.925505	0.217333
H190	H	-0.433044	-0.425505	0.717333
H191	H	-0.938400	-0.951444	0.127803
H192	H	-0.438400	-0.451444	0.627803
C193	C	-0.909993	-1.273110	0.495784
C194	C	-0.409993	-0.773110	0.995784
C195	C	-0.997012	-1.284611	0.546561
C196	C	-0.497012	-0.784611	1.046561
C197	C	-0.961492	-1.305819	0.623466
C198	C	-0.461492	-0.805819	1.123466
H199	H	-0.870190	-1.321474	0.492711
H200	H	-0.370190	-0.821474	0.992711
H201	H	-0.866684	-1.231318	0.516588
H202	H	-0.366684	-0.731318	1.016588
H203	H	-1.040303	-1.326399	0.525762
H204	H	-0.540303	-0.826399	1.025762
H205	H	-1.036824	-1.236256	0.549658
H206	H	-0.536824	-0.736256	1.049658
H207	H	-0.918184	-1.264028	0.644270
H208	H	-0.418184	-0.764028	1.144270
H209	H	-0.921689	-1.354182	0.620385
H210	H	-0.421689	-0.854182	1.120385
H211	H	-1.020528	-1.313618	0.657930
H212	H	-0.520528	-0.813618	1.157930
H213	H	-0.917934	-1.298815	0.370143
H214	H	-0.417934	-0.798815	0.870143
H215	H	-1.102602	-1.040290	0.436898
H216	H	-0.602602	-0.540290	0.936898
C217	C	-1.111122	-1.122210	0.535369
C218	C	-0.611122	-0.622210	1.035369
C219	C	-1.176371	-1.190181	0.532698
C220	C	-0.676371	-0.690181	1.032698
C221	C	-1.212720	-1.207783	0.610274
C222	C	-0.712720	-0.707783	1.110274
H223	H	-1.052532	-1.132519	0.569619
H224	H	-0.552532	-0.632519	1.069619
H225	H	-1.150129	-1.077734	0.555551
H226	H	-0.650129	-0.577734	1.055551
H227	H	-1.137366	-1.234648	0.512527
H228	H	-0.637366	-0.734648	1.012527
H229	H	-1.234977	-1.179891	0.498464
H230	H	-0.734977	-0.679891	0.998464
H231	H	-1.251726	-1.163307	0.630455
H232	H	-0.751726	-0.663307	1.130455
H233	H	-1.154124	-1.218088	0.644517
H234	H	-0.654124	-0.718088	1.144517
H235	H	-1.257003	-1.253898	0.608470
H236	H	-0.757003	-0.753898	1.108470
