data_functionalizedCrystal
_audit_creation_method	'MofGen! by Chris Wilmer'
_symmetry_space_group_name_H-M	'P1'
_symmetry_Int_Tables_number	1
_symmetry_cell_setting	triclinic
loop_
_symmetry_equiv_pos_as_xyz
  x,y,z
_cell_length_a	14.044191
_cell_length_b	27.732048
_cell_length_c	12.503552
_cell_angle_alpha	86.514598
_cell_angle_beta	93.842477
_cell_angle_gamma	87.917216
loop_
_atom_site_label
_atom_site_type_symbol
_atom_site_fract_x
_atom_site_fract_y
_atom_site_fract_z
O1	O	1.261510	0.113920	0.089290
O2	O	0.985603	0.109713	0.089303
O3	O	1.132124	0.041823	0.089276
O4	O	1.114989	0.181810	0.089318
O5	O	1.121092	0.046933	-0.089365
O6	O	0.974571	0.114824	-0.089337
O7	O	1.250478	0.119030	-0.089350
Cu8	Cu	1.111517	0.117393	-0.105655
Cu9	Cu	1.124564	0.111350	0.105608
O10	O	1.103957	0.186921	-0.089323
C11	C	0.944800	0.110428	-0.000016
C12	C	0.839654	0.104940	-0.000012
C13	C	0.588944	0.133831	-0.000014
C14	C	0.647143	0.094914	-0.000024
C15	C	0.754266	0.100494	-0.000017
C16	C	0.481811	0.128252	-0.000020
C17	C	1.126249	0.026354	-0.000047
C18	C	1.125165	-0.027351	-0.000056
C19	C	1.204934	-0.362424	-0.000005
C20	C	1.200915	-0.564272	0.000011
O21	O	1.273858	-0.592105	0.000054
N22	N	1.114033	-0.587475	0.000014
C23	C	1.028150	-0.560212	0.000020
O24	O	0.954160	-0.584578	0.000034
C25	C	1.032170	-0.358364	0.000012
C26	C	1.119057	-0.335164	-0.000002
C27	C	1.291814	-0.339224	-0.000017
C28	C	1.292817	-0.288764	-0.000027
C29	C	1.206940	-0.261505	-0.000024
C30	C	1.120060	-0.284705	-0.000011
C31	C	0.946289	-0.331102	0.000026
C32	C	0.947301	-0.280637	0.000027
C33	C	1.034188	-0.257438	0.000013
C34	C	1.035187	-0.206986	-0.000018
N35	N	1.122069	-0.183784	-0.000021
C36	C	1.207946	-0.211043	-0.000024
C37	C	1.026046	-0.666185	0.000022
C38	C	1.025040	-0.716646	0.000022
C39	C	1.197806	-0.720704	0.000014
C40	C	1.198810	-0.670241	0.000007
C41	C	1.112928	-0.642982	0.000019
C42	C	1.210046	-0.105075	-0.000045
C43	C	1.211041	-0.054611	-0.000059
C44	C	1.038277	-0.050558	-0.000046
C45	C	1.037280	-0.101018	-0.000038
C46	C	1.123173	-0.128275	-0.000034
O47	O	0.962284	-0.179123	-0.000049
O48	O	1.281926	-0.186668	-0.000014
C49	C	1.203930	-0.412883	0.000005
C50	C	1.117050	-0.436083	0.000018
C51	C	1.031174	-0.408824	0.000021
C52	C	1.116045	-0.486545	0.000018
C53	C	1.201922	-0.513804	0.000015
C54	C	1.288804	-0.490602	0.000012
C55	C	1.289807	-0.440142	0.000002
C56	C	0.944292	-0.432026	0.000024
C57	C	0.943295	-0.482485	0.000032
C58	C	1.029172	-0.509745	0.000029
C59	C	1.291282	0.118315	-0.000029
C60	C	1.396428	0.123803	-0.000026
C61	C	1.109833	0.202389	0.000003
C62	C	1.110917	0.256094	0.000019
N63	N	1.102348	0.121644	-0.254246
C64	C	1.147224	0.100841	-0.526687
C65	C	1.088868	0.127897	-0.473353
C66	C	1.096370	0.124417	-0.351430
C67	C	1.139723	0.104321	-0.648621
N68	N	1.133741	0.107096	0.254199
H69	H	0.616521	0.057403	0.000041
H70	H	1.033273	0.153674	-0.519258
H71	H	1.202817	0.075067	-0.480788
H72	H	0.956106	-0.643995	0.000031
H73	H	0.619570	0.171337	0.000001
H74	H	1.279988	-0.127262	-0.000037
H75	H	1.281798	-0.035724	-0.000073
H76	H	1.363569	-0.269880	-0.000034
H77	H	1.361749	-0.361413	-0.000016
H78	H	1.269561	-0.651355	-0.000004
H79	H	0.877364	-0.258446	0.000039
H80	H	1.267730	-0.742907	0.000011
H81	H	0.966528	-0.119907	-0.000056
H82	H	0.954287	-0.735530	0.000014
H83	H	0.875536	-0.349983	0.000044
H84	H	1.360559	-0.421258	-0.000009
H85	H	0.968358	-0.028354	-0.000047
H86	H	1.358727	-0.512805	0.000004
H87	H	0.872536	-0.501370	0.000034
H88	H	0.874359	-0.409836	0.000029
