data_functionalizedCrystal
_audit_creation_method	'MofGen! by Chris Wilmer'
_symmetry_space_group_name_H-M	'P1'
_symmetry_Int_Tables_number	1
_symmetry_cell_setting	triclinic
loop_
_symmetry_equiv_pos_as_xyz
  x,y,z
_cell_length_a	11.792254
_cell_length_b	10.868271
_cell_length_c	11.792241
_cell_angle_alpha	90.001559
_cell_angle_beta	84.196007
_cell_angle_gamma	90.004308
loop_
_atom_site_label
_atom_site_type_symbol
_atom_site_fract_x
_atom_site_fract_y
_atom_site_fract_z
O1	O	1.506901	0.102322	0.155631
O2	O	2.006901	0.602322	0.655631
O3	O	1.176561	0.102324	0.171649
O4	O	1.676561	0.602324	0.671649
O5	O	1.349747	0.102314	-0.001530
O6	O	1.849747	0.602314	0.498470
O7	O	1.333715	0.102332	0.328810
O8	O	1.833715	0.602332	0.828810
O9	O	1.349732	-0.102330	-0.001525
O10	O	1.849732	0.397670	0.498475
O11	O	1.176546	-0.102320	0.171654
O12	O	1.676546	0.397680	0.671654
O13	O	1.506885	-0.102323	0.155636
O14	O	2.006885	0.397677	0.655636
Zn15	Zn	1.341713	-0.134813	0.163646
Zn16	Zn	1.841713	0.365187	0.663646
Zn17	Zn	1.341733	0.134815	0.163639
Zn18	Zn	1.841733	0.634815	0.663639
O19	O	1.333699	-0.102313	0.328815
O20	O	1.833699	0.397687	0.828815
C21	C	1.134263	0.000002	0.170642
C22	C	1.634263	0.500002	0.670642
C23	C	1.008250	0.000003	0.167622
C24	C	1.508250	0.500003	0.667622
N25	N	1.341707	-0.318827	0.163651
N26	N	1.841707	0.181173	0.663651
C27	C	1.341716	-0.430165	0.163651
C28	C	1.841716	0.069835	0.663651
C29	C	1.341730	-0.569843	0.163640
C30	C	1.841730	-0.069843	0.663640
C31	C	0.905913	0.000008	0.165168
C32	C	1.405913	0.500008	0.665168
C33	C	0.777527	0.000009	0.162100
C34	C	1.277527	0.500009	0.662100
C35	C	1.549183	0.000002	0.156643
C36	C	2.049183	0.500002	0.656643
C37	C	1.675196	0.000009	0.159663
C38	C	2.175196	0.500009	0.659663
C39	C	1.348732	-0.000008	-0.043819
C40	C	1.848732	0.499992	0.456181
C41	C	1.345718	-0.000006	-0.169832
C42	C	1.845718	0.499994	0.330168
N43	N	1.341748	0.318829	0.163626
N44	N	1.841748	0.818829	0.663626
C45	C	1.340175	0.000014	-0.400545
C46	C	1.840175	0.500014	0.099455
C47	C	1.343255	0.000003	-0.272160
C48	C	1.843255	0.500003	0.227840
C49	C	1.334714	0.000012	0.371104
C50	C	1.834714	0.500012	0.871104
C51	C	1.337728	0.000019	0.497118
C52	C	1.837728	0.500019	0.997118
