data_functionalizedCrystal
_audit_creation_method	'MofGen! by Chris Wilmer'
_symmetry_space_group_name_H-M	'P1'
_symmetry_Int_Tables_number	1
_symmetry_cell_setting	triclinic
loop_
_symmetry_equiv_pos_as_xyz
  x,y,z
_cell_length_a	31.640172
_cell_length_b	18.760492
_cell_length_c	18.760487
_cell_angle_alpha	90.032206
_cell_angle_beta	60.026918
_cell_angle_gamma	59.996507
loop_
_atom_site_label
_atom_site_type_symbol
_atom_site_fract_x
_atom_site_fract_y
_atom_site_fract_z
Zr1	Zr	0.462586	-0.093111	0.686795
O2	O	0.550753	-0.206996	0.573005
O3	O	0.374419	-0.058200	0.721664
O4	O	0.462586	-0.206906	0.721692
O5	O	0.462586	0.059013	0.572971
O6	O	0.462586	-0.206834	0.838995
O7	O	0.462586	-0.058290	0.572977
O8	O	0.304871	0.059173	0.838944
O9	O	0.620300	-0.206994	0.573021
O10	O	0.410683	-0.043256	0.824094
O11	O	0.410683	0.044232	0.736547
O12	O	0.514488	-0.130850	0.736580
O13	O	0.514488	-0.043362	0.649034
Zr14	Zr	0.462585	0.094089	0.873870
Zr15	Zr	0.462586	-0.092996	0.873879
Zr16	Zr	0.462586	0.093974	0.686785
Zr17	Zr	0.573506	-0.093109	0.686821
Zr18	Zr	0.351665	0.094087	0.873844
O19	O	0.550752	0.059178	0.839001
O20	O	0.550752	-0.206832	0.839015
O21	O	0.550752	0.059014	0.572991
O22	O	0.374418	0.207973	0.987660
O23	O	0.374419	-0.058037	0.987674
O24	O	0.374419	0.207810	0.721650
O25	O	0.462585	-0.058035	0.987694
O26	O	0.462585	0.207884	0.838973
O27	O	0.462585	0.207811	0.721670
O28	O	0.462585	0.059268	0.987688
O29	O	0.620300	-0.206903	0.721728
O30	O	0.304871	0.207881	0.838937
O31	O	0.304871	0.207972	0.987644
O32	O	0.304871	0.059265	0.987652
O33	O	0.620300	-0.058287	0.573013
O34	O	0.620300	-0.058196	0.721720
O35	O	0.410683	0.131828	0.824084
O36	O	0.410683	0.044340	0.911631
O37	O	0.514488	-0.043254	0.824118
O38	O	0.514488	0.044234	0.736571
C39	C	0.323841	0.000486	0.780300
C40	C	0.276753	0.000485	0.780289
C41	C	0.462586	0.000345	0.546318
C42	C	0.462586	0.000296	0.466896
C43	C	0.462585	0.234503	0.780320
C44	C	0.462585	0.313925	0.780316
C45	C	-0.015289	-0.045171	0.826048
C46	C	-0.192285	-0.045170	0.826066
O47	O	-0.215190	-0.083978	0.864963
N48	N	-0.214414	0.000496	0.780367
C49	C	-0.192294	0.046170	0.734664
O50	O	-0.215182	0.085019	0.695802
C51	C	-0.015302	0.046174	0.734652
C52	C	0.006829	0.000497	0.780347
C53	C	0.006841	-0.090843	0.871740
C54	C	0.051090	-0.090846	0.871732
C55	C	0.073208	-0.045178	0.826031
C56	C	0.051077	0.000494	0.780338
C57	C	0.006814	0.091852	0.688955
C58	C	0.051063	0.091851	0.688958
C59	C	0.073194	0.046175	0.734653
C60	C	0.117444	0.046158	0.734628
N61	N	0.139573	0.000492	0.780328
C62	C	0.117455	-0.045176	0.826029
C63	C	-0.285217	0.046163	0.734673
C64	C	-0.329464	0.046161	0.734674
C65	C	-0.329452	-0.045178	0.826078
C66	C	-0.285201	-0.045181	0.826070
C67	C	-0.263088	0.000497	0.780372
C68	C	0.210381	-0.045180	0.826006
C69	C	0.254635	-0.045183	0.825990
C70	C	0.254617	0.046159	0.734591
C71	C	0.210369	0.046158	0.734603
C72	C	0.188250	0.000487	0.780317
O73	O	0.140371	0.084954	0.695760
O74	O	0.140341	-0.084003	0.864901
C75	C	-0.059538	-0.045167	0.826057
C76	C	-0.081668	0.000504	0.780365
C77	C	-0.059550	0.046173	0.734664
C78	C	-0.125915	0.000502	0.780367
C79	C	-0.148033	-0.045166	0.826068
C80	C	-0.125904	-0.090832	0.871767
C81	C	-0.081656	-0.090835	0.871758
C82	C	-0.081680	0.091839	0.688964
C83	C	-0.125928	0.091838	0.688976
C84	C	-0.148046	0.046170	0.734677
C85	C	0.601330	0.000492	0.780364
C86	C	0.648418	0.000492	0.780375
C87	C	0.462586	-0.233525	0.780344
C88	C	0.462586	-0.312948	0.780349
C89	C	0.408398	0.695466	0.826029
C90	C	0.516773	0.604012	0.734663
C91	C	0.516774	0.529390	0.734655
C92	C	0.462586	0.537803	0.780335
C93	C	0.408397	0.620838	0.826024
C94	C	0.570961	0.446350	0.688974
C95	C	0.570964	0.371721	0.688964
C96	C	0.516776	0.380133	0.734640
C97	C	0.462585	0.463175	0.780330
C98	C	0.408398	0.471588	0.826010
C99	C	0.354206	0.554629	0.871695
C100	C	0.354209	0.629250	0.871699
C101	C	0.516773	0.305512	0.734636
C102	C	0.408397	0.396961	0.826005
C103	C	0.516773	-0.045082	0.085398
C104	C	0.408398	0.046367	0.176768
C105	C	0.408398	0.046292	0.251390
C106	C	0.462585	0.000528	0.243019
C107	C	0.516774	-0.045161	0.160025
C108	C	0.354210	0.091973	0.334388
C109	C	0.354207	0.091899	0.409016
C110	C	0.408395	0.046140	0.400646
C111	C	0.462586	0.000450	0.317646
C112	C	0.516774	-0.045314	0.309275
C113	C	0.570965	-0.091000	0.226276
C114	C	0.570962	-0.090920	0.151655
C115	C	0.408398	0.046060	0.475267
C116	C	0.516774	-0.045393	0.383903
C117	C	0.462585	0.000633	1.014347
C118	C	0.462585	0.000682	1.093769
C119	C	0.323841	0.000630	1.014315
C120	C	0.276753	0.000678	1.093726
C121	C	0.323841	0.234500	0.780288
C122	C	0.276753	0.313922	0.780273
C123	C	0.323841	0.234644	1.014302
C124	C	0.276752	0.314115	1.093710
C125	C	0.601330	-0.233667	0.546362
C126	C	0.648419	-0.313137	0.466955
C127	C	0.601330	0.000348	0.546350
C128	C	0.648419	0.000300	0.466939
C129	C	0.601330	-0.233523	0.780377
C130	C	0.648419	-0.312944	0.780392
C131	C	0.254639	-0.045031	1.085325
C132	C	0.210401	-0.045004	1.159933
C133	C	0.188273	0.000739	1.242942
C134	C	0.210391	0.046450	1.251341
C135	C	0.254632	0.046416	1.176734
C136	C	0.254639	0.396951	0.825960
C137	C	0.210401	0.471583	0.825942
C138	C	0.188273	0.463184	0.780243
C139	C	0.210391	0.380146	0.734551
C140	C	0.254632	0.305516	0.734564
C141	C	0.254639	0.305767	1.176706
C142	C	0.210400	0.380430	1.251325
C143	C	0.188273	0.463441	1.242945
C144	C	0.210390	0.471787	1.159940
C145	C	0.254631	0.397124	1.085323
C146	C	0.670538	-0.304789	0.383958
C147	C	0.714790	-0.379453	0.309340
C148	C	0.736920	-0.462463	0.317719
C149	C	0.714799	-0.470809	0.400725
C150	C	0.670551	-0.396146	0.475342
C151	C	0.670536	0.046001	0.475340
C152	C	0.714787	0.045953	0.400732
C153	C	0.736916	0.000208	0.317723
C154	C	0.714797	-0.045499	0.309324
C155	C	0.670550	-0.045456	0.383931
C156	C	0.670532	-0.304517	0.826100
C157	C	0.714771	-0.379135	0.826131
C158	C	0.736899	-0.462178	0.780448
C159	C	0.714781	-0.470604	0.734739
C160	C	0.670540	-0.395987	0.734713
H161	H	0.192376	-0.082369	0.863232
N162	N	0.277210	0.405674	1.000552
N163	N	0.257443	0.479800	0.993092
H164	H	0.273387	0.485845	0.933224
H165	H	0.364281	0.083623	0.183577
H166	H	0.732804	-0.538228	0.697545
H167	H	0.772945	0.000179	0.256980
H168	H	0.192397	0.373619	1.318905
H169	H	0.310087	0.561469	0.908892
H170	H	0.615090	0.304113	0.651764
H171	H	0.560901	-0.082650	0.377075
N172	N	0.626320	-0.137759	0.217714
N173	N	0.662603	-0.218340	0.178709
H174	H	0.701697	-0.251365	0.172664
H175	H	0.560895	0.237904	0.697443
N176	N	0.277226	0.220986	1.185295
N177	N	0.257471	0.213562	1.259413
H178	H	0.273422	0.153687	1.265487
H179	H	0.272650	0.403806	0.863174
N180	N	-0.148548	0.138512	0.642318
N181	N	-0.188065	0.138528	0.642338
H182	H	-0.204046	0.171501	0.609397
H183	H	0.560890	0.597168	0.697479
H184	H	0.652522	-0.236905	0.863300
H185	H	0.652522	-0.237205	0.377119
H186	H	-0.063677	0.129030	0.651751
N187	N	0.187798	-0.091677	1.151357
N188	N	0.148296	-0.091647	1.217969
H189	H	0.132332	-0.124608	1.211912
N190	N	0.298864	0.714077	0.918355
N191	N	0.298875	0.780696	0.918354
H192	H	0.259788	0.840608	0.951306
N193	N	0.143084	0.539430	0.780241
N194	N	0.123347	0.613556	0.821041
H195	H	0.091431	0.667409	0.821045
N196	N	0.737412	-0.092223	0.224523
N197	N	0.776916	-0.092244	0.157924
H198	H	0.792889	-0.125239	0.098031
H199	H	0.272631	0.237913	0.697363
H200	H	0.732793	-0.372640	0.241760
N201	N	0.277221	0.093105	1.185322
N202	N	0.301904	0.073755	1.224267
H203	H	0.317857	0.106730	1.230338
N204	N	0.353051	0.780289	0.872682
N205	N	0.353055	0.846913	0.872677
H206	H	0.313966	0.906822	0.905625
H207	H	0.652543	-0.082669	0.377078
N208	N	0.298864	0.138704	0.342933
N209	N	0.286777	0.098976	0.311397
H210	H	0.247687	0.131983	0.317429
N211	N	0.626307	-0.137575	0.066872
N212	N	0.626296	-0.137498	0.000252
H213	H	0.665383	-0.170448	-0.059629
N214	N	0.572132	-0.091747	0.000631
N215	N	0.608413	-0.072399	-0.021534
H216	H	0.647512	-0.105357	-0.081401
N217	N	0.353044	0.405558	0.872651
N218	N	0.316766	0.444479	0.853257
H219	H	0.277673	0.450551	0.886200
N220	N	0.737351	-0.370501	0.872830
N221	N	0.717590	-0.296347	0.913604
H222	H	0.733536	-0.290246	0.946585
N223	N	0.187773	0.093194	1.336135
N224	N	0.163073	0.173782	1.358393
H225	H	0.147094	0.206802	1.418281
H226	H	0.652540	-0.402860	0.697488
H227	H	0.192398	0.539188	0.863153
H228	H	0.615078	0.439508	0.651791
N229	N	0.782086	-0.538401	0.780478
N230	N	0.772207	-0.592093	0.810057
H231	H	0.804121	-0.645923	0.810080
N232	N	0.298850	0.138567	0.493784
N233	N	0.250473	0.179421	0.501245
H234	H	0.211376	0.212383	0.561114
N235	N	0.187779	0.371590	0.687877
N236	N	0.148275	0.438238	0.687884
H237	H	0.132301	0.432199	0.654926
H238	H	0.152249	0.524229	1.303710
H239	H	0.364276	0.083264	0.542840
H240	H	0.732823	-0.538405	0.407538
N241	N	0.073682	-0.137501	0.918420
N242	N	0.053918	-0.178263	0.959224
H243	H	0.069868	-0.211212	0.992205
N244	N	0.187776	0.556589	1.151404
N245	N	0.148271	0.623238	1.218039
H246	H	0.132294	0.683133	1.212014
H247	H	0.772950	-0.523251	0.256954
H248	H	-0.011165	-0.128030	0.908960
N249	N	-0.262600	-0.091848	0.872744
N250	N	-0.282354	-0.132626	0.913535
H251	H	-0.266393	-0.165589	0.946500
H252	H	0.652542	-0.402954	0.542919
H253	H	-0.347472	0.083344	0.697453
N254	N	-0.262639	0.092831	0.687987
N255	N	-0.282407	0.133596	0.647191
H256	H	-0.266463	0.166554	0.614216
N257	N	0.277229	-0.091745	1.000538
N258	N	0.242659	-0.072387	0.978268
H259	H	0.258612	-0.105381	0.918388
H260	H	0.272654	-0.082381	0.863200
H261	H	0.652522	0.083258	0.542923
H262	H	-0.347467	-0.082365	0.863288
H263	H	-0.011199	0.129048	0.651746
N264	N	0.737370	0.092647	0.409339
N265	N	0.717599	0.133493	0.483462
H266	H	0.733547	0.166471	0.489544
H267	H	0.069067	0.129046	0.651743
H268	H	0.272635	0.083338	0.697380
N269	N	0.187775	0.092805	0.687910
N270	N	0.207534	0.133571	0.647103
H271	H	0.191576	0.166522	0.614130
H272	H	-0.063640	-0.128029	0.908968
H273	H	-0.143918	-0.128021	0.908975
N274	N	0.143032	0.000844	1.319138
N275	N	0.123261	-0.039915	1.311615
H276	H	0.091289	-0.039810	1.365426
