data_functionalizedCrystal
_audit_creation_method	'MofGen! by Chris Wilmer'
_symmetry_space_group_name_H-M	'P1'
_symmetry_Int_Tables_number	1
_symmetry_cell_setting	triclinic
loop_
_symmetry_equiv_pos_as_xyz
  x,y,z
_cell_length_a	10.723023
_cell_length_b	11.792241
_cell_length_c	9.198806
_cell_angle_alpha	89.996670
_cell_angle_beta	89.996513
_cell_angle_gamma	84.330482
loop_
_atom_site_label
_atom_site_type_symbol
_atom_site_fract_x
_atom_site_fract_y
_atom_site_fract_z
O1	O	1.656767	0.159188	-0.120878
O2	O	2.156767	0.659188	0.379122
O3	O	1.293574	0.174427	-0.120884
O4	O	1.793574	0.674427	0.379116
O5	O	1.483984	0.001656	-0.120871
O6	O	1.983984	0.501656	0.379129
O7	O	1.466357	0.331959	-0.120892
O8	O	1.966357	0.831959	0.379108
O9	O	1.483969	0.001656	0.120914
O10	O	1.983969	0.501656	0.620914
O11	O	1.293559	0.174426	0.120901
O12	O	1.793559	0.674426	0.620901
O13	O	1.656752	0.159187	0.120907
O14	O	2.156752	0.659187	0.620907
Cu15	Cu	1.475154	0.166807	0.142981
Cu16	Cu	1.975154	0.666807	0.642981
Cu17	Cu	1.475172	0.166807	-0.142958
Cu18	Cu	1.975172	0.666807	0.357042
O19	O	1.466342	0.331958	0.120893
O20	O	1.966342	0.831958	0.620893
C21	C	1.247070	0.173318	0.000007
C22	C	1.747070	0.673318	0.500007
C23	C	1.108525	0.170000	0.000005
C24	C	1.608525	0.670000	0.500005
C25	C	1.046749	0.168521	0.125256
C26	C	1.546749	0.668521	0.625256
C27	C	0.903554	0.165092	0.125257
C28	C	1.403554	0.665092	0.625257
C29	C	1.482870	-0.040638	0.000021
C30	C	1.982870	0.459362	0.500021
C31	C	1.479555	-0.166658	0.000020
C32	C	1.979555	0.333342	0.500020
C33	C	1.473461	-0.397384	-0.000005
C34	C	1.973461	0.102616	0.499995
C35	C	1.476847	-0.268991	0.000008
C36	C	1.976847	0.231009	0.500008
C37	C	1.703256	0.160296	0.000012
C38	C	2.203256	0.660296	0.500012
C39	C	1.841802	0.163614	0.000004
C40	C	2.341802	0.663614	0.500004
C41	C	1.467457	0.374252	-0.000002
C42	C	1.967457	0.874252	0.499998
C43	C	1.470771	0.500273	-0.000010
C44	C	1.970771	1.000273	0.499990
N45	N	1.475151	0.166806	0.344095
N46	N	1.975151	0.666806	0.844095
N47	N	1.475185	0.166799	-0.344072
N48	N	1.975185	0.666799	0.155928
C49	C	1.555099	0.093944	0.416297
C50	C	2.055099	0.593944	0.916297
C51	C	1.555119	0.093940	0.583709
C52	C	2.055119	0.593940	1.083709
H53	H	1.055403	0.168725	-0.107226
H54	H	1.555403	0.668725	0.392774
Br55	Br	0.815015	0.162986	0.303995
Br56	Br	1.315015	0.662986	0.803995
Br57	Br	0.930329	0.165748	-0.178740
Br58	Br	1.430329	0.665748	0.321260
H59	H	1.623528	0.031563	0.354176
H60	H	2.123528	0.531563	0.854176
H61	H	1.406739	0.229187	0.593846
H62	H	1.906739	0.729187	1.093846
Br63	Br	1.669219	-0.010027	0.687191
Br64	Br	2.169219	0.489973	1.187191
Br65	Br	1.361075	0.270768	0.447624
Br66	Br	1.861075	0.770768	0.947624
H67	H	1.099871	0.169787	0.232487
H68	H	1.599871	0.669787	0.732487
