data_functionalizedCrystal
_audit_creation_method	'MofGen! by Chris Wilmer'
_symmetry_space_group_name_H-M	'P1'
_symmetry_Int_Tables_number	1
_symmetry_cell_setting	triclinic
loop_
_symmetry_equiv_pos_as_xyz
  x,y,z
_cell_length_a	21.295412
_cell_length_b	12.759395
_cell_length_c	12.759394
_cell_angle_alpha	89.984607
_cell_angle_beta	89.977901
_cell_angle_gamma	90.021107
loop_
_atom_site_label
_atom_site_type_symbol
_atom_site_fract_x
_atom_site_fract_y
_atom_site_fract_z
Zn1	Zn	-0.355909	-1.606281	-0.418250
Zn2	Zn	-0.250650	-1.606172	-0.593942
Zn3	Zn	-0.250658	-1.430577	-0.418283
Zn4	Zn	-0.355886	-1.430574	-0.593892
O5	O	-0.303275	-1.518401	-0.506092
O6	O	-0.341952	-1.753288	-0.441563
O7	O	-0.162561	-1.582835	-0.570676
O8	O	-0.264633	-1.453932	-0.271257
O9	O	-0.264618	-1.753208	-0.570644
O10	O	-0.341960	-1.583020	-0.271233
O11	O	-0.162567	-1.453826	-0.441619
O12	O	-0.264611	-1.283556	-0.441570
O13	O	-0.443978	-1.453926	-0.570557
O14	O	-0.341921	-1.283554	-0.570590
O15	O	-0.443995	-1.583017	-0.441514
O16	O	-0.264596	-1.582832	-0.740957
O17	O	-0.341913	-1.453821	-0.740920
C18	C	-0.303265	-1.518343	-0.779059
C19	C	-0.303282	-1.518414	-0.895836
C20	C	-0.303265	-1.245434	-0.506079
C21	C	-0.303275	-1.128657	-0.506099
C22	C	-0.467466	-1.518483	-0.506026
C23	C	-0.537434	-1.518518	-0.505998
C24	C	-0.570294	-1.451361	-0.438791
C25	C	-0.636036	-1.451358	-0.438772
C26	C	-0.668917	-1.518530	-0.505948
C27	C	-0.636049	-1.585692	-0.573169
C28	C	-0.570307	-1.585686	-0.573194
N29	N	-0.772153	-1.610501	-0.513970
N30	N	-0.834605	-1.610504	-0.513940
C31	C	-0.866991	-1.518549	-0.505878
N32	N	-0.834567	-1.426590	-0.497828
N33	N	-0.772110	-1.426589	-0.497852
C34	C	-0.740202	-1.518543	-0.505929
C35	C	-0.971137	-1.451382	-0.438646
C36	C	-1.036881	-1.451377	-0.438634
C37	C	-1.036892	-1.585720	-0.573026
C38	C	-0.971149	-1.585716	-0.573043
C39	C	-0.938276	-1.518549	-0.505848
C40	C	-0.139724	-1.518380	-0.506081
C41	C	-0.069756	-1.518548	-0.505813
C42	C	-0.303287	-1.792435	-0.506105
C43	C	-0.303292	-1.909211	-0.506111
C44	C	-0.383648	-1.128693	-0.640664
C45	C	-0.423836	-1.073850	-0.707954
C46	C	-0.423844	-0.964129	-0.707967
C47	C	-0.383660	-0.909247	-0.640680
C48	C	-0.343472	-0.964090	-0.573389
C49	C	-0.343467	-1.073814	-0.573386
C50	C	-0.263103	-0.964054	-0.438820
C51	C	-0.263091	-1.073776	-0.438811
C52	C	-0.222919	-0.909173	-0.371533
C53	C	-0.182727	-0.964015	-0.304246
C54	C	-0.182720	-1.073744	-0.304237
C55	C	-0.222903	-1.128618	-0.371520
C56	C	-0.383863	-1.652734	-0.895652
C57	C	-0.424158	-1.719926	-0.950421
C58	C	-0.424172	-1.719989	-1.060143
C59	C	-0.383887	-1.652849	-1.115098
C60	C	-0.343592	-1.585656	-1.060329
C61	C	-0.343581	-1.585603	-0.950605
C62	C	-0.263015	-1.451333	-1.060513
C63	C	-0.262997	-1.451274	-0.950791
C64	C	-0.222730	-1.384193	-1.115468
C65	C	-0.182431	-1.317004	-1.060699
C66	C	-0.182418	-1.316945	-0.950970
C67	C	-0.222702	-1.384081	-0.896022
C68	C	-0.303300	-1.518488	-0.232058
C69	C	-0.303310	-1.518526	-0.115282
H70	H	-0.543532	-1.396664	-0.384079
C71	C	-0.672190	-1.377482	-0.364831
N72	N	-0.699418	-1.321840	-0.309136
H73	H	-0.944394	-1.640405	-0.627768
C74	C	-1.073056	-1.659658	-0.646874
N75	N	-1.100298	-1.715366	-0.702482
C76	C	-0.468053	-0.903800	-0.781991
N77	N	-0.501349	-0.858361	-0.837747
H78	H	-0.456554	-1.118547	-0.762737
C79	C	-0.222739	-1.384276	-1.236164
N80	N	-0.222740	-1.384345	-1.327075
C81	C	-0.138094	-1.243206	-1.121156
N82	N	-0.104687	-1.187639	-1.166696
H83	H	-0.543553	-1.640378	-0.627921
C84	C	-0.934974	-1.377487	-0.364742
N85	N	-0.907738	-1.321826	-0.309078
H86	H	-0.383641	-1.218034	-0.640668
H87	H	-0.149607	-1.262224	-0.906383
H88	H	-1.063634	-1.396682	-0.383909
C89	C	-0.383681	-0.788551	-0.640681
N90	N	-0.383698	-0.697640	-0.640679
H91	H	-0.222693	-1.384044	-0.806681
C92	C	-0.672218	-1.659438	-0.647206
N93	N	-0.699461	-1.714932	-0.703027
C94	C	-0.222935	-0.788476	-0.371539
N95	N	-0.222947	-0.697566	-0.371541
C96	C	-0.468498	-1.793904	-1.120390
N97	N	-0.501883	-1.849579	-1.165769
H98	H	-0.150016	-0.919322	-0.249461
H99	H	-0.383907	-1.652897	-1.204439
H100	H	-0.222900	-1.217960	-0.371522
H101	H	-0.149998	-1.118390	-0.249433
H102	H	-0.456959	-1.774589	-0.905667
H103	H	-0.383850	-1.652699	-0.806311
