data_functionalizedCrystal
_audit_creation_method	'MofGen! by Chris Wilmer'
_symmetry_space_group_name_H-M	'P1'
_symmetry_Int_Tables_number	1
_symmetry_cell_setting	triclinic
loop_
_symmetry_equiv_pos_as_xyz
  x,y,z
_cell_length_a	8.559649
_cell_length_b	12.837942
_cell_length_c	7.088929
_cell_angle_alpha	83.116986
_cell_angle_beta	95.325015
_cell_angle_gamma	82.303802
loop_
_atom_site_label
_atom_site_type_symbol
_atom_site_fract_x
_atom_site_fract_y
_atom_site_fract_z
O1	O	2.100237	-0.022929	-0.158957
O2	O	1.643086	0.029966	-0.158967
O3	O	1.861526	-0.146578	-0.158950
O4	O	1.881797	0.153615	-0.158973
O5	O	1.890711	-0.170219	0.159027
O6	O	1.672271	0.006325	0.159010
O7	O	2.129422	-0.046570	0.159021
Cu8	Cu	1.903512	-0.022281	0.188049
Cu9	Cu	1.868997	0.005677	-0.187996
O10	O	1.910982	0.129974	0.159004
C11	C	1.598759	0.022154	0.000020
C12	C	1.423195	0.034086	0.000017
C13	C	1.869270	-0.196474	0.000037
C14	C	1.848843	-0.309925	0.000034
C15	C	2.094400	-0.570430	-0.000001
C16	C	2.075215	-0.677028	-0.000004
C17	C	1.791288	-0.629721	0.000009
C18	C	1.810473	-0.523122	0.000013
C19	C	1.962034	-0.493482	0.000011
C20	C	1.981219	-0.386882	0.000028
C21	C	1.697292	-0.339576	0.000028
C22	C	1.678107	-0.446175	0.000024
C23	C	2.173749	-0.038758	0.000029
C24	C	2.349312	-0.050689	0.000020
C25	C	1.903238	0.179870	0.000012
C26	C	1.923664	0.293322	0.000003
N27	N	1.927799	-0.041947	0.452539
N28	N	1.844721	0.025334	-0.452486
H29	H	2.104628	-0.362752	0.000033
H30	H	2.013918	-0.111668	0.534202
O31	O	1.742197	0.108553	0.449907
C32	C	1.825942	0.173504	0.334136
H33	H	1.940466	0.125023	0.304324
H34	H	1.749702	0.205376	0.193305
H35	H	1.855375	0.242633	0.411158
H36	H	1.420367	-0.132396	0.000017
O37	O	1.338236	0.131537	-0.000251
C38	C	1.227453	0.155873	-0.164966
H39	H	1.201861	0.079293	-0.219865
H40	H	1.112830	0.201038	-0.127940
H41	H	1.278082	0.206967	-0.280283
O42	O	2.241721	-0.541804	-0.000086
C43	C	2.354446	-0.632585	-0.000038
H44	H	2.293630	-0.697163	-0.060234
H45	H	2.450800	-0.611461	-0.092358
H46	H	2.410062	-0.662539	0.152512
O47	O	1.530827	-0.474897	-0.000312
C48	C	1.434013	-0.422187	-0.164960
H49	H	1.511776	-0.398156	-0.280070
H50	H	1.351927	-0.477449	-0.220240
H51	H	1.360050	-0.348335	-0.127713
O52	O	1.568861	-0.264685	-0.000053
C53	C	1.618292	-0.164245	0.000004
H54	H	1.737389	-0.165534	-0.060198
H55	H	1.526443	-0.101758	-0.092305
H56	H	1.631013	-0.144224	0.152558
O57	O	1.644192	-0.658712	0.000090
C58	C	1.655648	-0.769295	0.000025
H59	H	1.780562	-0.808656	0.060216
H60	H	1.566174	-0.801578	0.092340
H61	H	1.629471	-0.787072	-0.152530
O62	O	2.203698	-0.751891	0.000243
C63	C	2.216245	-0.827204	0.164947
H64	H	2.095158	-0.826722	0.219861
H65	H	2.259435	-0.909419	0.127901
H66	H	2.304286	-0.806372	0.280261
