data_functionalizedCrystal
_audit_creation_method	'MofGen! by Chris Wilmer'
_symmetry_space_group_name_H-M	'P1'
_symmetry_Int_Tables_number	1
_symmetry_cell_setting	triclinic
loop_
_symmetry_equiv_pos_as_xyz
  x,y,z
_cell_length_a	11.026607
_cell_length_b	16.109301
_cell_length_c	15.186229
_cell_angle_alpha	90.002208
_cell_angle_beta	90.004485
_cell_angle_gamma	83.976251
loop_
_atom_site_label
_atom_site_type_symbol
_atom_site_fract_x
_atom_site_fract_y
_atom_site_fract_z
O1	O	0.155976	-1.126500	0.073169
O2	O	0.175386	-0.887347	0.073183
O3	O	-0.010964	-0.987103	0.073174
O4	O	0.342326	-1.026744	0.073178
O5	O	-0.010975	-0.987100	-0.073283
O6	O	0.175375	-0.887344	-0.073274
O7	O	0.155965	-1.126497	-0.073288
Zn8	Zn	0.165668	-1.006920	-0.096534
Zn9	Zn	0.165683	-1.006924	0.096429
O10	O	0.342315	-1.026741	-0.073279
C11	C	0.174594	-0.856253	-0.000044
C12	C	0.172237	-0.763604	-0.000039
N13	N	0.165684	-1.006925	0.228122
C14	C	-0.056178	-0.979788	-0.000053
C15	C	-0.190883	-0.957987	-0.000049
C16	C	-0.264713	-1.018183	-0.000051
C17	C	-0.403938	-0.995652	-0.000046
C18	C	0.387529	-1.034056	-0.000050
C19	C	0.522234	-1.055857	-0.000049
C20	C	0.156756	-1.157591	-0.000059
C21	C	0.159114	-1.250240	-0.000059
C22	C	0.277333	-0.557080	-0.000048
C23	C	0.275108	-0.470027	-0.000053
C24	C	0.054010	-0.456769	-0.000052
C25	C	0.056235	-0.543821	-0.000053
C26	C	0.167900	-0.593975	-0.000046
C27	C	0.163450	-0.419869	-0.000051
C28	C	0.161038	-0.325481	-0.000057
C29	C	0.170314	-0.688369	-0.000042
N30	N	0.165657	-1.006924	-0.228227
C31	C	0.083327	-1.051230	0.453841
C32	C	0.083324	-1.051232	0.546031
C33	C	0.248023	-0.962618	0.546047
C34	C	0.248031	-0.962621	0.453859
C35	C	0.165676	-1.006925	0.407759
C36	C	0.165665	-1.006924	0.592136
C37	C	0.165662	-1.006926	0.692092
C38	C	0.165680	-1.006925	0.307796
H39	H	-0.224848	-1.086399	-0.000060
Br40	Br	-0.028434	-1.111368	0.608568
Br41	Br	0.423630	-0.419959	-0.000060
H42	H	0.315072	-0.926545	0.583592
Br43	Br	-0.092291	-0.593898	-0.000062
H44	H	-0.036904	-0.415924	-0.000063
H45	H	0.315095	-0.926543	0.416337
Br46	Br	-0.470362	-0.881946	-0.000027
H47	H	-0.230748	-0.889771	-0.000039
H48	H	0.368257	-0.597913	-0.000049
H49	H	0.016271	-1.087307	0.416308
H50	H	-0.437909	-1.124077	0.000014
