data_functionalizedCrystal
_audit_creation_method	'MofGen! by Chris Wilmer'
_symmetry_space_group_name_H-M	'P1'
_symmetry_Int_Tables_number	1
_symmetry_cell_setting	triclinic
loop_
_symmetry_equiv_pos_as_xyz
  x,y,z
_cell_length_a	10.723022
_cell_length_b	10.723023
_cell_length_c	9.798715
_cell_angle_alpha	89.997861
_cell_angle_beta	89.996609
_cell_angle_gamma	84.467387
loop_
_atom_site_label
_atom_site_type_symbol
_atom_site_fract_x
_atom_site_fract_y
_atom_site_fract_z
O1	O	1.657188	0.175015	-0.113479
O2	O	2.157188	0.675015	0.386521
O3	O	1.294035	0.191771	-0.113483
O4	O	1.794035	0.691771	0.386517
O5	O	1.483989	0.001817	-0.113475
O6	O	1.983989	0.501817	0.386525
O7	O	1.467234	0.364969	-0.113487
O8	O	1.967234	0.864969	0.386513
O9	O	1.483975	0.001816	0.113507
O10	O	1.983975	0.501816	0.613507
O11	O	1.294021	0.191770	0.113499
O12	O	1.794021	0.691770	0.613499
O13	O	1.657174	0.175015	0.113503
O14	O	2.157174	0.675015	0.613503
Zn15	Zn	1.475595	0.183392	0.149539
Zn16	Zn	1.975595	0.683392	0.649539
Zn17	Zn	1.475614	0.183393	-0.149519
Zn18	Zn	1.975614	0.683393	0.350481
O19	O	1.467220	0.364969	0.113495
O20	O	1.967220	0.864969	0.613495
C21	C	1.247529	0.190551	0.000007
C22	C	1.747529	0.690551	0.500007
C23	C	1.108974	0.186904	0.000006
C24	C	1.608974	0.686904	0.500006
C25	C	0.890796	0.289421	-0.000000
C26	C	1.390796	0.789421	0.500000
C27	C	1.033998	0.293192	0.000001
C28	C	1.533998	0.793192	0.500001
C29	C	1.482763	-0.044683	0.000014
C30	C	1.982763	0.455317	0.500014
C31	C	1.479115	-0.183238	0.000010
C32	C	1.979115	0.316762	0.500010
C33	C	1.703681	0.176234	0.000010
C34	C	2.203681	0.676234	0.500010
C35	C	1.842235	0.179881	0.000002
C36	C	2.342235	0.679881	0.500002
C37	C	1.477497	-0.245003	-0.117576
C38	C	1.977497	0.254997	0.382424
C39	C	1.473727	-0.388206	-0.117583
C40	C	1.973727	0.111794	0.382417
C41	C	1.468446	0.411469	0.000003
C42	C	1.968446	0.911469	0.500003
C43	C	1.472094	0.550023	-0.000002
C44	C	1.972094	1.050023	0.499998
N45	N	1.475591	0.183391	0.353639
N46	N	1.975591	0.683391	0.853639
N47	N	1.475627	0.183384	-0.353619
N48	N	1.975627	0.683384	0.146381
C49	C	1.555348	0.103283	0.421419
C50	C	2.055348	0.603283	0.921419
C51	C	1.555368	0.103279	0.578582
C52	C	2.055368	0.603279	1.078582
H53	H	0.826353	0.380409	-0.000012
H54	H	1.326353	0.880409	0.499988
F55	F	1.386352	0.273028	0.429864
F56	F	1.886352	0.773028	0.929864
F57	F	1.471917	-0.457630	-0.249170
F58	F	1.971917	0.042370	0.250830
F59	F	1.473922	-0.380563	0.131591
F60	F	1.973922	0.119437	0.631591
F61	F	1.477270	-0.252685	0.131590
F62	F	1.977270	0.247315	0.631590
F63	F	1.644358	0.013419	0.345194
F64	F	2.144358	0.513419	0.845194
F65	F	1.644627	0.013638	0.654765
F66	F	2.144627	0.513638	1.154765
F67	F	1.386377	0.273041	0.570206
F68	F	1.886377	0.773041	1.070206
H69	H	1.075810	0.386980	0.000007
H70	H	1.575810	0.886980	0.500007
F71	F	1.054337	0.064308	0.000018
F72	F	1.554337	0.564308	0.500018
H73	H	1.478896	-0.191865	-0.218239
H74	H	1.978896	0.308135	0.281761
H75	H	0.906677	0.088892	-0.000003
H76	H	1.406677	0.588892	0.499997
