data_functionalizedCrystal
_audit_creation_method	'MofGen! by Chris Wilmer'
_symmetry_space_group_name_H-M	'P1'
_symmetry_Int_Tables_number	1
_symmetry_cell_setting	triclinic
loop_
_symmetry_equiv_pos_as_xyz
  x,y,z
_cell_length_a	19.077105
_cell_length_b	19.077366
_cell_length_c	19.076919
_cell_angle_alpha	90.104828
_cell_angle_beta	90.076224
_cell_angle_gamma	90.094081
loop_
_atom_site_label
_atom_site_type_symbol
_atom_site_fract_x
_atom_site_fract_y
_atom_site_fract_z
Zn1	Zn	-1.045327	-0.339410	0.426338
Zn2	Zn	-1.045665	-0.452213	0.304152
Zn3	Zn	-0.932903	-0.330011	0.304522
Zn4	Zn	-0.923503	-0.451790	0.416922
O5	O	-0.986850	-0.393356	0.362984
O6	O	-1.143547	-0.358484	0.413916
O7	O	-1.034783	-0.432247	0.206026
O8	O	-0.951609	-0.233084	0.324776
O9	O	-1.143795	-0.441360	0.324147
O10	O	-1.034206	-0.239989	0.414274
O11	O	-0.951937	-0.342465	0.206297
O12	O	-0.833481	-0.342055	0.315646
O13	O	-0.935588	-0.440639	0.516347
O14	O	-0.826575	-0.431526	0.398226
O15	O	-1.025091	-0.358073	0.523265
O16	O	-1.025668	-0.550331	0.315016
O17	O	-0.935916	-0.550020	0.397868
C18	C	-0.979827	-0.575632	0.355396
C19	C	-0.976886	-0.653614	0.352176
C20	C	-0.804572	-0.385725	0.355955
C21	C	-0.726592	-0.382478	0.352964
C22	C	-0.979253	-0.400357	0.545973
C23	C	-0.976016	-0.403341	0.623953
C24	C	-1.169839	-0.401017	0.370041
C25	C	-1.247818	-0.404282	0.373048
C26	C	-0.686380	-0.427600	0.394480
C27	C	-0.613109	-0.424540	0.391674
C28	C	-0.580052	-0.376361	0.347346
C29	C	-0.620270	-0.331234	0.305828
C30	C	-0.693539	-0.334291	0.308639
C31	C	-0.361305	-0.362212	0.334340
C32	C	-0.288030	-0.359160	0.331531
C33	C	-0.280874	-0.452465	0.417378
C34	C	-0.354145	-0.455521	0.420182
C35	C	-0.394356	-0.410392	0.378667
N36	N	-0.505158	-0.373233	0.344475
N37	N	-0.469249	-0.413517	0.381542
C38	C	-0.993919	-0.210370	0.370617
C39	C	-0.996931	-0.132392	0.373870
C40	C	-1.018474	0.306155	0.397240
C41	C	-1.015645	0.232886	0.394176
C42	C	-0.971230	0.199851	0.346043
C43	C	-0.929637	0.240087	0.300977
C44	C	-0.932463	0.313354	0.304046
C45	C	-0.958164	-0.018888	0.331872
C46	C	-0.955342	-0.092160	0.328805
C47	C	-1.041349	-0.099356	0.422005
C48	C	-1.044175	-0.026088	0.425067
C49	C	-1.002579	0.014143	0.380003
N50	N	-0.968339	0.124959	0.342908
N51	N	-1.005467	0.089033	0.383143
C52	C	-0.994459	-0.386333	0.180710
C53	C	-0.997839	-0.383158	0.102744
C54	C	-1.021093	-0.361757	0.664190
C55	C	-1.018043	-0.364557	0.737460
C56	C	-0.969919	-0.408945	0.770491
C57	C	-0.924838	-0.450531	0.730248
C58	C	-0.927885	-0.447726	0.656979
C59	C	-0.955805	-0.421939	0.989233
C60	C	-0.952763	-0.424742	1.062506
C61	C	-1.045967	-0.338767	1.069714
C62	C	-1.049013	-0.335969	0.996444
C63	C	-1.003930	-0.377552	0.956207
N64	N	-0.966801	-0.411810	0.845384
N65	N	-1.007044	-0.374683	0.881315
H66	H	-0.580371	-0.461284	0.425480
H67	H	-0.885652	-0.486670	0.757147
N68	N	-1.058134	0.191781	0.440191
N69	N	-1.055609	0.126365	0.437445
H70	H	-1.085620	0.097333	0.469944
H71	H	-1.088203	-0.299825	0.969555
N72	N	-0.254260	-0.309932	0.286263
N73	N	-0.214069	-0.264513	0.311318
H74	H	-0.190217	-0.229748	0.279349
N75	N	-0.909766	-0.464420	0.948134
N76	N	-0.934417	-0.508593	0.906334
H77	H	-0.901900	-0.538596	0.877303
H78	H	-0.381055	-0.494755	0.456276
H79	H	-0.394036	-0.325470	0.300530
H80	H	-0.898597	0.346110	0.267351
H81	H	-0.891172	-0.481581	0.624219
H82	H	-1.080340	0.000808	0.464260
H83	H	-1.054644	0.333047	0.436432
H84	H	-1.075213	-0.132119	0.458694
H85	H	-0.893471	0.213184	0.261789
H86	H	-0.924296	0.013862	0.295178
H87	H	-0.919171	-0.119055	0.289609
H88	H	-1.060282	-0.325613	0.637302
N89	N	-1.064092	-0.322075	0.778551
N90	N	-1.107060	-0.282450	0.749051
H91	H	-1.139585	-0.252445	0.778071
H92	H	-0.593349	-0.292003	0.269739
N93	N	-1.092012	-0.296299	1.110825
N94	N	-1.089289	-0.298807	1.176242
H95	H	-1.121808	-0.268812	1.205278
N96	N	-0.734619	-0.288191	0.266243
N97	N	-0.728731	-0.223303	0.273390
H98	H	-0.757744	-0.190740	0.243450
N99	N	-0.720132	-0.476825	0.439758
N100	N	-0.684216	-0.517108	0.476822
H101	H	-0.708051	-0.551874	0.508802
N102	N	-0.239800	-0.498567	0.459776
N103	N	-0.198220	-0.540583	0.431592
H104	H	-0.169211	-0.573144	0.461539
N105	N	-0.903577	-0.470066	1.096237
N106	N	-0.863313	-0.507173	1.060304
H107	H	-0.828569	-0.539174	1.084126
