data_functionalizedCrystal
_audit_creation_method	'MofGen! by Chris Wilmer'
_symmetry_space_group_name_H-M	'P1'
_symmetry_Int_Tables_number	1
_symmetry_cell_setting	triclinic
loop_
_symmetry_equiv_pos_as_xyz
  x,y,z
_cell_length_a	12.837939
_cell_length_b	8.965430
_cell_length_c	12.837942
_cell_angle_alpha	90.001010
_cell_angle_beta	94.828790
_cell_angle_gamma	89.996522
loop_
_atom_site_label
_atom_site_type_symbol
_atom_site_fract_x
_atom_site_fract_y
_atom_site_fract_z
O1	O	-1.402335	0.124024	-0.272129
O2	O	-1.099201	0.124030	-0.258686
O3	O	-1.244047	0.124018	-0.113841
O4	O	-1.257490	0.124036	-0.416974
O5	O	-1.244034	-0.124061	-0.113850
O6	O	-1.099189	-0.124049	-0.258696
O7	O	-1.402322	-0.124055	-0.272138
Cu8	Cu	-1.250755	-0.146704	-0.265418
Cu9	Cu	-1.250769	0.146678	-0.265407
O10	O	-1.257477	-0.124043	-0.416984
C11	C	-1.060126	-0.000009	-0.254150
C12	C	-0.943711	-0.000007	-0.240606
N13	N	-1.250752	-0.353053	-0.265426
C14	C	-0.718837	-0.000020	-0.403436
C15	C	-0.609454	-0.000019	-0.390714
C16	C	-0.615562	-0.000015	-0.202443
C17	C	-0.724944	-0.000015	-0.215164
C18	C	-0.776578	-0.000016	-0.315664
C19	C	-0.885962	-0.000006	-0.328384
C20	C	-0.892067	-0.000012	-0.140114
C21	C	-0.782685	-0.000011	-0.127393
C22	C	-1.183741	-0.450353	-0.332385
C23	C	-1.280344	-0.549767	-0.362042
C24	C	-1.154189	-0.549766	-0.235781
C25	C	-1.347408	-0.450278	-0.295135
C26	C	-1.221186	-0.450268	-0.168826
C27	C	-1.317854	-0.549637	-0.198450
C28	C	-0.441398	-0.000015	-0.276675
C29	C	-0.557813	-0.000014	-0.290222
C30	C	-1.239499	-0.000021	-0.074776
C31	C	-1.225954	-0.000018	0.041639
N32	N	-1.250780	0.353028	-0.265391
C33	C	-1.262025	-0.000001	-0.456048
C34	C	-1.275569	0.000006	-0.572463
C35	C	-1.388784	0.000010	0.266513
C36	C	-1.376062	0.000013	0.375896
C37	C	-1.187791	0.000001	0.369788
C38	C	-1.200513	-0.000002	0.260405
C39	C	-1.301012	0.000000	0.208772
C40	C	-1.313733	-0.000013	0.099388
C41	C	-1.125462	-0.000014	0.093282
C42	C	-1.112741	-0.000011	0.202664
H43	H	-0.928001	-0.000009	-0.410215
O44	O	-1.191484	-0.398000	-0.071393
C45	C	-1.238951	-0.252229	0.075050
C46	C	-1.272747	-0.311357	-0.035278
H47	H	-1.304625	-0.182140	0.104274
H48	H	-1.221253	-0.350140	0.130387
H49	H	-1.165912	-0.180545	0.072135
H50	H	-1.345805	-0.383018	-0.032464
H51	H	-1.290376	-0.213379	-0.090570
O52	O	-1.116344	-0.398147	-0.400078
C53	C	-1.094870	-0.250581	-0.553681
C54	C	-1.171296	-0.309576	-0.477082
H55	H	-1.139272	-0.178985	-0.615969
H56	H	-1.031723	-0.180517	-0.509223
H57	H	-1.057040	-0.348671	-0.592598
H58	H	-1.209202	-0.211578	-0.438143
H59	H	-1.234380	-0.379685	-0.521594
H60	H	-0.760878	-0.000019	-0.485266
H61	H	-1.470614	-0.000003	0.224473
O62	O	-1.056680	-0.601719	-0.205995
C63	C	-0.875851	-0.610256	-0.243006
C64	C	-0.986221	-0.551302	-0.276831
H65	H	-0.818859	-0.569544	-0.300271
H66	H	-0.850005	-0.567575	-0.161243
H67	H	-0.877000	-0.737400	-0.242497
H68	H	-0.985159	-0.424162	-0.277404
H69	H	-1.012024	-0.594097	-0.358574
H70	H	-1.447536	0.000025	0.422905
H71	H	-1.305370	-0.593471	-0.443720
O72	O	-1.444817	-0.398345	-0.325372
C73	C	-1.551660	-0.252067	-0.450392
C74	C	-1.441302	-0.310785	-0.416240
H75	H	-1.548851	-0.181237	-0.523850
H76	H	-1.606956	-0.350188	-0.467459
H77	H	-1.580865	-0.181219	-0.385094
H78	H	-1.412001	-0.381609	-0.481497
H79	H	-1.386075	-0.212596	-0.399139
H80	H	-1.374604	-0.592957	-0.141813
H81	H	-1.395564	-0.000017	0.057349
O82	O	-1.015068	-0.000212	0.252706
C83	C	-0.850283	-0.128793	0.281002
C84	C	-0.960861	-0.128731	0.224250
H85	H	-0.806433	-0.232705	0.258034
H86	H	-0.806295	-0.025050	0.257962
H87	H	-0.856289	-0.128713	0.369096
H88	H	-0.954951	-0.128864	0.136146
H89	H	-1.004808	-0.232465	0.247376
H90	H	-1.105969	0.000015	0.411847
O91	O	-1.040113	0.000176	0.037306
C92	C	-0.883120	0.128720	-0.001428
C93	C	-0.979717	0.128683	0.062044
H94	H	-0.834275	0.232622	0.018532
H95	H	-0.834126	0.024967	0.018598
H96	H	-0.909494	0.128640	-0.088471
H97	H	-0.953436	0.128815	0.149104
H98	H	-1.028690	0.232427	0.041929
H99	H	-0.562446	-0.000027	-0.462188
H100	H	-0.740630	-0.000028	-0.045569
O101	O	-0.565508	0.000181	-0.104775
C102	C	-0.537185	0.128749	0.060007
C103	C	-0.593958	0.128695	-0.050562
H104	H	-0.560148	0.232657	0.103863
H105	H	-0.560213	0.025002	0.104000
H106	H	-0.449094	0.128670	0.053984
H107	H	-0.682059	0.128827	-0.044634
H108	H	-0.570844	0.232433	-0.094512
H109	H	-0.939092	0.000001	-0.068643
