data_functionalizedCrystal
_audit_creation_method	'MofGen! by Chris Wilmer'
_symmetry_space_group_name_H-M	'P1'
_symmetry_Int_Tables_number	1
_symmetry_cell_setting	triclinic
loop_
_symmetry_equiv_pos_as_xyz
  x,y,z
_cell_length_a	19.188930
_cell_length_b	15.944551
_cell_length_c	15.021413
_cell_angle_alpha	89.996935
_cell_angle_beta	90.021167
_cell_angle_gamma	83.321759
loop_
_atom_site_label
_atom_site_type_symbol
_atom_site_fract_x
_atom_site_fract_y
_atom_site_fract_z
O1	O	-0.926420	-0.104855	-0.074320
O2	O	-0.676420	0.145145	0.175680
O3	O	-0.426420	0.395145	0.425680
O4	O	-0.176420	0.645145	0.675680
O5	O	-0.723145	-0.118971	-0.074259
O6	O	-0.473145	0.131029	0.175741
O7	O	-0.223145	0.381029	0.425741
O8	O	0.026855	0.631029	0.675741
O9	O	-0.830333	0.010383	-0.074283
O10	O	-0.580333	0.260383	0.175717
O11	O	-0.330333	0.510383	0.425717
O12	O	-0.080333	0.760383	0.675717
O13	O	-0.819231	-0.234209	-0.074296
O14	O	-0.569231	0.015791	0.175704
O15	O	-0.319231	0.265791	0.425704
O16	O	-0.069231	0.515791	0.675704
O17	O	-0.830316	0.010364	0.073781
O18	O	-0.580316	0.260364	0.323781
O19	O	-0.330316	0.510364	0.573781
O20	O	-0.080316	0.760364	0.823781
O21	O	-0.723128	-0.118990	0.073805
O22	O	-0.473128	0.131010	0.323805
O23	O	-0.223128	0.381010	0.573805
O24	O	0.026872	0.631010	0.823805
O25	O	-0.926403	-0.104873	0.073744
O26	O	-0.676403	0.145127	0.323744
O27	O	-0.426403	0.395127	0.573744
O28	O	-0.176403	0.645127	0.823744
Zn29	Zn	-0.824763	-0.111934	0.097283
Zn30	Zn	-0.574763	0.138066	0.347283
Zn31	Zn	-0.324763	0.388066	0.597283
Zn32	Zn	-0.074763	0.638066	0.847283
Zn33	Zn	-0.824785	-0.111910	-0.097798
Zn34	Zn	-0.574785	0.138090	0.152202
Zn35	Zn	-0.324785	0.388090	0.402202
Zn36	Zn	-0.074785	0.638090	0.652202
O37	O	-0.819214	-0.234227	0.073768
O38	O	-0.569214	0.015773	0.323768
O39	O	-0.319214	0.265773	0.573768
O40	O	-0.069214	0.515773	0.823768
C41	C	-0.697124	-0.118524	-0.000219
C42	C	-0.447124	0.131476	0.249781
C43	C	-0.197124	0.381476	0.499781
C44	C	0.052876	0.631476	0.749781
C45	C	-0.619616	-0.117151	-0.000196
C46	C	-0.369616	0.132849	0.249804
C47	C	-0.119616	0.382849	0.499804
C48	C	0.130384	0.632849	0.749804
C49	C	-0.952423	-0.105321	-0.000298
C50	C	-0.702423	0.144679	0.249702
C51	C	-0.452423	0.394679	0.499702
C52	C	-0.202423	0.644679	0.749702
C53	C	-1.029932	-0.106693	-0.000327
C54	C	-0.779932	0.143307	0.249673
C55	C	-0.529932	0.393307	0.499673
C56	C	-0.279932	0.643307	0.749673
C57	C	-0.574889	-0.193052	-0.000214
C58	C	-0.324889	0.056948	0.249786
C59	C	-0.074889	0.306948	0.499786
C60	C	0.175111	0.556948	0.749786
C61	C	-0.502061	-0.191763	-0.000224
C62	C	-0.252061	0.058237	0.249776
C63	C	-0.002061	0.308237	0.499776
C64	C	0.247939	0.558237	0.749776
C65	C	-0.473965	-0.114568	-0.000233
C66	C	-0.223965	0.135432	0.249767
C67	C	0.026035	0.385432	0.499767
C68	C	0.276035	0.635432	0.749767
C69	C	-0.518703	-0.038658	-0.000210
C70	C	-0.268703	0.211342	0.249790
C71	C	-0.018703	0.461342	0.499790
C72	C	0.231297	0.711342	0.749790
C73	C	-0.591528	-0.039949	-0.000192
C74	C	-0.341528	0.210051	0.249808
C75	C	-0.091528	0.460051	0.499808
C76	C	0.158472	0.710051	0.749808
N77	N	-0.365838	-0.055557	-0.050659
N78	N	-0.115838	0.194443	0.199341
N79	N	0.134162	0.444443	0.449341
N80	N	0.384162	0.694443	0.699341
N81	N	-0.296657	-0.054335	-0.050678
N82	N	-0.046657	0.195665	0.199322
N83	N	0.203343	0.445665	0.449322
N84	N	0.453343	0.695665	0.699322
C85	C	-0.254547	-0.110673	-0.000288
C86	C	-0.004547	0.139327	0.249712
C87	C	0.245453	0.389327	0.499712
C88	C	0.495453	0.639327	0.749712
N89	N	-0.284230	-0.168291	0.050112
N90	N	-0.034230	0.081709	0.300112
N91	N	0.215770	0.331709	0.550112
N92	N	0.465770	0.581709	0.800112
N93	N	-0.353418	-0.169515	0.050128
N94	N	-0.103418	0.080485	0.300128
N95	N	0.146582	0.330485	0.550128
N96	N	0.396582	0.580485	0.800128
C97	C	-0.394999	-0.113160	-0.000253
C98	C	-0.144999	0.136840	0.249747
C99	C	0.105001	0.386840	0.499747
C100	C	0.355001	0.636840	0.749747
C101	C	-0.130851	-0.185181	-0.000315
C102	C	0.119149	0.064819	0.249685
C103	C	0.369149	0.314819	0.499685
C104	C	0.619149	0.564819	0.749685
C105	C	-0.058023	-0.183888	-0.000319
C106	C	0.191977	0.066112	0.249681
C107	C	0.441977	0.316112	0.499681
C108	C	0.691977	0.566112	0.749681
C109	C	-0.074666	-0.030781	-0.000315
C110	C	0.175334	0.219219	0.249685
C111	C	0.425334	0.469219	0.499685
C112	C	0.675334	0.719219	0.749685
C113	C	-0.147492	-0.032076	-0.000302
C114	C	0.102508	0.217924	0.249698
C115	C	0.352508	0.467924	0.499698
C116	C	0.602508	0.717924	0.749698
C117	C	-0.175580	-0.109278	-0.000306
C118	C	0.074420	0.140722	0.249694
C119	C	0.324420	0.390722	0.499694
C120	C	0.574420	0.640722	0.749694
C121	C	-0.829864	0.041666	-0.000251
C122	C	-0.579864	0.291666	0.249749
C123	C	-0.329864	0.541666	0.499749
C124	C	-0.079864	0.791666	0.749749
C125	C	-0.828482	0.134906	-0.000250
C126	C	-0.578482	0.384906	0.249750
C127	C	-0.328482	0.634906	0.499750
C128	C	-0.078482	0.884906	0.749750
C129	C	-0.819684	-0.265510	-0.000266
C130	C	-0.569684	-0.015510	0.249734
C131	C	-0.319684	0.234490	0.499734
C132	C	-0.069684	0.484490	0.749734
C133	C	-0.821066	-0.358751	-0.000273
C134	C	-0.571066	-0.108751	0.249727
C135	C	-0.321066	0.141249	0.499727
C136	C	-0.071066	0.391249	0.749727
N137	N	-0.824752	-0.111951	0.230420
N138	N	-0.574752	0.138049	0.480420
N139	N	-0.324752	0.388049	0.730420
N140	N	-0.074752	0.638049	0.980420
C141	C	-0.758739	0.349502	-0.000242
C142	C	-0.508739	0.599502	0.249758
C143	C	-0.258739	0.849502	0.499758
C144	C	-0.008739	1.099502	0.749758
C145	C	-0.791117	0.410631	0.072753
C146	C	-0.541117	0.660631	0.322753
C147	C	-0.291117	0.910631	0.572753
C148	C	-0.041117	1.160631	0.822753
C149	C	-0.825983	0.305623	-0.000256
C150	C	-0.575983	0.555623	0.249744
C151	C	-0.325983	0.805623	0.499744
C152	C	-0.075983	1.055623	0.749744
C153	C	-0.791150	0.410633	-0.073226
C154	C	-0.541150	0.660633	0.176774
C155	C	-0.291150	0.910633	0.426774
C156	C	-0.041150	1.160633	0.676774
C157	C	-0.823563	0.470527	-0.000266
C158	C	-0.573563	0.720527	0.249734
C159	C	-0.323563	0.970527	0.499734
C160	C	-0.073563	1.220527	0.749734
C161	C	-0.858379	0.365524	0.072799
C162	C	-0.608379	0.615524	0.322799
C163	C	-0.358379	0.865524	0.572799
C164	C	-0.108379	1.115524	0.822799
C165	C	-0.858402	0.365519	-0.073246
C166	C	-0.608402	0.615519	0.176754
C167	C	-0.358402	0.865519	0.426754
C168	C	-0.108402	1.115519	0.676754
C169	C	-0.890829	0.426631	-0.000234
C170	C	-0.640829	0.676631	0.249766
C171	C	-0.390829	0.926631	0.499766
C172	C	-0.140829	1.176631	0.749766
C173	C	-0.827374	0.210626	-0.000250
C174	C	-0.577374	0.460626	0.249750
C175	C	-0.327374	0.710626	0.499750
C176	C	-0.077374	0.960626	0.749750
C177	C	-0.822176	0.565522	-0.000266
C178	C	-0.572176	0.815522	0.249734
C179	C	-0.322176	1.065522	0.499734
C180	C	-0.072176	1.315522	0.749734
N181	N	-0.824801	-0.111887	-0.230936
N182	N	-0.574801	0.138113	0.019064
N183	N	-0.324801	0.388113	0.269064
N184	N	-0.074801	0.638113	0.519064
C185	C	-0.775181	-0.171736	0.470115
C186	C	-0.525181	0.078264	0.720115
C187	C	-0.275181	0.328264	0.970115
C188	C	-0.025181	0.578264	1.220115
C189	C	-0.838271	-0.187807	0.529429
C190	C	-0.588271	0.062193	0.779429
C191	C	-0.338271	0.312193	1.029429
C192	C	-0.088271	0.562193	1.279429
C193	C	-0.824770	-0.111929	0.412027
C194	C	-0.574770	0.138071	0.662027
C195	C	-0.324770	0.388071	0.912027
C196	C	-0.074770	0.638071	1.162027
C197	C	-0.761697	-0.095877	0.529455
C198	C	-0.511697	0.154123	0.779455
C199	C	-0.261697	0.404123	1.029455
C200	C	-0.011697	0.654123	1.279455
C201	C	-0.824782	-0.111911	0.587451
C202	C	-0.574782	0.138089	0.837451
C203	C	-0.324782	0.388089	1.087451
C204	C	-0.074782	0.638089	1.337451
C205	C	-0.887892	-0.128038	0.470035
C206	C	-0.637892	0.121962	0.720035
C207	C	-0.387892	0.371962	0.970035
C208	C	-0.137892	0.621962	1.220035
C209	C	-0.811277	-0.036076	0.470056
C210	C	-0.561277	0.213924	0.720056
C211	C	-0.311277	0.463924	0.970056
C212	C	-0.061277	0.713924	1.220056
C213	C	-0.874413	-0.052114	0.529343
C214	C	-0.624413	0.197886	0.779343
C215	C	-0.374413	0.447886	1.029343
C216	C	-0.124413	0.697886	1.279343
C217	C	-0.824763	-0.111942	0.310970
C218	C	-0.574763	0.138058	0.560970
C219	C	-0.324763	0.388058	0.810970
C220	C	-0.074763	0.638058	1.060970
C221	C	-0.824797	-0.111898	0.688507
C222	C	-0.574797	0.138102	0.938507
C223	C	-0.324797	0.388102	1.188507
C224	C	-0.074797	0.638102	1.438507
H225	H	-0.597753	-0.255916	-0.000219
H226	H	-0.347753	-0.005916	0.249781
H227	H	-0.097753	0.244084	0.499781
H228	H	0.152247	0.494084	0.749781
H229	H	-0.465637	-0.253572	-0.000236
H230	H	-0.215637	-0.003572	0.249764
H231	H	0.034363	0.246428	0.499764
H232	H	0.284363	0.496428	0.749764
F233	F	-0.488800	0.043498	-0.000216
F234	F	-0.238800	0.293498	0.249784
F235	F	0.011200	0.543498	0.499784
F236	F	0.261200	0.793498	0.749784
H237	H	-0.051791	0.032072	-0.000378
H238	H	0.198209	0.282072	0.249622
H239	H	0.448209	0.532072	0.499622
H240	H	0.698209	0.782072	0.749622
H241	H	-0.708353	-0.082309	0.555557
H242	H	-0.458353	0.167691	0.805557
H243	H	-0.208353	0.417691	1.055557
H244	H	0.041647	0.667691	1.305557
H245	H	-0.762707	0.430611	-0.134942
H246	H	-0.512707	0.680611	0.115058
H247	H	-0.262707	0.930611	0.365058
H248	H	-0.012707	1.180611	0.615058
H249	H	-0.941248	-0.141684	0.444045
H250	H	-0.691248	0.108316	0.694045
H251	H	-0.441248	0.358316	0.944045
H252	H	-0.191248	0.608316	1.194045
H253	H	-0.021605	-0.245698	-0.000328
H254	H	0.228395	0.004302	0.249672
H255	H	0.478395	0.254302	0.499672
H256	H	0.728395	0.504302	0.749672
H257	H	-0.627946	0.021860	-0.000178
H258	H	-0.377946	0.271860	0.249822
H259	H	-0.127946	0.521860	0.499822
H260	H	0.122054	0.771860	0.749822
F261	F	-0.685785	0.305695	-0.000129
F262	F	-0.435785	0.555695	0.249871
F263	F	-0.185785	0.805695	0.499871
F264	F	0.064215	1.055695	0.749871
H265	H	-0.733287	-0.222353	0.444109
H266	H	-0.483287	0.027647	0.694109
H267	H	-0.233287	0.277647	0.944109
H268	H	0.016713	0.527647	1.194109
F269	F	-0.929291	0.014006	0.563127
F270	F	-0.679291	0.264006	0.813127
F271	F	-0.429291	0.514006	1.063127
F272	F	-0.179291	0.764006	1.313127
F273	F	-0.195097	0.048709	-0.000287
F274	F	0.054903	0.298709	0.249713
F275	F	0.304903	0.548709	0.499713
F276	F	0.554903	0.798709	0.749713
H277	H	-0.153721	-0.248043	-0.000305
H278	H	0.096279	0.001957	0.249695
H279	H	0.346279	0.251957	0.499695
H280	H	0.596279	0.501957	0.749695
H281	H	-0.762669	0.430626	0.134481
H282	H	-0.512669	0.680626	0.384481
H283	H	-0.262669	0.930626	0.634481
H284	H	-0.012669	1.180626	0.884481
F285	F	-0.895516	0.339528	0.153548
F286	F	-0.645516	0.589528	0.403548
F287	F	-0.395516	0.839528	0.653548
F288	F	-0.145516	1.089528	0.903548
H289	H	-0.946693	0.459999	-0.000209
H290	H	-0.696693	0.709999	0.249791
H291	H	-0.446693	0.959999	0.499791
H292	H	-0.196693	1.209999	0.749791
H293	H	-0.886826	0.345503	-0.134978
H294	H	-0.636826	0.595503	0.115022
H295	H	-0.386826	0.845503	0.365022
H296	H	-0.136826	1.095503	0.615022
F297	F	-0.853203	-0.271641	0.563518
F298	F	-0.603203	-0.021641	0.813518
F299	F	-0.353203	0.228359	1.063518
F300	F	-0.103203	0.478359	1.313518
H301	H	-0.799834	0.028043	0.443955
H302	H	-0.549834	0.278043	0.693955
H303	H	-0.299834	0.528043	0.943955
H304	H	-0.049834	0.778043	1.193955
