data_functionalizedCrystal
_audit_creation_method	'MofGen! by Chris Wilmer'
_symmetry_space_group_name_H-M	'P1'
_symmetry_Int_Tables_number	1
_symmetry_cell_setting	triclinic
loop_
_symmetry_equiv_pos_as_xyz
  x,y,z
_cell_length_a	15.944551
_cell_length_b	15.944545
_cell_length_c	15.021413
_cell_angle_alpha	90.002227
_cell_angle_beta	89.996338
_cell_angle_gamma	96.502545
loop_
_atom_site_label
_atom_site_type_symbol
_atom_site_fract_x
_atom_site_fract_y
_atom_site_fract_z
O1	O	-0.108312	1.114528	0.073965
O2	O	0.141688	1.364528	0.323965
O3	O	0.391688	1.614528	0.573965
O4	O	0.641688	1.864528	0.823965
O5	O	-0.121673	0.869977	0.073978
O6	O	0.128327	1.119977	0.323978
O7	O	0.378327	1.369977	0.573978
O8	O	0.628327	1.619977	0.823978
O9	O	0.007283	0.998930	0.073976
O10	O	0.257283	1.248930	0.323976
O11	O	0.507283	1.498930	0.573976
O12	O	0.757283	1.748930	0.823976
O13	O	-0.237267	0.985574	0.073966
O14	O	0.012733	1.235574	0.323966
O15	O	0.262733	1.485574	0.573966
O16	O	0.512733	1.735574	0.823966
O17	O	0.007296	0.998919	-0.074088
O18	O	0.257296	1.248919	0.175912
O19	O	0.507296	1.498919	0.425912
O20	O	0.757296	1.748919	0.675912
O21	O	-0.121660	0.869966	-0.074086
O22	O	0.128340	1.119966	0.175914
O23	O	0.378340	1.369966	0.425914
O24	O	0.628340	1.619966	0.675914
O25	O	-0.108298	1.114516	-0.074100
O26	O	0.141702	1.364516	0.175900
O27	O	0.391702	1.614516	0.425900
O28	O	0.641702	1.864516	0.675900
Zn29	Zn	-0.114977	0.992239	-0.097601
Zn30	Zn	0.135023	1.242239	0.152399
Zn31	Zn	0.385023	1.492239	0.402399
Zn32	Zn	0.635023	1.742239	0.652399
Zn33	Zn	-0.114995	0.992254	0.097480
Zn34	Zn	0.135005	1.242254	0.347480
Zn35	Zn	0.385005	1.492254	0.597480
Zn36	Zn	0.635005	1.742254	0.847480
O37	O	-0.237254	0.985563	-0.074098
O38	O	0.012746	1.235563	0.175902
O39	O	0.262746	1.485563	0.425902
O40	O	0.512746	1.735563	0.675902
C41	C	-0.121113	0.838677	-0.000052
C42	C	0.128887	1.088677	0.249948
C43	C	0.378887	1.338677	0.499948
C44	C	0.628887	1.588677	0.749948
C45	C	-0.119453	0.745431	-0.000047
C46	C	0.130547	0.995431	0.249953
C47	C	0.380547	1.245431	0.499953
C48	C	0.630547	1.495431	0.749953
C49	C	-0.034559	0.474798	-0.000053
C50	C	0.215441	0.724798	0.249947
C51	C	0.465441	0.974798	0.499947
C52	C	0.715441	1.224798	0.749947
C53	C	-0.075481	0.525374	-0.073060
C54	C	0.174519	0.775374	0.176940
C55	C	0.424519	1.025374	0.426940
C56	C	0.674519	1.275374	0.676940
C57	C	-0.113532	0.409787	-0.000062
C58	C	0.136468	0.659787	0.249938
C59	C	0.386468	0.909787	0.499938
C60	C	0.636468	1.159787	0.749938
C61	C	-0.075516	0.525366	0.072920
C62	C	0.174484	0.775366	0.322920
C63	C	0.424484	1.025366	0.572920
C64	C	0.674484	1.275366	0.822920
C65	C	-0.116437	0.574701	-0.000053
C66	C	0.133563	0.824701	0.249947
C67	C	0.383563	1.074701	0.499947
C68	C	0.633563	1.324701	0.749947
C69	C	-0.154433	0.459135	-0.073129
C70	C	0.095567	0.709135	0.176871
C71	C	0.345567	0.959135	0.426871
C72	C	0.595567	1.209135	0.676871
C73	C	-0.154456	0.459123	0.072916
C74	C	0.095544	0.709123	0.322916
C75	C	0.345544	0.959123	0.572916
C76	C	0.595544	1.209123	0.822916
C77	C	-0.195436	0.509667	-0.000109
C78	C	0.054564	0.759667	0.249891
C79	C	0.304564	1.009667	0.499891
C80	C	0.554564	1.259667	0.749891
C81	C	-0.111856	0.314785	-0.000068
C82	C	0.138144	0.564785	0.249932
C83	C	0.388144	0.814785	0.499932
C84	C	0.638144	1.064785	0.749932
C85	C	-0.118119	0.669700	-0.000054
C86	C	0.131881	0.919700	0.249946
C87	C	0.381881	1.169700	0.499946
C88	C	0.631881	1.419700	0.749946
C89	C	-0.268555	0.986123	-0.000067
C90	C	-0.018555	1.236123	0.249933
C91	C	0.231445	1.486123	0.499933
C92	C	0.481445	1.736123	0.749933
C93	C	-0.361801	0.987785	-0.000071
C94	C	-0.111801	1.237785	0.249929
C95	C	0.138199	1.487785	0.499929
C96	C	0.388199	1.737785	0.749929
C97	C	-0.576656	1.071690	-0.000062
C98	C	-0.326656	1.321690	0.249938
C99	C	-0.076656	1.571690	0.499938
C100	C	0.173344	1.821690	0.749938
C101	C	-0.637666	1.032722	-0.073064
C102	C	-0.387666	1.282722	0.176936
C103	C	-0.137666	1.532722	0.426936
C104	C	0.112334	1.782722	0.676936
C105	C	-0.532527	0.990793	-0.000063
C106	C	-0.282527	1.240793	0.249937
C107	C	-0.032527	1.490793	0.499937
C108	C	0.217473	1.740793	0.749937
C109	C	-0.637665	1.032714	0.072916
C110	C	-0.387665	1.282714	0.322916
C111	C	-0.137665	1.532714	0.572916
C112	C	0.112335	1.782714	0.822916
C113	C	-0.697439	0.993703	-0.000052
C114	C	-0.447439	1.243703	0.249948
C115	C	-0.197439	1.493703	0.499948
C116	C	0.052561	1.743703	0.749948
C117	C	-0.592309	0.951802	-0.073125
C118	C	-0.342309	1.201802	0.176875
C119	C	-0.092309	1.451802	0.426875
C120	C	0.157691	1.701802	0.676875
C121	C	-0.592301	0.951806	0.072920
C122	C	-0.342301	1.201806	0.322920
C123	C	-0.092301	1.451806	0.572920
C124	C	0.157699	1.701806	0.822920
C125	C	-0.653294	0.912779	-0.000100
C126	C	-0.403294	1.162779	0.249900
C127	C	-0.153294	1.412779	0.499900
C128	C	0.096706	1.662779	0.749900
C129	C	-0.437524	0.989118	-0.000070
C130	C	-0.187524	1.239118	0.249930
C131	C	0.062476	1.489118	0.499930
C132	C	0.312476	1.739118	0.749930
C133	C	-0.792440	0.995372	-0.000051
C134	C	-0.542440	1.245372	0.249949
C135	C	-0.292440	1.495372	0.499949
C136	C	-0.042440	1.745372	0.749949
C137	C	0.038583	0.998370	-0.000053
C138	C	0.288583	1.248370	0.249947
C139	C	0.538583	1.498370	0.499947
C140	C	0.788583	1.748370	0.749947
C141	C	0.131829	0.996708	-0.000043
C142	C	0.381829	1.246708	0.249957
C143	C	0.631829	1.496708	0.499957
C144	C	0.881829	1.746708	0.749957
C145	C	-0.108859	1.145816	-0.000067
C146	C	0.141141	1.395816	0.249933
C147	C	0.391141	1.645816	0.499933
C148	C	0.641141	1.895816	0.749933
C149	C	-0.110519	1.239062	-0.000067
C150	C	0.139481	1.489062	0.249933
C151	C	0.389481	1.739062	0.499933
C152	C	0.639481	1.989062	0.749933
N153	N	-0.114965	0.992235	-0.230739
N154	N	0.135035	1.242235	0.019261
N155	N	0.385035	1.492235	0.269261
N156	N	0.635035	1.742235	0.519261
C157	C	-0.054862	1.051417	-0.529731
C158	C	0.195138	1.301417	-0.279731
C159	C	0.445138	1.551417	-0.029731
C160	C	0.695138	1.801417	0.220269
C161	C	-0.130532	1.068404	-0.470368
C162	C	0.119468	1.318404	-0.220368
C163	C	0.369468	1.568404	0.029632
C164	C	0.619468	1.818404	0.279632
C165	C	-0.114990	0.992255	-0.587776
C166	C	0.135010	1.242255	-0.337776
C167	C	0.385010	1.492255	-0.087776
C168	C	0.635010	1.742255	0.162224
C169	C	-0.039310	0.975298	-0.470397
C170	C	0.210690	1.225298	-0.220397
C171	C	0.460690	1.475298	0.029603
C172	C	0.710690	1.725298	0.279603
C173	C	-0.114973	0.992248	-0.412352
C174	C	0.135027	1.242248	-0.162352
C175	C	0.385027	1.492248	0.087648
C176	C	0.635027	1.742248	0.337648
C177	C	-0.190698	1.009280	-0.529720
C178	C	0.059302	1.259280	-0.279720
C179	C	0.309302	1.509280	-0.029720
C180	C	0.559302	1.759280	0.220280
C181	C	-0.099426	0.916141	-0.529753
C182	C	0.150574	1.166141	-0.279753
C183	C	0.400574	1.416141	-0.029753
C184	C	0.650574	1.666141	0.220247
C185	C	-0.175151	0.933096	-0.470417
C186	C	0.074849	1.183096	-0.220417
C187	C	0.324849	1.433096	0.029583
C188	C	0.574849	1.683096	0.279583
C189	C	-0.114998	0.992262	-0.688833
C190	C	0.135002	1.242262	-0.438833
C191	C	0.385002	1.492262	-0.188833
C192	C	0.635002	1.742262	0.061167
C193	C	-0.114974	0.992240	-0.311297
C194	C	0.135026	1.242240	-0.061297
C195	C	0.385026	1.492240	0.188703
C196	C	0.635026	1.742240	0.438703
N197	N	-0.115000	0.992265	0.230617
N198	N	0.135000	1.242265	0.480617
N199	N	0.385000	1.492265	0.730617
N200	N	0.635000	1.742265	0.980617
H201	H	-0.042124	0.554301	-0.134779
H202	H	0.207876	0.804301	0.115221
H203	H	0.457876	1.054301	0.365221
H204	H	0.707876	1.304301	0.615221
H205	H	-0.254708	1.023689	-0.555669
H206	H	-0.004708	1.273689	-0.305669
H207	H	0.245292	1.523689	-0.055669
H208	H	0.495292	1.773689	0.194331
F209	F	-0.031913	0.563171	0.153589
F210	F	0.218087	0.813171	0.403589
F211	F	0.468087	1.063171	0.653589
F212	F	0.718087	1.313171	0.903589
H213	H	0.033453	0.459145	-0.000121
H214	H	0.283453	0.709145	0.249879
H215	H	0.533453	0.959145	0.499879
H216	H	0.783453	1.209145	0.749879
H217	H	-0.543348	1.138839	-0.000137
H218	H	-0.293348	1.388839	0.249863
H219	H	-0.043348	1.638839	0.499863
H220	H	0.206652	1.888839	0.749863
F221	F	-0.198019	0.421292	0.153590
F222	F	0.051981	0.671292	0.403590
F223	F	0.301981	0.921292	0.653590
F224	F	0.551981	1.171292	0.903590
H225	H	-0.686454	0.845571	-0.000137
H226	H	-0.436454	1.095571	0.249863
H227	H	-0.186454	1.345571	0.499863
H228	H	0.063546	1.595571	0.749863
H229	H	-0.226048	0.883059	-0.444538
H230	H	0.023952	1.133059	-0.194538
H231	H	0.273952	1.383059	0.055462
H232	H	0.523952	1.633059	0.305462
H233	H	-0.657767	1.066933	-0.134786
H234	H	-0.407767	1.316933	0.115214
H235	H	-0.157767	1.566933	0.365214
H236	H	0.092233	1.816933	0.615214
F237	F	-0.663932	1.077462	0.153580
F238	F	-0.413932	1.327462	0.403580
F239	F	-0.163932	1.577462	0.653580
F240	F	0.086068	1.827462	0.903580
H241	H	-0.187755	0.430321	-0.134917
H242	H	0.062245	0.680321	0.115083
H243	H	0.312245	0.930321	0.365083
H244	H	0.562245	1.180321	0.615083
F245	F	-0.565997	0.907126	0.153598
F246	F	-0.315997	1.157126	0.403598
F247	F	-0.065997	1.407126	0.653598
F248	F	0.184003	1.657126	0.903598
H249	H	-0.004077	1.101484	-0.555773
H250	H	0.245923	1.351484	-0.305773
H251	H	0.495923	1.601484	-0.055773
H252	H	0.745923	1.851484	0.194227
F253	F	-0.566176	0.907110	-0.153884
F254	F	-0.316176	1.157110	0.096116
F255	F	-0.066176	1.407110	0.346116
F256	F	0.183824	1.657110	0.596116
F257	F	-0.147727	1.152529	-0.436254
F258	F	0.102273	1.402529	-0.186254
F259	F	0.352273	1.652529	0.063746
F260	F	0.602273	1.902529	0.313746
F261	F	-0.082190	0.832037	-0.563875
F262	F	0.167810	1.082037	-0.313875
F263	F	0.417810	1.332037	-0.063875
F264	F	0.667810	1.582037	0.186125
H265	H	0.024685	0.960958	-0.444337
H266	H	0.274685	1.210958	-0.194337
H267	H	0.524685	1.460958	0.055663
H268	H	0.774685	1.710958	0.305663
F269	F	-0.284402	0.529915	-0.000163
F270	F	-0.034402	0.779915	0.249837
F271	F	0.215598	1.029915	0.499837
F272	F	0.465598	1.279915	0.749837
