data_functionalizedCrystal
_audit_creation_method	'MofGen! by Chris Wilmer'
_symmetry_space_group_name_H-M	'P1'
_symmetry_Int_Tables_number	1
_symmetry_cell_setting	triclinic
loop_
_symmetry_equiv_pos_as_xyz
  x,y,z
_cell_length_a	29.839134
_cell_length_b	29.839131
_cell_length_c	19.805398
_cell_angle_alpha	90.030591
_cell_angle_beta	90.012116
_cell_angle_gamma	90.021992
loop_
_atom_site_label
_atom_site_type_symbol
_atom_site_fract_x
_atom_site_fract_y
_atom_site_fract_z
Zn1	Zn	0.686719	-0.179092	0.382692
Zn2	Zn	0.686651	-0.254221	0.269500
Zn3	Zn	0.611602	-0.179080	0.269519
Zn4	Zn	0.611550	-0.254170	0.382649
O5	O	0.649131	-0.216641	0.326090
O6	O	0.749577	-0.189084	0.367687
O7	O	0.676690	-0.244270	0.174786
O8	O	0.621617	-0.116215	0.284557
O9	O	0.749528	-0.244281	0.284525
O10	O	0.676805	-0.116223	0.367705
O11	O	0.621551	-0.189064	0.174799
O12	O	0.548728	-0.189015	0.284515
O13	O	0.621528	-0.244195	0.477371
O14	O	0.548690	-0.244183	0.367631
O15	O	0.676754	-0.189035	0.477403
O16	O	0.676639	-0.317081	0.284483
O17	O	0.621462	-0.317044	0.367613
C18	C	0.532408	-0.216593	0.326071
C19	C	0.482474	-0.216583	0.326079
C20	C	0.125908	-0.187960	0.369477
C21	C	0.313581	-0.187924	0.369462
O22	O	0.337864	-0.163530	0.406357
N23	N	0.337028	-0.216612	0.326095
C24	C	0.313555	-0.245314	0.282732
O25	O	0.337804	-0.269718	0.245851
C26	C	0.125882	-0.245352	0.282752
C27	C	0.102438	-0.216659	0.326116
C28	C	0.102463	-0.159269	0.412839
C29	C	0.055548	-0.159276	0.412840
C30	C	0.032077	-0.187975	0.369479
C31	C	0.055522	-0.216666	0.326117
C32	C	0.102409	-0.274056	0.239393
C33	C	0.055488	-0.274064	0.239403
C34	C	0.032043	-0.245370	0.282767
C35	C	-0.014864	-0.245372	0.282757
N36	N	-0.038311	-0.216684	0.326124
C37	C	-0.014841	-0.187985	0.369485
C38	C	0.412085	-0.245292	0.282724
C39	C	0.459003	-0.245282	0.282718
C40	C	0.459027	-0.187892	0.369449
C41	C	0.412108	-0.187900	0.369451
C42	C	0.388638	-0.216603	0.326091
C43	C	-0.113366	-0.188003	0.369483
C44	C	-0.160286	-0.188012	0.369478
C45	C	-0.160305	-0.245403	0.282750
C46	C	-0.113390	-0.245393	0.282752
C47	C	-0.089922	-0.216691	0.326124
O48	O	-0.039176	-0.269757	0.245886
O49	O	-0.039098	-0.163592	0.406371
C50	C	0.172824	-0.187952	0.369476
C51	C	0.196268	-0.216643	0.326115
C52	C	0.172798	-0.245342	0.282754
C53	C	0.243186	-0.216633	0.326109
C54	C	0.266657	-0.187935	0.369470
C55	C	0.243210	-0.159246	0.412836
C56	C	0.196294	-0.159253	0.412837
C57	C	0.196245	-0.274031	0.239387
C58	C	0.243160	-0.274021	0.239389
C59	C	0.266631	-0.245322	0.282750
C60	C	0.649049	-0.333364	0.326056
C61	C	0.649056	-0.383298	0.326064
C62	C	0.677913	-0.692948	0.282867
C63	C	0.677969	-0.880621	0.282893
O64	O	0.702440	-0.904892	0.246140
N65	N	0.649224	-0.904083	0.326141
C66	C	0.620465	-0.880624	0.369388
O67	O	0.596020	-0.904886	0.406178
C68	C	0.620412	-0.692952	0.369364
C69	C	0.649156	-0.669492	0.326109
C70	C	0.706655	-0.669489	0.239616
C71	C	0.706639	-0.622573	0.239608
C72	C	0.677882	-0.599117	0.282850
C73	C	0.649140	-0.622577	0.326101
C74	C	0.591656	-0.669493	0.412614
C75	C	0.591646	-0.622572	0.412606
C76	C	0.620390	-0.599113	0.369351
C77	C	0.620366	-0.552205	0.369334
N78	N	0.649111	-0.528743	0.326087
C79	C	0.677869	-0.552199	0.282845
C80	C	0.620494	-0.979154	0.369396
C81	C	0.620507	-1.026072	0.369401
C82	C	0.678011	-1.026066	0.282908
C83	C	0.677996	-0.979148	0.282900
C84	C	0.649239	-0.955692	0.326149
C85	C	0.677833	-0.453673	0.282829
C86	C	0.677814	-0.406754	0.282822
C87	C	0.620311	-0.406764	0.369318
C88	C	0.620329	-0.453679	0.369323
C89	C	0.649093	-0.477133	0.326076
O90	O	0.595911	-0.527906	0.406074
O91	O	0.702317	-0.527929	0.246071
C92	C	0.677929	-0.739864	0.282876
C93	C	0.649187	-0.763323	0.326127
C94	C	0.620430	-0.739867	0.369369
C95	C	0.649200	-0.810241	0.326132
C96	C	0.677958	-0.833697	0.282890
C97	C	0.706703	-0.810235	0.239643
C98	C	0.706687	-0.763319	0.239634
C99	C	0.591685	-0.763329	0.412616
C100	C	0.591703	-0.810244	0.412621
C101	C	0.620460	-0.833700	0.369379
C102	C	0.766309	-0.216690	0.326109
C103	C	0.816243	-0.216710	0.326117
C104	C	0.649143	-0.216611	0.502632
C105	C	0.649148	-0.216598	0.577865
C106	C	0.649224	-0.099463	0.326138
C107	C	0.649264	-0.049528	0.326159
C108	C	0.649144	-0.216639	0.150234
C109	C	0.649226	-0.216525	0.075002
C110	C	0.677929	-0.245272	1.039646
C111	C	0.677917	-0.245284	0.968958
C112	C	0.649204	-0.216547	0.933626
C113	C	0.620498	-0.187799	0.968987
C114	C	0.620508	-0.187790	1.039675
C115	C	0.620454	-0.187838	0.683914
C116	C	0.620447	-0.187848	0.613222
C117	C	0.677863	-0.245332	0.613197
C118	C	0.677873	-0.245322	0.683884
C119	C	0.649166	-0.216576	0.719239
C120	C	0.649179	-0.216564	0.795887
C121	C	0.649192	-0.216557	0.856979
H122	H	0.121490	-0.297422	0.204080
C123	C	0.709435	-0.380950	0.235240
C124	C	0.689984	-0.348734	0.182063
C125	C	0.721605	-0.322932	0.134483
C126	C	0.772676	-0.329345	0.140081
C127	C	0.792129	-0.361562	0.193260
C128	C	0.760508	-0.387365	0.240840
H129	H	0.652176	-0.343985	0.177918
H130	H	0.707204	-0.299082	0.095117
H131	H	0.796083	-0.310245	0.104859
H132	H	0.829937	-0.366311	0.197405
H133	H	0.774909	-0.411214	0.280207
H134	H	0.597136	-0.164381	1.068460
H135	H	0.392980	-0.268666	0.247413
H136	H	0.478088	-0.268642	0.247399
H137	H	-0.179373	-0.164644	0.404791
H138	H	0.568267	-0.744235	0.447830
C139	C	0.709492	-0.276904	0.930066
C140	C	0.741079	-0.308511	0.968928
C141	C	0.772655	-0.340133	0.930037
C142	C	0.772644	-0.340148	0.852283
C143	C	0.741056	-0.308540	0.813417
C144	C	0.709480	-0.276918	0.852309
H145	H	0.741088	-0.308500	1.026489
H146	H	0.796039	-0.363531	0.958808
H147	H	0.796019	-0.363557	0.823494
H148	H	0.741047	-0.308551	0.755856
H149	H	0.686096	-0.253520	0.823537
C150	C	0.709438	-0.276959	0.574307
C151	C	0.705735	-0.328027	0.584010
C152	C	0.737311	-0.359652	0.545123
C153	C	0.772590	-0.340209	0.496534
C154	C	0.776295	-0.289138	0.486829
C155	C	0.744719	-0.257513	0.525716
H156	H	0.679618	-0.342422	0.619980
H157	H	0.734568	-0.397458	0.552307
H158	H	0.795964	-0.363620	0.467747
H159	H	0.802412	-0.274743	0.450859
H160	H	0.747462	-0.219707	0.518532
H161	H	0.701313	-0.268671	1.068408
C162	C	0.170510	-0.127692	0.460545
C163	C	0.176981	-0.131425	0.537478
C164	C	0.151201	-0.099862	0.585191
C165	C	0.118950	-0.064567	0.555970
C166	C	0.112478	-0.060833	0.479033
C167	C	0.138258	-0.092396	0.431321
H168	H	0.200857	-0.157554	0.559113
H169	H	0.155993	-0.102627	0.642145
H170	H	0.099867	-0.041203	0.591290
H171	H	0.088603	-0.034704	0.457399
H172	H	0.133466	-0.089631	0.374367
H173	H	0.701256	-0.268721	0.712647
C174	C	0.588858	-0.156239	0.574356
C175	C	0.557279	-0.124620	0.613242
C176	C	0.525692	-0.093012	0.574376
C177	C	0.525684	-0.093022	0.496623
C178	C	0.557264	-0.124642	0.457732
C179	C	0.588851	-0.156250	0.496598
H180	H	0.557284	-0.124612	0.670804
H181	H	0.502314	-0.069606	0.603166
H182	H	0.502301	-0.069624	0.467851
H183	H	0.557259	-0.124650	0.400170
H184	H	0.612228	-0.179657	0.467808
H185	H	0.262245	-0.297386	0.204070
H186	H	0.262328	-0.135877	0.448140
C187	C	0.588882	-0.156211	0.722795
C188	C	0.537806	-0.159852	0.713067
C189	C	0.506233	-0.128222	0.751950
C190	C	0.525736	-0.092951	0.800560
C191	C	0.576814	-0.089309	0.810290
C192	C	0.608387	-0.120939	0.771407
H193	H	0.523367	-0.185963	0.677081
H194	H	0.468421	-0.130918	0.744747
H195	H	0.502364	-0.069537	0.829343
H196	H	0.591254	-0.063198	0.846276
H197	H	0.646199	-0.118243	0.778610
H198	H	0.597117	-0.164403	0.940215
C199	C	0.029672	-0.305637	0.191702
C200	C	0.036113	-0.301907	0.114767
C201	C	0.010297	-0.333479	0.067066
C202	C	-0.021959	-0.368781	0.096300
C203	C	-0.028402	-0.372512	0.173240
C204	C	-0.002587	-0.340941	0.220941
H205	H	0.059993	-0.275773	0.093122
H206	H	0.015067	-0.330716	0.010110
H207	H	-0.041070	-0.392152	0.060989
H208	H	-0.052282	-0.398646	0.194884
H209	H	-0.007356	-0.343703	0.277896
H210	H	-0.179424	-0.268767	0.247444
C211	C	-0.087555	-0.156429	0.417187
C212	C	-0.093999	-0.160155	0.494122
C213	C	-0.068188	-0.128579	0.541822
C214	C	-0.035933	-0.093276	0.512586
C215	C	-0.029487	-0.089548	0.435647
C216	C	-0.055298	-0.121125	0.387947
H217	H	-0.117878	-0.186289	0.515768
H218	H	-0.072960	-0.131338	0.598777
H219	H	-0.016825	-0.069902	0.547896
H220	H	-0.005608	-0.063414	0.414001
H221	H	-0.050527	-0.118365	0.330992
H222	H	0.393022	-0.164534	0.404761
C223	C	0.738291	-0.695284	0.192043
C224	C	0.734655	-0.688857	0.115094
C225	C	0.766291	-0.714649	0.067513
C226	C	0.801563	-0.746867	0.096880
C227	C	0.805202	-0.753295	0.173833
C228	C	0.773566	-0.727504	0.221414
H229	H	0.708542	-0.665007	0.093351
H230	H	0.763597	-0.709890	0.010547
H231	H	0.824982	-0.765959	0.061658
H232	H	0.831314	-0.777146	0.195576
H233	H	0.776259	-0.732262	0.278380
C234	C	0.170432	-0.305600	0.191683
C235	C	0.176879	-0.301864	0.114750
C236	C	0.151070	-0.333435	0.067039
C237	C	0.118813	-0.368741	0.096262
C238	C	0.112365	-0.372478	0.173200
C239	C	0.138174	-0.340908	0.220910
H240	H	0.200759	-0.275727	0.093113
H241	H	0.155843	-0.330668	0.010085
H242	H	0.099707	-0.392111	0.060944
H243	H	0.088485	-0.398615	0.194836
H244	H	0.133401	-0.343675	0.277865
C245	C	0.709472	-0.479468	0.235254
C246	C	0.705833	-0.473047	0.158304
C247	C	0.737468	-0.498842	0.110726
C248	C	0.772741	-0.531058	0.140097
C249	C	0.776381	-0.537481	0.217051
C250	C	0.744746	-0.511686	0.264629
H251	H	0.679721	-0.449197	0.136559
H252	H	0.734774	-0.494087	0.053760
H253	H	0.796160	-0.550153	0.104876
H254	H	0.802494	-0.561330	0.238796
H255	H	0.747440	-0.516441	0.321595
H256	H	0.730046	-0.603475	0.204388
C257	C	0.738338	-0.836042	0.192076
C258	C	0.734709	-0.829635	0.115123
C259	C	0.766344	-0.855445	0.067563
C260	C	0.801607	-0.887663	0.096956
C261	C	0.805237	-0.894072	0.173913
C262	C	0.773602	-0.868262	0.221474
H263	H	0.708604	-0.805784	0.093361
H264	H	0.763656	-0.850700	0.010594
H265	H	0.825025	-0.906769	0.061749
H266	H	0.831342	-0.917923	0.195676
H267	H	0.776290	-0.873007	0.278442
C268	C	0.709648	-1.051873	0.235343
C269	C	0.709660	-1.103481	0.235358
C270	C	0.741297	-1.129290	0.187801
C271	C	0.772922	-1.103492	0.140229
C272	C	0.772911	-1.051881	0.140213
C273	C	0.741274	-1.026072	0.187770
H274	H	0.686248	-1.122581	0.270575
H275	H	0.741306	-1.167496	0.187814
H276	H	0.796342	-1.122598	0.105025
H277	H	0.796323	-1.032781	0.104995
H278	H	0.741266	-0.987866	0.187757
C279	C	0.588856	-0.953359	0.416972
C280	C	0.537790	-0.959852	0.411374
C281	C	0.506151	-0.934060	0.458949
C282	C	0.525578	-0.901774	0.512122
C283	C	0.576647	-0.895280	0.517723
C284	C	0.608286	-0.921072	0.470148
H285	H	0.523407	-0.983753	0.372010
H286	H	0.468346	-0.938867	0.454803
H287	H	0.502156	-0.882681	0.547340
H288	H	0.591030	-0.871379	0.557087
H289	H	0.646090	-0.916264	0.474294
H290	H	0.478144	-0.164523	0.404753
H291	H	0.121568	-0.135898	0.448152
C292	C	0.560038	-0.695288	0.460202
C293	C	0.508968	-0.688866	0.454617
C294	C	0.477348	-0.714659	0.502209
C295	C	0.496799	-0.746874	0.555387
C296	C	0.547872	-0.753298	0.560974
C297	C	0.579492	-0.727505	0.513381
H298	H	0.494566	-0.665017	0.415250
H299	H	0.439541	-0.709904	0.498073
H300	H	0.473393	-0.765968	0.590618
H301	H	0.562274	-0.777147	0.600341
H302	H	0.617299	-0.732260	0.517517
C303	C	0.560010	-0.596772	0.460179
C304	C	0.508943	-0.603263	0.454586
C305	C	0.477307	-0.577463	0.502156
C306	C	0.496737	-0.545173	0.555319
C307	C	0.547806	-0.538680	0.560914
C308	C	0.579443	-0.564479	0.513344
H309	H	0.494557	-0.627168	0.415230
H310	H	0.439502	-0.582270	0.498014
H311	H	0.473317	-0.526074	0.590533
H312	H	0.562192	-0.514775	0.600270
H313	H	0.617248	-0.559673	0.517486
H314	H	-0.094300	-0.268754	0.247435
H315	H	0.036463	-0.135913	0.448155
H316	H	0.701402	-0.960050	0.247678
H317	H	0.597096	-1.045169	0.404617
H318	H	0.596924	-0.472781	0.404546
H319	H	0.596895	-0.387659	0.404523
H320	H	0.730093	-0.744222	0.204412
H321	H	0.568292	-0.829341	0.447844
