data_functionalizedCrystal
_audit_creation_method	'MofGen! by Chris Wilmer'
_symmetry_space_group_name_H-M	'P1'
_symmetry_Int_Tables_number	1
_symmetry_cell_setting	triclinic
loop_
_symmetry_equiv_pos_as_xyz
  x,y,z
_cell_length_a	14.519709
_cell_length_b	14.519731
_cell_length_c	9.130307
_cell_angle_alpha	89.995718
_cell_angle_beta	90.004095
_cell_angle_gamma	83.684499
loop_
_atom_site_label
_atom_site_type_symbol
_atom_site_fract_x
_atom_site_fract_y
_atom_site_fract_z
O1	O	1.223873	0.120888	-0.121612
O2	O	1.723873	0.620888	0.378388
O3	O	0.955397	0.135125	-0.121657
O4	O	1.455397	0.635125	0.378343
O5	O	1.096743	-0.006230	-0.121620
O6	O	1.596743	0.493770	0.378380
O7	O	1.082527	0.262244	-0.121649
O8	O	1.582527	0.762244	0.378351
O9	O	1.096738	-0.006232	0.121979
O10	O	1.596738	0.493768	0.621979
O11	O	0.955393	0.135124	0.121942
O12	O	1.455393	0.635124	0.621942
O13	O	1.223868	0.120887	0.121987
O14	O	1.723868	0.620887	0.621987
Cu15	Cu	1.089630	0.128005	0.144207
Cu16	Cu	1.589630	0.628005	0.644207
Cu17	Cu	1.089635	0.128007	-0.143877
Cu18	Cu	1.589635	0.628007	0.356123
O19	O	1.082522	0.262242	0.121950
O20	O	1.582522	0.762242	0.621950
C21	C	0.921035	0.134461	0.000137
C22	C	1.421035	0.634461	0.500137
C23	C	0.818654	0.132473	0.000120
C24	C	1.318654	0.632473	0.500120
C25	C	0.443757	0.125153	0.000187
C26	C	0.943757	0.625153	0.500187
C27	C	0.548065	0.127186	0.000168
C28	C	1.048065	0.627186	0.500168
C29	C	0.631202	0.128813	0.000152
C30	C	1.131202	0.628813	0.500152
C31	C	0.735517	0.130846	0.000136
C32	C	1.235517	0.630846	0.500136
C33	C	1.096075	-0.040591	0.000180
C34	C	1.596075	0.459409	0.500180
C35	C	1.094079	-0.142971	0.000180
C36	C	1.594079	0.357029	0.500180
C37	C	1.092457	-0.226115	0.000176
C38	C	1.592457	0.273885	0.500176
C39	C	1.090430	-0.330424	0.000165
C40	C	1.590430	0.169576	0.500165
C41	C	1.088822	-0.413563	0.000155
C42	C	1.588822	0.086437	0.500155
C43	C	1.086795	-0.517878	0.000146
C44	C	1.586795	-0.017878	0.500146
C45	C	1.258230	0.121551	0.000190
C46	C	1.758230	0.621551	0.500190
C47	C	1.360612	0.123539	0.000197
C48	C	1.860612	0.623539	0.500197
C49	C	1.083191	0.296603	0.000147
C50	C	1.583191	0.796603	0.500147
C51	C	1.085187	0.398983	0.000137
C52	C	1.585187	0.898983	0.500137
N53	N	1.089633	0.128004	0.346830
N54	N	1.589633	0.628004	0.846830
N55	N	1.089640	0.128001	-0.346500
N56	N	1.589640	0.628001	0.153500
C57	C	1.214846	0.002870	0.346853
C58	C	1.714846	0.502870	0.846853
C59	C	1.277458	-0.059695	0.423531
C60	C	1.777458	0.440305	0.923531
C61	C	1.277467	-0.059695	0.576864
C62	C	1.777467	0.440305	1.076864
C63	C	1.214855	0.002873	0.653523
C64	C	1.714855	0.502873	1.153523
C65	C	1.152243	0.065438	0.576845
C66	C	1.652243	0.565438	1.076845
C67	C	1.152242	0.065433	0.423508
C68	C	1.652242	0.565433	0.923508
C69	C	1.027027	0.190566	0.576822
C70	C	1.527027	0.690566	1.076822
C71	C	1.027021	0.190572	0.423488
C72	C	1.527021	0.690572	0.923488
C73	C	0.964416	0.253134	0.653481
C74	C	1.464416	0.753134	1.153481
C75	C	0.901806	0.315705	0.576803
C76	C	1.401806	0.815705	1.076803
C77	C	0.901800	0.315703	0.423460
C78	C	1.401800	0.815703	0.923460
C79	C	0.964409	0.253137	0.346810
C80	C	1.464409	0.753137	0.846810
H81	H	1.214852	0.002871	0.222000
H82	H	1.714852	0.502871	0.722000
H83	H	1.328435	-0.110640	0.361102
H84	H	1.828435	0.389360	0.861102
H85	H	0.964413	0.253133	0.221958
H86	H	1.464413	0.753133	0.721958
Br87	Br	0.964418	0.253130	0.861578
Br88	Br	1.464418	0.753130	1.361578
Br89	Br	0.816833	0.400602	0.680842
Br90	Br	1.316833	0.900602	1.180842
H91	H	1.328448	-0.110644	0.639296
H92	H	1.828448	0.389356	1.139296
Br93	Br	1.214852	0.002858	0.861620
Br94	Br	1.714852	0.502858	1.361620
Br95	Br	0.816813	0.400610	0.319410
Br96	Br	1.316813	0.900610	0.819410
