data_functionalizedCrystal
_audit_creation_method	'MofGen! by Chris Wilmer'
_symmetry_space_group_name_H-M	'P1'
_symmetry_Int_Tables_number	1
_symmetry_cell_setting	triclinic
loop_
_symmetry_equiv_pos_as_xyz
  x,y,z
_cell_length_a	10.685661
_cell_length_b	16.625545
_cell_length_c	10.686551
_cell_angle_alpha	85.592661
_cell_angle_beta	80.927213
_cell_angle_gamma	85.646941
loop_
_atom_site_label
_atom_site_type_symbol
_atom_site_fract_x
_atom_site_fract_y
_atom_site_fract_z
Zn1	Zn	1.995608	-0.376344	-0.866149
Zn2	Zn	2.328941	-0.043011	-0.532816
Zn3	Zn	2.662274	0.290323	-0.199482
Zn4	Zn	1.979143	-0.520803	-0.653878
Zn5	Zn	2.312476	-0.187470	-0.320544
Zn6	Zn	2.645809	0.145864	0.012789
Zn7	Zn	1.767043	-0.376381	-0.637673
Zn8	Zn	2.100376	-0.043048	-0.304340
Zn9	Zn	2.433709	0.290285	0.028993
Zn10	Zn	1.783279	-0.501525	-0.849841
Zn11	Zn	2.116612	-0.168192	-0.516508
Zn12	Zn	2.449946	0.165141	-0.183174
O13	O	1.881268	-0.443763	-0.751885
O14	O	2.214601	-0.110430	-0.418552
O15	O	2.547935	0.222903	-0.085219
O16	O	2.171049	-0.403559	-0.851597
O17	O	2.504382	-0.070226	-0.518264
O18	O	2.837715	0.263108	-0.184931
O19	O	1.937322	-0.509728	-0.474099
O20	O	2.270655	-0.176395	-0.140766
O21	O	2.603988	0.156938	0.192568
O22	O	1.797458	-0.263546	-0.668025
O23	O	2.130791	0.069787	-0.334691
O24	O	2.464125	0.403120	-0.001358
O25	O	2.158952	-0.509692	-0.695643
O26	O	2.492285	-0.176359	-0.362309
O27	O	2.825619	0.156974	-0.028976
O28	O	1.965384	-0.263519	-0.835885
O29	O	2.298717	0.069814	-0.502552
O30	O	2.632050	0.403148	-0.169218
O31	O	1.781493	-0.403622	-0.462194
O32	O	2.114826	-0.070289	-0.128860
O33	O	2.448159	0.263044	0.204473
O34	O	1.591571	-0.384930	-0.652211
O35	O	1.924905	-0.051596	-0.318878
O36	O	2.258238	0.281737	0.014455
O37	O	1.825130	-0.476837	-1.029633
O38	O	2.158464	-0.143503	-0.696300
O39	O	2.491797	0.189830	-0.362967
O40	O	1.603500	-0.476873	-0.808090
O41	O	1.936834	-0.143539	-0.474757
O42	O	2.270167	0.189794	-0.141423
O43	O	1.981127	-0.384866	-1.041615
O44	O	2.314461	-0.051533	-0.708282
O45	O	2.647794	0.281800	-0.374948
O46	O	1.953065	-0.631076	-0.679829
O47	O	2.286399	-0.297742	-0.346496
O48	O	2.619732	0.035591	-0.013162
O49	O	1.809165	-0.616913	-0.823802
O50	O	2.142498	-0.283579	-0.490469
O51	O	2.475832	0.049754	-0.157136
C52	C	1.551480	-0.428814	-0.726623
C53	C	1.884813	-0.095481	-0.393290
C54	C	2.218146	0.237853	-0.059957
C55	C	1.410397	-0.422436	-0.715846
C56	C	1.743730	-0.089103	-0.382513
C57	C	2.077064	0.244230	-0.049180
C58	C	1.881127	-0.653250	-0.751835
C59	C	2.214460	-0.319917	-0.418501
C60	C	2.547794	0.013417	-0.085168
C61	C	1.881186	-0.742872	-0.751865
C62	C	2.214519	-0.409539	-0.418531
C63	C	2.547853	-0.076206	-0.085198
C64	C	1.881237	-0.815656	-0.751894
C65	C	2.214571	-0.482323	-0.418560
C66	C	2.547904	-0.148989	-0.085227
C67	C	1.881313	-0.906966	-0.751927
C68	C	2.214647	-0.573633	-0.418594
C69	C	2.547980	-0.240300	-0.085261
C70	C	1.881381	-0.979745	-0.751948
C71	C	2.214714	-0.646412	-0.418615
C72	C	2.548047	-0.313078	-0.085282
C73	C	1.881455	-1.071061	-0.751980
C74	C	2.214788	-0.737728	-0.418647
C75	C	2.548122	-0.404395	-0.085313
C76	C	2.212344	-0.458772	-0.777247
C77	C	2.545678	-0.125439	-0.443913
C78	C	2.879011	0.207895	-0.110580
C79	C	2.353429	-0.465168	-0.788054
C80	C	2.686762	-0.131834	-0.454721
C81	C	3.020096	0.201499	-0.121387
C82	C	1.906777	-0.428697	-1.082969
C83	C	2.240110	-0.095364	-0.749636
C84	C	2.573443	0.237970	-0.416303
C85	C	1.917647	-0.422277	-1.224058
C86	C	2.250980	-0.088943	-0.890724
C87	C	2.584314	0.244390	-0.557391
C88	C	1.881446	-0.233459	-0.751966
C89	C	2.214780	0.099874	-0.418633
C90	C	2.548113	0.433207	-0.085300
C91	C	1.881522	-0.143840	-0.752001
C92	C	2.214856	0.189493	-0.418668
C93	C	2.548189	0.522827	-0.085334
C94	C	1.855932	-0.458716	-0.422095
C95	C	2.189265	-0.125383	-0.088762
C96	C	2.522598	0.207950	0.244572
C97	C	1.845307	-0.464921	-0.281026
C98	C	2.178641	-0.131588	0.052307
C99	C	2.511974	0.201746	0.385640
H100	H	1.412596	-0.506632	-0.858127
H101	H	1.745929	-0.173298	-0.524793
H102	H	2.079262	0.160035	-0.191460
H103	H	1.775062	-0.506345	-1.221863
H104	H	2.108395	-0.173012	-0.888530
H105	H	2.441728	0.160322	-0.555197
Br106	Br	1.311799	-0.353315	-0.599077
Br107	Br	1.645133	-0.019981	-0.265744
Br108	Br	1.978466	0.313352	0.067589
Br109	Br	2.034757	-0.353240	-1.322668
Br110	Br	2.368090	-0.019907	-0.989335
Br111	Br	2.701423	0.313427	-0.656002
