data_functionalizedCrystal
_audit_creation_method	'MofGen! by Chris Wilmer'
_symmetry_space_group_name_H-M	'P1'
_symmetry_Int_Tables_number	1
_symmetry_cell_setting	triclinic
loop_
_symmetry_equiv_pos_as_xyz
  x,y,z
_cell_length_a	19.188933
_cell_length_b	19.188924
_cell_length_c	9.616153
_cell_angle_alpha	89.995666
_cell_angle_beta	89.994560
_cell_angle_gamma	83.143767
loop_
_atom_site_label
_atom_site_type_symbol
_atom_site_fract_x
_atom_site_fract_y
_atom_site_fract_z
O1	O	0.926144	0.087171	-0.115606
O2	O	0.722833	0.098904	-0.115619
O3	O	0.830358	-0.008618	-0.115596
O4	O	0.818619	0.194694	-0.115629
O5	O	0.830344	-0.008616	0.115696
O6	O	0.722818	0.098907	0.115672
O7	O	0.926130	0.087174	0.115686
Zn8	Zn	0.824472	0.093041	0.152401
Zn9	Zn	0.824491	0.093038	-0.152335
O10	O	0.818604	0.194696	0.115662
C11	C	0.696815	0.098525	0.000025
C12	C	0.619310	0.097384	0.000020
C13	C	0.066063	0.089238	-0.126041
C14	C	0.138887	0.090306	-0.126046
C15	C	0.175296	0.090844	0.000030
C16	C	0.138877	0.090297	0.126122
C17	C	0.066056	0.089222	0.126124
N18	N	0.284309	0.132264	0.093868
N19	N	0.353487	0.133287	0.093858
C20	C	0.394705	0.094082	0.000032
N21	N	0.364131	0.053825	-0.093804
N22	N	0.294946	0.052805	-0.093797
C23	C	0.254260	0.092010	0.000042
C24	C	0.510080	0.095783	-0.126057
C25	C	0.582906	0.096847	-0.126058
C26	C	0.582894	0.096845	0.126114
C27	C	0.510070	0.095774	0.126111
C28	C	0.473667	0.095246	0.000021
C29	C	0.829972	-0.034628	0.000051
C30	C	0.828833	-0.112133	0.000055
C31	C	0.828309	-0.148533	-0.126022
C32	C	0.827230	-0.221356	-0.126033
C33	C	0.826687	-0.257777	0.000041
C34	C	0.827207	-0.221368	0.126135
C35	C	0.828280	-0.148545	0.126142
N36	N	0.864729	-0.377439	0.093877
N37	N	0.863711	-0.446618	0.093862
C38	C	0.823453	-0.477186	0.000027
N39	N	0.784260	-0.435965	-0.093813
N40	N	0.785281	-0.366781	-0.093802
C41	C	0.825523	-0.336741	0.000047
C42	C	0.821758	-0.592549	-0.126070
C43	C	0.820673	-0.665373	-0.126076
C44	C	0.820658	-0.665384	0.126096
C45	C	0.821735	-0.592561	0.126097
C46	C	0.822288	-0.556149	0.000011
C47	C	0.952148	0.087553	0.000039
C48	C	1.029653	0.088694	0.000034
C49	C	0.818991	0.220706	0.000012
C50	C	0.820130	0.298211	-0.000001
N51	N	0.824464	0.093042	0.360376
N52	N	0.824505	0.093030	-0.360309
C53	C	0.766774	0.150371	0.580733
C54	C	0.766896	0.150582	0.419566
C55	C	0.897268	0.108733	0.418827
C56	C	0.896953	0.109138	0.580045
C57	C	0.810079	0.019828	0.580298
C58	C	0.808397	0.020324	0.419072
H59	H	0.480439	0.095351	-0.228727
H60	H	0.910320	0.161504	0.378429
Br61	Br	0.828987	-0.099141	0.297260
H62	H	0.712773	0.141266	0.380049
H63	H	0.712478	0.141210	0.619543
Br64	Br	0.822505	-0.543127	-0.297183
Br65	Br	0.819914	-0.714805	0.297200
Br66	Br	0.188313	0.091043	-0.297160
H67	H	0.775834	0.204392	0.621224
H68	H	0.847727	-0.024327	0.378786
Br69	Br	0.819955	-0.714774	-0.297196
Br70	Br	0.822442	-0.543157	0.297212
Br71	Br	0.880252	-0.051289	0.643839
Br72	Br	0.970613	0.042081	0.645053
Br73	Br	0.782171	0.241142	0.355237
Br74	Br	0.188288	0.091022	0.297227
H75	H	0.612551	0.097284	-0.228727
H76	H	0.909699	0.162517	0.617625
H77	H	0.941240	0.068072	0.380484
Br78	Br	0.719135	0.000465	0.355406
Br79	Br	0.723528	-0.005400	0.648145
H80	H	0.036429	0.088805	-0.228713
H81	H	0.036410	0.088782	0.228792
H82	H	0.612538	0.097281	0.228768
H83	H	0.480424	0.095334	0.228774
Br84	Br	0.829057	-0.099118	-0.297139
H85	H	0.826799	-0.250998	-0.228704
Br86	Br	0.826462	-0.270794	0.297237
