data_functionalizedCrystal
_audit_creation_method	'MofGen! by Chris Wilmer'
_symmetry_space_group_name_H-M	'P1'
_symmetry_Int_Tables_number	1
_symmetry_cell_setting	triclinic
loop_
_symmetry_equiv_pos_as_xyz
  x,y,z
_cell_length_a	10.654546
_cell_length_b	9.130313
_cell_length_c	9.065218
_cell_angle_alpha	89.999448
_cell_angle_beta	84.749684
_cell_angle_gamma	90.001178
loop_
_atom_site_label
_atom_site_type_symbol
_atom_site_fract_x
_atom_site_fract_y
_atom_site_fract_z
O1	O	1.668657	0.121825	0.207204
O2	O	1.303256	0.121820	0.226953
O3	O	1.493510	0.121820	0.002395
O4	O	1.478404	0.121826	0.431762
O5	O	1.493507	-0.121779	0.002401
O6	O	1.303254	-0.121778	0.226959
O7	O	1.668655	-0.121774	0.207210
Cu8	Cu	1.485954	-0.144019	0.217085
Cu9	Cu	1.485957	0.144065	0.217078
O10	O	1.478402	-0.121773	0.431768
C11	C	1.256451	0.000020	0.225507
C12	C	1.116991	0.000019	0.221172
N13	N	1.485962	-0.346641	0.217089
C14	C	1.051489	0.132811	0.219117
C15	C	0.920452	0.132823	0.215032
C16	C	0.920431	-0.132762	0.215050
C17	C	1.051464	-0.132772	0.219146
C18	C	1.117016	0.265602	0.221143
C19	C	1.051514	0.398405	0.219086
C20	C	0.920477	0.398417	0.215001
C21	C	0.854942	0.265626	0.212972
C22	C	1.570228	-0.423293	0.117689
C23	C	1.570224	-0.576630	0.117671
C24	C	1.401684	-0.576649	0.316467
C25	C	1.401683	-0.423315	0.316477
C26	C	1.654506	-0.346620	0.018301
C27	C	1.738780	-0.423272	-0.081106
C28	C	1.738777	-0.576609	-0.081124
C29	C	1.654499	-0.653293	0.018266
C30	C	1.715460	0.000029	0.208656
C31	C	1.854921	0.000041	0.212991
C32	C	1.492057	0.000023	-0.052581
C33	C	1.487716	0.000030	-0.216400
N34	N	1.485960	0.346688	0.217062
C35	C	1.479855	0.000027	0.486744
C36	C	1.484195	0.000030	0.650563
H37	H	1.104880	0.506519	0.220751
O38	O	1.310802	-0.659348	0.423678
H39	H	1.324971	-0.778849	0.406983
H40	H	1.654519	-0.221765	0.018310
O41	O	0.849813	0.541638	0.212789
H42	H	0.800167	0.547966	0.110542
O43	O	1.829659	-0.659293	-0.188340
H44	H	1.891387	-0.729167	-0.125559
H45	H	1.807390	-0.360827	-0.162034
H46	H	1.654495	-0.778150	0.018233
O47	O	1.310806	-0.340623	0.423692
H48	H	1.252217	-0.419696	0.492818
H49	H	1.223713	0.265607	0.224466
O50	O	0.713611	0.265629	0.208537
H51	H	0.679071	0.380278	0.207433
H52	H	1.104796	-0.240903	0.220827
O53	O	0.849686	-0.275980	0.213567
H54	H	0.747541	-0.253662	0.210622
