data_functionalizedCrystal
_audit_creation_method	'MofGen! by Chris Wilmer'
_symmetry_space_group_name_H-M	'P1'
_symmetry_Int_Tables_number	1
_symmetry_cell_setting	triclinic
loop_
_symmetry_equiv_pos_as_xyz
  x,y,z
_cell_length_a	14.853567
_cell_length_b	15.021413
_cell_length_c	14.853567
_cell_angle_alpha	90.005178
_cell_angle_beta	96.365070
_cell_angle_gamma	89.990226
loop_
_atom_site_label
_atom_site_type_symbol
_atom_site_fract_x
_atom_site_fract_y
_atom_site_fract_z
O1	O	1.196351	0.073963	-0.117698
O2	O	0.933891	0.073977	-0.131719
O3	O	1.072132	0.073972	0.006521
O4	O	1.058110	0.073968	-0.255938
O5	O	1.072148	-0.074092	0.006513
O6	O	0.933907	-0.074087	-0.131728
O7	O	1.196367	-0.074101	-0.117706
Zn8	Zn	1.065140	-0.097602	-0.124718
Zn9	Zn	1.065118	0.097479	-0.124707
O10	O	1.058126	-0.074096	-0.255947
C11	C	0.900311	-0.000053	-0.131088
C12	C	0.800227	-0.000047	-0.129184
N13	N	1.065161	-0.230740	-0.124726
C14	C	0.387693	-0.000065	-0.039019
C15	C	0.366412	-0.000067	-0.203251
C16	C	0.460446	-0.000065	-0.205042
C17	C	0.518108	-0.000061	-0.123819
C18	C	0.481736	-0.000060	-0.040806
C19	C	0.496825	-0.000056	-0.288053
C20	C	0.590864	-0.000053	-0.289846
C21	C	0.648528	-0.000055	-0.208623
C22	C	0.612150	-0.000055	-0.125607
C23	C	0.669812	-0.000052	-0.044384
C24	C	0.633437	-0.000058	0.038633
C25	C	0.539399	-0.000062	0.040417
C26	C	0.742565	-0.000051	-0.210407
C27	C	0.763855	-0.000046	-0.046172
C28	C	1.129096	-0.470402	-0.060789
C29	C	1.047611	-0.529726	-0.043178
C30	C	1.065140	-0.412347	-0.124714
C31	C	1.146604	-0.529765	-0.142272
C32	C	1.065127	-0.587771	-0.124701
C33	C	0.983614	-0.470364	-0.107063
C34	C	1.082661	-0.470398	-0.206193
C35	C	1.001117	-0.529695	-0.188616
C36	C	1.065149	-0.311290	-0.124719
C37	C	1.065109	-0.688826	-0.124697
C38	C	1.229947	-0.000069	-0.118337
C39	C	1.330031	-0.000069	-0.120241
C40	C	1.071504	-0.000057	0.040106
C41	C	1.069601	-0.000049	0.140189
N42	N	1.065104	0.230616	-0.124693
C43	C	1.058754	-0.000065	-0.289531
C44	C	1.060657	-0.000067	-0.389615
C45	C	0.979435	-0.000061	0.552723
C46	C	1.143668	-0.000070	0.574004
C47	C	1.145458	-0.000065	0.479971
C48	C	1.064235	-0.000059	0.422309
C49	C	0.981223	-0.000059	0.458680
C50	C	1.228469	-0.000075	0.443591
C51	C	1.230262	-0.000070	0.349552
C52	C	1.149039	-0.000058	0.291889
C53	C	1.066023	-0.000057	0.328266
C54	C	0.984800	-0.000051	0.270604
C55	C	0.901783	-0.000043	0.306979
C56	C	0.899999	-0.000047	0.401017
C57	C	1.150823	-0.000055	0.197851
C58	C	0.986588	-0.000049	0.176561
H59	H	0.810798	-0.000046	0.019971
C60	C	0.630874	-0.000050	-0.381157
H61	H	0.695138	-0.000042	-0.370591
H62	H	0.611099	-0.051682	-0.414609
H63	H	0.611080	0.051591	-0.414597
H64	H	0.319459	-0.000063	-0.269379
C65	C	0.433399	-0.000064	-0.377388
H66	H	0.372185	-0.000081	-0.364432
H67	H	0.444418	0.051569	-0.411422
H68	H	0.444453	-0.051704	-0.411422
C69	C	1.239674	-0.565014	-0.162351
H70	H	1.232578	-0.599821	-0.216075
H71	H	1.278796	-0.516280	-0.170205
H72	H	1.265062	-0.600703	-0.113154
C73	C	0.696866	-0.000046	0.127975
H74	H	0.661740	-0.000044	0.177673
H75	H	0.734013	-0.051671	0.130687
H76	H	0.733972	0.051602	0.130686
H77	H	1.209795	-0.000082	0.620958
H78	H	0.772178	-0.000047	-0.277998
H79	H	0.911844	-0.000051	0.582344
H80	H	1.294596	-0.000087	0.490546
H81	H	0.946967	-0.555566	-0.242674
H82	H	0.835652	-0.000045	0.260019
C83	C	1.202080	-0.435219	0.012276
H84	H	1.189472	-0.455533	0.070137
H85	H	1.259839	-0.456428	0.000369
H86	H	1.201936	-0.371982	0.011409
C87	C	0.808691	-0.000051	0.441032
H88	H	0.819262	-0.000065	0.505295
H89	H	0.775231	0.051583	0.421260
H90	H	0.775256	-0.051690	0.421240
H91	H	0.914699	-0.444382	-0.092129
C92	C	1.027576	-0.564941	0.049908
H93	H	1.073077	-0.544645	0.095259
H94	H	0.970140	-0.543730	0.062828
H95	H	1.027174	-0.628178	0.049068
C96	C	0.499389	-0.000059	0.131727
H97	H	0.547196	-0.000063	0.179846
H98	H	0.463138	0.051575	0.135837
H99	H	0.463156	-0.051698	0.135836
H100	H	1.297860	-0.000076	0.319944
H101	H	0.358072	-0.000074	0.028572
C102	C	1.102732	-0.435155	-0.299250
H103	H	1.160673	-0.455456	-0.311639
H104	H	1.057889	-0.456338	-0.344777
H105	H	1.102041	-0.371918	-0.298736
C106	C	0.897241	-0.000043	0.113140
H107	H	0.847548	-0.000045	0.148274
H108	H	0.894519	0.051588	0.076015
H109	H	0.894529	-0.051685	0.076013
C110	C	1.242129	-0.000066	0.157841
H111	H	1.290246	-0.000068	0.205650
H112	H	1.246242	-0.051697	0.121590
H113	H	1.246239	0.051576	0.121609
