data_functionalizedCrystal
_audit_creation_method	'MofGen! by Chris Wilmer'
_symmetry_space_group_name_H-M	'P1'
_symmetry_Int_Tables_number	1
_symmetry_cell_setting	triclinic
loop_
_symmetry_equiv_pos_as_xyz
  x,y,z
_cell_length_a	25.639239
_cell_length_b	14.908618
_cell_length_c	14.908308
_cell_angle_alpha	89.826377
_cell_angle_beta	93.262277
_cell_angle_gamma	93.266972
loop_
_atom_site_label
_atom_site_type_symbol
_atom_site_fract_x
_atom_site_fract_y
_atom_site_fract_z
Zn1	Zn	-0.272868	-1.345146	-0.587578
Zn2	Zn	-0.355565	-1.353681	-0.437206
Zn3	Zn	-0.262823	-1.203467	-0.428573
Zn4	Zn	-0.354941	-1.194710	-0.578854
O5	O	-0.311550	-1.274251	-0.508053
O6	O	-0.288303	-1.472101	-0.574895
O7	O	-0.339320	-1.340992	-0.310237
O8	O	-0.190995	-1.222353	-0.449704
O9	O	-0.349060	-1.478372	-0.464417
O10	O	-0.198375	-1.326444	-0.566524
O11	O	-0.271183	-1.230630	-0.303895
O12	O	-0.270578	-1.076482	-0.441244
O13	O	-0.347997	-1.207428	-0.705835
O14	O	-0.338257	-1.070048	-0.551655
O15	O	-0.287698	-1.317953	-0.712244
O16	O	-0.428643	-1.332501	-0.455958
O17	O	-0.428185	-1.215705	-0.560026
C18	C	-0.303260	-1.040640	-0.494567
C19	C	-0.299727	-0.940699	-0.488818
C20	C	-0.447385	-1.274102	-0.508003
C21	C	-0.505501	-1.274119	-0.508016
C22	C	-0.363661	-0.746257	-0.592833
C23	C	-0.360344	-0.652354	-0.587435
C24	C	-0.289772	-0.658986	-0.472630
C25	C	-0.293090	-0.752890	-0.478028
C26	C	-0.330036	-0.796522	-0.538130
C27	C	-0.333356	-0.890428	-0.543523
C28	C	-0.262782	-0.897058	-0.428723
C29	C	-0.259465	-0.803155	-0.423326
C30	C	-0.866104	-1.335211	-0.453971
C31	C	-0.920710	-1.335245	-0.453985
O32	O	-0.949144	-1.387033	-0.407980
N33	N	-0.947796	-1.274405	-0.508121
C34	C	-0.920274	-1.213534	-0.562254
O35	O	-0.948327	-1.161789	-0.608303
C36	C	-0.865670	-1.213505	-0.562244
C37	C	-0.838586	-1.274342	-0.508097
C38	C	-0.839020	-1.396044	-0.399830
C39	C	-0.784417	-1.396008	-0.399815
C40	C	-0.756899	-1.335140	-0.453941
C41	C	-0.783983	-1.274307	-0.508082
C42	C	-0.838149	-1.152638	-0.616381
C43	C	-0.783541	-1.152615	-0.616367
C44	C	-0.756457	-1.213452	-0.562220
C45	C	-0.701863	-1.213402	-0.562194
N46	N	-0.674776	-1.274242	-0.508057
C47	C	-0.702295	-1.335111	-0.453931
C48	C	-1.034948	-1.213601	-0.562272
C49	C	-1.089551	-1.213625	-0.562277
C50	C	-1.089983	-1.335337	-0.454010
C51	C	-1.035378	-1.335308	-0.454000
C52	C	-1.007861	-1.274440	-0.508135
C53	C	-0.587626	-1.335031	-0.453903
C54	C	-0.533019	-1.334987	-0.453890
C55	C	-0.532592	-1.213279	-0.562161
C56	C	-0.587194	-1.213318	-0.562171
C57	C	-0.614710	-1.274202	-0.508039
O58	O	-0.673395	-1.161643	-0.608178
O59	O	-0.674235	-1.386855	-0.407899
C60	C	-0.175185	-1.274424	-0.508124
C61	C	-0.117074	-1.274497	-0.508154
C62	C	-0.318898	-1.260762	-0.742577
C63	C	-0.322030	-1.255013	-0.842517
C64	C	-0.319867	-0.508774	-0.521585
C65	C	-0.323401	-0.608715	-0.527335
C66	C	-0.265113	-1.359299	-1.036991
C67	C	-0.268053	-1.353901	-1.130893
C68	C	-0.330849	-1.238815	-1.124226
C69	C	-0.327908	-1.244213	-1.030324
C70	C	-0.295040	-1.304458	-0.986709
C71	C	-0.292102	-1.309860	-0.892805
C72	C	-0.354894	-1.194771	-0.886140
C73	C	-0.357835	-1.189372	-0.980042
C74	C	-0.304194	-1.287739	-0.274444
C75	C	-0.300921	-1.293662	-0.174515
H76	H	-0.363441	-0.925951	-0.592460
F77	F	-0.386751	-1.136409	-0.832620
H78	H	-0.235403	-0.937994	-0.384179
F79	F	-0.402986	-0.792696	-0.656789
H80	H	-0.510178	-1.163717	-0.606227
F81	F	-0.257122	-1.373980	-0.846389
F82	F	-0.236201	-1.412268	-1.184403
F83	F	-1.118369	-1.148864	-0.619897
F84	F	-1.005666	-1.148807	-0.619888
H85	H	-0.229383	-0.767616	-0.374395
H86	H	-0.387724	-0.611431	-0.631981
H87	H	-0.357608	-1.189766	-1.159754
F88	F	-0.504197	-1.399741	-0.396257
H89	H	-0.610023	-1.384610	-0.409826
H90	H	-0.861419	-1.445615	-0.355754
F91	F	-0.230138	-1.423423	-0.990571
F92	F	-0.755600	-1.460770	-0.342195
H93	H	-0.384594	-1.140321	-1.015566
H94	H	-1.013329	-1.384848	-0.409910
H95	H	-0.259689	-0.623444	-0.423704
H96	H	-1.112398	-1.384903	-0.409940
H97	H	-0.860191	-1.103094	-0.660468
F98	F	-0.754259	-1.087830	-0.673989
F99	F	-0.616019	-1.148553	-0.619781
