data_functionalizedCrystal
_audit_creation_method	'MofGen! by Chris Wilmer'
_symmetry_space_group_name_H-M	'P1'
_symmetry_Int_Tables_number	1
_symmetry_cell_setting	triclinic
loop_
_symmetry_equiv_pos_as_xyz
  x,y,z
_cell_length_a	16.109301
_cell_length_b	14.044220
_cell_length_c	14.586319
_cell_angle_alpha	89.995213
_cell_angle_beta	89.999213
_cell_angle_gamma	88.325179
loop_
_atom_site_label
_atom_site_type_symbol
_atom_site_fract_x
_atom_site_fract_y
_atom_site_fract_z
O1	O	1.112195	0.121835	-0.076185
O2	O	0.871261	0.136997	-0.076199
O3	O	0.988112	-0.008568	-0.076183
O4	O	0.995345	0.267399	-0.076201
O5	O	0.988103	-0.008570	0.076298
O6	O	0.871252	0.136995	0.076281
O7	O	1.112186	0.121832	0.076296
Cu8	Cu	0.991719	0.129413	0.090212
Cu9	Cu	0.991729	0.129416	-0.090115
O10	O	0.995336	0.267397	0.076280
C11	C	0.840236	0.136381	0.000039
C12	C	0.747804	0.134540	0.000034
C13	C	0.531640	0.216634	0.000039
C14	C	0.444790	0.214896	0.000045
C15	C	0.451815	0.042189	0.000052
C16	C	0.538663	0.043927	0.000053
C17	C	0.578573	0.131153	0.000042
C18	C	0.404875	0.127677	0.000047
C19	C	0.310709	0.125792	0.000054
C20	C	0.672745	0.133038	0.000037
C21	C	0.984941	-0.043882	0.000058
C22	C	0.975498	-0.149105	0.000058
C23	C	0.958232	-0.341761	0.000044
C24	C	1.025212	-0.399415	0.000045
C25	C	1.015605	-0.506616	0.000037
C26	C	0.967838	-0.234551	0.000052
C27	C	1.143211	0.122448	0.000056
C28	C	1.235644	0.124289	0.000055
C29	C	0.998506	0.302711	0.000037
C30	C	1.007950	0.407934	0.000031
N31	N	0.991717	0.129411	0.217043
N32	N	0.991737	0.129411	-0.216946
C33	C	1.043479	0.064976	0.452057
C34	C	1.043481	0.064974	0.548038
C35	C	0.939969	0.193848	0.548033
C36	C	0.939963	0.193845	0.452054
C37	C	0.991723	0.129410	0.404068
C38	C	0.991731	0.129411	0.596029
C39	C	0.991733	0.129409	0.700096
C40	C	0.991720	0.129411	0.299994
H41	H	0.576877	-0.025686	0.000058
C42	C	1.112424	-0.357340	0.000071
H43	H	1.107526	-0.289763	0.000086
H44	H	1.141788	-0.378130	-0.053095
H45	H	1.141756	-0.378154	0.053258
C46	C	1.100410	-0.005896	0.399271
H47	H	1.093003	0.003336	0.335236
H48	H	1.086696	-0.069161	0.415006
H49	H	1.156662	0.004427	0.414999
H50	H	0.406580	0.284504	0.000045
C51	C	0.575538	0.312577	0.000037
H52	H	0.535144	0.363236	0.000044
H53	H	0.609273	0.316852	-0.053136
H54	H	0.609269	0.316840	0.053217
H55	H	0.893680	-0.372911	0.000038
C56	C	1.100416	-0.005899	0.600822
H57	H	1.131243	-0.044267	0.558494
H58	H	1.067589	-0.045369	0.638271
H59	H	1.137556	0.028218	0.638256
C60	C	0.883031	0.264728	0.399262
H61	H	0.852215	0.303113	0.441586
H62	H	0.845894	0.230618	0.361827
H63	H	0.915869	0.304195	0.361815
C64	C	0.407911	-0.053751	0.000053
H65	H	0.349465	-0.042545	0.000042
H66	H	0.423584	-0.088953	0.053226
H67	H	0.423590	-0.088939	-0.053128
H68	H	0.897829	0.246311	0.587113
