data_functionalizedCrystal
_audit_creation_method	'MofGen! by Chris Wilmer'
_symmetry_space_group_name_H-M	'P1'
_symmetry_Int_Tables_number	1
_symmetry_cell_setting	triclinic
loop_
_symmetry_equiv_pos_as_xyz
  x,y,z
_cell_length_a	17.699077
_cell_length_b	10.723024
_cell_length_c	16.176319
_cell_angle_alpha	89.994397
_cell_angle_beta	89.993140
_cell_angle_gamma	83.874223
loop_
_atom_site_label
_atom_site_type_symbol
_atom_site_fract_x
_atom_site_fract_y
_atom_site_fract_z
O1	O	1.005077	0.157762	-0.068733
O2	O	0.784827	0.178299	-0.068737
O3	O	0.900032	-0.013633	-0.068732
O4	O	0.889872	0.349694	-0.068739
O5	O	0.900016	-0.013645	0.068761
O6	O	0.784811	0.178287	0.068756
O7	O	1.005061	0.157750	0.068760
Cu8	Cu	0.894934	0.168017	0.081312
Cu9	Cu	0.894953	0.168032	-0.081290
O10	O	0.889856	0.349682	0.068755
C11	C	0.756618	0.177559	0.000009
C12	C	0.672585	0.175355	0.000007
C13	C	0.633103	0.174310	0.074956
C14	C	0.554147	0.172219	0.074957
C15	C	0.514675	0.171182	0.000008
C16	C	0.554163	0.172224	-0.074946
C17	C	0.633118	0.174305	-0.074946
C18	C	0.235747	0.163827	-0.074947
C19	C	0.156786	0.161748	-0.074942
C20	C	0.156776	0.161740	0.074955
C21	C	0.235731	0.163822	0.074955
C22	C	0.275213	0.164856	0.000002
C23	C	0.360826	0.167121	0.000002
C24	C	0.429062	0.168927	0.000008
C25	C	0.899285	-0.060126	0.000013
C26	C	0.897073	-0.198642	0.000010
C27	C	0.961535	-0.274732	0.000010
C28	C	0.959250	-0.417896	0.000007
C29	C	1.033270	0.158490	0.000012
C30	C	1.117303	0.160694	0.000008
C31	C	0.890603	0.396175	0.000007
C32	C	0.892815	0.534691	0.000005
N33	N	0.894927	0.168006	0.195677
N34	N	0.894967	0.168033	-0.195655
C35	C	0.945955	0.083053	0.238944
C36	C	0.945959	0.083052	0.325491
C37	C	0.894937	0.168011	0.368770
C38	C	0.843903	0.252968	0.325497
C39	C	0.843896	0.252962	0.238952
C40	C	0.843929	0.252991	0.674526
C41	C	0.843942	0.252993	0.761077
C42	C	0.945992	0.083081	0.761065
C43	C	0.945985	0.083075	0.674519
C44	C	0.894949	0.168027	0.631254
C45	C	0.894944	0.168026	0.537410
C46	C	0.894945	0.168019	0.462612
H47	H	0.267884	0.164665	-0.135979
H48	H	0.840192	-0.239487	0.000004
H49	H	0.837627	-0.399936	0.000010
H50	H	0.522005	0.171347	0.135987
H51	H	0.987506	0.013876	0.203712
H52	H	1.018416	-0.233887	0.000016
H53	H	0.987510	0.013876	0.360718
H54	H	1.014435	-0.483277	0.000011
H55	H	0.987534	0.013899	0.639284
H56	H	0.987546	0.013904	0.796300
H57	H	0.665234	0.175164	0.135988
H58	H	0.802357	0.322138	0.360740
H59	H	0.802391	0.322178	0.796314
H60	H	0.802375	0.322164	0.639306
H61	H	0.522019	0.171371	-0.135970
H62	H	0.802343	0.322138	0.203725
H63	H	0.267865	0.164672	0.135986
H64	H	0.124650	0.160903	-0.135977
H65	H	0.124620	0.160892	0.135986
H66	H	0.665264	0.175159	-0.135977
