data_functionalizedCrystal
_audit_creation_method	'MofGen! by Chris Wilmer'
_symmetry_space_group_name_H-M	'P1'
_symmetry_Int_Tables_number	1
_symmetry_cell_setting	triclinic
loop_
_symmetry_equiv_pos_as_xyz
  x,y,z
_cell_length_a	10.540510
_cell_length_b	15.995292
_cell_length_c	15.072220
_cell_angle_alpha	90.006185
_cell_angle_beta	90.004153
_cell_angle_gamma	83.990964
loop_
_atom_site_label
_atom_site_type_symbol
_atom_site_fract_x
_atom_site_fract_y
_atom_site_fract_z
O1	O	1.684250	0.117888	0.073781
O2	O	1.314675	0.129032	0.073781
O3	O	1.509604	0.001629	0.073782
O4	O	1.489322	0.245291	0.073780
O5	O	1.509591	0.001613	-0.073783
O6	O	1.314662	0.129016	-0.073784
O7	O	1.684237	0.117872	-0.073784
Zn8	Zn	1.499448	0.123442	-0.097213
Zn9	Zn	1.499465	0.123462	0.097210
O10	O	1.489309	0.245275	-0.073785
C11	C	1.267377	0.128194	-0.000001
C12	C	1.126462	0.125709	-0.000001
C13	C	0.907762	0.214215	0.000337
C14	C	1.054320	0.216866	-0.000001
C15	C	1.082351	0.079037	-0.084266
C16	C	0.935618	0.077032	-0.084331
C17	C	0.935853	0.075151	0.083478
C18	C	1.082134	0.079475	0.084587
C19	C	1.508772	-0.029579	0.000002
C20	C	1.506297	-0.122547	0.000009
C21	C	1.497199	-0.460339	0.000001
C22	C	1.637893	-0.436196	-0.000329
C23	C	1.640567	-0.339504	0.000007
C24	C	1.501713	-0.292757	0.000004
C25	C	1.431380	-0.322264	0.084268
C26	C	1.429687	-0.419065	0.084336
C27	C	1.426799	-0.418957	-0.083473
C28	C	1.432013	-0.322434	-0.084584
C29	C	1.504257	-0.198045	0.000009
C30	C	1.494651	-0.555050	0.000002
C31	C	1.731535	0.118711	0.000000
C32	C	1.872450	0.121195	0.000006
C33	C	1.490141	0.276484	-0.000003
C34	C	1.492615	0.369451	-0.000004
N35	N	1.499445	0.123427	-0.229902
C36	C	1.499466	0.123456	-0.589104
C37	C	1.604106	0.055517	-0.551468
C38	C	1.603833	0.055262	-0.448643
C39	C	1.499457	0.123442	-0.410899
C40	C	1.367027	0.103578	-0.448242
C41	C	1.367647	0.103097	-0.551100
C42	C	1.526062	0.211454	-0.551181
C43	C	1.529068	0.210883	-0.448317
C44	C	1.499443	0.123435	-0.310186
C45	C	1.499470	0.123460	-0.689817
N46	N	1.499477	0.123470	0.229899
H47	H	1.082203	0.253587	-0.060507
H48	H	0.894948	0.108915	-0.147320
H49	H	1.287443	0.150659	-0.575997
H50	H	1.132138	0.012925	0.089676
N51	N	1.090486	0.262674	0.075778
N52	N	1.007407	0.292907	0.129285
H53	H	1.032941	0.325263	0.182806
H54	H	1.326529	-0.434224	0.088152
H55	H	1.695650	-0.320160	-0.060396
H56	H	1.483226	-0.303572	-0.146922
H57	H	1.110280	0.113434	0.146925
H58	H	1.586843	-0.010026	-0.424044
H59	H	1.620563	0.230352	-0.577116
N60	N	0.854526	0.258776	0.076151
N61	N	0.884739	0.233381	0.152467
H62	H	0.847134	0.264851	0.206015
H63	H	1.471101	-0.446790	-0.147345
N64	N	0.852553	0.258496	-0.075047
N65	N	0.787313	0.221844	-0.129014
H66	H	0.748320	0.253114	-0.182257
N67	N	1.303210	-0.283028	0.088197
N68	N	1.282430	-0.204723	0.091915
H69	H	1.191909	-0.177008	0.094687
N70	N	1.490841	-0.452344	0.163341
N71	N	1.587710	-0.504329	0.158103
H72	H	1.630909	-0.527829	0.213901
N73	N	1.492672	-0.296727	0.162934
N74	N	1.588136	-0.256804	0.157157
H75	H	1.631431	-0.238769	0.212712
N76	N	1.304902	-0.281778	-0.090997
N77	N	1.263424	-0.230045	-0.033066
H78	H	1.173657	-0.201315	-0.037600
H79	H	0.913581	0.008852	-0.088158
H80	H	1.344202	0.038897	-0.575099
N81	N	1.296894	-0.437297	-0.084207
N82	N	1.255618	-0.476568	-0.147898
H83	H	1.163878	-0.489528	-0.148411
H84	H	1.702275	0.067206	-0.423394
H85	H	1.692118	-0.463879	-0.060758
N86	N	1.266999	0.163965	-0.417574
N87	N	1.292259	0.222454	-0.367732
H88	H	1.221616	0.265105	-0.346071
H89	H	1.457790	0.263868	-0.422623
H90	H	1.702878	0.067279	-0.576198
N91	N	1.336900	0.023951	-0.415931
N92	N	1.412740	-0.018301	-0.365413
H93	H	1.391470	-0.074540	-0.342593
H94	H	1.691827	-0.464888	0.059761
N95	N	1.710092	-0.316003	0.075917
N96	N	1.756779	-0.371046	0.128817
H97	H	1.805882	-0.354450	0.182435
H98	H	1.587365	-0.009400	-0.577326
N99	N	1.142985	-0.005149	-0.088188
N100	N	1.219569	-0.031751	-0.028783
H101	H	1.262394	-0.091208	-0.031550
H102	H	1.626488	0.225938	-0.423910
N103	N	1.430355	0.274896	-0.581733
N104	N	1.461333	0.335065	-0.626907
H105	H	1.393738	0.379865	-0.648490
N106	N	0.882138	0.111312	0.163606
N107	N	0.951853	0.142841	0.218747
H108	H	0.913916	0.168388	0.275334
N109	N	1.120486	0.119685	-0.162931
N110	N	1.180138	0.183017	-0.157154
H111	H	1.207070	0.211730	-0.212709
H112	H	0.914662	0.006711	0.084049
