data_functionalizedCrystal
_audit_creation_method	'MofGen! by Chris Wilmer'
_symmetry_space_group_name_H-M	'P1'
_symmetry_Int_Tables_number	1
_symmetry_cell_setting	triclinic
loop_
_symmetry_equiv_pos_as_xyz
  x,y,z
_cell_length_a	23.532407
_cell_length_b	23.532407
_cell_length_c	9.482900
_cell_angle_alpha	99.270833
_cell_angle_beta	80.775065
_cell_angle_gamma	82.848678
loop_
_atom_site_label
_atom_site_type_symbol
_atom_site_fract_x
_atom_site_fract_y
_atom_site_fract_z
O1	O	0.764174	0.060180	-0.120724
O2	O	1.264174	0.560180	0.379276
O3	O	0.598314	0.070180	-0.120769
O4	O	1.098314	0.570180	0.379231
O5	O	0.686243	-0.017750	-0.120719
O6	O	1.186243	0.482250	0.379281
O7	O	0.676244	0.148110	-0.120775
O8	O	1.176244	0.648110	0.379225
O9	O	0.668382	0.000182	0.121064
O10	O	1.168382	0.500182	0.621064
O11	O	0.580453	0.088112	0.121013
O12	O	1.080453	0.588112	0.621013
O13	O	0.746313	0.078112	0.121058
O14	O	1.246313	0.578112	0.621058
Cu15	Cu	0.661752	0.084749	0.143112
Cu16	Cu	1.161752	0.584749	0.643112
Cu17	Cu	0.682875	0.063543	-0.142823
Cu18	Cu	1.182875	0.563543	0.357177
O19	O	0.658383	0.166041	0.121008
O20	O	1.158383	0.666041	0.621008
C21	C	0.568168	0.078891	0.000117
C22	C	1.068168	0.578891	0.500117
C23	C	0.504952	0.078124	0.000101
C24	C	1.004952	0.578124	0.500101
C25	C	0.105845	0.125361	0.000151
C26	C	0.605845	0.625361	0.500151
C27	C	0.046444	0.124650	0.000160
C28	C	0.546444	0.624650	0.500160
O29	O	0.009697	0.168439	0.000198
O30	O	0.509697	0.668439	0.500198
N31	N	0.023817	0.072375	0.000175
N32	N	0.523817	0.572375	0.500175
C33	C	0.060593	0.020808	0.000196
C34	C	0.560593	0.520808	0.500196
O35	O	0.035892	-0.023721	0.000211
O36	O	0.535892	0.476279	0.500211
C37	C	0.119992	0.021520	0.000197
C38	C	0.619992	0.521520	0.500197
C39	C	0.142617	0.073798	0.000167
C40	C	0.642617	0.573798	0.500167
C41	C	0.128470	0.177634	0.000122
C42	C	0.628470	0.677634	0.500122
C43	C	0.187867	0.178344	0.000111
C44	C	0.687867	0.678344	0.500111
C45	C	0.224639	0.126781	0.000127
C46	C	0.724639	0.626781	0.500127
C47	C	0.202014	0.074508	0.000155
C48	C	0.702014	0.574508	0.500155
C49	C	0.156766	-0.030045	0.000229
C50	C	0.656766	0.469955	0.500229
C51	C	0.216168	-0.029328	0.000231
C52	C	0.716168	0.470672	0.500231
C53	C	0.238793	0.022949	0.000201
C54	C	0.738793	0.522949	0.500201
C55	C	0.298183	0.023655	0.000160
C56	C	0.798183	0.523655	0.500160
N57	N	0.320810	0.075931	0.000145
N58	N	0.820810	0.575931	0.500145
C59	C	0.284038	0.127494	0.000128
C60	C	0.784038	0.627494	0.500128
C61	C	-0.064150	0.019317	0.000196
C62	C	0.435850	0.519317	0.500196
C63	C	-0.123547	0.018603	0.000184
C64	C	0.376453	0.518603	0.500184
C65	C	-0.137692	0.122445	0.000151
C66	C	0.362308	0.622445	0.500151
C67	C	-0.078293	0.123158	0.000152
C68	C	0.421707	0.623158	0.500152
C69	C	-0.041522	0.071592	0.000181
C70	C	0.458478	0.571592	0.500181
C71	C	0.408777	0.128981	0.000102
C72	C	0.908777	0.628981	0.500102
C73	C	0.468180	0.129687	0.000084
C74	C	0.968180	0.629687	0.500084
C75	C	0.482319	0.025845	0.000125
C76	C	0.982319	0.525845	0.500125
C77	C	0.422922	0.025139	0.000136
C78	C	0.922922	0.525139	0.500136
C79	C	0.386151	0.076712	0.000129
C80	C	0.886151	0.576712	0.500129
O81	O	0.334964	-0.020110	0.000128
O82	O	0.834964	0.479890	0.500128
O83	O	0.308746	0.172017	0.000132
O84	O	0.808746	0.672017	0.500132
C85	C	0.677058	-0.030000	0.000176
C86	C	1.177058	0.470000	0.500176
C87	C	0.676291	-0.093216	0.000187
C88	C	1.176291	0.406784	0.500187
C89	C	0.723530	-0.492324	0.000120
C90	C	1.223530	0.007676	0.500120
C91	C	0.722819	-0.551725	0.000109
C92	C	1.222819	-0.051725	0.500109
O93	O	0.766608	-0.588473	0.000067
O94	O	1.266608	-0.088473	0.500067
N95	N	0.670544	-0.574352	0.000096
N96	N	1.170544	-0.074352	0.500096
C97	C	0.618977	-0.537576	0.000079
C98	C	1.118977	-0.037576	0.500079
O99	O	0.574447	-0.562276	0.000066
O100	O	1.074447	-0.062276	0.500066
C101	C	0.619689	-0.478177	0.000080
C102	C	1.119689	0.021823	0.500080
C103	C	0.671966	-0.455552	0.000108
C104	C	1.171966	0.044448	0.500108
C105	C	0.775803	-0.469699	0.000146
C106	C	1.275803	0.030301	0.500146
C107	C	0.776513	-0.410301	0.000160
C108	C	1.276513	0.089699	0.500160
C109	C	0.724950	-0.373529	0.000148
C110	C	1.224950	0.126471	0.500148
C111	C	0.672676	-0.396155	0.000122
C112	C	1.172676	0.103845	0.500122
C113	C	0.568123	-0.441402	0.000053
C114	C	1.068123	0.058598	0.500053
C115	C	0.568840	-0.382000	0.000053
C116	C	1.068840	0.118000	0.500053
C117	C	0.621117	-0.359375	0.000081
C118	C	1.121117	0.140625	0.500081
C119	C	0.621823	-0.299985	0.000124
C120	C	1.121823	0.200015	0.500124
N121	N	0.674099	-0.277358	0.000137
N122	N	1.174099	0.222642	0.500137
C123	C	0.725662	-0.314130	0.000149
C124	C	1.225662	0.185870	0.500149
C125	C	0.617486	-0.662319	0.000075
C126	C	1.117486	-0.162319	0.500075
C127	C	0.616772	-0.721716	0.000085
C128	C	1.116772	-0.221716	0.500085
C129	C	0.720615	-0.735861	0.000112
C130	C	1.220615	-0.235861	0.500112
C131	C	0.721327	-0.676462	0.000112
C132	C	1.221327	-0.176462	0.500112
C133	C	0.669761	-0.639691	0.000088
C134	C	1.169761	-0.139691	0.500088
C135	C	0.727149	-0.189391	0.000179
C136	C	1.227149	0.310609	0.500179
C137	C	0.727855	-0.129988	0.000199
C138	C	1.227855	0.370012	0.500199
C139	C	0.624013	-0.115848	0.000165
C140	C	1.124013	0.384152	0.500165
C141	C	0.623307	-0.175246	0.000152
C142	C	1.123307	0.324754	0.500152
C143	C	0.674880	-0.212017	0.000155
C144	C	1.174880	0.287983	0.500155
O145	O	0.578058	-0.263204	0.000159
O146	O	1.078058	0.236796	0.500159
O147	O	0.770186	-0.289423	0.000143
O148	O	1.270186	0.210577	0.500143
C149	C	0.776459	0.069401	0.000169
C150	C	1.276459	0.569401	0.500169
C151	C	0.839676	0.070167	0.000175
C152	C	1.339676	0.570167	0.500175
C153	C	0.667569	0.178291	0.000110
C154	C	1.167569	0.678291	0.500110
C155	C	0.668336	0.241506	0.000089
C156	C	1.168336	0.741506	0.500089
N157	N	0.646900	0.099664	0.344224
N158	N	1.146900	0.599664	0.844224
N159	N	0.697732	0.048623	-0.343935
N160	N	1.197732	0.548623	0.156065
C161	C	0.678490	0.067939	0.416441
C162	C	1.178490	0.567939	0.916441
C163	C	0.666137	0.080353	0.583852
C164	C	1.166137	0.580353	1.083852
H165	H	0.098536	0.219626	0.000114
H166	H	0.598536	0.719626	0.500114
H167	H	0.714679	0.031585	0.354334
H168	H	1.214679	0.531585	0.854334
H169	H	0.610707	0.136014	0.406333
H170	H	1.110707	0.636014	0.906333
F171	F	0.618826	0.127867	0.665022
F172	F	1.118826	0.627867	1.165022
H173	H	-0.034213	-0.022678	0.000206
H174	H	0.465787	0.477322	0.500206
F175	F	0.562597	-0.623188	0.000063
F176	F	1.062597	-0.123188	0.500063
H177	H	-0.141960	-0.023968	0.000186
H178	H	0.358040	0.476032	0.500186
H179	H	-0.167643	0.164431	0.000144
H180	H	0.332357	0.664431	0.500144
H181	H	0.526847	-0.352063	0.000031
H182	H	1.026847	0.147937	0.500031
F183	F	0.745134	0.001200	0.574898
F184	F	1.245134	0.501200	1.074898
F185	F	0.132702	-0.085688	0.000240
F186	F	0.632702	0.414312	0.500240
F187	F	0.492255	0.185329	0.000048
F188	F	0.992255	0.685329	0.500048
F189	F	0.830689	-0.508827	0.000158
F190	F	1.330689	-0.008827	0.500158
F191	F	0.398842	-0.030500	0.000168
F192	F	0.898842	0.469500	0.500168
F193	F	0.211938	0.233986	0.000086
F194	F	0.711938	0.733986	0.500086
F195	F	0.369651	0.183871	0.000096
F196	F	0.869651	0.683871	0.500096
F197	F	0.255299	-0.084213	0.000265
F198	F	0.755299	0.415787	0.500265
H199	H	0.512270	-0.016136	0.000133
H200	H	1.012270	0.483864	0.500133
H201	H	-0.059877	0.165727	0.000136
H202	H	0.440123	0.665727	0.500136
F203	F	0.782040	-0.228518	0.000181
F204	F	1.282040	0.271482	0.500181
F205	F	0.783498	-0.105913	0.000228
F206	F	1.283498	0.394087	0.500228
F207	F	0.832157	-0.386233	0.000158
F208	F	1.332157	0.113767	0.500158
F209	F	0.776967	-0.652389	0.000142
F210	F	1.276967	-0.152389	0.500142
F211	F	0.775494	-0.775008	0.000117
F212	F	1.275494	-0.275008	0.500117
H213	H	0.574201	-0.740129	0.000087
H214	H	1.074201	-0.240129	0.500087
F215	F	0.512482	-0.465468	0.000017
F216	F	1.012482	0.034532	0.500017
H217	H	0.580735	-0.193665	0.000170
H218	H	1.080735	0.306335	0.500170
H219	H	0.582031	-0.085898	0.000160
H220	H	1.082031	0.414102	0.500160
