data_functionalizedCrystal
_audit_creation_method	'MofGen! by Chris Wilmer'
_symmetry_space_group_name_H-M	'P1'
_symmetry_Int_Tables_number	1
_symmetry_cell_setting	triclinic
loop_
_symmetry_equiv_pos_as_xyz
  x,y,z
_cell_length_a	22.610064
_cell_length_b	16.992694
_cell_length_c	16.992695
_cell_angle_alpha	89.331777
_cell_angle_beta	89.995894
_cell_angle_gamma	89.996882
loop_
_atom_site_label
_atom_site_type_symbol
_atom_site_fract_x
_atom_site_fract_y
_atom_site_fract_z
O1	O	0.049111	-1.050855	0.166906
O2	O	0.549111	-0.550855	0.666906
O3	O	0.049128	-0.822455	0.165075
O4	O	0.549128	-0.322455	0.665075
O5	O	0.049115	-0.935740	0.051791
O6	O	0.549115	-0.435740	0.551791
O7	O	0.049124	-0.937571	0.280191
O8	O	0.549124	-0.437571	0.780191
O9	O	-0.049254	-0.935719	0.051807
O10	O	0.450746	-0.435719	0.551807
O11	O	-0.049241	-0.822435	0.165091
O12	O	0.450759	-0.322435	0.665091
O13	O	-0.049258	-1.050835	0.166923
O14	O	0.450742	-0.550835	0.666923
Zn15	Zn	-0.064868	-0.936632	0.166010
Zn16	Zn	0.435132	-0.436632	0.666010
Zn17	Zn	0.064738	-0.936659	0.165988
Zn18	Zn	0.564738	-0.436659	0.665988
O19	O	-0.049245	-0.937551	0.280207
O20	O	0.450755	-0.437551	0.780207
C21	C	-0.000054	-0.793085	0.162727
C22	C	0.499946	-0.293085	0.662727
C23	C	-0.000047	-0.705600	0.155699
C24	C	0.499953	-0.205600	0.655699
N25	N	-0.153320	-0.936619	0.166024
N26	N	0.346680	-0.436619	0.666024
C27	C	-0.000069	-0.933374	0.022439
C28	C	0.499931	-0.433374	0.522439
C29	C	-0.000069	-0.926345	-0.065046
C30	C	0.499931	-0.426345	0.434954
C31	C	-0.561967	-0.986824	0.115834
C32	C	-0.061967	-0.486824	0.615834
C33	C	-0.623887	-0.986827	0.115829
C34	C	-0.123887	-0.486827	0.615829
O35	O	-0.655911	-1.029480	0.073165
O36	O	-0.155911	-0.529480	0.573165
N37	N	-0.654857	-0.936657	0.165972
N38	N	-0.154857	-0.436657	0.665972
C39	C	-0.623904	-0.886474	0.216118
C40	C	-0.123904	-0.386474	0.716118
O41	O	-0.655932	-0.843800	0.258767
O42	O	-0.155932	-0.343800	0.758767
C43	C	-0.561985	-0.886467	0.216119
C44	C	-0.061985	-0.386467	0.716119
C45	C	-0.531019	-0.936646	0.165978
C46	C	-0.031019	-0.436646	0.665978
C47	C	-0.531001	-1.036999	0.065697
C48	C	-0.031001	-0.536999	0.565697
C49	C	-0.469085	-1.036996	0.065704
C50	C	0.030915	-0.536996	0.565704
C51	C	-0.438136	-0.986818	0.115847
C52	C	0.061864	-0.486818	0.615847
C53	C	-0.469103	-0.936643	0.165985
C54	C	0.030897	-0.436643	0.665985
C55	C	-0.531033	-0.836280	0.266260
C56	C	-0.031033	-0.336280	0.766260
C57	C	-0.469110	-0.836277	0.266256
C58	C	0.030890	-0.336277	0.766256
C59	C	-0.438144	-0.886456	0.216116
C60	C	0.061856	-0.386456	0.716116
C61	C	-0.376239	-0.886463	0.216135
C62	C	0.123761	-0.386463	0.716135
N63	N	-0.345269	-0.936634	0.165992
N64	N	0.154731	-0.436634	0.665992
C65	C	-0.376217	-0.986811	0.115848
C66	C	0.123783	-0.486811	0.615848
C67	C	-0.753938	-0.886491	0.216111
C68	C	-0.253938	-0.386491	0.716111
C69	C	-0.815855	-0.886502	0.216115
C70	C	-0.315855	-0.386502	0.716115
C71	C	-0.815834	-0.986855	0.115825
C72	C	-0.315834	-0.486855	0.615825
C73	C	-0.753916	-0.986848	0.115825
C74	C	-0.253916	-0.486848	0.615825
C75	C	-0.722968	-0.936662	0.165968
C76	C	-0.222968	-0.436662	0.665968
C77	C	-0.246190	-0.986802	0.115867
C78	C	0.253810	-0.486802	0.615867
C79	C	-0.184269	-0.986797	0.115880
C80	C	0.315731	-0.486797	0.615880
C81	C	-0.184295	-0.886441	0.216167
C82	C	0.315705	-0.386441	0.716167
C83	C	-0.246211	-0.886449	0.216157
C84	C	0.253789	-0.386449	0.716157
C85	C	-0.277157	-0.936632	0.166000
C86	C	0.222843	-0.436632	0.666000
O87	O	-0.344175	-0.843830	0.258775
O88	O	0.155825	-0.343830	0.758775
O89	O	-0.344182	-1.029471	0.073199
O90	O	0.155818	-0.529471	0.573199
N91	N	0.153190	-0.936677	0.165968
N92	N	0.653190	-0.436677	0.665968
C93	C	-0.000075	-1.080205	0.169270
C94	C	0.499925	-0.580205	0.669270
C95	C	-0.000077	-1.167690	0.176299
C96	C	0.499923	-0.667690	0.676299
C97	C	-0.000045	-0.659610	0.223517
C98	C	0.499955	-0.159610	0.723517
C99	C	-0.000054	-0.577409	0.216908
C100	C	0.499946	-0.077409	0.716908
C101	C	-0.000060	-0.541201	0.142480
C102	C	0.499940	-0.041201	0.642480
C103	C	-0.000064	-0.587198	0.074657
C104	C	0.499936	-0.087198	0.574657
C105	C	-0.000060	-0.669397	0.081267
C106	C	0.499940	-0.169397	0.581267
C107	C	-0.000077	-0.295886	0.115086
C108	C	0.499923	0.204114	0.615086
C109	C	-0.000079	-0.213681	0.108481
C110	C	0.499921	0.286319	0.608481
C111	C	-0.000070	-0.203898	0.250732
C112	C	0.499930	0.296102	0.750732
C113	C	-0.000062	-0.286099	0.257336
C114	C	0.499938	0.213901	0.757336
C115	C	-0.000069	-0.332089	0.189512
C116	C	0.499931	0.167911	0.689512
N117	N	-0.000067	-0.457178	0.135723
N118	N	0.499933	0.042822	0.635723
N119	N	-0.000067	-0.416110	0.196270
N120	N	0.499933	0.083890	0.696270
C121	C	-0.000074	-0.994163	-0.111037
C122	C	0.499926	-0.494163	0.388963
C123	C	-0.000068	-0.987554	-0.193238
C124	C	0.499932	-0.487554	0.306762
C125	C	-0.000061	-0.913127	-0.229446
C126	C	0.499939	-0.413127	0.270554
C127	C	-0.000053	-0.845303	-0.183449
C128	C	0.499947	-0.345303	0.316551
C129	C	-0.000055	-0.851913	-0.101250
C130	C	0.499945	-0.351913	0.398750
C131	C	-0.000050	-0.885732	-0.474760
C132	C	0.499950	-0.385732	0.025240
C133	C	-0.000050	-0.879127	-0.556966
C134	C	0.499950	-0.379127	-0.056966
C135	C	-0.000064	-1.021379	-0.566749
C136	C	0.499936	-0.521379	-0.066749
C137	C	-0.000070	-1.027982	-0.484547
C138	C	0.499930	-0.527982	0.015453
C139	C	-0.000059	-0.960159	-0.438558
C140	C	0.499941	-0.460159	0.061442
N141	N	-0.000056	-0.906369	-0.313468
N142	N	0.499944	-0.406369	0.186532
N143	N	-0.000059	-0.966917	-0.354537
N144	N	0.499941	-0.466917	0.145463
C145	C	-0.000059	-0.939917	0.309559
C146	C	0.499941	-0.439917	0.809559
C147	C	-0.000056	-0.946945	0.397044
C148	C	0.499944	-0.446945	0.897044
H149	H	-0.159058	-1.027662	0.075050
H150	H	0.340942	-0.527662	0.575050
H151	H	-0.000042	-0.830505	-0.437325
H152	H	0.499958	-0.330505	0.062675
H153	H	-0.000084	-1.054770	-0.081563
H154	H	0.499916	-0.554770	0.418437
H155	H	-0.271425	-0.845596	0.256994
H156	H	0.228575	-0.345596	0.756994
N157	N	-0.000077	-0.154284	0.323873
N158	N	0.499923	0.345716	0.823873
H159	H	-0.036543	-0.166454	0.356117
H160	H	0.463457	0.333546	0.856117
H161	H	0.036412	-0.166462	0.356059
H162	H	0.536412	0.333538	0.856059
H163	H	-0.000083	-0.333322	0.059859
H164	H	0.499917	0.166678	0.559859
H165	H	-0.159087	-0.845590	0.256996
H166	H	0.340913	-0.345590	0.756996
H167	H	-0.000074	-1.042779	-0.230680
H168	H	0.499926	-0.542779	0.269320
N169	N	-0.000082	-1.108257	-0.445495
N170	N	0.499918	-0.608257	0.054505
H171	H	-0.000084	-1.150218	-0.487104
H172	H	0.499916	-0.650218	0.012896
H173	H	0.036383	-1.114108	-0.411604
H174	H	0.536383	-0.614108	0.088396
N175	N	-0.000075	-1.094523	-0.616357
N176	N	0.499925	-0.594523	-0.116357
H177	H	0.036391	-1.094960	-0.650682
H178	H	0.536391	-0.594960	-0.150682
H179	H	-0.000103	-1.142635	-0.580896
H180	H	0.499897	-0.642635	-0.080896
H181	H	-0.000054	-0.818516	-0.586443
H182	H	0.499946	-0.318516	-0.086443
N183	N	-0.849249	-0.832381	0.270199
N184	N	-0.349249	-0.332381	0.770199
H185	H	-0.874937	-0.795645	0.237910
H186	H	-0.374937	-0.295645	0.737910
H187	H	-0.874907	-0.864696	0.306948
H188	H	-0.374907	-0.364696	0.806948
N189	N	-0.564375	-1.091132	0.011617
N190	N	-0.064375	-0.591132	0.511617
H191	H	-0.590060	-1.127870	0.043910
H192	H	-0.090060	-0.627870	0.543910
H193	H	-0.590036	-1.058829	-0.025138
H194	H	-0.090036	-0.558829	0.474862
N195	N	-0.720518	-1.040969	0.061746
N196	N	-0.220518	-0.540969	0.561746
H197	H	-0.749525	-1.072756	0.029984
H198	H	-0.249525	-0.572756	0.529984
H199	H	-0.694830	-1.008654	0.025035
H200	H	-0.194830	-0.508654	0.525035
N201	N	-0.000060	-0.527769	0.290030
N202	N	0.499940	-0.027769	0.790030
H203	H	-0.036533	-0.493458	0.290435
H204	H	0.463467	0.006542	0.790435
H205	H	-0.000034	-0.563200	0.338165
H206	H	0.499966	-0.063200	0.838165
H207	H	-0.000043	-0.784703	-0.212936
H208	H	0.499957	-0.284703	0.287064
N209	N	-0.720560	-0.832362	0.270200
N210	N	-0.220560	-0.332362	0.770200
H211	H	-0.749579	-0.800584	0.301961
H212	H	-0.249579	-0.300584	0.801961
H213	H	-0.694869	-0.864670	0.306911
H214	H	-0.194869	-0.364670	0.806911
N215	N	-0.000044	-0.325151	0.337611
N216	N	0.499956	0.174849	0.837611
H217	H	-0.000041	-0.283542	0.379572
H218	H	0.499959	0.216458	0.879572
H219	H	-0.036505	-0.359049	0.343468
H220	H	0.463495	0.140951	0.843468
N221	N	-0.849220	-1.040983	0.061743
N222	N	-0.349220	-0.540983	0.561743
H223	H	-0.838444	-1.028427	0.005297
H224	H	-0.338444	-0.528427	0.505297
H225	H	-0.838425	-1.097394	0.074419
H226	H	-0.338425	-0.597394	0.574419
N227	N	-0.000033	-0.698653	0.303796
N228	N	0.499967	-0.198653	0.803796
H229	H	-0.036498	-0.682209	0.333747
H230	H	0.463502	-0.182209	0.833747
H231	H	-0.000006	-0.757696	0.297632
H232	H	0.499994	-0.257696	0.797632
N233	N	-0.279562	-1.040931	0.061776
N234	N	0.220438	-0.540931	0.561776
H235	H	-0.250542	-1.072715	0.030022
H236	H	0.249458	-0.572715	0.530022
H237	H	-0.305250	-1.077620	0.094117
H238	H	0.194750	-0.577620	0.594117
N239	N	-0.435690	-1.091115	0.011620
N240	N	0.064310	-0.591115	0.511620
H241	H	-0.464699	-1.122896	-0.020145
H242	H	0.035301	-0.622896	0.479855
H243	H	-0.410001	-1.058798	-0.025089
H244	H	0.089999	-0.558798	0.474911
H245	H	-0.000084	-0.184203	0.047870
H246	H	0.499916	0.315797	0.547870
H247	H	-0.000078	-0.557710	0.014056
H248	H	0.499922	-0.057710	0.514056
H249	H	-0.000050	-0.796688	-0.063804
H250	H	0.499950	-0.296688	0.436196
N251	N	-0.000067	-0.719005	0.008121
N252	N	0.499933	-0.219005	0.508121
H253	H	-0.000071	-0.683596	-0.040032
H254	H	0.499929	-0.183596	0.459968
H255	H	0.036400	-0.753326	0.007755
H256	H	0.536400	-0.253326	0.507755
H257	H	-0.443916	-0.795407	0.307088
H258	H	0.056084	-0.295407	0.807088
N259	N	-0.564423	-0.782144	0.320328
N260	N	-0.064423	-0.282144	0.820328
H261	H	-0.535413	-0.750353	0.352081
H262	H	-0.035413	-0.250353	0.852081
H263	H	-0.590107	-0.745462	0.287974
H264	H	-0.090107	-0.245462	0.787974
