data_functionalizedCrystal
_audit_creation_method	'MofGen! by Chris Wilmer'
_symmetry_space_group_name_H-M	'P1'
_symmetry_Int_Tables_number	1
_symmetry_cell_setting	triclinic
loop_
_symmetry_equiv_pos_as_xyz
  x,y,z
_cell_length_a	17.019311
_cell_length_b	17.038272
_cell_length_c	15.500227
_cell_angle_alpha	86.966746
_cell_angle_beta	83.285249
_cell_angle_gamma	92.754600
loop_
_atom_site_label
_atom_site_type_symbol
_atom_site_fract_x
_atom_site_fract_y
_atom_site_fract_z
O1	O	1.060552	-0.092008	-0.150955
O2	O	0.830925	-0.105566	-0.133850
O3	O	0.944373	0.015022	-0.142294
O4	O	0.947104	-0.212596	-0.142511
O5	O	0.937487	0.007733	0.002107
O6	O	0.824039	-0.112855	0.010551
O7	O	1.053666	-0.099297	-0.006554
Cu8	Cu	0.938224	-0.106741	0.015184
Cu9	Cu	0.946367	-0.098121	-0.155588
O10	O	0.940217	-0.219885	0.001890
C11	C	0.797956	-0.108839	-0.059450
C12	C	0.709976	-0.107723	-0.052896
C13	C	0.212193	-0.101637	-0.011882
C14	C	0.294859	-0.102685	-0.018042
C15	C	0.339946	-0.099230	-0.099836
C16	C	0.302363	-0.094734	-0.175475
C17	C	0.219698	-0.093692	-0.169315
C18	C	0.589728	-0.102185	-0.122375
C19	C	0.672399	-0.103225	-0.128530
C20	C	0.664889	-0.111178	0.028905
C21	C	0.582223	-0.110130	0.035058
C22	C	0.544647	-0.105638	-0.040581
C23	C	0.424444	-0.100299	-0.106134
C24	C	0.460149	-0.104575	-0.034282
C25	C	0.938448	0.040494	-0.069909
C26	C	0.931041	0.127253	-0.069357
C27	C	1.086635	-0.096024	-0.080956
C28	C	1.174615	-0.097139	-0.087516
C29	C	0.946143	-0.245357	-0.070497
C30	C	0.953550	-0.332115	-0.071054
N31	N	0.932501	-0.112804	0.135294
C32	C	0.999043	0.177679	-0.074422
C33	C	0.992079	0.259198	-0.073911
C34	C	0.917113	0.290289	-0.068330
C35	C	0.849107	0.239857	-0.063268
C36	C	0.856071	0.158340	-0.063784
C37	C	0.892508	0.535935	-0.066509
C38	C	0.885549	0.617458	-0.065990
C39	C	1.028522	0.636794	-0.076635
C40	C	1.035480	0.555275	-0.077146
C41	C	0.967473	0.504850	-0.072089
C42	C	0.909993	0.373614	-0.067805
C43	C	0.974594	0.421526	-0.072620
N44	N	0.952095	-0.092053	-0.275699
C45	C	0.980593	-0.061725	0.176992
C46	C	0.976273	-0.066317	0.267886
C47	C	0.923865	-0.121992	0.317081
C48	C	0.875769	-0.173073	0.275378
C49	C	0.880085	-0.168477	0.184486
C50	C	0.908315	-0.138537	0.591706
C51	C	0.904004	-0.143131	0.682604
C52	C	1.004508	-0.036374	0.675106
C53	C	1.008823	-0.031786	0.584211
C54	C	0.960723	-0.082864	0.542516
C55	C	0.919450	-0.126689	0.409990
C56	C	0.965135	-0.078163	0.449610
H57	H	0.325450	-0.106346	0.043548
H58	H	0.339079	-0.091926	-0.242074
H59	H	0.824499	0.642768	-0.061431
H60	H	0.709107	-0.100418	-0.195140
H61	H	0.837132	0.494888	-0.062390
C62	C	0.782300	0.103490	-0.058154
C63	C	0.778586	0.052365	0.016138
C64	C	0.710643	0.001821	0.021342
H65	H	0.736595	0.133580	-0.054706
H66	H	0.784445	0.073781	-0.108466
H67	H	0.776434	0.082070	0.066437
H68	H	0.824275	0.022258	0.012707
H69	H	0.712788	-0.027888	-0.028970
H70	H	0.664943	0.031917	0.024787
H71	H	0.708118	-0.032878	0.071744
C72	C	0.549088	-0.097251	-0.204597
C73	C	0.606272	-0.094420	-0.277544
C74	C	0.568862	-0.089859	-0.353306
H75	H	0.514035	-0.142236	-0.205384
H76	H	0.519983	-0.051078	-0.205726
H77	H	0.635364	-0.140588	-0.276416
H78	H	0.641328	-0.049436	-0.276786
H79	H	0.539757	-0.043686	-0.354435
H80	H	0.533810	-0.134846	-0.354084
H81	H	0.607655	-0.087931	-0.402809
H82	H	0.833093	-0.218402	0.315439
C83	C	0.705542	-0.116023	0.111124
C84	C	0.648364	-0.118807	0.184074
C85	C	0.685784	-0.123263	0.259832
H86	H	0.734668	-0.162168	0.112333
H87	H	0.740579	-0.071000	0.111829
H88	H	0.613341	-0.163826	0.183370
H89	H	0.619235	-0.072667	0.182894
H90	H	0.720821	-0.078240	0.260537
H91	H	0.714908	-0.169408	0.261032
H92	H	0.646995	-0.125146	0.309337
C93	C	1.102446	0.691411	-0.082101
C94	C	1.169586	0.646733	-0.087081
C95	C	1.237702	0.697018	-0.092110
H96	H	1.105213	0.726167	-0.132472
H97	H	1.100346	0.721064	-0.031749
H98	H	1.171686	0.617094	-0.137427
H99	H	1.166846	0.611979	-0.036715
H100	H	1.235602	0.726671	-0.041758
H101	H	1.240461	0.731772	-0.142481
H102	H	1.283264	0.666712	-0.095481
H103	H	0.861325	-0.188472	0.722655
H104	H	1.023272	-0.016392	0.136942
C105	C	0.767782	0.273760	-0.057169
C106	C	0.776233	0.355941	-0.057774
C107	C	0.701332	0.387195	-0.052142
H108	H	0.741885	0.259052	-0.105403
H109	H	0.737139	0.253929	-0.004689
H110	H	0.806864	0.375764	-0.110248
H111	H	0.802117	0.370670	-0.009542
H112	H	0.670689	0.367365	0.000338
H113	H	0.675441	0.372483	-0.100377
H114	H	0.707056	0.442958	-0.052544
H115	H	1.035632	0.396209	-0.077183
C116	C	1.028592	-0.010827	0.312993
C117	C	1.075435	0.038893	0.250454
C118	C	1.123654	0.090014	0.291972
H119	H	0.996341	0.019877	0.350747
H120	H	1.061791	-0.040584	0.345816
H121	H	1.042240	0.068648	0.217646
H122	H	1.107702	0.008212	0.212697
H123	H	1.156852	0.060256	0.324795
H124	H	1.091396	0.120711	0.329726
H125	H	1.155447	0.123750	0.249546
C126	C	0.533252	-0.113708	0.123845
C127	C	0.489972	-0.046083	0.131664
C128	C	0.444863	-0.049338	0.213449
H129	H	0.497813	-0.158992	0.129840
H130	H	0.567455	-0.116492	0.168030
H131	H	0.455772	-0.043307	0.087492
H132	H	0.525391	-0.000789	0.125686
H133	H	0.479067	-0.052122	0.257634
H134	H	0.409429	-0.094624	0.219436
H135	H	0.415499	-0.003452	0.218768
C136	C	0.163380	-0.105434	0.077006
C137	C	0.213985	-0.109619	0.141924
C138	C	0.169050	-0.113130	0.223820
H139	H	0.133931	-0.059632	0.082592
H140	H	0.128026	-0.150792	0.082943
H141	H	0.249326	-0.064265	0.135990
H142	H	0.243435	-0.155418	0.136366
H143	H	0.133695	-0.158489	0.229756
H144	H	0.139603	-0.067327	0.229397
H145	H	0.203378	-0.115978	0.267876
C146	C	0.856062	-0.194092	0.546603
C147	C	0.809262	-0.243848	0.609142
C148	C	0.761123	-0.295045	0.567622
H149	H	0.822830	-0.164418	0.513759
H150	H	0.888392	-0.224759	0.508867
H151	H	0.776935	-0.213185	0.646863
H152	H	0.842474	-0.273540	0.641990
H153	H	0.793453	-0.325712	0.529886
H154	H	0.727895	-0.265364	0.534779
H155	H	0.729368	-0.328815	0.610048
C156	C	0.179046	-0.088768	-0.251534
C157	C	0.236223	-0.085946	-0.324486
C158	C	0.198806	-0.081404	-0.400243
H159	H	0.143996	-0.133758	-0.252307
H160	H	0.149936	-0.042598	-0.252670
H161	H	0.265320	-0.132110	-0.323350
H162	H	0.271276	-0.040957	-0.323741
H163	H	0.169696	-0.035235	-0.401379
H164	H	0.163757	-0.126396	-0.401007
H165	H	0.237595	-0.079482	-0.449749
H166	H	0.461164	-0.097484	-0.172732
H167	H	1.047453	0.300253	-0.078034
H168	H	0.423436	-0.107392	0.032314
C169	C	1.065592	0.028958	0.531087
C170	C	1.046312	0.104458	0.554831
C171	C	1.098575	0.160510	0.506008
H172	H	1.118308	0.020104	0.542022
H173	H	1.061395	0.024629	0.470922
H174	H	1.050517	0.108786	0.614982
H175	H	0.993606	0.113338	0.543893
H176	H	1.094377	0.156181	0.445842
H177	H	1.151287	0.151648	0.516946
H178	H	1.085496	0.211744	0.522105
C179	C	0.827836	-0.224032	0.139370
C180	C	0.781031	-0.273789	0.201904
C181	C	0.732894	-0.324982	0.160376
H182	H	0.794607	-0.194354	0.106525
H183	H	0.860168	-0.254698	0.101634
H184	H	0.748703	-0.243127	0.239624
H185	H	0.814240	-0.303484	0.234752
H186	H	0.765225	-0.355648	0.122641
H187	H	0.699670	-0.295298	0.127532
H188	H	0.701137	-0.358753	0.202798
H189	H	1.060088	0.152372	-0.078961
H190	H	1.096525	0.529967	-0.081691
H191	H	0.848955	0.398938	-0.063259
H192	H	1.043667	0.005212	0.709062
H193	H	1.007802	-0.032829	0.409553
H194	H	0.876780	-0.172022	0.450052
