data_functionalizedCrystal
_audit_creation_method	'MofGen! by Chris Wilmer'
_symmetry_space_group_name_H-M	'P1'
_symmetry_Int_Tables_number	1
_symmetry_cell_setting	triclinic
loop_
_symmetry_equiv_pos_as_xyz
  x,y,z
_cell_length_a	16.120530
_cell_length_b	12.759394
_cell_length_c	12.759387
_cell_angle_alpha	89.968340
_cell_angle_beta	87.079824
_cell_angle_gamma	87.110477
loop_
_atom_site_label
_atom_site_type_symbol
_atom_site_fract_x
_atom_site_fract_y
_atom_site_fract_z
Zn1	Zn	1.274636	-0.499763	-0.675420
Zn2	Zn	1.274549	-0.675475	-0.499733
Zn3	Zn	1.135210	-0.490895	-0.490851
Zn4	Zn	1.135204	-0.666480	-0.666471
O5	O	1.204900	-0.583153	-0.583119
O6	O	1.391292	-0.530547	-0.659578
O7	O	1.256032	-0.651043	-0.351531
O8	O	1.153744	-0.345053	-0.515363
O9	O	1.391228	-0.659642	-0.530501
O10	O	1.256180	-0.351568	-0.650965
O11	O	1.153660	-0.515433	-0.345006
O12	O	1.018542	-0.506711	-0.506685
O13	O	1.153733	-0.644311	-0.814681
O14	O	1.018537	-0.635712	-0.635712
O15	O	1.256174	-0.521825	-0.821257
O16	O	1.256026	-0.821300	-0.521822
O17	O	1.153649	-0.814692	-0.644324
C18	C	1.204850	-0.856117	-0.583090
C19	C	1.204905	-0.972898	-0.583118
C20	C	0.988289	-0.569274	-0.569264
C21	C	0.895622	-0.563362	-0.563362
C22	C	1.311589	-0.979731	-0.455663
C23	C	1.364953	-1.038010	-0.391949
C24	C	1.365002	-1.147734	-0.391980
C25	C	1.311683	-1.199182	-0.455735
C26	C	1.258319	-1.140904	-0.519449
C27	C	1.258274	-1.031177	-0.519408
C28	C	1.151640	-1.134071	-0.646908
C29	C	1.151585	-1.024346	-0.646873
C30	C	1.098321	-1.185519	-0.710663
C31	C	1.044951	-1.127240	-0.774373
C32	C	1.044904	-1.017509	-0.774338
C33	C	1.098221	-0.966067	-0.710586
C34	C	0.725959	-0.552543	-0.552595
C35	C	0.684681	-0.613840	-0.613719
C36	C	0.590274	-0.607821	-0.607728
C37	C	0.820374	-0.558562	-0.558584
C38	C	1.422356	-0.597087	-0.597028
C39	C	1.515023	-0.603025	-0.602956
C40	C	1.204963	-0.583054	-0.857156
C41	C	1.204990	-0.583012	-0.973935
C42	C	1.204973	-0.309124	-0.583172
C43	C	1.205004	-0.192350	-0.583194
C44	C	1.311668	-0.455477	-0.980802
C45	C	1.365019	-0.391694	-1.039097
C46	C	1.365039	-0.391657	-1.148820
C47	C	1.311701	-0.455407	-1.200250
C48	C	1.258350	-0.519190	-1.141955
C49	C	1.258338	-0.519222	-1.032230
C50	C	1.151669	-0.646718	-1.135087
C51	C	1.151651	-0.646762	-1.025365
C52	C	1.098331	-0.710468	-1.186517
C53	C	1.044983	-0.774258	-1.128222
C54	C	1.044965	-0.774293	-1.018493
C55	C	1.098300	-0.710545	-0.967069
C56	C	1.204885	-0.583179	-0.310150
C57	C	1.205020	-0.582936	-0.193383
H58	H	1.311544	-0.890387	-0.455616
H59	H	1.408445	-0.339788	-0.997211
H60	H	0.690399	-0.495550	-0.495769
H61	H	1.098368	-1.274863	-0.710689
O62	O	0.993166	-0.836156	-0.961707
C63	C	1.004599	-0.822547	-0.853834
H64	H	1.031931	-0.743229	-0.840612
H65	H	1.048968	-0.887728	-0.825530
C66	C	0.886661	-0.924197	-0.808336
C67	C	0.920225	-0.826773	-0.792094
H68	H	0.834616	-0.926808	-0.770250
H69	H	0.878960	-0.933370	-0.881012
H70	H	0.923643	-0.978504	-0.784749
H71	H	0.883248	-0.772470	-0.815692
H72	H	0.927918	-0.817591	-0.719421
O73	O	1.098353	-0.710628	-1.293102
C74	C	1.119753	-0.812677	-1.331103
H75	H	1.105475	-0.872294	-1.266942
H76	H	1.188932	-0.819343	-1.355000
C77	C	1.086504	-0.761392	-1.505806
C78	C	1.068961	-0.834615	-1.427005
H79	H	1.055177	-0.774924	-1.564966
H80	H	1.072090	-0.692638	-1.480206
H81	H	1.144154	-0.766954	-1.525708
H82	H	1.011314	-0.829042	-1.407096
H83	H	1.083365	-0.903369	-1.452605
O84	O	1.416904	-0.329848	-1.205571
C85	C	1.470753	-0.393105	-1.272455
H86	H	1.441324	-0.470831	-1.286982
H87	H	1.532527	-0.408623	-1.234127
C88	C	1.522024	-0.240778	-1.359826
C89	C	1.485877	-0.336240	-1.377675
H90	H	1.531357	-0.205700	-1.424729
H91	H	1.485748	-0.198160	-1.314763
H92	H	1.573499	-0.253724	-1.327883
H93	H	1.434398	-0.323292	-1.409604
H94	H	1.522145	-0.378854	-1.422746
H95	H	1.311735	-1.288527	-0.455765
O96	O	0.993216	-0.836326	-1.178067
C97	C	1.011413	-0.942219	-1.152430
H98	H	1.043450	-0.946487	-1.074818
H99	H	1.054274	-0.980328	-1.216927
C100	C	0.890767	-0.995402	-1.237466
C101	C	0.930109	-1.000645	-1.142137
H102	H	0.840616	-1.031445	-1.231121
H103	H	0.878509	-0.924061	-1.254742
H104	H	0.926493	-1.027159	-1.291204
H105	H	0.894388	-0.968878	-1.088404
H106	H	0.942360	-1.071983	-1.124852
O107	O	0.726971	-0.681875	-0.681602
C108	C	0.669998	-0.737711	-0.737235
H109	H	0.607907	-0.690799	-0.737094
H110	H	0.660740	-0.816874	-0.698037
C111	C	0.780403	-0.812755	-0.851320
C112	C	0.704145	-0.755132	-0.851154
H113	H	0.801467	-0.823506	-0.921589
H114	H	0.818788	-0.775140	-0.813837
H115	H	0.772678	-0.878718	-0.818649
H116	H	0.711872	-0.689167	-0.883812
H117	H	0.665762	-0.792736	-0.888646
H118	H	1.098182	-0.876724	-0.710544
H119	H	1.098295	-0.710572	-0.877728
H120	H	1.408367	-0.996111	-0.340042
H121	H	1.408460	-1.195185	-0.340105
H122	H	1.311715	-0.455362	-1.289592
O123	O	0.993190	-1.177379	-0.836201
C124	C	1.004698	-1.286722	-0.822595
H125	H	1.032040	-1.303497	-0.743295
H126	H	1.049090	-1.320594	-0.887804
C127	C	0.886788	-1.317146	-0.924167
C128	C	0.920363	-1.337749	-0.826764
H129	H	0.834768	-1.348624	-0.926743
H130	H	0.879036	-1.243480	-0.933338
H131	H	0.923789	-1.345373	-0.978497
H132	H	0.883367	-1.309511	-0.772438
H133	H	0.928107	-1.411412	-0.817585
H134	H	1.001451	-0.970064	-0.826225
H135	H	1.311665	-0.455511	-0.891461
