data_functionalizedCrystal
_audit_creation_method	'MofGen! by Chris Wilmer'
_symmetry_space_group_name_H-M	'P1'
_symmetry_Int_Tables_number	1
_symmetry_cell_setting	triclinic
loop_
_symmetry_equiv_pos_as_xyz
  x,y,z
_cell_length_a	10.654550
_cell_length_b	23.532407
_cell_length_c	9.730223
_cell_angle_alpha	89.994043
_cell_angle_beta	89.996251
_cell_angle_gamma	83.666790
loop_
_atom_site_label
_atom_site_type_symbol
_atom_site_fract_x
_atom_site_fract_y
_atom_site_fract_z
O1	O	1.665300	0.079982	-0.114418
O2	O	1.299580	0.087603	-0.114398
O3	O	1.493468	0.000933	-0.114384
O4	O	1.471412	0.166652	-0.114433
O5	O	1.493466	0.000935	0.114196
O6	O	1.299578	0.087605	0.114182
O7	O	1.665298	0.079985	0.114161
Zn8	Zn	1.482437	0.083795	0.150464
Zn9	Zn	1.482440	0.083792	-0.150700
O10	O	1.471409	0.166655	0.114147
C11	C	1.252799	0.087044	-0.000105
C12	C	1.113408	0.085370	-0.000096
C13	C	1.032306	0.136400	-0.000131
C14	C	0.901335	0.134824	-0.000154
C15	C	0.932582	0.031183	-0.000113
C16	C	1.063550	0.032760	-0.000080
C17	C	1.082164	0.189010	-0.000147
C18	C	1.001060	0.240045	-0.000184
C19	C	0.870089	0.238468	-0.000207
C20	C	0.820222	0.185858	-0.000194
C21	C	1.492905	-0.020286	-0.000090
C22	C	1.491217	-0.083514	-0.000079
C23	C	1.595364	-0.481938	-0.000161
C24	C	1.593795	-0.541349	-0.000171
O25	O	1.690341	-0.577464	-0.000227
N26	N	1.478529	-0.564726	-0.000164
C27	C	1.364824	-0.528689	-0.000160
O28	O	1.266636	-0.554029	-0.000156
C29	C	1.366394	-0.469280	-0.000159
C30	C	1.481668	-0.445906	-0.000153
C31	C	1.710629	-0.458564	-0.000156
C32	C	1.712197	-0.399158	-0.000143
C33	C	1.598500	-0.363126	-0.000135
C34	C	1.483236	-0.386500	-0.000140
C35	C	1.252690	-0.433244	-0.000165
C36	C	1.254270	-0.373832	-0.000166
C37	C	1.369544	-0.350458	-0.000159
C38	C	1.371107	-0.291061	-0.000119
N39	N	1.486374	-0.267684	-0.000126
C40	C	1.600070	-0.303716	-0.000134
C41	C	1.361535	-0.653453	-0.000163
C42	C	1.359964	-0.712861	-0.000154
C43	C	1.588936	-0.725517	-0.000168
C44	C	1.590506	-0.666108	-0.000167
C45	C	1.476802	-0.630076	-0.000171
C46	C	1.603355	-0.178958	-0.000106
C47	C	1.604913	-0.119546	-0.000087
C48	C	1.375942	-0.106896	-0.000081
C49	C	1.374383	-0.166303	-0.000092
C50	C	1.488100	-0.202333	-0.000109
O51	O	1.274613	-0.254911	-0.000068
O52	O	1.698241	-0.278369	-0.000157
C53	C	1.712079	0.080543	-0.000135
C54	C	1.851469	0.082217	-0.000152
C55	C	1.471972	0.187873	-0.000149
C56	C	1.473661	0.251101	-0.000169
N57	N	1.482444	0.083797	0.356000
N58	N	1.482443	0.083786	-0.356237
C59	C	1.568320	0.045432	0.427932
C60	C	1.568317	0.045425	0.571815
C61	C	1.396559	0.122152	0.571821
C62	C	1.396557	0.122156	0.427941
C63	C	1.654207	0.007073	0.355992
C64	C	1.740090	-0.031294	0.427924
C65	C	1.740087	-0.031301	0.571807
C66	C	1.654201	0.007059	0.643758
H67	H	1.041671	0.282878	-0.000183
C68	C	1.730204	-0.094280	-0.000157
C69	C	1.829434	-0.138556	-0.000209
C70	C	1.944864	-0.115305	-0.000295
H71	H	1.735760	-0.071381	0.079536
H72	H	1.735645	-0.071378	-0.079897
H73	H	1.823995	-0.161448	0.079523
H74	H	1.823919	-0.161458	-0.079896
H75	H	1.950306	-0.092403	-0.080034
H76	H	1.950408	-0.092407	0.079399
H77	H	2.012206	-0.145342	-0.000342
C78	C	1.654060	0.007190	0.199777
C79	C	1.560492	0.049008	0.152178
C80	C	1.560333	0.049141	0.008282
H81	H	1.637295	-0.029245	0.167047
H82	H	1.734193	0.015357	0.167184
H83	H	1.480377	0.040837	0.184757
H84	H	1.577236	0.085449	0.184870
H85	H	1.640466	0.057308	-0.024311
H86	H	1.543570	0.012704	-0.024435
H87	H	1.496856	0.077517	-0.024032
C88	C	1.151406	-0.022706	-0.000125
C89	C	1.079714	-0.069117	-0.000170
C90	C	1.160604	-0.120222	-0.000227
H91	H	1.203156	-0.024325	0.079576
H92	H	1.203148	-0.024274	-0.079856
H93	H	1.027995	-0.067550	0.079553
H94	H	1.027967	-0.067516	-0.079865
H95	H	1.212346	-0.121790	-0.079959
H96	H	1.212350	-0.121835	0.079475
H97	H	1.111973	-0.151718	-0.000271
H98	H	0.891969	-0.011650	-0.000125
H99	H	1.810008	-0.062545	0.630373
C100	C	1.238113	-0.614308	-0.000429
C101	C	1.232294	-0.579834	-0.118042
C102	C	1.118611	-0.543776	-0.118345
H103	H	1.233839	-0.590820	0.079191
H104	H	1.169212	-0.636724	-0.000497
H105	H	1.301176	-0.557420	-0.117962
H106	H	1.236546	-0.603307	-0.197681
H107	H	1.049710	-0.566192	-0.118413
H108	H	1.114347	-0.520292	-0.038721
H109	H	1.114642	-0.520385	-0.198150
C110	C	1.715569	-0.640655	-0.000389
C111	C	1.723153	-0.606904	-0.117974
C112	C	1.838339	-0.583445	-0.118220
H113	H	1.783160	-0.670568	-0.000461
H114	H	1.720957	-0.617713	0.079279
H115	H	1.717777	-0.629845	-0.197621
H116	H	1.655589	-0.576982	-0.117926
H117	H	1.843728	-0.560503	-0.038552
H118	H	1.905921	-0.613362	-0.118289
H119	H	1.843495	-0.560538	-0.197993
H120	H	1.695954	-0.208288	-0.000125
C121	C	1.303265	0.163710	0.650113
C122	C	1.226807	0.133047	0.732754
C123	C	1.140864	0.171312	0.804908
H124	H	1.251994	0.186576	0.586825
H125	H	1.348108	0.187596	0.706313
H126	H	1.181967	0.109171	0.676559
H127	H	1.278042	0.110183	0.796067
H128	H	1.185706	0.195199	0.861108
H129	H	1.089602	0.194176	0.741610
H130	H	1.088985	0.150514	0.860998
C131	C	1.833187	-0.073045	0.349918
C132	C	1.813481	-0.129087	0.384927
C133	C	1.899207	-0.167570	0.313099
H134	H	1.916968	-0.066588	0.373447
H135	H	1.820907	-0.067598	0.253906
H136	H	1.825772	-0.134533	0.480918
H137	H	1.729717	-0.135563	0.361395
H138	H	1.886927	-0.162123	0.217087
H139	H	1.982983	-0.161108	0.336634
H140	H	1.885841	-0.205599	0.336833
C141	C	1.303179	0.163718	0.349762
C142	C	1.226676	0.133056	0.267199
C143	C	1.140625	0.171322	0.195177
H144	H	1.347899	0.187631	0.293513
H145	H	1.251962	0.186556	0.413171
H146	H	1.277887	0.110228	0.203798
H147	H	1.181929	0.109146	0.323414
H148	H	1.089408	0.194161	0.258585
H149	H	1.185355	0.195233	0.138936
H150	H	1.088700	0.150524	0.139159
H151	H	1.158822	-0.452264	-0.000179
H152	H	1.188805	0.190300	-0.000134
C153	C	1.837394	-0.373820	-0.000436
C154	C	1.906053	-0.392078	-0.118061
C155	C	2.021390	-0.368748	-0.118392
H156	H	1.884328	-0.386149	0.079176
H157	H	1.822119	-0.333274	-0.000506
H158	H	1.921332	-0.432615	-0.117978
H159	H	1.859158	-0.379750	-0.197692
H160	H	2.006116	-0.328202	-0.118463
H161	H	2.068312	-0.381078	-0.038776
H162	H	2.067985	-0.381128	-0.198205
H163	H	1.803219	-0.487896	-0.000167
H164	H	0.804057	0.280023	-0.000223
H165	H	1.654197	0.007046	0.760917
H166	H	0.713576	0.184578	-0.000191
H167	H	1.266096	-0.731887	-0.000135
H168	H	1.681514	-0.754865	-0.000180
H169	H	1.161675	-0.344497	-0.000171
H170	H	1.280517	-0.185334	-0.000059
H171	H	1.283373	-0.077548	-0.000069
