data_functionalizedCrystal
_audit_creation_method	'MofGen! by Chris Wilmer'
_symmetry_space_group_name_H-M	'P1'
_symmetry_Int_Tables_number	1
_symmetry_cell_setting	triclinic
loop_
_symmetry_equiv_pos_as_xyz
  x,y,z
_cell_length_a	18.050589
_cell_length_b	18.050590
_cell_length_c	18.050582
_cell_angle_alpha	89.999872
_cell_angle_beta	89.981088
_cell_angle_gamma	90.017386
loop_
_atom_site_label
_atom_site_type_symbol
_atom_site_fract_x
_atom_site_fract_y
_atom_site_fract_z
Zn1	Zn	-0.295916	1.135299	-0.419624
Zn2	Zn	0.204084	1.635299	0.080376
Zn3	Zn	-0.420101	1.135208	-0.295444
Zn4	Zn	0.079899	1.635208	0.204556
Zn5	Zn	-0.295906	1.011116	-0.295482
Zn6	Zn	0.204094	1.511116	0.204518
Zn7	Zn	-0.420045	1.011066	-0.419626
Zn8	Zn	0.079955	1.511066	0.080374
O9	O	-0.357992	1.073172	-0.357544
O10	O	0.142008	1.573172	0.142456
O11	O	-0.312417	1.239211	-0.403134
O12	O	0.187583	1.739211	0.096866
O13	O	-0.403645	1.118730	-0.191524
O14	O	0.096355	1.618730	0.308476
O15	O	-0.191983	1.027649	-0.311965
O16	O	0.308017	1.527649	0.188035
O17	O	-0.403655	1.239144	-0.311899
O18	O	0.096345	1.739144	0.188101
O19	O	-0.191990	1.118885	-0.403172
O20	O	0.308010	1.618885	0.096828
O21	O	-0.312400	1.027560	-0.191552
O22	O	0.187600	1.527560	0.308448
O23	O	-0.312346	0.907185	-0.311967
O24	O	0.187654	1.407185	0.188033
O25	O	-0.403560	1.027563	-0.523550
O26	O	0.096440	1.527563	-0.023550
O27	O	-0.403550	0.907148	-0.403175
O28	O	0.096450	1.407148	0.096825
O29	O	-0.312363	1.118836	-0.523549
O30	O	0.187637	1.618836	-0.023549
O31	O	-0.524018	1.118681	-0.311901
O32	O	-0.024018	1.618681	0.188099
O33	O	-0.523977	1.027475	-0.403138
O34	O	-0.023977	1.527475	0.096862
C35	C	-0.357941	0.880220	-0.357576
C36	C	0.142059	1.380220	0.142424
C37	C	-0.357938	0.797674	-0.357607
C38	C	0.142062	1.297674	0.142393
C39	C	-0.407677	0.598225	-0.407088
C40	C	0.092323	1.098225	0.092912
C41	C	-0.339962	0.548832	-0.425358
C42	C	0.160038	1.048832	0.074642
C43	C	-0.357979	0.646544	-0.357571
C44	C	0.142021	1.146544	0.142429
C45	C	-0.425733	0.548855	-0.339300
C46	C	0.074267	1.048855	0.160700
C47	C	-0.358025	0.500559	-0.357537
C48	C	0.141975	1.000559	0.142463
C49	C	-0.290228	0.598238	-0.375876
C50	C	0.209772	1.098238	0.124124
C51	C	-0.376045	0.598265	-0.289787
C52	C	0.123955	1.098265	0.210213
C53	C	-0.308283	0.548895	-0.308031
C54	C	0.191717	1.048895	0.191969
C55	C	-0.357954	0.730642	-0.357592
C56	C	0.142046	1.230642	0.142408
C57	C	-0.358043	0.416462	-0.357516
C58	C	0.141957	0.916462	0.142484
C59	C	-0.550944	1.073083	-0.357532
C60	C	-0.050944	1.573083	0.142468
C61	C	-0.633490	1.073112	-0.357551
C62	C	-0.133490	1.573112	0.142449
C63	C	-0.832945	1.023563	-0.407148
C64	C	-0.332945	1.523563	0.092852
C65	C	-0.882377	1.005464	-0.339386
C66	C	-0.382377	1.505464	0.160614
C67	C	-0.784620	1.073185	-0.357561
C68	C	-0.284620	1.573185	0.142439
C69	C	-0.882271	1.091321	-0.425331
C70	C	-0.382271	1.591321	0.074669
C71	C	-0.930606	1.073254	-0.357576
C72	C	-0.430606	1.573254	0.142424
C73	C	-0.832965	1.055051	-0.289763
C74	C	-0.332965	1.555051	0.210237
C75	C	-0.832854	1.140939	-0.375754
C76	C	-0.332854	1.640939	0.124246
C77	C	-0.882263	1.122865	-0.307945
C78	C	-0.382263	1.622865	0.192055
C79	C	-0.700522	1.073144	-0.357553
C80	C	-0.200522	1.573144	0.142447
C81	C	-1.014702	1.073296	-0.357576
C82	C	-0.514702	1.573296	0.142424
C83	C	-0.164287	1.073283	-0.357573
C84	C	0.335713	1.573283	0.142427
C85	C	-0.081741	1.073330	-0.357585
C86	C	0.418259	1.573330	0.142415
C87	C	-0.357957	1.073204	-0.551250
C88	C	0.142043	1.573204	-0.051250
C89	C	-0.357942	1.073218	-0.633796
C90	C	0.142058	1.573218	-0.133796
C91	C	-0.358044	1.266878	-0.357512
C92	C	0.141956	1.766878	0.142488
C93	C	-0.358066	1.349424	-0.357499
C94	C	0.141934	1.849424	0.142501
C95	C	-0.407454	1.023630	-0.882622
C96	C	0.092546	1.523630	-0.382622
C97	C	-0.339713	1.005490	-0.833234
C98	C	0.160287	1.505490	-0.333234
C99	C	-0.357833	1.073281	-0.930916
C100	C	0.142167	1.573281	-0.430916
C101	C	-0.425623	1.091355	-0.833222
C102	C	0.074377	1.591355	-0.333222
C103	C	-0.357890	1.073248	-0.784931
C104	C	0.142110	1.573248	-0.284931
C105	C	-0.290056	1.055106	-0.882615
C106	C	0.209944	1.555106	-0.382615
C107	C	-0.376012	1.141003	-0.882608
C108	C	0.123988	1.641003	-0.382608
C109	C	-0.308224	1.122888	-0.833242
C110	C	0.191776	1.622888	-0.333242
C111	C	-0.357801	1.073298	-1.015014
C112	C	0.142199	1.573298	-0.515014
C113	C	-0.357914	1.073231	-0.700834
C114	C	0.142086	1.573231	-0.200834
C115	C	-0.357974	1.073183	-0.164592
C116	C	0.142026	1.573183	0.335408
C117	C	-0.357780	1.073313	-0.082047
C118	C	0.142220	1.573313	0.417953
H119	H	-0.483012	0.527159	-0.323863
H120	H	0.016988	1.027159	0.176137
C121	C	-0.863202	1.265804	-0.410067
C122	C	-0.363202	1.765804	0.089933
C123	C	-0.803462	1.218225	-0.396552
C124	C	-0.303462	1.718225	0.103448
H125	H	-0.845054	1.313515	-0.422918
H126	H	-0.345054	1.813515	0.077082
H127	H	-0.892913	1.269390	-0.366777
H128	H	-0.392913	1.769390	0.133223
H129	H	-0.892147	1.246778	-0.449682
H130	H	-0.392147	1.746778	0.050318
H131	H	-0.774520	1.237248	-0.356933
H132	H	-0.274520	1.737248	0.143067
H133	H	-0.773739	1.214641	-0.439847
H134	H	-0.273739	1.714641	0.060153
H135	H	-0.903929	1.106632	-0.482637
H136	H	-0.403929	1.606632	0.017363
C137	C	-0.338773	0.671415	-0.185131
C138	C	0.161227	1.171415	0.314869
C139	C	-0.396677	0.627607	-0.212444
C140	C	0.103323	1.127607	0.287556
H141	H	-0.351516	0.689526	-0.137381
H142	H	0.148484	1.189526	0.362619
H143	H	-0.330579	0.711953	-0.217669
H144	H	0.169421	1.211953	0.282331
H145	H	-0.294956	0.642471	-0.181807
H146	H	0.205044	1.142471	0.318193
H147	H	-0.440493	0.656553	-0.215773
H148	H	0.059507	1.156553	0.284227
H149	H	-0.404880	0.587063	-0.179897
H150	H	0.095120	1.087063	0.320103
C151	C	-0.160715	1.086008	-0.886270
C152	C	0.339285	1.586008	-0.386270
C153	C	-0.212673	1.034355	-0.911778
C154	C	0.287327	1.534355	-0.411778
H155	H	-0.112946	1.073197	-0.904280
H156	H	0.387054	1.573197	-0.404280
H157	H	-0.160262	1.085885	-0.833652
H158	H	0.339738	1.585885	-0.333652
H159	H	-0.173696	1.133973	-0.903590
H160	H	0.326304	1.633973	-0.403590
H161	H	-0.199696	0.986392	-0.894453
H162	H	0.300304	1.486392	-0.394453
H163	H	-0.213124	1.034471	-0.964407
H164	H	0.286876	1.534471	-0.464407
C165	C	-0.445232	0.602522	-0.534609
C166	C	0.054768	1.102522	-0.034609
C167	C	-0.464312	0.627478	-0.463677
C168	C	0.035688	1.127478	0.036323
H169	H	-0.480191	0.620588	-0.569544
H170	H	0.019809	1.120588	-0.069544
H171	H	-0.445330	0.549907	-0.535297
H172	H	0.054670	1.049907	-0.035297
H173	H	-0.397237	0.620160	-0.547095
H174	H	0.102763	1.120160	-0.047095
H175	H	-0.512305	0.609836	-0.451189
H176	H	-0.012305	1.109836	0.048811
H177	H	-0.464221	0.680104	-0.462987
H178	H	0.035779	1.180104	0.037013
C179	C	-0.269960	1.250261	-0.830179
C180	C	0.230040	1.750261	-0.330179
C181	C	-0.251548	1.179551	-0.804148
C182	C	0.248452	1.679551	-0.304148
H183	H	-0.234966	1.285237	-0.812219
H184	H	0.265034	1.785237	-0.312219
H185	H	-0.318042	1.263219	-0.813173
H186	H	0.181958	1.763219	-0.313173
H187	H	-0.269346	1.250282	-0.882803
H188	H	0.230654	1.750282	-0.382803
H189	H	-0.252167	1.179529	-0.751525
H190	H	0.247833	1.679529	-0.251525
H191	H	-0.203454	1.166590	-0.821151
H192	H	0.296546	1.666590	-0.321151
C193	C	-0.955054	1.143236	-0.198474
C194	C	-0.455054	1.643236	0.301526
C195	C	-0.911323	1.179553	-0.251282
C196	C	-0.411323	1.679553	0.248718
H197	H	-0.972998	1.178232	-0.163495
H198	H	-0.472998	1.678232	0.336505
H199	H	-0.926117	1.106942	-0.173713
H200	H	-0.426117	1.606942	0.326287
H201	H	-0.995712	1.119915	-0.222402
H202	H	-0.495712	1.619915	0.277598
H203	H	-0.870661	1.202870	-0.227355
H204	H	-0.370661	1.702870	0.272645
H205	H	-0.940261	1.215861	-0.276046
H206	H	-0.440261	1.715861	0.223954
C207	C	-0.444804	0.896028	-0.886976
C208	C	0.055196	1.396028	-0.386976
C209	C	-0.463997	0.966928	-0.911902
C210	C	0.036003	1.466928	-0.411902
H211	H	-0.479707	0.861022	-0.905058
H212	H	0.020293	1.361022	-0.405058
H213	H	-0.444905	0.895317	-0.834361
H214	H	0.055095	1.395317	-0.334361
H215	H	-0.396788	0.883657	-0.904618
H216	H	0.103212	1.383657	-0.404618
H217	H	-0.512011	0.979301	-0.894256
H218	H	-0.012011	1.479301	-0.394256
H219	H	-0.463904	0.967641	-0.964528
H220	H	0.036096	1.467641	-0.464528
C221	C	-0.248935	0.545519	-0.522329
C222	C	0.251065	1.045519	-0.022329
C223	C	-0.319355	0.519516	-0.502722
C224	C	0.180645	1.019516	-0.002722
H225	H	-0.236221	0.527425	-0.570093
H226	H	0.263779	1.027425	-0.070093
H227	H	-0.213608	0.528629	-0.487194
H228	H	0.286392	1.028629	0.012806
H229	H	-0.249222	0.598141	-0.523008
H230	H	0.250778	1.098141	-0.023008
H231	H	-0.319066	0.466894	-0.502037
H232	H	0.180934	0.966894	-0.002037
H233	H	-0.354690	0.536401	-0.537866
H234	H	0.145310	1.036401	-0.037866
H235	H	-0.324357	0.948205	-0.811546
H236	H	0.175643	1.448205	-0.311546
C237	C	-0.213567	0.704962	-0.396677
C238	C	0.286433	1.204962	0.103323
C239	C	-0.212881	0.627392	-0.396817
C240	C	0.287119	1.127392	0.103183
H241	H	-0.165818	0.722959	-0.409611
H242	H	0.334182	1.222959	0.090389
H243	H	-0.226458	0.722294	-0.348692
H244	H	0.273542	1.222294	0.151308
H245	H	-0.248883	0.722238	-0.431644
H246	H	0.251117	1.222238	0.068356
H247	H	-0.177569	0.610116	-0.361845
H248	H	0.322431	1.110116	0.138155
H249	H	-0.199981	0.610054	-0.444809
H250	H	0.300019	1.110054	0.055191
C251	C	-0.460570	1.213043	-0.955708
C252	C	0.039430	1.713043	-0.455708
C253	C	-0.396768	1.218310	-0.911919
C254	C	0.103232	1.718310	-0.411919
H255	H	-0.473386	1.260770	-0.973808
H256	H	0.026614	1.760770	-0.473808
H257	H	-0.500194	1.194016	-0.926761
H258	H	-0.000194	1.694016	-0.426761
H259	H	-0.451393	1.180781	-0.996261
H260	H	0.048607	1.680781	-0.496261
H261	H	-0.405946	1.250569	-0.871363
H262	H	0.094054	1.750569	-0.371363
H263	H	-0.357135	1.237348	-0.940868
H264	H	0.142865	1.737348	-0.440868
C265	C	-0.550851	1.124137	-0.863745
C266	C	-0.050851	1.624137	-0.363745
C267	C	-0.502982	1.112023	-0.803936
C268	C	-0.002982	1.612023	-0.303936
H269	H	-0.598608	1.136898	-0.845665
H270	H	-0.098608	1.636898	-0.345665
H271	H	-0.554183	1.080325	-0.892697
H272	H	-0.054183	1.580325	-0.392697
H273	H	-0.532232	1.163414	-0.893427
H274	H	-0.032232	1.663414	-0.393427
H275	H	-0.521598	1.072742	-0.774257
H276	H	-0.021598	1.572742	-0.274257
H277	H	-0.499652	1.155841	-0.774972
H278	H	0.000348	1.655841	-0.274972
C279	C	-0.198787	0.476140	-0.287937
C280	C	0.301213	0.976140	0.212063
C281	C	-0.251512	0.519828	-0.251484
C282	C	0.248488	1.019828	0.248516
H283	H	-0.163741	0.458191	-0.253029
H284	H	0.336259	0.958191	0.246971
H285	H	-0.174093	0.505107	-0.324283
H286	H	0.325907	1.005107	0.175717
H287	H	-0.222770	0.435484	-0.311212
H288	H	0.277230	0.935484	0.188788
H289	H	-0.227529	0.560487	-0.228214
H290	H	0.272471	1.060487	0.271786
H291	H	-0.276208	0.490860	-0.215125
H292	H	0.223792	0.990860	0.284875
C293	C	-0.828706	0.895954	-0.444449
C294	C	-0.328706	1.395954	0.055551
C295	C	-0.803702	0.966835	-0.463677
C296	C	-0.303702	1.466835	0.036323
H297	H	-0.810647	0.860933	-0.479343
H298	H	-0.310647	1.360933	0.020657
H299	H	-0.881321	0.895280	-0.444533
H300	H	-0.381321	1.395280	0.055467
H301	H	-0.811094	0.883575	-0.396433
H302	H	-0.311094	1.383575	0.103567
H303	H	-0.821319	0.979216	-0.511691
H304	H	-0.321319	1.479216	-0.011691
H305	H	-0.751076	0.967511	-0.463600
H306	H	-0.251076	1.467511	0.036400
C307	C	-0.954445	0.933195	-0.254031
C308	C	-0.454445	1.433195	0.245969
C309	C	-0.911748	0.928158	-0.318613
C310	C	-0.411748	1.428158	0.181387
H311	H	-0.972571	0.885468	-0.241210
H312	H	-0.472571	1.385468	0.258790
H313	H	-0.994973	0.965708	-0.262294
H314	H	-0.494973	1.465708	0.237706
H315	H	-0.924741	0.951816	-0.214787
H316	H	-0.424741	1.451816	0.285213
H317	H	-0.941453	0.909542	-0.357859
H318	H	-0.441453	1.409542	0.142141
H319	H	-0.871214	0.895634	-0.310354
H320	H	-0.371214	1.395634	0.189646
C321	C	-0.726285	1.034403	-0.213082
C322	C	-0.226285	1.534403	0.286918
C323	C	-0.803855	1.034284	-0.212380
C324	C	-0.303855	1.534284	0.287620
H325	H	-0.708315	1.021576	-0.165312
H326	H	-0.208315	1.521576	0.334688
H327	H	-0.708921	1.082354	-0.226073
H328	H	-0.208921	1.582354	0.273927
H329	H	-0.709013	0.999349	-0.248332
H330	H	-0.209013	1.499349	0.251668
H331	H	-0.821127	1.069342	-0.177134
H332	H	-0.321127	1.569342	0.322866
H333	H	-0.821226	0.986327	-0.199380
H334	H	-0.321226	1.486327	0.300620
