data_functionalizedCrystal
_audit_creation_method	'MofGen! by Chris Wilmer'
_symmetry_space_group_name_H-M	'P1'
_symmetry_Int_Tables_number	1
_symmetry_cell_setting	triclinic
loop_
_symmetry_equiv_pos_as_xyz
  x,y,z
_cell_length_a	12.645331
_cell_length_b	12.645330
_cell_length_c	12.759387
_cell_angle_alpha	89.970586
_cell_angle_beta	89.983850
_cell_angle_gamma	90.016927
loop_
_atom_site_label
_atom_site_type_symbol
_atom_site_fract_x
_atom_site_fract_y
_atom_site_fract_z
Zn1	Zn	1.620736	-0.422005	-0.593893
Zn2	Zn	1.620616	-0.599307	-0.418218
Zn3	Zn	1.443449	-0.422056	-0.418243
Zn4	Zn	1.443432	-0.599225	-0.593870
O5	O	1.532058	-0.510648	-0.506056
O6	O	1.769067	-0.445538	-0.570588
O7	O	1.597071	-0.575850	-0.271200
O8	O	1.467023	-0.273702	-0.441564
O9	O	1.768979	-0.575801	-0.441520
O10	O	1.597275	-0.273665	-0.570613
O11	O	1.466907	-0.445624	-0.271219
O12	O	1.295099	-0.445544	-0.441542
O13	O	1.466995	-0.575660	-0.740894
O14	O	1.295087	-0.575710	-0.570574
O15	O	1.597259	-0.445458	-0.740911
O16	O	1.597055	-0.747644	-0.441498
O17	O	1.466879	-0.747583	-0.570549
C18	C	1.256628	-0.510624	-0.506059
C19	C	1.138798	-0.510640	-0.506085
C20	C	0.971262	-0.592975	-0.586836
C21	C	1.093822	-0.592710	-0.587173
C22	C	1.094320	-0.398982	-0.536333
C23	C	0.971722	-0.399485	-0.536902
C24	C	0.971552	-0.539062	-0.394829
C25	C	1.094158	-0.541503	-0.395429
C26	C	1.531981	-0.786078	-0.506041
C27	C	1.532045	-0.903908	-0.506070
C28	C	1.450488	-1.071478	-0.587506
C29	C	1.450071	-0.948919	-0.587245
C30	C	1.501798	-0.948511	-0.395351
C31	C	1.501301	-1.071109	-0.395845
C32	C	1.644346	-1.070997	-0.534455
C33	C	1.643658	-0.948389	-0.536877
C34	C	1.808563	-0.510673	-0.506054
C35	C	1.926393	-0.510684	-0.506053
C36	C	1.532138	-0.510544	-0.780090
C37	C	1.532172	-0.510500	-0.896866
C38	C	1.532165	-0.234143	-0.506094
C39	C	1.532210	-0.116313	-0.506110
C40	C	1.667826	-0.374929	-0.896904
C41	C	1.735667	-0.307128	-0.951783
C42	C	1.735693	-0.307089	-1.061505
C43	C	1.667868	-0.374857	-1.116350
C44	C	1.600026	-0.442658	-1.061470
C45	C	1.600010	-0.442692	-0.951746
C46	C	1.464369	-0.578222	-1.061433
C47	C	1.464347	-0.578268	-0.951711
C48	C	1.396544	-0.645990	-1.116278
C49	C	1.328706	-0.713798	-1.061398
C50	C	1.328684	-0.713835	-0.951670
C51	C	1.396506	-0.646069	-0.896832
C52	C	1.532039	-0.510675	-0.233089
C53	C	1.532211	-0.510421	-0.116312
H54	H	0.942041	-0.335973	-0.480762
C55	C	1.133679	-0.313895	-0.459343
H56	H	1.177696	-0.345787	-0.407947
H57	H	1.074812	-0.281533	-0.426037
H58	H	1.172833	-0.261880	-0.496549
H59	H	1.707751	-0.917744	-0.481908
C60	C	1.726602	-1.110162	-0.454377
H61	H	1.794198	-1.082512	-0.471910
H62	H	1.729127	-1.185229	-0.455564
H63	H	1.707227	-1.086889	-0.386247
C64	C	1.133424	-0.652504	-0.364607
H65	H	1.106150	-0.670725	-0.297601
H66	H	1.208507	-0.652726	-0.362256
H67	H	1.109825	-0.702548	-0.414947
H68	H	1.125046	-0.374475	-0.616762
H69	H	1.123894	-0.675510	-0.568216
H70	H	1.667821	-0.374964	-0.807562
H71	H	1.396499	-0.646097	-0.807490
H72	H	1.667886	-0.374810	-1.205691
H73	H	0.940630	-0.619094	-0.367335
C74	C	0.931415	-0.705202	-0.561522
H75	H	0.887051	-0.702881	-0.501465
H76	H	0.990065	-0.750105	-0.548017
H77	H	0.892518	-0.731853	-0.619468
C78	C	1.578199	-1.111187	-0.311112
H79	H	1.609598	-1.052539	-0.276534
H80	H	1.631822	-1.152857	-0.342912
H81	H	1.540599	-1.152877	-0.261594
C82	C	1.254106	-0.788333	-1.121722
H83	H	1.213696	-0.828718	-1.073326
H84	H	1.294643	-0.834509	-1.164527
H85	H	1.207938	-0.747746	-1.164520
H86	H	1.366939	-0.919684	-0.568466
H87	H	1.124774	-0.485915	-0.332011
H88	H	1.559433	-0.919358	-0.333047
H89	H	0.940471	-0.574437	-0.668769
H90	H	1.666467	-0.919233	-0.618360
H91	H	1.469239	-1.100883	-0.669874
H92	H	0.942534	-0.479121	-0.334639
C93	C	1.133479	-0.567323	-0.698500
H94	H	1.074661	-0.557122	-0.743693
H95	H	1.175194	-0.624417	-0.723590
H96	H	1.175034	-0.504745	-0.696899
C97	C	1.338883	-1.113219	-0.562477
H98	H	1.289998	-1.085759	-0.612028
H99	H	1.318994	-1.091400	-0.494026
H100	H	1.338805	-1.188262	-0.565956
C101	C	1.392210	-0.907179	-0.362325
H102	H	1.364742	-0.862754	-0.415854
H103	H	1.398536	-0.868058	-0.299098
H104	H	1.345731	-0.965236	-0.351672
H105	H	1.273428	-0.769036	-0.906993
C106	C	1.810273	-0.232593	-0.891453
H107	H	1.800552	-0.242331	-0.818247
H108	H	1.794802	-0.161356	-0.909445
H109	H	1.881499	-0.248127	-0.909440
H110	H	1.468995	-0.918758	-0.669343
H111	H	0.943148	-0.375416	-0.618212
H112	H	1.419328	-1.099801	-0.371831
C113	C	1.681618	-1.112646	-0.641670
H114	H	1.629132	-1.158066	-0.670151
H115	H	1.745761	-1.150774	-0.633160
H116	H	1.692929	-1.054786	-0.687856
H117	H	1.790929	-0.251873	-1.106187
H118	H	1.396566	-0.645949	-1.205619
