data_functionalizedCrystal
_audit_creation_method	'MofGen! by Chris Wilmer'
_symmetry_space_group_name_H-M	'P1'
_symmetry_Int_Tables_number	1
_symmetry_cell_setting	triclinic
loop_
_symmetry_equiv_pos_as_xyz
  x,y,z
_cell_length_a	10.967819
_cell_length_b	10.489746
_cell_length_c	10.065875
_cell_angle_alpha	98.879142
_cell_angle_beta	69.228723
_cell_angle_gamma	84.627777
loop_
_atom_site_label
_atom_site_type_symbol
_atom_site_fract_x
_atom_site_fract_y
_atom_site_fract_z
O1	O	1.740680	0.093295	-0.522891
O2	O	1.363388	0.124947	-0.434157
O3	O	1.560614	-0.076811	-0.480532
O4	O	1.543454	0.295052	-0.476516
O5	O	1.523007	-0.038188	-0.244700
O6	O	1.325781	0.163569	-0.198326
O7	O	1.703073	0.131917	-0.287059
Zn8	Zn	1.508456	0.153875	-0.205249
Zn9	Zn	1.558005	0.102989	-0.515967
O10	O	1.505847	0.333674	-0.240685
C11	C	1.296272	0.144872	-0.304879
C12	C	1.152316	0.146686	-0.271022
C13	C	0.958841	0.129371	-0.343130
C14	C	1.107627	0.127488	-0.378114
C15	C	1.540513	-0.104980	-0.362311
C16	C	1.536630	-0.246458	-0.361399
C17	C	1.408845	-0.394320	-0.331362
C18	C	1.491275	-0.338469	-0.462662
C19	C	1.454228	-0.300433	-0.230158
C20	C	1.612229	-0.442709	-0.491215
C21	C	1.575147	-0.404661	-0.258602
C22	C	1.657671	-0.348867	-0.389951
C23	C	1.770190	0.111991	-0.416341
C24	C	1.914147	0.110176	-0.450207
C25	C	1.525949	0.361844	-0.358909
C26	C	1.529833	0.503319	-0.359830
N27	N	1.474650	0.188603	0.006805
N28	N	1.591821	0.068251	-0.728024
C29	C	1.546234	0.115064	0.057752
C30	C	1.520226	0.141800	0.221035
H31	H	1.179509	0.109667	-0.495694
C32	C	1.266751	-0.422192	-0.298096
N33	N	1.159729	-0.443189	-0.273047
C34	C	1.011256	0.086090	-0.609046
N35	N	1.084399	0.067944	-0.728687
H36	H	1.455877	-0.309095	-0.548954
C37	C	1.700643	-0.043549	0.167605
N38	N	1.782609	-0.127752	0.088991
H39	H	1.080434	0.164522	-0.153441
H40	H	1.610498	-0.434056	-0.172295
H41	H	1.394104	0.271352	0.084071
C42	C	1.702375	-0.525646	-0.640388
N43	N	1.770267	-0.588116	-0.752745
H44	H	0.886955	0.147205	-0.225558
C45	C	1.799913	-0.321378	-0.423483
N46	N	1.907051	-0.300672	-0.448745
C47	C	1.364024	-0.217297	-0.081119
N48	N	1.296074	-0.154684	0.031135
C49	C	1.655022	0.003244	-0.046619
N50	N	1.736956	-0.080987	-0.125228
H51	H	1.439675	0.224555	0.298296
