data_functionalizedCrystal
_audit_creation_method	'MofGen! by Chris Wilmer'
_symmetry_space_group_name_H-M	'P1'
_symmetry_Int_Tables_number	1
_symmetry_cell_setting	triclinic
loop_
_symmetry_equiv_pos_as_xyz
  x,y,z
_cell_length_a	21.295419
_cell_length_b	21.295417
_cell_length_c	13.897441
_cell_angle_alpha	89.964625
_cell_angle_beta	89.978117
_cell_angle_gamma	90.044503
loop_
_atom_site_label
_atom_site_type_symbol
_atom_site_fract_x
_atom_site_fract_y
_atom_site_fract_z
Zn1	Zn	0.962343	-0.250341	-0.545379
Zn2	Zn	1.462343	0.249659	-0.045379
Zn3	Zn	0.962251	-0.355620	-0.384067
Zn4	Zn	1.462251	0.144380	0.115933
Zn5	Zn	0.857071	-0.250395	-0.384094
Zn6	Zn	1.357071	0.249605	0.115906
Zn7	Zn	0.857037	-0.355603	-0.545316
Zn8	Zn	1.357037	0.144397	-0.045316
O9	O	0.909675	-0.302990	-0.464714
O10	O	1.409675	0.197010	0.035286
O11	O	1.050420	-0.264290	-0.523995
O12	O	1.550420	0.235710	-0.023995
O13	O	0.948275	-0.341691	-0.249089
O14	O	1.448275	0.158309	0.250911
O15	O	0.871088	-0.162299	-0.405526
O16	O	1.371088	0.337701	0.094474
O17	O	1.050353	-0.341638	-0.405480
O18	O	1.550353	0.158362	0.094520
O19	O	0.948430	-0.162258	-0.524022
O20	O	1.448430	0.337742	-0.024022
O21	O	0.870999	-0.264383	-0.249109
O22	O	1.370999	0.235617	0.250891
O23	O	0.768977	-0.264367	-0.405466
O24	O	1.268977	0.235633	0.094534
O25	O	0.871030	-0.341610	-0.680306
O26	O	1.371030	0.158390	-0.180306
O27	O	0.768952	-0.341663	-0.523915
O28	O	1.268952	0.158337	-0.023915
O29	O	0.948398	-0.264274	-0.680352
O30	O	1.448398	0.235726	-0.180352
O31	O	0.948242	-0.443707	-0.405419
O32	O	1.448242	0.056293	0.094581
O33	O	0.870941	-0.443695	-0.523889
O34	O	1.370941	0.056305	-0.023889
C35	C	0.746124	-0.303020	-0.464687
C36	C	1.246124	0.196980	0.035313
C37	C	0.676156	-0.303048	-0.464698
C38	C	1.176156	0.196952	0.035302
C39	C	0.909595	-0.466541	-0.464665
C40	C	1.409595	0.033459	0.035335
C41	C	0.909618	-0.536509	-0.464677
C42	C	1.409618	-0.036509	0.035323
C43	C	0.643346	-0.262839	-0.526505
C44	C	1.143346	0.237161	-0.026505
C45	C	0.577604	-0.262822	-0.526508
C46	C	1.077604	0.237178	-0.026508
C47	C	0.544673	-0.303025	-0.464716
C48	C	1.044673	0.196975	0.035284
C49	C	0.577490	-0.343237	-0.402898
C50	C	1.077490	0.156763	0.097102
C51	C	0.643232	-0.343249	-0.402889
C52	C	1.143232	0.156751	0.097111
N53	N	0.441399	-0.358104	-0.457179
N54	N	0.941399	0.141896	0.042821
N55	N	0.378947	-0.358091	-0.457193
N56	N	0.878947	0.141909	0.042807
C57	C	0.346598	-0.302993	-0.464737
C58	C	0.846598	0.197007	0.035263
N59	N	0.379060	-0.247906	-0.472286
N60	N	0.879060	0.252094	0.027714
N61	N	0.441517	-0.247919	-0.472277
N62	N	0.941517	0.252081	0.027723
C63	C	0.473388	-0.303017	-0.464718
C64	C	0.973388	0.196983	0.035282
C65	C	0.242504	-0.262762	-0.526551
C66	C	0.742504	0.237238	-0.026551
C67	C	0.176760	-0.262744	-0.526548
C68	C	0.676760	0.237256	-0.026548
C69	C	0.176648	-0.343165	-0.402942
C70	C	0.676648	0.156835	0.097058
C71	C	0.242390	-0.343177	-0.402940
C72	C	0.742390	0.156823	0.097060
C73	C	0.275314	-0.302977	-0.464750
C74	C	0.775314	0.197023	0.035250
C75	C	0.949868	-0.569298	-0.526421
C76	C	1.449868	-0.069298	-0.026421
C77	C	0.949890	-0.635040	-0.526445
C78	C	1.449890	-0.135040	-0.026445
C79	C	0.909669	-0.667992	-0.464707
C80	C	1.409669	-0.167992	0.035293
C81	C	0.869412	-0.635195	-0.402958
C82	C	1.369412	-0.135195	0.097042
C83	C	0.869387	-0.569454	-0.402943
C84	C	1.369387	-0.069454	0.097057
N85	N	0.904912	-0.771260	-0.380290
N86	N	1.404912	-0.271260	0.119710
N87	N	0.904940	-0.833711	-0.380307
N88	N	1.404940	-0.333711	0.119693
C89	C	0.909743	-0.866066	-0.464751
C90	C	1.409743	-0.366066	0.035249
N91	N	0.914529	-0.833611	-0.549178
N92	N	1.414529	-0.333611	-0.049178
N93	N	0.914504	-0.771154	-0.549160
N94	N	1.414504	-0.271154	-0.049160
C95	C	0.909692	-0.739277	-0.464717
C96	C	1.409692	-0.239277	0.035283
C97	C	0.950019	-0.970141	-0.526526
C98	C	1.450019	-0.470141	-0.026526
C99	C	0.950036	-1.035884	-0.526552
C100	C	1.450036	-0.535884	-0.026552
C101	C	0.869562	-1.036038	-0.403056
C102	C	1.369562	-0.536038	0.096944
C103	C	0.869541	-0.970296	-0.403039
C104	C	1.369541	-0.470296	0.096961
C105	C	0.909772	-0.937351	-0.464773
C106	C	1.409772	-0.437351	0.035227
C107	C	1.073866	-0.302960	-0.464742
C108	C	1.573866	0.197040	0.035258
C109	C	1.143834	-0.302947	-0.464754
C110	C	1.643834	0.197053	0.035246
C111	C	0.909720	-0.302934	-0.716307
C112	C	1.409720	0.197066	-0.216307
C113	C	0.909739	-0.302910	-0.823521
C114	C	1.409739	0.197090	-0.323521
C115	C	0.909773	-0.138799	-0.464784
C116	C	1.409773	0.361201	0.035216
C117	C	0.909815	-0.068831	-0.464814
C118	C	1.409815	0.431169	0.035186
C119	C	0.909756	-0.302868	-1.019816
C120	C	1.409756	0.197132	-0.519816
C121	C	0.909745	-0.302893	-0.910584
C122	C	1.409745	0.197107	-0.410584
C123	C	0.909667	-0.303000	-0.214100
C124	C	1.409667	0.197000	0.285900
C125	C	0.909770	-0.302846	-0.106886
C126	C	1.409770	0.197154	0.393114
H127	H	0.670149	-0.230103	-0.576834
H128	H	1.170149	0.269897	-0.076834
C129	C	0.833864	-1.136879	-0.348252
C130	C	1.333864	-0.636879	0.151748
C131	C	0.825346	-1.072251	-0.335197
C132	C	1.325346	-0.572251	0.164803
H133	H	0.806566	-1.159236	-0.306356
H134	H	1.306566	-0.659236	0.193644
H135	H	0.824635	-1.147624	-0.413046
H136	H	1.324635	-0.647624	0.086954
H137	H	0.876169	-1.147608	-0.334190
H138	H	1.376169	-0.647608	0.165810
H139	H	0.783042	-1.061521	-0.349266
H140	H	1.283042	-0.561521	0.150734
H141	H	0.834571	-1.061501	-0.270389
H142	H	1.334571	-0.561501	0.229611
H143	H	0.836769	-0.943597	-0.352757
H144	H	1.336769	-0.443597	0.147243
H145	H	0.550885	-0.230075	-0.576837
H146	H	1.050885	0.269925	-0.076837
H147	H	0.836663	-0.662029	-0.352693
H148	H	1.336663	-0.162029	0.147307
H149	H	0.550674	-0.375971	-0.352585
H150	H	1.050674	0.124029	0.147415
C151	C	0.958543	-0.495297	-0.656171
C152	C	1.458543	0.004703	-0.156171
C153	C	0.994084	-0.533086	-0.594287
C154	C	1.494084	-0.033086	-0.094287
H155	H	0.985841	-0.472939	-0.698065
H156	H	1.485841	0.027061	-0.198065
H157	H	0.931119	-0.520959	-0.693029
H158	H	1.431119	-0.020959	-0.193029
H159	H	0.934572	-0.466359	-0.619384
H160	H	1.434572	0.033641	-0.119384
H161	H	1.018051	-0.562028	-0.631074
H162	H	1.518051	-0.062028	-0.131074
H163	H	1.021519	-0.507422	-0.557425
H164	H	1.521519	-0.007422	-0.057425
C165	C	0.636516	-0.422741	-0.280714
C166	C	1.136516	0.077259	0.219286
C167	C	0.679300	-0.387455	-0.334954
C168	C	1.179300	0.112545	0.165046
H169	H	0.658785	-0.450036	-0.238781
H170	H	1.158785	0.049964	0.261219
H171	H	0.610894	-0.395281	-0.243896
H172	H	1.110894	0.104719	0.256104
H173	H	0.610860	-0.446846	-0.322685
H174	H	1.110860	0.053154	0.177315
H175	H	0.704953	-0.363347	-0.292984
H176	H	1.204953	0.136653	0.207016
H177	H	0.704932	-0.414919	-0.371776
H178	H	1.204932	0.085081	0.128224
H179	H	0.269312	-0.230024	-0.576874
H180	H	0.769312	0.269976	-0.076874
H181	H	0.150048	-0.229997	-0.576876
H182	H	0.650048	0.270003	-0.076876
H183	H	0.269104	-0.375923	-0.352615
H184	H	0.769104	0.124077	0.147385
C185	C	0.075825	-0.378862	-0.348080
C186	C	0.575825	0.121138	0.151920
C187	C	0.140458	-0.387361	-0.335021
C188	C	0.640458	0.112639	0.164979
H189	H	0.053482	-0.406150	-0.306150
H190	H	0.553482	0.093850	0.193850
H191	H	0.065090	-0.336559	-0.334077
H192	H	0.565090	0.163441	0.165923
H193	H	0.065069	-0.388122	-0.412870
H194	H	0.565069	0.111878	0.087130
H195	H	0.151215	-0.378096	-0.270233
H196	H	0.651215	0.121904	0.229767
H197	H	0.151197	-0.429673	-0.349018
H198	H	0.651197	0.070327	0.150982
C199	C	1.029431	-0.628292	-0.648516
C200	C	1.529431	-0.128292	-0.148516
C201	C	0.994129	-0.671092	-0.594328
C202	C	1.494129	-0.171092	-0.094328
H203	H	1.056742	-0.650548	-0.690422
H204	H	1.556742	-0.150548	-0.190422
H205	H	1.001982	-0.602662	-0.685361
H206	H	1.501982	-0.102662	-0.185361
H207	H	1.053520	-0.602645	-0.606510
H208	H	1.553520	-0.102645	-0.106510
H209	H	0.970037	-0.696735	-0.636334
H210	H	1.470037	-0.196735	-0.136334
H211	H	1.021582	-0.696732	-0.557480
H212	H	1.521582	-0.196732	-0.057480
C213	C	0.789844	-0.576211	-0.280876
C214	C	1.289844	-0.076211	0.219124
C215	C	0.825145	-0.533409	-0.335062
C216	C	1.325145	-0.033409	0.164938
H217	H	0.762535	-0.553956	-0.238965
H218	H	1.262535	-0.053956	0.261035
H219	H	0.765760	-0.601855	-0.322875
H220	H	1.265760	-0.101855	0.177125
H221	H	0.817299	-0.601843	-0.244027
H222	H	1.317299	-0.101843	0.255973
H223	H	0.797691	-0.507780	-0.371916
H224	H	1.297691	-0.007780	0.128084
H225	H	0.849231	-0.507754	-0.293057
H226	H	1.349231	-0.007754	0.206943
C227	C	1.029554	-0.976589	-0.648615
C228	C	1.529554	-0.476589	-0.148615
C229	C	0.994228	-0.933922	-0.594400
C230	C	1.494228	-0.433922	-0.094400
H231	H	1.056842	-0.954230	-0.690524
H232	H	1.556842	-0.454230	-0.190524
H233	H	1.053661	-1.002221	-0.606635
H234	H	1.553661	-0.502221	-0.106635
H235	H	1.002113	-1.002246	-0.685469
H236	H	1.502113	-0.502246	-0.185469
H237	H	1.021668	-0.908268	-0.557540
H238	H	1.521668	-0.408268	-0.057540
H239	H	0.970118	-0.908280	-0.636385
H240	H	1.470118	-0.408280	-0.136385
H241	H	0.982812	-1.062580	-0.576836
H242	H	1.482812	-0.562580	-0.076836
