data_functionalizedCrystal
_audit_creation_method	'MofGen! by Chris Wilmer'
_symmetry_space_group_name_H-M	'P1'
_symmetry_Int_Tables_number	1
_symmetry_cell_setting	triclinic
loop_
_symmetry_equiv_pos_as_xyz
  x,y,z
_cell_length_a	16.959455
_cell_length_b	16.625545
_cell_length_c	16.959447
_cell_angle_alpha	90.030053
_cell_angle_beta	89.979626
_cell_angle_gamma	89.978943
loop_
_atom_site_label
_atom_site_type_symbol
_atom_site_fract_x
_atom_site_fract_y
_atom_site_fract_z
Zn1	Zn	1.208362	0.321050	-0.447038
Zn2	Zn	1.708362	0.821050	0.052962
Zn3	Zn	1.208275	0.455897	-0.314860
Zn4	Zn	1.708275	0.955897	0.185140
Zn5	Zn	1.076191	0.321075	-0.314861
Zn6	Zn	1.576191	0.821075	0.185139
Zn7	Zn	1.076146	0.455837	-0.446984
Zn8	Zn	1.576146	0.955837	0.053016
O9	O	1.142244	0.388465	-0.380936
O10	O	1.642244	0.888465	0.119064
O11	O	1.318961	0.338952	-0.429526
O12	O	1.818961	0.838952	0.070474
O13	O	1.190736	0.438049	-0.204249
O14	O	1.690736	0.938049	0.295751
O15	O	1.093778	0.208239	-0.332418
O16	O	1.593778	0.708239	0.167582
O17	O	1.318898	0.438024	-0.332415
O18	O	1.818898	0.938024	0.167585
O19	O	1.190884	0.208221	-0.429527
O20	O	1.690884	0.708221	0.070473
O21	O	1.093694	0.338995	-0.204250
O22	O	1.593694	0.838995	0.295750
O23	O	0.965574	0.338937	-0.332366
O24	O	1.465574	0.838937	0.167634
O25	O	1.093702	0.437921	-0.557602
O26	O	1.593702	0.937921	-0.057602
O27	O	0.965541	0.437946	-0.429436
O28	O	1.465541	0.937946	0.070564
O29	O	1.190841	0.338894	-0.557642
O30	O	1.690841	0.838894	-0.057642
O31	O	1.190693	0.568722	-0.332364
O32	O	1.690693	1.068722	0.167636
O33	O	1.093618	0.568677	-0.429435
O34	O	1.593618	1.068677	0.070565
C35	C	0.936877	0.388439	-0.380896
C36	C	1.436877	0.888439	0.119104
C37	C	0.849021	0.388447	-0.380898
C38	C	1.349021	0.888447	0.119102
C39	C	0.477501	0.440000	-0.330345
C40	C	0.977501	0.940000	0.169655
C41	C	0.477589	0.336996	-0.431623
C42	C	0.977589	0.836996	0.068377
C43	C	0.560135	0.336983	-0.431604
C44	C	1.060135	0.836983	0.068396
C45	C	0.601368	0.388480	-0.380955
C46	C	1.101368	0.888480	0.119045
C47	C	0.560055	0.439990	-0.330325
C48	C	1.060055	0.939990	0.169675
C49	C	0.601454	0.285479	-0.482239
C50	C	1.101454	0.785479	0.017761
C51	C	0.684005	0.285464	-0.482222
C52	C	1.184005	0.785464	0.017778
C53	C	0.725239	0.336958	-0.431568
C54	C	1.225239	0.836958	0.068432
C55	C	0.683921	0.388470	-0.380936
C56	C	1.183921	0.888470	0.119064
C57	C	0.725154	0.439967	-0.330287
C58	C	1.225154	0.939967	0.169713
C59	C	0.683838	0.491476	-0.279650
C60	C	1.183838	0.991476	0.220350
C61	C	0.601289	0.491484	-0.279672
C62	C	1.101289	0.991484	0.220328
C63	C	0.807788	0.336950	-0.431547
C64	C	1.307788	0.836950	0.068453
C65	C	0.807708	0.439957	-0.330268
C66	C	1.307708	0.939957	0.169732
C67	C	1.142163	0.597956	-0.380911
C68	C	1.642163	1.097956	0.119089
C69	C	1.142201	0.687577	-0.380926
C70	C	1.642201	1.187577	0.119074
C71	C	1.142330	1.015752	-0.381021
C72	C	1.642330	1.515752	0.118979
C73	C	1.142292	0.924444	-0.380996
C74	C	1.642292	1.424444	0.119004
C75	C	1.142265	0.851667	-0.380973
C76	C	1.642265	1.351667	0.119027
C77	C	1.142228	0.760353	-0.380950
C78	C	1.642228	1.260353	0.119050
C79	C	1.348412	0.388492	-0.380976
C80	C	1.848412	0.888492	0.119024
C81	C	1.436268	0.388503	-0.380994
C82	C	1.936268	0.888503	0.119006
C83	C	1.142339	1.178156	-0.380988
C84	C	1.642339	1.678156	0.119012
C85	C	1.142363	1.088535	-0.381034
C86	C	1.642363	1.588535	0.118966
C87	C	1.142276	0.388398	-0.587104
C88	C	1.642276	0.888398	-0.087104
C89	C	1.142290	0.388370	-0.674961
C90	C	1.642290	0.888370	-0.174961
C91	C	1.091809	0.439844	-1.046419
C92	C	1.591809	0.939844	-0.546419
C93	C	1.192961	0.336726	-1.046455
C94	C	1.692961	0.836726	-0.546455
C95	C	1.192939	0.336743	-0.963909
C96	C	1.692939	0.836743	-0.463909
C97	C	1.142353	0.388312	-0.922614
C98	C	1.642353	0.888312	-0.422614
C99	C	1.091788	0.439864	-0.963865
C100	C	1.591788	0.939864	-0.463865
C101	C	1.243509	0.285197	-0.922651
C102	C	1.743509	0.785197	-0.422651
C103	C	1.243491	0.285213	-0.840100
C104	C	1.743491	0.785213	-0.340100
C105	C	1.192900	0.336779	-0.798804
C106	C	1.692900	0.836779	-0.298804
C107	C	1.142332	0.388332	-0.840060
C108	C	1.642332	0.888332	-0.340060
C109	C	1.091746	0.439902	-0.798766
C110	C	1.591746	0.939902	-0.298766
C111	C	1.041174	0.491452	-0.840020
C112	C	1.541174	0.991452	-0.340020
C113	C	1.041198	0.491430	-0.922569
C114	C	1.541198	0.991430	-0.422569
C115	C	1.192877	0.336800	-0.716256
C116	C	1.692877	0.836800	-0.216256
C117	C	1.091725	0.439922	-0.716212
C118	C	1.591725	0.939922	-0.216212
C119	C	1.142256	0.388473	-0.175570
C120	C	1.642256	0.888473	0.324430
C121	C	1.142395	0.388274	-0.087713
C122	C	1.642395	0.888274	0.412287
H123	H	0.444012	0.295074	-0.472864
H124	H	0.944012	0.795074	0.027136
H125	H	1.234150	0.294745	-1.080082
H126	H	1.734150	0.794745	-0.580082
C127	C	0.675791	0.183641	-0.582329
C128	C	1.175791	0.683641	-0.082329
C129	C	0.729416	0.228840	-0.537872
C130	C	1.229416	0.728840	-0.037872
H131	H	0.703828	0.148679	-0.616679
H132	H	1.203828	0.648679	-0.116679
H133	H	0.643609	0.218813	-0.612514
H134	H	1.143609	0.718813	-0.112514
H135	H	0.643574	0.152767	-0.547942
H136	H	1.143574	0.652767	-0.047942
H137	H	0.761628	0.259719	-0.572259
H138	H	1.261628	0.759719	-0.072259
H139	H	0.761610	0.193663	-0.507685
H140	H	1.261610	0.693663	-0.007685
H141	H	0.567876	0.243558	-0.523479
H142	H	1.067876	0.743558	-0.023479
H143	H	1.050632	0.481812	-1.080012
H144	H	1.550632	0.981812	-0.580012
C145	C	1.282093	0.148668	-0.948113
C146	C	1.782093	0.648668	-0.448113
C147	C	1.299112	0.228518	-0.968045
C148	C	1.799112	0.728518	-0.468045
H149	H	1.316424	0.113677	-0.976138
H150	H	1.816424	0.613677	-0.476138
H151	H	1.228999	0.136861	-0.961638
H152	H	1.728999	0.636861	-0.461638
H153	H	1.289327	0.141310	-0.893046
H154	H	1.789327	0.641310	-0.393046
H155	H	1.291872	0.235878	-1.023111
H156	H	1.791872	0.735878	-0.523111
H157	H	1.352218	0.240329	-0.954526
H158	H	1.852218	0.740329	-0.454526
H159	H	0.999990	0.533443	-0.806387
H160	H	1.499990	1.033443	-0.306387
C161	C	1.203895	0.228373	-0.623450
C162	C	1.703895	0.728373	-0.123450
C163	C	1.248461	0.280146	-0.670905
C164	C	1.748461	0.780146	-0.170905
H165	H	1.238214	0.193399	-0.595450
H166	H	1.738214	0.693399	-0.095450
H167	H	1.169492	0.197515	-0.655660
H168	H	1.669492	0.697515	-0.155660
H169	H	1.173763	0.259094	-0.587047
H170	H	1.673763	0.759094	-0.087047
H171	H	1.278587	0.249425	-0.707312
H172	H	1.778587	0.749425	-0.207312
H173	H	1.282877	0.311007	-0.638692
H174	H	1.782877	0.811007	-0.138692
H175	H	1.050524	0.481909	-0.682596
H176	H	1.550524	0.981909	-0.182596
C177	C	0.900506	0.548393	-0.319077
C178	C	1.400506	1.048393	0.180923
C179	C	0.853031	0.496565	-0.274593
C180	C	1.353031	0.996565	0.225407
H181	H	0.928489	0.583336	-0.284705
H182	H	1.428489	1.083336	0.215295
H183	H	0.868312	0.579280	-0.353460
H184	H	1.368312	1.079280	0.146540
H185	H	0.936924	0.517710	-0.349226
H186	H	1.436924	1.017710	0.150774
H187	H	0.816609	0.527249	-0.244449
H188	H	1.316609	1.027249	0.255551
H189	H	0.885228	0.465675	-0.240197
H190	H	1.385228	0.965675	0.259803
C191	C	0.996323	0.537188	-1.049093
C192	C	1.496323	1.037188	-0.549093
C193	C	0.985616	0.548093	-0.967917
C194	C	1.485616	1.048093	-0.467917
H195	H	0.962013	0.572174	-1.077090
H196	H	1.462013	1.072174	-0.577090
H197	H	0.984784	0.483014	-1.062631
H198	H	1.484784	0.983014	-0.562631
H199	H	1.049433	0.548994	-1.062612
H200	H	1.549433	1.048994	-0.562612
H201	H	0.932508	0.536282	-0.954398
H202	H	1.432508	1.036282	-0.454398
H203	H	0.997149	0.602280	-0.954374
H204	H	1.497149	1.102280	-0.454374
H205	H	1.284669	0.243237	-0.806518
H206	H	1.784669	0.743237	-0.306518
C207	C	0.900686	0.325883	-0.537866
C208	C	1.400686	0.825883	-0.037866
C209	C	0.853204	0.280341	-0.487203
C210	C	1.353204	0.780341	0.012797
H211	H	0.928720	0.290931	-0.572230
H212	H	1.428720	0.790931	-0.072230
H213	H	0.937052	0.356539	-0.507695
H214	H	1.437052	0.856539	-0.007695
H215	H	0.868484	0.361055	-0.568043
H216	H	1.368484	0.861055	-0.068043
H217	H	0.885406	0.245172	-0.457022
H218	H	1.385406	0.745172	0.042978
H219	H	0.816833	0.249671	-0.517378
H220	H	1.316833	0.749671	-0.017378
H221	H	0.717420	0.533409	-0.238416
H222	H	1.217420	1.033409	0.261584
C223	C	0.474710	0.537242	-0.234742
C224	C	0.974710	1.037242	0.265258
C225	C	0.555873	0.548104	-0.224022
C226	C	1.055873	1.048104	0.275978
H227	H	0.446672	0.572202	-0.200390
H228	H	0.946672	1.072202	0.299610
H229	H	0.461192	0.483061	-0.223267
H230	H	0.961192	0.983061	0.276733
H231	H	0.461223	0.549110	-0.287837
H232	H	0.961223	1.049110	0.212163
H233	H	0.569361	0.536230	-0.170928
H234	H	1.069361	1.036230	0.329072
H235	H	0.569397	0.602298	-0.235491
H236	H	1.069397	1.102298	0.264509
H237	H	0.443858	0.481935	-0.289115
H238	H	0.943858	0.981935	0.210885
