data_functionalizedCrystal
_audit_creation_method	'MofGen! by Chris Wilmer'
_symmetry_space_group_name_H-M	'P1'
_symmetry_Int_Tables_number	1
_symmetry_cell_setting	triclinic
loop_
_symmetry_equiv_pos_as_xyz
  x,y,z
_cell_length_a	13.032831
_cell_length_b	12.759400
_cell_length_c	13.032268
_cell_angle_alpha	82.848512
_cell_angle_beta	89.113023
_cell_angle_gamma	82.818273
loop_
_atom_site_label
_atom_site_type_symbol
_atom_site_fract_x
_atom_site_fract_y
_atom_site_fract_z
Zn1	Zn	1.498533	-0.709536	0.780860
Zn2	Zn	1.520287	-0.866072	0.608886
Zn3	Zn	1.348388	-0.665647	0.587100
Zn4	Zn	1.326535	-0.860392	0.759011
O5	O	1.423436	-0.775412	0.683964
O6	O	1.645341	-0.751047	0.776309
O7	O	1.515734	-0.823495	0.462079
O8	O	1.368347	-0.524456	0.612829
O9	O	1.661324	-0.866053	0.649961
O10	O	1.478658	-0.556702	0.755184
O11	O	1.389441	-0.676243	0.446073
O12	O	1.201567	-0.670734	0.591643
O13	O	1.331101	-0.856371	0.905827
O14	O	1.185512	-0.813813	0.717945
O15	O	1.457467	-0.745538	0.921879
O16	O	1.494544	-1.012331	0.628774
O17	O	1.352195	-1.008158	0.739070
C18	C	1.156222	-0.736896	0.650059
C19	C	1.041904	-0.720446	0.635579
C20	C	0.983032	-0.783997	0.691522
C21	C	0.864878	-0.766997	0.676557
C22	C	1.423384	-1.048369	0.683941
C23	C	1.423452	-1.165159	0.683978
C24	C	1.480851	-1.236733	0.758152
C25	C	1.480895	-1.346467	0.758183
C26	C	1.366140	-1.313042	0.609857
C27	C	1.366090	-1.203310	0.609831
C28	C	1.538212	-1.198582	0.832298
C29	C	1.595617	-1.270158	0.906478
C30	C	1.595661	-1.379892	0.906509
C31	C	1.538301	-1.418050	0.832361
C32	C	1.691693	-0.814079	0.718002
C33	C	1.806009	-0.830557	0.732507
C34	C	1.389420	-0.805217	0.952213
C35	C	1.374924	-0.817918	1.066524
C36	C	1.423513	-0.501395	0.684014
C37	C	1.423546	-0.384625	0.684035
C38	C	1.457379	-0.745655	0.416767
C39	C	1.472074	-0.732687	0.302482
C40	C	1.430985	-0.768743	1.125430
C41	C	1.416005	-0.781869	1.243577
H42	H	0.827811	-0.699995	0.617584
H43	H	1.004832	-0.653449	0.576610
O44	O	1.027076	-0.863943	0.761957
C45	C	0.999482	-1.010366	0.890777
C46	C	0.949471	-0.919853	0.811059
H47	H	0.936764	-1.055609	0.930482
H48	H	1.042929	-0.975438	0.951024
H49	H	1.055799	-1.067109	0.849780
H50	H	0.893109	-0.863078	0.851965
H51	H	0.906090	-0.954855	0.750816
H52	H	0.843073	-0.897550	0.791491
H53	H	1.538185	-1.109234	0.832280
H54	H	1.642311	-1.239083	0.966852
H55	H	1.642394	-1.438166	0.966916
O56	O	1.310523	-1.350287	0.537875
C57	C	1.259699	-1.504523	0.472217
C58	C	1.322747	-1.462490	0.553783
H59	H	1.269543	-1.595242	0.485063
H60	H	1.288334	-1.476437	0.391576
H61	H	1.174474	-1.472992	0.479671
H62	H	1.407984	-1.494002	0.546425
H63	H	1.294026	-1.490566	0.634391
O64	O	1.345369	-0.843556	1.287683
C65	C	1.166257	-0.873028	1.298508
C66	C	1.246135	-0.803065	1.248495
H67	H	1.086011	-0.840331	1.266829
H68	H	1.166645	-0.872583	1.385924
H69	H	1.186999	-0.958023	1.279745
H70	H	1.225449	-0.718040	1.267179
H71	H	1.245731	-0.803602	1.161093
H72	H	1.319350	-1.145033	0.549433
O73	O	1.501468	-0.707002	1.081095
C74	C	1.580593	-0.637545	0.922908
C75	C	1.500749	-0.707516	0.972981
H76	H	1.580022	-0.637920	0.835488
H77	H	1.660898	-0.670273	0.954415
H78	H	1.559915	-0.552573	0.941755
H79	H	1.521330	-0.792504	0.954154
H80	H	1.420466	-0.674701	0.941471
H81	H	1.538329	-1.507404	0.832402
O82	O	1.304293	-0.879602	1.110635
C83	C	1.125180	-0.909074	1.121460
C84	C	1.205059	-0.839111	1.071447
H85	H	1.044935	-0.876377	1.089780
H86	H	1.125569	-0.908628	1.208875
H87	H	1.145923	-0.994068	1.102696
H88	H	1.184372	-0.754085	1.090130
H89	H	1.204655	-0.839647	0.984044
O90	O	1.542539	-0.670917	1.258150
C91	C	1.621617	-0.601399	1.099960
C92	C	1.541811	-0.671415	1.150034
H93	H	1.621039	-0.601760	1.012539
H94	H	1.701935	-0.634096	1.131453
H95	H	1.600907	-0.516435	1.118821
H96	H	1.562425	-0.756394	1.131193
H97	H	1.461516	-0.638630	1.118538
