data_functionalizedCrystal
_audit_creation_method	'MofGen! by Chris Wilmer'
_symmetry_space_group_name_H-M	'P1'
_symmetry_Int_Tables_number	1
_symmetry_cell_setting	triclinic
loop_
_symmetry_equiv_pos_as_xyz
  x,y,z
_cell_length_a	14.908520
_cell_length_b	17.077404
_cell_length_c	17.077396
_cell_angle_alpha	90.019501
_cell_angle_beta	93.268321
_cell_angle_gamma	86.679062
loop_
_atom_site_label
_atom_site_type_symbol
_atom_site_fract_x
_atom_site_fract_y
_atom_site_fract_z
Zn1	Zn	-0.359154	-1.182024	-0.461868
Zn2	Zn	-0.510026	-1.174357	-0.338173
Zn3	Zn	-0.359186	-1.050754	-0.330617
Zn4	Zn	-0.509972	-1.043152	-0.469394
O5	O	-0.434584	-1.112572	-0.400013
O6	O	-0.379177	-1.290853	-0.445472
O7	O	-0.490052	-1.157933	-0.227326
O8	O	-0.232937	-1.074557	-0.341715
O9	O	-0.490021	-1.285220	-0.354594
O10	O	-0.232913	-1.171001	-0.438145
O11	O	-0.379231	-1.067123	-0.221774
O12	O	-0.379179	-0.939899	-0.349014
O13	O	-0.489930	-1.061601	-0.578241
O14	O	-0.489961	-0.934314	-0.450973
O15	O	-0.379125	-1.163629	-0.572711
O16	O	-0.636263	-1.150562	-0.361892
O17	O	-0.636224	-1.054166	-0.458300
C18	C	-0.434568	-0.908625	-0.399990
C19	C	-0.434583	-0.821374	-0.400001
C20	C	-0.668978	-1.100728	-0.411750
C21	C	-0.769252	-1.095734	-0.416797
C22	C	-0.434518	-1.112622	-0.604754
C23	C	-0.434490	-1.112644	-0.692002
C24	C	-0.957658	-1.186828	-0.325973
C25	C	-1.051875	-1.182137	-0.330713
C26	C	-1.051904	-1.081667	-0.431020
C27	C	-0.957687	-1.086357	-0.426280
C28	C	-0.910568	-1.138939	-0.373754
C29	C	-0.816349	-1.143625	-0.369011
C30	C	-0.816380	-1.043159	-0.469321
C31	C	-0.910597	-1.038468	-0.474061
C32	C	-0.199276	-1.124482	-0.388248
C33	C	-0.099001	-1.129558	-0.383234
C34	C	-0.434601	-1.317315	-0.400036
C35	C	-0.434609	-1.404564	-0.400046
C36	C	-0.492354	-0.777492	-0.453014
C37	C	-0.492356	-0.695511	-0.453027
C38	C	-0.434591	-0.657414	-0.400022
C39	C	-0.376813	-0.701302	-0.347005
C40	C	-0.376807	-0.783282	-0.346997
C41	C	-0.376831	-0.530432	-0.347025
C42	C	-0.376837	-0.448447	-0.347032
C43	C	-0.492380	-0.442661	-0.453055
C44	C	-0.492374	-0.524640	-0.453047
C45	C	-0.434597	-0.568523	-0.400029
C46	C	-0.376788	-1.165772	-0.730114
C47	C	-0.376758	-1.165783	-0.812093
C48	C	-0.434435	-1.112669	-0.855959
C49	C	-0.492138	-1.059535	-0.817842
C50	C	-0.492163	-1.059521	-0.735864
C51	C	-0.492084	-1.059569	-0.988709
C52	C	-0.492061	-1.059584	-1.070693
C53	C	-0.376679	-1.165832	-1.064938
C54	C	-0.376704	-1.165818	-0.982961
C55	C	-0.434409	-1.112684	-0.944849
C56	C	-0.434585	-1.112569	-0.196065
C57	C	-0.434360	-1.112713	-0.108804
H58	H	-0.777985	-1.186437	-0.326240
H59	H	-0.329775	-0.670278	-0.303850
H60	H	-0.539060	-1.016291	-0.957681
F61	F	-0.315376	-1.222355	-0.852652
F62	F	-0.553519	-1.003004	-0.864529
F63	F	-0.553574	-1.002973	-0.695303
F64	F	-0.553439	-1.003048	-1.117376
F65	F	-0.315265	-1.222381	-1.105500
H66	H	-0.919293	-1.229636	-0.283199
H67	H	-0.329824	-1.209027	-0.694404
H68	H	-0.948974	-0.995660	-0.516828
F69	F	-1.101989	-1.233109	-0.279860
F70	F	-1.102067	-1.025720	-0.486926
F71	F	-0.315317	-0.829984	-0.290574
H72	H	-0.539421	-0.406928	-0.496226
H73	H	-0.329744	-1.209072	-0.947247
H74	H	-0.329789	-0.417431	-0.303879
H75	H	-0.329775	-0.566159	-0.303859
H76	H	-0.539396	-0.808504	-0.496175
F77	F	-0.553844	-0.648812	-0.509452
F78	F	-0.553860	-0.565184	-0.509456
F79	F	-0.766256	-0.992180	-0.520168
