data_functionalizedCrystal
_audit_creation_method	'MofGen! by Chris Wilmer'
_symmetry_space_group_name_H-M	'P1'
_symmetry_Int_Tables_number	1
_symmetry_cell_setting	triclinic
loop_
_symmetry_equiv_pos_as_xyz
  x,y,z
_cell_length_a	10.489741
_cell_length_b	16.992695
_cell_length_c	16.053802
_cell_angle_alpha	87.258926
_cell_angle_beta	92.604797
_cell_angle_gamma	87.603698
loop_
_atom_site_label
_atom_site_type_symbol
_atom_site_fract_x
_atom_site_fract_y
_atom_site_fract_z
O1	O	-1.708727	-0.107418	-0.069378
O2	O	-1.338436	-0.117807	-0.069391
O3	O	-1.522097	0.001538	-0.069378
O4	O	-1.525066	-0.226763	-0.069391
O5	O	-1.511985	-0.005004	0.069480
O6	O	-1.328324	-0.124349	0.069467
O7	O	-1.698615	-0.113960	0.069480
Zn8	Zn	-1.511864	-0.120193	0.091520
Zn9	Zn	-1.525187	-0.111574	-0.091431
O10	O	-1.514954	-0.233305	0.069467
C11	C	-1.285780	-0.120293	0.000036
C12	C	-1.143947	-0.117945	0.000031
C13	C	-1.513221	0.027501	0.000051
C14	C	-1.501826	0.114610	0.000050
C15	C	-1.751271	-0.111474	0.000051
C16	C	-1.893105	-0.113821	0.000050
C17	C	-1.069200	-0.042010	0.000044
C18	C	-0.985179	-0.074656	-0.068421
C19	C	-0.975245	-0.081123	0.068482
C20	C	-1.061799	-0.150620	-0.068490
C21	C	-1.051869	-0.157080	0.068475
C22	C	-0.967882	-0.189781	-0.000006
C23	C	-1.523830	-0.259268	0.000036
C24	C	-1.535225	-0.346377	0.000031
N25	N	-1.502781	-0.126075	0.216380
C26	C	-1.611775	0.164229	0.000055
C27	C	-1.601061	0.246077	0.000047
C28	C	-1.480396	0.278303	0.000039
C29	C	-1.370439	0.228677	0.000032
C30	C	-1.381155	0.146832	0.000035
C31	C	-1.435984	0.522152	0.000026
C32	C	-1.425276	0.604004	0.000027
C33	C	-1.655900	0.621398	0.000039
C34	C	-1.666604	0.539550	0.000047
C35	C	-1.556648	0.489931	0.000035
N36	N	-1.469442	0.361964	0.000034
N37	N	-1.567604	0.406272	0.000035
N38	N	-1.534280	-0.105686	-0.216291
C39	C	-1.580961	-0.075312	0.260079
C40	C	-1.574620	-0.079434	0.347486
C41	C	-1.490104	-0.134323	0.391191
C42	C	-1.411915	-0.185089	0.347485
C43	C	-1.418251	-0.180962	0.260081
C44	C	-1.462427	-0.152325	0.652599
C45	C	-1.456100	-0.156449	0.740009
C46	C	-1.618803	-0.050793	0.740004
C47	C	-1.625137	-0.046674	0.652597
C48	C	-1.546943	-0.097437	0.608899
N49	N	-1.483623	-0.138539	0.480534
N50	N	-1.553419	-0.093216	0.519558
H51	H	-0.955585	-0.039799	-0.126300
H52	H	-1.764862	0.513318	0.000053
H53	H	-0.937256	-0.051706	0.126364
O54	O	-1.762805	0.669523	-0.000069
C55	C	-1.961837	0.712850	-0.072034
C56	C	-1.840835	0.658296	-0.072000
H57	H	-2.024944	0.703804	-0.130192
H58	H	-2.016671	0.698308	-0.013961
H59	H	-1.933422	0.776875	-0.071998
H60	H	-1.869137	0.594253	-0.072066
H61	H	-1.786030	0.672905	-0.130068
H62	H	-1.272192	0.254923	0.000021
O63	O	-1.728890	0.132797	0.000098
C64	C	-1.847617	0.014426	0.000052
C65	C	-1.714902	0.049913	0.000027
H66	H	-1.836355	-0.052589	-0.000023
H67	H	-1.898167	0.032017	0.058178
H68	H	-1.906594	0.037589	-0.058046
H69	H	-1.655823	0.026768	0.058085
H70	H	-1.664452	0.032327	-0.058138
H71	H	-1.690593	0.286474	0.000052
O72	O	-1.329263	0.473872	0.000131
C73	C	-1.202235	0.368014	0.072086
C74	C	-1.323160	0.422635	0.072062
H75	H	-1.197247	0.326587	0.130244
H76	H	-1.205705	0.331941	0.014013
H77	H	-1.114175	0.405123	0.072043
H78	H	-1.411283	0.385586	0.072134
H79	H	-1.319578	0.458711	0.130130
H80	H	-1.113465	0.020419	-0.000038
O81	O	-1.308136	0.635410	-0.000095
C82	C	-1.167434	0.721083	-0.072066
C83	C	-1.300140	0.685585	-0.072026
H84	H	-1.160917	0.761644	-0.130225
H85	H	-1.152400	0.756283	-0.013993
H86	H	-1.090700	0.671549	-0.072035
H87	H	-1.376956	0.735069	-0.072086
H88	H	-1.315065	0.650364	-0.130094
H89	H	-1.387273	-0.201150	0.775590
H90	H	-1.693956	-0.001979	0.617014
H91	H	-1.638279	-0.038098	0.383065
H92	H	-1.398761	-0.193659	0.617026
H93	H	-1.099640	-0.179995	-0.126437
H94	H	-1.291622	0.106432	0.000031
H95	H	-1.649788	-0.030618	0.224500
H96	H	-0.923898	-0.252269	-0.000047
O97	O	-1.694682	-0.001366	0.782363
C98	C	-1.753549	0.133345	0.809160
C99	C	-1.667566	0.077453	0.761121
H100	H	-1.731637	0.197082	0.792017
H101	H	-1.858079	0.123393	0.791949
H102	H	-1.734522	0.120930	0.879133
H103	H	-1.686480	0.089835	0.691137
H104	H	-1.563063	0.087417	0.778402
O105	O	-1.329927	-0.238386	0.390067
C106	C	-1.248009	-0.291541	0.524718
C107	C	-1.340936	-0.231154	0.476602
H108	H	-1.256859	-0.285704	0.594689
H109	H	-1.272282	-0.353689	0.507579
H110	H	-1.146012	-0.279898	0.507498
H111	H	-1.442965	-0.242724	0.493796
H112	H	-1.316554	-0.169027	0.493744
H113	H	-1.081493	-0.191911	0.126357
O114	O	-1.342261	-0.230357	0.217757
C115	C	-1.180160	-0.335558	0.226982
C116	C	-1.266174	-0.279679	0.275015
H117	H	-1.118603	-0.375437	0.273254
H118	H	-1.242153	-0.373205	0.186069
H119	H	-1.115979	-0.299353	0.186053
H120	H	-1.330369	-0.315822	0.315989
H121	H	-1.204105	-0.242029	0.315875
