data_functionalizedCrystal
_audit_creation_method	'MofGen! by Chris Wilmer'
_symmetry_space_group_name_H-M	'P1'
_symmetry_Int_Tables_number	1
_symmetry_cell_setting	triclinic
loop_
_symmetry_equiv_pos_as_xyz
  x,y,z
_cell_length_a	16.109301
_cell_length_b	15.995350
_cell_length_c	15.186229
_cell_angle_alpha	89.998487
_cell_angle_beta	89.999362
_cell_angle_gamma	83.476928
loop_
_atom_site_label
_atom_site_type_symbol
_atom_site_fract_x
_atom_site_fract_y
_atom_site_fract_z
O1	O	1.103160	0.107624	-0.073168
O2	O	0.861101	0.121018	-0.073182
O3	O	0.988747	-0.007569	-0.073174
O4	O	0.975514	0.236210	-0.073176
O5	O	0.988739	-0.007570	0.073283
O6	O	0.861093	0.121016	0.073275
O7	O	1.103151	0.107622	0.073289
Zn8	Zn	0.982121	0.114319	0.096535
Zn9	Zn	0.982132	0.114321	-0.096428
O10	O	0.975505	0.236208	0.073281
C11	C	0.830122	0.120474	0.000045
C12	C	0.737826	0.118848	0.000040
C13	C	0.515573	0.191366	0.000049
C14	C	0.428853	0.189831	0.000055
C15	C	0.448686	0.037268	0.000053
C16	C	0.535405	0.038804	0.000053
C17	C	0.568846	0.115855	0.000047
C18	C	0.395406	0.112785	0.000052
C19	C	0.301380	0.111120	0.000058
C20	C	0.662879	0.117520	0.000043
C21	C	0.988196	-0.038764	0.000053
C22	C	0.986556	-0.131714	0.000048
C23	C	0.980665	-0.469460	0.000050
C24	C	0.889758	-0.422001	-0.000283
C25	C	0.891399	-0.325311	0.000047
C26	C	0.983587	-0.301900	0.000049
C27	C	1.028421	-0.342991	0.083684
C28	C	1.026137	-0.439626	0.083754
C29	C	1.028025	-0.439983	-0.082795
C30	C	1.028003	-0.343037	-0.083901
C31	C	0.985243	-0.207203	0.000051
C32	C	0.979012	-0.564157	0.000054
C33	C	1.134130	0.108166	0.000060
C34	C	1.226426	0.109792	0.000059
C35	C	0.976056	0.267404	0.000052
C36	C	0.977697	0.360354	0.000051
N37	N	0.982119	0.114317	0.228228
N38	N	0.982140	0.114317	-0.228121
C39	C	1.038660	0.057398	0.453954
C40	C	1.038662	0.057396	0.546144
C41	C	0.925593	0.171238	0.546146
C42	C	0.925587	0.171236	0.453958
C43	C	0.982125	0.114316	0.407865
C44	C	0.982134	0.114317	0.592242
C45	C	0.982136	0.114315	0.692198
C46	C	0.982122	0.114317	0.307902
H47	H	0.385481	0.251320	0.000058
C48	C	1.100849	-0.005213	0.596843
H49	H	1.092751	0.002932	0.658349
H50	H	1.156333	0.003895	0.581732
H51	H	1.091814	-0.061100	0.581735
H52	H	0.879562	0.217582	0.583685
C53	C	0.594009	-0.044262	0.000047
H54	H	0.561674	-0.090371	0.000038
H55	H	0.628251	-0.046836	0.051119
H56	H	0.628249	-0.046828	-0.051033
C57	C	0.411897	-0.047482	0.000048
H58	H	0.352620	-0.037583	0.000038
H59	H	0.430181	-0.078578	0.051119
H60	H	0.430186	-0.078565	-0.051034
C61	C	0.986349	-0.304651	0.167766
H62	H	1.013927	-0.329923	0.218027
H63	H	0.929332	-0.314606	0.168515
H64	H	0.989843	-0.245767	0.168632
C65	C	0.863398	0.233851	0.403256
H66	H	0.829735	0.267759	0.443909
H67	H	0.828790	0.203719	0.367297
H68	H	0.893309	0.268715	0.367290
H69	H	0.542798	0.254106	0.000051
H70	H	0.856156	-0.296879	-0.059906
H71	H	0.853427	-0.440522	-0.060260
C72	C	1.100847	-0.005209	0.403250
H73	H	1.092755	0.002947	0.341745
H74	H	1.091825	-0.061095	0.418360
H75	H	1.156333	0.003911	0.418358
H76	H	0.993437	-0.457919	0.146271
H77	H	0.855912	-0.297438	0.060099
C78	C	0.840886	-0.448446	0.080286
H79	H	0.875642	-0.488282	0.114128
H80	H	0.793028	-0.472977	0.061057
H81	H	0.823850	-0.400389	0.115392
H82	H	1.092880	-0.471892	0.087550
C83	C	1.119913	-0.323931	0.087897
H84	H	1.131608	-0.290661	0.038571
H85	H	1.155963	-0.375228	0.087124
H86	H	1.128607	-0.294127	0.140594
C87	C	0.987877	-0.467710	-0.168431
H88	H	0.941851	-0.497525	-0.154457
H89	H	1.027992	-0.503195	-0.201087
H90	H	0.968999	-0.419506	-0.202572
C91	C	0.983787	-0.306144	-0.167488
H92	H	0.938450	-0.265834	-0.151302
H93	H	0.963368	-0.350038	-0.200328
H94	H	1.022268	-0.279778	-0.202394
H95	H	1.095050	-0.471762	-0.083356
C96	C	1.118824	-0.322317	-0.090723
H97	H	1.130899	-0.288159	-0.042242
H98	H	1.125869	-0.292973	-0.144101
H99	H	1.155741	-0.373044	-0.090011
