data_functionalizedCrystal
_audit_creation_method	'MofGen! by Chris Wilmer'
_symmetry_space_group_name_H-M	'P1'
_symmetry_Int_Tables_number	1
_symmetry_cell_setting	triclinic
loop_
_symmetry_equiv_pos_as_xyz
  x,y,z
_cell_length_a	11.026607
_cell_length_b	19.188930
_cell_length_c	10.065875
_cell_angle_alpha	98.754308
_cell_angle_beta	79.302338
_cell_angle_gamma	95.865399
loop_
_atom_site_label
_atom_site_type_symbol
_atom_site_fract_x
_atom_site_fract_y
_atom_site_fract_z
O1	O	1.626420	0.284145	-0.113552
O2	O	1.273289	0.250876	-0.113547
O3	O	1.460041	0.167156	-0.113523
O4	O	1.439668	0.367866	-0.113576
O5	O	1.424429	0.183202	0.113461
O6	O	1.237678	0.266922	0.113437
O7	O	1.590808	0.300192	0.113432
Zn8	Zn	1.408589	0.286105	0.149473
Zn9	Zn	1.455509	0.264963	-0.149588
O10	O	1.404057	0.383912	0.113408
C11	C	1.210305	0.252761	-0.000054
C12	C	1.075688	0.234465	-0.000051
C13	C	1.001616	0.284984	-0.000065
C14	C	0.862482	0.266075	-0.000062
C15	C	1.441574	0.149084	-0.000027
C16	C	1.439591	0.071328	-0.000015
C17	C	1.549173	0.040370	-0.000010
C18	C	1.547315	-0.032693	-0.000032
C19	C	1.435865	-0.074793	-0.000031
C20	C	1.326271	-0.043828	-0.000044
C21	C	1.328134	0.029233	-0.000036
N22	N	1.338556	-0.188194	0.077217
N23	N	1.336793	-0.257598	0.077212
C24	C	1.430245	-0.294920	-0.000059
N25	N	1.525543	-0.260215	-0.077308
N26	N	1.527308	-0.190805	-0.077297
C27	C	1.433832	-0.154015	-0.000041
C28	C	1.537819	-0.405101	-0.000080
C29	C	1.535958	-0.478166	-0.000110
C30	C	1.314909	-0.489298	-0.000108
C31	C	1.316775	-0.416236	-0.000092
C32	C	1.428233	-0.374141	-0.000071
C33	C	1.653793	0.298306	-0.000064
C34	C	1.788412	0.316602	-0.000076
C35	C	1.422523	0.401983	-0.000091
C36	C	1.424508	0.479739	-0.000112
N37	N	1.376576	0.300534	0.353575
N38	N	1.487531	0.250529	-0.353689
C39	C	1.444363	0.269978	0.421362
C40	C	1.419734	0.281090	0.578527
H41	H	1.041205	0.342235	-0.000072
C42	C	1.671768	0.086673	0.000008
H43	H	1.657185	0.134620	0.000024
H44	H	1.729300	0.071399	-0.079142
H45	H	1.704441	0.082573	0.079177
H46	H	0.822903	0.208818	-0.000082
C47	C	1.667853	-0.066758	-0.000017
H48	H	1.650779	-0.116299	-0.000032
H49	H	1.701144	-0.046909	0.079143
H50	H	1.725997	-0.058088	-0.079176
C51	C	0.841874	0.393947	-0.000104
H52	H	0.928376	0.396511	-0.000115
H53	H	0.802705	0.422122	0.079039
H54	H	0.827543	0.410920	-0.079279
C55	C	1.022219	0.157123	-0.000038
H56	H	0.935721	0.154559	-0.000049
H57	H	1.036552	0.140139	0.079118
H58	H	1.061390	0.128955	-0.079200
C59	C	1.203679	-0.090134	-0.000038
H60	H	1.218260	-0.138079	-0.000028
H61	H	1.170990	-0.086038	-0.079191
H62	H	1.146156	-0.074857	0.079127
C63	C	1.207587	0.063289	-0.000028
H64	H	1.140942	0.027755	-0.000025
H65	H	1.216137	0.085975	-0.079174
H66	H	1.191302	0.097143	0.079145
C67	C	1.660417	-0.358795	-0.000072
H68	H	1.725419	-0.387701	-0.000093
H69	H	1.653322	-0.324477	0.079088
H70	H	1.678156	-0.335650	-0.079231
H71	H	1.343457	0.315475	0.636838
H72	H	1.625197	-0.503370	-0.000113
H73	H	1.224166	-0.523576	-0.000114
C74	C	1.590597	0.204093	0.567550
H75	H	1.593650	0.202728	0.472250
H76	H	1.573842	0.157513	0.590900
H77	H	1.667903	0.223408	0.590896
C78	C	1.196231	-0.382178	-0.000074
H79	H	1.129586	-0.417713	-0.000065
H80	H	1.204777	-0.359494	-0.079222
H81	H	1.179948	-0.348323	0.079097
H82	H	1.520626	0.235588	0.363048
H83	H	1.300304	0.334917	0.411891
