data_functionalizedCrystal
_audit_creation_method	'MofGen! by Chris Wilmer'
_symmetry_space_group_name_H-M	'P1'
_symmetry_Int_Tables_number	1
_symmetry_cell_setting	triclinic
loop_
_symmetry_equiv_pos_as_xyz
  x,y,z
_cell_length_a	8.497374
_cell_length_b	19.805407
_cell_length_c	19.805405
_cell_angle_alpha	89.973590
_cell_angle_beta	89.985911
_cell_angle_gamma	90.004504
loop_
_atom_site_label
_atom_site_type_symbol
_atom_site_fract_x
_atom_site_fract_y
_atom_site_fract_z
Zn1	Zn	0.892011	1.034635	0.269581
Zn2	Zn	1.392011	1.534635	0.769581
Zn3	Zn	0.628188	1.034580	0.382739
Zn4	Zn	1.128188	1.534580	0.882739
Zn5	Zn	0.628226	0.921479	0.269569
Zn6	Zn	1.128226	1.421479	0.769569
Zn7	Zn	0.891907	0.921413	0.382733
Zn8	Zn	1.391907	1.421413	0.882733
O9	O	0.760083	0.978027	0.326155
O10	O	1.260083	1.478027	0.826155
O11	O	0.857043	1.129344	0.284598
O12	O	1.357043	1.629344	0.784598
O13	O	0.407431	1.019581	0.367724
O14	O	0.907431	1.519581	0.867724
O15	O	0.663277	0.936541	0.174854
O16	O	1.163277	1.436541	0.674854
O17	O	0.663213	1.129303	0.367735
O18	O	1.163213	1.629303	0.867735
O19	O	0.857079	1.019676	0.174862
O20	O	1.357079	1.519676	0.674862
O21	O	0.407458	0.936487	0.284579
O22	O	0.907458	1.436487	0.784579
O23	O	0.663176	0.826754	0.284573
O24	O	1.163176	1.326754	0.784573
O25	O	1.112683	0.936428	0.367725
O26	O	1.612683	1.436428	0.867725
O27	O	0.856901	0.826705	0.367714
O28	O	1.356901	1.326705	0.867714
O29	O	1.112760	1.019611	0.284593
O30	O	1.612760	1.519611	0.784593
O31	O	0.663111	1.019517	0.477455
O32	O	1.163111	1.519517	0.977455
O33	O	0.856864	0.936374	0.477450
O34	O	1.356864	1.436374	0.977450
C35	C	0.760032	0.802171	0.326142
C36	C	1.260032	1.302171	0.826142
C37	C	0.760048	0.726939	0.326153
C38	C	1.260048	1.226939	0.826153
C39	C	0.860757	0.691587	0.369510
C40	C	1.360757	1.191587	0.869510
C41	C	0.860779	0.620899	0.369511
C42	C	1.360779	1.120899	0.869511
C43	C	0.760083	0.585563	0.326158
C44	C	1.260083	1.085563	0.826158
C45	C	0.659369	0.620920	0.282797
C46	C	1.159369	1.120920	0.782797
C47	C	0.659356	0.691607	0.282793
C48	C	1.159356	1.191607	0.782793
C49	C	0.659421	0.335847	0.282812
C50	C	1.159421	0.835847	0.782812
C51	C	0.659439	0.265155	0.282821
C52	C	1.159439	0.765155	0.782821
C53	C	0.860844	0.265138	0.369530
C54	C	1.360844	0.765138	0.869530
C55	C	0.860831	0.335825	0.369526
C56	C	1.360831	0.835825	0.869526
C57	C	0.760124	0.371176	0.326162
C58	C	1.260124	0.871176	0.826162
C59	C	0.760103	0.447824	0.326161
C60	C	1.260103	0.947824	0.826161
C61	C	0.760095	0.508916	0.326163
C62	C	1.260095	1.008916	0.826163
C63	C	0.760007	0.977951	0.502011
C64	C	1.260007	1.477951	1.002011
C65	C	0.760027	0.977980	0.577243
C66	C	1.260027	1.477980	1.077243
C67	C	1.171563	0.978022	0.326156
C68	C	1.671563	1.478022	0.826156
C69	C	1.350207	0.978023	0.326164
C70	C	1.850207	1.478023	0.826164
C71	C	0.760135	1.154569	0.326169
C72	C	1.260135	1.654569	0.826169
C73	C	0.760157	1.229801	0.326175
C74	C	1.260157	1.729801	0.826175
C75	C	0.760194	0.978122	0.149613
C76	C	1.260194	1.478122	0.649613
C77	C	0.760241	0.978162	0.074381
C78	C	1.260241	1.478162	0.574381
C79	C	0.659245	1.021314	0.612567
C80	C	1.159245	1.521314	1.112567
C81	C	0.659280	1.021343	0.683256
C82	C	1.159280	1.521343	1.183256
C83	C	0.760090	0.978034	0.718619
C84	C	1.260090	1.478034	1.218619
C85	C	0.860882	0.934697	0.683290
C86	C	1.360882	1.434697	1.183290
C87	C	0.860854	0.934672	0.612603
C88	C	1.360854	1.434672	1.112603
C89	C	0.860999	0.934797	0.968363
C90	C	1.360999	1.434797	1.468363
C91	C	0.861016	0.934824	1.039055
C92	C	1.361016	1.434824	1.539055
C93	C	0.659425	1.021468	1.039016
C94	C	1.159425	1.521468	1.539016
C95	C	0.659397	1.021443	0.968329
C96	C	1.159397	1.521443	1.468329
C97	C	0.760195	0.978109	0.933006
C98	C	1.260195	1.478109	1.433006
C99	C	0.760158	0.978080	0.856358
C100	C	1.260158	1.478080	1.356358
C101	C	0.760120	0.978059	0.795266
C102	C	1.260120	1.478059	1.295266
H103	H	0.577407	0.364621	0.247508
H104	H	1.077407	0.864621	0.747508
C105	C	0.548402	1.069010	0.722109
C106	C	1.048402	1.569010	1.222109
N107	N	0.464881	1.104914	0.751373
N108	N	0.964881	1.604914	1.251373
C109	C	0.548564	0.730494	0.235099
C110	C	1.048564	1.230494	0.735099
N111	N	0.465115	0.759782	0.199173
N112	N	0.965115	1.259782	0.699173
H113	H	0.943069	0.899512	0.939609
H114	H	1.443069	1.399512	1.439609
H115	H	0.577440	0.236386	0.247514
H116	H	1.077440	0.736386	0.747514
H117	H	0.943119	0.899556	1.067846
H118	H	1.443119	1.399556	1.567846
H119	H	0.942785	0.592118	0.404817
H120	H	1.442785	1.092118	0.904817
H121	H	0.942970	0.899437	0.712088
H122	H	1.442970	1.399437	1.212088
C123	C	0.548341	1.068958	0.573674
C124	C	1.048341	1.568958	1.073674
N125	N	0.464808	1.104846	0.544382
N126	N	0.964808	1.604846	1.044382
C127	C	0.548606	0.582048	0.235107
C128	C	1.048606	1.082048	0.735107
N129	N	0.465173	0.552771	0.199187
N130	N	0.965173	1.052771	0.699187
H131	H	0.942923	0.899386	0.583843
H132	H	1.442923	1.399386	1.083843
C133	C	0.548552	1.069140	1.077877
C134	C	1.048552	1.569140	1.577877
N135	N	0.465041	1.105043	1.107147
N136	N	0.965041	1.605043	1.607147
C137	C	0.971532	0.730449	0.417202
C138	C	1.471532	1.230449	0.917202
N139	N	1.054976	0.759719	0.453124
N140	N	1.554976	1.259719	0.953124
H141	H	0.577303	1.056707	0.939538
H142	H	1.077303	1.556707	1.439538
H143	H	0.942823	0.364592	0.404830
H144	H	1.442823	0.864592	0.904830
H145	H	0.942851	0.236347	0.404836
H146	H	1.442851	0.736347	0.904836
