data_functionalizedCrystal
_audit_creation_method	'MofGen! by Chris Wilmer'
_symmetry_space_group_name_H-M	'P1'
_symmetry_Int_Tables_number	1
_symmetry_cell_setting	triclinic
loop_
_symmetry_equiv_pos_as_xyz
  x,y,z
_cell_length_a	10.065875
_cell_length_b	10.489768
_cell_length_c	11.026623
_cell_angle_alpha	96.568596
_cell_angle_beta	79.280633
_cell_angle_gamma	98.861298
loop_
_atom_site_label
_atom_site_type_symbol
_atom_site_fract_x
_atom_site_fract_y
_atom_site_fract_z
O1	O	0.113419	-1.717161	-0.189375
O2	O	0.113438	-1.349502	-0.205446
O3	O	0.113423	-1.502860	-0.020487
O4	O	0.113434	-1.563802	-0.374333
O5	O	-0.113568	-1.532153	0.014859
O6	O	-0.113554	-1.378795	-0.170099
O7	O	-0.113572	-1.746454	-0.154028
Zn8	Zn	-0.149603	-1.567276	-0.156452
Zn9	Zn	0.149468	-1.528680	-0.203022
O10	O	-0.113557	-1.593096	-0.338987
C11	C	-0.000056	-1.316348	-0.186552
C12	C	-0.000049	-1.173916	-0.182901
N13	N	-0.353711	-1.593625	-0.124668
C14	C	-0.000073	-0.994697	-0.063038
C15	C	-0.111985	-1.099715	-0.105536
C16	C	0.111810	-1.070795	-0.140413
C17	C	-0.112090	-1.025186	-0.218933
C18	C	0.111807	-0.996244	-0.253809
C19	C	-0.000133	-1.101234	-0.296386
N20	N	0.353577	-1.502338	-0.234797
C21	C	0.421350	-1.558120	-0.167515
C22	C	0.578519	-1.537835	-0.191960
C23	C	-0.000071	-1.506263	0.042496
C24	C	-0.000066	-1.472747	0.177505
C25	C	-0.000078	-0.779605	-0.172903
C26	C	-0.000085	-0.922032	-0.176496
C27	C	-0.000070	-1.565287	0.250494
C28	C	-0.000064	-1.530649	0.390033
C29	C	-0.000063	-1.589691	0.598030
C30	C	-0.000068	-1.623203	0.463020
H31	H	-0.206605	-1.144866	-0.042906
C32	C	0.657298	-1.453028	-0.294234
H33	H	0.594396	-1.420669	-0.333282
H34	H	0.713038	-1.382616	-0.258634
H35	H	0.713047	-1.503497	-0.353898
H36	H	0.363020	-1.620901	-0.091818
H37	H	0.000030	-1.728068	0.422195
C38	C	-0.240050	-0.997468	-0.263673
H39	H	-0.239304	-0.906522	-0.261046
H40	H	-0.240357	-1.034918	-0.346256
H41	H	-0.319437	-1.033846	-0.211298
C42	C	-0.000190	-1.163646	-0.429763
H43	H	0.079356	-1.204596	-0.456888
H44	H	-0.078967	-1.226160	-0.431804
H45	H	-0.000969	-1.098671	-0.482891
C46	C	0.432360	-1.417535	-0.337066
H47	H	0.369459	-1.385176	-0.376114
H48	H	0.488101	-1.347123	-0.301466
H49	H	0.488109	-1.468004	-0.396730
C50	C	-0.000081	-1.706963	0.195373
H51	H	-0.000074	-1.760530	0.259259
H52	H	-0.079238	-1.734099	0.158761
H53	H	0.079086	-1.713670	0.134105
C54	C	0.567507	-1.678429	-0.022392
H55	H	0.472207	-1.680931	-0.019370
H56	H	0.590857	-1.763769	-0.039979
H57	H	0.590840	-1.642883	0.055280
H58	H	-0.000051	-1.425770	0.430843
C59	C	-0.000050	-1.331070	0.232625
H60	H	-0.000038	-1.277501	0.168736
H61	H	-0.079201	-1.324356	0.293899
H62	H	0.079123	-1.303938	0.269227
C63	C	-0.000202	-0.932011	0.070271
H64	H	0.079359	-0.870533	0.072556
H65	H	-0.078962	-0.889783	0.096697
H66	H	-0.001057	-0.997058	0.123802
C67	C	0.239630	-0.935190	-0.338356
H68	H	0.319079	-0.950243	-0.310276
H69	H	0.240439	-0.973060	-0.420928
H70	H	0.238247	-0.844583	-0.335995
H71	H	0.206427	-1.091486	-0.107229
