data_functionalizedCrystal
_audit_creation_method	'MofGen! by Chris Wilmer'
_symmetry_space_group_name_H-M	'P1'
_symmetry_Int_Tables_number	1
_symmetry_cell_setting	triclinic
loop_
_symmetry_equiv_pos_as_xyz
  x,y,z
_cell_length_a	16.959455
_cell_length_b	16.959453
_cell_length_c	16.959447
_cell_angle_alpha	89.971994
_cell_angle_beta	89.982129
_cell_angle_gamma	90.022154
loop_
_atom_site_label
_atom_site_type_symbol
_atom_site_fract_x
_atom_site_fract_y
_atom_site_fract_z
Zn1	Zn	1.208394	-0.314706	-0.446910
Zn2	Zn	1.208303	-0.446890	-0.314728
Zn3	Zn	1.076215	-0.314728	-0.314746
Zn4	Zn	1.076181	-0.446845	-0.446866
O5	O	1.142273	-0.380792	-0.380813
O6	O	1.318993	-0.332250	-0.429386
O7	O	1.190757	-0.429387	-0.204120
O8	O	1.093801	-0.204114	-0.332304
O9	O	1.318926	-0.429365	-0.332273
O10	O	1.190912	-0.204098	-0.429404
O11	O	1.093713	-0.332288	-0.204133
O12	O	0.965600	-0.332244	-0.332262
O13	O	1.093743	-0.429288	-0.557483
O14	O	0.965575	-0.429310	-0.429329
O15	O	1.190879	-0.332206	-0.557515
O16	O	1.190724	-0.557495	-0.332231
O17	O	1.093655	-0.557462	-0.429312
C18	C	0.936907	-0.380775	-0.380793
C19	C	0.849050	-0.380787	-0.380804
C20	C	0.807740	-0.431278	-0.330169
C21	C	0.807807	-0.330302	-0.431444
C22	C	0.725262	-0.330308	-0.431454
C23	C	0.683951	-0.380799	-0.380819
C24	C	0.725186	-0.431284	-0.330176
C25	C	0.684020	-0.279818	-0.482091
C26	C	0.601469	-0.279822	-0.482102
C27	C	0.560157	-0.330318	-0.431471
C28	C	0.601397	-0.380805	-0.380826
C29	C	0.560087	-0.431297	-0.330191
C30	C	0.601326	-0.481789	-0.279550
C31	C	0.683874	-0.481780	-0.279545
C32	C	0.477609	-0.330326	-0.431475
C33	C	0.477533	-0.431303	-0.330197
C34	C	1.142198	-0.586159	-0.380782
C35	C	1.142237	-0.674015	-0.380795
C36	C	1.091737	-0.715366	-0.330204
C37	C	1.192771	-0.715218	-0.431404
C38	C	1.192808	-0.797764	-0.431421
C39	C	1.142308	-0.839114	-0.380830
C40	C	1.091771	-0.797919	-0.330221
C41	C	1.243338	-0.838965	-0.482034
C42	C	1.243377	-0.921516	-0.482054
C43	C	1.192880	-0.962868	-0.431458
C44	C	1.142342	-0.921668	-0.380847
C45	C	1.091842	-0.963019	-0.330256
C46	C	1.041307	-0.921820	-0.279640
C47	C	1.041275	-0.839272	-0.279625
C48	C	1.192912	-1.045417	-0.431473
C49	C	1.091875	-1.045572	-0.330273
C50	C	1.348441	-0.380810	-0.380833
C51	C	1.436298	-0.380818	-0.380841
C52	C	1.142318	-0.380740	-0.586981
C53	C	1.142336	-0.380717	-0.674838
C54	C	1.142371	-0.174624	-0.380861
C55	C	1.142412	-0.086767	-0.380881
C56	C	1.091772	-0.431254	-0.716096
C57	C	1.192914	-0.330155	-0.716132
C58	C	1.192931	-0.330129	-0.798678
C59	C	1.142366	-0.380665	-0.839937
C60	C	1.091785	-0.431228	-0.798650
C61	C	1.243505	-0.279562	-0.839972
C62	C	1.243523	-0.279533	-0.922523
C63	C	1.192962	-0.330074	-0.963783
C64	C	1.142379	-0.380639	-0.922491
C65	C	1.091815	-0.431176	-0.963750
C66	C	1.041236	-0.481745	-0.922459
C67	C	1.041224	-0.481769	-0.839910
C68	C	1.192973	-0.330051	-1.046331
C69	C	1.091828	-0.431150	-1.046303
C70	C	1.142275	-0.380788	-0.175446
C71	C	1.142409	-0.380587	-0.087590
H72	H	0.841448	-0.289190	-0.472665
H73	H	1.050754	-1.079234	-0.289072
H74	H	0.841320	-0.472390	-0.288940
Br75	Br	0.740087	-0.211296	-0.550803
H76	H	0.567900	-0.238709	-0.523338
Br77	Br	1.311851	-0.782844	-0.550708
H78	H	1.000186	-0.955499	-0.238452
H79	H	0.444036	-0.289210	-0.472701
H80	H	1.000045	-0.522939	-0.806284
H81	H	1.050595	-0.681820	-0.288991
Br82	Br	1.261589	-0.261405	-1.102366
H83	H	1.000130	-0.805722	-0.238416
H84	H	1.000062	-0.522888	-0.956063
Br85	Br	1.261502	-0.261541	-0.660138
Br86	Br	1.261289	-0.659099	-0.500074
H87	H	1.234047	-1.078957	-0.472694
H88	H	1.284527	-0.955053	-0.523267
H89	H	0.443904	-0.472423	-0.288968
Br90	Br	1.023135	-0.499884	-0.660063
H91	H	0.567680	-0.522896	-0.238320
H92	H	1.284669	-0.238415	-0.806373
Br93	Br	1.312182	-0.210924	-0.978553
H94	H	0.717458	-0.522886	-0.238313
Br95	Br	1.023207	-0.499745	-1.102291
