data_functionalizedCrystal
_audit_creation_method	'MofGen! by Chris Wilmer'
_symmetry_space_group_name_H-M	'P1'
_symmetry_Int_Tables_number	1
_symmetry_cell_setting	triclinic
loop_
_symmetry_equiv_pos_as_xyz
  x,y,z
_cell_length_a	12.759401
_cell_length_b	21.295417
_cell_length_c	12.759387
_cell_angle_alpha	89.930275
_cell_angle_beta	89.960267
_cell_angle_gamma	90.030668
loop_
_atom_site_label
_atom_site_type_symbol
_atom_site_fract_x
_atom_site_fract_y
_atom_site_fract_z
Zn1	Zn	1.606360	-0.250380	-0.593927
Zn2	Zn	2.106360	0.249620	-0.093927
Zn3	Zn	1.606141	-0.355720	-0.418223
Zn4	Zn	2.106141	0.144280	0.081777
Zn5	Zn	1.430597	-0.250469	-0.418266
Zn6	Zn	1.930597	0.249531	0.081734
Zn7	Zn	1.430602	-0.355615	-0.593865
Zn8	Zn	1.930602	0.144385	-0.093865
O9	O	1.518425	-0.303046	-0.506070
O10	O	2.018425	0.196954	-0.006070
O11	O	1.753352	-0.264360	-0.570627
O12	O	2.253352	0.235640	-0.070627
O13	O	1.582761	-0.341839	-0.271207
O14	O	2.082761	0.158161	0.228793
O15	O	1.454002	-0.162367	-0.441611
O16	O	1.954002	0.337633	0.058389
O17	O	1.753191	-0.341753	-0.441539
O18	O	2.253191	0.158247	0.058461
O19	O	1.583134	-0.162302	-0.570668
O20	O	2.083134	0.337698	-0.070668
O21	O	1.453789	-0.264512	-0.271239
O22	O	1.953789	0.235488	0.228761
O23	O	1.283577	-0.264410	-0.441551
O24	O	1.783577	0.235590	0.058449
O25	O	1.454011	-0.341574	-0.740894
O26	O	1.954011	0.158426	-0.240894
O27	O	1.283581	-0.341661	-0.570563
O28	O	1.783581	0.158339	-0.070563
O29	O	1.583140	-0.264258	-0.740940
O30	O	2.083140	0.235742	-0.240940
O31	O	1.582766	-0.443795	-0.441479
O32	O	2.082766	0.056205	0.058521
O33	O	1.453798	-0.443718	-0.570522
O34	O	1.953798	0.056282	-0.070522
C35	C	1.245458	-0.303034	-0.506056
C36	C	1.745458	0.196966	-0.006056
C37	C	1.128681	-0.303044	-0.506075
C38	C	1.628681	0.196956	-0.006075
C39	C	1.073849	-0.343333	-0.573140
C40	C	1.573849	0.156667	-0.073140
C41	C	0.964125	-0.343341	-0.573151
C42	C	1.464125	0.156659	-0.073151
C43	C	0.964075	-0.262770	-0.439023
C44	C	1.464075	0.237230	0.060977
C45	C	1.073797	-0.262759	-0.439018
C46	C	1.573797	0.237241	0.060982
C47	C	1.128732	-0.383619	-0.640197
C48	C	1.628732	0.116381	-0.140197
C49	C	1.073900	-0.423911	-0.707267
C50	C	1.573900	0.076089	-0.207267
C51	C	0.964176	-0.423919	-0.707278
C52	C	1.464176	0.076081	-0.207278
C53	C	0.909284	-0.383635	-0.640220
C54	C	1.409284	0.116365	-0.140220
C55	C	1.518287	-0.466597	-0.506012
C56	C	2.018287	0.033403	-0.006012
C57	C	1.518325	-0.536566	-0.506022
C58	C	2.018325	-0.036566	-0.006022
C59	C	1.585538	-0.569451	-0.438898
C60	C	2.085538	-0.069451	0.061102
C61	C	1.585587	-0.635194	-0.438922
C62	C	2.085587	-0.135194	0.061078
C63	C	1.518404	-0.668048	-0.506058
C64	C	2.018404	-0.168048	-0.006058
C65	C	1.451187	-0.635154	-0.573195
C66	C	1.951187	-0.135154	-0.073195
C67	C	1.451147	-0.569413	-0.573177
C68	C	1.951147	-0.069413	-0.073177
N69	N	1.426500	-0.771311	-0.514063
N70	N	1.926500	-0.271311	-0.014063
N71	N	1.426541	-0.833762	-0.514074
N72	N	1.926541	-0.333762	-0.014074
C73	C	1.518522	-0.866123	-0.506119
C74	C	2.018522	-0.366123	-0.006119
N75	N	1.610463	-0.833672	-0.498131
N76	N	2.110463	-0.333672	0.001869
N77	N	1.610421	-0.771215	-0.498115
N78	N	2.110421	-0.271215	0.001885
C79	C	1.518441	-0.739333	-0.506086
C80	C	2.018441	-0.239333	-0.006086
C81	C	1.585794	-0.970294	-0.439017
C82	C	2.085794	-0.470294	0.060983
C83	C	1.585845	-1.036038	-0.439048
C84	C	2.085845	-0.536038	0.060952
C85	C	1.451436	-1.035997	-0.573316
C86	C	1.951436	-0.535997	-0.073316
C87	C	1.451394	-0.970254	-0.573290
C88	C	1.951394	-0.470254	-0.073290
C89	C	1.518572	-0.937407	-0.506135
C90	C	2.018572	-0.437407	-0.006135
C91	C	1.792458	-0.303058	-0.506085
C92	C	2.292458	0.196942	-0.006085
C93	C	1.909235	-0.303063	-0.506091
C94	C	2.409235	0.196937	-0.006091
C95	C	1.518600	-0.302895	-0.780104
C96	C	2.018600	0.197105	-0.280104
C97	C	1.518675	-0.302830	-0.896881
C98	C	2.018675	0.197170	-0.396881
C99	C	1.518592	-0.138855	-0.506151
C100	C	2.018592	0.361145	-0.006151
C101	C	1.518663	-0.068887	-0.506186
C102	C	2.018663	0.431113	-0.006186
C103	C	1.518311	-0.303151	-0.233102
C104	C	2.018311	0.196849	0.266898
C105	C	1.518440	-0.303038	-0.116326
C106	C	2.018440	0.196962	0.383674
C107	C	1.451874	-0.343426	0.048569
C108	C	1.951874	0.156574	0.548569
C109	C	1.451759	-0.343532	-0.061155
C110	C	1.951759	0.156468	0.438845
C111	C	1.585249	-0.262440	-0.061768
C112	C	2.085249	0.237560	0.438232
C113	C	1.585368	-0.262338	0.047954
C114	C	2.085368	0.237662	0.547954
C115	C	1.385181	-0.383918	0.103734
C116	C	1.885181	0.116082	0.603734
C117	C	1.318373	-0.424516	0.049183
C118	C	1.818373	0.075484	0.549183
C119	C	1.318258	-0.424622	-0.060540
C120	C	1.818258	0.075378	0.439460
C121	C	1.384950	-0.384129	-0.115713
C122	C	1.884950	0.115871	0.384287
H123	H	0.919374	-0.229972	-0.384426
H124	H	1.419374	0.270028	0.115574
H125	H	1.639762	-0.229281	0.092370
H126	H	2.139762	0.270719	0.592370
H127	H	1.396488	-0.661908	-0.627860
H128	H	1.896488	-0.161908	-0.127860
H129	H	1.385266	-0.383836	0.193077
H130	H	1.885266	0.116164	0.693077
H131	H	1.118600	-0.456706	-0.761870
H132	H	1.618600	0.043294	-0.261870
H133	H	1.118443	-0.229948	-0.384415
H134	H	1.618443	0.270052	0.115585
H135	H	1.396413	-0.542637	-0.627839
H136	H	1.896413	-0.042637	-0.127839
H137	H	1.640240	-0.542709	-0.384219
H138	H	2.140240	-0.042709	0.115781
H139	H	1.264081	-0.457488	0.094112
H140	H	1.764081	0.042512	0.594112
H141	H	1.640324	-0.661975	-0.384262
H142	H	2.140324	-0.161975	0.115738
H143	H	0.919534	-0.456723	-0.761897
H144	H	1.419534	0.043277	-0.261897
H145	H	1.396739	-1.062746	-0.627984
H146	H	1.896739	-0.562746	-0.127984
H147	H	1.263867	-0.457683	-0.104953
H148	H	1.763867	0.042317	0.395047
H149	H	1.640585	-1.062812	-0.384389
H150	H	2.140585	-0.562812	0.115611
H151	H	1.218075	-0.383618	-0.640193
H152	H	1.718075	0.116382	-0.140193
H153	H	1.396658	-0.943477	-0.627944
H154	H	1.896658	-0.443477	-0.127944
H155	H	1.384857	-0.384222	-0.205058
H156	H	1.884857	0.115778	0.294942
H157	H	0.819940	-0.383639	-0.640243
H158	H	1.319940	0.116361	-0.140243
H159	H	1.639545	-0.229472	-0.106698
H160	H	2.139545	0.270528	0.393302
H161	H	1.640498	-0.943548	-0.384338
H162	H	2.140498	-0.443548	0.115662
