data_functionalizedCrystal
_audit_creation_method	'MofGen! by Chris Wilmer'
_symmetry_space_group_name_H-M	'P1'
_symmetry_Int_Tables_number	1
_symmetry_cell_setting	triclinic
loop_
_symmetry_equiv_pos_as_xyz
  x,y,z
_cell_length_a	16.120530
_cell_length_b	12.827893
_cell_length_c	12.827885
_cell_angle_alpha	90.025051
_cell_angle_beta	92.918515
_cell_angle_gamma	87.099477
loop_
_atom_site_label
_atom_site_type_symbol
_atom_site_fract_x
_atom_site_fract_y
_atom_site_fract_z
Zn1	Zn	1.274699	-0.497104	0.671871
Zn2	Zn	1.608033	-0.163770	1.005205
Zn3	Zn	1.941366	0.169563	1.338538
Zn4	Zn	1.274644	-0.671877	0.497143
Zn5	Zn	1.607977	-0.338544	0.830476
Zn6	Zn	1.941310	-0.005211	1.163809
Zn7	Zn	1.135276	-0.488282	0.488287
Zn8	Zn	1.468609	-0.154948	0.821620
Zn9	Zn	1.801943	0.178385	1.154953
Zn10	Zn	1.135293	-0.662932	0.662989
Zn11	Zn	1.468626	-0.329598	0.996322
Zn12	Zn	1.801960	0.003735	1.329656
O13	O	1.204978	-0.580049	0.580072
O14	O	1.538311	-0.246715	0.913406
O15	O	1.871645	0.086618	1.246739
O16	O	1.391360	-0.527724	0.656117
O17	O	1.724693	-0.194390	0.989450
O18	O	2.058027	0.138943	1.322783
O19	O	1.256126	-0.647575	0.349730
O20	O	1.589459	-0.314242	0.683063
O21	O	1.922793	0.019092	1.016396
O22	O	1.153787	-0.343217	0.512651
O23	O	1.487120	-0.009884	0.845984
O24	O	1.820453	0.323450	1.179317
O25	O	1.391319	-0.656129	0.527744
O26	O	1.724652	-0.322796	0.861078
O27	O	2.057986	0.010538	1.194411
O28	O	1.256221	-0.349698	0.647530
O29	O	1.589554	-0.016365	0.980863
O30	O	1.922887	0.316968	1.314196
O31	O	1.153733	-0.512688	0.343223
O32	O	1.487066	-0.179355	0.676557
O33	O	1.820400	0.153979	1.009890
O34	O	1.018610	-0.504014	0.504038
O35	O	1.351944	-0.170680	0.837371
O36	O	1.685277	0.162653	1.170704
O37	O	1.153816	-0.640882	0.810405
O38	O	1.487149	-0.307549	1.143739
O39	O	1.820483	0.025784	1.477072
O40	O	1.018623	-0.632328	0.632391
O41	O	1.351956	-0.298995	0.965724
O42	O	1.685289	0.034339	1.299057
O43	O	1.256237	-0.519049	0.816931
O44	O	1.589571	-0.185716	1.150264
O45	O	1.922904	0.147618	1.483598
O46	O	1.256143	-0.816926	0.519131
O47	O	1.589476	-0.483592	0.852465
O48	O	1.922809	-0.150259	1.185798
O49	O	1.153762	-0.810353	0.640978
O50	O	1.487095	-0.477020	0.974311
O51	O	1.820429	-0.143687	1.307645
C52	C	0.988366	-0.566243	0.566290
C53	C	1.321699	-0.232910	0.899623
C54	C	1.655032	0.100423	1.232957
C55	C	0.895698	-0.560363	0.560419
C56	C	1.229031	-0.227029	0.893752
C57	C	1.562365	0.106304	1.227085
C58	C	1.204971	-0.851558	0.580076
C59	C	1.538304	-0.518225	0.913409
C60	C	1.871637	-0.184891	1.246743
C61	C	1.205044	-0.967716	0.580117
C62	C	1.538377	-0.634382	0.913451
C63	C	1.871711	-0.301049	1.246784
C64	C	1.205035	-0.579952	0.852646
C65	C	1.538368	-0.246619	1.185980
C66	C	1.871701	0.086715	1.519313
C67	C	1.205059	-0.579911	0.968801
C68	C	1.538392	-0.246577	1.302134
C69	C	1.871726	0.086756	1.635468
C70	C	0.726033	-0.549602	0.549708
C71	C	1.059367	-0.216268	0.883041
C72	C	1.392700	0.117065	1.216375
C73	C	0.684763	-0.610572	0.610513
C74	C	1.018097	-0.277239	0.943846
C75	C	1.351430	0.056094	1.277180
C76	C	0.590356	-0.604585	0.604554
C77	C	0.923689	-0.271252	0.937887
C78	C	1.257023	0.062082	1.271220
C79	C	0.820449	-0.555588	0.555666
C80	C	1.153782	-0.222255	0.888999
C81	C	1.487116	0.111079	1.222333
C82	C	1.422436	-0.593908	0.593909
C83	C	1.755769	-0.260575	0.927243
C84	C	2.089103	0.072758	1.260576
C85	C	1.515104	-0.599815	0.599806
C86	C	1.848437	-0.266481	0.933139
C87	C	2.181770	0.066852	1.266472
C88	C	1.205008	-0.307480	0.580093
C89	C	1.538341	0.025853	0.913426
C90	C	1.871675	0.359186	1.246760
C91	C	1.205021	-0.191328	0.580102
C92	C	1.538354	0.142005	0.913435
C93	C	1.871687	0.475339	1.246769
C94	C	1.154344	-0.136337	0.513371
C95	C	1.487678	0.196997	0.846704
C96	C	1.821011	0.530330	1.180037
C97	C	1.154356	-0.016287	0.513378
C98	C	1.487690	0.317046	0.846711
C99	C	1.821023	0.650379	1.180045
C100	C	1.204969	-0.580073	0.308562
C101	C	1.538303	-0.246739	0.641895
C102	C	1.871636	0.086594	0.975229
C103	C	1.205107	-0.579830	0.192418
C104	C	1.538440	-0.246496	0.525751
C105	C	1.871773	0.086837	0.859085
C106	C	1.255746	-0.519612	1.023815
C107	C	1.589079	-0.186278	1.357149
C108	C	1.922412	0.147055	1.690482
C109	C	1.255772	-0.519568	1.143867
C110	C	1.589105	-0.186234	1.477201
C111	C	1.922438	0.147099	1.810534
H112	H	0.720333	-0.667266	0.667047
H113	H	1.053667	-0.333933	1.000380
H114	H	1.387000	-0.000600	1.333714
H115	H	0.690465	-0.492912	0.493179
H116	H	1.023799	-0.159578	0.826513
H117	H	1.357132	0.173755	1.159846
F118	F	1.097614	-0.190961	0.438695
F119	F	1.430947	0.142372	0.772028
F120	F	1.764281	0.475705	1.105361
F121	F	1.097650	0.045506	0.438696
F122	F	1.430983	0.378839	0.772029
F123	F	1.764316	0.712172	1.105362
F124	F	1.261761	-0.029503	0.654793
F125	F	1.595095	0.303831	0.988126
F126	F	1.928428	0.637164	1.321459
H127	H	1.248413	-0.149533	0.637243
H128	H	1.581746	0.183801	0.970576
H129	H	1.915079	0.517134	1.303910
F130	F	1.148358	-0.647342	1.023402
F131	F	1.481691	-0.314008	1.356736
F132	F	1.815024	0.019325	1.690069
F133	F	1.312426	-0.452153	0.969213
F134	F	1.645759	-0.118819	1.302546
F135	F	1.979092	0.214514	1.635879
F136	F	1.312498	-0.452094	1.205687
F137	F	1.645832	-0.118761	1.539020
F138	F	1.979165	0.214573	1.872353
F139	F	1.148386	-0.647317	1.130606
F140	F	1.481720	-0.313984	1.463939
F141	F	1.815053	0.019349	1.797273
