data_functionalizedCrystal
_audit_creation_method	'MofGen! by Chris Wilmer'
_symmetry_space_group_name_H-M	'P1'
_symmetry_Int_Tables_number	1
_symmetry_cell_setting	triclinic
loop_
_symmetry_equiv_pos_as_xyz
  x,y,z
_cell_length_a	10.967926
_cell_length_b	11.026607
_cell_length_c	7.540329
_cell_angle_alpha	89.998289
_cell_angle_beta	102.126281
_cell_angle_gamma	96.380754
loop_
_atom_site_label
_atom_site_type_symbol
_atom_site_fract_x
_atom_site_fract_y
_atom_site_fract_z
O1	O	1.693962	0.170510	0.370248
O2	O	1.334339	0.186834	0.260334
O3	O	1.484345	0.001771	0.306188
O4	O	1.543956	0.355573	0.324394
O5	O	1.484333	0.001769	0.601149
O6	O	1.334327	0.186832	0.555295
O7	O	1.693950	0.170508	0.665210
Cu8	Cu	1.514137	0.178669	0.637185
Cu9	Cu	1.514151	0.178672	0.288359
O10	O	1.543944	0.355571	0.619356
C11	C	1.287578	0.185645	0.393524
C12	C	1.148259	0.182092	0.350943
C13	C	1.086140	0.180507	0.484757
C14	C	0.942146	0.176835	0.440751
C15	C	1.473342	-0.043533	0.450305
C16	C	1.440559	-0.178519	0.440279
C17	C	1.531078	-0.251572	0.467943
C18	C	1.497198	-0.391088	0.457581
C19	C	1.740711	0.171696	0.532015
C20	C	1.880030	0.175250	0.574585
C21	C	1.554947	0.400874	0.475234
C22	C	1.587729	0.535861	0.485248
N23	N	1.514136	0.178667	0.882533
N24	N	1.514160	0.178665	0.043013
H25	H	1.139559	0.181862	0.631900
F26	F	0.949839	0.177015	0.766927
F27	F	1.721818	-0.410898	0.526223
F28	F	1.078441	0.180304	0.158612
F29	F	0.872333	0.175047	0.248410
H30	H	1.633657	-0.210827	0.499306
F31	F	1.306479	-0.231769	0.399283
H32	H	1.394612	-0.431827	0.426215
