data_functionalizedCrystal
_audit_creation_method	'MofGen! by Chris Wilmer'
_symmetry_space_group_name_H-M	'P1'
_symmetry_Int_Tables_number	1
_symmetry_cell_setting	triclinic
loop_
_symmetry_equiv_pos_as_xyz
  x,y,z
_cell_length_a	10.723024
_cell_length_b	15.944551
_cell_length_c	9.198806
_cell_angle_alpha	89.995864
_cell_angle_beta	89.996352
_cell_angle_gamma	83.983304
loop_
_atom_site_label
_atom_site_type_symbol
_atom_site_fract_x
_atom_site_fract_y
_atom_site_fract_z
O1	O	1.655699	0.117808	-0.120886
O2	O	1.292405	0.129085	-0.120892
O3	O	1.483973	0.001228	-0.120876
O4	O	1.464131	0.245664	-0.120902
O5	O	1.483958	0.001228	0.120909
O6	O	1.292389	0.129084	0.120893
O7	O	1.655684	0.117808	0.120899
Cu8	Cu	1.474035	0.123446	0.142973
Cu9	Cu	1.474053	0.123446	-0.142966
O10	O	1.464116	0.245664	0.120883
C11	C	1.245908	0.128264	0.000000
C12	C	1.107384	0.125809	-0.000001
C13	C	1.031498	0.197350	-0.000010
C14	C	0.888327	0.194814	-0.000012
C15	C	1.483141	-0.030070	0.000017
C16	C	1.480672	-0.123331	0.000018
C17	C	1.356026	-0.338901	-0.000004
C18	C	1.413900	-0.399587	0.119211
C19	C	1.476205	-0.294082	0.000006
C20	C	1.413944	-0.399570	-0.119170
C21	C	1.471880	-0.459020	-0.000011
C22	C	1.534111	-0.353540	0.119320
C23	C	1.534138	-0.353516	-0.119168
C24	C	1.592099	-0.414184	0.000077
C25	C	1.478692	-0.199066	0.000018
C26	C	1.469402	-0.554035	-0.000011
C27	C	1.702181	0.118629	0.000003
C28	C	1.840704	0.121084	-0.000005
C29	C	1.464947	0.276963	-0.000013
C30	C	1.467417	0.370223	-0.000024
N31	N	1.474032	0.123445	0.344087
N32	N	1.474067	0.123441	-0.344080
C33	C	1.554469	0.069525	0.416290
C34	C	1.554488	0.069522	0.583703
H35	H	1.066360	0.062682	-0.000032
H36	H	1.256273	-0.306164	0.000113
H37	H	1.623358	0.023362	0.645795
C38	C	1.221681	-0.388774	0.255050
C39	C	1.345278	-0.427134	0.255265
H40	H	1.179312	-0.405783	0.339037
H41	H	1.222091	-0.329234	0.255586
H42	H	1.179813	-0.405303	0.170389
H43	H	1.387149	-0.410600	0.339922
H44	H	1.344874	-0.486687	0.254743
C45	C	1.627141	-0.075498	0.369050
C46	C	1.647419	0.007225	0.332401
H47	H	1.684523	-0.113953	0.317243
H48	H	1.639377	-0.083690	0.470534
H49	H	1.543774	-0.084954	0.344204
H50	H	1.730784	0.016683	0.357258
H51	H	1.635194	0.015420	0.230894
C52	C	0.857293	-0.030263	0.000001
C53	C	0.928712	0.038395	-0.000002
H54	H	0.911634	-0.081310	-0.000008
H55	H	0.805913	-0.028029	0.084313
H56	H	0.805910	-0.028019	-0.084319
H57	H	0.980088	0.036154	0.084324
H58	H	0.980113	0.036160	-0.084323
H59	H	1.405202	0.169609	0.593837
H60	H	0.823120	0.256060	-0.000025
H61	H	1.584893	-0.333259	0.220218
C62	C	1.160823	0.288505	-0.124308
C63	C	1.086865	0.282575	-0.000017
H64	H	1.194995	0.341123	-0.124312
H65	H	1.226978	0.243954	-0.124290
H66	H	1.110646	0.284473	-0.208615
H67	H	1.137045	0.286601	0.084292
H68	H	1.020702	0.327138	-0.000021
C69	C	1.789476	-0.434956	0.125090
C70	C	1.726873	-0.458187	0.000166
H71	H	1.872675	-0.462128	0.125151
H72	H	1.791762	-0.375569	0.125880
H73	H	1.746455	-0.451432	0.208962
H74	H	1.769889	-0.441706	-0.083707
H75	H	1.724593	-0.517588	-0.000637
C76	C	1.521362	-0.269668	-0.336504
C77	C	1.602707	-0.325936	-0.255226
H78	H	1.563692	-0.252637	-0.420503
H79	H	1.450359	-0.296613	-0.365118
H80	H	1.494886	-0.221588	-0.279014
H81	H	1.629176	-0.374020	-0.312712
H82	H	1.673733	-0.298992	-0.226613
C83	C	1.221726	-0.388704	-0.254988
C84	C	1.345315	-0.427077	-0.255232
H85	H	1.179357	-0.405679	-0.338988
H86	H	1.179853	-0.405249	-0.170347
H87	H	1.222154	-0.329157	-0.255487
H88	H	1.344888	-0.486624	-0.254722
H89	H	1.387198	-0.410537	-0.339895
C90	C	1.304408	0.140843	0.515481
C91	C	1.381081	0.185763	0.427940
H92	H	1.247029	0.179318	0.567251
H93	H	1.259312	0.105741	0.456112
H94	H	1.354890	0.107015	0.582465
H95	H	1.330599	0.219586	0.360948
H96	H	1.426181	0.220880	0.487314
