data_functionalizedCrystal
_audit_creation_method	'MofGen! by Chris Wilmer'
_symmetry_space_group_name_H-M	'P1'
_symmetry_Int_Tables_number	1
_symmetry_cell_setting	triclinic
loop_
_symmetry_equiv_pos_as_xyz
  x,y,z
_cell_length_a	23.532407
_cell_length_b	17.038272
_cell_length_c	16.098538
_cell_angle_alpha	92.930266
_cell_angle_beta	92.700973
_cell_angle_gamma	93.019883
loop_
_atom_site_label
_atom_site_type_symbol
_atom_site_fract_x
_atom_site_fract_y
_atom_site_fract_z
O1	O	0.121251	-1.039966	-0.069166
O2	O	0.621251	-0.539966	0.430834
O3	O	0.119288	-0.812351	-0.069191
O4	O	0.619288	-0.312351	0.430809
O5	O	0.037699	-0.933021	-0.069163
O6	O	0.537699	-0.433021	0.430837
O7	O	0.202840	-0.919295	-0.069195
O8	O	0.702840	-0.419295	0.430805
O9	O	0.042445	-0.925973	0.069349
O10	O	0.542445	-0.425973	0.569349
O11	O	0.124034	-0.805302	0.069321
O12	O	0.624034	-0.305302	0.569321
O13	O	0.125997	-1.032917	0.069345
O14	O	0.625997	-0.532917	0.569345
Zn15	Zn	0.125769	-0.917990	0.091324
Zn16	Zn	0.625769	-0.417990	0.591324
Zn17	Zn	0.119516	-0.927278	-0.091170
Zn18	Zn	0.619516	-0.427278	0.408830
O19	O	0.207586	-0.912247	0.069317
O20	O	0.707586	-0.412247	0.569317
C21	C	0.119875	-0.779712	0.000062
C22	C	0.619875	-0.279712	0.500062
C23	C	0.114548	-0.692959	0.000054
C24	C	0.614548	-0.192959	0.500054
C25	C	0.018838	-0.929147	0.000095
C26	C	0.518838	-0.429147	0.500095
C27	C	-0.044434	-0.928096	0.000101
C28	C	0.455566	-0.428096	0.500101
C29	C	0.125410	-1.065556	0.000090
C30	C	0.625410	-0.565556	0.500090
C31	C	0.130737	-1.152310	0.000093
C32	C	0.630737	-0.652310	0.500093
C33	C	-0.440131	-0.992917	0.000063
C34	C	0.059869	-0.492917	0.500063
C35	C	-0.499583	-0.991941	0.000056
C36	C	0.000417	-0.491941	0.500056
O37	O	-0.533169	-1.052030	0.000032
O38	O	-0.033169	-0.552030	0.500032
N39	N	-0.525981	-0.920202	0.000049
N40	N	-0.025981	-0.420202	0.500049
C41	C	-0.492924	-0.849435	0.000040
C42	C	0.007076	-0.349435	0.500040
O43	O	-0.520836	-0.788325	0.000033
O44	O	-0.020836	-0.288325	0.500033
C45	C	-0.433473	-0.850412	0.000041
C46	C	0.066527	-0.350412	0.500041
C47	C	-0.407078	-0.922155	0.000056
C48	C	0.092922	-0.422155	0.500056
C49	C	-0.413736	-1.064654	0.000077
C50	C	0.086264	-0.564654	0.500077
C51	C	-0.354288	-1.065630	0.000085
C52	C	0.145712	-0.565630	0.500085
C53	C	-0.321236	-0.994868	0.000079
C54	C	0.178764	-0.494868	0.500079
C55	C	-0.347631	-0.923131	0.000064
C56	C	0.152369	-0.423131	0.500064
C57	C	-0.400418	-0.779646	0.000026
C58	C	0.099582	-0.279646	0.500026
C59	C	-0.340963	-0.780629	0.000025
C60	C	0.159037	-0.280629	0.500025
C61	C	-0.314569	-0.852372	0.000041
C62	C	0.185431	-0.352372	0.500041
C63	C	-0.255130	-0.853344	0.000066
C64	C	0.244870	-0.353344	0.500066
N65	N	-0.228732	-0.925083	0.000073
N66	N	0.271268	-0.425083	0.500073
C67	C	-0.261785	-0.995845	0.000079
C68	C	0.238215	-0.495845	0.500079
C69	C	-0.617774	-0.847388	0.000038
C70	C	-0.117774	-0.347388	0.500038
C71	C	-0.677223	-0.846410	0.000043
C72	C	-0.177223	-0.346410	0.500043
C73	C	-0.683878	-0.988917	0.000058
C74	C	-0.183878	-0.488917	0.500058
C75	C	-0.624428	-0.989894	0.000058
C76	C	-0.124428	-0.489894	0.500058
C77	C	-0.591376	-0.919127	0.000045
C78	C	-0.091376	-0.419127	0.500045
C79	C	-0.136940	-0.997889	0.000097
C80	C	0.363060	-0.497889	0.500097
C81	C	-0.077487	-0.998858	0.000108
C82	C	0.422513	-0.498858	0.500108
C83	C	-0.070837	-0.856352	0.000089
C84	C	0.429163	-0.356352	0.500089
C85	C	-0.130285	-0.855382	0.000082
C86	C	0.369715	-0.355382	0.500082
C87	C	-0.163336	-0.926157	0.000083
C88	C	0.336664	-0.426157	0.500083
O89	O	-0.221508	-0.793287	0.000086
O90	O	0.278492	-0.293287	0.500086
O91	O	-0.233865	-1.056945	0.000076
O92	O	0.266135	-0.556945	0.500076
C93	C	0.226447	-0.916121	0.000057
C94	C	0.726447	-0.416121	0.500057
C95	C	0.289719	-0.917172	0.000045
C96	C	0.789719	-0.417172	0.500045
N97	N	0.130036	-0.911658	0.215872
N98	N	0.630036	-0.411658	0.715872
C99	C	0.163453	-0.642483	0.000045
C100	C	0.663453	-0.142483	0.500045
C101	C	0.158445	-0.560969	0.000057
C102	C	0.658445	-0.060969	0.500057
C103	C	0.104532	-0.529932	0.000072
C104	C	0.604532	-0.029932	0.500072
C105	C	0.055624	-0.580415	0.000084
C106	C	0.555624	-0.080415	0.500084
C107	C	0.060632	-0.661927	0.000077
C108	C	0.560632	-0.161927	0.500077
C109	C	0.086837	-0.284304	0.000098
C110	C	0.586837	0.215696	0.500098
C111	C	0.081832	-0.202786	0.000102
C112	C	0.581832	0.297214	0.500102
C113	C	0.184654	-0.183345	0.000077
C114	C	0.684654	0.316655	0.500077
C115	C	0.189657	-0.264860	0.000066
C116	C	0.689657	0.235140	0.500066
C117	C	0.140750	-0.315335	0.000081
C118	C	0.640750	0.184665	0.500081
C119	C	0.099411	-0.446612	0.000083
C120	C	0.599411	0.053388	0.500083
C121	C	0.145871	-0.398653	0.000077
C122	C	0.645871	0.101347	0.500077
N123	N	0.115244	-0.933616	-0.215718
N124	N	0.615244	-0.433616	0.284282
C125	C	0.095421	-0.962894	0.259469
C126	C	0.595421	-0.462894	0.759469
C127	C	0.098412	-0.958471	0.346657
C128	C	0.598412	-0.458471	0.846657
C129	C	0.136022	-0.902816	0.390246
C130	C	0.636022	-0.402816	0.890246
C131	C	0.170639	-0.851574	0.346643
C132	C	0.670639	-0.351574	0.846643
C133	C	0.167644	-0.855994	0.259457
C134	C	0.667644	-0.355994	0.759457
C135	C	0.146867	-0.886795	0.653493
C136	C	0.646867	-0.386795	1.153493
C137	C	0.149860	-0.882380	0.740685
C138	C	0.649860	-0.382380	1.240685
C139	C	0.077632	-0.989277	0.740693
C140	C	0.577632	-0.489277	1.240693
C141	C	0.074644	-0.993694	0.653505
C142	C	0.574644	-0.493694	1.153505
C143	C	0.109258	-0.942450	0.609909
C144	C	0.609258	-0.442450	1.109909
C145	C	0.139081	-0.898295	0.479366
C146	C	0.639081	-0.398295	0.979366
C147	C	0.106195	-0.946968	0.520791
C148	C	0.606195	-0.446968	1.020791
H149	H	-0.055999	-1.057282	0.000123
H150	H	0.444001	-0.557282	0.500123
F151	F	-0.705307	-0.770050	0.000042
F152	F	-0.205307	-0.270050	0.500042
H153	H	-0.332803	-1.124051	0.000094
H154	H	0.167197	-0.624051	0.500094
F155	F	-0.582602	-0.772063	0.000031
F156	F	-0.082602	-0.272063	0.500031
F157	F	0.189893	-0.823141	0.787071
F158	F	0.689893	-0.323141	1.287071
F159	F	-0.035650	-0.781046	0.000082
F160	F	0.464350	-0.281046	0.500082
H161	H	0.020809	-0.703024	0.000084
H162	H	0.520809	-0.203024	0.500084
H163	H	-0.163843	-1.055521	0.000094
H164	H	0.336157	-0.555521	0.500094
H165	H	0.201259	-0.806255	0.382139
H166	H	0.701259	-0.306255	0.882139
F167	F	-0.305791	-0.705307	0.000009
F168	F	0.194209	-0.205307	0.500009
F169	F	0.179109	-0.839065	0.525762
F170	F	0.679109	-0.339065	1.025762
F171	F	-0.428496	-0.703286	0.000006
F172	F	0.071504	-0.203286	0.500006
H173	H	0.233559	-0.290124	0.000043
H174	H	0.733559	0.209876	0.500043
H175	H	0.047013	-0.325392	0.000112
H176	H	0.547013	0.174608	0.500112
H177	H	-0.440642	-1.122281	0.000080
H178	H	0.059358	-0.622281	0.500080
H179	H	-0.602941	-1.048313	0.000070
H180	H	-0.102941	-0.548313	0.500070
H181	H	-0.151776	-0.796962	0.000093
H182	H	0.348224	-0.296962	0.500093
H183	H	0.207354	-0.667745	0.000032
H184	H	0.707354	-0.167745	0.500032
F185	F	0.210496	-0.507251	0.000044
F186	F	0.710496	-0.007251	0.500044
F187	F	0.236701	-0.129621	0.000062
F188	F	0.736701	0.370379	0.500062
H189	H	0.037928	-0.177520	0.000114
H190	H	0.537928	0.322480	0.500114
H191	H	0.064798	-1.008217	0.223984
H192	H	0.564798	-0.508217	0.723984
F193	F	-0.719066	-1.064228	0.000060
F194	F	-0.219066	-0.564228	0.500060
F195	F	0.203247	-0.431686	0.000064
F196	F	0.703247	0.068314	0.500064
H197	H	0.011727	-0.555138	0.000108
H198	H	0.511727	-0.055138	0.500108
H199	H	0.055516	-0.421332	0.000119
H200	H	0.555516	0.078668	0.500119
F201	F	0.183707	-0.832260	0.607102
F202	F	0.683707	-0.332260	1.107102
F203	F	0.204485	-0.801459	0.213059
F204	F	0.704485	-0.301459	0.713059
F205	F	0.061570	-1.013001	0.393056
F206	F	0.561570	-0.513001	0.893056
H207	H	0.044019	-1.039013	0.618016
H208	H	0.544019	-0.539013	1.118016
H209	H	0.049450	-1.030996	0.776196
H210	H	0.549450	-0.530996	1.276196
H211	H	0.075571	-0.992280	0.485298
H212	H	0.575571	-0.492280	0.985298
