data_functionalizedCrystal
_audit_creation_method	'MofGen! by Chris Wilmer'
_symmetry_space_group_name_H-M	'P1'
_symmetry_Int_Tables_number	1
_symmetry_cell_setting	triclinic
loop_
_symmetry_equiv_pos_as_xyz
  x,y,z
_cell_length_a	12.827893
_cell_length_b	12.645330
_cell_length_c	12.827885
_cell_angle_alpha	89.971921
_cell_angle_beta	90.019272
_cell_angle_gamma	89.973843
loop_
_atom_site_label
_atom_site_type_symbol
_atom_site_fract_x
_atom_site_fract_y
_atom_site_fract_z
Zn1	Zn	1.597591	0.421989	0.590861
Zn2	Zn	1.597452	0.599290	0.416127
Zn3	Zn	1.422833	0.422040	0.416135
Zn4	Zn	1.422785	0.599211	0.590826
O5	O	1.510165	0.510632	0.503487
O6	O	1.743809	0.445520	0.567693
O7	O	1.574251	0.575832	0.269891
O8	O	1.446093	0.273686	0.439330
O9	O	1.743707	0.575782	0.439316
O10	O	1.574487	0.273648	0.567701
O11	O	1.445958	0.445608	0.269897
O12	O	1.276590	0.445531	0.439297
O13	O	1.446012	0.575647	0.737067
O14	O	1.276555	0.575697	0.567642
O15	O	1.574441	0.445443	0.737093
O16	O	1.574204	0.747626	0.439283
O17	O	1.445877	0.747568	0.567634
C18	C	1.238655	0.510612	0.503467
C19	C	1.122502	0.510629	0.503484
C20	C	1.070728	0.575140	0.566895
C21	C	0.950677	0.575159	0.566913
C22	C	1.510049	0.786062	0.503477
C23	C	1.510095	0.903892	0.503507
C24	C	1.429672	1.071464	0.584505
C25	C	1.429279	0.948904	0.584242
C26	C	1.480276	0.948494	0.393377
C27	C	1.479767	1.071093	0.393871
C28	C	1.620772	1.070980	0.531753
C29	C	1.620112	0.948372	0.534159
C30	C	1.782735	0.510654	0.503508
C31	C	1.898889	0.510663	0.503517
C32	C	1.510236	0.510531	0.776057
C33	C	1.510267	0.510487	0.892211
C34	C	1.510274	1.234127	0.503524
C35	C	1.510227	1.116297	0.503550
C36	C	1.510155	0.510657	0.231977
C37	C	1.510327	0.510402	0.115825
C38	C	1.573825	0.446045	0.944008
C39	C	1.573857	0.445999	1.064058
H40	H	1.447936	0.918744	0.665903
H41	H	1.448149	1.100870	0.666434
H42	H	1.535893	1.100754	0.331496
H43	H	1.628275	0.390832	1.108603
H44	H	0.943407	0.455433	0.449221
H45	H	1.455914	0.565580	1.071287
H46	H	1.077952	0.455408	0.449213
H47	H	1.348231	1.102366	0.566059
H48	H	1.398958	1.099786	0.369979
H49	H	1.115279	0.630352	0.621174
H50	H	0.906153	0.630392	0.621199
H51	H	1.347334	0.919671	0.565557
H52	H	1.537096	0.919340	0.331411
H53	H	1.455870	0.565617	0.936742
H54	H	1.400317	0.917885	0.369052
H55	H	1.647963	1.101818	0.610695
H56	H	1.642599	0.919216	0.615209
H57	H	1.683299	0.917726	0.479489
H58	H	1.680788	1.099972	0.472790
H59	H	1.628211	0.390905	0.899477
