data_functionalizedCrystal
_audit_creation_method	'MofGen! by Chris Wilmer'
_symmetry_space_group_name_H-M	'P1'
_symmetry_Int_Tables_number	1
_symmetry_cell_setting	triclinic
loop_
_symmetry_equiv_pos_as_xyz
  x,y,z
_cell_length_a	13.185408
_cell_length_b	9.065218
_cell_length_c	7.540329
_cell_angle_alpha	90.001757
_cell_angle_beta	89.999446
_cell_angle_gamma	111.505308
loop_
_atom_site_label
_atom_site_type_symbol
_atom_site_fract_x
_atom_site_fract_y
_atom_site_fract_z
O1	O	1.443184	0.382837	-0.147356
O2	O	1.127158	0.233881	-0.147385
O3	O	1.291703	0.525714	-0.147367
O4	O	1.278639	0.091005	-0.147375
O5	O	1.291693	0.525712	0.147599
O6	O	1.127148	0.233880	0.147580
O7	O	1.443174	0.382836	0.147609
Cu8	Cu	1.285160	0.308358	0.174527
Cu9	Cu	1.285172	0.308359	-0.174303
O10	O	1.278629	0.091003	0.147590
C11	C	1.086674	0.218779	0.000094
C12	C	0.966058	0.173801	0.000083
C13	C	0.897769	0.013654	0.000076
C14	C	0.784444	-0.028611	0.000091
C15	C	0.739396	0.089267	0.000099
C16	C	0.807685	0.249417	0.000093
C17	C	0.921021	0.291686	0.000092
C18	C	0.762648	0.367300	0.000115
C19	C	0.830936	0.527450	0.000109
C20	C	0.944261	0.569711	0.000106
C21	C	0.989309	0.451833	0.000099
C22	C	0.649311	0.325031	0.000116
C23	C	0.672563	0.603063	0.000132
C24	C	0.785888	0.645328	0.000117
C25	C	1.290443	0.580178	0.000113
C26	C	1.286688	0.742463	0.000104
C27	C	1.483659	0.397938	0.000126
C28	C	1.604275	0.442916	0.000125
C29	C	1.279889	0.036539	0.000107
C30	C	1.283644	-0.125746	0.000104
N31	N	1.285160	0.308361	0.419875
N32	N	1.285181	0.308371	-0.419652
H33	H	0.841504	0.775724	0.000113
H34	H	1.081587	0.486237	0.000091
Cl35	Cl	0.698605	-0.229933	0.000088
Cl36	Cl	0.596928	0.036131	0.000110
H37	H	0.999859	0.700116	0.000124
Cl38	Cl	0.563477	0.123706	0.000122
Cl39	Cl	0.954407	-0.134515	0.000075
Cl40	Cl	0.615940	0.751262	0.000153
