data_functionalizedCrystal
_audit_creation_method	'MofGen! by Chris Wilmer'
_symmetry_space_group_name_H-M	'P1'
_symmetry_Int_Tables_number	1
_symmetry_cell_setting	triclinic
loop_
_symmetry_equiv_pos_as_xyz
  x,y,z
_cell_length_a	27.732048
_cell_length_b	27.732048
_cell_length_c	14.421503
_cell_angle_alpha	89.999321
_cell_angle_beta	89.997938
_cell_angle_gamma	82.642655
loop_
_atom_site_label
_atom_site_type_symbol
_atom_site_fract_x
_atom_site_fract_y
_atom_site_fract_z
O1	O	0.640930	0.057510	-0.077002
O2	O	1.140930	0.557510	0.422998
O3	O	0.500137	0.066256	-0.077032
O4	O	1.000137	0.566256	0.422968
O5	O	0.574906	-0.008514	-0.076998
O6	O	1.074906	0.491486	0.423002
O7	O	0.566161	0.132280	-0.077035
O8	O	1.066161	0.632280	0.422965
O9	O	0.574894	-0.008503	0.077225
O10	O	1.074894	0.491497	0.577225
O11	O	0.500124	0.066267	0.077192
O12	O	1.000124	0.566267	0.577192
O13	O	0.640918	0.057521	0.077221
O14	O	1.140918	0.557521	0.577221
Cu15	Cu	0.570520	0.061895	0.091288
Cu16	Cu	1.070520	0.561895	0.591288
Cu17	Cu	0.570535	0.061882	-0.091099
Cu18	Cu	1.070535	0.561882	0.408901
O19	O	0.566148	0.132291	0.077188
O20	O	1.066148	0.632291	0.577188
C21	C	0.482124	0.066078	0.000077
C22	C	0.982124	0.566078	0.500077
C23	C	0.428469	0.065525	0.000066
C24	C	0.928469	0.565525	0.500066
C25	C	0.089654	0.106229	0.000096
C26	C	0.589654	0.606229	0.500096
C27	C	-0.112006	0.104178	0.000104
C28	C	0.387994	0.604178	0.500104
O29	O	-0.143262	0.141398	0.000135
O30	O	0.356738	0.641398	0.500135
N31	N	-0.131130	0.059843	0.000115
N32	N	0.368870	0.559843	0.500115
C33	C	-0.099835	0.016017	0.000128
C34	C	0.400165	0.516017	0.500128
O35	O	-0.120728	-0.021740	0.000147
O36	O	0.379272	0.478260	0.500147
C37	C	0.101824	0.018068	0.000126
C38	C	0.601824	0.518068	0.500126
C39	C	0.120944	0.062407	0.000107
C40	C	0.620944	0.562407	0.500107
C41	C	0.108775	0.150563	0.000077
C42	C	0.608775	0.650563	0.500077
C43	C	0.159187	0.151076	0.000070
C44	C	0.659187	0.651076	0.500070
C45	C	0.190477	0.107253	0.000081
C46	C	0.690477	0.607253	0.500081
C47	C	0.171356	0.062919	0.000100
C48	C	0.671356	0.562919	0.500100
C49	C	0.133117	-0.025757	0.000147
C50	C	0.633117	0.474243	0.500147
C51	C	0.183535	-0.025240	0.000149
C52	C	0.683535	0.474760	0.500149
C53	C	0.202655	0.019098	0.000129
C54	C	0.702655	0.519098	0.500129
C55	C	0.253059	0.019609	0.000103
C56	C	0.753059	0.519609	0.500103
N57	N	0.272183	0.063944	0.000093
N58	N	0.772183	0.563944	0.500093
C59	C	0.240892	0.107766	0.000082
C60	C	0.740892	0.607766	0.500082
C61	C	-0.205709	0.014943	0.000128
C62	C	0.294291	0.514943	0.500128
C63	C	-0.256124	0.014430	0.000127
C64	C	0.243876	0.514430	0.500127
C65	C	-0.268291	0.102591	0.000104
C66	C	0.231709	0.602591	0.500104
C67	C	-0.217876	0.103104	0.000099
C68	C	0.282124	0.603104	0.500099
C69	C	-0.186585	0.059278	0.000118
C70	C	0.313415	0.559278	0.500118
C71	C	0.346761	0.108839	0.000066
C72	C	0.846761	0.608839	0.500066
C73	C	0.397178	0.109347	0.000055
C74	C	0.897178	0.609347	0.500055
C75	C	0.409341	0.021186	0.000082
C76	C	0.909341	0.521186	0.500082
C77	C	0.358929	0.020678	0.000088
C78	C	0.858929	0.520678	0.500088
C79	C	0.327639	0.064508	0.000084
C80	C	0.827639	0.564508	0.500084
O81	O	0.284343	-0.017592	0.000084
O82	O	0.784343	0.482408	0.500084
O83	O	0.261794	0.145518	0.000085
O84	O	0.761794	0.645518	0.500085
C85	C	0.039242	0.105716	0.000103
C86	C	0.539242	0.605716	0.500103
C87	C	0.020120	0.061382	0.000121
C88	C	0.520120	0.561382	0.500121
C89	C	0.051411	0.017560	0.000132
C90	C	0.551411	0.517560	0.500132
C91	C	-0.030294	0.060869	0.000120
C92	C	0.469706	0.560869	0.500120
C93	C	-0.061585	0.104691	0.000109
C94	C	0.438415	0.604691	0.500109
C95	C	-0.042461	0.149026	0.000099
C96	C	0.457539	0.649026	0.500099
C97	C	0.007951	0.149539	0.000092
C98	C	0.507951	0.649539	0.500092
C99	C	0.032287	-0.026775	0.000143
C100	C	0.532287	0.473225	0.500143
C101	C	-0.018125	-0.027284	0.000149
C102	C	0.481875	0.472716	0.500149
C103	C	-0.049416	0.016538	0.000138
C104	C	0.450584	0.516538	0.500138
C105	C	0.574716	-0.026515	0.000116
C106	C	1.074716	0.473485	0.500116
C107	C	0.574164	-0.080170	0.000124
C108	C	1.074164	0.419830	0.500124
C109	C	0.614867	-0.418985	0.000084
C110	C	1.114867	0.081015	0.500084
C111	C	0.612816	-0.620645	0.000071
C112	C	1.112816	-0.120645	0.500071
O113	O	0.650037	-0.651900	0.000038
O114	O	1.150037	-0.151900	0.500038
N115	N	0.568481	-0.639768	0.000063
N116	N	1.068481	-0.139768	0.500063
C117	C	0.524656	-0.608474	0.000052
C118	C	1.024656	-0.108474	0.500052
O119	O	0.486899	-0.629367	0.000035
O120	O	0.986899	-0.129367	0.500035
C121	C	0.526707	-0.406815	0.000058
C122	C	1.026707	0.093185	0.500058
C123	C	0.571045	-0.387694	0.000076
C124	C	1.071045	0.112306	0.500076
C125	C	0.659202	-0.399864	0.000101
C126	C	1.159202	0.100136	0.500101
C127	C	0.659714	-0.349452	0.000110
C128	C	1.159714	0.150548	0.500110
C129	C	0.615892	-0.318161	0.000101
C130	C	1.115892	0.181839	0.500101
C131	C	0.571557	-0.337282	0.000084
C132	C	1.071557	0.162718	0.500084
C133	C	0.482882	-0.375521	0.000040
C134	C	0.982882	0.124479	0.500040
C135	C	0.483399	-0.325104	0.000040
C136	C	0.983399	0.174896	0.500040
C137	C	0.527737	-0.305983	0.000058
C138	C	1.027737	0.194017	0.500058
C139	C	0.528247	-0.255580	0.000084
C140	C	1.028247	0.244420	0.500084
N141	N	0.572583	-0.236456	0.000093
N142	N	1.072583	0.263544	0.500093
C143	C	0.616405	-0.267747	0.000101
C144	C	1.116405	0.232253	0.500101
C145	C	0.523582	-0.714348	0.000050
C146	C	1.023582	-0.214348	0.500050
C147	C	0.523069	-0.764762	0.000050
C148	C	1.023069	-0.264762	0.500050
C149	C	0.611230	-0.776930	0.000068
C150	C	1.111230	-0.276930	0.500068
C151	C	0.611742	-0.726514	0.000074
C152	C	1.111742	-0.226514	0.500074
C153	C	0.567917	-0.695224	0.000058
C154	C	1.067917	-0.195224	0.500058
C155	C	0.617477	-0.161878	0.000120
C156	C	1.117477	0.338122	0.500120
C157	C	0.617986	-0.111461	0.000132
C158	C	1.117986	0.388539	0.500132
C159	C	0.529825	-0.099298	0.000109
C160	C	1.029825	0.400702	0.500109
C161	C	0.529316	-0.149710	0.000102
C162	C	1.029316	0.350290	0.500102
C163	C	0.573147	-0.180999	0.000104
C164	C	1.073147	0.319001	0.500104
O165	O	0.491047	-0.224296	0.000107
O166	O	0.991047	0.275704	0.500107
O167	O	0.654156	-0.246844	0.000098
O168	O	1.154156	0.253156	0.500098
C169	C	0.614355	-0.469397	0.000076
C170	C	1.114355	0.030603	0.500076
C171	C	0.570021	-0.488518	0.000059
C172	C	1.070021	0.011482	0.500059
C173	C	0.526198	-0.457228	0.000051
C174	C	1.026198	0.042772	0.500051
C175	C	0.569508	-0.538933	0.000059
C176	C	1.069508	-0.038933	0.500059
C177	C	0.613330	-0.570223	0.000068
C178	C	1.113330	-0.070223	0.500068
C179	C	0.657665	-0.551100	0.000076
C180	C	1.157665	-0.051100	0.500076
C181	C	0.658177	-0.500688	0.000084
C182	C	1.158177	-0.000688	0.500084
C183	C	0.481863	-0.476351	0.000042
C184	C	0.981863	0.023649	0.500042
C185	C	0.481355	-0.526764	0.000035
C186	C	0.981355	-0.026764	0.500035
C187	C	0.525177	-0.558054	0.000044
C188	C	1.025177	-0.058054	0.500044
C189	C	0.658931	0.057699	0.000111
C190	C	1.158931	0.557699	0.500111
C191	C	0.712586	0.058252	0.000116
C192	C	1.212586	0.558252	0.500116
C193	C	0.566338	0.150292	0.000072
C194	C	1.066338	0.650292	0.500072
C195	C	0.566891	0.203947	0.000058
C196	C	1.066891	0.703947	0.500058
N197	N	0.570513	0.061904	0.219570
N198	N	1.070513	0.561904	0.719570
N199	N	0.570545	0.061869	-0.219380
N200	N	1.070545	0.561869	0.280620
C201	C	0.535934	0.096462	0.469208
C202	C	1.035934	0.596462	0.969208
C203	C	0.579543	0.105518	0.531017
C204	C	1.079543	0.605518	1.031017
C205	C	0.570525	0.061892	0.408731
C206	C	1.070525	0.561892	0.908731
C207	C	0.526927	0.052848	0.531016
C208	C	1.026927	0.552848	1.031016
C209	C	0.570532	0.061882	0.591453
C210	C	1.070532	0.561882	1.091453
C211	C	0.614156	0.070970	0.469179
C212	C	1.114156	0.570970	0.969179
C213	C	0.561512	0.018281	0.469173
C214	C	1.061512	0.518281	0.969173
C215	C	0.605152	0.027318	0.530954
C216	C	1.105152	0.527318	1.030954
C217	C	0.570520	0.061900	0.303470
C218	C	1.070520	0.561900	0.803470
C219	C	0.570543	0.061875	0.696711
C220	C	1.070543	0.561875	1.196711
H221	H	0.412743	0.145454	0.000039
H222	H	0.912743	0.645454	0.500039
C223	C	-0.023264	-0.102602	-0.079098
C224	C	0.476736	0.397398	0.420902
C225	C	-0.039137	-0.076026	0.000170
C226	C	0.460863	0.423974	0.500170
H227	H	-0.036233	-0.132693	-0.079074
H228	H	0.463767	0.367307	0.420926
H229	H	-0.034034	-0.084583	-0.132876
H230	H	0.465966	0.415417	0.367124
H231	H	0.011240	-0.108559	-0.079094
H232	H	0.511240	0.391441	0.420906
H233	H	-0.073641	-0.070066	0.000162
H234	H	0.426359	0.429934	0.500162
H235	H	-0.028370	-0.094049	0.053962
H236	H	0.471630	0.405951	0.553962
H237	H	0.057760	-0.062462	0.000154
H238	H	0.557760	0.437538	0.500154
C239	C	0.708232	-0.614853	-0.079208
C240	C	1.208232	-0.114853	0.420792
C241	C	0.705836	-0.585500	0.000079
C242	C	1.205836	-0.085500	0.500079
H243	H	0.737971	-0.636089	-0.079211
H244	H	1.237971	-0.136089	0.420789
H245	H	0.681755	-0.633451	-0.079207
H246	H	1.181755	-0.133451	0.420793
H247	H	0.706605	-0.594925	-0.132979
H248	H	1.206605	-0.094925	0.367021
H249	H	0.707460	-0.605428	0.053850
H250	H	1.207460	-0.105428	0.553850
H251	H	0.732321	-0.566901	0.000086
H252	H	1.232321	-0.066901	0.500086
H253	H	0.321291	0.144530	0.000065
H254	H	0.821291	0.644530	0.500065
H255	H	0.446177	-0.450879	0.000034
H256	H	0.946177	0.049121	0.500034
H257	H	0.506711	0.125720	0.442097
H258	H	1.006711	0.625720	0.942097
C259	C	0.698429	-0.783906	0.000076
C260	C	1.198429	-0.283906	0.500076
C261	C	0.659401	-0.811330	0.000072
C262	C	1.159401	-0.311330	0.500072
H263	H	0.728165	-0.805146	0.000080
H264	H	1.228165	-0.305146	0.500080
H265	H	0.696799	-0.763990	-0.053700
H266	H	1.196799	-0.263990	0.446300
H267	H	0.696794	-0.763989	0.053863
H268	H	1.196794	-0.263989	0.553863
H269	H	0.661033	-0.831244	-0.053718
H270	H	1.161033	-0.331244	0.446282
H271	H	0.661031	-0.831255	0.053854
H272	H	1.161031	-0.331255	0.553854
C273	C	-0.141957	-0.035638	-0.079142
C274	C	0.358043	0.464362	0.420858
C275	C	-0.171318	-0.033234	0.000137
C276	C	0.328682	0.466766	0.500137
H277	H	-0.120726	-0.065380	-0.079135
H278	H	0.379274	0.434620	0.420865
H279	H	-0.161877	-0.034005	-0.132912
H280	H	0.338123	0.465995	0.367088
H281	H	-0.123350	-0.009162	-0.079135
H282	H	0.376650	0.490838	0.420865
H283	H	-0.189928	-0.059708	0.000127
H284	H	0.310072	0.440292	0.500127
H285	H	-0.151396	-0.034872	0.053922
H286	H	0.348604	0.465128	0.553922
C287	C	0.509171	-0.025374	0.377667
C288	C	1.009171	0.474626	0.877667
C289	C	0.551193	-0.031484	0.432460
C290	C	1.051193	0.468516	0.932460
H291	H	0.502799	-0.056097	0.354997
H292	H	1.002799	0.443903	0.854997
H293	H	0.482422	-0.011273	0.413915
H294	H	0.982422	0.488727	0.913915
H295	H	0.513798	-0.004615	0.326920
H296	H	1.013798	0.495385	0.826920
H297	H	0.546565	-0.052241	0.483211
H298	H	1.046565	0.447759	0.983211
H299	H	0.577948	-0.045593	0.396210
H300	H	1.077948	0.454407	0.896210
C301	C	0.704673	-0.168827	0.000151
C302	C	1.204673	0.331173	0.500151
C303	C	0.665656	-0.196266	0.000130
C304	C	1.165656	0.303734	0.500130
H305	H	0.734415	-0.190057	0.000168
H306	H	1.234415	0.309943	0.500168
H307	H	0.703043	-0.148911	-0.053626
H308	H	1.203043	0.351089	0.446374
H309	H	0.703025	-0.148909	0.053937
H310	H	1.203025	0.351091	0.553937
H311	H	0.667301	-0.216181	-0.053659
H312	H	1.167301	0.283819	0.446341
H313	H	0.667287	-0.216190	0.053913
H314	H	1.167287	0.283810	0.553913
H315	H	0.587173	0.142395	0.558181
H316	H	1.087173	0.642395	1.058181
C317	C	0.663466	-0.676885	0.079365
C318	C	1.163466	-0.176885	0.579365
C319	C	0.660480	-0.705500	0.000086
C320	C	1.160480	-0.205500	0.500086
H321	H	0.693558	-0.663917	0.079371
H322	H	1.193558	-0.163917	0.579371
H323	H	0.637447	-0.651032	0.079351
H324	H	1.137447	-0.151032	0.579351
H325	H	0.661426	-0.696302	0.133141
H326	H	1.161426	-0.196302	0.633141
H327	H	0.662516	-0.686082	-0.053690
H328	H	1.162516	-0.186082	0.446310
H329	H	0.686506	-0.731357	0.000092
H330	H	1.186506	-0.231357	0.500092
H331	H	0.634440	-0.001923	0.557895
H332	H	1.134440	0.498077	1.057895
H333	H	0.209009	-0.060929	0.000165
H334	H	0.709009	0.439071	0.500165
C335	C	0.440984	0.078773	0.536501
C336	C	0.940984	0.578773	1.036501
C337	C	0.477151	0.042519	0.567678
C338	C	0.977151	0.542519	1.067678
H339	H	0.410254	0.072397	0.559128
H340	H	0.910254	0.572397	1.059128
H341	H	0.447626	0.109509	0.558593
H342	H	0.947626	0.609509	1.058593
H343	H	0.440541	0.078995	0.470638
H344	H	0.940541	0.578995	0.970638
H345	H	0.477597	0.042300	0.633542
H346	H	0.977597	0.542300	1.133542
H347	H	0.470507	0.011776	0.545591
H348	H	0.970507	0.511776	1.045591
H349	H	-0.067947	0.184708	0.000086
H350	H	0.432053	0.684708	0.500086
C351	C	0.669718	-0.061823	-0.079127
C352	C	1.169718	0.438177	0.420873
C353	C	0.666725	-0.090443	0.000147
C354	C	1.166725	0.409557	0.500147
H355	H	0.699805	-0.048847	-0.079115
H356	H	1.199805	0.451153	0.420885
H357	H	0.667690	-0.081236	-0.132901
H358	H	1.167690	0.418764	0.367099
H359	H	0.643691	-0.035972	-0.079118
H360	H	1.143691	0.464028	0.420882
H361	H	0.692750	-0.116296	0.000134
H362	H	1.192750	0.383704	0.500134
H363	H	0.668757	-0.071029	0.053935
H364	H	1.168757	0.428971	0.553935
C365	C	0.083489	-0.077474	0.079454
C366	C	0.583489	0.422526	0.579454
C367	C	0.112105	-0.074493	0.000172
C368	C	0.612105	0.425507	0.500172
H369	H	0.070515	-0.107562	0.079465
H370	H	0.570515	0.392438	0.579465
H371	H	0.102902	-0.075434	0.133222
H372	H	0.602902	0.424566	0.633222
H373	H	0.057635	-0.051449	0.079434
H374	H	0.557635	0.448551	0.579434
H375	H	0.137961	-0.100516	0.000196
H376	H	0.637961	0.399484	0.500196
H377	H	0.092691	-0.076538	-0.053610
H378	H	0.592691	0.423462	0.446390
C379	C	-0.009155	0.236627	0.000077
C380	C	0.490845	0.736627	0.500077
C381	C	0.028964	0.198277	0.000081
C382	C	0.528964	0.698277	0.500081
H383	H	0.003816	0.266717	0.000077
H384	H	0.503816	0.766717	0.500077
H385	H	-0.028562	0.234588	-0.053701
H386	H	0.471438	0.734588	0.446299
H387	H	-0.028567	0.234589	0.053862
H388	H	0.471433	0.734589	0.553862
H389	H	0.048373	0.200313	-0.053708
H390	H	0.548373	0.700313	0.446292
H391	H	0.048379	0.200317	0.053864
H392	H	0.548379	0.700317	0.553864
C393	C	0.142081	0.238164	0.000064
C394	C	0.642081	0.738164	0.500064
C395	C	0.180200	0.199814	0.000065
C396	C	0.680200	0.699814	0.500065
H397	H	0.155052	0.268254	0.000070
H398	H	0.655052	0.768254	0.500070
H399	H	0.122675	0.236127	-0.053715
H400	H	0.622675	0.736127	0.446285
H401	H	0.122668	0.236124	0.053848
H402	H	0.622668	0.736124	0.553848
H403	H	0.199610	0.201852	-0.053722
H404	H	0.699610	0.701852	0.446278
H405	H	0.199614	0.201852	0.053850
H406	H	0.699614	0.701852	0.553850
C407	C	0.431165	-0.425142	-0.079277
C408	C	0.931165	0.074858	0.420723
C409	C	0.434143	-0.396530	0.000010
C410	C	0.934143	0.103470	0.500010
H411	H	0.401074	-0.438112	-0.079293
H412	H	0.901074	0.061888	0.420707
H413	H	0.433209	-0.405726	-0.133042
H414	H	0.933209	0.094274	0.366958
H415	H	0.457187	-0.450997	-0.079255
H416	H	0.957187	0.049003	0.420745
H417	H	0.408123	-0.370672	-0.000015
H418	H	0.908123	0.129328	0.499985
H419	H	0.432094	-0.415947	0.053789
H420	H	0.932094	0.084053	0.553789
C421	C	0.408418	-0.299213	-0.079265
C422	C	0.908418	0.200787	0.420735
C423	C	0.435223	-0.290711	0.000025
C424	C	0.935223	0.209289	0.500025
H425	H	0.378676	-0.277983	-0.079268
H426	H	0.878676	0.222017	0.420732
H427	H	0.426618	-0.293446	-0.133028
H428	H	0.926618	0.206554	0.366972
H429	H	0.401774	-0.331977	-0.079261
H430	H	0.901774	0.168023	0.420739
H431	H	0.441870	-0.257948	0.000017
H432	H	0.941870	0.242052	0.500017
H433	H	0.417019	-0.296475	0.053802
H434	H	0.917019	0.203525	0.553802
H435	H	0.694282	-0.485125	0.000099
H436	H	1.194282	0.014875	0.500099
H437	H	0.651037	0.078660	0.442131
H438	H	1.151037	0.578660	0.942131
C439	C	0.746803	-0.366558	0.000117
C440	C	1.246803	0.133442	0.500117
C441	C	0.708452	-0.328439	0.000117
C442	C	1.208452	0.171561	0.500117
H443	H	0.776893	-0.353587	0.000114
H444	H	1.276893	0.146413	0.500114
H445	H	0.744764	-0.385966	0.053895
H446	H	1.244764	0.114034	0.553895
H447	H	0.744764	-0.385968	-0.053668
H448	H	1.244764	0.114032	0.446332
H449	H	0.710489	-0.309031	0.053906
H450	H	1.210489	0.190969	0.553906
H451	H	0.710493	-0.309022	-0.053666
H452	H	1.210493	0.190978	0.446334
C453	C	0.492029	-0.017163	0.000102
C454	C	0.992029	0.482837	0.500102
C455	C	0.443742	-0.026981	0.000102
C456	C	0.943742	0.473019	0.500102
H457	H	0.513267	-0.046901	0.000126
H458	H	1.013267	0.453099	0.500126
H459	H	0.497788	0.001022	-0.053686
H460	H	0.997788	0.501022	0.446314
H461	H	0.497780	0.001042	0.053876
H462	H	0.997780	0.501042	0.553876
H463	H	0.437990	-0.045184	-0.053676
H464	H	0.937990	0.454816	0.446324
H465	H	0.437981	-0.045174	0.053896
H466	H	0.937981	0.454826	0.553896
H467	H	-0.202311	0.139207	0.000088
H468	H	0.297689	0.639207	0.500088
C469	C	-0.350979	0.140942	0.000104
C470	C	0.149021	0.640942	0.500104
C471	C	-0.302692	0.150762	0.000098
C472	C	0.197308	0.650762	0.500098
H473	H	-0.372217	0.170680	0.000110
H474	H	0.127783	0.670680	0.500110
H475	H	-0.356735	0.122749	-0.053673
H476	H	0.143265	0.622749	0.446327
H477	H	-0.356733	0.122745	0.053890
H478	H	0.143267	0.622745	0.553890
H479	H	-0.296937	0.168956	-0.053691
H480	H	0.203063	0.668956	0.446309
H481	H	-0.296934	0.168963	0.053881
H482	H	0.203066	0.668963	0.553881
H483	H	0.694889	-0.425336	0.000105
H484	H	1.194889	0.074664	0.500105
H485	H	0.486964	-0.780325	0.000051
H486	H	0.986964	-0.280325	0.500051
H487	H	0.083302	0.186251	0.000072
H488	H	0.583302	0.686251	0.500072
H489	H	0.493213	-0.165279	0.000113
H490	H	0.993213	0.334721	0.500113
C491	C	-0.261259	-0.060881	-0.079133
C492	C	0.238741	0.439119	0.420867
C493	C	-0.277136	-0.034309	0.000137
C494	C	0.222864	0.465691	0.500137
H495	H	-0.274227	-0.090972	-0.079118
H496	H	0.225773	0.409028	0.420882
H497	H	-0.272025	-0.042859	-0.132910
H498	H	0.227975	0.457141	0.367090
H499	H	-0.226755	-0.066838	-0.079121
H500	H	0.273245	0.433162	0.420879
H501	H	-0.311640	-0.028348	0.000122
H502	H	0.188360	0.471652	0.500122
H503	H	-0.266373	-0.052334	0.053927
H504	H	0.233627	0.447666	0.553927
C505	C	0.309288	-0.031052	-0.079170
C506	C	0.809288	0.468948	0.420830
C507	C	0.337907	-0.028058	0.000101
C508	C	0.837907	0.471942	0.500101
H509	H	0.296316	-0.061141	-0.079156
H510	H	0.796316	0.438859	0.420844
H511	H	0.283439	-0.005030	-0.079164
H512	H	0.783439	0.494970	0.420836
H513	H	0.328705	-0.029024	-0.132951
H514	H	0.828705	0.470976	0.367049
H515	H	0.318489	-0.030082	0.053883
H516	H	0.818489	0.469918	0.553883
H517	H	0.363759	-0.054087	0.000104
H518	H	0.863759	0.445913	0.500104
C519	C	0.473004	-0.650601	-0.079245
C520	C	0.973004	-0.150601	0.420755
C521	C	0.475403	-0.679958	0.000037
C522	C	0.975403	-0.179958	0.500037
H523	H	0.443258	-0.629375	-0.079251
H524	H	0.943258	-0.129375	0.420749
H525	H	0.499473	-0.631992	-0.079234
H526	H	0.999473	-0.131992	0.420766
H527	H	0.474644	-0.670527	-0.133019
H528	H	0.974644	-0.170527	0.366981
H529	H	0.473766	-0.660033	0.053812
H530	H	0.973766	-0.160033	0.553812
H531	H	0.448927	-0.698569	0.000034
H532	H	0.948927	-0.198569	0.500034
C533	C	0.442629	-0.092322	0.000077
C534	C	0.942629	0.407678	0.500077
C535	C	0.481657	-0.064897	0.000094
C536	C	0.981657	0.435103	0.500094
H537	H	0.412893	-0.071083	0.000067
H538	H	0.912893	0.428917	0.500067
H539	H	0.444269	-0.112238	-0.053700
H540	H	0.944269	0.387762	0.446300
H541	H	0.444255	-0.112239	0.053863
H542	H	0.944255	0.387761	0.553863
H543	H	0.480033	-0.044983	-0.053696
H544	H	0.980033	0.455017	0.446304
H545	H	0.480016	-0.044972	0.053876
H546	H	0.980016	0.455028	0.553876
C547	C	0.394261	-0.509660	0.000001
C548	C	0.894261	-0.009660	0.500001
C549	C	0.432613	-0.547777	0.000013
C550	C	0.932613	-0.047777	0.500013
H551	H	0.364172	-0.522633	-0.000025
H552	H	0.864172	-0.022633	0.499975
H553	H	0.396288	-0.490255	0.053786
H554	H	0.896288	0.009745	0.553786
H555	H	0.396309	-0.490246	-0.053777
H556	H	0.896309	0.009754	0.446223
H557	H	0.430567	-0.567189	0.053794
H558	H	0.930567	-0.067189	0.553794
H559	H	0.430585	-0.567190	-0.053778
H560	H	0.930585	-0.067190	0.446222
