data_functionalizedCrystal
_audit_creation_method	'MofGen! by Chris Wilmer'
_symmetry_space_group_name_H-M	'P1'
_symmetry_Int_Tables_number	1
_symmetry_cell_setting	triclinic
loop_
_symmetry_equiv_pos_as_xyz
  x,y,z
_cell_length_a	21.395362
_cell_length_b	14.908520
_cell_length_c	14.908858
_cell_angle_alpha	89.778004
_cell_angle_beta	93.259282
_cell_angle_gamma	93.337688
loop_
_atom_site_label
_atom_site_type_symbol
_atom_site_fract_x
_atom_site_fract_y
_atom_site_fract_z
Zn1	Zn	0.923498	-0.328213	-0.529480
Zn2	Zn	1.423498	0.171787	-0.029480
Zn3	Zn	0.922727	-0.487268	-0.387793
Zn4	Zn	1.422727	0.012732	0.112207
Zn5	Zn	0.824396	-0.336969	-0.379092
Zn6	Zn	1.324396	0.163031	0.120908
Zn7	Zn	0.812328	-0.478580	-0.538050
Zn8	Zn	1.312328	0.021420	-0.038050
O9	O	0.870737	-0.407758	-0.458604
O10	O	1.370737	0.092242	0.041396
O11	O	1.011073	-0.349284	-0.510740
O12	O	1.511073	0.150716	-0.010740
O13	O	0.914411	-0.474630	-0.260818
O14	O	1.414411	0.025370	0.239182
O15	O	0.842916	-0.209978	-0.391814
O16	O	1.342916	0.290022	0.108186
O17	O	1.010506	-0.466140	-0.406643
O18	O	1.510506	0.033860	0.093357
O19	O	0.915726	-0.203545	-0.502303
O20	O	1.415726	0.296455	-0.002303
O21	O	0.842168	-0.364206	-0.254425
O22	O	1.342168	0.135794	0.245575
O23	O	0.735119	-0.355782	-0.400123
O24	O	1.235119	0.144218	0.099877
O25	O	0.822347	-0.451334	-0.662734
O26	O	1.322347	0.048666	-0.162734
O27	O	0.726252	-0.459824	-0.516909
O28	O	1.226252	0.040176	-0.016909
O29	O	0.904023	-0.340860	-0.656438
O30	O	1.404023	0.159140	-0.156438
O31	O	0.902709	-0.611945	-0.414953
O32	O	1.402709	-0.111945	0.085047
O33	O	0.821599	-0.605562	-0.525346
O34	O	1.321599	-0.105562	-0.025346
C35	C	0.707952	-0.407811	-0.458502
C36	C	1.207952	0.092189	0.041498
C37	C	0.638309	-0.407854	-0.458481
C38	C	1.138309	0.092146	0.041519
C39	C	0.860777	-0.641379	-0.472043
C40	C	1.360777	-0.141379	0.027957
C41	C	0.856572	-0.741321	-0.477823
C42	C	1.356572	-0.241321	0.022177
C43	C	0.600996	-0.462110	-0.519210
C44	C	1.100996	0.037890	-0.019210
C45	C	0.535560	-0.462086	-0.519249
C46	C	1.035560	0.037914	-0.019249
C47	C	0.507440	-0.407816	-0.458544
C48	C	1.007440	0.092184	0.041456
C49	C	0.544762	-0.353550	-0.397810
C50	C	1.044762	0.146450	0.102190
C51	C	0.610197	-0.353569	-0.397779
C52	C	1.110197	0.146431	0.102221
C53	C	0.407082	-0.405262	-0.377182
C54	C	0.907082	0.094738	0.122818
C55	C	0.341648	-0.405250	-0.377212
C56	C	0.841648	0.094750	0.122788
C57	C	0.305618	-0.407752	-0.458639
C58	C	0.805618	0.092248	0.041361
C59	C	0.335029	-0.410285	-0.540041
C60	C	0.835029	0.089715	-0.040041
C61	C	0.400464	-0.410305	-0.540010
C62	C	0.900464	0.089695	-0.040010
C63	C	0.436488	-0.407789	-0.458571
C64	C	0.936488	0.092211	0.041429
C65	C	0.197351	-0.461984	-0.519415
C66	C	0.697351	0.038016	-0.019415
C67	C	0.131914	-0.461953	-0.519455
C68	C	0.631914	0.038047	-0.019455
C69	C	0.141118	-0.353422	-0.398009
C70	C	0.641118	0.146578	0.101991
C71	C	0.206554	-0.353448	-0.397977
C72	C	0.706554	0.146552	0.102023
C73	C	0.234666	-0.407733	-0.458679
C74	C	0.734666	0.092267	0.041321
C75	C	0.933209	-0.935703	-0.373824
C76	C	1.433209	-0.435703	0.126176
C77	C	0.929260	-1.029608	-0.379251
C78	C	1.429260	-0.529608	0.120749
C79	C	0.844729	-1.023037	-0.494109
C80	C	1.344729	-0.523037	0.005891
C81	C	0.848678	-0.929132	-0.488682
C82	C	1.348678	-0.429132	0.011318
C83	C	0.892919	-0.885469	-0.428536
C84	C	1.392919	-0.385469	0.071464
C85	C	0.896864	-0.791562	-0.423104
C86	C	1.396864	-0.291562	0.076896
C87	C	0.812336	-0.784993	-0.537966
C88	C	1.312336	-0.284993	-0.037966
C89	C	0.808388	-0.878898	-0.543394
C90	C	1.308388	-0.378898	-0.043394
C91	C	1.034159	-0.407704	-0.458706
C92	C	1.534159	0.092296	0.041294
C93	C	1.103799	-0.407682	-0.458750
C94	C	1.603799	0.092318	0.041250
C95	C	0.861925	-0.394151	-0.693122
C96	C	1.361925	0.105849	-0.193122
C97	C	0.858170	-0.388353	-0.793060
C98	C	1.358170	0.111647	-0.293060
C99	C	0.880753	-0.173223	-0.445132
C100	C	1.380753	0.326777	0.054868
C101	C	0.885021	-0.073278	-0.439391
C102	C	1.385021	0.426722	0.060609
C103	C	0.815268	-0.322691	-0.930589
C104	C	1.315268	0.177309	-0.430589
C105	C	0.818794	-0.328137	-0.836688
C106	C	1.318794	0.171863	-0.336688
C107	C	0.894023	-0.443124	-0.843339
C108	C	1.394023	0.056876	-0.343339
C109	C	0.890497	-0.437678	-0.937239
C110	C	1.390497	0.062322	-0.437239
C111	C	0.851117	-0.377460	-0.980861
C112	C	1.351117	0.122540	-0.480861
C113	C	0.847588	-0.372019	-1.074764
C114	C	1.347588	0.127981	-0.574764
C115	C	0.922820	-0.487001	-1.081412
C116	C	1.422820	0.012999	-0.581412
C117	C	0.926346	-0.492447	-0.987512
C118	C	1.426346	0.007553	-0.487512
C119	C	0.879554	-0.421246	-0.224994
C120	C	1.379554	0.078754	0.275006
C121	C	0.883442	-0.426791	-0.125042
C122	C	1.383442	0.073209	0.374958
H123	H	0.623881	-0.506312	-0.568640
H124	H	1.123881	-0.006312	-0.068640
H125	H	0.969227	-0.900152	-0.324844
H126	H	1.469227	-0.400152	0.175156
H127	H	0.220242	-0.506181	-0.568847
H128	H	0.720242	-0.006181	-0.068847
N129	N	0.797019	-1.070144	-0.558977
N130	N	1.297019	-0.570144	-0.058977
H131	H	0.753471	-1.054702	-0.543991
H132	H	1.253471	-0.554702	-0.043991
H133	H	0.805041	-1.050013	-0.622264
H134	H	1.305041	-0.550013	-0.122264
H135	H	0.305695	-0.412321	-0.606347
H136	H	0.805695	0.087679	-0.106347
N137	N	0.961491	-0.546074	-1.135637
N138	N	1.461491	-0.046074	-0.635637
H139	H	0.986971	-0.585047	-1.093751
H140	H	1.486971	-0.085047	-0.593751
H141	H	0.932745	-0.585436	-1.176968
H142	H	1.432745	-0.085436	-0.676968
N143	N	0.972717	-1.083791	-0.320243
N144	N	1.472717	-0.583791	0.179757
H145	H	1.001341	-1.041878	-0.281320
H146	H	1.501341	-0.541878	0.218680
H147	H	0.947163	-1.125227	-0.280840
H148	H	1.447163	-0.625227	0.219160
H149	H	0.779527	-0.744081	-0.582514
H150	H	1.279527	-0.244081	-0.082514
N151	N	0.760674	-0.925994	-0.608263
N152	N	1.260674	-0.425994	-0.108263
H153	H	0.764285	-0.993106	-0.603401
H154	H	1.264285	-0.493106	-0.103401
H155	H	0.717152	-0.910477	-0.593234
H156	H	1.217152	-0.410477	-0.093234
H157	H	0.815523	-0.322988	-1.110279
H158	H	1.315523	0.177012	-0.610279
N159	N	0.780123	-0.269064	-0.782475
N160	N	1.280123	0.230936	-0.282475
H161	H	0.750989	-0.307872	-0.745597
H162	H	1.250989	0.192128	-0.245597
H163	H	0.808868	-0.229651	-0.741190
H164	H	1.308868	0.270349	-0.241190
H165	H	0.236935	-0.309272	-0.348520
H166	H	0.736935	0.190728	0.151480
N167	N	0.091665	-0.520479	-0.584954
N168	N	0.591665	-0.020479	-0.084954
H169	H	0.101270	-0.502902	-0.648419
H170	H	0.601270	-0.002902	-0.148419
H171	H	0.100833	-0.585500	-0.574480
H172	H	0.600833	-0.085500	-0.074480
H173	H	0.783201	-0.273663	-0.966106
H174	H	1.283201	0.226337	-0.466106
N175	N	0.936501	-0.508060	-0.796285
N176	N	1.436501	-0.008060	-0.296285
H177	H	0.933228	-0.503289	-0.729176
H178	H	1.433228	-0.003289	-0.229176
H179	H	0.923451	-0.571321	-0.816473
H180	H	1.423451	-0.071321	-0.316473
N181	N	0.968821	-0.557390	-0.940460
N182	N	1.468821	-0.057390	-0.440460
H183	H	0.965546	-0.552624	-0.873351
H184	H	1.465546	-0.052624	-0.373351
H185	H	0.955766	-0.620647	-0.960654
H186	H	1.455766	-0.120647	-0.460654
N187	N	0.495303	-0.520604	-0.584753
N188	N	0.995303	-0.020604	-0.084753
H189	H	0.523042	-0.554995	-0.623203
H190	H	1.023042	-0.054995	-0.123203
H191	H	0.467727	-0.564274	-0.550481
H192	H	0.967727	-0.064274	-0.050481
N193	N	0.110799	-0.294880	-0.332538
N194	N	0.610799	0.205120	0.167462
H195	H	0.063684	-0.303097	-0.341773
H196	H	0.563684	0.196903	0.158227
H197	H	0.124016	-0.312504	-0.269094
H198	H	0.624016	0.187496	0.230906
N199	N	0.514438	-0.295027	-0.332324
N200	N	1.014438	0.204973	0.167676
H201	H	0.467323	-0.303254	-0.341552
H202	H	0.967323	0.196746	0.158448
H203	H	0.527663	-0.312665	-0.268887
H204	H	1.027663	0.187335	0.231113
H205	H	0.317706	-0.403192	-0.310930
H206	H	0.817706	0.096808	0.189070
H207	H	0.424408	-0.412365	-0.606290
H208	H	0.924408	0.087635	-0.106290
H209	H	0.436412	-0.403221	-0.310869
H210	H	0.936412	0.096779	0.189131
H211	H	0.932885	-0.756012	-0.374129
H212	H	1.432885	-0.256012	0.125871
N213	N	0.650447	-0.295041	-0.332283
N214	N	1.150447	0.204959	0.167717
H215	H	0.622707	-0.260651	-0.293834
H216	H	1.122707	0.239349	0.206166
H217	H	0.677570	-0.333999	-0.292699
H218	H	1.177570	0.166001	0.207301
