data_functionalizedCrystal
_audit_creation_method	'MofGen! by Chris Wilmer'
_symmetry_space_group_name_H-M	'P1'
_symmetry_Int_Tables_number	1
_symmetry_cell_setting	triclinic
loop_
_symmetry_equiv_pos_as_xyz
  x,y,z
_cell_length_a	16.959455
_cell_length_b	16.959453
_cell_length_c	12.827885
_cell_angle_alpha	89.965838
_cell_angle_beta	89.977469
_cell_angle_gamma	90.018936
loop_
_atom_site_label
_atom_site_type_symbol
_atom_site_fract_x
_atom_site_fract_y
_atom_site_fract_z
Zn1	Zn	1.208430	-0.314664	-0.590909
Zn2	Zn	1.708430	0.185336	-0.090909
Zn3	Zn	1.208339	-0.446864	-0.416157
Zn4	Zn	1.708339	0.053136	0.083843
Zn5	Zn	1.076245	-0.314701	-0.416173
Zn6	Zn	1.576245	0.185299	0.083827
Zn7	Zn	1.076223	-0.446802	-0.590847
Zn8	Zn	1.576223	0.053198	-0.090847
O9	O	1.142309	-0.380757	-0.503521
O10	O	1.642309	0.119243	-0.003521
O11	O	1.319028	-0.332211	-0.567747
O12	O	1.819028	0.167789	-0.067747
O13	O	1.190787	-0.429373	-0.269923
O14	O	1.690787	0.070627	0.230077
O15	O	1.093826	-0.204085	-0.439385
O16	O	1.593826	0.295915	0.060615
O17	O	1.318962	-0.429337	-0.439357
O18	O	1.818962	0.070663	0.060643
O19	O	1.190942	-0.204058	-0.567763
O20	O	1.690942	0.295942	-0.067763
O21	O	1.093738	-0.332273	-0.269935
O22	O	1.593738	0.167727	0.230065
O23	O	0.965631	-0.332214	-0.439324
O24	O	1.465631	0.167786	0.060676
O25	O	1.093789	-0.429232	-0.737091
O26	O	1.593789	0.070768	-0.237091
O27	O	0.965615	-0.429268	-0.567656
O28	O	1.465615	0.070732	-0.067656
O29	O	1.190921	-0.332151	-0.737137
O30	O	1.690921	0.167849	-0.237137
O31	O	1.190766	-0.557466	-0.439297
O32	O	1.690766	-0.057466	0.060703
O33	O	1.093701	-0.557421	-0.567641
O34	O	1.593701	-0.057421	-0.067641
C35	C	0.936943	-0.380739	-0.503486
C36	C	1.436943	0.119261	-0.003486
C37	C	0.849086	-0.380750	-0.503496
C38	C	1.349086	0.119250	-0.003496
C39	C	0.807797	-0.330146	-0.436786
C40	C	1.307797	0.169854	0.063214
C41	C	0.807822	-0.431359	-0.570221
C42	C	1.307822	0.068641	-0.070221
C43	C	0.725276	-0.431368	-0.570236
C44	C	1.225276	0.068632	-0.070236
C45	C	0.683987	-0.380765	-0.503526
C46	C	1.183987	0.119235	-0.003526
C47	C	0.725243	-0.330152	-0.436802
C48	C	1.225243	0.169848	0.063198
C49	C	0.684013	-0.481975	-0.636967
C50	C	1.184013	0.018025	-0.136967
C51	C	0.601462	-0.481985	-0.636986
C52	C	1.101462	0.018015	-0.136986
C53	C	0.560171	-0.431385	-0.570270
C54	C	1.060171	0.068615	-0.070270
C55	C	0.601433	-0.380770	-0.503542
C56	C	1.101433	0.119230	-0.003542
C57	C	0.560144	-0.330166	-0.436832
C58	C	1.060144	0.169834	0.063168
C59	C	0.601404	-0.279555	-0.370098
C60	C	1.101404	0.220445	0.129902
C61	C	0.683953	-0.279551	-0.370086
C62	C	1.183953	0.220449	0.129914
C63	C	0.477623	-0.431389	-0.570282
C64	C	0.977623	0.068611	-0.070282
C65	C	0.477591	-0.330172	-0.436848
C66	C	0.977591	0.169828	0.063152
C67	C	1.142243	-0.586124	-0.503483
C68	C	1.642243	-0.086124	-0.003483
C69	C	1.142287	-0.673980	-0.503502
C70	C	1.642287	-0.173980	-0.003502
C71	C	1.192942	-1.045383	-0.570494
C72	C	1.692942	-0.545383	-0.070494
C73	C	1.091897	-1.045528	-0.436704
C74	C	1.591897	-0.545528	0.063296
C75	C	1.091868	-0.962982	-0.436680
C76	C	1.591868	-0.462982	0.063320
C77	C	1.142375	-0.921633	-0.503565
C78	C	1.642375	-0.421633	-0.003565
C79	C	1.192912	-0.962830	-0.570474
C80	C	1.692912	-0.462830	-0.070474
C81	C	1.041326	-0.921780	-0.369780
C82	C	1.541326	-0.421780	0.130220
C83	C	1.041294	-0.839229	-0.369754
C84	C	1.541294	-0.339229	0.130246
C85	C	1.091806	-0.797878	-0.436634
C86	C	1.591806	-0.297878	0.063366
C87	C	1.142346	-0.839080	-0.503545
C88	C	1.642346	-0.339080	-0.003545
C89	C	1.192854	-0.797730	-0.570430
C90	C	1.692854	-0.297730	-0.070430
C91	C	1.243398	-0.838931	-0.637337
C92	C	1.743398	-0.338931	-0.137337
C93	C	1.243425	-0.921479	-0.637355
C94	C	1.743425	-0.421479	-0.137355
C95	C	1.091779	-0.715330	-0.436616
C96	C	1.591779	-0.215330	0.063384
C97	C	1.192824	-0.715177	-0.570411
C98	C	1.692824	-0.215177	-0.070411
C99	C	1.348477	-0.380777	-0.503557
C100	C	1.848477	0.119223	-0.003557
C101	C	1.436334	-0.380785	-0.503573
C102	C	1.936334	0.119215	-0.003573
C103	C	1.142363	-0.380681	-0.776092
C104	C	1.642363	0.119319	-0.276092
C105	C	1.142386	-0.380648	-0.892245
C106	C	1.642386	0.119352	-0.392245
C107	C	1.142397	-0.174589	-0.503583
C108	C	1.642397	0.325411	-0.003583
C109	C	1.142434	-0.086733	-0.503609
C110	C	1.642434	0.413267	-0.003609
C111	C	1.190414	-0.428677	-0.944024
C112	C	1.690414	0.071323	-0.444024
C113	C	1.190439	-0.428644	-1.064074
C114	C	1.690439	0.071356	-0.564074
C115	C	1.142301	-0.380777	-0.232011
C116	C	1.642301	0.119223	0.267989
C117	C	1.142431	-0.380587	-0.115859
C118	C	1.642431	0.119413	0.384141
H119	H	0.567776	-0.238350	-0.315788
H120	H	1.067776	0.261650	0.184212
H121	H	1.231557	-0.469764	-1.108603
H122	H	1.731557	0.030236	-0.608603
H123	H	1.101289	-0.339502	-0.936792
H124	H	1.601289	0.160498	-0.436792
Br125	Br	1.261539	-1.101294	-0.661285
Br126	Br	1.761539	-0.601294	-0.161285
Br127	Br	0.421561	-0.261498	-0.346300
Br128	Br	0.921561	0.238502	0.153700
H129	H	0.717554	-0.238346	-0.315755
H130	H	1.217554	0.261654	0.184245
Br131	Br	1.258931	-0.497246	-0.869787
Br132	Br	1.758931	0.002754	-0.369787
Br133	Br	0.863857	-0.500038	-0.660744
Br134	Br	1.363857	-0.000038	-0.160744
H135	H	0.567875	-0.523197	-0.691324
H136	H	1.067875	-0.023197	-0.191324
Br137	Br	0.863789	-0.261467	-0.346217
Br138	Br	1.363789	0.238533	0.153783
Br139	Br	0.740051	-0.550661	-0.727477
Br140	Br	1.240051	-0.050661	-0.227477
Br141	Br	0.972696	-0.783321	-0.278959
Br142	Br	1.472696	-0.283321	0.221041
Br143	Br	0.421630	-0.500062	-0.660852
Br144	Br	0.921630	-0.000062	-0.160852
Br145	Br	1.073883	-0.312053	-1.041656
Br146	Br	1.573883	0.187947	-0.541656
Br147	Br	1.261381	-0.659066	-0.661180
Br148	Br	1.761381	-0.159066	-0.161180
Br149	Br	1.023186	-0.659418	-0.345828
Br150	Br	1.523186	-0.159418	0.154172
Br151	Br	1.311932	-0.782804	-0.728119
Br152	Br	1.811932	-0.282804	-0.228119
H153	H	1.284575	-0.955032	-0.691827
H154	H	1.784575	-0.455032	-0.191827
Br155	Br	1.023340	-1.101645	-0.345954
Br156	Br	1.523340	-0.601645	0.154046
H157	H	1.000203	-0.955452	-0.315328
H158	H	1.500203	-0.455452	0.184672
