data_functionalizedCrystal
_audit_creation_method	'MofGen! by Chris Wilmer'
_symmetry_space_group_name_H-M	'P1'
_symmetry_Int_Tables_number	1
_symmetry_cell_setting	triclinic
loop_
_symmetry_equiv_pos_as_xyz
  x,y,z
_cell_length_a	17.019294
_cell_length_b	15.995350
_cell_length_c	15.072220
_cell_angle_alpha	89.991149
_cell_angle_beta	86.119892
_cell_angle_gamma	83.443443
loop_
_atom_site_label
_atom_site_type_symbol
_atom_site_fract_x
_atom_site_fract_y
_atom_site_fract_z
O1	O	0.101674	1.110876	-0.081474
O2	O	0.114230	0.867085	-0.082451
O3	O	-0.006880	0.995780	-0.073185
O4	O	0.222784	0.982181	-0.090741
O5	O	-0.006873	0.995748	0.074380
O6	O	0.114237	0.867054	0.065113
O7	O	0.101681	1.110844	0.066091
Zn8	Zn	0.107960	0.988944	0.089031
Zn9	Zn	0.107951	0.988986	-0.105392
O10	O	0.222791	0.982149	0.056824
C11	C	0.113714	0.835875	-0.008632
C12	C	0.112158	0.742927	-0.008520
C13	C	0.106569	0.405186	-0.008074
C14	C	0.020317	0.452722	-0.001151
C15	C	0.021873	0.549410	-0.001609
C16	C	0.109342	0.572743	-0.008295
C17	C	0.151880	0.531624	-0.095810
C18	C	0.149714	0.434991	-0.095709
C19	C	0.151503	0.434614	0.071964
C20	C	0.151483	0.531559	0.073073
C21	C	0.110913	0.667439	-0.008423
C22	C	0.105001	0.310490	-0.007952
C23	C	-0.036266	0.995248	0.002842
C24	C	-0.123836	0.993700	0.009530
C25	C	-0.164976	0.992992	-0.067765
C26	C	-0.247256	0.991532	-0.061478
C27	C	-0.288396	0.990786	0.022105
C28	C	-0.247250	0.991491	0.099405
C29	C	-0.164971	0.992945	0.093118
C30	C	-0.536828	0.986389	0.045114
C31	C	-0.619114	0.984937	0.051396
C32	C	-0.619113	0.984976	-0.109488
C33	C	-0.536833	0.986435	-0.115768
C34	C	-0.495693	0.987136	-0.038468
C35	C	-0.372501	0.989296	0.028533
C36	C	-0.411590	0.988620	-0.044897
C37	C	0.252177	0.982681	-0.019205
C38	C	0.339747	0.984229	-0.025899
C39	C	0.102196	1.142054	-0.007731
C40	C	0.103753	1.235002	-0.007849
N41	N	0.107965	0.988921	0.221719
N42	N	0.107939	0.989015	-0.238080
C43	C	0.107948	0.988984	0.580922
C44	C	0.172534	0.919891	0.538373
C45	C	0.172770	0.920049	0.435530
C46	C	0.107957	0.988952	0.402717
C47	C	0.125934	1.076296	0.438641
C48	C	0.126393	1.075908	0.541464
C49	C	0.025193	0.971512	0.549347
C50	C	0.025745	0.969507	0.446441
C51	C	0.107960	0.988940	0.302004
C52	C	0.107946	0.989002	0.681636
H53	H	-0.014158	0.434228	0.061912
N54	N	0.110770	0.412083	-0.171736
N55	N	0.049107	0.376522	-0.161784
H56	H	0.021599	0.360348	-0.215479
H57	H	-0.131486	0.993604	-0.135826
N58	N	-0.022747	0.428189	-0.073233
N59	N	-0.033537	0.352806	-0.082759
H60	H	-0.063948	0.335474	-0.133668
N61	N	-0.289266	0.990803	-0.140442
N62	N	-0.252525	0.991471	-0.215063
H63	H	-0.282193	0.990954	-0.270836
H64	H	-0.503342	0.987044	-0.183830
N65	N	0.114837	0.567264	-0.171670
N66	N	0.154121	0.604348	-0.229190
H67	H	0.127961	0.629517	-0.282770
H68	H	-0.652607	0.984326	0.119462
H69	H	0.080144	1.128934	0.417676
H70	H	-0.378089	0.989222	-0.112949
N71	N	0.231499	0.550743	0.073336
N72	N	0.258893	0.595276	0.013288
H73	H	0.315408	0.608825	0.013467
N74	N	-0.494802	0.987103	0.124065
N75	N	-0.441622	0.928915	0.137948
H76	H	-0.411938	0.929418	0.193711
H77	H	-0.280753	0.990879	0.167460
H78	H	0.186745	1.091319	0.560833
N79	N	-0.020365	0.584418	-0.074291
N80	N	-0.051081	0.537432	-0.124841
H81	H	-0.080913	0.562154	-0.176177
H82	H	0.215097	0.402777	0.067673
N83	N	-0.661149	0.984262	-0.188435
N84	N	-0.734613	0.982965	-0.182814
H85	H	-0.764301	0.982459	-0.238573
H86	H	-0.131474	0.993510	0.156059
N87	N	-0.414515	0.988543	0.113916
N88	N	-0.377779	0.989180	0.182929
H89	H	-0.407452	0.988644	0.243231
N90	N	0.159718	0.838481	0.404903
N91	N	0.150361	0.781042	0.459514
H92	H	0.141291	0.723386	0.437879
H93	H	0.162000	0.854754	0.563935
H94	H	0.185598	1.092077	0.408312
N95	N	0.249137	0.933684	0.564939
N96	N	0.256370	0.994179	0.615072
H97	H	0.310470	1.003924	0.633836
H98	H	0.234181	0.931196	0.406222
N99	N	0.069621	1.142336	0.577006
N100	N	0.029792	1.188838	0.525860
H101	H	-0.010300	1.235755	0.550957
H102	H	0.007906	0.909210	0.576654
H103	H	0.012102	0.905257	0.423107
H104	H	0.213038	0.402668	-0.104373
N105	N	-0.037370	1.028545	0.419008
N106	N	-0.022721	1.086173	0.366555
H107	H	-0.067294	1.127875	0.347179
H108	H	0.216141	0.545673	-0.103855
H109	H	-0.022870	1.021900	0.577343
N110	N	-0.020094	0.585121	0.077356
N111	N	-0.079380	0.638227	0.071779
H112	H	-0.109026	0.663447	0.127548
N113	N	0.116130	0.408870	0.154787
N114	N	0.057366	0.368516	0.155827
H115	H	0.032376	0.350333	0.214317
H116	H	0.120430	0.558899	0.137784
