data_functionalizedCrystal
_audit_creation_method	'MofGen! by Chris Wilmer'
_symmetry_space_group_name_H-M	'P1'
_symmetry_Int_Tables_number	1
_symmetry_cell_setting	triclinic
loop_
_symmetry_equiv_pos_as_xyz
  x,y,z
_cell_length_a	14.971491
_cell_length_b	14.044190
_cell_length_c	13.448316
_cell_angle_alpha	89.988796
_cell_angle_beta	89.991393
_cell_angle_gamma	88.404006
loop_
_atom_site_label
_atom_site_type_symbol
_atom_site_fract_x
_atom_site_fract_y
_atom_site_fract_z
O1	O	1.196681	0.123562	-0.082746
O2	O	1.530015	0.456895	0.250587
O3	O	1.863348	0.790228	0.583920
O4	O	0.937447	0.138350	-0.082740
O5	O	1.270781	0.471684	0.250593
O6	O	1.604114	0.805017	0.583926
O7	O	1.063170	-0.007033	-0.082724
O8	O	1.396503	0.326300	0.250610
O9	O	1.729837	0.659633	0.583943
O10	O	1.070959	0.268945	-0.082763
O11	O	1.404292	0.602279	0.250570
O12	O	1.737625	0.935612	0.583904
O13	O	1.063152	-0.007042	0.082660
O14	O	1.396485	0.326291	0.415993
O15	O	1.729819	0.659624	0.749327
O16	O	0.937429	0.138341	0.082643
O17	O	1.270763	0.471675	0.415977
O18	O	1.604096	0.805008	0.749310
O19	O	1.196663	0.123553	0.082637
O20	O	1.529997	0.456886	0.415971
O21	O	1.863330	0.790219	0.749304
Cu22	Cu	1.067045	0.130946	0.097741
Cu23	Cu	1.400378	0.464280	0.431075
Cu24	Cu	1.733711	0.797613	0.764408
Cu25	Cu	1.067066	0.130957	-0.097844
Cu26	Cu	1.400399	0.464290	0.235489
Cu27	Cu	1.733733	0.797624	0.568822
O28	O	1.070941	0.268936	0.082621
O29	O	1.404274	0.602270	0.415954
O30	O	1.737607	0.935603	0.749287
C31	C	0.904061	0.137684	-0.000047
C32	C	1.237395	0.471017	0.333286
C33	C	1.570728	0.804350	0.666619
C34	C	0.804608	0.135699	-0.000044
C35	C	1.137942	0.469032	0.333289
C36	C	1.471275	0.802366	0.666622
C37	C	0.376238	0.127140	-0.090217
C38	C	0.709571	0.460474	0.243116
C39	C	1.042904	0.793807	0.576450
C40	C	0.469685	0.129002	-0.090213
C41	C	0.803018	0.462336	0.243120
C42	C	1.136351	0.795669	0.576453
C43	C	0.516394	0.129934	-0.000059
C44	C	0.849728	0.463268	0.333274
C45	C	1.183061	0.796601	0.666607
C46	C	0.469653	0.128995	0.090097
C47	C	0.802986	0.462328	0.423430
C48	C	1.136320	0.795662	0.756764
C49	C	0.376208	0.127127	0.090093
C50	C	0.709541	0.460460	0.423426
C51	C	1.042875	0.793793	0.756759
C52	C	0.664422	0.132892	0.090100
C53	C	0.997755	0.466226	0.423434
C54	C	1.331088	0.799559	0.756767
C55	C	0.757873	0.134763	0.090105
C56	C	1.091206	0.468096	0.423438
C57	C	1.424540	0.801429	0.756772
C58	C	0.757898	0.134768	-0.090206
C59	C	1.091232	0.468101	0.243128
C60	C	1.424565	0.801435	0.576461
C61	C	0.664453	0.132899	-0.090210
C62	C	0.997787	0.466233	0.243123
C63	C	1.331120	0.799566	0.576456
C64	C	0.617718	0.131962	-0.000053
C65	C	0.951052	0.465295	0.333280
C66	C	1.284385	0.798629	0.666613
C67	C	1.059754	-0.042356	-0.000029
C68	C	1.393087	0.290977	0.333304
C69	C	1.726420	0.624311	0.666638
C70	C	1.049590	-0.147594	-0.000020
C71	C	1.382923	0.185740	0.333313
C72	C	1.716257	0.519073	0.666647
C73	C	1.103092	-0.397819	-0.000060
C74	C	1.436425	-0.064485	0.333273
C75	C	1.769758	0.268848	0.666607
C76	C	1.031023	-0.340273	-0.000052
C77	C	1.364356	-0.006939	0.333282
C78	C	1.697690	0.326394	0.666615
C79	C	1.041356	-0.233056	-0.000034
C80	C	1.374689	0.100277	0.333299
C81	C	1.708023	0.433610	0.666633
C82	C	1.092760	-0.505045	-0.000078
C83	C	1.426093	-0.171712	0.333256
C84	C	1.759427	0.161622	0.666589
C85	C	1.230049	0.124219	-0.000058
C86	C	1.563383	0.457553	0.333276
C87	C	1.896716	0.790886	0.666609
C88	C	1.329502	0.126204	-0.000067
C89	C	1.662836	0.459537	0.333266
C90	C	1.996169	0.792871	0.666599
C91	C	1.074357	0.304259	-0.000076
C92	C	1.407690	0.637593	0.333257
C93	C	1.741024	0.970926	0.666590
C94	C	1.084521	0.409497	-0.000092
C95	C	1.417854	0.742830	0.333242
C96	C	1.751187	1.076164	0.666575
N97	N	1.067036	0.130938	0.235306
N98	N	1.400370	0.464272	0.568639
N99	N	1.733703	0.797605	0.901972
N100	N	1.067081	0.130957	-0.235409
N101	N	1.400414	0.464291	0.097925
N102	N	1.733748	0.797624	0.431258
C103	C	1.122727	0.066589	0.287353
C104	C	1.456061	0.399922	0.620687
C105	C	1.789394	0.733255	0.954020
C106	C	1.122733	0.066588	0.391457
C107	C	1.456066	0.399921	0.724790
C108	C	1.789399	0.733255	1.058123
C109	C	1.067051	0.130942	0.443510
C110	C	1.400385	0.464275	0.776843
C111	C	1.733718	0.797609	1.110177
C112	C	1.011354	0.195294	0.391455
C113	C	1.344687	0.528628	0.724788
C114	C	1.678021	0.861961	1.058122
C115	C	1.011345	0.195290	0.287354
C116	C	1.344678	0.528623	0.620687
C117	C	1.678011	0.861957	0.954020
C118	C	1.011379	0.195301	0.608435
C119	C	1.344713	0.528634	0.941769
C120	C	1.678046	0.861968	1.275102
C121	C	1.011390	0.195307	0.712544
C122	C	1.344723	0.528640	1.045877
C123	C	1.678057	0.861973	1.379210
C124	C	1.122768	0.066599	0.712538
C125	C	1.456101	0.399932	1.045871
C126	C	1.789434	0.733266	1.379205
C127	C	1.122758	0.066594	0.608437
C128	C	1.456091	0.399928	0.941770
C129	C	1.789425	0.733261	1.275103
C130	C	1.067062	0.130948	0.556389
C131	C	1.400395	0.464282	0.889722
C132	C	1.733729	0.797615	1.223055
H133	H	0.507733	0.129759	-0.163622
H134	H	0.841066	0.463092	0.169711
H135	H	1.174399	0.796425	0.503045
C136	C	1.196923	-0.355595	-0.000037
C137	C	1.530257	-0.022262	0.333296
C138	C	1.863590	0.311071	0.666630
N139	N	1.267597	-0.323782	-0.000013
N140	N	1.600930	0.009552	0.333321
N141	N	1.934264	0.342885	0.666654
C142	C	0.937185	-0.382495	-0.000051
C143	C	1.270518	-0.049162	0.333283
C144	C	1.603851	0.284171	0.666616
N145	N	0.866508	-0.414302	-0.000045
N146	N	1.199842	-0.080969	0.333288
N147	N	1.533175	0.252365	0.666621
H148	H	1.168073	0.014188	0.244978
H149	H	1.501407	0.347522	0.578311
H150	H	1.834740	0.680855	0.911645
H151	H	1.168080	0.014189	0.433833
H152	H	1.501413	0.347523	0.767167
H153	H	1.834746	0.680856	1.100500
C154	C	1.184011	-0.004198	0.551180
C155	C	1.517344	0.329135	0.884513
C156	C	1.850677	0.662469	1.217846
N157	N	1.230144	-0.057523	0.508054
N158	N	1.563478	0.275811	0.841387
N159	N	1.896811	0.609144	1.174721
H160	H	1.168117	0.014200	0.754921
H161	H	1.501450	0.347533	1.088255
H162	H	1.834784	0.680867	1.421588
C163	C	0.950132	0.266094	0.769801
C164	C	1.283465	0.599427	1.103134
C165	C	1.616799	0.932760	1.436467
N166	N	0.903990	0.319410	0.812927
N167	N	1.237323	0.652744	1.146260
N168	N	1.570657	0.986077	1.479593
C169	C	0.809309	0.135794	-0.189379
C170	C	1.142642	0.469128	0.143954
C171	C	1.475976	0.802461	0.477287
N172	N	0.848036	0.136570	-0.264074
N173	N	1.181369	0.469904	0.069259
N174	N	1.514702	0.803237	0.402593
C175	C	0.950088	0.266087	0.230102
C176	C	1.283421	0.599420	0.563435
C177	C	1.616754	0.932754	0.896768
N178	N	0.903948	0.319414	0.186981
N179	N	1.237281	0.652747	0.520314
N180	N	1.570614	0.986081	0.853648
H181	H	0.966022	0.247702	0.566061
H182	H	1.299356	0.581035	0.899395
H183	H	1.632689	0.914368	1.232728
H184	H	0.338213	0.126388	-0.163631
H185	H	0.671546	0.459721	0.169702
H186	H	1.004880	0.793055	0.503036
C187	C	0.613075	0.131870	-0.189384
C188	C	0.946408	0.465203	0.143949
C189	C	1.279741	0.798537	0.477282
N190	N	0.574376	0.131089	-0.264084
N191	N	0.907710	0.464422	0.069250
N192	N	1.241043	0.797755	0.402583
C193	C	0.950095	0.266076	0.448718
C194	C	1.283428	0.599409	0.782051
C195	C	1.616761	0.932742	1.115385
N196	N	0.903952	0.319389	0.491847
N197	N	1.237286	0.652723	0.825180
N198	N	1.570619	0.986056	1.158514
H199	H	0.626372	0.132140	0.163516
H200	H	0.959706	0.465474	0.496849
H201	H	1.293039	0.798807	0.830182
C202	C	0.809253	0.135778	0.189279
C203	C	1.142586	0.469111	0.522612
C204	C	1.475919	0.802445	0.855946
N205	N	0.847952	0.136540	0.263979
N206	N	1.181285	0.469874	0.597312
N207	N	1.514618	0.803207	0.930645
H208	H	0.338157	0.126374	0.163502
H209	H	0.671490	0.459707	0.496835
H210	H	1.004824	0.793041	0.830168
C211	C	0.521035	0.130060	0.189268
C212	C	0.854369	0.463394	0.522601
C213	C	1.187702	0.796727	0.855934
N214	N	0.559735	0.130882	0.263965
N215	N	0.893068	0.464215	0.597299
N216	N	1.226402	0.797548	0.930632
