data_functionalizedCrystal
_audit_creation_method	'MofGen! by Chris Wilmer'
_symmetry_space_group_name_H-M	'P1'
_symmetry_Int_Tables_number	1
_symmetry_cell_setting	triclinic
loop_
_symmetry_equiv_pos_as_xyz
  x,y,z
_cell_length_a	13.897449
_cell_length_b	13.897448
_cell_length_c	13.897441
_cell_angle_alpha	90.028012
_cell_angle_beta	89.979267
_cell_angle_gamma	89.979152
loop_
_atom_site_label
_atom_site_type_symbol
_atom_site_fract_x
_atom_site_fract_y
_atom_site_fract_z
Zn1	Zn	1.474690	0.383951	-0.545399
Zn2	Zn	1.724690	0.633951	-0.295399
Zn3	Zn	1.974690	0.883951	-0.045399
Zn4	Zn	2.224690	1.133951	0.204601
Zn5	Zn	1.474579	0.545273	-0.384107
Zn6	Zn	1.724579	0.795273	-0.134107
Zn7	Zn	1.974579	1.045273	0.115893
Zn8	Zn	2.224579	1.295273	0.365893
Zn9	Zn	1.313379	0.383997	-0.384117
Zn10	Zn	1.563379	0.633997	-0.134117
Zn11	Zn	1.813379	0.883997	0.115883
Zn12	Zn	2.063379	1.133997	0.365883
Zn13	Zn	1.313356	0.545210	-0.545360
Zn14	Zn	1.563356	0.795210	-0.295360
Zn15	Zn	1.813356	1.045210	-0.045360
Zn16	Zn	2.063356	1.295210	0.204640
O17	O	1.394001	0.464608	-0.464746
O18	O	1.644001	0.714608	-0.214746
O19	O	1.894001	0.964608	0.035254
O20	O	2.144001	1.214608	0.285254
O21	O	1.609657	0.405358	-0.524015
O22	O	1.859657	0.655358	-0.274015
O23	O	2.109657	0.905358	-0.024015
O24	O	2.359657	1.155358	0.225985
O25	O	1.453159	0.523925	-0.249127
O26	O	1.703159	0.773925	0.000873
O27	O	1.953159	1.023925	0.250873
O28	O	2.203159	1.273925	0.500873
O29	O	1.334834	0.249009	-0.405532
O30	O	1.584834	0.499009	-0.155532
O31	O	1.834834	0.749009	0.094468
O32	O	2.084834	0.999009	0.344468
O33	O	1.609575	0.523881	-0.405515
O34	O	1.859575	0.773881	-0.155515
O35	O	2.109575	1.023881	0.094485
O36	O	2.359575	1.273881	0.344485
O37	O	1.453348	0.248976	-0.524024
O38	O	1.703348	0.498976	-0.274024
O39	O	1.953348	0.748976	-0.024024
O40	O	2.203348	0.998976	0.225976
O41	O	1.334726	0.405436	-0.249134
O42	O	1.584726	0.655436	0.000866
O43	O	1.834726	0.905436	0.250866
O44	O	2.084726	1.155436	0.500866
O45	O	1.178394	0.405375	-0.405494
O46	O	1.428394	0.655375	-0.155494
O47	O	1.678394	0.905375	0.094506
O48	O	1.928394	1.155375	0.344506
O49	O	1.334794	0.523773	-0.680347
O50	O	1.584794	0.773773	-0.430347
O51	O	1.834794	1.023773	-0.180347
O52	O	2.084794	1.273773	0.069653
O53	O	1.178377	0.523817	-0.523958
O54	O	1.428377	0.773817	-0.273958
O55	O	1.678377	1.023817	-0.023958
O56	O	1.928377	1.273817	0.226042
O57	O	1.453325	0.405297	-0.680375
O58	O	1.703325	0.655297	-0.430375
O59	O	1.953325	0.905297	-0.180375
O60	O	2.203325	1.155297	0.069625
O61	O	1.453136	0.680246	-0.405477
O62	O	1.703136	0.930246	-0.155477
O63	O	1.953136	1.180246	0.094523
O64	O	2.203136	1.430246	0.344523
O65	O	1.334686	0.680200	-0.523949
O66	O	1.584686	0.930200	-0.273949
O67	O	1.834686	1.180200	-0.023949
O68	O	2.084686	1.430200	0.226051
C69	C	1.143387	0.464595	-0.464724
C70	C	1.393387	0.714595	-0.214724
C71	C	1.643387	0.964595	0.035276
C72	C	1.893387	1.214595	0.285276
C73	C	1.036173	0.464613	-0.464737
C74	C	1.286173	0.714613	-0.214737
C75	C	1.536173	0.964613	0.035263
C76	C	1.786173	1.214613	0.285263
C77	C	1.393922	0.715222	-0.464729
C78	C	1.643922	0.965222	-0.214729
C79	C	1.893922	1.215222	0.035271
C80	C	2.143922	1.465222	0.285271
C81	C	1.393977	0.822436	-0.464754
C82	C	1.643977	1.072436	-0.214754
C83	C	1.893977	1.322436	0.035246
C84	C	2.143977	1.572436	0.285246
C85	C	1.394069	0.464522	-0.716339
C86	C	1.644069	0.714522	-0.466339
C87	C	1.894069	0.964522	-0.216339
C88	C	2.144069	1.214522	0.033661
C89	C	1.394098	0.464486	-0.823553
C90	C	1.644098	0.714486	-0.573553
C91	C	1.894098	0.964486	-0.323553
C92	C	2.144098	1.214486	-0.073553
C93	C	0.839878	0.464616	-0.464762
C94	C	1.089878	0.714616	-0.214762
C95	C	1.339878	0.964616	0.035238
C96	C	1.589878	1.214616	0.285238
C97	C	0.949110	0.464611	-0.464746
C98	C	1.199110	0.714611	-0.214746
C99	C	1.449110	0.964611	0.035254
C100	C	1.699110	1.214611	0.285254
C101	C	1.645594	0.464621	-0.464768
C102	C	1.895594	0.714621	-0.214768
C103	C	2.145594	0.964621	0.035232
C104	C	2.395594	1.214621	0.285232
C105	C	1.752808	0.464627	-0.464778
C106	C	2.002808	0.714627	-0.214778
C107	C	2.252808	0.964627	0.035222
C108	C	2.502808	1.214627	0.285222
C109	C	1.394072	1.018731	-0.464824
C110	C	1.644072	1.268731	-0.214824
C111	C	1.894072	1.518731	0.035176
C112	C	2.144072	1.768731	0.285176
C113	C	1.394016	0.909499	-0.464788
C114	C	1.644016	1.159499	-0.214788
C115	C	1.894016	1.409499	0.035212
C116	C	2.144016	1.659499	0.285212
C117	C	1.394098	1.213015	-0.464795
C118	C	1.644098	1.463015	-0.214795
C119	C	1.894098	1.713015	0.035205
C120	C	2.144098	1.963015	0.285205
C121	C	1.394118	1.105801	-0.464845
C122	C	1.644118	1.355801	-0.214845
C123	C	1.894118	1.605801	0.035155
C124	C	2.144118	1.855801	0.285155
C125	C	1.394125	0.464421	-1.019848
C126	C	1.644125	0.714421	-0.769848
C127	C	1.894125	0.964421	-0.519848
C128	C	2.144125	1.214421	-0.269848
C129	C	1.394107	0.464460	-0.910615
C130	C	1.644107	0.714460	-0.660615
C131	C	1.894107	0.964460	-0.410615
C132	C	2.144107	1.214460	-0.160615
C133	C	1.393988	0.464623	-0.214131
C134	C	1.643988	0.714623	0.035869
C135	C	1.893988	0.964623	0.285869
C136	C	2.143988	1.214623	0.535869
C137	C	1.394146	0.464388	-0.106918
C138	C	1.644146	0.714388	0.143082
C139	C	1.894146	0.964388	0.393082
C140	C	2.144146	1.214388	0.643082
