data_functionalizedCrystal
_audit_creation_method	'MofGen! by Chris Wilmer'
_symmetry_space_group_name_H-M	'P1'
_symmetry_Int_Tables_number	1
_symmetry_cell_setting	triclinic
loop_
_symmetry_equiv_pos_as_xyz
  x,y,z
_cell_length_a	19.805407
_cell_length_b	13.897448
_cell_length_c	13.897449
_cell_angle_alpha	90.010270
_cell_angle_beta	90.008082
_cell_angle_gamma	90.017692
loop_
_atom_site_label
_atom_site_type_symbol
_atom_site_fract_x
_atom_site_fract_y
_atom_site_fract_z
Zn1	Zn	1.034700	-0.384178	0.545435
Zn2	Zn	1.368033	-0.050844	0.878768
Zn3	Zn	1.701367	0.282489	1.212102
Zn4	Zn	1.034655	-0.545442	0.384136
Zn5	Zn	1.367988	-0.212109	0.717470
Zn6	Zn	1.701321	0.121225	1.050803
Zn7	Zn	0.921537	-0.384163	0.384147
Zn8	Zn	1.254871	-0.050829	0.717481
Zn9	Zn	1.588204	0.282504	1.050814
Zn10	Zn	0.921495	-0.545432	0.545383
Zn11	Zn	1.254829	-0.212099	0.878716
Zn12	Zn	1.588162	0.121234	1.212050
O13	O	0.978097	-0.464804	0.464775
O14	O	1.311430	-0.131470	0.798109
O15	O	1.644763	0.201863	1.131442
O16	O	1.129410	-0.405580	0.524055
O17	O	1.462744	-0.072247	0.857389
O18	O	1.796077	0.261087	1.190722
O19	O	1.019648	-0.524046	0.249156
O20	O	1.352981	-0.190713	0.582490
O21	O	1.686315	0.142621	0.915823
O22	O	0.936585	-0.249183	0.405569
O23	O	1.269918	0.084150	0.738902
O24	O	1.603252	0.417484	1.072236
O25	O	1.129377	-0.524060	0.405550
O26	O	1.462711	-0.190727	0.738883
O27	O	1.796044	0.142606	1.072217
O28	O	1.019725	-0.249194	0.524066
O29	O	1.353058	0.084139	0.857399
O30	O	1.686392	0.417473	1.190733
O31	O	0.936541	-0.405555	0.249164
O32	O	1.269874	-0.072221	0.582498
O33	O	1.603208	0.261112	0.915831
O34	O	0.826815	-0.405545	0.405519
O35	O	1.160148	-0.072212	0.738852
O36	O	1.493482	0.261121	1.072185
O37	O	0.936513	-0.524044	0.680371
O38	O	1.269847	-0.190710	1.013705
O39	O	1.603180	0.142623	1.347038
O40	O	0.826784	-0.524029	0.523978
O41	O	1.160118	-0.190696	0.857311
O42	O	1.493451	0.142637	1.190644
O43	O	1.019684	-0.405571	0.680410
O44	O	1.353018	-0.072237	1.013743
O45	O	1.686351	0.261096	1.347076
O46	O	1.019607	-0.680422	0.405500
O47	O	1.352941	-0.347089	0.738833
O48	O	1.686274	-0.013756	1.072166
O49	O	0.936470	-0.680415	0.523967
O50	O	1.269803	-0.347082	0.857300
O51	O	1.603136	-0.013749	1.190634
C52	C	0.802241	-0.464785	0.464744
C53	C	1.135574	-0.131452	0.798078
C54	C	1.468907	0.201881	1.131411
C55	C	0.727009	-0.464801	0.464754
C56	C	1.060342	-0.131467	0.798087
C57	C	1.393675	0.201866	1.131420
C58	C	0.978047	-0.715418	0.464747
C59	C	1.311381	-0.382085	0.798081
C60	C	1.644714	-0.048751	1.131414
C61	C	0.978088	-0.822632	0.464768
C62	C	1.311421	-0.489299	0.798101
C63	C	1.644755	-0.155965	1.131434
C64	C	0.691666	-0.526588	0.526335
C65	C	1.025000	-0.193255	0.859669
C66	C	1.358333	0.140079	1.193002
C67	C	0.620978	-0.526590	0.526349
C68	C	0.954311	-0.193256	0.859682
C69	C	1.287645	0.140077	1.193016
C70	C	0.585633	-0.464808	0.464775
C71	C	0.918967	-0.131475	0.798109
C72	C	1.252300	0.201859	1.131442
C73	C	0.620981	-0.403014	0.403191
C74	C	0.954314	-0.069680	0.736524
C75	C	1.287647	0.263653	1.069858
C76	C	0.691668	-0.403008	0.403183
C77	C	1.025001	-0.069675	0.736516
C78	C	1.358334	0.263659	1.069850
C79	C	0.335907	-0.403035	0.403223
C80	C	0.669241	-0.069702	0.736556
C81	C	1.002574	0.263632	1.069889
C82	C	0.265215	-0.403048	0.403233
C83	C	0.598549	-0.069714	0.736567
C84	C	0.931882	0.263619	1.069900
C85	C	0.265217	-0.526617	0.526389
C86	C	0.598551	-0.193284	0.859722
C87	C	0.931884	0.140050	1.193056
C88	C	0.335905	-0.526611	0.526381
C89	C	0.669238	-0.193278	0.859714
C90	C	1.002571	0.140056	1.193048
C91	C	0.371246	-0.464814	0.464801
C92	C	0.704579	-0.131480	0.798134
C93	C	1.037912	0.201853	1.131467
C94	C	0.447894	-0.464811	0.464788
C95	C	0.781228	-0.131478	0.798121
C96	C	1.114561	0.201855	1.131454
C97	C	0.508986	-0.464815	0.464782
C98	C	0.842319	-0.131481	0.798116
C99	C	1.175653	0.201852	1.131449
C100	C	0.978159	-1.018927	0.464828
C101	C	1.311493	-0.685594	0.798162
C102	C	1.644826	-0.352260	1.131495
C103	C	0.978118	-0.909695	0.464798
C104	C	1.311451	-0.576361	0.798131
C105	C	1.644784	-0.243028	1.131464
C106	C	1.154639	-0.464823	0.464807
C107	C	1.487973	-0.131490	0.798141
C108	C	1.821306	0.201844	1.131474
C109	C	1.229871	-0.464831	0.464821
C110	C	1.563205	-0.131498	0.798154
C111	C	1.896538	0.201835	1.131487
C112	C	0.978099	-0.464808	0.716368
C113	C	1.311433	-0.131474	1.049702
C114	C	1.644766	0.201859	1.383035
C115	C	0.978100	-0.464809	0.823582
C116	C	1.311434	-0.131476	1.156916
C117	C	1.644767	0.201857	1.490249
C118	C	0.978165	-0.213211	0.464825
C119	C	1.311498	0.120123	0.798158
C120	C	1.644831	0.453456	1.131491
C121	C	0.978194	-0.105997	0.464845
C122	C	1.311527	0.227337	0.798179
C123	C	1.644860	0.560670	1.131512
C124	C	0.978083	-0.464814	1.019877
C125	C	1.311417	-0.131481	1.353211
C126	C	1.644750	0.201853	1.686544
C127	C	0.978091	-0.464814	0.910645
C128	C	1.311424	-0.131481	1.243978
C129	C	1.644757	0.201853	1.577312
C130	C	0.978088	-0.464819	1.214161
C131	C	1.311421	-0.131486	1.547494
C132	C	1.644754	0.201847	1.880828
C133	C	0.978082	-0.464812	1.106947
C134	C	1.311416	-0.131478	1.440280
C135	C	1.644749	0.201855	1.773614
H136	H	0.592205	-0.576904	0.576494
H137	H	0.925538	-0.243571	0.909828
H138	H	1.258872	0.089762	1.243161
H139	H	0.364679	-0.576923	0.576517
H140	H	0.698012	-0.243590	0.909851
H141	H	1.031345	0.089743	1.243184
H142	H	0.364674	-0.352723	0.353073
H143	H	0.698007	-0.019390	0.686406
H144	H	1.031340	0.313943	1.019739
N145	N	0.584890	-0.339904	0.340283
N146	N	0.918223	-0.006570	0.673616
N147	N	1.251556	0.326763	1.006949
N148	N	0.616456	-0.284741	0.285303
N149	N	0.949790	0.048592	0.618636
N150	N	1.283123	0.381926	0.951969
H151	H	0.590969	-0.240169	0.240869
H152	H	0.924302	0.093165	0.574203
H153	H	1.257636	0.426498	0.907536
N154	N	0.727761	-0.339878	0.340282
N155	N	1.061094	-0.006545	0.673615
N156	N	1.394428	0.326789	1.006948
N157	N	0.696198	-0.284716	0.285313
N158	N	1.029531	0.048618	0.618646
N159	N	1.362864	0.381951	0.951980
H160	H	0.721687	-0.240123	0.240891
H161	H	1.055020	0.093211	0.574224
H162	H	1.388354	0.426544	0.907558
H163	H	0.720439	-0.576901	0.576473
H164	H	1.053772	-0.243568	0.909806
H165	H	1.387106	0.089765	1.243140
H166	H	0.236440	-0.352732	0.353093
H167	H	0.569773	-0.019398	0.686426
H168	H	0.903106	0.313935	1.019759
H169	H	0.236434	-0.576932	0.576534
H170	H	0.569767	-0.243599	0.909868
H171	H	0.903101	0.089735	1.243201
