data_functionalizedCrystal
_audit_creation_method	'MofGen! by Chris Wilmer'
_symmetry_space_group_name_H-M	'P1'
_symmetry_Int_Tables_number	1
_symmetry_cell_setting	triclinic
loop_
_symmetry_equiv_pos_as_xyz
  x,y,z
_cell_length_a	21.395362
_cell_length_b	25.639239
_cell_length_c	21.395355
_cell_angle_alpha	89.980666
_cell_angle_beta	89.956060
_cell_angle_gamma	90.054564
loop_
_atom_site_label
_atom_site_type_symbol
_atom_site_fract_x
_atom_site_fract_y
_atom_site_fract_z
Zn1	Zn	0.957825	-0.207990	-0.354582
Zn2	Zn	0.957713	-0.295409	-0.249803
Zn3	Zn	0.853040	-0.208014	-0.249783
Zn4	Zn	0.852994	-0.295420	-0.354508
O5	O	0.905393	-0.251708	-0.302169
O6	O	1.045488	-0.219571	-0.340722
O7	O	0.943800	-0.283822	-0.162122
O8	O	0.867006	-0.134846	-0.263708
O9	O	1.045405	-0.283798	-0.263742
O10	O	0.943991	-0.134828	-0.340703
O11	O	0.866897	-0.219613	-0.162108
O12	O	0.765356	-0.219623	-0.263636
O13	O	0.866928	-0.283817	-0.442196
O14	O	0.765322	-0.283840	-0.340576
O15	O	0.943947	-0.219582	-0.442250
O16	O	0.943756	-0.368576	-0.263669
O17	O	0.866820	-0.368584	-0.340596
C18	C	0.742605	-0.251736	-0.302096
C19	C	0.672964	-0.251760	-0.302080
C20	C	0.905288	-0.387551	-0.302140
C21	C	0.905300	-0.445665	-0.302149
C22	C	0.640250	-0.285243	-0.342083
C23	C	0.574814	-0.285230	-0.342111
C24	C	0.542096	-0.251740	-0.302125
C25	C	0.574818	-0.218252	-0.262119
C26	C	0.640252	-0.218262	-0.262097
C27	C	0.438372	-0.247528	-0.245720
C28	C	0.372939	-0.247522	-0.245741
C29	C	0.340275	-0.251706	-0.302194
C30	C	0.373052	-0.255908	-0.358627
C31	C	0.438486	-0.255918	-0.358605
C32	C	0.471143	-0.251725	-0.302145
C33	C	0.236608	-0.285176	-0.342231
C34	C	0.171172	-0.285160	-0.342260
C35	C	0.171176	-0.218185	-0.262262
C36	C	0.236612	-0.218198	-0.262239
C37	C	0.269324	-0.251697	-0.302222
C38	C	0.945558	-0.806011	-0.262182
C39	C	0.945582	-0.860616	-0.262190
O40	O	0.979702	-0.888838	-0.228177
N41	N	0.905503	-0.887947	-0.302211
C42	C	0.865401	-0.860672	-0.342230
O43	O	0.831313	-0.888934	-0.376271
C44	C	0.865381	-0.806069	-0.342224
C45	C	0.905458	-0.778740	-0.302196
C46	C	0.985633	-0.778682	-0.222158
C47	C	0.985608	-0.724082	-0.222149
C48	C	0.945508	-0.696810	-0.262164
C49	C	0.905433	-0.724139	-0.302187
C50	C	0.825282	-0.778794	-0.382246
C51	C	0.825266	-0.724187	-0.382237
C52	C	0.865343	-0.696858	-0.342209
C53	C	0.865308	-0.642267	-0.342193
N54	N	0.905387	-0.614935	-0.302173
C55	C	0.945487	-0.642207	-0.262158
C56	C	0.865448	-0.975343	-0.342239
C57	C	0.865465	-1.029945	-0.342242
C58	C	0.945648	-1.029885	-0.262204
C59	C	0.945627	-0.975281	-0.262198
C60	C	0.905528	-0.948011	-0.302219
C61	C	0.945430	-0.527542	-0.262142
C62	C	0.945400	-0.472937	-0.262134
C63	C	0.865220	-0.473002	-0.342175
C64	C	0.865248	-0.527602	-0.342180
C65	C	0.905358	-0.554871	-0.302162
O66	O	0.831207	-0.614010	-0.376190
O67	O	0.979575	-0.613939	-0.228128
C68	C	1.068816	-0.251681	-0.302242
C69	C	1.138458	-0.251669	-0.302274
C70	C	0.905445	-0.251698	-0.465592
C71	C	0.905467	-0.251693	-0.535234
C72	C	0.905516	-0.115335	-0.302212
C73	C	0.905568	-0.057221	-0.302230
C74	C	0.945569	-0.218245	-0.567976
C75	C	0.945568	-0.218222	-0.633412
C76	C	0.905472	-0.251658	-0.666102
C77	C	0.865362	-0.285108	-0.633352
C78	C	0.865360	-0.285126	-0.567917
C79	C	0.900488	-0.298736	-0.769765
C80	C	0.900495	-0.298719	-0.835198
C81	C	0.905476	-0.251602	-0.867923
C82	C	0.910463	-0.204501	-0.835207
C83	C	0.910461	-0.204519	-0.769773
C84	C	0.905470	-0.251642	-0.737054
C85	C	0.945579	-0.218127	-0.971618
C86	C	0.945574	-0.218103	-1.037055
C87	C	0.865371	-0.284994	-1.036993
C88	C	0.865373	-0.285013	-0.971558
C89	C	0.905480	-0.251580	-0.938874
C90	C	0.905377	-0.251681	-0.139381
C91	C	0.905476	-0.251538	-0.069741
H92	H	0.666880	-0.312519	-0.374642
C93	C	0.230034	-0.351370	-0.421314
C94	C	0.272571	-0.321989	-0.386188
H95	H	0.252236	-0.374093	-0.448455
H96	H	0.204456	-0.371333	-0.393984
H97	H	0.204569	-0.328607	-0.445335
H98	H	0.298032	-0.344752	-0.362163
H99	H	0.298160	-0.302025	-0.413521
C100	C	1.029839	-0.210964	-0.494435
C101	C	0.989631	-0.181483	-0.532042
H102	H	1.057037	-0.188264	-0.472250
H103	H	1.005956	-0.230890	-0.465577
H104	H	1.053801	-0.233724	-0.519977
H105	H	0.965665	-0.158725	-0.506499
H106	H	1.013517	-0.161548	-0.560903
C107	C	0.834764	-0.373671	-0.547746
C108	C	0.821284	-0.321900	-0.531920
H109	H	0.807557	-0.396374	-0.525518
H110	H	0.829020	-0.378442	-0.591389
H111	H	0.876858	-0.381311	-0.537055
H112	H	0.779192	-0.314259	-0.542616
H113	H	0.827023	-0.317127	-0.488268
H114	H	0.978233	-0.190901	-0.945006
H115	H	0.978036	-0.450687	-0.229537
H116	H	0.548173	-0.312495	-0.374689
C117	C	0.352643	-0.284783	-0.144768
C118	C	0.336919	-0.242905	-0.183708
H119	H	0.330411	-0.281930	-0.106468
H120	H	0.341894	-0.316631	-0.164732
H121	H	0.396290	-0.284182	-0.136686
H122	H	0.293273	-0.243508	-0.191793
H123	H	0.347664	-0.211049	-0.163739
C124	C	0.352940	-0.307455	-0.450114
C125	C	0.337162	-0.260498	-0.420691
H126	H	0.330779	-0.310288	-0.488427
H127	H	0.396596	-0.308063	-0.458169
H128	H	0.342135	-0.335861	-0.423703
H129	H	0.347972	-0.232092	-0.447101
H130	H	0.293496	-0.259886	-0.412639
H131	H	0.792613	-0.701986	-0.414829
H132	H	0.263248	-0.190936	-0.229661
H133	H	0.832718	-0.312213	-1.063609
H134	H	0.896265	-0.337094	-0.743126
C135	C	1.024882	-0.980719	-0.183084
C136	C	0.989685	-0.945244	-0.218203
H137	H	1.052086	-0.962176	-0.155926
H138	H	0.997601	-1.002051	-0.159089
H139	H	1.048839	-1.001983	-0.210423
H140	H	0.965724	-0.923982	-0.190864
H141	H	1.016970	-0.923903	-0.242200
H142	H	0.978301	-1.052099	-0.229624
C143	C	0.994346	-0.662706	-0.137861
C144	C	1.029668	-0.694048	-0.178153
H145	H	1.021551	-0.644171	-0.110698
H146	H	0.970470	-0.638645	-0.161686
H147	H	0.967067	-0.684051	-0.113867
H148	H	1.056944	-0.672704	-0.202151
H149	H	1.053554	-0.718113	-0.154326
H150	H	0.666887	-0.190995	-0.229521
H151	H	0.832824	-1.052192	-0.374831
H152	H	0.465171	-0.259338	-0.404555
H153	H	0.464961	-0.244119	-0.199746
H154	H	0.832714	-0.312330	-0.659972
C155	C	0.097678	-0.292522	-0.426555
C156	C	0.135212	-0.321966	-0.386237
H157	H	0.075482	-0.315246	-0.453707
H158	H	0.068831	-0.272578	-0.402749
H159	H	0.123272	-0.269780	-0.450561
H160	H	0.109618	-0.344706	-0.362228
H161	H	0.164063	-0.341919	-0.410046
H162	H	0.144537	-0.190914	-0.229707
H163	H	0.978093	-0.549738	-0.229556
H164	H	0.548174	-0.190984	-0.229563
H165	H	1.018290	-0.800881	-0.189573
C166	C	0.786187	-0.980896	-0.421349
C167	C	0.821359	-0.945369	-0.386227
H168	H	0.758967	-0.962392	-0.448502
H169	H	0.813484	-1.002153	-0.445350
H170	H	0.762249	-1.002230	-0.394012
H171	H	0.845301	-0.924038	-0.413564
H172	H	0.794059	-0.924103	-0.362224
H173	H	0.792644	-0.801036	-0.414837
H174	H	0.832616	-0.549855	-0.374776
C175	C	0.829598	-0.389320	-0.377699
C176	C	0.821147	-0.443017	-0.386161
H177	H	0.802393	-0.370809	-0.404860
H178	H	0.820439	-0.380402	-0.335595
H179	H	0.871691	-0.380332	-0.386916
H180	H	0.779054	-0.452006	-0.376940
H181	H	0.830301	-0.451939	-0.428275
H182	H	0.978222	-0.190982	-0.660076
H183	H	0.914520	-0.166167	-0.743138
H184	H	0.914520	-0.166134	-0.861850
C185	C	1.024861	-0.151998	-1.030539
C186	C	0.989658	-0.181334	-1.073048
H187	H	1.052079	-0.129301	-1.052761
H188	H	0.997583	-0.132008	-1.004997
H189	H	1.048802	-0.174789	-1.005034
H190	H	0.965714	-0.158543	-1.098549
H191	H	1.016939	-0.201325	-1.098600
H192	H	0.832722	-0.312253	-0.944899
C193	C	0.890627	-0.391850	-0.828617
C194	C	0.895012	-0.350491	-0.871156
H195	H	0.887237	-0.423812	-0.850816
H196	H	0.926941	-0.392533	-0.803123
H197	H	0.854720	-0.387258	-0.803068
H198	H	0.930920	-0.355082	-0.896702
H199	H	0.858694	-0.349809	-0.896661
