data_functionalizedCrystal
_audit_creation_method	'MofGen! by Chris Wilmer'
_symmetry_space_group_name_H-M	'P1'
_symmetry_Int_Tables_number	1
_symmetry_cell_setting	triclinic
loop_
_symmetry_equiv_pos_as_xyz
  x,y,z
_cell_length_a	8.497365
_cell_length_b	19.805407
_cell_length_c	19.805405
_cell_angle_alpha	89.974343
_cell_angle_beta	90.057082
_cell_angle_gamma	89.960035
loop_
_atom_site_label
_atom_site_type_symbol
_atom_site_fract_x
_atom_site_fract_y
_atom_site_fract_z
Zn1	Zn	-0.892208	1.034841	0.269307
Zn2	Zn	-0.628384	1.034725	0.382550
Zn3	Zn	-0.628400	0.921625	0.269379
Zn4	Zn	-0.892082	0.921619	0.382458
O5	O	-0.760268	0.978202	0.325923
O6	O	-0.857257	1.129542	0.284337
O7	O	-0.407623	1.019675	0.367606
O8	O	-0.663455	0.936694	0.174653
O9	O	-0.663426	1.129457	0.367537
O10	O	-0.857273	1.019874	0.174600
O11	O	-0.407635	0.936581	0.284460
O12	O	-0.663332	0.826907	0.284371
O13	O	-1.112861	0.936685	0.367379
O14	O	-0.857058	0.826903	0.367449
O15	O	-1.112954	1.019868	0.284248
O16	O	-0.663304	1.019670	0.477254
O17	O	-0.857042	0.936572	0.477187
C18	C	-0.760184	0.802346	0.325908
C19	C	-0.760186	0.727114	0.325918
C20	C	-0.861084	0.265339	0.369264
C21	C	-0.861050	0.336028	0.369263
C22	C	-0.760330	0.371353	0.325940
C23	C	-0.659625	0.335986	0.282620
C24	C	-0.659652	0.265299	0.282625
C25	C	-0.659514	0.621059	0.282599
C26	C	-0.659499	0.691751	0.282596
C27	C	-0.860913	0.691788	0.369237
C28	C	-0.860939	0.621101	0.369242
C29	C	-0.760229	0.585740	0.325925
C30	C	-0.760265	0.509092	0.325928
C31	C	-0.760302	0.448000	0.325933
C32	C	-0.760192	0.978126	0.501779
C33	C	-0.760212	0.978156	0.577011
C34	C	-0.350388	0.978154	0.325997
C35	C	-0.171745	0.978250	0.325858
C36	C	-0.760354	1.154745	0.325939
C37	C	-0.760390	1.229977	0.325946
C38	C	-0.760380	0.978297	0.149381
C39	C	-0.760427	0.978338	0.074149
C40	C	-0.659439	1.021467	0.612368
C41	C	-0.659473	1.021496	0.683057
C42	C	-0.760275	0.978209	0.718387
C43	C	-0.861060	0.934896	0.683025
C44	C	-0.861032	0.934871	0.612338
C45	C	-0.861177	0.934996	0.968098
C46	C	-0.861194	0.935023	1.038790
C47	C	-0.659618	1.021620	1.038817
C48	C	-0.659590	1.021595	0.968130
C49	C	-0.760380	0.978285	0.932774
C50	C	-0.760343	0.978255	0.856126
C51	C	-0.760305	0.978235	0.795034
H52	H	-0.942962	0.592343	0.404518
H53	H	-0.942912	0.720587	0.404510
H54	H	-0.577610	0.364753	0.247349
C55	C	-0.970595	0.888008	0.721469
C56	C	-1.071786	0.926331	0.761984
C57	C	-1.172694	0.883159	0.797414
H58	H	-1.030762	0.862195	0.690364
H59	H	-0.910227	0.858546	0.749135
H60	H	-1.132147	0.955782	0.734320
H61	H	-1.011662	0.952144	0.793101
H62	H	-1.112327	0.853696	0.825080
H63	H	-1.232851	0.857347	0.766304
H64	H	-1.241355	0.909154	0.824912
C65	C	-0.550268	0.227025	0.235518
C66	C	-0.462085	0.273089	0.197563
C67	C	-0.361312	0.237857	0.154157
H68	H	-0.481294	0.199413	0.261314
H69	H	-0.610714	0.199497	0.206014
H70	H	-0.401644	0.300605	0.227064
H71	H	-0.531018	0.300702	0.171754
H72	H	-0.421757	0.210329	0.124652
H73	H	-0.292347	0.210246	0.179958
H74	H	-0.301478	0.269106	0.128395
H75	H	-0.577477	0.720511	0.247314
C76	C	-0.970839	0.888002	0.929808
C77	C	-1.126968	0.902706	0.946930
C78	C	-1.228031	0.859417	0.911676
H79	H	-0.956615	0.894137	0.882638
H80	H	-0.947723	0.842524	0.941462
H81	H	-1.150077	0.948173	0.935272
H82	H	-1.141242	0.896567	0.994094
H83	H	-1.204915	0.813939	0.923330
H84	H	-1.213793	0.865556	0.864508
H85	H	-1.333974	0.869383	0.923293
H86	H	-0.943094	0.899604	0.583551
C87	C	-0.549949	1.068567	1.077176
C88	C	-0.393811	1.053836	1.060093
C89	C	-0.292746	1.097060	1.095424
H90	H	-0.572931	1.114062	1.065572
H91	H	-0.564309	1.062377	1.124340
H92	H	-0.379458	1.060032	1.012940
H93	H	-0.370780	1.008349	1.071699
H94	H	-0.307106	1.090870	1.142588
H95	H	-0.315742	1.142552	1.083817
H96	H	-0.186795	1.087067	1.083843
H97	H	-0.577347	1.056713	0.583607
H98	H	-0.577503	1.056841	0.939366
H99	H	-0.577504	0.592277	0.247330
C100	C	-0.970745	0.888137	1.077237
C101	C	-1.071922	0.926468	1.117752
C102	C	-1.172840	0.883304	1.153185
H103	H	-1.030923	0.862325	1.046134
H104	H	-0.910385	0.858673	1.104904
H105	H	-1.132276	0.955921	1.090087
H106	H	-1.011787	0.952279	1.148867
H107	H	-1.112480	0.853839	1.180852
H108	H	-1.233007	0.857494	1.122078
H109	H	-1.241490	0.909304	1.180683
H110	H	-0.943042	0.364816	0.404538
C111	C	-0.970510	0.227111	0.416372
C112	C	-1.058657	0.273213	0.454319
C113	C	-1.159464	0.238025	0.497729
H114	H	-1.039506	0.199571	0.390579
H115	H	-0.910090	0.199516	0.445881
H116	H	-1.119073	0.300797	0.424813
H117	H	-0.989703	0.300755	0.480125
H118	H	-1.099044	0.210429	0.527238
H119	H	-1.228450	0.210486	0.471931
H120	H	-1.219274	0.269300	0.523485
H121	H	-0.577412	1.056763	0.711841
