data_functionalizedCrystal
_audit_creation_method	'MofGen! by Chris Wilmer'
_symmetry_space_group_name_H-M	'P1'
_symmetry_Int_Tables_number	1
_symmetry_cell_setting	triclinic
loop_
_symmetry_equiv_pos_as_xyz
  x,y,z
_cell_length_a	16.992694
_cell_length_b	10.967829
_cell_length_c	15.455301
_cell_angle_alpha	105.091050
_cell_angle_beta	92.821270
_cell_angle_gamma	87.623462
loop_
_atom_site_label
_atom_site_type_symbol
_atom_site_fract_x
_atom_site_fract_y
_atom_site_fract_z
O1	O	1.046653	0.272842	0.112802
O2	O	0.818334	0.269908	0.112389
O3	O	0.936585	0.088282	0.085224
O4	O	0.928402	0.454467	0.139967
O5	O	0.930324	0.077796	-0.060606
O6	O	0.812073	0.259422	-0.033441
O7	O	1.040392	0.262356	-0.033028
Cu8	Cu	0.925661	0.259931	-0.046550
Cu9	Cu	0.933065	0.272332	0.125911
O10	O	0.922141	0.443981	-0.005863
C11	C	0.785947	0.260888	0.038913
C12	C	0.698771	0.249620	0.037238
C13	C	0.932386	0.035967	0.005274
C14	C	0.929193	-0.104293	-0.015688
C15	C	0.649807	0.358350	0.053492
C16	C	0.567895	0.347753	0.051896
C17	C	0.534950	0.228426	0.034052
C18	C	0.583920	0.119688	0.017794
C19	C	0.665830	0.130285	0.019384
C20	C	0.290835	0.184503	0.027463
C21	C	0.208919	0.173914	0.025876
C22	C	0.192900	0.401981	0.059977
C23	C	0.274812	0.412568	0.061570
C24	C	0.323775	0.303830	0.045308
N25	N	0.451223	0.217591	0.032423
N26	N	0.407500	0.314664	0.046931
C27	C	0.931013	-0.161387	0.050511
C28	C	0.927713	-0.306353	0.028848
C29	C	1.072779	0.271375	0.040450
C30	C	1.159955	0.282644	0.042130
C31	C	0.926340	0.496296	0.074089
C32	C	0.929533	0.636557	0.095057
N33	N	0.920458	0.251209	-0.167849
C34	C	0.966999	0.329300	-0.201571
C35	C	0.963075	0.322696	-0.293366
C36	C	0.912606	0.238009	-0.351436
C37	C	0.866064	0.159910	-0.317709
C38	C	0.869992	0.166507	-0.225917
C39	C	0.895660	0.209544	-0.627272
C40	C	0.891733	0.202954	-0.719070
C41	C	0.988746	0.365740	-0.694720
C42	C	0.992666	0.372336	-0.602926
C43	C	0.946127	0.294232	-0.569208
N44	N	0.908592	0.231260	-0.445265
N45	N	0.950145	0.300975	-0.475381
N46	N	0.938273	0.281045	0.247208
H47	H	0.676624	0.455519	0.068023
N48	N	0.934827	-0.286053	0.191384
H49	H	0.936433	-0.193464	0.193208
H50	H	0.984311	-0.311855	0.221883
H51	H	0.301630	0.509738	0.076111
H52	H	1.008092	0.398269	-0.154294
H53	H	0.935011	-0.102945	0.123225
H54	H	1.033766	0.441294	-0.555650
N55	N	0.922413	-0.383746	-0.067479
H56	H	0.920808	-0.476334	-0.069301
H57	H	0.969961	-0.368604	-0.099578
H58	H	0.925186	-0.162734	-0.088402
H59	H	1.000975	0.386284	-0.320817
N60	N	1.038940	0.449974	-0.731087
H61	H	1.028796	0.432948	-0.798048
H62	H	1.096426	0.431995	-0.717898
N63	N	0.837285	0.111625	-0.781705
H64	H	0.808397	0.063150	-0.746416
H65	H	0.869153	0.050673	-0.828501
N66	N	0.845466	0.125307	-0.590911
H67	H	0.812898	0.070663	-0.641629
H68	H	0.809364	0.179165	-0.545182
N69	N	0.811634	0.068557	-0.380339
H70	H	0.816205	0.076228	-0.443607
H71	H	0.755521	0.088837	-0.361437
H72	H	0.832094	0.102918	-0.198463
H73	H	0.153026	0.490509	0.073215
H74	H	0.528031	0.436293	0.065133
N75	N	0.173383	0.045206	0.006635
H76	H	0.216829	-0.022073	-0.003427
H77	H	0.137429	0.031962	-0.048824
H78	H	0.330692	0.095960	0.014220
N79	N	0.548382	-0.009012	-0.001461
H80	H	0.517068	-0.014610	0.051177
H81	H	0.591871	-0.076214	-0.011543
N82	N	0.718645	0.013013	0.001847
H83	H	0.685347	-0.064189	-0.009698
H84	H	0.755295	0.016323	0.055821
