data_functionalizedCrystal
_audit_creation_method	'MofGen! by Chris Wilmer'
_symmetry_space_group_name_H-M	'P1'
_symmetry_Int_Tables_number	1
_symmetry_cell_setting	triclinic
loop_
_symmetry_equiv_pos_as_xyz
  x,y,z
_cell_length_a	17.699077
_cell_length_b	17.038272
_cell_length_c	16.776229
_cell_angle_alpha	89.993292
_cell_angle_beta	89.993415
_cell_angle_gamma	87.196066
loop_
_atom_site_label
_atom_site_type_symbol
_atom_site_fract_x
_atom_site_fract_y
_atom_site_fract_z
O1	O	1.010621	0.098839	-0.066278
O2	O	0.791094	0.111705	-0.066282
O3	O	0.899553	-0.008541	-0.066274
O4	O	0.902162	0.219085	-0.066287
O5	O	0.899537	-0.008549	0.066302
O6	O	0.791078	0.111698	0.066294
O7	O	1.010606	0.098831	0.066298
Zn8	Zn	0.900839	0.105263	0.087345
Zn9	Zn	0.900860	0.105273	-0.087330
O10	O	0.902146	0.219078	0.066290
C11	C	0.762858	0.111241	0.000005
C12	C	0.678749	0.109861	0.000004
C13	C	0.639230	0.109206	0.072272
C14	C	0.560200	0.107896	0.072273
C15	C	0.520691	0.107247	0.000005
C16	C	0.560216	0.107899	-0.072269
C17	C	0.639244	0.109203	-0.072269
C18	C	0.241505	0.102638	-0.072270
C19	C	0.162471	0.101336	-0.072265
C20	C	0.162461	0.101331	0.072272
C21	C	0.241489	0.102635	0.072272
C22	C	0.281007	0.103283	-0.000001
C23	C	0.366700	0.104702	-0.000002
C24	C	0.435000	0.105833	0.000004
C25	C	0.897172	-0.037669	0.000014
C26	C	0.890091	-0.124450	0.000014
C27	C	0.955101	-0.174672	0.000016
C28	C	0.948444	-0.256212	0.000008
C29	C	0.876775	-0.287528	0.000004
C30	C	0.811759	-0.237300	-0.000000
C31	C	0.818418	-0.155762	0.000001
C32	C	0.853252	-0.533247	-0.000007
C33	C	0.846598	-0.614791	-0.000007
C34	C	0.983283	-0.633697	-0.000000
C35	C	0.989935	-0.552157	0.000007
C36	C	0.924920	-0.501936	-0.000002
C37	C	0.869968	-0.370874	-0.000001
C38	C	0.931727	-0.418591	-0.000002
C39	C	1.038841	0.099295	0.000009
C40	C	1.122951	0.100676	0.000005
C41	C	0.904528	0.248206	-0.000000
C42	C	0.911609	0.334987	-0.000005
N43	N	0.900830	0.105256	0.206557
N44	N	0.900875	0.105274	-0.206541
C45	C	0.948873	0.052033	0.248277
C46	C	0.948877	0.052032	0.331730
C47	C	0.900842	0.105259	0.373460
C48	C	0.852794	0.158485	0.331733
C49	C	0.852786	0.158482	0.248282
C50	C	0.852822	0.158501	0.668280
C51	C	0.852835	0.158502	0.751737
C52	C	0.948913	0.052051	0.751727
C53	C	0.948906	0.052048	0.668277
C54	C	0.900855	0.105270	0.626558
C55	C	0.900850	0.105270	0.536069
C56	C	0.900850	0.105265	0.463946
H57	H	0.528028	0.107350	0.131121
F58	F	0.801666	0.215131	0.376146
H59	H	0.800311	-0.492367	-0.000014
H60	H	0.671420	0.109738	-0.131117
H61	H	0.753405	-0.262804	-0.000009
H62	H	0.813699	0.201838	0.634319
H63	H	0.273653	0.103168	0.131120
H64	H	0.811614	-0.396381	-0.000003
H65	H	0.130276	0.100800	0.131121
H66	H	0.528042	0.107365	-0.131111
F67	F	0.120424	0.100644	-0.149186
H68	H	0.988036	0.008712	0.785704
F69	F	0.801706	0.215156	0.796147
F70	F	1.031382	-0.141351	0.000028
F71	F	0.801650	0.215127	0.203881
F72	F	0.283553	0.103329	-0.149190
H73	H	0.765479	-0.114872	-0.000000
F74	F	1.017637	-0.309658	0.000012
H75	H	1.048295	-0.526666	0.000010
H76	H	1.036215	-0.674595	0.000005
H77	H	0.990080	-0.393090	-0.000017
H78	H	0.987992	0.008693	0.214306
F79	F	0.770315	-0.648118	-0.000007
H80	H	0.987997	0.008693	0.365698
F81	F	1.000034	-0.004601	0.623868
H82	H	0.671392	0.109742	0.131122
