data_functionalizedCrystal
_audit_creation_method	'MofGen! by Chris Wilmer'
_symmetry_space_group_name_H-M	'P1'
_symmetry_Int_Tables_number	1
_symmetry_cell_setting	triclinic
loop_
_symmetry_equiv_pos_as_xyz
  x,y,z
_cell_length_a	19.188930
_cell_length_b	23.532407
_cell_length_c	17.666332
_cell_angle_alpha	89.988854
_cell_angle_beta	89.976766
_cell_angle_gamma	82.996728
loop_
_atom_site_label
_atom_site_type_symbol
_atom_site_fract_x
_atom_site_fract_y
_atom_site_fract_z
O1	O	0.925923	0.071102	-0.063199
O2	O	0.722581	0.080673	-0.063148
O3	O	0.830384	-0.007031	-0.063161
O4	O	0.818120	0.158806	-0.063186
O5	O	0.830365	-0.007036	0.062735
O6	O	0.722562	0.080669	0.062748
O7	O	0.925904	0.071097	0.062697
Cu8	Cu	0.824231	0.075883	0.074218
Cu9	Cu	0.824253	0.075888	-0.074669
O10	O	0.818101	0.158802	0.062711
C11	C	0.696561	0.080361	-0.000193
C12	C	0.619060	0.079431	-0.000173
C13	C	0.573972	0.130893	-0.000193
C14	C	0.501151	0.130019	-0.000201
C15	C	0.473421	0.077680	-0.000205
C16	C	0.518519	0.026211	-0.000181
C17	C	0.591339	0.027086	-0.000165
N18	N	0.365575	0.037674	-0.043078
N19	N	0.296399	0.036846	-0.043094
C20	C	0.254021	0.075038	-0.000251
N21	N	0.283431	0.114099	0.042600
N22	N	0.352613	0.114929	0.042614
C23	C	0.394462	0.076724	-0.000222
C24	C	0.129971	0.125556	-0.000278
C25	C	0.057149	0.124680	-0.000282
C26	C	0.074520	0.020870	-0.000269
C27	C	0.147340	0.021748	-0.000258
C28	C	0.175061	0.074092	-0.000266
C29	C	0.830062	-0.028250	-0.000211
C30	C	0.829123	-0.091469	-0.000205
C31	C	0.887029	-0.490449	-0.000261
C32	C	0.886157	-0.549851	-0.000267
O33	O	0.939837	-0.586482	-0.000308
N34	N	0.822068	-0.572613	-0.000250
C35	C	0.758848	-0.535970	-0.000236
O36	O	0.704255	-0.560786	-0.000223
C37	C	0.759721	-0.476569	-0.000235
C38	C	0.823814	-0.453810	-0.000244
C39	C	0.951117	-0.467690	-0.000271
C40	C	0.951989	-0.408292	-0.000264
C41	C	0.888773	-0.371653	-0.000247
C42	C	0.824685	-0.394412	-0.000237
C43	C	0.696501	-0.439927	-0.000226
C44	C	0.697379	-0.380523	-0.000227
C45	C	0.761472	-0.357764	-0.000236
C46	C	0.762342	-0.298376	-0.000214
N47	N	0.826430	-0.275614	-0.000230
C48	C	0.889646	-0.312252	-0.000247
C49	C	0.757019	-0.660717	-0.000237
C50	C	0.756146	-0.720116	-0.000232
C51	C	0.883455	-0.733993	-0.000264
C52	C	0.884328	-0.674592	-0.000264
C53	C	0.821108	-0.637954	-0.000254
C54	C	0.891472	-0.187512	-0.000232
C55	C	0.892339	-0.128108	-0.000222
C56	C	0.765029	-0.114236	-0.000193
C57	C	0.764163	-0.173634	-0.000199
C58	C	0.827390	-0.210272	-0.000221
O59	O	0.708690	-0.261710	-0.000176
O60	O	0.944230	-0.287428	-0.000270
C61	C	0.951923	0.071410	-0.000259
C62	C	1.029425	0.072340	-0.000284
C63	C	0.818423	0.180021	-0.000241
C64	C	0.819362	0.243240	-0.000252
N65	N	0.824221	0.075878	0.178938
N66	N	0.824270	0.075888	-0.179389
C67	C	0.871971	0.037062	0.218542
C68	C	0.871975	0.037059	0.297789
C69	C	0.824236	0.075883	0.337430
C70	C	0.776476	0.114702	0.297816
C71	C	0.776469	0.114700	0.218570
N72	N	0.814998	0.126298	0.461842
N73	N	0.815010	0.126298	0.537123
C74	C	0.824254	0.075891	0.576194
N75	N	0.833500	0.025481	0.537141
N76	N	0.833493	0.025482	0.461853
C77	C	0.824238	0.075889	0.423359
C78	C	0.872011	0.037068	0.701727
C79	C	0.872010	0.037064	0.780976
C80	C	0.776515	0.114713	0.781002
C81	C	0.776512	0.114711	0.701754
C82	C	0.824264	0.075889	0.662122
H83	H	0.051943	-0.021745	-0.000319
H84	H	0.910892	0.005452	0.813222
N85	N	0.692436	-0.623294	-0.000199
N86	N	0.678710	-0.588611	0.052878
H87	H	0.633098	-0.562184	0.052906
N88	N	0.631036	-0.463173	-0.000216
N89	N	0.616322	-0.494777	0.052850
H90	H	0.570083	-0.511194	0.052856
H91	H	0.713561	-0.084394	-0.000177
N92	N	0.920755	-0.002599	0.338243
N93	N	0.963383	-0.037258	0.302848
H94	H	0.997835	-0.065267	0.331416
H95	H	0.464433	0.171927	-0.000215
N96	N	0.632793	-0.343107	-0.000225
N97	N	0.575578	-0.363440	-0.000222
H98	H	0.529963	-0.337016	-0.000221
N99	N	0.956063	-0.224921	-0.000256
N100	N	1.013274	-0.204583	-0.000265
H101	H	1.058892	-0.231003	-0.000278
H102	H	0.737605	0.146312	0.330096
N103	N	0.727752	0.154377	0.661297
N104	N	0.749656	0.189684	0.617058
H105	H	0.715217	0.217700	0.588486
H106	H	0.628050	-0.014822	-0.000150
H107	H	0.910852	0.005450	0.186275
N108	N	0.727684	0.154355	0.178124
N109	N	0.685057	0.189013	0.213521
H110	H	0.650602	0.217021	0.184955
H111	H	0.020438	0.166588	-0.000293
N112	N	0.920703	-0.002660	0.661250
N113	N	0.963274	-0.037367	0.696624
H114	H	0.997631	-0.065453	0.668040
H115	H	0.596537	0.173516	-0.000201
H116	H	0.936518	-0.656067	-0.000272
H117	H	0.711973	-0.192165	-0.000171
H118	H	0.934929	-0.763836	-0.000281
H119	H	0.495937	-0.016404	-0.000195
N120	N	0.158283	0.179026	-0.000267
N121	N	0.144308	0.213675	0.052800
H122	H	0.164301	0.251439	0.052811
N123	N	0.193391	-0.030825	-0.000240
N124	N	0.168627	-0.077554	-0.000241
H125	H	0.201150	-0.114687	-0.000226
N126	N	0.727738	0.154362	0.821482
N127	N	0.684529	0.136378	0.865727
H128	H	0.650075	0.164380	0.894319
N129	N	0.957817	-0.104871	-0.000225
N130	N	1.014253	-0.137595	-0.000240
H131	H	1.060497	-0.121186	-0.000242
H132	H	1.004180	-0.389768	-0.000274
N133	N	1.015703	-0.505102	-0.000293
N134	N	1.072913	-0.484761	-0.000304
H135	H	1.118532	-0.511180	-0.000316
N136	N	0.690670	-0.743350	-0.000205
N137	N	0.634236	-0.710624	-0.000186
H138	H	0.587991	-0.727030	-0.000169
