data_functionalizedCrystal
_audit_creation_method	'MofGen! by Chris Wilmer'
_symmetry_space_group_name_H-M	'P1'
_symmetry_Int_Tables_number	1
_symmetry_cell_setting	triclinic
loop_
_symmetry_equiv_pos_as_xyz
  x,y,z
_cell_length_a	16.959455
_cell_length_b	16.120484
_cell_length_c	16.959447
_cell_angle_alpha	87.133462
_cell_angle_beta	90.014322
_cell_angle_gamma	92.922454
loop_
_atom_site_label
_atom_site_type_symbol
_atom_site_fract_x
_atom_site_fract_y
_atom_site_fract_z
Zn1	Zn	1.192394	-0.331957	0.462851
Zn2	Zn	1.185600	-0.471386	0.337369
Zn3	Zn	1.060221	-0.331984	0.330690
Zn4	Zn	1.053474	-0.471323	0.469504
O5	O	1.122922	-0.401662	0.400103
O6	O	1.302103	-0.350468	0.446216
O7	O	1.168949	-0.452931	0.225874
O8	O	1.083421	-0.215315	0.342642
O9	O	1.297112	-0.452905	0.354025
O10	O	1.180528	-0.215296	0.439740
O11	O	1.076833	-0.350513	0.220967
O12	O	0.948716	-0.350452	0.349093
O13	O	1.071921	-0.452799	0.579231
O14	O	0.943759	-0.452824	0.451079
O15	O	1.173985	-0.350408	0.574343
O16	O	1.162407	-0.588043	0.360476
O17	O	1.065334	-0.587997	0.457556
C18	C	0.917557	-0.401635	0.400084
C19	C	0.829700	-0.401643	0.400095
C20	C	0.460783	-0.348314	0.347103
C21	C	0.455662	-0.455080	0.453153
C22	C	0.538208	-0.455068	0.453147
C23	C	0.582046	-0.401679	0.400118
C24	C	0.543337	-0.348302	0.347094
C25	C	0.576923	-0.508450	0.506165
C26	C	0.659474	-0.508441	0.506161
C27	C	0.703314	-0.455047	0.453135
C28	C	0.664600	-0.401667	0.400109
C29	C	0.708437	-0.348278	0.347080
C30	C	0.669725	-0.294893	0.294058
C31	C	0.587176	-0.294908	0.294068
C32	C	0.785863	-0.455032	0.453125
C33	C	0.790991	-0.348266	0.347071
C34	C	1.112422	-0.618270	0.410480
C35	C	1.108003	-0.710935	0.414945
C36	C	1.099938	-0.880596	0.423114
C37	C	1.146048	-0.921888	0.377106
C38	C	1.141561	-1.016293	0.381651
C39	C	1.104424	-0.786182	0.418570
C40	C	1.329089	-0.401691	0.400123
C41	C	1.416945	-0.401703	0.400132
C42	C	1.122959	-0.401593	0.606268
C43	C	1.122974	-0.401564	0.694124
C44	C	1.133485	-0.184209	0.389704
C45	C	1.137986	-0.091544	0.385272
C46	C	1.122935	-0.401671	0.194738
C47	C	1.123084	-0.401466	0.106872
C48	C	1.069933	-0.454787	1.068143
C49	C	1.176213	-0.348166	1.063048
C50	C	1.176191	-0.348183	0.980503
C51	C	1.123040	-0.401504	0.941774
C52	C	1.069911	-0.454808	0.985590
C53	C	1.229324	-0.294887	0.936681
C54	C	1.229305	-0.294903	0.854130
C55	C	1.176150	-0.348221	0.815400
C56	C	1.123018	-0.401525	0.859221
C57	C	1.069867	-0.454846	0.820492
C58	C	1.016731	-0.508148	0.864312
C59	C	1.016755	-0.508125	0.946860
C60	C	1.176125	-0.348243	0.732853
C61	C	1.069845	-0.454867	0.737940
H62	H	0.705428	-0.251427	0.250878
H63	H	1.026555	-0.498281	0.706413
H64	H	1.026668	-0.498181	1.103824
O65	O	1.197270	-0.879521	0.326122
C66	C	1.275056	-0.900651	0.344442
H67	H	1.277900	-0.924599	0.408722
H68	H	1.293391	-0.951131	0.304464
C69	C	1.327926	-0.793778	0.252678
C70	C	1.331420	-0.823184	0.331629
H71	H	1.362696	-0.745994	0.244771
H72	H	1.275520	-0.779544	0.240332
H73	H	1.343204	-0.835852	0.219372
H74	H	1.316134	-0.781114	0.364933
H75	H	1.383825	-0.837409	0.343980
O76	O	1.227768	-0.296404	1.100789
C77	C	1.216413	-0.307834	1.183045
H78	H	1.154089	-0.335126	1.195624
H79	H	1.261146	-0.352236	1.208586
C80	C	1.304316	-0.189955	1.205957
C81	C	1.227767	-0.223469	1.221406
H82	H	1.311323	-0.137916	1.229620
H83	H	1.311969	-0.182255	1.150539
H84	H	1.341585	-0.226964	1.227241
H85	H	1.190500	-0.186465	1.200113
H86	H	1.220107	-0.231161	1.276820
H87	H	1.057096	-0.916143	0.465913
O88	O	0.823561	-0.506768	0.504656
C89	C	0.873602	-0.459363	0.553524
H90	H	0.889011	-0.396142	0.522719
H91	H	0.842245	-0.450291	0.611683
C92	C	0.930878	-0.582888	0.607787
C93	C	0.949810	-0.505241	0.569949
H94	H	0.977886	-0.611188	0.617922
H95	H	0.897163	-0.614826	0.574866
H96	H	0.904747	-0.575317	0.656249
H97	H	0.975932	-0.512814	0.521484
H98	H	0.983532	-0.473305	0.602862
H99	H	0.973458	-0.551565	0.832769
O100	O	1.280846	-0.243013	0.974335
C101	C	1.238475	-0.189161	1.019530
H102	H	1.176469	-0.183996	0.994400
H103	H	1.234507	-0.214929	1.083320
C104	C	1.357470	-0.108847	1.047537
C105	C	1.281315	-0.102498	1.016669
H106	H	1.383897	-0.055390	1.045777
H107	H	1.386017	-0.145129	1.017092
H108	H	1.354152	-0.130323	1.100693
H109	H	1.284634	-0.081032	0.963512
H110	H	1.252769	-0.066209	1.047106
O111	O	0.965255	-0.559988	0.989467
C112	C	1.007658	-0.613813	1.039800
H113	H	1.069652	-0.618980	1.015163
H114	H	1.011656	-0.588018	1.101129
C115	C	0.888689	-0.694129	1.075473
C116	C	0.964829	-0.700481	1.045210
H117	H	0.862269	-0.747589	1.078814
H118	H	0.860120	-0.657865	1.041565
H119	H	0.892031	-0.672630	1.126578
H120	H	0.961486	-0.721970	0.994103
H121	H	0.993397	-0.736751	1.079110
H122	H	0.541224	-0.551923	0.549333
O123	O	1.280943	-0.243046	0.811686
C124	C	1.327874	-0.195996	0.863573
H125	H	1.295656	-0.193096	0.922280
H126	H	1.386426	-0.226531	0.873805
C127	C	1.383134	-0.110835	0.755019
C128	C	1.343560	-0.107267	0.827122
H129	H	1.392814	-0.056104	0.732534
H130	H	1.351518	-0.142535	0.720061
H131	H	1.431923	-0.136285	0.763556
H132	H	1.294768	-0.081828	0.818583
H133	H	1.375168	-0.075561	0.862078
H134	H	1.219390	-0.304848	0.697178
H135	H	0.555649	-0.251446	0.250899
O136	O	0.833654	-0.296519	0.295523
C137	C	0.879077	-0.343913	0.246647
H138	H	0.888397	-0.407129	0.277452
H139	H	0.846801	-0.352998	0.188496
C140	C	0.948258	-0.220374	0.192362
C141	C	0.959710	-0.298014	0.230200
H142	H	0.997995	-0.192060	0.182214
H143	H	0.917654	-0.188443	0.225289
H144	H	0.921358	-0.227956	0.143907
H145	H	0.986600	-0.290431	0.278659
H146	H	0.990321	-0.329943	0.197282
O147	O	0.412963	-0.506862	0.504632
C148	C	0.331801	-0.495445	0.493253
H149	H	0.323628	-0.431074	0.464381
H150	H	0.305977	-0.544846	0.453452
C151	C	0.299105	-0.582255	0.609051
C152	C	0.289067	-0.503191	0.573596
H153	H	0.272743	-0.587036	0.658609
H154	H	0.353785	-0.589950	0.616716
H155	H	0.277585	-0.623413	0.575876
H156	H	0.310595	-0.462035	0.606767
H157	H	0.234389	-0.495489	0.565938
H158	H	0.429260	-0.304847	0.303935
O159	O	0.696952	-0.560318	0.557744
C160	C	0.640557	-0.607458	0.604535
H161	H	0.583362	-0.573325	0.605690
H162	H	0.628714	-0.670741	0.578525
C163	C	0.742460	-0.661499	0.687802
C164	C	0.672214	-0.619572	0.689227
H165	H	0.761988	-0.668975	0.740044
H166	H	0.780456	-0.629742	0.656277
H167	H	0.732582	-0.714230	0.666123
H168	H	0.682096	-0.566838	0.710896
H169	H	0.634221	-0.651320	0.720758
