data_functionalizedCrystal
_audit_creation_method	'MofGen! by Chris Wilmer'
_symmetry_space_group_name_H-M	'P1'
_symmetry_Int_Tables_number	1
_symmetry_cell_setting	triclinic
loop_
_symmetry_equiv_pos_as_xyz
  x,y,z
_cell_length_a	19.805407
_cell_length_b	17.640280
_cell_length_c	19.805399
_cell_angle_alpha	78.776890
_cell_angle_beta	89.980427
_cell_angle_gamma	78.800112
loop_
_atom_site_label
_atom_site_type_symbol
_atom_site_fract_x
_atom_site_fract_y
_atom_site_fract_z
Zn1	Zn	1.089281	-0.314680	-0.328317
Zn2	Zn	1.589281	0.185320	0.171683
Zn3	Zn	1.112106	-0.446853	-0.192279
Zn4	Zn	1.612106	0.053147	0.307721
Zn5	Zn	0.976099	-0.314701	-0.215138
Zn6	Zn	1.476099	0.185299	0.284862
Zn7	Zn	0.998962	-0.446811	-0.305433
Zn8	Zn	1.498962	0.053189	0.194567
O9	O	1.044112	-0.380761	-0.260292
O10	O	1.544112	0.119239	0.239708
O11	O	1.187026	-0.332221	-0.310282
O12	O	1.687026	0.167779	0.189718
O13	O	1.094048	-0.429350	-0.100590
O14	O	1.594048	0.070650	0.399410
O15	O	0.971992	-0.204095	-0.249296
O16	O	1.471992	0.295905	0.250704
O17	O	1.203796	-0.429329	-0.210335
O18	O	1.703796	0.070671	0.289665
O19	O	1.055146	-0.204079	-0.332448
O20	O	1.555146	0.295921	0.167552
O21	O	0.994125	-0.332258	-0.117385
O22	O	1.494125	0.167742	0.382615
O23	O	0.884414	-0.332218	-0.227105
O24	O	1.384414	0.167782	0.272895
O25	O	1.010958	-0.429257	-0.403190
O26	O	1.510958	0.070743	0.096810
O27	O	0.901211	-0.429278	-0.293444
O28	O	1.401211	0.070722	0.206556
O29	O	1.077315	-0.332180	-0.420003
O30	O	1.577315	0.167820	0.079997
O31	O	1.116217	-0.557452	-0.188145
O32	O	1.616217	-0.057452	0.311855
O33	O	1.033091	-0.557421	-0.271278
O34	O	1.533091	-0.057421	0.228722
C35	C	0.868253	-0.380746	-0.260272
C36	C	1.368253	0.119254	0.239728
C37	C	0.793023	-0.380759	-0.260277
C38	C	1.293023	0.119241	0.239723
C39	C	0.766456	-0.431374	-0.294736
C40	C	1.266456	0.068626	0.205264
C41	C	0.695768	-0.431376	-0.294746
C42	C	1.195768	0.068624	0.205254
C43	C	0.651649	-0.380765	-0.260291
C44	C	1.151649	0.119235	0.239709
C45	C	0.678220	-0.330144	-0.225831
C46	C	1.178220	0.169856	0.274169
C47	C	0.748906	-0.330139	-0.225826
C48	C	1.248906	0.169861	0.274174
C49	C	0.393149	-0.330161	-0.225850
C50	C	0.893149	0.169839	0.274150
C51	C	0.322459	-0.330172	-0.225856
C52	C	0.822459	0.169828	0.274144
C53	C	0.340012	-0.431398	-0.294770
C54	C	0.840012	0.068602	0.205230
C55	C	0.410698	-0.431393	-0.294765
C56	C	0.910698	0.068607	0.205235
C57	C	0.437262	-0.380770	-0.260308
C58	C	0.937262	0.119230	0.239692
C59	C	0.513910	-0.380768	-0.260299
C60	C	1.013910	0.119232	0.239701
C61	C	0.575003	-0.380770	-0.260295
C62	C	1.075003	0.119230	0.239705
C63	C	1.079630	-0.586114	-0.224762
C64	C	1.579630	-0.086114	0.275238
C65	C	1.094887	-0.673965	-0.209586
C66	C	1.594887	-0.173965	0.290414
C67	C	0.928484	-0.962953	-0.375835
C68	C	1.428484	-0.462953	0.124165
C69	C	0.942822	-1.045502	-0.361553
C70	C	1.442822	-0.545502	0.138447
C71	C	1.029435	-1.045469	-0.275073
C72	C	1.529435	-0.545469	0.224927
C73	C	1.015107	-0.962918	-0.289351
C74	C	1.515107	-0.462918	0.210649
C75	C	0.964630	-0.921667	-0.339732
C76	C	1.464630	-0.421667	0.160268
C77	C	1.051253	-0.921632	-0.253247
C78	C	1.551253	-0.421632	0.246753
C79	C	1.036924	-0.839088	-0.267522
C80	C	1.536924	-0.339088	0.232478
C81	C	0.986448	-0.797831	-0.317899
C82	C	1.486448	-0.297831	0.182101
C83	C	0.950301	-0.839123	-0.354006
C84	C	1.450301	-0.339123	0.145994
C85	C	1.101726	-0.962885	-0.202863
C86	C	1.601726	-0.462885	0.297137
C87	C	1.137872	-0.921598	-0.166760
C88	C	1.637872	-0.421598	0.333240
C89	C	1.123546	-0.839053	-0.181037
C90	C	1.623546	-0.339053	0.318963
C91	C	1.073071	-0.797796	-0.231415
C92	C	1.573071	-0.297796	0.268585
C93	C	1.159693	-0.797761	-0.144930
C94	C	1.659693	-0.297761	0.355070
C95	C	1.145364	-0.715217	-0.159204
C96	C	1.645364	-0.215217	0.340796
C97	C	1.058741	-0.715252	-0.245689
C98	C	1.558741	-0.215252	0.254311
C99	C	1.220657	-0.380777	-0.260311
C100	C	1.720657	0.119223	0.239689
C101	C	1.295890	-0.380784	-0.260320
C102	C	1.795890	0.119216	0.239680
C103	C	1.044141	-0.380712	-0.436843
C104	C	1.544141	0.119288	0.063157
C105	C	1.044154	-0.380690	-0.512079
C106	C	1.544154	0.119310	-0.012079
C107	C	1.008473	-0.174606	-0.295974
C108	C	1.508473	0.325394	0.204026
C109	C	0.993286	-0.086756	-0.311180
C110	C	1.493286	0.413244	0.188820
C111	C	1.078706	-0.330140	-0.556179
C112	C	1.578706	0.169860	-0.056179
C113	C	1.078709	-0.330117	-0.626872
C114	C	1.578709	0.169883	-0.126872
C115	C	1.044163	-0.380649	-0.653462
C116	C	1.544163	0.119351	-0.153462
C117	C	1.009606	-0.431202	-0.609356
C118	C	1.509606	0.068798	-0.109356
C119	C	1.009600	-0.431220	-0.538666
C120	C	1.509600	0.068780	-0.038666
C121	C	1.009632	-0.431128	-0.894442
C122	C	1.509632	0.068872	-0.394442
C123	C	1.009643	-0.431107	-0.965138
C124	C	1.509643	0.068893	-0.465138
C125	C	1.078741	-0.330025	-0.982648
C126	C	1.578741	0.169975	-0.482648
C127	C	1.078735	-0.330043	-0.911958
C128	C	1.578735	0.169957	-0.411958
C129	C	1.044175	-0.380593	-0.867859
C130	C	1.544175	0.119407	-0.367859
C131	C	1.044171	-0.380616	-0.791206
C132	C	1.544171	0.119384	-0.291206
C133	C	1.044171	-0.380631	-0.730112
C134	C	1.544171	0.119369	-0.230112
C135	C	1.044112	-0.380754	-0.084437
C136	C	1.544112	0.119246	0.415563
C137	C	1.044192	-0.380553	-0.009240
C138	C	1.544192	0.119447	0.490760
H139	H	0.446618	-0.472609	-0.322819
H140	H	0.946618	0.027391	0.177181
O141	O	0.976192	-0.480280	-0.990982
O142	O	1.476192	0.019720	-0.490982
C143	C	0.985535	-0.586939	-1.052356
C144	C	1.485535	-0.086939	-0.552356
C145	C	1.023501	-0.531314	-1.023107
C146	C	1.523501	-0.031314	-0.523107
H147	H	1.023765	-0.628202	-1.078348
H148	H	1.523765	-0.128202	-0.578348
H149	H	0.960855	-0.623127	-1.008714
H150	H	1.460855	-0.123127	-0.508714
H151	H	0.943861	-0.550621	-1.091703
H152	H	1.443861	-0.050621	-0.591703
H153	H	1.065205	-0.567571	-0.983770
H154	H	1.565205	-0.067571	-0.483770
H155	H	1.048133	-0.495123	-1.066786
H156	H	1.548133	0.004877	-0.566786
H157	H	1.200787	-0.831360	-0.103905
H158	H	1.700787	-0.331360	0.396095
H159	H	0.981503	-0.472300	-0.858543
H160	H	1.481503	0.027700	-0.358543
H161	H	1.070531	-1.079067	-0.234051
H162	H	1.570531	-0.579067	0.265949
O163	O	1.180558	-0.675228	-0.124091
O164	O	1.680558	-0.175228	0.375909
C165	C	1.267952	-0.683897	-0.036770
C166	C	1.767952	-0.183897	0.463230
C167	C	1.228162	-0.729282	-0.076500
C168	C	1.728162	-0.229282	0.423500
H169	H	1.306438	-0.727580	0.001727
H170	H	1.806438	-0.227580	0.501727
H171	H	1.296655	-0.645223	-0.074531
H172	H	1.796655	-0.145223	0.425469
H173	H	1.230178	-0.645279	-0.008058
H174	H	1.730178	-0.145279	0.491942
H175	H	1.265888	-0.767943	-0.105214
H176	H	1.765888	-0.267943	0.394786
H177	H	1.199448	-0.767907	-0.038705
H178	H	1.699448	-0.267907	0.461295
H179	H	1.106847	-0.288956	-0.662776
H180	H	1.606847	0.211044	-0.162776
H181	H	0.642291	-0.288932	-0.197781
H182	H	1.142291	0.211068	0.302219
H183	H	0.981475	-0.472343	-0.631011
H184	H	1.481475	0.027657	-0.131011
H185	H	0.770534	-0.288918	-0.197770
H186	H	1.270534	0.211082	0.302230
H187	H	1.017643	-0.681663	-0.286719
H188	H	1.517643	-0.181663	0.213281
H189	H	0.802375	-0.472590	-0.322791
H190	H	1.302375	0.027410	0.177209
O191	O	1.112274	-0.280978	-0.530470
O192	O	1.612274	0.219022	-0.030470
C193	C	1.180844	-0.180742	-0.555303
C194	C	1.680844	0.319258	-0.055303
C195	C	1.142844	-0.236369	-0.584508
C196	C	1.642844	0.263631	-0.084508
H197	H	1.205582	-0.144673	-0.598976
H198	H	1.705582	0.355327	-0.098976
H199	H	1.142644	-0.139367	-0.529384
H200	H	1.642644	0.360633	-0.029384
H201	H	1.222480	-0.217053	-0.515912
H202	H	1.722480	0.282947	-0.015912
H203	H	1.101210	-0.200121	-0.623924
H204	H	1.601210	0.299879	-0.123924
H205	H	1.181086	-0.277746	-0.610385
H206	H	1.681086	0.222254	-0.110385
O207	O	0.972523	-0.717647	-0.331644
O208	O	1.472523	-0.217647	0.168356
C209	C	0.934575	-0.599237	-0.287230
C210	C	1.434575	-0.099237	0.212770
C211	C	0.950335	-0.690043	-0.271566
C212	C	1.450335	-0.190043	0.228434
H213	H	0.916619	-0.576892	-0.238672
H214	H	1.416619	-0.076892	0.261328
H215	H	0.983076	-0.576728	-0.305175
H216	H	1.483076	-0.076728	0.194825
H217	H	0.892313	-0.576867	-0.329464
H218	H	1.392313	-0.076867	0.170536
H219	H	0.992576	-0.712480	-0.229321
H220	H	1.492576	-0.212480	0.270679
H221	H	0.901801	-0.712499	-0.253661
H222	H	1.401801	-0.212499	0.246339
O223	O	1.112373	-0.281063	-0.886076
O224	O	1.612373	0.218937	-0.386076
C225	C	1.201861	-0.270433	-0.808076
C226	C	1.701861	0.229567	-0.308076
C227	C	1.163843	-0.326001	-0.837342
C228	C	1.663843	0.173999	-0.337342
H229	H	1.243473	-0.306742	-0.768659
H230	H	1.743473	0.193258	-0.268659
H231	H	1.226607	-0.234302	-0.851703
H232	H	1.726607	0.265698	-0.351703
H233	H	1.163607	-0.229105	-0.782166
H234	H	1.663607	0.270895	-0.282166
H235	H	1.202053	-0.367377	-0.863245
H236	H	1.702053	0.132623	-0.363245
H237	H	1.139085	-0.362076	-0.793689
H238	H	1.639085	0.137924	-0.293689
O239	O	0.907818	-1.085697	-0.396645
O240	O	1.407818	-0.585697	0.103355
C241	C	0.914822	-1.178821	-0.471941
C242	C	1.414822	-0.678821	0.028059
C243	C	0.954550	-1.133362	-0.432224
C244	C	1.454550	-0.633362	0.067776
H245	H	0.952587	-1.217356	-0.500728
H246	H	1.452587	-0.717356	-0.000728
H247	H	0.886189	-1.217566	-0.434167
H248	H	1.386189	-0.717566	0.065833
H249	H	0.876267	-1.135143	-0.510371
H250	H	1.376267	-0.635143	-0.010371
H251	H	0.993140	-1.176983	-0.393794
H252	H	1.493140	-0.676983	0.106206
H253	H	0.983137	-1.094605	-0.470039
H254	H	1.483137	-0.594605	0.029961
O255	O	1.112247	-0.280938	-1.025589
O256	O	1.612247	0.219062	-0.525589
C257	C	1.142916	-0.236133	-1.142247
C258	C	1.642916	0.263867	-0.642247
C259	C	1.104930	-0.291747	-1.093700
C260	C	1.604930	0.208253	-0.593700
H261	H	1.137026	-0.244865	-1.197322
H262	H	1.637026	0.255135	-0.697322
H263	H	1.120009	-0.172387	-1.139427
H264	H	1.620009	0.327613	-0.639427
H265	H	1.199884	-0.250016	-1.125916
H266	H	1.699884	0.249984	-0.625916
H267	H	1.047959	-0.277936	-1.109997
H268	H	1.547959	0.222064	-0.609997
H269	H	1.127893	-0.355476	-1.096525
H270	H	1.627893	0.144524	-0.596525
O271	O	0.976037	-0.480409	-0.495914
O272	O	1.476037	0.019591	0.004086
C273	C	0.907484	-0.580656	-0.486004
C274	C	1.407484	-0.080656	0.013996
C275	C	0.945478	-0.524999	-0.534494
C276	C	1.445478	-0.024999	-0.034494
H277	H	0.882755	-0.616710	-0.517178
H278	H	1.382755	-0.116710	-0.017178
H279	H	0.945685	-0.622045	-0.445775
H280	H	1.445685	-0.122045	0.054225
H281	H	0.865841	-0.544371	-0.459161
H282	H	1.365841	-0.044371	0.040839
H283	H	0.987119	-0.561221	-0.561384
H284	H	1.487119	-0.061221	-0.061384
H285	H	0.907234	-0.483609	-0.574681
H286	H	1.407234	0.016391	-0.074681
O287	O	0.670034	-0.480515	-0.328314
O288	O	1.170034	0.019485	0.171686
C289	C	0.655101	-0.519058	-0.436723
C290	C	1.155101	-0.019058	0.063277
C291	C	0.684288	-0.463365	-0.398790
C292	C	1.184288	0.036635	0.101210
H293	H	0.666602	-0.505201	-0.493712
H294	H	1.166602	-0.005201	0.006288
H295	H	0.680036	-0.582779	-0.413765
H296	H	1.180036	-0.082779	0.086235
H297	H	0.597007	-0.510387	-0.430776
H298	H	1.097007	-0.010387	0.069224
H299	H	0.742379	-0.471966	-0.404723
H300	H	1.242379	0.028034	0.095277
H301	H	0.659301	-0.399665	-0.421756
H302	H	1.159301	0.100335	0.078244
O303	O	0.314088	-0.480495	-0.328240
O304	O	0.814088	0.019505	0.171760
C305	C	0.212978	-0.525404	-0.358762
C306	C	0.712978	-0.025404	0.141238
C307	C	0.242241	-0.469749	-0.320847
C308	C	0.742241	0.030251	0.179153
H309	H	0.154889	-0.516747	-0.352785
H310	H	0.654889	-0.016747	0.147215
H311	H	0.224466	-0.511609	-0.415759
H312	H	0.724466	-0.011609	0.084241
H313	H	0.237932	-0.589107	-0.335768
H314	H	0.737932	-0.089107	0.164232
H315	H	0.217304	-0.406027	-0.343783
H316	H	0.717304	0.093973	0.156217
H317	H	0.230762	-0.483612	-0.263852
H318	H	0.730762	0.016388	0.236148
O319	O	0.901234	-0.799166	-0.402957
O320	O	1.401234	-0.299166	0.097043
C321	C	0.816877	-0.807901	-0.487285
C322	C	1.316877	-0.307901	0.012715
C323	C	0.872409	-0.853250	-0.431855
C324	C	1.372409	-0.353250	0.068145
H325	H	0.793566	-0.851608	-0.510675
H326	H	1.293566	-0.351608	-0.010675
H327	H	0.774758	-0.769320	-0.462890
H328	H	1.274758	-0.269320	0.037110
H329	H	0.841236	-0.769194	-0.529363
H330	H	1.341236	-0.269194	-0.029363
H331	H	0.848112	-0.892000	-0.389760
H332	H	1.348112	-0.392000	0.110240
H333	H	0.914521	-0.891781	-0.456301
H334	H	1.414521	-0.391781	0.043699
O335	O	1.115713	-1.043068	-0.189106
O336	O	1.615713	-0.543068	0.310894
C337	C	1.153594	-1.161470	-0.233548
C338	C	1.653594	-0.661470	0.266452
C339	C	1.137792	-1.070665	-0.249216
C340	C	1.637792	-0.570665	0.250784
H341	H	1.171435	-1.183810	-0.282140
H342	H	1.671435	-0.683810	0.217860
H343	H	1.195907	-1.183903	-0.191368
H344	H	1.695907	-0.683903	0.308632
H345	H	1.105087	-1.183924	-0.215541
H346	H	1.605087	-0.683924	0.284459
H347	H	1.186260	-1.048144	-0.267251
H348	H	1.686260	-0.548144	0.232749
H349	H	1.095453	-1.048286	-0.291372
H350	H	1.595453	-0.548286	0.208628
H351	H	0.887386	-0.929364	-0.416866
H352	H	1.387386	-0.429364	0.083134
O353	O	0.279691	-0.280927	-0.192380
O354	O	0.779691	0.219073	0.307620
C355	C	0.269740	-0.180544	-0.123998
C356	C	0.769740	0.319456	0.376002
C357	C	0.318249	-0.236254	-0.161893
C358	C	0.818249	0.263746	0.338107
H359	H	0.300897	-0.144424	-0.099327
H360	H	0.800897	0.355576	0.400673
H361	H	0.229527	-0.139220	-0.162255
H362	H	0.729527	0.360780	0.337745
H363	H	0.242885	-0.216791	-0.082314
H364	H	0.742885	0.283209	0.417686
H365	H	0.345152	-0.200071	-0.203575
H366	H	0.845152	0.299929	0.296425
H367	H	0.358419	-0.277580	-0.123593
H368	H	0.858419	0.222420	0.376407
O369	O	1.186974	-0.961714	-0.117907
O370	O	1.686974	-0.461714	0.382093
C371	C	1.294494	-1.054887	-0.092763
C372	C	1.794494	-0.554887	0.407237
C373	C	1.238948	-1.009490	-0.148162
C374	C	1.738948	-0.509490	0.351838
H375	H	1.336521	-1.093537	-0.117200
H376	H	1.836521	-0.593537	0.382800
H377	H	1.317926	-1.011239	-0.069411
H378	H	1.817926	-0.511239	0.430589
H379	H	1.270125	-1.093535	-0.050649
H380	H	1.770125	-0.593535	0.449351
H381	H	1.263264	-0.970840	-0.190317
H382	H	1.763264	-0.470840	0.309683
H383	H	1.215521	-1.053180	-0.171460
H384	H	1.715521	-0.553180	0.328540
O385	O	0.419039	-0.281101	-0.192321
O386	O	0.919039	0.218899	0.307679
C387	C	0.496901	-0.270315	-0.102777
C388	C	0.996901	0.229685	0.397223
C389	C	0.467649	-0.325967	-0.140705
C390	C	0.967649	0.174033	0.359295
H391	H	0.536197	-0.306568	-0.061028
H392	H	1.036197	0.193432	0.438972
H393	H	0.522912	-0.229039	-0.141007
H394	H	1.022912	0.270961	0.358993
H395	H	0.453205	-0.234133	-0.078187
H396	H	0.953205	0.265867	0.421813
H397	H	0.511305	-0.362201	-0.165297
H398	H	1.011305	0.137799	0.334703
H399	H	0.441620	-0.367191	-0.102445
H400	H	0.941620	0.132809	0.397555
