data_functionalizedCrystal
_audit_creation_method	'MofGen! by Chris Wilmer'
_symmetry_space_group_name_H-M	'P1'
_symmetry_Int_Tables_number	1
_symmetry_cell_setting	triclinic
loop_
_symmetry_equiv_pos_as_xyz
  x,y,z
_cell_length_a	23.532407
_cell_length_b	23.532407
_cell_length_c	8.140239
_cell_angle_alpha	90.002624
_cell_angle_beta	89.995964
_cell_angle_gamma	97.151323
loop_
_atom_site_label
_atom_site_type_symbol
_atom_site_fract_x
_atom_site_fract_y
_atom_site_fract_z
O1	O	-0.069134	0.755258	-0.136382
O2	O	-0.079137	0.589395	-0.136427
O3	O	0.008796	0.677328	-0.136424
O4	O	-0.157067	0.667325	-0.136385
O5	O	0.008797	0.677323	0.136803
O6	O	-0.079136	0.589390	0.136800
O7	O	-0.069133	0.755253	0.136845
Zn8	Zn	-0.074134	0.672321	0.180203
Zn9	Zn	-0.074136	0.672327	-0.179785
O10	O	-0.157066	0.667320	0.136842
C11	C	-0.078882	0.568176	0.000180
C12	C	-0.078116	0.504959	0.000162
C13	C	-0.125350	0.105856	0.000248
C14	C	-0.124638	0.046456	0.000257
O15	O	-0.168424	0.009711	0.000327
N16	N	-0.072362	0.023830	0.000242
C17	C	-0.020794	0.060607	0.000234
O18	O	0.023737	0.035908	0.000224
C19	C	-0.021506	0.120006	0.000236
C20	C	-0.073785	0.142629	0.000234
C21	C	-0.177625	0.128479	0.000248
C22	C	-0.178336	0.187876	0.000235
C23	C	-0.126772	0.224649	0.000222
C24	C	-0.074496	0.202025	0.000221
C25	C	0.030062	0.156783	0.000240
C26	C	0.029345	0.216185	0.000243
C27	C	-0.022934	0.238808	0.000241
C28	C	-0.023643	0.298194	0.000195
N29	N	-0.075920	0.320820	0.000210
C30	C	-0.127484	0.284048	0.000223
C31	C	-0.019302	-0.064135	0.000233
C32	C	-0.018589	-0.123533	0.000220
C33	C	-0.122434	-0.137680	0.000246
C34	C	-0.123146	-0.078281	0.000248
C35	C	-0.071578	-0.041509	0.000248
C36	C	-0.128974	0.408784	0.000195
C37	C	-0.129680	0.468186	0.000175
C38	C	-0.025836	0.482329	0.000158
C39	C	-0.025129	0.422932	0.000169
C40	C	-0.076702	0.386160	0.000193
O41	O	0.020119	0.334974	0.000132
O42	O	-0.172007	0.308755	0.000255
C43	C	-0.178283	0.667577	0.000234
C44	C	-0.241500	0.668343	0.000249
C45	C	-0.640603	0.621110	0.000153
C46	C	-0.700003	0.621821	0.000141
O47	O	-0.736748	0.578035	0.000069
N48	N	-0.722629	0.674097	0.000157
C49	C	-0.685852	0.725666	0.000168
O50	O	-0.710551	0.770196	0.000179
C51	C	-0.626453	0.724954	0.000168
C52	C	-0.603830	0.672674	0.000168
C53	C	-0.617980	0.568834	0.000151
C54	C	-0.558584	0.568123	0.000166
C55	C	-0.521811	0.619687	0.000181
C56	C	-0.544434	0.671963	0.000183
C57	C	-0.589676	0.776521	0.000167
C58	C	-0.530274	0.775805	0.000165
C59	C	-0.507651	0.723525	0.000166
C60	C	-0.448265	0.722816	0.000213
N61	N	-0.425639	0.670539	0.000197
C62	C	-0.462412	0.618975	0.000181
C63	C	-0.810594	0.727157	0.000166
C64	C	-0.869992	0.727870	0.000178
C65	C	-0.884140	0.624025	0.000148
C66	C	-0.824740	0.623313	0.000148
C67	C	-0.787968	0.674881	0.000150
C68	C	-0.337675	0.617485	0.000212
C69	C	-0.278273	0.616779	0.000234
C70	C	-0.264131	0.720623	0.000255
C71	C	-0.323527	0.721330	0.000242
C72	C	-0.360299	0.669757	0.000216
O73	O	-0.411486	0.766579	0.000278
O74	O	-0.437704	0.574452	0.000148
C75	C	0.030013	0.677071	0.000181
C76	C	0.093230	0.676305	0.000154
C77	C	-0.069388	0.776472	0.000234
C78	C	-0.070154	0.839689	0.000241
N79	N	-0.074133	0.672321	0.425886
N80	N	-0.074132	0.672332	-0.425468
H81	H	-0.220908	0.206289	0.000233
H82	H	-0.888406	0.770441	0.000204
N83	N	-0.612783	0.829920	0.000174
N84	N	-0.644351	0.841912	0.115339
H85	H	-0.660669	0.879628	0.115344
N86	N	-0.535470	0.514725	0.000129
N87	N	-0.482436	0.514086	0.000124
H88	H	-0.466115	0.476371	0.000092
N89	N	0.028277	0.399829	0.000143
N90	N	0.074312	0.432672	0.000122
H91	H	0.112032	0.416360	0.000118
N92	N	0.026840	0.519887	0.000140
N93	N	0.061691	0.517992	-0.115025
H94	H	0.098894	0.544519	-0.115027
H95	H	0.072634	0.138375	0.000243
H96	H	-0.234180	0.762605	0.000276
H97	H	-0.259857	0.574205	0.000242
H98	H	-0.367608	0.575489	0.000190
H99	H	-0.647915	0.526842	0.000133
N100	N	-0.346637	0.774732	0.000219
N101	N	-0.378190	0.786717	-0.114974
H102	H	-0.394508	0.824434	-0.115007
H103	H	-0.806326	0.580742	0.000155
N104	N	-0.921701	0.571346	0.000100
N105	N	-0.901500	0.524671	0.000080
H106	H	-0.928028	0.487468	0.000044
H107	H	-0.170970	0.378851	0.000220
H108	H	-0.219617	0.098544	0.000264
N109	N	-0.183090	0.491284	0.000162
N110	N	-0.229125	0.458440	0.000175
H111	H	-0.266845	0.474751	0.000167
N112	N	-0.492704	0.828477	0.000193
N113	N	-0.439670	0.827839	0.000210
H114	H	-0.413137	0.865038	0.000235
N115	N	-0.176553	-0.055185	0.000244
N116	N	-0.222586	-0.088031	0.000248
H117	H	-0.260308	-0.071723	0.000248
H118	H	0.071339	0.246123	0.000245
H119	H	-0.164421	-0.167632	0.000264
N120	N	0.034818	-0.146628	0.000184
N121	N	0.080851	-0.113782	0.000164
H122	H	0.118572	-0.130090	0.000145
H123	H	-0.780657	0.769152	0.000179
H124	H	0.022693	-0.034198	0.000219
