data_functionalizedCrystal
_audit_creation_method	'MofGen! by Chris Wilmer'
_symmetry_space_group_name_H-M	'P1'
_symmetry_Int_Tables_number	1
_symmetry_cell_setting	triclinic
loop_
_symmetry_equiv_pos_as_xyz
  x,y,z
_cell_length_a	15.944486
_cell_length_b	14.421503
_cell_length_c	13.339070
_cell_angle_alpha	90.000326
_cell_angle_beta	99.550857
_cell_angle_gamma	89.988870
loop_
_atom_site_label
_atom_site_type_symbol
_atom_site_fract_x
_atom_site_fract_y
_atom_site_fract_z
O1	O	-1.144888	0.077202	-0.130140
O2	O	-0.644888	0.577202	0.369860
O3	O	-0.904095	0.077189	-0.146293
O4	O	-0.404095	0.577189	0.353707
O5	O	-0.996856	0.077173	0.009041
O6	O	-0.496856	0.577173	0.509041
O7	O	-1.052127	0.077218	-0.285474
O8	O	-0.552127	0.577218	0.214526
O9	O	-0.996840	-0.077051	0.009018
O10	O	-0.496840	0.422949	0.509018
O11	O	-0.904079	-0.077035	-0.146316
O12	O	-0.404079	0.422965	0.353684
O13	O	-1.144872	-0.077022	-0.130163
O14	O	-0.644872	0.422978	0.369837
Cu15	Cu	-1.024474	-0.091110	-0.138242
Cu16	Cu	-0.524474	0.408890	0.361758
Cu17	Cu	-1.024493	0.091277	-0.138215
Cu18	Cu	-0.524493	0.591277	0.361785
O19	O	-1.052111	-0.077006	-0.285498
O20	O	-0.552111	0.422994	0.214502
C21	C	-0.872638	0.000075	-0.145646
C22	C	-0.372638	0.500075	0.354354
C23	C	-0.778929	0.000069	-0.143670
C24	C	-0.278929	0.500069	0.356330
C25	C	-0.508423	0.000092	-0.233927
C26	C	-0.008423	0.500092	0.266073
C27	C	-0.558529	0.076127	-0.187003
C28	C	-0.058529	0.576127	0.312997
C29	C	-0.441618	0.000084	-0.136491
C30	C	0.058382	0.500084	0.363509
C31	C	-0.558493	-0.075925	-0.186999
C32	C	-0.058493	0.424075	0.313001
C33	C	-0.607351	0.000075	-0.140024
C34	C	-0.107351	0.500075	0.359976
C35	C	-0.490489	0.076182	-0.089540
C36	C	0.009511	0.576182	0.410460
C37	C	-0.490450	-0.075938	-0.089550
C38	C	0.009550	0.424062	0.410450
C39	C	-0.540522	0.000116	-0.042555
C40	C	-0.040522	0.500116	0.457445
C41	C	-0.346144	0.000089	-0.134459
C42	C	0.153856	0.500089	0.365541
C43	C	-0.702822	0.000076	-0.142048
C44	C	-0.202822	0.500076	0.357952
N45	N	-1.024467	-0.219391	-0.138261
N46	N	-0.524467	0.280609	0.361739
C47	C	-0.981556	-0.469038	-0.210055
C48	C	-0.481556	0.030962	0.289945
C49	C	-1.062029	-0.530833	-0.229673
C50	C	-0.562029	-0.030833	0.270327
C51	C	-1.024481	-0.408553	-0.138236
C52	C	-0.524481	0.091447	0.361764
C53	C	-0.944033	-0.530852	-0.118642
C54	C	-0.444033	-0.030852	0.381358
C55	C	-1.024489	-0.591274	-0.138215
C56	C	-0.524489	-0.091274	0.361785
C57	C	-1.105004	-0.468987	-0.157900
C58	C	-0.605004	0.031013	0.342100
C59	C	-0.986948	-0.469001	-0.046830
C60	C	-0.486948	0.030999	0.453170
C61	C	-1.067468	-0.530768	-0.066409
C62	C	-0.567468	-0.030768	0.433591
C63	C	-1.024476	-0.303292	-0.138251
C64	C	-0.524476	0.196708	0.361749
C65	C	-1.024503	-0.696533	-0.138200
C66	C	-0.524503	-0.196533	0.361800
C67	C	-0.176330	0.000089	-0.130825
C68	C	0.323670	0.500089	0.369175
C69	C	-0.270045	0.000088	-0.132842
C70	C	0.229955	0.500088	0.367158
C71	C	-0.987512	0.000057	0.046717
C72	C	-0.487512	0.500057	0.546717
C73	C	-0.959683	0.000045	0.159013
C74	C	-0.459683	0.500045	0.659013
N75	N	-1.024505	0.219558	-0.138188
N76	N	-0.524505	0.719558	0.361812
C77	C	-1.176068	0.000014	0.523851
C78	C	-0.676068	0.500014	1.023851
C79	C	-1.202217	0.000019	0.418344
C80	C	-0.702217	0.500019	0.918344
C81	C	-1.141586	0.000026	0.353506
C82	C	-0.641586	0.500026	0.853506
C83	C	-1.054800	0.000027	0.394185
C84	C	-0.554800	0.500027	0.894185
C85	C	-1.028648	0.000014	0.499703
C86	C	-0.528648	0.500014	0.999703
C87	C	-0.994166	0.000026	0.329358
C88	C	-0.494166	0.500026	0.829358
C89	C	-0.907381	0.000027	0.370037
C90	C	-0.407381	0.500027	0.870037
C91	C	-0.881233	0.000014	0.475545
C92	C	-0.381233	0.500014	0.975545
C93	C	-0.941865	0.000008	0.540383
C94	C	-0.441865	0.500008	1.040383
C95	C	-1.020318	0.000039	0.223840
C96	C	-0.520318	0.500039	0.723840
C97	C	-0.872899	0.000039	0.199692
C98	C	-0.372899	0.500039	0.699692
C99	C	-0.846749	0.000034	0.305199
C100	C	-0.346749	0.500034	0.805199
C101	C	-1.061455	0.000081	0.676827
C102	C	-0.561455	0.500081	1.176827
C103	C	-1.089284	0.000008	0.564531
C104	C	-0.589284	0.500008	1.064531
H105	H	-0.588237	0.140418	-0.228208
H106	H	-0.088237	0.640418	0.271792
H107	H	-1.103826	-0.557702	-0.005661
H108	H	-0.603826	-0.057702	0.494339
H109	H	-0.875995	-0.558028	-0.102079
H110	H	-0.375995	-0.058028	0.397921
H111	H	-0.554839	0.000144	0.038383
H112	H	-0.054839	0.500144	0.538383
F113	F	-0.451603	-0.159978	-0.035740
F114	F	0.048397	0.340022	0.464260
H115	H	-0.588168	-0.140203	-0.228236
H116	H	-0.088168	0.359797	0.271764
H117	H	-0.945318	-0.441934	-0.270838
H118	H	-0.445318	0.058066	0.229162
H119	H	-0.955177	-0.441820	0.030437
H120	H	-0.455177	0.058180	0.530437
F121	F	-1.193982	-0.433621	-0.179667
F122	F	-0.693982	0.066379	0.320333
F123	F	-1.240586	-0.000008	0.592860
F124	F	-0.740586	0.499992	1.092860
F125	F	-1.294577	0.000034	0.375057
F126	F	-0.794577	0.500034	0.875057
F127	F	-1.112679	0.000038	0.180558
F128	F	-0.612679	0.500038	0.680558
F129	F	-1.169419	0.000035	0.241216
F130	F	-0.669419	0.500035	0.741216
F131	F	-0.914038	0.000089	0.652678
F132	F	-0.414038	0.500089	1.152678
F133	F	-0.489484	0.000201	-0.339622
F134	F	0.010516	0.500201	0.160378
H135	H	-0.810567	0.000008	0.508662
H136	H	-0.310567	0.500008	1.008662
H137	H	-0.776087	0.000033	0.338336
H138	H	-0.276087	0.500033	0.838336
H139	H	-1.093783	-0.557992	-0.306964
H140	H	-0.593783	-0.057992	0.193036
H141	H	-0.460923	0.140535	-0.048357
H142	H	0.039077	0.640535	0.451643
F143	F	-0.808365	0.000041	0.130692
F144	F	-0.308365	0.500041	0.630692
