data_functionalizedCrystal
_audit_creation_method	'MofGen! by Chris Wilmer'
_symmetry_space_group_name_H-M	'P1'
_symmetry_Int_Tables_number	1
_symmetry_cell_setting	triclinic
loop_
_symmetry_equiv_pos_as_xyz
  x,y,z
_cell_length_a	19.805399
_cell_length_b	19.805407
_cell_length_c	19.805404
_cell_angle_alpha	90.030762
_cell_angle_beta	90.025147
_cell_angle_gamma	90.019573
loop_
_atom_site_label
_atom_site_type_symbol
_atom_site_fract_x
_atom_site_fract_y
_atom_site_fract_z
Zn1	Zn	-0.382731	-1.034715	0.269479
Zn2	Zn	-0.269548	-1.034621	0.382667
Zn3	Zn	-0.269556	-0.921530	0.269498
Zn4	Zn	-0.382694	-0.921485	0.382631
O5	O	-0.326132	-0.978088	0.326069
O6	O	-0.367729	-1.129419	0.284501
O7	O	-0.174832	-1.019599	0.367678
O8	O	-0.284587	-0.936602	0.174778
O9	O	-0.284574	-1.129350	0.367660
O10	O	-0.367737	-1.019759	0.174765
O11	O	-0.174838	-0.936511	0.284533
O12	O	-0.284552	-0.826807	0.284498
O13	O	-0.477416	-0.936525	0.367598
O14	O	-0.367674	-0.826774	0.367617
O15	O	-0.477443	-1.019715	0.284466
O16	O	-0.284538	-1.019556	0.477379
O17	O	-0.367667	-0.936434	0.477353
C18	C	-0.326110	-0.802232	0.326056
C19	C	-0.326117	-0.727000	0.326067
C20	C	-0.326112	-0.977998	0.501925
C21	C	-0.326126	-0.978022	0.577157
C22	C	-0.502675	-0.978126	0.326026
C23	C	-0.577907	-0.978142	0.326008
C24	C	-0.613266	-1.021460	0.282719
C25	C	-0.683955	-1.021467	0.282699
C26	C	-0.719283	-0.978159	0.325973
C27	C	-0.683918	-0.934836	0.369264
C28	C	-0.613231	-0.934826	0.369280
C29	C	-0.968992	-0.934874	0.369201
C30	C	-1.039684	-0.934889	0.369183
C31	C	-1.039715	-1.021515	0.282620
C32	C	-0.969028	-1.021505	0.282636
C33	C	-0.933670	-0.978180	0.325924
C34	C	-0.857022	-0.978172	0.325944
C35	C	-0.795930	-0.978170	0.325957
C36	C	-0.150276	-0.978089	0.326062
C37	C	-0.075045	-0.978204	0.325890
C38	C	-0.326155	-1.154631	0.326082
C39	C	-0.326164	-1.229862	0.326088
C40	C	-0.369329	-0.691656	0.369412
C41	C	-0.369338	-0.620968	0.369413
C42	C	-0.326132	-0.585624	0.326072
C43	C	-0.282918	-0.620973	0.282722
C44	C	-0.282913	-0.691660	0.282718
C45	C	-0.282941	-0.335900	0.282737
C46	C	-0.282948	-0.265207	0.282746
C47	C	-0.369366	-0.265207	0.369432
C48	C	-0.369361	-0.335894	0.369428
C49	C	-0.326150	-0.371237	0.326076
C50	C	-0.326141	-0.447885	0.326074
C51	C	-0.326137	-0.508977	0.326076
C52	C	-0.282966	-1.021521	1.038939
C53	C	-0.282951	-1.021490	0.968251
C54	C	-0.326189	-0.978164	0.932918
C55	C	-0.369441	-0.934861	0.968278
C56	C	-0.369452	-0.934888	1.038966
C57	C	-0.369394	-0.934749	0.683205
C58	C	-0.369380	-0.934726	0.612513
C59	C	-0.282892	-1.021351	0.612490
C60	C	-0.282904	-1.021378	0.683177
C61	C	-0.326153	-0.978073	0.718531
C62	C	-0.326168	-0.978105	0.795179
C63	C	-0.326177	-0.978135	0.856271
C64	C	-0.326176	-0.978191	1.149526
C65	C	-0.326216	-0.978222	1.074294
H66	H	-0.584507	-1.056729	0.247482
H67	H	-0.404643	-0.899580	0.939507
C68	C	-0.574333	-0.887178	0.416897
H69	H	-0.527175	-0.893369	0.410704
H70	H	-0.585908	-0.897054	0.462373
H71	H	-0.585912	-0.841707	0.406978
H72	H	-0.247697	-1.056661	0.711941
H73	H	-0.404591	-0.899442	0.583747
C74	C	-0.416830	-0.582092	0.417134
H75	H	-0.442543	-0.613266	0.442963
H76	H	-0.446385	-0.554522	0.391323
H77	H	-0.390846	-0.554513	0.446580
H78	H	-0.404604	-0.899481	0.711982
C79	C	-0.235381	-0.730541	0.235040
H80	H	-0.241570	-0.777701	0.241239
H81	H	-0.189887	-0.718935	0.244883
H82	H	-0.245374	-0.718981	0.189575
H83	H	-0.247674	-1.056611	0.583698
H84	H	-0.404674	-0.899633	1.067751
H85	H	-0.247733	-1.056747	0.939465
C86	C	-0.722847	-1.069120	0.235084
H87	H	-0.691683	-1.094917	0.209321
H88	H	-0.750423	-1.043254	0.205582
H89	H	-0.750422	-1.098599	0.260978
C90	C	-0.416876	-0.374772	0.417112
H91	H	-0.410676	-0.421933	0.410908
H92	H	-0.462375	-0.363217	0.407277
H93	H	-0.406877	-0.363157	0.462576
C94	C	-0.930171	-1.069141	0.235033
H95	H	-0.961355	-1.094937	0.209243
H96	H	-0.902594	-1.098613	0.260930
H97	H	-0.902600	-1.043256	0.205545
C98	C	-0.416905	-0.226329	0.417112
H99	H	-0.410729	-0.179168	0.410904
H100	H	-0.406919	-0.237887	0.462576
H101	H	-0.462400	-0.237941	0.407262
H102	H	-1.068512	-1.056790	0.247370
H103	H	-1.068446	-0.899619	0.404423
C104	C	-0.235404	-1.069177	1.077801
H105	H	-0.241607	-1.062998	1.124964
H106	H	-0.189916	-1.059294	1.066252
H107	H	-0.245353	-1.114647	1.066169
C108	C	-0.930104	-0.887225	0.416819
H109	H	-0.882945	-0.893414	0.410629
H110	H	-0.941681	-0.897105	0.462294
H111	H	-0.941684	-0.841754	0.406903
C112	C	-0.722777	-0.887199	0.416864
H113	H	-0.769940	-0.893413	0.410661
H114	H	-0.711187	-0.841726	0.406959
H115	H	-0.711183	-0.897080	0.462347
H116	H	-0.404510	-0.720428	0.404707
H117	H	-0.247765	-0.236433	0.247448
C118	C	-0.235399	-0.374768	0.235063
H119	H	-0.209662	-0.343592	0.209261
H120	H	-0.261331	-0.402371	0.205600
H121	H	-0.205860	-0.402314	0.260925
H122	H	-0.247742	-0.592191	0.247430
