data_functionalizedCrystal
_audit_creation_method	'MofGen! by Chris Wilmer'
_symmetry_space_group_name_H-M	'P1'
_symmetry_Int_Tables_number	1
_symmetry_cell_setting	triclinic
loop_
_symmetry_equiv_pos_as_xyz
  x,y,z
_cell_length_a	17.038272
_cell_length_b	19.188930
_cell_length_c	15.500227
_cell_angle_alpha	92.813384
_cell_angle_beta	86.956295
_cell_angle_gamma	87.128169
loop_
_atom_site_label
_atom_site_type_symbol
_atom_site_fract_x
_atom_site_fract_y
_atom_site_fract_z
O1	O	1.040536	0.148564	-0.071852
O2	O	0.812914	0.146156	-0.071877
O3	O	0.933292	0.046114	-0.071847
O4	O	0.920157	0.248607	-0.071882
O5	O	0.925988	0.052159	0.072040
O6	O	0.805609	0.152202	0.072009
O7	O	1.033231	0.154610	0.072035
Cu8	Cu	0.918753	0.153958	0.085160
Cu9	Cu	0.927392	0.146808	-0.085003
O10	O	0.912852	0.254653	0.072004
C11	C	0.780140	0.146990	0.000063
C12	C	0.693368	0.140458	0.000054
C13	C	0.929214	0.023099	0.000099
C14	C	0.927937	-0.054485	0.000106
C15	C	0.643067	0.200424	0.000044
C16	C	0.561535	0.194283	0.000057
C17	C	0.530306	0.128176	0.000074
C18	C	0.580613	0.068205	0.000086
C19	C	0.662143	0.074347	0.000080
C20	C	0.284614	0.106479	0.000101
C21	C	0.203078	0.100342	0.000105
C22	C	0.184005	0.226421	0.000078
C23	C	0.265538	0.232556	0.000066
C24	C	0.315838	0.172586	0.000083
C25	C	0.446967	0.121897	0.000085
C26	C	0.399174	0.178865	0.000078
C27	C	0.998572	-0.095020	0.000118
C28	C	0.997373	-0.167919	0.000104
C29	C	0.925534	-0.200279	0.000095
C30	C	0.854890	-0.159734	0.000079
C31	C	0.856092	-0.086837	0.000084
N32	N	0.868136	-0.309638	0.049057
N33	N	0.866999	-0.378887	0.049053
C34	C	0.921909	-0.419913	0.000077
N35	N	0.978011	-0.389074	-0.048884
N36	N	0.979150	-0.319818	-0.048877
C37	C	0.924223	-0.279323	0.000089
C38	C	0.991249	-0.539494	0.000073
C39	C	0.990047	-0.612395	0.000054
C40	C	0.847562	-0.604208	0.000037
C41	C	0.848767	-0.531310	0.000048
C42	C	0.920612	-0.498957	0.000070
C43	C	1.066004	0.153776	0.000092
C44	C	1.152777	0.160308	0.000095
C45	C	0.916930	0.277667	0.000057
C46	C	0.918208	0.355250	0.000044
N47	N	0.912682	0.158986	0.204843
N48	N	0.933468	0.141775	-0.204686
C49	C	0.963709	0.116612	0.250133
C50	C	0.959125	0.120422	0.340705
C51	C	0.903518	0.166610	0.385985
C52	C	0.852486	0.208985	0.340689
C53	C	0.857067	0.205171	0.250119
C54	C	0.887017	0.180337	0.659448
C55	C	0.882442	0.184149	0.750024
C56	C	0.989080	0.095584	0.750033
C57	C	0.993659	0.091778	0.659461
C58	C	0.942624	0.134150	0.614174
C59	C	0.898833	0.170506	0.478564
C60	C	0.947306	0.130250	0.521596
H61	H	0.668486	0.254256	0.000030
H62	H	1.057074	-0.068683	0.000133
H63	H	0.789070	-0.630555	0.000026
H64	H	1.054894	-0.200929	0.000110
H65	H	0.177655	0.046506	0.000118
O66	O	0.785051	-0.191081	0.000186
C67	C	0.659136	-0.203300	0.074733
C68	C	0.738191	-0.167741	0.074716
H69	H	0.621234	-0.184454	0.134993
H70	H	0.627246	-0.189453	0.014552
H71	H	0.670431	-0.262364	0.074692
H72	H	0.726966	-0.108670	0.074788
H73	H	0.770057	-0.181645	0.134892
H74	H	0.703099	0.025516	0.000087
H75	H	1.008993	0.079004	0.213271
O76	O	0.787428	-0.047537	-0.000038
C77	C	0.669826	-0.021322	-0.074622
C78	C	0.747555	-0.065889	-0.074583
H79	H	0.637575	-0.036134	-0.134894
H80	H	0.631348	-0.031131	-0.014453
H81	H	0.683042	0.036334	-0.074570
H82	H	0.734412	-0.123560	-0.074666
H83	H	0.786010	-0.056021	-0.134747
O84	O	0.780077	-0.492032	0.000086
C85	C	0.638630	-0.491610	0.000019
C86	C	0.716365	-0.536174	-0.000000
H87	H	0.587100	-0.527281	-0.000069
H88	H	0.632519	-0.454772	0.060253
H89	H	0.638729	-0.459779	-0.060180
H90	H	0.716319	-0.568047	0.060158
H91	H	0.722445	-0.572967	-0.060274
H92	H	1.000674	0.085917	0.377579
H93	H	0.325559	0.057647	0.000115
O94	O	0.798397	0.253865	0.384538
C95	C	0.693138	0.341331	0.374963
C96	C	0.754345	0.290523	0.325200
H97	H	0.657516	0.370993	0.327009
H98	H	0.651999	0.310668	0.417356
H99	H	0.724630	0.379984	0.417373
H100	H	0.722919	0.251859	0.282742
H101	H	0.795480	0.321232	0.282861
H102	H	0.143042	0.275245	0.000066
H103	H	0.555180	0.014379	0.000112
H104	H	0.424604	0.232690	0.000070
H105	H	0.520582	0.243114	0.000048
H106	H	1.049750	-0.513151	0.000087
H107	H	0.421530	0.068073	0.000123
H108	H	1.038938	0.054168	0.622596
O109	O	1.038615	0.054318	0.793934
C110	C	1.083387	-0.063155	0.821716
C111	C	1.027263	-0.016496	0.771929
H112	H	1.074217	-0.120418	0.803957
H113	H	1.146883	-0.051122	0.803883
H114	H	1.070570	-0.052461	0.894221
H115	H	1.040008	-0.027164	0.699412
H116	H	0.963785	-0.028538	0.789834
O117	O	1.058736	-0.651668	0.000103
C118	C	1.200187	-0.652092	0.000086
C119	C	1.122454	-0.607531	0.000049
H120	H	1.251724	-0.616427	0.000024
H121	H	1.200177	-0.683890	0.060312
H122	H	1.206205	-0.688960	-0.060121
H123	H	1.116386	-0.570624	0.060215
H124	H	1.122498	-0.575780	-0.060217
O125	O	0.295905	0.296756	-0.000123
C126	C	0.380661	0.373704	-0.074720
C127	C	0.346322	0.300976	-0.074603
H128	H	0.421443	0.377135	-0.134921
H129	H	0.330726	0.415527	-0.074790
H130	H	0.415280	0.382278	-0.014491
H131	H	0.311712	0.292334	-0.134822
H132	H	0.396292	0.259191	-0.074488
O133	O	0.828345	0.229026	0.793877
C134	C	0.723071	0.316481	0.784316
C135	C	0.784283	0.265683	0.734545
H136	H	0.687442	0.346142	0.736368
H137	H	0.681939	0.285810	0.826710
H138	H	0.754559	0.355136	0.826728
H139	H	0.752861	0.227017	0.692086
H140	H	0.825411	0.296399	0.692207
H141	H	0.845464	0.214840	0.622582
O142	O	1.001205	0.085321	0.477537
C143	C	1.023293	-0.013383	0.375394
C144	C	0.962178	0.037475	0.425220
H145	H	0.991763	-0.052088	0.333098
H146	H	1.064390	0.017239	0.332900
H147	H	1.058976	-0.042980	0.423353
H148	H	0.926440	0.067085	0.377324
H149	H	0.921134	0.006814	0.467728
H150	H	0.815515	0.239676	0.213246
H151	H	0.853558	0.208115	0.515439
