data_functionalizedCrystal
_audit_creation_method	'MofGen! by Chris Wilmer'
_symmetry_space_group_name_H-M	'P1'
_symmetry_Int_Tables_number	1
_symmetry_cell_setting	triclinic
loop_
_symmetry_equiv_pos_as_xyz
  x,y,z
_cell_length_a	12.759401
_cell_length_b	16.625545
_cell_length_c	12.759393
_cell_angle_alpha	90.033904
_cell_angle_beta	90.018567
_cell_angle_gamma	90.024602
loop_
_atom_site_label
_atom_site_type_symbol
_atom_site_fract_x
_atom_site_fract_y
_atom_site_fract_z
Zn1	Zn	1.606176	-0.320975	0.593966
Zn2	Zn	1.606037	-0.455831	0.418279
Zn3	Zn	1.430478	-0.321014	0.418305
Zn4	Zn	1.430433	-0.455767	0.593920
O5	O	1.518281	-0.388397	0.506118
O6	O	1.753179	-0.338874	0.570669
O7	O	1.582709	-0.437991	0.271262
O8	O	1.453862	-0.208177	0.441637
O9	O	1.753077	-0.437953	0.441593
O10	O	1.582946	-0.208147	0.570695
O11	O	1.453727	-0.338942	0.271281
O12	O	1.283451	-0.338879	0.441593
O13	O	1.453786	-0.437843	0.740948
O14	O	1.283418	-0.437881	0.570617
O15	O	1.582903	-0.338811	0.740981
O16	O	1.582666	-0.568655	0.441548
O17	O	1.453651	-0.568608	0.570591
C18	C	1.245314	-0.388378	0.506103
C19	C	1.128537	-0.388389	0.506122
C20	C	1.073721	-0.336896	0.573436
C21	C	0.963997	-0.336912	0.573443
C22	C	0.963915	-0.439920	0.438818
C23	C	1.073637	-0.439900	0.438807
C24	C	1.073768	-0.277428	0.651164
C25	C	0.964044	-0.277443	0.651171
C26	C	1.518167	-0.597888	0.506085
C27	C	1.518214	-0.687509	0.506106
C28	C	1.518255	-0.760291	0.506127
C29	C	1.518316	-0.851600	0.506150
C30	C	1.518371	-0.924376	0.506163
C31	C	1.518431	-1.015690	0.506185
C32	C	1.792314	-0.388416	0.506133
C33	C	1.909091	-0.388425	0.506140
C34	C	1.518355	-0.388315	0.780151
C35	C	1.518386	-0.388281	0.896928
C36	C	1.518424	-0.178088	0.506174
C37	C	1.518485	-0.088467	0.506198
C38	C	1.518268	-0.388420	0.233150
C39	C	1.518441	-0.388227	0.116374
C40	C	1.585627	-0.336710	0.951809
C41	C	1.585652	-0.336681	1.061533
C42	C	1.451192	-0.439800	1.061485
C43	C	1.451163	-0.439824	0.951763
C44	C	1.663259	-0.277178	0.951838
C45	C	1.663284	-0.277149	1.061562
H46	H	1.107828	-0.299862	0.728401
H47	H	1.118264	-0.481823	0.383983
H48	H	0.930017	-0.218097	0.622174
H49	H	1.744651	-0.293875	1.091340
H50	H	1.634185	-0.217817	1.095613
O51	O	0.928595	-0.297296	0.748284
C52	C	0.965543	-0.240660	0.821838
H53	H	1.038999	-0.210243	0.789973
H54	H	0.902490	-0.193419	0.836523
C55	C	0.901631	-0.321057	0.964526
C56	C	0.991856	-0.283703	0.925393
H57	H	0.917858	-0.347606	1.028406
H58	H	0.876734	-0.359212	0.914972
H59	H	0.849095	-0.281683	0.976756
H60	H	1.044385	-0.323078	0.913151
H61	H	1.016761	-0.245555	0.974947
H62	H	0.919201	-0.481858	0.384013
H63	H	1.396405	-0.481815	0.907083
O64	O	1.386000	-0.489845	1.114917
C65	C	1.400421	-0.478750	1.223530
H66	H	1.481523	-0.452345	1.238532
H67	H	1.338140	-0.435800	1.254677
C68	C	1.291141	-0.592749	1.261406
C69	C	1.390755	-0.560324	1.279832
H70	H	1.285173	-0.643066	1.296138
H71	H	1.281421	-0.600223	1.188231
H72	H	1.239251	-0.556949	1.287362
H73	H	1.442641	-0.596119	1.253865
H74	H	1.400483	-0.552859	1.353004
O75	O	1.637117	-0.202712	0.916384
C76	C	1.536508	-0.182114	0.953326
H77	H	1.491093	-0.239244	0.972799
H78	H	1.544206	-0.143486	1.026782
C79	C	1.533339	-0.064453	0.844230
C80	C	1.477556	-0.134621	0.868138
H81	H	1.496975	-0.035155	0.791685
H82	H	1.601122	-0.078328	0.819344
H83	H	1.539750	-0.032273	0.905450
H84	H	1.471157	-0.166805	0.806922
H85	H	1.409770	-0.120751	0.893012
H86	H	1.103550	-0.214954	0.629514
H87	H	1.740525	-0.299565	0.917801
