data_functionalizedCrystal
_audit_creation_method	'MofGen! by Chris Wilmer'
_symmetry_space_group_name_H-M	'P1'
_symmetry_Int_Tables_number	1
_symmetry_cell_setting	triclinic
loop_
_symmetry_equiv_pos_as_xyz
  x,y,z
_cell_length_a	42.784839
_cell_length_b	42.784841
_cell_length_c	42.784893
_cell_angle_alpha	90.002418
_cell_angle_beta	120.002220
_cell_angle_gamma	60.000137
loop_
_atom_site_label
_atom_site_type_symbol
_atom_site_fract_x
_atom_site_fract_y
_atom_site_fract_z
O1	O	-0.275695	-0.214412	-0.009300
O2	O	-0.211692	-0.168961	0.009253
O3	O	-0.275692	-0.168961	-0.054750
O4	O	-0.211694	-0.214412	0.054702
O5	O	-0.223708	-0.220945	-0.054749
O6	O	-0.159708	-0.220945	0.009253
O7	O	-0.223710	-0.266397	-0.009300
Zn8	Zn	-0.183455	-0.251924	-0.000023
Zn9	Zn	-0.251947	-0.183433	-0.000024
O10	O	-0.159710	-0.266396	0.054703
C11	C	-0.051021	-0.022778	0.028112
C12	C	-0.013142	-0.041761	0.028375
C13	C	-0.051018	-0.079378	0.028116
C14	C	-0.013139	-0.098275	0.028379
C15	C	0.005578	-0.079377	0.028112
C16	C	-0.069652	-0.041762	0.028379
C17	C	-0.152948	0.113708	0.017863
C18	C	-0.173786	0.152360	0.014965
C19	C	-0.155902	0.171750	0.013509
C20	C	-0.178499	0.213661	0.010359
C21	C	-0.117177	0.152485	0.014953
C22	C	-0.096339	0.113835	0.017857
C23	C	-0.114226	0.094447	0.019312
C24	C	0.131813	-0.113936	0.017859
C25	C	0.167567	-0.131750	0.014961
C26	C	0.185502	-0.169024	0.013506
C27	C	0.224264	-0.188340	0.010358
C28	C	0.167685	-0.188485	0.014954
C29	C	0.131938	-0.170675	0.017859
C30	C	0.114002	-0.133396	0.019309
C31	C	-0.152939	-0.113943	0.017877
C32	C	-0.173778	-0.131757	0.014977
C33	C	-0.155892	-0.169032	0.013523
C34	C	-0.178486	-0.188349	0.010377
C35	C	-0.117170	-0.188491	0.014967
C36	C	-0.096334	-0.170675	0.017865
C37	C	-0.114220	-0.133401	0.019323
C38	C	-0.091629	0.052537	0.022456
C39	C	-0.073617	0.019131	0.024964
C40	C	-0.073613	-0.098693	0.024971
C41	C	-0.091623	-0.114089	0.022466
C42	C	0.044339	-0.098690	0.024964
C43	C	0.075237	-0.114084	0.022456
C44	C	-0.384390	-0.079141	-0.361606
C45	C	-0.422270	-0.041526	-0.380503
C46	C	-0.384390	-0.079141	-0.305008
C47	C	-0.422270	-0.041526	-0.323990
C48	C	-0.440988	-0.022543	-0.361606
C49	C	-0.365758	-0.098038	-0.323991
C50	C	-0.282465	-0.170819	-0.396168
C51	C	-0.261627	-0.188759	-0.413983
C52	C	-0.279513	-0.169420	-0.451257
C53	C	-0.256917	-0.188867	-0.470572
C54	C	-0.318239	-0.132140	-0.470717
C55	C	-0.339076	-0.114205	-0.452905
C56	C	-0.321187	-0.133546	-0.415628
C57	C	-0.567227	0.113942	-0.453282
C58	C	-0.602981	0.152594	-0.471222
C59	C	-0.620916	0.171985	-0.451883
C60	C	-0.659678	0.213894	-0.471328
C61	C	-0.603097	0.152719	-0.414603
C62	C	-0.567349	0.114068	-0.396667
C63	C	-0.549414	0.094682	-0.416011
C64	C	-0.282465	-0.170819	-0.168522
C65	C	-0.261624	-0.188757	-0.129868
C66	C	-0.279510	-0.169418	-0.110479
C67	C	-0.256914	-0.188865	-0.068568
C68	C	-0.318233	-0.132140	-0.129742
C69	C	-0.339070	-0.114203	-0.168394
C70	C	-0.321184	-0.133548	-0.187782
C71	C	-0.343783	-0.114094	-0.396315
C72	C	-0.361794	-0.098590	-0.380920
C73	C	-0.361794	-0.098590	-0.263099
C74	C	-0.343783	-0.114094	-0.229693
C75	C	-0.479750	0.019366	-0.381054
C76	C	-0.510649	0.052771	-0.396557
C77	C	-0.440758	-0.356212	-0.028193
C78	C	-0.422041	-0.393827	-0.028459
C79	C	-0.384158	-0.356213	-0.028190
C80	C	-0.365526	-0.393828	-0.028456
C81	C	-0.384160	-0.412810	-0.028193
C82	C	-0.422038	-0.337315	-0.028456
C83	C	-0.567000	-0.264532	-0.017949
C84	C	-0.602755	-0.246591	-0.015053
C85	C	-0.620692	-0.265931	-0.013601
C86	C	-0.659455	-0.246483	-0.010453
C87	C	-0.602873	-0.303210	-0.015048
C88	C	-0.567125	-0.321146	-0.017949
C89	C	-0.549188	-0.301805	-0.019399
C90	C	-0.339356	-0.549295	-0.017951
C91	C	-0.318645	-0.587947	-0.015055
C92	C	-0.279915	-0.607338	-0.013597
C93	C	-0.257452	-0.649247	-0.010452
C94	C	-0.261899	-0.588073	-0.015042
C95	C	-0.282613	-0.549422	-0.017945
C96	C	-0.321343	-0.530035	-0.019397
C97	C	-0.339344	-0.264537	-0.017936
C98	C	-0.318628	-0.246599	-0.015032
C99	C	-0.279898	-0.265939	-0.013577
C100	C	-0.257433	-0.246493	-0.010426
C101	C	-0.261884	-0.303217	-0.015022
C102	C	-0.282601	-0.321153	-0.017924
C103	C	-0.321334	-0.301808	-0.019385
C104	C	-0.510421	-0.321258	-0.022542
C105	C	-0.479522	-0.336762	-0.025048
C106	C	-0.361696	-0.336765	-0.025041
C107	C	-0.343793	-0.321261	-0.022532
C108	C	-0.361701	-0.454719	-0.025047
C109	C	-0.343799	-0.488125	-0.022541
O110	O	0.327856	-0.266388	-0.009322
O111	O	0.236954	-0.220935	0.009228
O112	O	0.236950	-0.220939	-0.054773
O113	O	0.327860	-0.266385	0.054680
O114	O	0.236948	-0.168954	-0.054776
O115	O	0.236952	-0.168950	0.009225
O116	O	0.327854	-0.214403	-0.009325
Zn117	Zn	0.282403	-0.183423	-0.000050
Zn118	Zn	0.282405	-0.251916	-0.000046
O119	O	0.327858	-0.214400	0.054676
O120	O	-0.223728	0.336934	-0.009323
O121	O	-0.159726	0.227482	0.009227
O122	O	-0.223729	0.291478	-0.054775
O123	O	-0.159725	0.272938	0.054678
O124	O	-0.275711	0.291477	-0.054771
O125	O	-0.211707	0.227481	0.009230
O126	O	-0.275710	0.336932	-0.009320
Zn127	Zn	-0.251962	0.282206	-0.000045
Zn128	Zn	-0.183474	0.282208	-0.000049
O129	O	-0.211707	0.272936	0.054681
O130	O	-0.763271	0.337164	-0.496871
O131	O	-0.672367	0.227713	-0.451422
O132	O	-0.672365	0.291711	-0.451418
O133	O	-0.763273	0.273165	-0.496876
O134	O	-0.672366	0.291712	-0.503402
O135	O	-0.672368	0.227714	-0.503407
O136	O	-0.763272	0.337165	-0.548856
Zn137	Zn	-0.717820	0.282440	-0.534385
Zn138	Zn	-0.717819	0.282438	-0.465893
O139	O	-0.763275	0.273167	-0.548860
O140	O	-0.211690	-0.214417	-0.548617
O141	O	-0.275691	-0.168962	-0.503167
O142	O	-0.211689	-0.168964	-0.503163
O143	O	-0.275692	-0.214415	-0.548621
O144	O	-0.159706	-0.220947	-0.451179
O145	O	-0.223708	-0.220945	-0.451183
O146	O	-0.159707	-0.266400	-0.496633
Zn147	Zn	-0.183454	-0.251926	-0.465654
Zn148	Zn	-0.251944	-0.183436	-0.534146
O149	O	-0.223709	-0.266398	-0.496637
C150	C	0.005343	-0.412572	0.361558
C151	C	-0.013375	-0.393590	0.380456
C152	C	-0.051255	-0.355974	0.304961
C153	C	-0.069887	-0.337077	0.323944
C154	C	-0.051254	-0.355974	0.361560
C155	C	-0.013375	-0.393589	0.323943
C156	C	0.131582	-0.549057	0.396116
C157	C	0.167336	-0.587709	0.413930
C158	C	0.185271	-0.607098	0.451205
C159	C	0.224034	-0.649009	0.470519
C160	C	0.167452	-0.587833	0.470666
C161	C	0.131705	-0.549184	0.452854
C162	C	0.113770	-0.529796	0.415578
C163	C	-0.096061	-0.321414	0.453239
C164	C	-0.116773	-0.303600	0.471179
C165	C	-0.155502	-0.266327	0.451842
C166	C	-0.177965	-0.247011	0.471288
C167	C	-0.173517	-0.246866	0.414562
C168	C	-0.152802	-0.264677	0.396625
C169	C	-0.114073	-0.301955	0.415968
C170	C	-0.096064	-0.321412	0.168474
C171	C	-0.116779	-0.303599	0.129820
C172	C	-0.155508	-0.266324	0.110432
C173	C	-0.177972	-0.247009	0.068521
C174	C	-0.173522	-0.246865	0.129696
C175	C	-0.152807	-0.264680	0.168348
C176	C	-0.114075	-0.301953	0.187735
C177	C	0.075004	-0.487887	0.396265
C178	C	0.044106	-0.454481	0.380871
C179	C	-0.073715	-0.336660	0.263052
C180	C	-0.091618	-0.321265	0.229646
C181	C	-0.073714	-0.336661	0.381009
C182	C	-0.091616	-0.321267	0.396513
C183	C	-0.051046	-0.022794	-0.361634
C184	C	-0.069679	-0.041778	-0.380530
C185	C	0.005555	-0.079390	-0.305034
C186	C	-0.013163	-0.098288	-0.324016
C187	C	-0.051045	-0.079393	-0.361631
C188	C	-0.013164	-0.041775	-0.324018
C189	C	-0.095858	0.113693	-0.396200
C190	C	-0.116571	0.152344	-0.414015
C191	C	-0.155302	0.171732	-0.451290
C192	C	-0.177767	0.213642	-0.470607
C193	C	-0.173317	0.152465	-0.470750
C194	C	-0.152600	0.113815	-0.452936
C195	C	-0.113869	0.094429	-0.415659
C196	C	-0.152973	-0.113959	-0.453306
C197	C	-0.173810	-0.131775	-0.471245
C198	C	-0.155926	-0.169048	-0.451906
C199	C	-0.178519	-0.188366	-0.471350
C200	C	-0.117198	-0.188507	-0.414626
C201	C	-0.096358	-0.170694	-0.396690
C202	C	-0.114251	-0.133416	-0.416035
C203	C	0.131801	-0.113944	-0.168548
C204	C	0.167554	-0.131755	-0.129895
C205	C	0.185491	-0.169029	-0.110504
C206	C	0.224255	-0.188343	-0.068593
C207	C	0.167671	-0.188490	-0.129767
C208	C	0.131918	-0.170677	-0.168418
C209	C	0.113988	-0.133404	-0.187808
C210	C	-0.091411	0.052521	-0.396344
C211	C	-0.073508	0.019115	-0.380949
C212	C	0.044320	-0.098701	-0.263125
C213	C	0.075220	-0.114094	-0.229719
C214	C	-0.073641	-0.098707	-0.381079
C215	C	-0.091652	-0.114103	-0.396582
C216	C	0.615853	-0.356193	0.361535
C217	C	0.634487	-0.393808	0.380433
C218	C	0.559253	-0.356195	0.304938
C219	C	0.577972	-0.393810	0.323921
C220	C	0.615854	-0.412792	0.361537
C221	C	0.577972	-0.337297	0.323920
C222	C	0.660661	-0.264512	0.396093
C223	C	0.681373	-0.246571	0.413906
C224	C	0.720104	-0.265909	0.451181
C225	C	0.742568	-0.246461	0.470495
C226	C	0.738120	-0.303189	0.470643
C227	C	0.717405	-0.321125	0.452831
C228	C	0.678674	-0.301785	0.415554
C229	C	0.717784	-0.549275	0.453218
C230	C	0.738622	-0.587926	0.471159
C231	C	0.720740	-0.607319	0.451822
C232	C	0.743333	-0.649227	0.471268
C233	C	0.682012	-0.588055	0.414542
C234	C	0.661170	-0.549403	0.396604
C235	C	0.679063	-0.530016	0.415946
C236	C	0.433006	-0.264522	0.168449
C237	C	0.397253	-0.246585	0.129796
C238	C	0.379317	-0.265926	0.110407
C239	C	0.340553	-0.246480	0.068496
C240	C	0.397138	-0.303204	0.129672
C241	C	0.432891	-0.321139	0.168324
C242	C	0.450820	-0.301793	0.187711
C243	C	0.656216	-0.321238	0.396242
C244	C	0.638314	-0.336743	0.380848
C245	C	0.520488	-0.336748	0.263028
C246	C	0.489588	-0.321245	0.229622
C247	C	0.638451	-0.454700	0.380987
C248	C	0.656463	-0.488106	0.396492
C249	C	-0.440756	0.310302	-0.361620
C250	C	-0.422038	0.310564	-0.380518
C251	C	-0.384160	0.310312	-0.305026
C252	C	-0.365528	0.310574	-0.324010
C253	C	-0.384159	0.310303	-0.361624
C254	C	-0.422038	0.310573	-0.324006
C255	C	-0.566989	0.300046	-0.396172
C256	C	-0.602741	0.297145	-0.413984
C257	C	-0.620675	0.295684	-0.451257
C258	C	-0.659436	0.292531	-0.470569
C259	C	-0.602857	0.297127	-0.470719
C260	C	-0.567111	0.300033	-0.452909
C261	C	-0.549177	0.301493	-0.415634
C262	C	-0.339351	0.300042	-0.453303
C263	C	-0.318640	0.297142	-0.471244
C264	C	-0.279912	0.295690	-0.451908
C265	C	-0.257449	0.292541	-0.471354
C266	C	-0.261899	0.297143	-0.414629
C267	C	-0.282613	0.300049	-0.396692
C268	C	-0.321341	0.301496	-0.416033
C269	C	-0.339354	0.300088	-0.168540
C270	C	-0.318640	0.297192	-0.129888
C271	C	-0.279912	0.295742	-0.110501
C272	C	-0.257450	0.292601	-0.068591
C273	C	-0.261898	0.297184	-0.129766
C274	C	-0.282612	0.300078	-0.168417
C275	C	-0.321344	0.301533	-0.187802
C276	C	-0.510413	0.304640	-0.396323
C277	C	-0.479516	0.307151	-0.380931
C278	C	-0.361701	0.307173	-0.263117
C279	C	-0.343799	0.304671	-0.229712
C280	C	-0.361700	0.307154	-0.381073
C281	C	-0.343798	0.304644	-0.396578
O282	O	-0.275503	0.336913	-0.548651
O283	O	-0.211494	0.227461	-0.503201
O284	O	-0.275490	0.291455	-0.503192
O285	O	-0.211507	0.272919	-0.548659
O286	O	-0.223502	0.291457	-0.451211
O287	O	-0.159506	0.227463	-0.451219
O288	O	-0.223515	0.336915	-0.496669
Zn289	Zn	-0.183256	0.282189	-0.465691
Zn290	Zn	-0.251753	0.282187	-0.534179
O291	O	-0.159519	0.272921	-0.496677
C292	C	-0.051032	0.254111	0.361530
C293	C	-0.013154	0.253851	0.380425
C294	C	-0.051031	0.254102	0.304932
C295	C	-0.013153	0.253842	0.323913
C296	C	0.005564	0.254113	0.361527
C297	C	-0.069663	0.253840	0.323916
C298	C	-0.152954	0.264360	0.396096
C299	C	-0.173791	0.267260	0.413911
C300	C	-0.155906	0.268721	0.451185
C301	C	-0.178502	0.271871	0.470501
C302	C	-0.117182	0.267279	0.470643
C303	C	-0.096345	0.264374	0.452830
C304	C	-0.114233	0.262915	0.415555
C305	C	0.131796	0.264379	0.453195
C306	C	0.167548	0.267281	0.471133
C307	C	0.185483	0.268734	0.451793
C308	C	0.224243	0.271886	0.471236
C309	C	0.167664	0.267282	0.414515
C310	C	0.131919	0.264374	0.396581
C311	C	0.113984	0.262925	0.415925
C312	C	-0.152952	0.264325	0.168451
C313	C	-0.173792	0.267221	0.129798
C314	C	-0.155907	0.268673	0.110407
C315	C	-0.178502	0.271814	0.068498
C316	C	-0.117186	0.267232	0.129669
C317	C	-0.096350	0.264339	0.168320
C318	C	-0.114234	0.262881	0.187709
C319	C	-0.091638	0.259769	0.396240
C320	C	-0.073627	0.257260	0.380845
C321	C	-0.073626	0.257242	0.263024
C322	C	-0.091636	0.259743	0.229619
C323	C	0.044324	0.257264	0.380973
C324	C	0.075221	0.259775	0.396474
H325	H	-0.167516	0.097925	0.019049
H326	H	0.770155	-0.603608	0.501511
C327	C	-0.172450	-0.073496	-0.474380
C328	C	-0.210815	-0.060274	-0.510868
C329	C	-0.228765	-0.023004	-0.530292
H330	H	-0.179544	-0.057185	-0.460467
H331	H	-0.151508	-0.073497	-0.476722
H332	H	-0.231753	-0.060270	-0.508525
H333	H	-0.203734	-0.076575	-0.524791
H334	H	-0.207823	-0.023005	-0.532634
H335	H	-0.235856	-0.006695	-0.516376
H336	H	-0.254795	-0.014029	-0.555052
C337	C	0.187087	0.268833	0.393459
C338	C	0.163840	0.266929	0.356980
C339	C	0.181722	0.268354	0.337574
H340	H	0.184760	0.292104	0.391094
H341	H	0.217314	0.247814	0.407402
H342	H	0.133621	0.287947	0.343040
H343	H	0.166165	0.243659	0.359333
H344	H	0.211949	0.247335	0.351517
H345	H	0.179394	0.291626	0.335212
H346	H	0.165955	0.267059	0.312822
C347	C	0.007721	-0.139460	0.028870
C348	C	0.007888	-0.141502	-0.003713
C349	C	0.027097	-0.179433	-0.003276
H350	H	0.037215	-0.155207	0.051165
H351	H	-0.008863	-0.148056	0.028966
H352	H	0.024473	-0.132911	-0.003806
H353	H	-0.021600	-0.125763	-0.026013
H354	H	0.010513	-0.188029	-0.003180
H355	H	0.056590	-0.195177	0.019020
H356	H	0.027209	-0.180824	-0.025384
C357	C	-0.096987	0.173260	-0.392935
C358	C	-0.086549	0.186785	-0.413505
C359	C	-0.068502	0.206050	-0.394094
H360	H	-0.117865	0.194224	-0.390561
H361	H	-0.070939	0.156186	-0.368187
H362	H	-0.112593	0.203858	-0.438245
H363	H	-0.065667	0.165829	-0.415880
H364	H	-0.042455	0.188976	-0.369346
H365	H	-0.089383	0.227012	-0.391721
H366	H	-0.061414	0.215226	-0.408046
H367	H	-0.437707	0.310988	-0.411425
C368	C	-0.622317	0.173572	-0.511667
C369	C	-0.618826	0.204414	-0.511601
C370	C	-0.636636	0.223750	-0.548852
H371	H	-0.606537	0.156536	-0.520652
H372	H	-0.652551	0.182808	-0.527995
H373	H	-0.588597	0.195178	-0.495279
H374	H	-0.634607	0.221458	-0.502623
H375	H	-0.666870	0.232987	-0.565180
H376	H	-0.620854	0.206712	-0.557835
H377	H	-0.634273	0.244681	-0.548814
C378	C	-0.263016	-0.191772	-0.355671
C379	C	-0.252650	-0.171128	-0.331775
C380	C	-0.234729	-0.190418	-0.294466
H381	H	-0.283945	-0.194096	-0.355629
H382	H	-0.236955	-0.216539	-0.346611
H383	H	-0.278707	-0.146369	-0.340832
H384	H	-0.231717	-0.168804	-0.331805
H385	H	-0.208669	-0.215185	-0.285407
H386	H	-0.255660	-0.192741	-0.294429
H387	H	-0.227690	-0.176416	-0.278248
C388	C	-0.219839	0.295546	-0.393690
C389	C	-0.205546	0.292682	-0.417372
C390	C	-0.166798	0.291203	-0.398094
H391	H	-0.225533	0.318157	-0.387258
H392	H	-0.197550	0.273868	-0.370982
H393	H	-0.227830	0.314358	-0.440074
H394	H	-0.199842	0.270072	-0.423806
H395	H	-0.144509	0.269525	-0.375386
H396	H	-0.172496	0.313814	-0.391662
H397	H	-0.157093	0.289256	-0.414158
H398	H	-0.100131	-0.026521	0.028807
C399	C	-0.547523	0.301697	-0.355728
C400	C	-0.551002	0.336028	-0.355854
C401	C	-0.533068	0.337559	-0.318603
H402	H	-0.563231	0.300445	-0.346652
H403	H	-0.517285	0.280699	-0.339450
H404	H	-0.581235	0.357020	-0.372126
H405	H	-0.535293	0.337287	-0.364922
H406	H	-0.502830	0.316561	-0.302325
H407	H	-0.548778	0.336307	-0.309530
H408	H	-0.535423	0.360851	-0.318683
C409	C	-0.172350	-0.073453	0.019400
C410	C	-0.182693	-0.049565	-0.011599
C411	C	-0.200569	-0.012264	-0.010208
H412	H	-0.198413	-0.064362	0.018106
H413	H	-0.151392	-0.073444	0.042666
H414	H	-0.203650	-0.049571	-0.034860
H415	H	-0.156638	-0.058643	-0.010312
H416	H	-0.179611	-0.012255	0.013058
H417	H	-0.226630	-0.003177	-0.011501
H418	H	-0.207585	0.003948	-0.031238
C419	C	-0.338187	0.295683	-0.108941
C420	C	-0.348604	0.326686	-0.095406
C421	C	-0.366608	0.325308	-0.076105
H422	H	-0.364235	0.296981	-0.125986
H423	H	-0.317279	0.272420	-0.087979
H424	H	-0.369511	0.349943	-0.116366
H425	H	-0.322563	0.325395	-0.078357
H426	H	-0.345700	0.302045	-0.055142
H427	H	-0.392655	0.326605	-0.093152
H428	H	-0.373675	0.346341	-0.066916
H429	H	-0.370892	0.301275	-0.184323
H430	H	0.182059	-0.115906	-0.114213
C431	C	-0.622158	0.295587	-0.392924
C432	C	-0.657310	0.292740	-0.416503
C433	C	-0.675209	0.291308	-0.397117
H434	H	-0.600040	0.273924	-0.370209
H435	H	-0.632581	0.318216	-0.386499
H436	H	-0.646885	0.270113	-0.422922
H437	H	-0.679436	0.314400	-0.439218
H438	H	-0.685633	0.313937	-0.390692
H439	H	-0.653088	0.269645	-0.374403
H440	H	-0.699064	0.289379	-0.413113
H441	H	-0.267897	-0.186572	-0.184305
C442	C	0.377945	-0.206142	0.108841
C443	C	0.381447	-0.206198	0.078005
C444	C	0.363670	-0.168949	0.058697
H445	H	0.347715	-0.189797	0.099596
H446	H	0.393750	-0.197185	0.125907
H447	H	0.365642	-0.215150	0.060942
H448	H	0.411673	-0.222535	0.087240
H449	H	0.379474	-0.159991	0.075763
H450	H	0.333440	-0.152606	0.049455
H451	H	0.366047	-0.168982	0.037775
H452	H	-0.437704	-0.306410	-0.028878
H453	H	0.002293	-0.408830	0.308704
H454	H	-0.230346	-0.318966	-0.013835
C455	C	-0.215350	0.173442	-0.511226
C456	C	-0.226685	0.148295	-0.524458
C457	C	-0.265401	0.167603	-0.561746
H458	H	-0.238656	0.194388	-0.511263
H459	H	-0.210613	0.182645	-0.527511
H460	H	-0.231424	0.139097	-0.508177
H461	H	-0.203389	0.127349	-0.524431
H462	H	-0.260665	0.176807	-0.578031
H463	H	-0.288705	0.188549	-0.561779
H464	H	-0.273095	0.150544	-0.570729
H465	H	-0.552629	0.098160	-0.469035
C466	C	-0.262974	-0.528580	-0.019487
C467	C	-0.224617	-0.553834	-0.017582
C468	C	-0.206509	-0.534649	-0.018996
H469	H	-0.283832	-0.507638	-0.042756
H470	H	-0.255843	-0.519382	0.001537
H471	H	-0.231749	-0.563025	-0.038604
H472	H	-0.203748	-0.574776	0.005685
H473	H	-0.199378	-0.525452	0.002028
H474	H	-0.227371	-0.513708	-0.042264
H475	H	-0.180480	-0.551782	-0.017700
C476	C	-0.054283	-0.191873	0.019450
C477	C	-0.043071	-0.228333	0.017568
C478	C	-0.004333	-0.247874	0.019032
H479	H	-0.058934	-0.178012	-0.001557
H480	H	-0.030955	-0.194263	0.042733
H481	H	-0.066393	-0.225942	-0.005712
H482	H	-0.038411	-0.242205	0.038574
H483	H	0.018995	-0.250264	0.042316
H484	H	-0.008988	-0.234010	-0.001976
H485	H	0.003282	-0.272615	0.017759
C486	C	-0.215562	-0.206389	0.108587
C487	C	-0.229843	-0.194946	0.070617
C488	C	-0.268564	-0.157662	0.051162
H489	H	-0.237874	-0.205745	0.108985
H490	H	-0.209825	-0.189501	0.120745
H491	H	-0.235583	-0.211830	0.058461
H492	H	-0.207543	-0.195581	0.070207
H493	H	-0.262826	-0.140774	0.063321
H494	H	-0.290872	-0.157022	0.051563
H495	H	-0.278256	-0.149892	0.025399
C496	C	0.112486	0.262854	0.356089
C497	C	0.067947	0.293851	0.332132
C498	C	0.050028	0.292463	0.294829
H499	H	0.128232	0.264152	0.347085
H500	H	0.114793	0.239588	0.356040
H501	H	0.065643	0.317112	0.332180
H502	H	0.052190	0.292560	0.341124
H503	H	0.052335	0.269197	0.294780
H504	H	0.065777	0.293760	0.285829
H505	H	0.019805	0.313492	0.278570
C506	C	-0.097804	-0.228967	0.013403
C507	C	-0.124330	-0.240410	0.010565
C508	C	-0.106502	-0.277694	0.009128
H509	H	-0.096763	-0.229610	-0.008266
H510	H	-0.068756	-0.245856	0.036027
H511	H	-0.153370	-0.223526	-0.012057
H512	H	-0.125373	-0.239776	0.032232
H513	H	-0.077454	-0.294583	0.031753
H514	H	-0.105462	-0.278334	-0.012541
H515	H	-0.124495	-0.285465	0.007207
H516	H	-0.437930	-0.026285	-0.308746
H517	H	0.002524	-0.026519	0.028802
C518	C	0.112043	-0.527998	0.355625
C519	C	0.067500	-0.514458	0.331721
C520	C	0.049488	-0.495054	0.294421
H521	H	0.114333	-0.507032	0.355600
H522	H	0.127748	-0.544992	0.346560
H523	H	0.051800	-0.497465	0.340784
H524	H	0.065197	-0.535416	0.331735
H525	H	0.065193	-0.512048	0.285355
H526	H	0.051781	-0.474090	0.294399
H527	H	0.019265	-0.485868	0.278196
H528	H	-0.437709	-0.409066	-0.028885
H529	H	0.181841	-0.603391	0.398082
C530	C	-0.381151	-0.073754	-0.189368
C531	C	-0.415430	-0.073805	-0.220216
C532	C	-0.454200	-0.036550	-0.239547
H533	H	-0.388877	-0.064770	-0.172330
H534	H	-0.376473	-0.057432	-0.198599
H535	H	-0.420109	-0.090122	-0.210985
H536	H	-0.407719	-0.082783	-0.237263
H537	H	-0.449521	-0.020228	-0.248778
H538	H	-0.461922	-0.027568	-0.222507
H539	H	-0.477462	-0.036579	-0.260482
H540	H	-0.205048	-0.216515	0.398819
H541	H	-0.167269	0.098131	-0.468782
H542	H	-0.333296	-0.216247	-0.013853
H543	H	0.117212	-0.083598	-0.184336
H544	H	0.117214	-0.083584	0.019042
C545	C	-0.215897	-0.110671	-0.511692
C546	C	-0.250167	-0.107246	-0.511630
C547	C	-0.288943	-0.087812	-0.548883
H548	H	-0.223629	-0.085907	-0.520681
H549	H	-0.211223	-0.124582	-0.528016
H550	H	-0.254841	-0.093335	-0.495312
H551	H	-0.242449	-0.132005	-0.502648
H552	H	-0.284269	-0.101722	-0.565206
H553	H	-0.296671	-0.063048	-0.557869
H554	H	-0.312199	-0.085488	-0.548846
H555	H	-0.064821	0.263164	0.184001
C556	C	0.557149	-0.414174	0.303592
C557	C	0.587851	-0.446925	0.301713
C558	C	0.568681	-0.465689	0.282984
H559	H	0.548596	-0.421371	0.317335
H560	H	0.531873	-0.397490	0.278413
H561	H	0.613118	-0.463606	0.326888
H562	H	0.596406	-0.439740	0.287967
H563	H	0.543405	-0.449004	0.257805
H564	H	0.560129	-0.472882	0.296729
H565	H	0.589508	-0.487910	0.281704
C566	C	-0.548093	0.093186	-0.356216
C567	C	-0.580842	0.093978	-0.355508
C568	C	-0.563121	0.074751	-0.318249
H569	H	-0.524242	0.067379	-0.348264
H570	H	-0.537714	0.105418	-0.339376
H571	H	-0.591215	0.081746	-0.372342
H572	H	-0.604696	0.119780	-0.363453
H573	H	-0.552742	0.086983	-0.301409
H574	H	-0.539270	0.048946	-0.310300
H575	H	-0.585340	0.075289	-0.317763
C576	C	-0.263114	0.301634	-0.189395
C577	C	-0.289537	0.304469	-0.227390
C578	C	-0.271585	0.305898	-0.246725
H579	H	-0.262068	0.323300	-0.188948
H580	H	-0.234058	0.279007	-0.177187
H581	H	-0.318585	0.327092	-0.239595
H582	H	-0.290585	0.282805	-0.227848
H583	H	-0.242529	0.283272	-0.234517
H584	H	-0.270540	0.327564	-0.246275
H585	H	-0.289508	0.307818	-0.272506
C586	C	0.187141	-0.228983	-0.108780
C587	C	0.202481	-0.253769	-0.126807
C588	C	0.220411	-0.291071	-0.107489
H589	H	0.211006	-0.236861	-0.083001
H590	H	0.165028	-0.229595	-0.109234
H591	H	0.224592	-0.253158	-0.126349
H592	H	0.178624	-0.245903	-0.152584
H593	H	0.198297	-0.291683	-0.107943
H594	H	0.244274	-0.298945	-0.081711
H595	H	0.230817	-0.307892	-0.119719
C596	C	-0.053798	0.092708	-0.355735
C597	C	-0.042449	0.117848	-0.342511
C598	C	-0.003705	0.098529	-0.305239
H599	H	-0.058494	0.083493	-0.339424
H600	H	-0.030514	0.071766	-0.355734
H601	H	-0.065727	0.138784	-0.342509
H602	H	-0.037744	0.127065	-0.358812
H603	H	0.019579	0.077586	-0.305239
H604	H	-0.008405	0.089314	-0.288932
H605	H	0.004002	0.115582	-0.296264
C606	C	-0.097856	-0.228967	-0.393683
C607	C	-0.124398	-0.240401	-0.417364
C608	C	-0.106598	-0.277668	-0.398083
H609	H	-0.068812	-0.245882	-0.387248
H610	H	-0.096828	-0.229573	-0.370976
H611	H	-0.125421	-0.239797	-0.440065
H612	H	-0.153443	-0.223496	-0.423801
H613	H	-0.105571	-0.278275	-0.375376
H614	H	-0.077554	-0.294580	-0.391649
H615	H	-0.124607	-0.285430	-0.414146
H616	H	0.667447	-0.603843	0.398798
H617	H	0.182060	-0.603623	0.501016
H618	H	-0.205307	-0.115910	0.013801
C619	C	0.619142	-0.528562	0.356123
C620	C	0.607943	-0.553816	0.343021
C621	C	0.569234	-0.534632	0.305730
H622	H	0.595791	-0.507620	0.356041
H623	H	0.623836	-0.519365	0.339794
H624	H	0.603247	-0.563007	0.359346
H625	H	0.631284	-0.574759	0.343095
H626	H	0.573928	-0.525435	0.289401
H627	H	0.545886	-0.513690	0.305651
H628	H	0.561633	-0.551765	0.296834
C629	C	-0.622415	0.295598	-0.511206
C630	C	-0.666962	0.326593	-0.535097
C631	C	-0.684994	0.325193	-0.572396
H632	H	-0.606738	0.296891	-0.520298
H633	H	-0.620111	0.272330	-0.511208
H634	H	-0.669263	0.349854	-0.535096
H635	H	-0.682650	0.325306	-0.526017
H636	H	-0.682690	0.301926	-0.572399
H637	H	-0.669314	0.326485	-0.581485
H638	H	-0.715222	0.346221	-0.588610
H639	H	0.447397	-0.351491	0.184007
C640	C	0.675118	-0.414188	0.421649
C641	C	0.687492	-0.451257	0.434210
C642	C	0.724913	-0.470040	0.472176
H643	H	0.698701	-0.415537	0.423156
H644	H	0.668522	-0.400436	0.437379
H645	H	0.694090	-0.465005	0.418484
H646	H	0.663919	-0.449919	0.432713
H647	H	0.718317	-0.456289	0.487906
H648	H	0.748493	-0.471387	0.473679
H649	H	0.733311	-0.495192	0.480704
H650	H	-0.333315	-0.603629	-0.013877
C651	C	-0.110496	-0.295852	0.303694
C652	C	-0.100654	-0.272776	0.324064
C653	C	-0.138056	-0.234802	0.305427
H654	H	-0.119008	-0.287209	0.278523
H655	H	-0.134033	-0.294389	0.302410
H656	H	-0.077125	-0.274237	0.325344
H657	H	-0.092147	-0.281407	0.349234
H658	H	-0.161592	-0.233339	0.304143
H659	H	-0.146565	-0.226162	0.280257
H660	H	-0.131384	-0.219141	0.319247
C661	C	0.186964	0.268848	0.511607
C662	C	0.222115	0.271694	0.523176
C663	C	0.240014	0.273135	0.560460
H664	H	0.164845	0.290515	0.512200
H665	H	0.197387	0.246223	0.528459
H666	H	0.211691	0.294317	0.506328
H667	H	0.244243	0.250031	0.522591
H668	H	0.250438	0.250510	0.577312
H669	H	0.217893	0.294802	0.561049
H670	H	0.263869	0.275063	0.568315
H671	H	0.666703	-0.216219	0.398058
H672	H	-0.205316	0.168042	0.013788
H673	H	-0.167470	-0.248829	0.366274
H674	H	0.382532	-0.318952	0.113884
C675	C	-0.324874	0.311125	-0.303751
C676	C	-0.312488	0.311289	-0.328442
C677	C	-0.275038	0.311792	-0.309793
H678	H	-0.331429	0.333439	-0.296585
H679	H	-0.301311	0.289035	-0.281520
H680	H	-0.336046	0.333377	-0.350666
H681	H	-0.305924	0.288978	-0.335610
H682	H	-0.251475	0.289701	-0.287562
H683	H	-0.281597	0.334105	-0.302627
H684	H	-0.266627	0.311899	-0.326541
C685	C	-0.054330	-0.191875	-0.356209
C686	C	-0.043130	-0.228327	-0.343105
C687	C	-0.004421	-0.247847	-0.305813
H688	H	-0.030979	-0.194284	-0.356127
H689	H	-0.059024	-0.177982	-0.339881
H690	H	-0.038433	-0.242217	-0.359429
H691	H	-0.066470	-0.225929	-0.343178
H692	H	-0.009115	-0.233954	-0.289485
H693	H	0.018926	-0.250253	-0.305735
H694	H	0.003181	-0.272580	-0.296916
C695	C	-0.172419	-0.243482	0.189202
C696	C	-0.210761	-0.207022	0.163954
C697	C	-0.228836	-0.187482	0.183152
H698	H	-0.179563	-0.257344	0.198413
H699	H	-0.151525	-0.241091	0.210139
H700	H	-0.231651	-0.209415	0.143024
H701	H	-0.203628	-0.193151	0.154741
H702	H	-0.207943	-0.185090	0.204089
H703	H	-0.235979	-0.201346	0.192363
H704	H	-0.254851	-0.162741	0.166026
C705	C	0.112575	-0.191830	-0.189269
C706	C	0.097304	-0.201279	-0.171168
C707	C	0.079488	-0.220770	-0.190361
H708	H	0.088694	-0.175918	-0.215066
H709	H	0.134735	-0.214559	-0.188764
H710	H	0.075146	-0.178554	-0.171676
H711	H	0.121178	-0.217195	-0.145373
H712	H	0.101649	-0.243500	-0.189856
H713	H	0.055609	-0.204856	-0.216157
H714	H	0.069129	-0.227188	-0.178080
C715	C	-0.443082	-0.021262	-0.421706
C716	C	-0.418559	-0.045944	-0.434263
C717	C	-0.437715	-0.027288	-0.472214
H718	H	-0.472561	-0.014097	-0.437463
H719	H	-0.443224	0.000971	-0.423173
H720	H	-0.418422	-0.068170	-0.432799
H721	H	-0.389080	-0.053110	-0.418516
H722	H	-0.437857	-0.005056	-0.473681
H723	H	-0.467194	-0.020124	-0.487968
H724	H	-0.421076	-0.044031	-0.480737
C725	C	-0.110293	0.253253	0.303666
C726	C	-0.122679	0.253081	0.328355
C727	C	-0.160101	0.252537	0.309715
H728	H	-0.133872	0.275325	0.281428
H729	H	-0.103694	0.230923	0.296519
H730	H	-0.129280	0.275409	0.335497
H731	H	-0.099111	0.231010	0.350594
H732	H	-0.153502	0.230207	0.302567
H733	H	-0.183677	0.274610	0.287477
H734	H	-0.168507	0.252417	0.326465
C735	C	0.557129	-0.296080	0.303669
C736	C	0.581640	-0.283516	0.328358
C737	C	0.562448	-0.245549	0.309718
H738	H	0.556961	-0.294571	0.281430
H739	H	0.527652	-0.280355	0.296523
H740	H	0.611110	-0.299237	0.335498
H741	H	0.581810	-0.285016	0.350597
H742	H	0.532971	-0.229823	0.302572
H743	H	0.562281	-0.244044	0.287480
H744	H	0.579073	-0.237018	0.326468
H745	H	-0.230091	-0.219108	-0.114185
C746	C	-0.442912	0.311198	-0.303652
C747	C	-0.455465	0.344122	-0.293134
C748	C	-0.474685	0.344706	-0.274376
H749	H	-0.468214	0.311328	-0.320312
H750	H	-0.422126	0.289130	-0.281395
H751	H	-0.476250	0.366184	-0.315387
H752	H	-0.430171	0.343998	-0.276469
H753	H	-0.453900	0.322638	-0.252120
H754	H	-0.499986	0.344835	-0.291039
H755	H	-0.483202	0.367042	-0.267235
H756	H	0.002500	-0.026531	-0.308780
H757	H	-0.102618	0.168275	0.013770
C758	C	-0.054315	0.092993	0.019399
C759	C	-0.043118	0.118248	0.017491
C760	C	-0.004413	0.099063	0.018903
H761	H	-0.030961	0.072052	0.042667
H762	H	-0.059013	0.083795	-0.001625
H763	H	-0.038418	0.127440	0.038513
H764	H	-0.066461	0.139190	-0.005776
H765	H	-0.009111	0.089866	-0.002120
H766	H	0.018937	0.078122	0.042172
H767	H	0.003186	0.116196	0.017606
C768	C	-0.547544	-0.243499	-0.019476
C769	C	-0.532204	-0.234045	0.013886
C770	C	-0.514289	-0.214663	0.012486
H771	H	-0.523681	-0.259480	-0.021393
H772	H	-0.569665	-0.220776	-0.041139
H773	H	-0.510085	-0.256764	0.035543
H774	H	-0.556059	-0.218060	0.015810
H775	H	-0.536409	-0.191941	-0.009176
H776	H	-0.490427	-0.230647	0.010568
H777	H	-0.503882	-0.208243	0.035120
H778	H	0.002298	-0.408829	0.411365
C779	C	0.186853	-0.110561	0.013400
C780	C	0.163496	-0.074106	0.015295
C781	C	0.181255	-0.054578	0.013866
H782	H	0.217069	-0.124435	0.034415
H783	H	0.184519	-0.108164	-0.009877
H784	H	0.165834	-0.076505	0.038569
H785	H	0.133281	-0.060222	-0.005718
H786	H	0.178921	-0.052181	-0.009411
H787	H	0.211471	-0.068455	0.034882
H788	H	0.165408	-0.029840	0.015148
H789	H	0.182293	-0.218837	0.013775
H790	H	-0.230097	-0.219111	-0.398135
C791	C	-0.547813	0.301576	-0.474093
C792	C	-0.571161	0.299665	-0.510543
C793	C	-0.553393	0.301079	-0.530067
H794	H	-0.550143	0.324846	-0.476506
H795	H	-0.517592	0.280555	-0.460199
H796	H	-0.601375	0.320685	-0.524434
H797	H	-0.568834	0.276397	-0.508142
H798	H	-0.523171	0.280058	-0.516173
H799	H	-0.555723	0.324349	-0.532477
H800	H	-0.569229	0.299779	-0.554799
H801	H	-0.230362	0.296001	-0.113978
H802	H	0.117435	-0.186523	0.019040
C803	C	-0.381409	0.301633	-0.474372
C804	C	-0.392757	0.299752	-0.510860
C805	C	-0.431500	0.301221	-0.530280
H806	H	-0.376711	0.280628	-0.460457
H807	H	-0.404693	0.324917	-0.476716
H808	H	-0.369478	0.276471	-0.508515
H809	H	-0.397464	0.320756	-0.524786
H810	H	-0.454784	0.324505	-0.532624
H811	H	-0.426798	0.280215	-0.516361
H812	H	-0.439207	0.299949	-0.555040
H813	H	-0.335269	-0.128941	-0.308748
H814	H	-0.332799	-0.116397	-0.501067
H815	H	-0.370607	-0.083853	-0.468752
H816	H	-0.617704	0.168507	-0.398859
H817	H	-0.332793	-0.116391	-0.113952
C818	C	-0.622171	-0.206094	-0.013553
C819	C	-0.666705	-0.182128	-0.044562
C820	C	-0.684602	-0.144819	-0.043195
H821	H	-0.619883	-0.206009	0.009699
H822	H	-0.606394	-0.197123	-0.014851
H823	H	-0.682478	-0.191096	-0.043261
H824	H	-0.669006	-0.182202	-0.067820
H825	H	-0.668825	-0.135848	-0.044493
H826	H	-0.682311	-0.144738	-0.019941
H827	H	-0.714819	-0.128553	-0.064236
C828	C	-0.622395	-0.324149	-0.013448
C829	C	-0.657510	-0.300466	-0.010589
C830	C	-0.675499	-0.319745	-0.009109
H831	H	-0.632875	-0.330585	-0.036057
H832	H	-0.600296	-0.346855	0.008232
H833	H	-0.679605	-0.277767	-0.032267
H834	H	-0.647041	-0.294029	0.012020
H835	H	-0.653401	-0.342452	0.012571
H836	H	-0.685977	-0.326181	-0.031719
H837	H	-0.699324	-0.303681	-0.007166
C838	C	-0.338222	0.295638	-0.511741
C839	C	-0.348664	0.326644	-0.535709
C840	C	-0.366710	0.325273	-0.573018
H841	H	-0.317342	0.272385	-0.511824
H842	H	-0.364268	0.296935	-0.520710
H843	H	-0.322622	0.325343	-0.526742
H844	H	-0.369549	0.349902	-0.535638
H845	H	-0.392756	0.326571	-0.581988
H846	H	-0.345827	0.302019	-0.573097
H847	H	-0.373801	0.346312	-0.589286
H848	H	-0.064523	-0.351759	0.184259
H849	H	0.769653	-0.318930	0.500992
C850	C	-0.324902	-0.414077	-0.029050
C851	C	-0.312519	-0.389387	-0.029230
C852	C	-0.275106	-0.408024	-0.029787
H853	H	-0.301318	-0.436316	-0.006980
H854	H	-0.331511	-0.421222	-0.051383
H855	H	-0.305907	-0.382248	-0.006900
H856	H	-0.336092	-0.367148	-0.051299
H857	H	-0.281716	-0.415169	-0.052120
H858	H	-0.251526	-0.430263	-0.007716
H859	H	-0.266702	-0.391274	-0.029913
C860	C	0.452427	-0.243464	0.189426
C861	C	0.429180	-0.206984	0.164280
C862	C	0.447064	-0.187579	0.183591
H863	H	0.450104	-0.241102	0.210373
H864	H	0.482653	-0.257406	0.198631
H865	H	0.398961	-0.193045	0.155081
H866	H	0.431501	-0.209335	0.143334
H867	H	0.477290	-0.201521	0.192795
H868	H	0.444739	-0.185220	0.204536
H869	H	0.431296	-0.162827	0.166531
C870	C	-0.381377	-0.243481	-0.019489
C871	C	-0.392710	-0.207002	-0.017587
C872	C	-0.431421	-0.187600	-0.019008
H873	H	-0.404687	-0.241118	-0.042759
H874	H	-0.376635	-0.257426	0.001533
H875	H	-0.397454	-0.193060	-0.038607
H876	H	-0.369411	-0.209353	0.005682
H877	H	-0.426680	-0.201545	0.002014
H878	H	-0.454728	-0.185240	-0.042279
H879	H	-0.439113	-0.162848	-0.017714
C880	C	-0.215796	0.268729	0.108855
C881	C	-0.208748	0.237726	0.095320
C882	C	-0.247433	0.239104	0.076023
H883	H	-0.223498	0.267430	0.125902
H884	H	-0.239116	0.291992	0.087893
H885	H	-0.185435	0.214469	0.116280
H886	H	-0.201052	0.239018	0.078268
H887	H	-0.270753	0.262367	0.055060
H888	H	-0.255132	0.237806	0.093072
H889	H	-0.242657	0.218071	0.066834
C890	C	-0.097275	-0.324659	0.511654
C891	C	-0.123699	-0.301077	0.523227
C892	C	-0.105748	-0.320463	0.560512
H893	H	-0.096229	-0.347371	0.512249
H894	H	-0.068219	-0.331087	0.528505
H895	H	-0.152747	-0.294655	0.506381
H896	H	-0.124748	-0.278365	0.522642
H897	H	-0.076693	-0.326891	0.577362
H898	H	-0.104703	-0.343174	0.561103
H899	H	-0.123672	-0.304464	0.568370
H900	H	-0.552621	-0.351498	-0.019128
H901	H	-0.370892	-0.533512	-0.019136
C902	C	0.007804	-0.139504	-0.303637
C903	C	0.045056	-0.152064	-0.266564
C904	C	0.064384	-0.190030	-0.247783
H905	H	-0.012927	-0.141010	-0.302293
H906	H	0.016382	-0.155232	-0.317387
H907	H	0.036477	-0.136340	-0.252817
H908	H	0.065796	-0.150567	-0.267896
H909	H	0.072963	-0.205759	-0.261534
H910	H	0.043651	-0.191533	-0.246442
H911	H	0.089664	-0.198558	-0.222629
C912	C	0.112410	-0.528340	0.474039
C913	C	0.135761	-0.553593	0.510491
C914	C	0.117996	-0.534406	0.530016
H915	H	0.114740	-0.507399	0.476448
H916	H	0.082189	-0.519140	0.460148
H917	H	0.165975	-0.562786	0.524379
H918	H	0.133433	-0.574534	0.508093
H919	H	0.087775	-0.525207	0.516125
H920	H	0.120326	-0.513466	0.532423
H921	H	0.133834	-0.551538	0.554749
H922	H	-0.230365	-0.603862	-0.013858
H923	H	-0.267931	-0.351506	-0.019101
C924	C	-0.097141	-0.324781	0.108978
C925	C	-0.058782	-0.361232	0.134232
C926	C	-0.040674	-0.380753	0.115048
H927	H	-0.117999	-0.327193	0.088035
H928	H	-0.090011	-0.310888	0.099780
H929	H	-0.065913	-0.375122	0.143424
H930	H	-0.037914	-0.358831	0.155175
H931	H	-0.033545	-0.366860	0.105851
H932	H	-0.061535	-0.383162	0.094106
H933	H	-0.014644	-0.405486	0.132181
H934	H	-0.267945	0.301232	-0.366341
H935	H	-0.064526	-0.351765	0.468991
C936	C	-0.110341	-0.021386	-0.421731
C937	C	-0.122741	0.015694	-0.434288
C938	C	-0.160200	0.034490	-0.472237
H939	H	-0.103790	-0.035107	-0.437492
H940	H	-0.133895	-0.020063	-0.423194
H941	H	-0.099192	0.014369	-0.432829
H942	H	-0.129301	0.029424	-0.418538
H943	H	-0.183754	0.035814	-0.473699
H944	H	-0.153645	0.020767	-0.487994
H945	H	-0.168621	0.059652	-0.480760
H946	H	0.629125	-0.248761	0.365741
C947	C	0.737044	-0.361605	0.474014
C948	C	0.775402	-0.374706	0.510466
C949	C	0.793509	-0.411998	0.529989
H950	H	0.716185	-0.361688	0.476425
H951	H	0.744174	-0.377933	0.460122
H952	H	0.768271	-0.358382	0.524356
H953	H	0.796270	-0.374633	0.508067
H954	H	0.800639	-0.428326	0.516096
H955	H	0.772648	-0.412077	0.532397
H956	H	0.819539	-0.420893	0.554722
H957	H	0.732353	-0.533492	0.468971
C958	C	-0.172359	0.262803	0.189534
C959	C	-0.182702	0.293804	0.203078
C960	C	-0.200573	0.292412	0.222508
H961	H	-0.198421	0.264094	0.172565
H962	H	-0.151399	0.239539	0.210500
H963	H	-0.203661	0.317062	0.182114
H964	H	-0.156647	0.292519	0.220052
H965	H	-0.179612	0.269148	0.243474
H966	H	-0.226633	0.293703	0.205537
H967	H	-0.207588	0.313443	0.231703
H968	H	-0.102624	0.268416	0.113879
C969	C	-0.215874	0.268894	0.392808
C970	C	-0.250148	0.303226	0.389378
C971	C	-0.288921	0.304743	0.369943
H972	H	-0.223604	0.267633	0.368044
H973	H	-0.211197	0.247896	0.406721
H974	H	-0.254825	0.324217	0.375465
H975	H	-0.242432	0.304494	0.414136
H976	H	-0.284244	0.283746	0.383856
H977	H	-0.296646	0.303481	0.345180
H978	H	-0.312179	0.328035	0.367616
C979	C	0.007682	0.253256	0.303533
C980	C	-0.016828	0.253073	0.266461
C981	C	0.002354	0.252529	0.247678
H982	H	0.007842	0.275331	0.302187
H983	H	0.037162	0.230929	0.317283
H984	H	-0.046301	0.275397	0.252713
H985	H	-0.016990	0.230999	0.267795
H986	H	0.031835	0.230202	0.261429
H987	H	0.002513	0.274605	0.246336
H988	H	-0.014271	0.252401	0.222524
H989	H	0.002512	0.253428	0.411332
C990	C	-0.172428	0.262757	0.355634
C991	C	-0.210790	0.264628	0.342412
C992	C	-0.228737	0.263148	0.305143
H993	H	-0.179525	0.283762	0.339320
H994	H	-0.151484	0.239473	0.355638
H995	H	-0.231731	0.287910	0.342405
H996	H	-0.203706	0.243625	0.358716
H997	H	-0.207792	0.239863	0.305147
H998	H	-0.235831	0.284153	0.288832
H999	H	-0.254765	0.264414	0.296168
H1000	H	-0.102623	0.268466	0.500992
H1001	H	-0.064816	0.263199	0.468675
C1002	C	0.112406	0.262785	0.474269
C1003	C	0.135669	0.264665	0.510757
C1004	C	0.117823	0.263192	0.530180
H1005	H	0.082182	0.283789	0.460356
H1006	H	0.114752	0.239500	0.476614
H1007	H	0.133319	0.287948	0.508410
H1008	H	0.165893	0.243663	0.524680
H1009	H	0.120168	0.239907	0.532525
H1010	H	0.087599	0.284197	0.516264
H1011	H	0.133607	0.264465	0.554940
