data_functionalizedCrystal
_audit_creation_method	'MofGen! by Chris Wilmer'
_symmetry_space_group_name_H-M	'P1'
_symmetry_Int_Tables_number	1
_symmetry_cell_setting	triclinic
loop_
_symmetry_equiv_pos_as_xyz
  x,y,z
_cell_length_a	19.851628
_cell_length_b	14.809374
_cell_length_c	14.809384
_cell_angle_alpha	119.201816
_cell_angle_beta	89.995441
_cell_angle_gamma	67.424787
loop_
_atom_site_label
_atom_site_type_symbol
_atom_site_fract_x
_atom_site_fract_y
_atom_site_fract_z
Zr1	Zr	0.744091	0.955108	0.203553
O2	O	0.661570	1.113038	0.350725
O3	O	0.757706	0.777340	0.145474
O4	O	0.785261	0.926483	0.332009
O5	O	0.625568	0.993393	0.031794
O6	O	0.896121	0.926469	0.331991
O7	O	0.634015	0.963895	0.164190
O8	O	0.846829	0.659680	-0.001686
O9	O	0.674860	1.260182	0.365471
O10	O	0.860360	0.857796	0.136352
O11	O	0.771323	0.879820	0.037560
O12	O	0.803766	1.055416	0.257180
O13	O	0.714730	1.077440	0.158388
Zr14	Zr	0.907427	1.002131	-0.007632
Zr15	Zr	0.920899	0.955086	0.203525
Zr16	Zr	0.730620	1.002153	-0.007604
Zr17	Zr	0.765287	1.189786	0.227071
Zr18	Zr	0.886232	0.767453	-0.031150
O19	O	0.893813	1.179899	0.050447
O20	O	0.912968	1.113007	0.350684
O21	O	0.642415	1.179930	0.050487
O22	O	0.989948	0.844201	-0.154804
O23	O	1.009103	0.777309	0.145434
O24	O	0.738551	0.844232	-0.154764
O25	O	1.025951	0.963847	0.164127
O26	O	0.866257	1.030756	-0.136088
O27	O	0.755398	1.030770	-0.136070
O28	O	1.017504	0.993344	0.031731
O29	O	0.815398	1.260165	0.365448
O30	O	0.836120	0.697074	-0.169527
O31	O	0.976659	0.697057	-0.169550
O32	O	0.987367	0.659662	-0.001708
O33	O	0.664152	1.297577	0.197629
O34	O	0.804690	1.297560	0.197606
O35	O	0.847752	0.901823	-0.061260
O36	O	0.936789	0.879799	0.037533
O37	O	0.880196	1.077420	0.158361
O38	O	0.791159	1.099444	0.059569
C39	C	0.799247	0.685073	0.068543
C40	C	0.790249	0.585446	0.058560
C41	C	0.830406	0.530104	0.103116
C42	C	0.821107	0.427134	0.092798
C43	C	0.604600	0.978647	0.097996
C44	C	0.529541	0.978656	0.098008
C45	C	0.317334	1.086387	0.163853
C46	C	0.292057	1.017827	0.196894
C47	C	0.392129	0.978630	0.097976
C48	C	0.283667	1.047194	0.064954
C49	C	0.259393	0.978613	0.097947
C50	C	0.367844	0.910057	0.131072
C51	C	0.359451	0.939453	-0.000918
C52	C	0.334217	0.870810	0.032091
C53	C	0.468594	0.978642	0.097996
C54	C	0.182933	0.978591	0.097929
C55	C	1.046919	0.978592	0.097925
C56	C	1.121978	0.978583	0.097913
C57	C	0.842610	0.919773	0.362085
C58	C	0.848330	0.899801	0.451727
C59	C	0.852271	1.272166	0.127377
C60	C	0.861269	1.371793	0.137361
C61	C	0.822805	0.988931	0.551631
C62	C	0.828715	0.968291	0.644281
C63	C	0.808908	1.037465	0.833835
C64	C	0.803187	1.057432	0.744190
C65	C	1.020407	0.685046	0.068508
C66	C	1.086468	0.585410	0.058512
C67	C	0.782396	0.743920	-0.195581
C68	C	0.767679	0.664265	-0.295207
C69	C	1.003556	0.743892	-0.195617
C70	C	1.063898	0.664228	-0.295255
C71	C	0.647963	1.213347	0.391538
C72	C	0.587621	1.293011	0.491175
C73	C	0.631112	1.272193	0.127413
C74	C	0.565051	1.371830	0.137409
C75	C	0.869123	1.213320	0.391502
C76	C	0.883840	1.292975	0.491128
C77	C	1.077597	0.527132	0.105409
C78	C	1.139664	0.433522	0.096038
C79	C	1.210602	0.398186	0.039763
C80	C	1.219472	0.456473	-0.007135
C81	C	1.157406	0.550087	0.002243
C82	C	0.800663	0.638345	-0.393583
C83	C	0.786832	0.563516	-0.487199
C84	C	0.740022	0.514600	-0.482436
C85	C	0.707035	0.540527	-0.384049
C86	C	0.720861	0.615361	-0.290435
C87	C	1.138719	0.615320	-0.290477
C88	C	1.195426	0.540479	-0.384087
C89	C	1.177309	0.514539	-0.482475
C90	C	1.102481	0.563456	-0.487250
C91	C	1.045776	0.638302	-0.393640
C92	C	0.512801	1.341930	0.486399
C93	C	0.456097	1.416801	0.580012
C94	C	0.474214	1.442745	0.678401
C95	C	0.549042	1.393823	0.683175
C96	C	0.605745	1.318960	0.589563
C97	C	0.573924	1.430115	0.090521
C98	C	0.511860	1.523746	0.099918
C99	C	0.440923	1.559085	0.156197
C100	C	0.432052	1.500794	0.203090
C101	C	0.494116	1.407170	0.193699
C102	C	0.930653	1.341868	0.486330
C103	C	0.944496	1.416701	0.579930
C104	C	0.911520	1.442647	0.678326
C105	C	0.864704	1.393746	0.683120
C106	C	0.850866	1.318907	0.589522
H107	H	0.902539	0.400635	0.183145
F108	F	0.850487	0.690389	-0.398677
F109	F	0.376464	1.468852	0.574908
F110	F	0.484660	1.345141	0.243601
H111	H	0.748987	0.556593	0.012772
F112	F	0.253852	1.061109	0.306191
F113	F	0.657217	0.488457	-0.378996
F114	F	0.685755	0.642932	-0.185739
F115	F	0.821948	0.535935	-0.591899
H116	H	0.390393	1.635321	0.163836
H117	H	0.796581	1.080517	0.568570
H118	H	0.631678	1.401353	0.044687
F119	F	0.308979	1.205456	0.236749
F120	F	1.083211	0.535838	-0.591972
H121	H	0.563785	1.414957	0.763294
F122	F	0.415200	0.834333	0.167711
H123	H	0.854948	0.876697	0.627334
H124	H	1.153484	0.636427	-0.210373
F125	F	0.926253	1.522303	0.777935
H126	H	1.164639	0.597527	-0.035954
F127	F	1.275058	0.488426	-0.378983
F128	F	0.236178	1.122988	0.028464
F129	F	0.768908	1.177154	0.766348
F130	F	0.356549	1.538415	0.262981
H131	H	0.728770	0.453667	-0.558670
F132	F	1.237667	0.434877	-0.582096
F133	F	0.342718	0.751636	-0.040685
F134	F	0.884344	0.567807	0.162959
F135	F	0.882617	0.780087	0.429579
H136	H	0.837858	1.414883	0.763247
H137	H	0.984854	0.678114	-0.397545
F138	F	0.685373	1.266896	0.594663
F139	F	1.002106	0.564723	0.165310
F140	F	0.493502	1.314331	0.381695
F141	F	0.413857	1.522423	0.778023
H142	H	0.812744	1.279106	0.593443
F143	F	0.521316	1.585765	0.050000
H144	H	0.982615	1.456511	0.576005
H145	H	0.779842	0.398285	0.047008
H146	H	1.132427	0.386074	0.134229
F147	F	0.397659	0.896221	-0.110189
F148	F	1.276651	0.298550	0.029789
F149	F	1.294975	0.418850	-0.067028
F150	F	0.965757	1.314269	0.381619
