data_functionalizedCrystal
_audit_creation_method	'MofGen! by Chris Wilmer'
_symmetry_space_group_name_H-M	'P1'
_symmetry_Int_Tables_number	1
_symmetry_cell_setting	triclinic
loop_
_symmetry_equiv_pos_as_xyz
  x,y,z
_cell_length_a	19.288864
_cell_length_b	17.699092
_cell_length_c	18.366186
_cell_angle_alpha	90.002797
_cell_angle_beta	90.019370
_cell_angle_gamma	83.211307
loop_
_atom_site_label
_atom_site_type_symbol
_atom_site_fract_x
_atom_site_fract_y
_atom_site_fract_z
O1	O	0.921464	0.094415	0.060780
O2	O	1.254797	0.427749	0.394114
O3	O	1.588130	0.761082	0.727447
O4	O	0.719218	0.107152	0.060730
O5	O	1.052552	0.440485	0.394064
O6	O	1.385885	0.773819	0.727397
O7	O	0.826052	-0.009413	0.060755
O8	O	1.159385	0.323920	0.394088
O9	O	1.492719	0.657254	0.727422
O10	O	0.814630	0.210980	0.060756
O11	O	1.147963	0.544314	0.394089
O12	O	1.481297	0.877647	0.727422
O13	O	0.826041	-0.009416	-0.060344
O14	O	1.159374	0.323917	0.272989
O15	O	1.492707	0.657251	0.606322
O16	O	0.719207	0.107149	-0.060369
O17	O	1.052540	0.440483	0.272964
O18	O	1.385874	0.773816	0.606298
O19	O	0.921452	0.094413	-0.060319
O20	O	1.254786	0.427746	0.273014
O21	O	1.588119	0.761079	0.606348
Zn22	Zn	0.820328	0.100781	-0.079571
Zn23	Zn	1.153661	0.434114	0.253762
Zn24	Zn	1.486995	0.767447	0.587096
Zn25	Zn	0.820343	0.100784	0.079983
Zn26	Zn	1.153676	0.434117	0.413316
Zn27	Zn	1.487010	0.767451	0.746649
O28	O	0.814619	0.210978	-0.060344
O29	O	1.147952	0.544311	0.272990
O30	O	1.481285	0.877644	0.606323
C31	C	0.693336	0.106741	0.000174
C32	C	1.026669	0.440074	0.333508
C33	C	1.360003	0.773407	0.666841
C34	C	0.616231	0.105511	0.000155
C35	C	0.949564	0.438844	0.333489
C36	C	1.282897	0.772177	0.666822
C37	C	0.825636	-0.037611	0.000206
C38	C	1.158969	0.295723	0.333540
C39	C	1.492303	0.629056	0.666873
C40	C	0.824405	-0.121627	0.000210
C41	C	1.157739	0.211707	0.333543
C42	C	1.491072	0.545040	0.666876
C43	C	0.571617	0.173906	0.000167
C44	C	0.904951	0.507239	0.333500
C45	C	1.238284	0.840572	0.666833
C46	C	0.499169	0.172750	0.000175
C47	C	0.832502	0.506083	0.333508
C48	C	1.165835	0.839417	0.666842
C49	C	0.471337	0.103195	0.000186
C50	C	0.804670	0.436528	0.333519
C51	C	1.138004	0.769862	0.666853
C52	C	0.515960	0.034791	0.000170
C53	C	0.849294	0.368124	0.333504
C54	C	1.182627	0.701458	0.666837
C55	C	0.588407	0.035949	0.000155
C56	C	0.921741	0.369282	0.333488
C57	C	1.255074	0.702615	0.666821
C58	C	0.363013	0.048518	0.042637
C59	C	0.696346	0.381852	0.375970
C60	C	1.029680	0.715185	0.709303
C61	C	0.290567	0.047363	0.042657
C62	C	0.623900	0.380697	0.375990
C63	C	0.957234	0.714030	0.709323
C64	C	0.247887	0.099621	0.000230
C65	C	0.581220	0.432955	0.333563
C66	C	0.914554	0.766288	0.666897
C67	C	0.277661	0.153047	-0.042207
C68	C	0.610994	0.486381	0.291126
C69	C	0.944327	0.819714	0.624460
C70	C	0.350107	0.154205	-0.042222
C71	C	0.683441	0.487538	0.291111
C72	C	1.016774	0.820872	0.624444
C73	C	0.392782	0.101932	0.000202
C74	C	0.726115	0.435265	0.333535
C75	C	1.059448	0.768599	0.666869
C76	C	0.124716	0.166768	0.000249
C77	C	0.458050	0.500101	0.333583
C78	C	0.791383	0.833435	0.666916
C79	C	0.052267	0.165609	0.000253
C80	C	0.385600	0.498943	0.333586
C81	C	0.718933	0.832276	0.666919
C82	C	0.069060	0.027649	0.000255
C83	C	0.402393	0.360982	0.333589
C84	C	0.735727	0.694315	0.666922
C85	C	0.141508	0.028809	0.000245
C86	C	0.474841	0.362143	0.333578
C87	C	0.808174	0.695476	0.666911
C88	C	0.169331	0.098371	0.000245
C89	C	0.502665	0.431704	0.333578
C90	C	0.835998	0.765038	0.666912
C91	C	0.823835	-0.161092	0.066221
C92	C	1.157168	0.172241	0.399555
C93	C	1.490502	0.505575	0.732888
C94	C	0.822674	-0.240033	0.066222
C95	C	1.156007	0.093300	0.399555
C96	C	1.489341	0.426633	0.732889
C97	C	0.822089	-0.279509	0.000210
C98	C	1.155422	0.053825	0.333543
C99	C	1.488755	0.387158	0.666877
C100	C	0.822657	-0.240038	-0.065807
C101	C	1.155990	0.093296	0.267526
C102	C	1.489324	0.426629	0.600860
C103	C	0.823813	-0.161097	-0.065807
C104	C	1.157146	0.172236	0.267526
C105	C	1.490480	0.505569	0.600860
C106	C	0.817995	-0.558396	-0.065809
C107	C	1.151328	-0.225063	0.267524
C108	C	1.484661	0.108270	0.600857
C109	C	0.816841	-0.637343	-0.065804
C110	C	1.150174	-0.304009	0.267529
C111	C	1.483507	0.029324	0.600862
C112	C	0.816856	-0.637332	0.066220
C113	C	1.150189	-0.303999	0.399553
C114	C	1.483523	0.029334	0.732886
C115	C	0.818012	-0.558392	0.066220
C116	C	1.151345	-0.225058	0.399553
C117	C	1.484678	0.108275	0.732887
C118	C	0.818576	-0.518927	0.000203
C119	C	1.151910	-0.185594	0.333537
C120	C	1.485243	0.147740	0.666870
C121	C	0.819834	-0.433330	0.000203
C122	C	1.153167	-0.099996	0.333537
C123	C	1.486500	0.233337	0.666870
C124	C	0.820836	-0.365105	0.000209
C125	C	1.154170	-0.031772	0.333542
C126	C	1.487503	0.301561	0.666876
C127	C	0.947335	0.094824	0.000239
C128	C	1.280668	0.428157	0.333572
C129	C	1.614002	0.761490	0.666905
C130	C	1.024440	0.096054	0.000263
C131	C	1.357773	0.429387	0.333596
C132	C	1.691107	0.762721	0.666929
C133	C	0.815035	0.239175	0.000207
C134	C	1.148368	0.572509	0.333540
C135	C	1.481701	0.905842	0.666873
C136	C	0.816265	0.323191	0.000208
C137	C	1.149599	0.656525	0.333542
C138	C	1.482932	0.989858	0.666875
N139	N	0.820323	0.100778	-0.188462
N140	N	1.153656	0.434111	0.144871
N141	N	1.486989	0.767444	0.478204
C142	C	0.867660	0.049180	-0.773002
C143	C	1.200994	0.382513	-0.439668
C144	C	1.534327	0.715847	-0.106335
C145	C	0.867661	0.049182	-0.696774
C146	C	1.200995	0.382515	-0.363440
C147	C	1.534328	0.715848	-0.030107
C148	C	0.820343	0.100777	-0.658674
C149	C	1.153676	0.434111	-0.325340
C150	C	1.487010	0.767444	0.007993
C151	C	0.773033	0.152388	-0.696807
C152	C	1.106366	0.485721	-0.363474
C153	C	1.439699	0.819054	-0.030141
C154	C	0.773038	0.152390	-0.773034
C155	C	1.106371	0.485723	-0.439700
C156	C	1.439704	0.819056	-0.106367
C157	C	0.757063	0.110878	-0.537935
C158	C	1.090396	0.444211	-0.204602
C159	C	1.423729	0.777545	0.128732
C160	C	0.757057	0.110871	-0.461710
C161	C	1.090390	0.444204	-0.128377
C162	C	1.423723	0.777538	0.204957
C163	C	0.820327	0.100776	-0.423566
C164	C	1.153661	0.434109	-0.090233
C165	C	1.486994	0.767442	0.243101
C166	C	0.883607	0.090672	-0.461657
C167	C	1.216940	0.424005	-0.128323
C168	C	1.550273	0.757338	0.205010
C169	C	0.883612	0.090674	-0.537883
C170	C	1.216945	0.424007	-0.204550
C171	C	1.550279	0.757340	0.128784
C172	C	0.820333	0.100781	-0.576019
C173	C	1.153666	0.434115	-0.242686
C174	C	1.486999	0.767448	0.090648
C175	C	0.867639	0.049174	-0.302786
C176	C	1.200972	0.382507	0.030547
C177	C	1.534306	0.715840	0.363880
C178	C	0.867641	0.049181	-0.226557
C179	C	1.200974	0.382514	0.106776
C180	C	1.534307	0.715847	0.440109
C181	C	0.773006	0.152383	-0.226592
C182	C	1.106339	0.485717	0.106741
C183	C	1.439673	0.819050	0.440074
C184	C	0.773010	0.152380	-0.302820
C185	C	1.106344	0.485713	0.030513
C186	C	1.439677	0.819047	0.363847
C187	C	0.820326	0.100771	-0.340913
C188	C	1.153659	0.434104	-0.007579
C189	C	1.486993	0.767438	0.325754
N190	N	0.820354	0.100781	0.188874
N191	N	1.153687	0.434114	0.522207
N192	N	1.487020	0.767448	0.855540
H193	H	0.594266	0.230548	0.000168
H194	H	0.927599	0.563882	0.333502
H195	H	1.260933	0.897215	0.666835
H196	H	0.822213	-0.272163	0.119976
H197	H	1.155546	0.061171	0.453309
H198	H	1.488879	0.394504	0.786642
H199	H	0.818492	-0.526255	0.119974
H200	H	1.151825	-0.192922	0.453307
H201	H	1.485158	0.140411	0.786640
H202	H	0.177833	-0.026886	0.000239
H203	H	0.511167	0.306448	0.333572
H204	H	0.844500	0.639781	0.666906
H205	H	0.935136	0.082449	-0.568893
H206	H	1.268469	0.415782	-0.235560
H207	H	1.601803	0.749115	0.097774
H208	H	0.824268	-0.128964	-0.119561
H209	H	1.157601	0.204369	0.213773
H210	H	1.490934	0.537702	0.547106
H211	H	0.935128	0.082457	-0.430602
H212	H	1.268461	0.415790	-0.097268
H213	H	1.601795	0.749124	0.236065
H214	H	0.734481	0.194396	-0.195572
H215	H	1.067815	0.527730	0.137762
H216	H	1.401148	0.861063	0.471095
H217	H	0.462838	0.228447	0.000182
H218	H	0.796171	0.561781	0.333516
H219	H	1.129504	0.895114	0.666849
H220	H	0.493295	-0.021841	0.000189
H221	H	0.826629	0.311492	0.333523
H222	H	1.159962	0.644826	0.666856
H223	H	0.046400	-0.028984	0.000310
H224	H	0.379734	0.304349	0.333643
H225	H	0.713067	0.637682	0.666976
H226	H	0.266331	0.003864	0.077214
H227	H	0.599664	0.337197	0.410548
H228	H	0.932998	0.670531	0.743881
H229	H	0.705537	0.119103	-0.568985
H230	H	1.038870	0.452436	-0.235652
H231	H	1.372203	0.785769	0.097681
H232	H	0.705531	0.119089	-0.430702
H233	H	1.038864	0.452423	-0.097369
H234	H	1.372197	0.785756	0.235964
H235	H	0.816362	-0.669481	-0.119563
H236	H	1.149696	-0.336148	0.213771
H237	H	1.483029	-0.002815	0.547104
H238	H	0.734486	0.194395	-0.333863
H239	H	1.067819	0.527729	-0.000530
H240	H	1.401152	0.861062	0.332803
H241	H	0.816393	-0.669473	0.119974
H242	H	1.149726	-0.336140	0.453307
H243	H	1.483059	-0.002807	0.786640
H244	H	0.906168	0.007153	-0.333803
H245	H	1.239502	0.340486	-0.000469
H246	H	1.572835	0.673820	0.332864
H247	H	0.734507	0.194399	-0.665782
H248	H	1.067840	0.527732	-0.332449
H249	H	1.401173	0.861066	0.000884
H250	H	0.818468	-0.526276	-0.119564
H251	H	1.151802	-0.192942	0.213769
H252	H	1.485135	0.140391	0.547103
H253	H	0.397758	0.005962	0.077190
H254	H	0.731091	0.339295	0.410523
H255	H	1.064424	0.672629	0.743857
H256	H	0.906186	0.007161	-0.665727
H257	H	1.239519	0.340494	-0.332394
H258	H	1.572852	0.673827	0.000940
H259	H	0.822176	-0.272184	-0.119555
H260	H	1.155509	0.061149	0.213778
H261	H	1.488843	0.394482	0.547111
H262	H	0.734514	0.194410	-0.804076
H263	H	1.067847	0.527744	-0.470742
H264	H	1.401181	0.861077	-0.137409
H265	H	0.906167	0.007163	-0.195516
H266	H	1.239501	0.340497	0.137818
H267	H	1.572834	0.673830	0.471151
H268	H	0.906189	0.007159	-0.804014
H269	H	1.239523	0.340492	-0.470681
H270	H	1.572856	0.673826	-0.137348
H271	H	0.374346	0.197704	-0.076778
H272	H	0.707679	0.531037	0.256555
H273	H	1.041013	0.864370	0.589888
H274	H	0.242912	0.195600	-0.076755
H275	H	0.576245	0.528934	0.256578
H276	H	0.909578	0.862267	0.589911
H277	H	0.147371	0.223409	0.000239
H278	H	0.480705	0.556743	0.333572
H279	H	0.814038	0.890076	0.666906
H280	H	0.015942	0.221307	0.000258
H281	H	0.349276	0.554641	0.333591
H282	H	0.682609	0.887974	0.666925
H283	H	0.824315	-0.128957	0.119976
H284	H	1.157649	0.204376	0.453310
H285	H	1.490982	0.537709	0.786643
H286	H	0.624732	-0.019749	0.000146
H287	H	0.958066	0.313585	0.333479
H288	H	1.291399	0.646918	0.666812
