data_functionalizedCrystal
_audit_creation_method	'MofGen! by Chris Wilmer'
_symmetry_space_group_name_H-M	'P1'
_symmetry_Int_Tables_number	1
_symmetry_cell_setting	triclinic
loop_
_symmetry_equiv_pos_as_xyz
  x,y,z
_cell_length_a	15.455313
_cell_length_b	19.288864
_cell_length_c	16.992695
_cell_angle_alpha	93.097766
_cell_angle_beta	87.142836
_cell_angle_gamma	87.345037
loop_
_atom_site_label
_atom_site_type_symbol
_atom_site_fract_x
_atom_site_fract_y
_atom_site_fract_z
O1	O	-0.072411	-0.924177	0.101247
O2	O	0.427589	-0.424177	0.601247
O3	O	-0.072352	-0.722688	0.114437
O4	O	0.427648	-0.222688	0.614437
O5	O	-0.072375	-0.822625	-0.006298
O6	O	0.427625	-0.322625	0.493702
O7	O	-0.072389	-0.824240	0.221982
O8	O	0.427611	-0.324240	0.721982
O9	O	0.071886	-0.828334	-0.013181
O10	O	0.571886	-0.328334	0.486819
O11	O	0.071909	-0.728397	0.107554
O12	O	0.571909	-0.228397	0.607554
O13	O	0.071850	-0.929887	0.094364
O14	O	0.571850	-0.429887	0.594364
Cu15	Cu	0.085051	-0.829663	0.100330
Cu16	Cu	0.585051	-0.329663	0.600330
Cu17	Cu	-0.085554	-0.822911	0.108471
Cu18	Cu	0.414446	-0.322911	0.608471
O19	O	0.071872	-0.829949	0.215099
O20	O	0.571872	-0.329949	0.715099
C21	C	-0.000214	-0.699642	0.110570
C22	C	0.499786	-0.199642	0.610570
C23	C	-0.000191	-0.622465	0.109295
C24	C	0.499809	-0.122465	0.609295
N25	N	-0.205548	-0.818162	0.114190
N26	N	0.294452	-0.318162	0.614190
C27	C	-0.000244	-0.823402	-0.038945
C28	C	0.499756	-0.323402	0.461055
C29	C	-0.000242	-0.817201	-0.125967
C30	C	0.499758	-0.317201	0.374033
C31	C	-0.250952	-0.860711	0.062996
C32	C	0.249048	-0.360711	0.562996
C33	C	-0.341759	-0.857118	0.067320
C34	C	0.158241	-0.357118	0.567320
C35	C	-0.387161	-0.810973	0.122835
C36	C	0.112839	-0.310973	0.622835
C37	C	-0.341751	-0.768423	0.174035
C38	C	0.158249	-0.268423	0.674035
C39	C	-0.250945	-0.772019	0.169714
C40	C	0.249055	-0.272019	0.669714
C41	C	-0.658739	-0.795464	0.141483
C42	C	-0.158739	-0.295464	0.641483
C43	C	-0.749551	-0.791869	0.145798
C44	C	-0.249551	-0.291869	0.645798
C45	C	-0.749553	-0.880566	0.039084
C46	C	-0.249553	-0.380566	0.539084
C47	C	-0.658745	-0.884155	0.034765
C48	C	-0.158745	-0.384155	0.534765
C49	C	-0.613343	-0.841608	0.085967
C50	C	-0.113343	-0.341608	0.585967
N51	N	-0.479980	-0.807298	0.127255
N52	N	0.020020	-0.307298	0.627255
N53	N	-0.520526	-0.845287	0.081551
N54	N	-0.020526	-0.345287	0.581551
N55	N	0.205046	-0.834417	0.094604
N56	N	0.705046	-0.334417	0.594604
C57	C	-0.000290	-0.952933	0.098231
C58	C	0.499710	-0.452933	0.598231
C59	C	-0.000319	-1.030109	0.099506
C60	C	0.499681	-0.530109	0.599506
C61	C	-0.000209	-0.581896	0.180138
C62	C	0.499791	-0.081896	0.680138
C63	C	-0.000219	-0.509379	0.178942
C64	C	0.499781	-0.009379	0.678942
C65	C	-0.000228	-0.477433	0.106898
C66	C	0.499772	0.022567	0.606898
C67	C	-0.000205	-0.518010	0.036046
C68	C	0.499795	-0.018010	0.536046
C69	C	-0.000187	-0.590526	0.037244
C70	C	0.499813	-0.090526	0.537244
C71	C	-0.050794	-0.363869	0.052677
C72	C	0.449206	0.136131	0.552677
C73	C	-0.050818	-0.291354	0.051482
C74	C	0.449182	0.208646	0.551482
C75	C	-0.000280	-0.253769	0.103199
C76	C	0.499720	0.246231	0.603199
C77	C	0.050270	-0.288708	0.156126
C78	C	0.550270	0.211292	0.656126
C79	C	0.050288	-0.361224	0.157324
C80	C	0.550288	0.138776	0.657324
C81	C	-0.000247	-0.398802	0.105591
C82	C	0.499753	0.101198	0.605591
C83	C	-0.000307	-0.134569	0.172750
C84	C	0.499693	0.365431	0.672750
C85	C	-0.000311	-0.062051	0.171550
C86	C	0.499689	0.437949	0.671550
C87	C	-0.000306	-0.070683	0.028652
C88	C	0.499694	0.429317	0.528652
C89	C	-0.000293	-0.143200	0.029854
C90	C	0.499707	0.356800	0.529854
C91	C	-0.000298	-0.175139	0.101905
C92	C	0.499702	0.324861	0.601905
C93	C	-0.000259	-0.877028	-0.176418
C94	C	0.499741	-0.377028	0.323582
C95	C	-0.000265	-0.871198	-0.258184
C96	C	0.499735	-0.371198	0.241816
C97	C	-0.000249	-0.805539	-0.289497
C98	C	0.499751	-0.305539	0.210503
C99	C	-0.000235	-0.745707	-0.239040
C100	C	0.499765	-0.245707	0.260960
C101	C	-0.000235	-0.751538	-0.157275
C102	C	0.499765	-0.251538	0.342725
C103	C	-0.000254	-0.781372	-0.533010
C104	C	0.499746	-0.281372	-0.033010
C105	C	-0.000252	-0.775546	-0.614781
C106	C	0.499748	-0.275546	-0.114781
C107	C	-0.000283	-0.901037	-0.633919
C108	C	0.499717	-0.401037	-0.133919
C109	C	-0.000278	-0.906862	-0.552152
C110	C	0.499722	-0.406862	-0.052152
C111	C	-0.000268	-0.847030	-0.501702
C112	C	0.499732	-0.347030	-0.001702
N113	N	-0.000253	-0.799578	-0.373075
N114	N	0.499747	-0.299578	0.126925
N115	N	-0.000271	-0.852992	-0.418126
N116	N	0.499729	-0.352992	0.081874
C117	C	-0.000261	-0.829173	0.247746
C118	C	0.499739	-0.329173	0.747746
C119	C	-0.000268	-0.835373	0.334768
C120	C	0.499732	-0.335373	0.834768
H121	H	-0.378726	-0.891765	0.025635
H122	H	0.121274	-0.391765	0.525635
H123	H	-0.000293	-0.949749	-0.675004
H124	H	0.499707	-0.449749	-0.175004
H125	H	-0.000283	-0.176232	-0.027834
H126	H	0.499717	0.323768	0.472166
H127	H	-0.000231	-0.476342	0.236632
H128	H	0.499769	0.023658	0.736632
C129	C	-0.391686	-0.717664	0.235103
C130	C	0.108314	-0.217664	0.735103
H131	H	-0.351637	-0.692844	0.264979
H132	H	0.148363	-0.192844	0.764979
H133	H	-0.427093	-0.685839	0.208604
H134	H	0.072907	-0.185839	0.708604
H135	H	-0.427125	-0.743000	0.269414
H136	H	0.072875	-0.243000	0.769414
C137	C	-0.608810	-0.934923	-0.026293
C138	C	-0.108810	-0.434923	0.473707
H139	H	-0.648857	-0.959756	-0.056158
H140	H	-0.148857	-0.459756	0.443842
H141	H	-0.573365	-0.909599	-0.060604
H142	H	-0.073365	-0.409599	0.439396
H143	H	-0.573409	-0.966748	0.000221
H144	H	-0.073409	-0.466748	0.500221
C145	C	-0.000332	-0.017422	0.249480
C146	C	0.499668	0.482578	0.749480
H147	H	-0.000332	0.030340	0.238448
H148	H	0.499668	0.530340	0.738448
H149	H	-0.050641	-0.025558	0.281428
H150	H	0.449359	0.474442	0.781428
H151	H	0.049979	-0.029509	0.276635
H152	H	0.549979	0.470491	0.776635
C153	C	-0.201001	-0.725199	0.226009
C154	C	0.298999	-0.225199	0.726009
H155	H	-0.241045	-0.697191	0.259681
H156	H	0.258955	-0.197191	0.759681
H157	H	-0.165585	-0.753321	0.256953
H158	H	0.334415	-0.253321	0.756953
H159	H	-0.165572	-0.696183	0.196115
H160	H	0.334428	-0.196183	0.696115
H161	H	-0.000298	-0.160575	0.231418
H162	H	0.499702	0.339425	0.731418
H163	H	-0.000224	-0.491994	-0.022612
H164	H	0.499776	0.008006	0.477388
C165	C	-0.799495	-0.741103	0.206861
C166	C	-0.299495	-0.241103	0.706861
H167	H	-0.860078	-0.745049	0.202090
H168	H	-0.360078	-0.245049	0.702090
H169	H	-0.784640	-0.752042	0.258485
H170	H	-0.284640	-0.252042	0.758485
H171	H	-0.784590	-0.694892	0.197662
H172	H	-0.284590	-0.194892	0.697662
H173	H	-0.621780	-0.760818	0.183173
H174	H	-0.121780	-0.260818	0.683173
H175	H	-0.786527	-0.915207	-0.002601
H176	H	-0.286527	-0.415207	0.497399
H177	H	-0.000172	-0.623557	-0.020447
H178	H	0.499828	-0.123557	0.479553
C179	C	-0.000199	-0.617026	0.259390
C180	C	0.499801	-0.117026	0.759390
H181	H	-0.000202	-0.582474	0.301410
H182	H	0.499798	-0.082474	0.801410
H183	H	-0.050495	-0.643165	0.265233
H184	H	0.449505	-0.143165	0.765233
H185	H	0.050125	-0.647104	0.260424
H186	H	0.550125	-0.147104	0.760424
H187	H	-0.213992	-0.898284	0.017787
H188	H	0.286008	-0.398284	0.517787
C189	C	0.105897	-0.399655	0.215531
C190	C	0.605897	0.100345	0.715531
H191	H	0.136000	-0.366890	0.246159
H192	H	0.636000	0.133110	0.746159
H193	H	0.069468	-0.424605	0.249390
H194	H	0.569468	0.075395	0.749390
H195	H	0.146546	-0.431172	0.186946
H196	H	0.646546	0.068828	0.686946
H197	H	-0.091983	-0.262912	0.008389
H198	H	0.408017	0.237088	0.508389
C199	C	-0.000277	-0.949253	-0.141981
C200	C	0.499723	-0.449253	0.358019
H201	H	-0.000296	-0.984048	-0.183741
H202	H	0.499704	-0.484048	0.316259
H203	H	0.050029	-0.956130	-0.112886
H204	H	0.550029	-0.456130	0.387114
H205	H	-0.050591	-0.952145	-0.108080
H206	H	0.449409	-0.452145	0.391920
C207	C	-0.106397	-0.405204	-0.004210
C208	C	0.393603	0.094796	0.495790
H209	H	-0.136517	-0.374011	-0.035891
H210	H	0.363483	0.125989	0.464109
H211	H	-0.069961	-0.436837	-0.037138
H212	H	0.430039	0.063163	0.462862
H213	H	-0.147033	-0.430256	0.025312
H214	H	0.352967	0.069744	0.525312
C215	C	-0.000321	-0.035551	-0.050593
C216	C	0.499679	0.464449	0.449407
H217	H	-0.000341	0.013448	-0.041162
H218	H	0.499659	0.513448	0.458838
H219	H	0.049987	-0.051181	-0.082158
H220	H	0.549987	0.448819	0.417842
H221	H	-0.050633	-0.047235	-0.077346
H222	H	0.449367	0.452765	0.422654
C223	C	-0.000244	-0.715561	-0.477521
C224	C	0.499756	-0.215561	0.022479
H225	H	-0.000258	-0.728432	-0.424339
H226	H	0.499742	-0.228432	0.075661
H227	H	0.050068	-0.690812	-0.489389
H228	H	0.550068	-0.190812	0.010611
H229	H	-0.050552	-0.686840	-0.484592
H230	H	0.449448	-0.186840	0.015408
C231	C	0.105859	-0.247375	0.213023
C232	C	0.605859	0.252625	0.713023
H233	H	0.098617	-0.199183	0.204727
H234	H	0.598617	0.300817	0.704727
H235	H	0.088085	-0.255430	0.265932
H236	H	0.588085	0.244570	0.765932
H237	H	0.165174	-0.262002	0.203500
H238	H	0.665174	0.237998	0.703500
H239	H	-0.000277	-0.919916	-0.299259
H240	H	0.499723	-0.419916	0.200741
H241	H	-0.000291	-0.960328	-0.526664
H242	H	0.499709	-0.460328	-0.026664
H243	H	-0.000224	-0.722077	-0.640273
H244	H	0.499776	-0.222077	-0.140273
C245	C	-0.000215	-0.673485	-0.273483
C246	C	0.499785	-0.173485	0.226517
H247	H	-0.000207	-0.678580	-0.329405
H248	H	0.499793	-0.178580	0.170595
H249	H	-0.050513	-0.646667	-0.253748
H250	H	0.449487	-0.146667	0.246252
H251	H	0.050107	-0.650654	-0.258552
H252	H	0.550107	-0.150654	0.241448
H253	H	-0.000221	-0.702820	-0.116198
H254	H	0.499779	-0.202820	0.383802
