data_functionalizedCrystal
_audit_creation_method	'MofGen! by Chris Wilmer'
_symmetry_space_group_name_H-M	'P1'
_symmetry_Int_Tables_number	1
_symmetry_cell_setting	triclinic
loop_
_symmetry_equiv_pos_as_xyz
  x,y,z
_cell_length_a	16.120530
_cell_length_b	11.169416
_cell_length_c	11.169409
_cell_angle_alpha	89.969184
_cell_angle_beta	87.078668
_cell_angle_gamma	87.106171
loop_
_atom_site_label
_atom_site_type_symbol
_atom_site_fract_x
_atom_site_fract_y
_atom_site_fract_z
Zn1	Zn	1.274677	-0.570870	-0.771607
Zn2	Zn	1.608010	-0.237537	-0.438273
Zn3	Zn	1.941344	0.095797	-0.104940
Zn4	Zn	1.274598	-0.771605	-0.570923
Zn5	Zn	1.607932	-0.438271	-0.237590
Zn6	Zn	1.941265	-0.104938	0.095744
Zn7	Zn	1.135247	-0.560750	-0.560763
Zn8	Zn	1.468581	-0.227416	-0.227429
Zn9	Zn	1.801914	0.105917	0.105904
Zn10	Zn	1.135254	-0.761320	-0.761396
Zn11	Zn	1.468588	-0.427987	-0.428062
Zn12	Zn	1.801921	-0.094654	-0.094729
O13	O	1.204944	-0.666136	-0.666172
O14	O	1.538278	-0.332803	-0.332839
O15	O	1.871611	0.000530	0.000495
O16	O	1.391334	-0.606037	-0.753511
O17	O	1.724667	-0.272704	-0.420178
O18	O	2.058001	0.060629	-0.086844
O19	O	1.256077	-0.743703	-0.401623
O20	O	1.589411	-0.410370	-0.068289
O21	O	1.922744	-0.077036	0.265044
O22	O	1.153773	-0.394145	-0.588753
O23	O	1.487106	-0.060811	-0.255419
O24	O	1.820440	0.272522	0.077914
O25	O	1.391276	-0.753516	-0.606069
O26	O	1.724610	-0.420183	-0.272736
O27	O	2.057943	-0.086850	0.060597
O28	O	1.256211	-0.401580	-0.743659
O29	O	1.589545	-0.068247	-0.410326
O30	O	1.922878	0.265087	-0.076992
O31	O	1.153697	-0.588789	-0.394158
O32	O	1.487030	-0.255456	-0.060825
O33	O	1.820363	0.077878	0.272509
O34	O	1.018581	-0.578816	-0.578852
O35	O	1.351914	-0.245483	-0.245518
O36	O	1.685248	0.087850	0.087815
O37	O	1.153785	-0.735988	-0.930703
O38	O	1.487118	-0.402655	-0.597369
O39	O	1.820452	-0.069321	-0.264036
O40	O	1.018586	-0.726175	-0.726256
O41	O	1.351919	-0.392841	-0.392922
O42	O	1.685253	-0.059508	-0.059589
O43	O	1.256218	-0.596065	-0.938205
O44	O	1.589551	-0.262732	-0.604871
O45	O	1.922885	0.070602	-0.271538
O46	O	1.256084	-0.938188	-0.596168
O47	O	1.589417	-0.604855	-0.262835
O48	O	1.922751	-0.271521	0.070498
O49	O	1.153709	-0.930632	-0.736108
O50	O	1.487042	-0.597299	-0.402774
O51	O	1.820375	-0.263965	-0.069441
C52	C	1.204911	-0.977959	-0.666160
C53	C	1.538245	-0.644625	-0.332827
C54	C	1.871578	-0.311292	0.000506
C55	C	1.204973	-1.111363	-0.666201
C56	C	1.538307	-0.778030	-0.332868
C57	C	1.871640	-0.444696	0.000466
C58	C	0.988333	-0.650282	-0.650344
C59	C	1.321666	-0.316949	-0.317010
C60	C	1.655000	0.016384	0.016323
C61	C	0.895666	-0.643529	-0.643601
C62	C	1.228999	-0.310195	-0.310268
C63	C	1.562332	0.023138	0.023066
C64	C	0.726001	-0.631171	-0.631301
C65	C	1.059335	-0.297837	-0.297967
C66	C	1.392668	0.035496	0.035366
C67	C	0.684728	-0.701190	-0.701131
C68	C	1.018061	-0.367857	-0.367798
C69	C	1.351394	-0.034524	-0.034464
C70	C	0.590321	-0.694314	-0.694287
C71	C	0.923654	-0.360981	-0.360954
C72	C	1.256987	-0.027647	-0.027620
C73	C	0.820417	-0.638045	-0.638143
C74	C	1.153750	-0.304712	-0.304810
C75	C	1.487083	0.028622	0.028524
C76	C	1.422402	-0.682053	-0.682063
C77	C	1.755735	-0.348720	-0.348729
C78	C	2.089068	-0.015386	-0.015396
C79	C	1.515069	-0.688836	-0.688834
C80	C	1.848402	-0.355502	-0.355501
C81	C	2.181736	-0.022169	-0.022168
C82	C	1.205011	-0.666008	-0.979219
C83	C	1.538344	-0.332675	-0.645886
C84	C	1.871678	0.000659	-0.312553
C85	C	1.205040	-0.665954	-1.112622
C86	C	1.538373	-0.332620	-0.779288
C87	C	1.871706	0.000713	-0.445955
C88	C	1.205000	-0.353098	-0.666211
C89	C	1.538334	-0.019765	-0.332878
C90	C	1.871667	0.313569	0.000455
C91	C	1.205024	-0.219700	-0.666228
C92	C	1.538357	0.113634	-0.332895
C93	C	1.871691	0.446967	0.000438
C94	C	1.204926	-0.666181	-0.354346
C95	C	1.538259	-0.332847	-0.021012
C96	C	1.871592	0.000486	0.312321
C97	C	1.205059	-0.665909	-0.220956
C98	C	1.538392	-0.332576	0.112377
C99	C	1.871725	0.000758	0.445711
H100	H	0.720294	-0.766299	-0.766056
H101	H	1.053628	-0.432965	-0.432723
H102	H	1.386961	-0.099632	-0.099389
H103	H	0.690437	-0.566067	-0.566381
H104	H	1.023770	-0.232733	-0.233048
H105	H	1.357103	0.100600	0.100285
