data_functionalizedCrystal
_audit_creation_method	'MofGen! by Chris Wilmer'
_symmetry_space_group_name_H-M	'P1'
_symmetry_Int_Tables_number	1
_symmetry_cell_setting	triclinic
loop_
_symmetry_equiv_pos_as_xyz
  x,y,z
_cell_length_a	19.077236
_cell_length_b	10.686285
_cell_length_c	19.077174
_cell_angle_alpha	87.730334
_cell_angle_beta	85.294282
_cell_angle_gamma	87.746031
loop_
_atom_site_label
_atom_site_type_symbol
_atom_site_fract_x
_atom_site_fract_y
_atom_site_fract_z
Zn1	Zn	1.112451	-0.452905	-0.423399
Zn2	Zn	1.115968	-0.654579	-0.297240
Zn3	Zn	0.989833	-0.452924	-0.300781
Zn4	Zn	1.003524	-0.670690	-0.409684
O5	O	1.055444	-0.557774	-0.357776
O6	O	1.211291	-0.472907	-0.410922
O7	O	1.094978	-0.621095	-0.199336
O8	O	0.998897	-0.277384	-0.324269
O9	O	1.213876	-0.621076	-0.318233
O10	O	1.088983	-0.277370	-0.414356
O11	O	1.002307	-0.472940	-0.201938
O12	O	0.893275	-0.488561	-0.310970
O13	O	1.022232	-0.648534	-0.509877
O14	O	0.903334	-0.648553	-0.390980
O15	O	1.102259	-0.488529	-0.519954
O16	O	1.108254	-0.832253	-0.304934
O17	O	1.025642	-0.844090	-0.387546
C18	C	0.872797	-0.570308	-0.349871
C19	C	0.794662	-0.575702	-0.346505
C20	C	0.756617	-0.501224	-0.393245
C21	C	0.683201	-0.506285	-0.390076
C22	C	0.647830	-0.585832	-0.340170
C23	C	0.685880	-0.660312	-0.293425
C24	C	0.759295	-0.655244	-0.296591
C25	C	0.428406	-0.609243	-0.325516
C26	C	0.354986	-0.614309	-0.322355
C27	C	0.352311	-0.460279	-0.419005
C28	C	0.425728	-0.455223	-0.422169
C29	C	0.463771	-0.529699	-0.375422
N30	N	0.572787	-0.591010	-0.336931
N31	N	0.538813	-0.524513	-0.378658
C32	C	1.068835	-0.883686	-0.344384
C33	C	1.074629	-1.023110	-0.338680
C34	C	1.238804	-0.545192	-0.365712
C35	C	1.316941	-0.539831	-0.369094
C36	C	1.063380	-0.570326	-0.541136
C37	C	1.066762	-0.575675	-0.619273
C38	C	1.042020	-0.230590	-0.371237
C39	C	1.036300	-0.091163	-0.376974
C40	C	1.020104	-0.501053	-0.657336
C41	C	1.023280	-0.506090	-0.730754
C42	C	1.073117	-0.585743	-0.766107
C43	C	1.119777	-0.660373	-0.728039
C44	C	1.116598	-0.655342	-0.654622
C45	C	1.087796	-0.609066	-0.985534
C46	C	1.090973	-0.614088	-1.058956
C47	C	0.994475	-0.459806	-1.061665
C48	C	0.991302	-0.454777	-0.988248
C49	C	1.037960	-0.529412	-0.950185
N50	N	1.076365	-0.590890	-0.841152
N51	N	1.034708	-0.524271	-0.875142
C52	C	1.047575	-0.545178	-0.175135
C53	C	1.044315	-0.539466	-0.097019
H54	H	0.785411	-0.436452	-0.433885
H55	H	0.999052	-1.042764	-0.414122
C56	C	0.971959	-0.423985	-0.772621
N57	N	0.933303	-0.362137	-0.804155
H58	H	1.111875	-1.071516	-0.301525
H59	H	0.979525	-0.436184	-0.628557
H60	H	0.326190	-0.679091	-0.281714
C61	C	0.936476	-0.367155	-0.949364
N62	N	0.895181	-0.301155	-0.920077
H63	H	0.454522	-0.390452	-0.462810
H64	H	0.459372	-0.669888	-0.287452
H65	H	0.956488	-0.399043	-1.092664
C66	C	1.145798	-0.701721	-1.097843
N67	N	1.187090	-0.767723	-1.127132
H68	H	1.125781	-0.669853	-0.954551
H69	H	1.154597	-0.716098	-0.623633
H70	H	0.652228	-0.445640	-0.428137
C71	C	0.646970	-0.747813	-0.238527
N72	N	0.617664	-0.813724	-0.197178
C73	C	0.310457	-0.378339	-0.470412
N74	N	0.278931	-0.316609	-0.509129
C75	C	0.801144	-0.737178	-0.245175
N76	N	0.832664	-0.798892	-0.206445
H77	H	1.160352	-0.725235	-0.756829
