data_functionalizedCrystal
_audit_creation_method	'MofGen! by Chris Wilmer'
_symmetry_space_group_name_H-M	'P1'
_symmetry_Int_Tables_number	1
_symmetry_cell_setting	triclinic
loop_
_symmetry_equiv_pos_as_xyz
  x,y,z
_cell_length_a	19.188905
_cell_length_b	19.188924
_cell_length_c	9.198806
_cell_angle_alpha	89.994752
_cell_angle_beta	89.988938
_cell_angle_gamma	83.138260
loop_
_atom_site_label
_atom_site_type_symbol
_atom_site_fract_x
_atom_site_fract_y
_atom_site_fract_z
O1	O	0.926153	0.087083	-0.121138
O2	O	0.722839	0.098836	-0.121090
O3	O	0.830366	-0.008697	-0.121098
O4	O	0.818627	0.194616	-0.121130
O5	O	0.830358	-0.008697	0.120687
O6	O	0.722831	0.098835	0.120695
O7	O	0.926145	0.087083	0.120647
Cu8	Cu	0.824487	0.092959	0.142748
Cu9	Cu	0.824497	0.092959	-0.143191
O10	O	0.818618	0.194616	0.120655
C11	C	0.696824	0.098458	-0.000191
C12	C	0.619318	0.097324	-0.000172
C13	C	0.582931	0.096780	-0.131972
C14	C	0.510108	0.095707	-0.131990
C15	C	0.473676	0.095164	-0.000200
C16	C	0.510071	0.095713	0.131618
C17	C	0.582893	0.096793	0.131633
N18	N	0.364653	0.053735	0.097885
N19	N	0.295476	0.052708	0.097863
C20	C	0.254269	0.091911	-0.000234
N21	N	0.284854	0.132173	-0.098331
N22	N	0.354038	0.133197	-0.098313
C23	C	0.394713	0.093993	-0.000200
C24	C	0.138918	0.090205	-0.132064
C25	C	0.066093	0.089136	-0.132076
C26	C	0.066059	0.089135	0.131536
C27	C	0.138882	0.090210	0.131545
C28	C	0.175308	0.090742	-0.000259
C29	C	0.829982	-0.034708	-0.000204
C30	C	0.828844	-0.112213	-0.000200
C31	C	0.828317	-0.148612	-0.131997
C32	C	0.827237	-0.221434	-0.132008
C33	C	0.826698	-0.257857	-0.000214
C34	C	0.827221	-0.221449	0.131600
C35	C	0.828294	-0.148627	0.131607
N36	N	0.864743	-0.377524	0.097868
N37	N	0.863725	-0.446702	0.097852
C38	C	0.823464	-0.477266	-0.000228
N39	N	0.784268	-0.436040	-0.098313
N40	N	0.785289	-0.366855	-0.098302
C41	C	0.825534	-0.336821	-0.000207
C42	C	0.821765	-0.592627	-0.132046
C43	C	0.820681	-0.665451	-0.132051
C44	C	0.820672	-0.665465	0.131561
C45	C	0.821749	-0.592642	0.131563
C46	C	0.822299	-0.556228	-0.000245
C47	C	0.952160	0.087461	-0.000256
C48	C	1.029666	0.088594	-0.000284
C49	C	0.819002	0.220627	-0.000242
C50	C	0.820141	0.298132	-0.000256
N51	N	0.824485	0.092959	0.343862
N52	N	0.824505	0.092954	-0.344305
C53	C	0.869635	0.047612	0.416055
C54	C	0.869646	0.047609	0.583467
H55	H	0.612518	0.097237	0.238964
F56	F	0.920175	-0.003134	0.664611
F57	F	0.027366	0.088562	-0.272365
F58	F	0.027289	0.088563	0.271799
H59	H	0.820228	-0.695119	0.238871
F60	F	0.826643	-0.260213	0.271865
H61	H	0.480404	0.095272	0.238923
H62	H	0.828720	-0.118991	0.238936
F63	F	0.773966	0.143699	0.425066
F64	F	0.177610	0.090786	0.271827
F65	F	0.177687	0.090775	-0.272339
F66	F	0.920026	-0.003255	0.334851
F67	F	0.621694	0.097348	-0.272251
F68	F	0.820115	-0.704188	-0.272336
F69	F	0.822346	-0.553870	-0.272324
H70	H	0.480475	0.095264	-0.239322
F71	F	0.773980	0.143706	0.574561
H72	H	0.828763	-0.118968	-0.239326
H73	H	0.822184	-0.563007	0.238887
F74	F	0.826675	-0.260180	-0.272291
