data_functionalizedCrystal
_audit_creation_method	'MofGen! by Chris Wilmer'
_symmetry_space_group_name_H-M	'P1'
_symmetry_Int_Tables_number	1
_symmetry_cell_setting	triclinic
loop_
_symmetry_equiv_pos_as_xyz
  x,y,z
_cell_length_a	17.077404
_cell_length_b	15.299816
_cell_length_c	17.077396
_cell_angle_alpha	99.656369
_cell_angle_beta	89.980499
_cell_angle_gamma	80.351064
loop_
_atom_site_label
_atom_site_type_symbol
_atom_site_fract_x
_atom_site_fract_y
_atom_site_fract_z
Zn1	Zn	1.254116	-0.359055	-0.497975
Zn2	Zn	1.276733	-0.509886	-0.389448
Zn3	Zn	1.122853	-0.359087	-0.366728
Zn4	Zn	1.145518	-0.509832	-0.520664
O5	O	1.199805	-0.434465	-0.443704
O6	O	1.366965	-0.379073	-0.483592
O7	O	1.256301	-0.489918	-0.276593
O8	O	1.121315	-0.232873	-0.365134
O9	O	1.383582	-0.489887	-0.403858
O10	O	1.217753	-0.232849	-0.461560
O11	O	1.143245	-0.379126	-0.259900
O12	O	1.016011	-0.379075	-0.387134
O13	O	1.159944	-0.489796	-0.627496
O14	O	1.032663	-0.489826	-0.500231
O15	O	1.239731	-0.379021	-0.610826
O16	O	1.278278	-0.636089	-0.425859
O17	O	1.181875	-0.636049	-0.522262
C18	C	0.995855	-0.434449	-0.443680
C19	C	0.908607	-0.434463	-0.443691
C20	C	0.876321	-0.492219	-0.502513
C21	C	0.794341	-0.492221	-0.502526
C22	C	0.744649	-0.434471	-0.443713
C23	C	0.776940	-0.376709	-0.384888
C24	C	0.858918	-0.376704	-0.384879
C25	C	0.606072	-0.376727	-0.384909
C26	C	0.524089	-0.376734	-0.384917
C27	C	0.541496	-0.492244	-0.502556
C28	C	0.623474	-0.492239	-0.502547
C29	C	0.655759	-0.434478	-0.443721
C30	C	1.235012	-0.668794	-0.479005
C31	C	1.250145	-0.769041	-0.494133
C32	C	1.092160	-1.051967	-0.335846
C33	C	1.077938	-0.957780	-0.321634
C34	C	1.120989	-0.910591	-0.364757
C35	C	1.178264	-0.957598	-0.422096
C36	C	1.192483	-1.051794	-0.436313
C37	C	1.221311	-0.910417	-0.465225
C38	C	1.278587	-0.957424	-0.522563
C39	C	1.292804	-1.051611	-0.536778
C40	C	1.249753	-1.098801	-0.493654
C41	C	1.207092	-0.816221	-0.451007
C42	C	1.307415	-0.816048	-0.551474
C43	C	1.321637	-0.910235	-0.565686
C44	C	1.404552	-0.434482	-0.443729
C45	C	1.491803	-0.434489	-0.443739
C46	C	1.199843	-0.434399	-0.648438
C47	C	1.199859	-0.434370	-0.735684
C48	C	1.164483	-0.199221	-0.408282
C49	C	1.149430	-0.098974	-0.393187
C50	C	1.241405	-0.376685	-0.767995
C51	C	1.241410	-0.376655	-0.849971
C52	C	1.199873	-0.434315	-0.899635
C53	C	1.158322	-0.492003	-0.867319
C54	C	1.158312	-0.492028	-0.785343
C55	C	1.158345	-0.491949	-1.038181
C56	C	1.158355	-0.491926	-1.120162
C57	C	1.241442	-0.376576	-1.102808
C58	C	1.241433	-0.376601	-1.020832
C59	C	1.199883	-0.434290	-0.988522
C60	C	1.199803	-0.434466	-0.239756
C61	C	1.199901	-0.434240	-0.152473
H62	H	0.515205	-0.539273	-0.550457
O63	O	0.671797	-0.548429	-0.559579
C64	C	0.782699	-0.670157	-0.588296
C65	C	0.728018	-0.606596	-0.523627
H66	H	0.828177	-0.717188	-0.559252
H67	H	0.745591	-0.711506	-0.630342
H68	H	0.814843	-0.628780	-0.623175
H69	H	0.695862	-0.647903	-0.488691
H70	H	0.765168	-0.565244	-0.481636
H71	H	0.916777	-0.539248	-0.550403
O72	O	0.763065	-0.548291	-0.559764
C73	C	0.744624	-0.592267	-0.699850
C74	C	0.780097	-0.528718	-0.635108
H75	H	0.758367	-0.576452	-0.760779
H76	H	0.771685	-0.664980	-0.696965
H77	H	0.677503	-0.582373	-0.689723
H78	H	0.847216	-0.538531	-0.645192
H79	H	0.752975	-0.456029	-0.638010
H80	H	1.342469	-0.777627	-0.586591
O81	O	1.377160	-0.955946	-0.621477
C82	C	1.403694	-1.062253	-0.743470
C83	C	1.340735	-1.010522	-0.680355
H84	H	1.374272	-1.106405	-0.791080
H85	H	1.432019	-1.012400	-0.771922
H86	H	1.451421	-1.106301	-0.714097
H87	H	1.292961	-0.966474	-0.709668
H88	H	1.312472	-1.060424	-0.651909
O89	O	0.475924	-0.320548	-0.327753
C90	C	0.467309	-0.206003	-0.211050
C91	C	0.521943	-0.269573	-0.275752
H92	H	0.504495	-0.164787	-0.168981
H93	H	0.421878	-0.158847	-0.240025
H94	H	0.435106	-0.247366	-0.176213
H95	H	0.554200	-0.228283	-0.310612
H96	H	0.567325	-0.316732	-0.246729
O97	O	0.890302	-0.320506	-0.327834
C98	C	0.964590	-0.198749	-0.299093
C99	C	0.929075	-0.262327	-0.363774
H100	H	0.995961	-0.151708	-0.328127
H101	H	0.915017	-0.157411	-0.257062
H102	H	1.009134	-0.240112	-0.264200
H103	H	0.884541	-0.221035	-0.398725
H104	H	0.978691	-0.303668	-0.405750
H105	H	1.109406	-0.833900	-0.353182
O106	O	1.281739	-0.320754	-0.719645
C107	C	1.318500	-0.269618	-0.585663
C108	C	1.272808	-0.333027	-0.640328
H109	H	1.311282	-0.279505	-0.521522
H110	H	1.384194	-0.285452	-0.604117
H111	H	1.293801	-0.196900	-0.590881
H112	H	1.297439	-0.405766	-0.635137
H113	H	1.207118	-0.317116	-0.621858
H114	H	1.275243	-0.329684	-0.876274
O115	O	1.281670	-0.320428	-1.134204
C116	C	1.273954	-0.198649	-1.208445
C117	C	1.228298	-0.262164	-1.172912
H118	H	1.230826	-0.151540	-1.239763
H119	H	1.303615	-0.157381	-1.158889
H120	H	1.321241	-0.240057	-1.253039
H121	H	1.180975	-0.220826	-1.128328
H122	H	1.198693	-0.303436	-1.222511
H123	H	1.124530	-0.538876	-1.160597
O124	O	1.348490	-1.097377	-0.592383
C125	C	1.470523	-1.203575	-0.619056
C126	C	1.407507	-1.151818	-0.556008
H127	H	1.518263	-1.247588	-0.589667
H128	H	1.441169	-1.247737	-0.666720
H129	H	1.498815	-1.153659	-0.647453
H130	H	1.379193	-1.201669	-0.527550
H131	H	1.436903	-1.107642	-0.508393
O132	O	1.151372	-0.770524	-0.395416
C133	C	1.029385	-0.664254	-0.368716
C134	C	1.092422	-0.715965	-0.431762
H135	H	0.981717	-0.620117	-0.398075
H136	H	1.000996	-0.714120	-0.340346
H137	H	1.058811	-0.620194	-0.321037
H138	H	1.063057	-0.760026	-0.479489
H139	H	1.120806	-0.666051	-0.460070
O140	O	1.281678	-0.320455	-0.972610
C141	C	1.296765	-0.167046	-0.924488
C142	C	1.251115	-0.230535	-0.979115
H143	H	1.272085	-0.094333	-0.929742
H144	H	1.289611	-0.176886	-0.860324
H145	H	1.362444	-0.182927	-0.943001
H146	H	1.185422	-0.214693	-0.960674
H147	H	1.258336	-0.220683	-1.043266
H148	H	1.124496	-0.538912	-1.011875
H149	H	1.124498	-0.538948	-0.907762
H150	H	1.124472	-0.538992	-0.759036
O151	O	1.022307	-0.912261	-0.265882
C152	C	0.924277	-0.922379	-0.167759
C153	C	0.987268	-0.974043	-0.230869
H154	H	0.895918	-0.972307	-0.139444
H155	H	0.953651	-0.878304	-0.120043
H156	H	0.876585	-0.878266	-0.197112
H157	H	1.034979	-1.018204	-0.201586
H158	H	0.957837	-1.018060	-0.278578
H159	H	1.057111	-1.090398	-0.300745
H160	H	0.632354	-0.329684	-0.337013
H161	H	0.736473	-0.329685	-0.337004
H162	H	1.261333	-1.175495	-0.505220
