data_functionalizedCrystal
_audit_creation_method	'MofGen! by Chris Wilmer'
_symmetry_space_group_name_H-M	'P1'
_symmetry_Int_Tables_number	1
_symmetry_cell_setting	triclinic
loop_
_symmetry_equiv_pos_as_xyz
  x,y,z
_cell_length_a	10.967926
_cell_length_b	14.853567
_cell_length_c	10.065918
_cell_angle_alpha	99.801598
_cell_angle_beta	87.800512
_cell_angle_gamma	84.184248
loop_
_atom_site_label
_atom_site_type_symbol
_atom_site_fract_x
_atom_site_fract_y
_atom_site_fract_z
O1	O	1.617320	0.098533	-0.266904
O2	O	1.265989	0.119277	-0.184271
O3	O	1.451040	-0.022504	-0.227791
O4	O	1.432269	0.240314	-0.223384
O5	O	1.419312	-0.045459	-0.447316
O6	O	1.234262	0.096322	-0.403796
O7	O	1.585592	0.075578	-0.486429
Zn8	Zn	1.404890	0.082305	-0.479967
Zn9	Zn	1.446692	0.112549	-0.190733
O10	O	1.400542	0.217359	-0.442909
C11	C	1.205163	0.108025	-0.283458
C12	C	1.071190	0.108685	-0.251948
C13	C	0.995025	0.097088	-0.351620
C14	C	0.856557	0.097770	-0.319054
C15	C	1.434326	-0.067554	-0.337349
C16	C	1.431779	-0.167587	-0.336738
C17	C	1.311079	-0.577814	-0.308376
C18	C	1.530923	-0.603302	-0.360083
C19	C	1.533320	-0.509313	-0.360639
C20	C	1.424595	-0.449571	-0.335065
C21	C	1.313472	-0.483817	-0.308935
C22	C	1.644438	-0.475061	-0.386781
C23	C	1.646840	-0.381068	-0.387340
C24	C	1.538115	-0.321322	-0.361756
C25	C	1.426988	-0.355573	-0.335624
C26	C	1.318263	-0.295831	-0.310050
C27	C	1.207137	-0.330079	-0.283908
C28	C	1.204747	-0.424071	-0.283351
C29	C	1.540504	-0.227330	-0.362312
C30	C	1.320657	-0.201833	-0.310609
C31	C	1.646419	0.086830	-0.387239
C32	C	1.780393	0.086171	-0.418741
C33	C	1.417256	0.262409	-0.333348
C34	C	1.419804	0.362443	-0.333950
N35	N	1.376370	0.061664	-0.677364
C36	C	1.436761	0.105368	-0.759349
C37	C	1.414822	0.089473	-0.911355
N38	N	1.475221	0.133184	0.006662
H39	H	1.232119	-0.153195	-0.289777
C40	C	1.284578	-0.004779	-0.734553
H41	H	1.281867	-0.006741	-0.829215
H42	H	1.309912	-0.064535	-0.717156
H43	H	1.205309	0.015961	-0.692578
C44	C	1.188847	-0.615477	-0.279614
H45	H	1.124443	-0.566431	-0.264454
H46	H	1.172271	-0.659620	-0.354865
H47	H	1.194415	-0.643602	-0.201753
H48	H	0.817690	0.075734	-0.528191
H49	H	1.346875	0.040283	-0.953694
C50	C	0.806180	0.111868	-0.171198
H51	H	0.719722	0.110484	-0.168706
H52	H	0.842977	0.064209	-0.128974
H53	H	0.824745	0.169625	-0.124702
H54	H	1.543174	0.182369	-0.951003
C55	C	1.020808	0.122783	-0.104098
H56	H	0.934349	0.121398	-0.101607
H57	H	1.057604	0.075123	-0.061875
H58	H	1.039373	0.180539	-0.057603
C59	C	1.087547	-0.264357	-0.255776
H60	H	1.104897	-0.203475	-0.259850
H61	H	1.030918	-0.282523	-0.321607
H62	H	1.053061	-0.266512	-0.168494
H63	H	1.504711	0.154548	-0.717005
C64	C	1.082520	-0.461742	-0.254599
H65	H	1.018110	-0.412701	-0.239433
H66	H	1.065950	-0.505882	-0.329859
H67	H	1.088090	-0.489875	-0.176745
C68	C	1.650509	-0.669015	-0.388215
H69	H	1.633169	-0.729898	-0.384134
H70	H	1.685007	-0.666849	-0.475480
H71	H	1.707128	-0.650848	-0.322361
C72	C	1.764022	-0.540777	-0.414919
H73	H	1.746681	-0.601658	-0.410828
H74	H	1.798512	-0.538616	-0.502190
H75	H	1.820649	-0.522609	-0.349075
H76	H	1.737326	-0.353191	-0.408624
H77	H	1.630980	-0.199450	-0.383605
H78	H	1.032330	0.086649	-0.461062
