data_functionalizedCrystal
_audit_creation_method	'MofGen! by Chris Wilmer'
_symmetry_space_group_name_H-M	'P1'
_symmetry_Int_Tables_number	1
_symmetry_cell_setting	triclinic
loop_
_symmetry_equiv_pos_as_xyz
  x,y,z
_cell_length_a	19.121112
_cell_length_b	19.121063
_cell_length_c	19.120904
_cell_angle_alpha	94.741613
_cell_angle_beta	89.911155
_cell_angle_gamma	89.873133
loop_
_atom_site_label
_atom_site_type_symbol
_atom_site_fract_x
_atom_site_fract_y
_atom_site_fract_z
Zn1	Zn	1.039579	0.343505	0.456027
Zn2	Zn	1.539579	0.843505	0.956027
Zn3	Zn	1.039492	0.456148	0.343374
Zn4	Zn	1.539492	0.956148	0.843374
Zn5	Zn	0.927792	0.333517	0.333406
Zn6	Zn	1.427792	0.833517	0.833406
Zn7	Zn	0.917325	0.455676	0.455559
Zn8	Zn	1.417325	0.955676	0.955559
O9	O	0.981047	0.397212	0.397092
O10	O	1.481047	0.897212	0.897092
O11	O	1.137478	0.362825	0.445451
O12	O	1.637478	0.862825	0.945451
O13	O	1.029019	0.435899	0.243785
O14	O	1.529019	0.935899	0.743785
O15	O	0.947037	0.236577	0.345696
O16	O	1.447037	0.736577	0.845696
O17	O	1.137414	0.445584	0.362686
O18	O	1.637414	0.945584	0.862686
O19	O	1.029167	0.243915	0.435786
O20	O	1.529167	0.743915	0.935786
O21	O	0.946953	0.345802	0.236461
O22	O	1.446953	0.845802	0.736461
O23	O	0.828492	0.345344	0.345242
O24	O	1.328492	0.845344	0.845242
O25	O	0.929198	0.444779	0.553888
O26	O	1.429198	0.944779	1.053888
O27	O	0.820802	0.435094	0.434987
O28	O	1.320802	0.935094	0.934987
O29	O	1.019017	0.362368	0.554232
O30	O	1.519017	0.862368	1.054232
O31	O	1.018870	0.554351	0.362231
O32	O	1.518870	1.054351	0.862231
O33	O	0.929114	0.554005	0.444653
O34	O	1.429114	1.054005	0.944653
C35	C	0.799260	0.389085	0.388983
C36	C	1.299260	0.889085	0.888983
C37	C	0.721489	0.385625	0.385531
C38	C	1.221489	0.885625	0.885531
C39	C	0.281836	0.363681	0.363667
C40	C	0.781836	0.863681	0.863667
C41	C	0.354909	0.366935	0.366914
C42	C	0.854909	0.866935	0.866914
C43	C	0.387458	0.415361	0.415193
C44	C	0.887458	0.915361	0.915193
C45	C	0.346929	0.460531	0.460233
C46	C	0.846929	0.960531	0.960233
C47	C	0.273857	0.457272	0.456989
C48	C	0.773857	0.957272	0.956989
C49	C	0.607889	0.427537	0.427326
C50	C	1.107889	0.927537	0.927326
C51	C	0.680966	0.430793	0.430566
C52	C	1.180966	0.930793	0.930566
C53	C	0.688941	0.337196	0.337247
C54	C	1.188941	0.837196	0.837247
C55	C	0.615867	0.333945	0.334005
C56	C	1.115867	0.833945	0.834005
C57	C	0.575345	0.379112	0.379047
C58	C	1.075345	0.879112	0.879047
C59	C	0.462151	0.418690	0.418512
C60	C	0.962151	0.918690	0.918512
C61	C	0.500654	0.375779	0.375731
C62	C	1.000654	0.875779	0.875731
C63	C	0.972865	0.579659	0.404489
C64	C	1.472865	1.079659	0.904489
C65	C	0.969427	0.657714	0.407680
C66	C	1.469427	1.157714	0.907680
C67	C	0.972950	0.404635	0.580252
C68	C	1.472950	0.904635	1.080252
C69	C	0.969499	0.407798	0.658304
C70	C	1.469499	0.907798	1.158304
C71	C	1.163543	0.405371	0.405233
C72	C	1.663543	0.905371	0.905233
C73	C	1.241312	0.408848	0.408702
C74	C	1.741312	0.908848	0.908702
C75	C	0.989279	0.214054	0.389681
C76	C	1.489279	0.714054	0.889681
C77	C	0.992787	0.136003	0.386524
C78	C	1.492787	0.636003	0.886524
C79	C	1.014577	0.694545	0.366305
C80	C	1.514577	1.194545	0.866305
C81	C	1.011348	0.767887	0.369311
C82	C	1.511348	1.267887	0.869311
C83	C	0.962966	0.804396	0.413688
C84	C	1.462966	1.304396	0.913688
C85	C	0.917815	0.767560	0.455067
C86	C	1.417815	1.267560	0.955067
C87	C	0.921047	0.694220	0.452065
C88	C	1.421047	1.194220	0.952065
C89	C	0.950869	1.025827	0.424901
C90	C	1.450869	1.525827	0.924901
C91	C	0.947638	1.099172	0.427898
C92	C	1.447638	1.599172	0.927898
C93	C	1.041173	1.099494	0.342143
C94	C	1.541173	1.599494	0.842143
C95	C	1.044398	1.026152	0.339142
C96	C	1.544398	1.526152	0.839142
C97	C	0.999249	0.989323	0.380523
C98	C	1.499249	1.489323	0.880523
C99	C	0.959663	0.879362	0.416759
C100	C	1.459663	1.379362	0.916759
C101	C	1.002556	0.914358	0.377455
C102	C	1.502556	1.414358	0.877455
C103	C	0.989155	0.389769	0.214643
C104	C	1.489155	0.889769	0.714643
C105	C	0.992750	0.386414	0.136590
C106	C	1.492750	0.886414	0.636590
C107	C	1.014640	0.366379	0.695153
C108	C	1.514640	0.866379	1.195153
C109	C	1.011389	0.369348	0.768491
C110	C	1.511389	0.869348	1.268491
C111	C	0.963001	0.413741	0.804978
C112	C	1.463001	0.913741	1.304978
C113	C	0.917855	0.455161	0.768124
C114	C	1.417855	0.955161	1.268124
C115	C	0.921103	0.452188	0.694787
C116	C	1.421103	0.952188	1.194787
C117	C	0.950852	0.424861	1.026399
C118	C	1.450852	0.924861	1.526399
C119	C	0.947609	0.427833	1.099740
C120	C	1.447609	0.927833	1.599740
C121	C	1.041143	0.342018	1.100103
C122	C	1.541143	0.842018	1.600103
C123	C	1.044389	0.339052	1.026765
C124	C	1.544389	0.839052	1.526765
C125	C	0.999241	0.380470	0.989916
C126	C	1.499241	0.880470	1.489916
C127	C	0.959678	0.416778	0.879942
C128	C	1.459678	0.916778	1.379942
C129	C	1.002560	0.377428	0.914954
C130	C	1.502560	0.877428	1.414954
H131	H	0.373436	0.499957	0.499546
H132	H	0.873436	0.999957	0.999546
F133	F	0.715605	0.482338	0.481953
F134	F	1.215605	0.982338	0.981953
H135	H	1.083794	0.302905	0.997062
H136	H	1.583794	0.802905	1.497062
F137	F	0.873056	0.496271	0.655570
F138	F	1.373056	0.996271	1.155570
F139	F	0.564771	0.475611	0.475262
F140	F	1.064771	0.975611	0.975262
F141	F	1.054049	0.875501	0.330231
F142	F	1.554049	1.375501	0.830231
H143	H	1.077899	0.308297	1.130112
H144	H	1.577899	0.808297	1.630112
H145	H	1.077931	1.129488	0.308453
H146	H	1.577931	1.629488	0.808453
F147	F	0.866326	0.806418	0.502300
F148	F	1.366326	1.306418	1.002300
H149	H	1.083795	0.996428	0.303006
H150	H	1.583795	1.496428	0.803006
H151	H	1.048113	0.797871	0.335619
H152	H	1.548113	1.297871	0.835619
H153	H	0.884283	0.664233	0.485757
H154	H	1.384283	1.164233	0.985757
F155	F	1.054051	0.330177	0.876120
F156	F	1.554051	0.830177	1.376120
F157	F	0.902816	0.986640	0.468943
F158	F	1.402816	1.486640	0.968943
F159	F	0.908172	0.918224	0.463986
F160	F	1.408172	1.418224	0.963986
H161	H	1.054045	0.330232	0.665451
H162	H	1.554045	0.830232	1.165451
H163	H	0.908247	1.128897	0.464048
H164	H	1.408247	1.628897	0.964048
H165	H	0.255340	0.324247	0.324352
H166	H	0.755340	0.824247	0.824352
H167	H	0.908203	0.463984	1.129446
H168	H	1.408203	0.963984	1.629446
F169	F	1.059457	0.325289	0.807708
F170	F	1.559457	0.825289	1.307708
H171	H	0.920283	0.452926	0.909658
H172	H	1.420283	0.952926	1.409658
F173	F	0.230730	0.505344	0.504923
F174	F	0.730730	1.005344	1.004923
F175	F	1.066068	0.655695	0.319069
F176	F	1.566068	1.155695	0.819069
F177	F	0.902801	0.468943	0.987191
F178	F	1.402801	0.968943	1.487191
H179	H	0.878454	0.491304	0.797837
H180	H	1.378454	0.991304	1.297837
F181	F	0.732072	0.289127	0.289316
F182	F	1.232072	0.789127	0.789316
H183	H	0.589371	0.294516	0.294686
H184	H	1.089371	0.794516	0.794686
F185	F	0.398034	0.318857	0.318986
F186	F	0.898034	0.818857	0.818986
H187	H	0.488660	0.458121	0.457819
H188	H	0.988660	0.958121	0.957819
F189	F	0.466011	0.324239	0.324353
F190	F	0.966011	0.824239	0.824353
