data_functionalizedCrystal
_audit_creation_method	'MofGen! by Chris Wilmer'
_symmetry_space_group_name_H-M	'P1'
_symmetry_Int_Tables_number	1
_symmetry_cell_setting	triclinic
loop_
_symmetry_equiv_pos_as_xyz
  x,y,z
_cell_length_a	10.654550
_cell_length_b	8.559649
_cell_length_c	7.088929
_cell_angle_alpha	84.655815
_cell_angle_beta	96.260641
_cell_angle_gamma	77.131784
loop_
_atom_site_label
_atom_site_type_symbol
_atom_site_fract_x
_atom_site_fract_y
_atom_site_fract_z
O1	O	1.630210	0.240465	-0.159131
O2	O	1.262528	0.261820	-0.159100
O3	O	1.478762	0.018900	-0.159116
O4	O	1.413976	0.483385	-0.159115
O5	O	1.507667	-0.013638	0.158857
O6	O	1.291433	0.229282	0.158873
O7	O	1.659115	0.207927	0.158841
Cu8	Cu	1.477913	0.215634	0.187891
Cu9	Cu	1.443730	0.254113	-0.188149
O10	O	1.442880	0.450847	0.158858
C11	C	1.498124	-0.056844	-0.000134
C12	C	1.512737	-0.234061	-0.000146
C13	C	1.230345	0.243983	-0.000109
C14	C	1.091387	0.239289	-0.000098
C15	C	0.997124	0.382321	-0.000125
C16	C	0.866557	0.377906	-0.000158
C17	C	0.924529	0.087416	-0.000144
C18	C	1.055094	0.091831	-0.000098
C19	C	1.033417	0.529779	-0.000125
C20	C	0.939152	0.672823	-0.000154
C21	C	0.808584	0.668408	-0.000187
C22	C	0.772282	0.520949	-0.000191
C23	C	1.691297	0.225765	-0.000153
C24	C	1.830254	0.230459	-0.000177
C25	C	1.423518	0.526592	-0.000128
C26	C	1.408904	0.703810	-0.000129
N27	N	1.501965	0.188568	0.452377
N28	N	1.419689	0.281167	-0.452635
H29	H	1.308827	-0.213804	-0.000114
N30	N	1.306730	0.408275	0.439252
H31	H	1.340432	0.487857	0.356181
H32	H	1.249534	0.355037	0.356333
H33	H	1.612822	-0.316459	-0.000139
N34	N	1.174241	0.534539	-0.000089
H35	H	1.182933	0.649653	-0.000090
H36	H	1.227679	0.466447	0.117805
H37	H	0.968720	0.792876	-0.000135
N38	N	1.614935	0.061466	0.560510
H39	H	1.613243	0.063387	0.702460
H40	H	1.608090	-0.048356	0.525631
N41	N	0.706922	0.822666	-0.000097
H42	H	0.749734	0.916739	-0.000055
H43	H	0.640755	0.839274	-0.117955
N44	N	1.156775	-0.062434	-0.000059
H45	H	1.113973	-0.156517	-0.000080
H46	H	1.201520	-0.054868	-0.117913
N47	N	0.631456	0.516192	-0.000204
H48	H	0.577927	0.584215	-0.118084
H49	H	0.622878	0.401035	-0.000137
H50	H	0.894957	-0.032635	-0.000179
