data_functionalizedCrystal
_audit_creation_method	'MofGen! by Chris Wilmer'
_symmetry_space_group_name_H-M	'P1'
_symmetry_Int_Tables_number	1
_symmetry_cell_setting	triclinic
loop_
_symmetry_equiv_pos_as_xyz
  x,y,z
_cell_length_a	6.817900
_cell_length_b	7.190339
_cell_length_c	17.078481
_cell_angle_alpha	87.381038
_cell_angle_beta	80.693839
_cell_angle_gamma	119.388276
loop_
_atom_site_label
_atom_site_type_symbol
_atom_site_fract_x
_atom_site_fract_y
_atom_site_fract_z
V1	V	4.066735	0.294598	-0.246802
O2	O	3.963708	-0.014669	-0.242681
O3	O	4.104324	0.584631	-0.244559
O4	O	3.996374	0.289842	-0.354694
O5	O	4.072406	0.282161	-0.131783
V6	V	4.542066	0.257633	-0.233112
O7	O	4.345962	0.375684	-0.276831
O8	O	4.713036	0.176546	-0.203083
O9	O	4.281270	-0.032400	-0.235355
O10	O	4.762489	0.566900	-0.237233
O11	O	4.653792	0.270069	-0.348130
O12	O	4.389220	0.262389	-0.125220
C13	C	3.833252	0.279306	-0.381009
C14	C	3.857577	0.277336	-0.469208
C15	C	4.053494	0.287058	-0.514665
C16	C	4.076337	0.285206	-0.597537
C17	C	3.903269	0.273647	-0.634950
C18	C	3.707333	0.263918	-0.589487
C19	C	3.684485	0.265755	-0.506616
C20	C	3.951813	0.266998	-0.882366
C21	C	3.974681	0.265169	-0.965244
C22	C	4.343682	0.286452	-0.973288
C23	C	4.320822	0.288301	-0.890416
C24	C	4.124884	0.278561	-0.844959
N25	N	3.926618	0.271761	-0.719659
N26	N	4.101531	0.280432	-0.760251
C27	C	3.970971	0.655344	-0.240526
C28	C	4.084948	0.896906	-0.239392
C29	C	4.215687	0.272932	-0.098900
C30	C	4.170598	0.274890	-0.010701
H31	H	4.503207	0.294379	-1.010308
F32	F	4.237710	0.299375	-0.474855
H33	H	4.461756	0.297711	-0.859959
F34	F	3.790467	0.252867	-1.005060
F35	F	3.523140	0.251615	-0.629307
F36	F	3.743304	0.256677	-0.834000
F37	F	3.475957	0.255392	-0.458236
H38	H	4.235864	0.293110	-0.634544
