data_functionalizedCrystal
_audit_creation_method	'MofGen! by Chris Wilmer'
_symmetry_space_group_name_H-M	'P1'
_symmetry_Int_Tables_number	1
_symmetry_cell_setting	triclinic
loop_
_symmetry_equiv_pos_as_xyz
  x,y,z
_cell_length_a	17.038272
_cell_length_b	15.995350
_cell_length_c	15.072220
_cell_angle_alpha	89.998899
_cell_angle_beta	89.989222
_cell_angle_gamma	92.698035
loop_
_atom_site_label
_atom_site_type_symbol
_atom_site_fract_x
_atom_site_fract_y
_atom_site_fract_z
O1	O	1.037421	-0.181819	-0.073740
O2	O	1.537421	0.318181	0.426260
O3	O	0.809790	-0.178931	-0.073749
O4	O	1.309790	0.321069	0.426251
O5	O	0.929828	-0.058931	-0.073744
O6	O	1.429828	0.441069	0.426256
O7	O	0.917383	-0.301819	-0.073746
O8	O	1.417383	0.198181	0.426254
O9	O	0.929798	-0.058936	0.073822
O10	O	1.429798	0.441064	0.573822
O11	O	0.809760	-0.178936	0.073816
O12	O	1.309760	0.321064	0.573816
O13	O	1.037391	-0.181824	0.073825
O14	O	1.537391	0.318176	0.573825
Zn15	Zn	0.923571	-0.180381	0.097250
Zn16	Zn	1.423571	0.319619	0.597250
Zn17	Zn	0.923610	-0.180374	-0.097174
Zn18	Zn	1.423610	0.319626	0.402826
O19	O	0.917353	-0.301824	0.073819
O20	O	1.417353	0.198176	0.573819
C21	C	0.780646	-0.176308	0.000032
C22	C	1.280646	0.323692	0.500032
C23	C	0.693851	-0.168474	0.000028
C24	C	1.193851	0.331526	0.500028
C25	C	0.929298	-0.027702	0.000037
C26	C	1.429298	0.472298	0.500037
C27	C	0.927756	0.065359	0.000032
C28	C	1.427756	0.565359	0.500032
C29	C	1.066535	-0.184447	0.000042
C30	C	1.566535	0.315553	0.500042
C31	C	1.153330	-0.192281	0.000040
C32	C	1.653330	0.307719	0.500040
C33	C	1.203426	-0.120353	0.000038
C34	C	1.703426	0.379647	0.500038
C35	C	1.284979	-0.127719	0.000041
C36	C	1.784979	0.372281	0.500041
C37	C	1.316433	-0.207014	0.000040
C38	C	1.816433	0.292986	0.500040
C39	C	1.266330	-0.278948	0.000045
C40	C	1.766330	0.221052	0.500045
C41	C	1.184779	-0.271581	0.000048
C42	C	1.684779	0.228419	0.500048
C43	C	1.562197	-0.233041	0.000036
C44	C	2.062197	0.266959	0.500036
C45	C	1.643754	-0.240402	0.000030
C46	C	2.143754	0.259598	0.500030
C47	C	1.662398	-0.089172	0.000028
C48	C	2.162398	0.410828	0.500028
C49	C	1.580844	-0.081812	0.000026
C50	C	2.080844	0.418188	0.500026
C51	C	1.530749	-0.153746	0.000035
C52	C	2.030749	0.346254	0.500035
C53	C	1.399792	-0.214546	0.000040
C54	C	1.899792	0.285454	0.500040
C55	C	1.447391	-0.146214	0.000041
C56	C	1.947391	0.353786	0.500041
C57	C	0.917883	-0.333053	0.000037
C58	C	1.417883	0.166947	0.500037
C59	C	0.919425	-0.426114	0.000036
C60	C	1.419425	0.073886	0.500036
N61	N	0.923550	-0.180385	0.229938
N62	N	1.423550	0.319615	0.729938
C63	C	0.922217	0.403501	0.000035
C64	C	1.422217	0.903501	0.500035
C65	C	0.836728	0.362156	-0.000300
C66	C	1.336728	0.862156	0.499700
C67	C	0.838270	0.265356	0.000033
C68	C	1.338270	0.765356	0.500033
C69	C	0.924964	0.235744	0.000033
C70	C	1.424964	0.735744	0.500033
C71	C	0.967114	0.273815	0.084300
C72	C	1.467114	0.773815	0.584300
C73	C	0.964966	0.370604	0.084371
C74	C	1.464966	0.870604	0.584371
C75	C	0.966766	0.370842	-0.083438
C76	C	1.466766	0.870842	0.416562
C77	C	0.966746	0.273898	-0.084552
C78	C	1.466746	0.773898	0.415448
C79	C	0.926522	0.140936	0.000035
C80	C	1.426522	0.640936	0.500035
C81	C	0.920662	0.498309	0.000039
C82	C	1.420662	0.998309	0.500039
N83	N	0.923637	-0.180364	-0.229863
N84	N	1.423637	0.319636	0.270137
C85	C	0.923608	-0.180371	0.589140
C86	C	1.423608	0.319629	1.089140
C87	C	0.859163	-0.244335	0.551530
C88	C	1.359163	0.255665	1.051530
C89	C	0.859310	-0.244596	0.448704
C90	C	1.359310	0.255404	0.948704
C91	C	0.923579	-0.180378	0.410936
C92	C	1.423579	0.319622	0.910936
C93	C	1.005158	-0.205271	0.448230
C94	C	1.505158	0.294729	0.948230
C95	C	1.004797	-0.205732	0.551088
C96	C	1.504797	0.294268	1.051088
C97	C	0.907202	-0.091363	0.551240
C98	C	1.407202	0.408637	1.051240
C99	C	0.905331	-0.091815	0.448377
C100	C	1.405331	0.408185	0.948377
C101	C	0.923567	-0.180381	0.310222
C102	C	1.423567	0.319619	0.810222
C103	C	0.923625	-0.180370	0.689853
C104	C	1.423625	0.319630	1.189853
H105	H	1.325765	-0.069147	0.000043
H106	H	1.825765	0.430853	0.500043
C107	C	1.412797	-0.058992	0.000041
C108	C	1.912797	0.441008	0.500041
H109	H	1.454310	-0.017204	0.000042
H110	H	1.954310	0.482796	0.500042
H111	H	1.381376	-0.052981	-0.051416
H112	H	1.881376	0.447019	0.448584
H113	H	1.381366	-0.052978	0.051509
H114	H	1.881366	0.447022	0.551509
C115	C	1.129670	-0.350700	0.000050
C116	C	1.629670	0.149300	0.500050
H117	H	1.076597	-0.334957	0.000061
H118	H	1.576597	0.165043	0.500061
H119	H	1.139208	-0.382977	-0.051409
H120	H	1.639208	0.117023	0.448591
H121	H	1.139199	-0.382973	0.051516
H122	H	1.639199	0.117027	0.551516
C123	C	1.546250	0.005413	0.000037
C124	C	2.046250	0.505413	0.500037
H125	H	1.587767	0.047197	0.000045
H126	H	2.087767	0.547197	0.500045
H127	H	1.514830	0.011436	-0.051418
H128	H	2.014830	0.511436	0.448582
H129	H	1.514821	0.011423	0.051507
H130	H	2.014821	0.511423	0.551507
H131	H	0.804890	0.239866	0.060539
H132	H	1.304890	0.739866	0.560539
H133	H	1.669361	-0.304977	0.000042
H134	H	2.169361	0.195023	0.500042
C135	C	1.071494	-0.144346	0.415175
C136	C	1.571494	0.355654	0.915175
H137	H	1.049975	-0.103091	0.378244
H138	H	1.549975	0.396909	0.878244
H139	H	1.096915	-0.117968	0.464550
H140	H	1.596915	0.382032	0.964550
H141	H	1.108512	-0.174396	0.382320
H142	H	1.608512	0.325604	0.882320
H143	H	0.798671	-0.228907	0.423491
H144	H	1.298671	0.271093	0.923491
C145	C	0.776978	-0.223388	0.584985
C146	C	1.276978	0.276612	1.084985
H147	H	0.781230	-0.175449	0.622195
H148	H	1.281230	0.324551	1.122195
H149	H	0.744215	-0.212303	0.535788
H150	H	1.244215	0.287697	1.035788
H151	H	0.754793	-0.269489	0.617635
H152	H	1.254793	0.230511	1.117635
C153	C	0.873119	-0.332893	0.586426
C154	C	1.373119	0.167107	1.086426
H155	H	0.918051	-0.331056	0.623814
H156	H	1.418051	0.168944	1.123814
H157	H	0.828487	-0.353027	0.619171
H158	H	1.328487	0.146973	1.119171
H159	H	0.881445	-0.369231	0.537815
H160	H	1.381445	0.130769	1.037815
C161	C	0.927536	0.238301	0.169019
C162	C	1.427536	0.738301	0.669019
H163	H	0.953464	0.261715	0.219660
H164	H	1.453464	0.761715	0.719660
H165	H	0.873918	0.252091	0.169775
H166	H	1.373918	0.752091	0.669775
H167	H	0.930823	0.179182	0.169891
H168	H	1.430823	0.679182	0.669891
C169	C	1.051910	0.407688	-0.084213
C170	C	1.551910	0.907688	0.415787
H171	H	1.060301	0.442807	-0.033943
H172	H	1.560301	0.942807	0.466057
H173	H	1.087233	0.363510	-0.082364
H174	H	1.587233	0.863510	0.417636
H175	H	1.060717	0.439500	-0.136804
H176	H	1.560717	0.939500	0.363196
C177	C	1.024321	-0.293661	0.583495
C178	C	1.524321	0.206339	1.083495
H179	H	1.024276	-0.294717	0.646517
H180	H	1.524276	0.205283	1.146517
H181	H	0.986010	-0.333590	0.561738
H182	H	1.486010	0.166410	1.061738
H183	H	1.074733	-0.306917	0.562229
H184	H	1.574733	0.193083	1.062229
C185	C	0.793500	0.230147	-0.081560
C186	C	1.293500	0.730147	0.418440
H187	H	0.774201	0.275012	-0.115207
H188	H	1.274201	0.775012	0.384793
H189	H	0.827957	0.199403	-0.117215
H190	H	1.327957	0.699403	0.382785
H191	H	0.750704	0.194316	-0.062589
H192	H	1.250704	0.694316	0.437411
C193	C	0.873467	-0.333659	0.415446
C194	C	1.373467	0.166341	0.915446
H195	H	0.879157	-0.369820	0.464799
H196	H	1.379157	0.130180	0.964799
H197	H	0.830047	-0.353315	0.380466
H198	H	1.330047	0.146685	0.880466
H199	H	0.919945	-0.332790	0.380566
H200	H	1.419945	0.167210	0.880566
H201	H	1.425412	-0.279109	0.000037
H202	H	1.925412	0.220891	0.500037
H203	H	1.177823	-0.055782	0.000033
H204	H	1.677823	0.444218	0.500033
C205	C	1.071522	-0.145598	0.584701
C206	C	1.571522	0.354402	1.084701
H207	H	1.098734	-0.121002	0.535491
H208	H	1.598734	0.378998	1.035491
H209	H	1.050024	-0.102922	0.619730
H210	H	1.550024	0.397078	1.119730
H211	H	1.106983	-0.175783	0.619605
H212	H	1.606983	0.324217	1.119605
C213	C	1.025156	-0.292250	0.413429
C214	C	1.525156	0.207750	0.913429
H215	H	0.983901	-0.313512	0.376182
H216	H	1.483901	0.186488	0.876182
H217	H	1.072741	-0.287749	0.380555
H218	H	1.572741	0.212251	0.880555
H219	H	1.031147	-0.329159	0.462087
H220	H	1.531147	0.170841	0.962087
C221	C	0.828568	-0.060991	0.586309
C222	C	1.328568	0.439009	1.086309
H223	H	0.805005	-0.102316	0.624396
H224	H	1.305005	0.397684	1.124396
H225	H	0.837701	-0.010322	0.618344
H226	H	1.337701	0.489678	1.118344
H227	H	0.794474	-0.051619	0.537814
H228	H	1.294474	0.448381	1.037814
C229	C	1.717503	-0.010052	0.000029
C230	C	2.217503	0.489948	0.500029
H231	H	1.770577	-0.025793	0.000034
H232	H	2.270577	0.474207	0.500034
H233	H	1.707977	0.022229	-0.051427
H234	H	2.207977	0.522229	0.448573
H235	H	1.707959	0.022216	0.051498
H236	H	2.207959	0.522216	0.551498
H237	H	0.845320	-0.073059	0.424002
H238	H	1.345320	0.426941	0.924002
H239	H	1.291946	-0.343513	0.000050
H240	H	1.791946	0.156487	0.500050
C241	C	0.790576	0.390489	-0.081925
C242	C	1.290576	0.890489	0.418075
H243	H	0.823025	0.427791	-0.116531
H244	H	1.323025	0.927791	0.383469
H245	H	0.774859	0.343035	-0.116628
H246	H	1.274859	0.843035	0.383372
H247	H	0.745371	0.418144	-0.062970
H248	H	1.245371	0.918144	0.437030
H249	H	0.949221	-0.041536	0.422670
H250	H	1.449221	0.458464	0.922670
H251	H	1.521419	-0.291615	0.000040
H252	H	2.021419	0.208385	0.500040
C253	C	0.925187	0.239976	-0.168774
C254	C	1.425187	0.739976	0.331226
H255	H	0.950733	0.263285	-0.219716
H256	H	1.450733	0.763285	0.280284
H257	H	0.927291	0.180754	-0.170321
H258	H	1.427291	0.680754	0.329679
H259	H	0.871897	0.254971	-0.168248
H260	H	1.371897	0.754971	0.331752
H261	H	0.802698	0.384171	0.059791
H262	H	1.302698	0.884171	0.559791
C263	C	0.970683	-0.026964	0.584101
C264	C	1.470683	0.473036	1.084101
H265	H	1.007013	-0.054142	0.620740
H266	H	1.507013	0.445858	1.120740
H267	H	0.997560	-0.002439	0.534636
H268	H	1.497560	0.497561	1.034636
H269	H	0.946637	0.015410	0.617220
H270	H	1.446637	0.515410	1.117220
H271	H	0.934206	0.391094	0.147362
H272	H	1.434206	0.891094	0.647362
C273	C	0.929030	0.401276	-0.169724
C274	C	1.429030	0.901276	0.330276
H275	H	0.956791	0.380881	-0.219284
H276	H	1.456791	0.880881	0.280716
H277	H	0.875772	0.381008	-0.172314
H278	H	1.375772	0.881008	0.327686
H279	H	0.931254	0.460724	-0.170807
H280	H	1.431254	0.960724	0.329193
C281	C	1.049749	0.408133	0.089553
C282	C	1.549749	0.908133	0.589553
H283	H	1.085351	0.364213	0.091613
H284	H	1.585351	0.864213	0.591613
H285	H	1.060545	0.441885	0.038742
H286	H	1.560545	0.941885	0.538742
H287	H	1.055659	0.441443	0.141520
H288	H	1.555659	0.941443	0.641520
C289	C	1.052162	0.247090	-0.091419
C290	C	1.552162	0.747090	0.408581
H291	H	1.075940	0.271037	-0.143086
H292	H	1.575940	0.771037	0.356914
H293	H	1.080651	0.265881	-0.040456
H294	H	1.580651	0.765881	0.459544
H295	H	1.052591	0.187815	-0.094957
H296	H	1.552591	0.687815	0.405043
C297	C	1.053152	0.248601	0.088544
C298	C	1.553152	0.748601	0.588544
H299	H	1.064157	0.214547	0.038845
H300	H	1.564157	0.714547	0.538845
H301	H	1.087054	0.297473	0.087764
H302	H	1.587054	0.797473	0.587764
H303	H	1.061320	0.218210	0.141639
H304	H	1.561320	0.718210	0.641639
