data_functionalizedCrystal
_audit_creation_method	'MofGen! by Chris Wilmer'
_symmetry_space_group_name_H-M	'P1'
_symmetry_Int_Tables_number	1
_symmetry_cell_setting	triclinic
loop_
_symmetry_equiv_pos_as_xyz
  x,y,z
_cell_length_a	16.704494
_cell_length_b	27.440280
_cell_length_c	16.704495
_cell_angle_alpha	85.840603
_cell_angle_beta	54.477050
_cell_angle_gamma	63.425370
loop_
_atom_site_label
_atom_site_type_symbol
_atom_site_fract_x
_atom_site_fract_y
_atom_site_fract_z
Zr1	Zr	0.878466	0.503610	-0.150436
O2	O	1.045927	0.437072	-0.287229
O3	O	0.711013	0.520114	-0.102526
O4	O	0.878459	0.533130	-0.278591
O5	O	0.878485	0.418217	0.020923
O6	O	0.878443	0.613331	-0.278574
O7	O	0.878482	0.424055	-0.111164
O8	O	0.578913	0.590048	0.036374
O9	O	1.178014	0.441501	-0.294026
O10	O	0.779874	0.591710	-0.089299
O11	O	0.779888	0.527499	0.009263
O12	O	0.977033	0.542824	-0.198031
O13	O	0.977047	0.478614	-0.099469
Zr14	Zr	0.878446	0.622211	0.060255
Zr15	Zr	0.878441	0.631522	-0.150408
Zr16	Zr	0.878470	0.494298	0.060228
Zr17	Zr	1.089129	0.510674	-0.161275
Zr18	Zr	0.667783	0.615147	0.071095
O19	O	1.045899	0.605707	0.012346
O20	O	1.045892	0.618946	-0.287190
O21	O	1.045934	0.423832	0.012307
O22	O	0.710984	0.688749	0.197049
O23	O	0.710978	0.701988	-0.102487
O24	O	0.711019	0.506874	0.197010
O25	O	0.878427	0.707603	-0.111103
O26	O	0.878453	0.592690	0.188411
O27	O	0.878469	0.512489	0.188394
O28	O	0.878430	0.701765	0.020984
O29	O	1.177995	0.543174	-0.294004
O30	O	0.578917	0.582646	0.203823
O31	O	0.578897	0.684319	0.203845
O32	O	0.578894	0.691721	0.036396
O33	O	1.178018	0.434099	-0.126577
O34	O	1.177998	0.535773	-0.126555
O35	O	0.779878	0.582996	0.107851
O36	O	0.779865	0.647206	0.009289
O37	O	0.977024	0.598321	-0.099443
O38	O	0.977038	0.534110	-0.000881
C39	C	0.614948	0.554074	-0.031532
C40	C	0.525516	0.551075	-0.026930
C41	C	0.357433	0.612490	-0.121175
C42	C	0.273404	0.609674	-0.116854
C43	C	0.273420	0.542631	-0.013961
C44	C	0.357450	0.545447	-0.018282
C45	C	0.399455	0.580377	-0.071892
C46	C	0.483491	0.583189	-0.076219
C47	C	0.483501	0.516150	0.026680
C48	C	0.399471	0.513334	0.031001
C49	C	0.878487	0.402912	-0.045125
C50	C	0.878497	0.348609	-0.045136
C51	C	0.775522	0.037424	0.011695
C52	C	0.775516	-0.013595	0.011704
O53	O	0.687990	-0.018282	0.060004
N54	N	0.878430	-0.064629	-0.045054
C55	C	0.981357	-0.064644	-0.101816
O56	O	1.068892	-0.112738	-0.150092
C57	C	0.981362	-0.013626	-0.101819
C58	C	0.878441	0.037408	-0.045066
C59	C	0.672610	0.088456	0.068445
C60	C	0.672616	0.139472	0.068434
C61	C	0.775535	0.139455	0.011673
C62	C	0.878448	0.088424	-0.045076
C63	C	1.084288	-0.013641	-0.158575
C64	C	1.084284	0.037382	-0.158572
C65	C	0.981363	0.088416	-0.101819
C66	C	0.981374	0.139423	-0.101848
N67	N	0.878460	0.190457	-0.045090
C68	C	0.775540	0.190473	0.011671
C69	C	0.981338	-0.171784	-0.101805
C70	C	0.981334	-0.222801	-0.101809
C71	C	0.775493	-0.171748	0.011713
C72	C	0.775498	-0.120730	0.011711
C73	C	0.878424	-0.120749	-0.045047
C74	C	0.775562	0.297608	0.011643
C75	C	0.775578	0.348626	0.011624
C76	C	0.981419	0.297568	-0.101893
C77	C	0.981404	0.246555	-0.101879
C78	C	0.878466	0.246578	-0.045103
O79	O	1.068854	0.144153	-0.150119
O80	O	0.688019	0.238569	0.059949
C81	C	1.141964	0.571746	-0.058649
C82	C	1.231396	0.574745	-0.063250
C83	C	0.878450	0.574557	-0.308598
C84	C	0.878448	0.578510	-0.398030
C85	C	0.878425	0.722909	-0.045056
C86	C	0.878415	0.777211	-0.045044
C87	C	0.878482	0.497555	-0.566114
C88	C	0.878481	0.501267	-0.650144
C89	C	0.878451	0.589643	-0.650124
C90	C	0.878453	0.585932	-0.566095
C91	C	0.878467	0.539886	-0.524092
C92	C	0.878460	0.536177	-0.440056
C93	C	0.878439	0.624551	-0.440043
C94	C	0.878437	0.628263	-0.524072
C95	C	0.878462	0.551263	0.218417
C96	C	0.878464	0.547310	0.307849
C97	C	0.614917	0.714073	-0.031497
C98	C	0.525475	0.765376	-0.026884
C99	C	0.614954	0.542427	0.231976
C100	C	0.525524	0.535475	0.326010
C101	C	0.614923	0.702426	0.232011
C102	C	0.525482	0.749776	0.326056
C103	C	1.141989	0.423395	-0.322191
C104	C	1.231429	0.376044	-0.416236
C105	C	1.141994	0.411747	-0.058683
C106	C	1.231437	0.360444	-0.063297
C107	C	1.141958	0.583393	-0.322156
C108	C	1.231388	0.590345	-0.416190
C109	C	0.483476	0.760500	-0.076188
C110	C	0.399447	0.808702	-0.071873
C111	C	0.357412	0.861777	-0.018248
C112	C	0.399419	0.866652	0.031057
C113	C	0.483452	0.818452	0.026736
C114	C	0.483522	0.561179	0.421640
C115	C	0.399504	0.554645	0.510002
C116	C	0.357485	0.522410	0.502732
C117	C	0.399495	0.496703	0.407092
C118	C	0.483517	0.503234	0.318732
C119	C	0.483473	0.805535	0.318772
C120	C	0.399446	0.850031	0.407129
C121	C	0.357424	0.838767	0.502769
C122	C	0.399441	0.783003	0.510051
C123	C	0.483473	0.738508	0.421694
C124	C	1.273449	0.320286	-0.408953
C125	C	1.357502	0.275791	-0.497312
C126	C	1.399529	0.287055	-0.592952
C127	C	1.357506	0.342819	-0.600233
C128	C	1.273460	0.387313	-0.511876
C129	C	1.273444	0.365321	-0.014002
C130	C	1.357496	0.317121	-0.018341
C131	C	1.399534	0.264046	-0.071969
C132	C	1.357524	0.259171	-0.121270
C133	C	1.273479	0.307370	-0.116937
C134	C	1.273381	0.622583	-0.408887
C135	C	1.357399	0.629126	-0.497233
C136	C	1.399428	0.603427	-0.592881
C137	C	1.357427	0.571187	-0.600181
C138	C	1.273405	0.564648	-0.511836
H139	H	0.517728	0.489999	0.066805
H140	H	1.239173	0.643512	-0.331014
H141	H	0.289000	0.875003	0.574707
O142	O	0.354076	0.923898	0.088900
H143	H	0.261378	0.943008	0.150542
O144	O	1.228135	0.308130	-0.305804
H145	H	1.271497	0.261880	-0.315601
O146	O	1.228149	0.447457	-0.519722
H147	H	1.135449	0.467515	-0.479126
H148	H	0.691690	-0.171743	0.057928
H149	H	1.065210	0.205001	-0.148105
O150	O	1.228121	0.529875	-0.519727
H151	H	1.162625	0.529645	-0.442232
O152	O	1.490191	0.239062	-0.688250
H153	H	1.512341	0.198399	-0.667108
O154	O	0.528755	0.678369	0.429571
H155	H	0.621452	0.658307	0.388991
H156	H	0.878451	0.627129	-0.684340
O157	O	0.878421	0.670211	-0.394714
H158	H	0.801454	0.711187	-0.368394
H159	H	1.065213	0.297565	-0.148110
O160	O	0.664539	0.297637	0.072874
H161	H	0.659615	0.278013	0.021182
O162	O	0.402760	0.650154	-0.179008
H163	H	0.386641	0.681846	-0.126227
H164	H	0.517694	0.611629	-0.119874
O165	O	0.354130	0.461955	0.399275
H166	H	0.370239	0.426384	0.434276
H167	H	0.365215	0.773839	0.587932
O168	O	1.402798	0.215648	-0.489447
H169	H	1.359430	0.215294	-0.408095
H170	H	1.391661	0.550265	-0.678070
O171	O	1.402830	0.354965	-0.703389
H172	H	1.468320	0.314654	-0.763596
O173	O	0.354148	0.910178	0.399282
H174	H	0.261443	0.930244	0.439895
O175	O	0.528811	0.703260	-0.134044
H176	H	0.594300	0.670556	-0.128771
H177	H	0.289069	0.517096	0.574688
O178	O	1.228128	0.422565	0.043826
H179	H	1.271484	0.417850	0.077354
H180	H	0.878430	0.665751	-0.558283
H181	H	0.365256	0.804721	-0.112024
O182	O	0.228086	0.644304	-0.170018
H183	H	0.271422	0.669061	-0.208027
H184	H	0.517675	0.814717	0.240906
O185	O	0.228110	0.504959	0.043858
H186	H	0.162624	0.508396	0.038576
O187	O	0.664487	-0.065691	0.072931
H188	H	0.659556	-0.038824	0.021236
H189	H	0.878467	0.498686	-0.405856
H190	H	1.168097	-0.055187	-0.204789
O191	O	0.354173	0.475657	0.088814
H192	H	0.288689	0.479089	0.083533
O193	O	1.402785	0.322384	0.034851
H194	H	1.359410	0.367388	0.072886
H195	H	0.878483	0.460066	-0.531909
H196	H	0.288986	0.901021	-0.014737
O197	O	0.528731	0.823712	0.079935
H198	H	0.485367	0.868717	0.117957
O199	O	1.092341	-0.171788	-0.163053
H200	H	1.141729	-0.196222	-0.135891
O201	O	0.354188	0.582385	0.613146
H202	H	0.424736	0.566330	0.618049
H203	H	1.467969	0.224803	-0.075489
H204	H	1.391587	0.655378	-0.491270
H205	H	1.168101	0.037360	-0.204780
H206	H	1.391764	0.215950	-0.164933
O207	O	0.664568	0.403672	0.072836
H208	H	0.615219	0.403721	0.154467
O209	O	0.561609	0.194513	0.129653
H210	H	0.490052	0.185943	0.169125
H211	H	0.588796	0.088479	0.114671
H212	H	1.467845	0.608756	-0.664810
H213	H	0.517724	0.587427	0.427578
O214	O	1.228170	0.302101	-0.170100
H215	H	1.244291	0.326899	-0.227811
O216	O	1.092340	-0.277842	-0.163030
H217	H	1.163901	-0.269276	-0.202492
H218	H	0.517704	0.482304	0.240869
O219	O	0.878527	0.455604	-0.695488
H220	H	0.878542	0.422963	-0.652163
