data_functionalizedCrystal
_audit_creation_method	'MofGen! by Chris Wilmer'
_symmetry_space_group_name_H-M	'P1'
_symmetry_Int_Tables_number	1
_symmetry_cell_setting	triclinic
loop_
_symmetry_equiv_pos_as_xyz
  x,y,z
_cell_length_a	10.540514
_cell_length_b	17.699083
_cell_length_c	16.176319
_cell_angle_alpha	90.001389
_cell_angle_beta	89.996385
_cell_angle_gamma	96.100913
loop_
_atom_site_label
_atom_site_type_symbol
_atom_site_fract_x
_atom_site_fract_y
_atom_site_fract_z
O1	O	0.160522	-1.005114	-0.068625
O2	O	0.181407	-0.784870	-0.068651
O3	O	-0.013836	-0.900027	-0.068639
O4	O	0.355765	-0.889957	-0.068638
O5	O	-0.013848	-0.900011	0.068855
O6	O	0.181394	-0.784854	0.068842
O7	O	0.160510	-1.005098	0.068868
Cu8	Cu	0.170951	-0.894974	0.081409
Cu9	Cu	0.170966	-0.894993	-0.081192
O10	O	0.355753	-0.889941	0.068856
C11	C	0.180652	-0.756660	0.000092
C12	C	0.178407	-0.672628	0.000082
C13	C	-0.061132	-0.899267	0.000106
C14	C	-0.202040	-0.897020	0.000100
C15	C	-0.274252	-0.979379	0.000112
C16	C	-0.420823	-0.977069	0.000429
C17	C	-0.393564	-0.852221	0.078463
C18	C	-0.247077	-0.855114	0.078524
C19	C	-0.246643	-0.853914	-0.077837
C20	C	-0.393607	-0.853119	-0.078862
C21	C	0.161265	-1.033308	0.000123
C22	C	0.163510	-1.117340	0.000128
C23	C	0.403049	-0.890700	0.000109
C24	C	0.543957	-0.892947	0.000110
N25	N	0.170940	-0.894967	0.195775
C26	C	0.293011	-0.624746	0.000082
C27	C	0.290894	-0.545789	0.000093
C28	C	0.174172	-0.514715	0.000097
C29	C	0.059560	-0.562603	0.000099
C30	C	0.061678	-0.641559	0.000094
C31	C	0.051014	-0.244185	0.000119
C32	C	0.048905	-0.165224	0.000122
C33	C	0.280230	-0.148415	0.000118
C34	C	0.282348	-0.227370	0.000113
C35	C	0.167737	-0.275252	0.000120
C36	C	0.170034	-0.360866	0.000110
C37	C	0.171874	-0.429103	0.000101
N38	N	0.170967	-0.895007	-0.195557
C39	C	0.084522	-0.945974	0.239044
C40	C	0.084520	-0.945977	0.325591
C41	C	0.170944	-0.894977	0.368867
C42	C	0.257367	-0.843965	0.325591
C43	C	0.257361	-0.843958	0.239046
C44	C	0.257391	-0.843991	0.674620
C45	C	0.257392	-0.844003	0.761171
C46	C	0.084550	-0.946010	0.761165
C47	C	0.084544	-0.946003	0.674620
C48	C	0.170961	-0.894989	0.631351
C49	C	0.170960	-0.894984	0.537507
C50	C	0.170953	-0.894985	0.462710
H51	H	-0.464070	-1.009102	-0.055724
H52	H	0.377395	-0.252666	0.000106
H53	H	0.384215	-0.506806	0.000092
H54	H	-0.035477	-0.537297	0.000114
H55	H	-0.046150	-0.139927	0.000126
H56	H	-0.031644	-0.680544	0.000093
H57	H	0.388059	-0.650039	0.000078
H58	H	-0.197965	-0.794616	0.081858
H59	H	0.014151	-0.987507	0.203815
H60	H	0.014174	-0.987535	0.639387
H61	H	0.014180	-0.987547	0.796404
H62	H	0.014151	-0.987511	0.360821
H63	H	0.373552	-0.109420	0.000117
H64	H	-0.042310	-0.283161	0.000125
H65	H	0.327771	-0.802470	0.796405
H66	H	0.327731	-0.802436	0.360831
H67	H	0.327757	-0.802454	0.639397
H68	H	0.327730	-0.802422	0.203816
H69	H	-0.244542	-1.012316	0.056183
H70	H	-0.463142	-1.008951	0.056934
H71	H	-0.246338	-1.012791	-0.056076
H72	H	-0.414748	-0.790435	0.081149
H73	H	-0.436637	-0.880150	0.137004
H74	H	-0.215643	-0.881335	-0.137246
H75	H	-0.219401	-0.884845	0.137326
H76	H	-0.435143	-0.882883	-0.136828
H77	H	-0.198291	-0.793162	-0.078594
H78	H	-0.416680	-0.791806	-0.083837
