data_functionalizedCrystal
_audit_creation_method	'MofGen! by Chris Wilmer'
_symmetry_space_group_name_H-M	'P1'
_symmetry_Int_Tables_number	1
_symmetry_cell_setting	triclinic
loop_
_symmetry_equiv_pos_as_xyz
  x,y,z
_cell_length_a	17.917559
_cell_length_b	20.919309
_cell_length_c	17.917559
_cell_angle_alpha	90.204862
_cell_angle_beta	60.143536
_cell_angle_gamma	60.558807
loop_
_atom_site_label
_atom_site_type_symbol
_atom_site_fract_x
_atom_site_fract_y
_atom_site_fract_z
Zr1	Zr	0.748106	0.676192	-0.096974
O2	O	0.901360	0.581142	-0.221985
O3	O	0.593767	0.700773	-0.054181
O4	O	0.734554	0.712795	-0.209000
O5	O	0.771641	0.564820	0.049873
O6	O	0.725098	0.821830	-0.203844
O7	O	0.760573	0.569119	-0.067166
O8	O	0.473255	0.800325	0.073101
O9	O	1.023484	0.586326	-0.227071
O10	O	0.650593	0.798134	-0.037483
O11	O	0.665910	0.713554	0.046013
O12	O	0.831669	0.727709	-0.136267
O13	O	0.846986	0.643129	-0.052771
Zr14	Zr	0.750677	0.843233	0.097913
Zr15	Zr	0.733024	0.850090	-0.088750
Zr16	Zr	0.765758	0.669335	0.089688
Zr17	Zr	0.942879	0.684460	-0.105086
Zr18	Zr	0.555904	0.834965	0.106024
O19	O	0.905016	0.818652	0.055119
O20	O	0.879916	0.828402	-0.210292
O21	O	0.926460	0.571392	0.043425
O22	O	0.597422	0.938284	0.222924
O23	O	0.572323	0.948034	-0.042487
O24	O	0.618866	0.691023	0.211230
O25	O	0.727141	0.954606	-0.048935
O26	O	0.764229	0.806630	0.209939
O27	O	0.773685	0.697595	0.204782
O28	O	0.738209	0.950306	0.068104
O29	O	1.011496	0.724551	-0.220534
O30	O	0.487287	0.794874	0.221473
O31	O	0.475299	0.933100	0.228010
O32	O	0.461267	0.938550	0.079638
O33	O	1.037515	0.580875	-0.078699
O34	O	1.025527	0.719101	-0.072162
O35	O	0.667113	0.791717	0.137206
O36	O	0.651796	0.876297	0.053710
O37	O	0.832872	0.805872	-0.045075
O38	O	0.848189	0.721292	0.038422
C39	C	0.505760	0.749371	0.010616
C40	C	0.423074	0.745861	0.014059
C41	C	0.227163	0.779920	-0.019470
C42	C	0.271624	0.739508	0.020406
C43	C	0.355898	0.743044	0.016874
C44	C	0.142881	0.776385	-0.015938
C45	C	0.768256	0.542193	-0.009818
C46	C	0.774659	0.468368	-0.013309
C47	C	0.683149	0.470445	0.036610
C48	C	0.689171	0.401077	0.033327
C49	C	0.786704	0.329633	-0.019881
C50	C	0.878220	0.327558	-0.069802
C51	C	0.872198	0.396926	-0.066513
C52	C	0.809618	0.118350	-0.032385
C53	C	0.815633	0.048981	-0.035672
C54	C	0.626584	0.122504	0.067459
C55	C	0.620569	0.191869	0.070739
C56	C	0.712086	0.189789	0.020821
C57	C	0.792862	0.258727	-0.023240
C58	C	0.705928	0.260694	0.024186
C59	C	0.993022	0.770055	-0.009677
C60	C	1.075709	0.773565	-0.013121
C61	C	0.727311	0.768290	-0.233018
C62	C	0.719817	0.771201	-0.312261
C63	C	0.730526	0.977233	0.010756
C64	C	0.724124	1.051057	0.014248
C65	C	0.792644	0.742892	-0.541691
C66	C	0.706143	0.776532	-0.457368
C67	C	0.713754	0.773565	-0.376624
C68	C	0.785035	0.745858	-0.622444
C69	C	0.771472	0.751136	0.233956
C70	C	0.778966	0.748225	0.313199
C71	C	0.486895	0.966891	0.020903
C72	C	0.397806	1.037205	0.027838
C73	C	0.527841	0.740794	0.244103
C74	C	0.452648	0.734373	0.326789
C75	C	0.508976	0.958314	0.254390
C76	C	0.427381	1.025717	0.340568
C77	C	0.989807	0.561112	-0.253451
C78	C	1.071402	0.493709	-0.339630
C79	C	1.011887	0.552535	-0.019965
C80	C	1.100976	0.482220	-0.026900
C81	C	0.970942	0.778632	-0.243164
C82	C	1.046134	0.785053	-0.325851
C83	C	0.355341	1.029426	-0.016515
C84	C	0.271642	1.095488	-0.010017
C85	C	0.230406	1.169329	0.040840
C86	C	0.272879	1.177107	0.085194
C87	C	0.356581	1.111046	0.078690
C88	C	0.417966	0.772157	0.413230
C89	C	0.347327	0.766121	0.490929
C90	C	0.311365	0.722305	0.482187
C91	C	0.346055	0.684516	0.395738
C92	C	0.416699	0.690548	0.318040
C93	C	0.381067	1.101528	0.337455
C94	C	0.304410	1.164868	0.418421
C95	C	0.274062	1.152395	0.502500
C96	C	0.320384	1.076577	0.505611
C97	C	0.397045	1.013239	0.424646
C98	C	1.117725	0.417898	-0.336517
C99	C	1.194407	0.354559	-0.417484
C100	C	1.224758	0.367032	-0.501563
C101	C	1.178431	0.442850	-0.504674
C102	C	1.101756	0.506188	-0.423708
C103	C	1.143449	0.490001	0.017445
C104	C	1.227167	0.423940	0.010926
C105	C	1.268406	0.350100	-0.039934
C106	C	1.225929	0.342321	-0.084284
C107	C	1.142217	0.408381	-0.077769
C108	C	1.082073	0.828876	-0.317080
C109	C	1.152713	0.834924	-0.394765
C110	C	1.187419	0.797144	-0.481220
C111	C	1.151473	0.753320	-0.489990
C112	C	1.080828	0.747277	-0.412305
H113	H	0.614655	0.402774	0.073978
N114	N	0.260590	0.829253	-0.068218
H115	H	0.219182	0.855730	-0.094345
H116	H	0.247373	0.869800	-0.023757
N117	N	0.191362	1.220720	0.589817
H118	H	0.130273	1.216705	0.628338
H119	H	0.221855	1.220563	0.624469
H120	H	1.051575	0.711589	-0.419460
H121	H	1.232114	0.292831	-0.414933
H122	H	0.295664	1.066433	0.574080
N123	N	0.577952	0.547501	0.093991
H124	H	0.520896	0.538287	0.125117
H125	H	0.575479	0.576273	0.141453
H126	H	0.246400	0.702250	0.057193
N127	N	1.044635	0.869642	-0.223838
H128	H	0.994424	0.859172	-0.175946
H129	H	1.106550	0.849616	-0.220461
N130	N	0.515373	0.268926	0.128115
H131	H	0.458313	0.259716	0.159239
H132	H	0.512892	0.297704	0.175578
N133	N	1.307457	0.298714	-0.588888
H134	H	1.332190	0.248798	-0.574149
H135	H	1.276974	0.298912	-0.623564
H136	H	0.237070	1.089139	-0.046136
H137	H	1.203153	0.452997	-0.573141
H138	H	0.239292	1.237237	0.126600
H139	H	0.391147	1.117391	0.114813
N140	N	1.051792	0.587954	-0.427072
H141	H	1.082658	0.586236	-0.492624
H142	H	0.973881	0.614207	-0.393480
H143	H	0.552076	0.124189	0.108099
H144	H	0.895060	-0.009193	-0.079004
N145	N	1.358690	0.278848	-0.046955
H146	H	1.420703	0.282511	-0.075585
H147	H	1.337392	0.275449	0.015949
N148	N	0.235160	0.715815	0.566001
H149	H	0.168593	0.737256	0.569871
H150	H	0.267267	0.659426	0.562152
H151	H	0.434745	0.951512	0.427193
N152	N	1.096394	0.399988	-0.125585
H153	H	1.103234	0.429129	-0.170763
H154	H	1.135246	0.343169	-0.158734
N155	N	1.270402	0.262675	-0.139124
H156	H	1.213950	0.252784	-0.113036
H157	H	1.297183	0.259924	-0.204548
H158	H	1.109880	0.550119	0.058865
N159	N	1.085013	0.404432	-0.245840
H160	H	1.029411	0.456054	-0.195012
H161	H	1.056160	0.372132	-0.239055
N162	N	1.272970	0.432340	0.058764
H163	H	1.234131	0.489142	0.091977
H164	H	1.266126	0.403151	0.103889
N165	N	0.454161	0.649745	0.224804
H166	H	0.420674	0.621060	0.231064
H167	H	0.434180	0.689341	0.194282
N168	N	1.263608	0.803677	-0.564997
H169	H	1.330163	0.782248	-0.568848
H170	H	1.280065	0.773107	-0.621058
H171	H	0.872409	0.711866	-0.553241
H172	H	1.181973	0.870608	-0.387607
N173	N	0.399805	0.949788	-0.071368
H174	H	0.360195	0.954896	-0.098477
H175	H	0.476118	0.924153	-0.121898
N176	N	1.188910	0.712574	-0.583241
H177	H	1.239119	0.723054	-0.631115
H178	H	1.225597	0.654791	-0.594294
H179	H	0.884136	0.116646	-0.073047
N180	N	0.983414	0.250500	-0.127182
H181	H	0.985981	0.221693	-0.174696
H182	H	1.040415	0.259771	-0.158245
N183	N	0.970897	0.394690	-0.120352
H184	H	1.033598	0.338905	-0.154560
H185	H	0.968370	0.423483	-0.165084
N186	N	0.600735	0.337748	0.081563
H187	H	0.543671	0.328543	0.112688
H188	H	0.598262	0.366520	0.129025
N189	N	0.898050	0.181665	-0.080624
H190	H	0.900607	0.152860	-0.128130
H191	H	0.955058	0.190929	-0.111696
H192	H	0.162249	1.223113	0.046129
H193	H	0.447238	0.807837	0.420365
N194	N	0.600473	0.817633	-0.442058
H195	H	0.609946	0.813952	-0.502750
H196	H	0.563941	0.792364	-0.408494
N197	N	0.309908	0.806887	0.584166
H198	H	0.371778	0.786876	0.587613
H199	H	0.273157	0.864673	0.595229
H200	H	0.405763	1.111698	0.269001
N201	N	0.307251	0.637269	0.386316
H202	H	0.368553	0.581568	0.348149
H203	H	0.257214	0.639253	0.448691
H204	H	0.266701	1.226597	0.415872
