data_functionalizedCrystal
_audit_creation_method	'MofGen! by Chris Wilmer'
_symmetry_space_group_name_H-M	'P1'
_symmetry_Int_Tables_number	1
_symmetry_cell_setting	triclinic
loop_
_symmetry_equiv_pos_as_xyz
  x,y,z
_cell_length_a	21.395362
_cell_length_b	14.908520
_cell_length_c	21.395356
_cell_angle_alpha	93.271115
_cell_angle_beta	89.957023
_cell_angle_gamma	93.337688
loop_
_atom_site_label
_atom_site_type_symbol
_atom_site_fract_x
_atom_site_fract_y
_atom_site_fract_z
Zn1	Zn	0.943511	-0.358806	-0.368962
Zn2	Zn	0.937384	-0.509674	-0.270229
Zn3	Zn	0.838725	-0.358873	-0.264166
Zn4	Zn	0.832664	-0.509669	-0.374933
O5	O	0.888071	-0.434255	-0.319572
O6	O	1.030377	-0.378794	-0.355903
O7	O	0.924269	-0.489700	-0.181748
O8	O	0.857725	-0.232617	-0.273030
O9	O	1.025876	-0.489636	-0.283364
O10	O	0.934711	-0.232568	-0.350023
O11	O	0.851784	-0.378907	-0.177293
O12	O	0.750242	-0.378901	-0.278821
O13	O	0.847396	-0.489626	-0.461818
O14	O	0.745789	-0.489690	-0.360201
O15	O	0.928834	-0.378789	-0.457430
O16	O	0.918392	-0.635921	-0.289155
O17	O	0.841455	-0.635917	-0.366081
C18	C	0.725281	-0.434303	-0.319502
C19	C	0.655638	-0.434345	-0.319487
C20	C	0.878618	-0.668653	-0.328937
C21	C	0.874632	-0.768929	-0.332965
C22	C	0.620620	-0.492110	-0.361805
C23	C	0.555186	-0.492088	-0.361832
C24	C	0.524771	-0.434311	-0.319530
C25	C	0.559798	-0.376535	-0.277209
C26	C	0.625231	-0.376552	-0.277187
C27	C	0.421338	-0.427056	-0.262834
C28	C	0.355905	-0.427045	-0.262855
C29	C	0.322953	-0.434252	-0.319597
C30	C	0.355441	-0.441489	-0.376321
C31	C	0.420874	-0.441506	-0.376299
C32	C	0.453820	-0.434285	-0.319549
C33	C	0.216983	-0.491995	-0.361948
C34	C	0.151548	-0.491967	-0.361976
C35	C	0.156161	-0.376419	-0.277347
C36	C	0.221596	-0.376443	-0.277325
C37	C	0.252002	-0.434235	-0.319624
C38	C	0.947338	-0.957302	-0.260494
C39	C	0.943594	-1.051521	-0.264276
C40	C	0.863405	-1.051586	-0.344314
C41	C	0.867148	-0.957368	-0.340532
C42	C	0.909116	-0.910229	-0.298620
C43	C	0.912856	-0.816009	-0.294835
C44	C	0.832670	-0.816076	-0.374875
C45	C	0.828926	-0.910295	-0.378657
C46	C	1.051496	-0.434208	-0.319644
C47	C	1.121138	-0.434188	-0.319674
C48	C	0.888122	-0.434199	-0.482993
C49	C	0.888144	-0.434176	-0.552634
C50	C	0.897577	-0.198942	-0.310184
C51	C	0.901629	-0.098666	-0.306184
C52	C	0.850413	-0.376479	-0.583017
C53	C	0.850411	-0.376462	-0.648452
C54	C	0.888153	-0.434133	-0.683500
C55	C	0.925887	-0.491840	-0.653110
C56	C	0.925883	-0.491862	-0.587676
C57	C	0.944322	-0.441203	-0.787489
C58	C	0.944328	-0.441175	-0.852921
C59	C	0.888166	-0.434072	-0.885319
C60	C	0.831997	-0.426977	-0.852276
C61	C	0.831993	-0.426999	-0.786843
C62	C	0.888162	-0.434116	-0.754452
C63	C	0.850429	-0.376354	-0.986654
C64	C	0.850426	-0.376344	-1.052090
C65	C	0.925908	-0.491717	-1.056746
C66	C	0.925905	-0.491732	-0.991312
C67	C	0.888167	-0.434046	-0.956269
C68	C	0.888058	-0.434246	-0.156784
C69	C	0.888168	-0.434016	-0.087134
H70	H	0.526668	-0.539126	-0.396295
O71	O	0.452506	-0.448396	-0.431359
C72	C	0.493471	-0.371604	-0.436437
H73	H	0.504520	-0.339602	-0.387739
H74	H	0.470339	-0.321086	-0.465625
C75	C	0.540970	-0.438495	-0.528147
C76	C	0.554545	-0.399195	-0.468336
H77	H	0.578642	-0.455513	-0.547827
H78	H	0.513369	-0.490231	-0.524729
H79	H	0.521692	-0.396391	-0.552463
H80	H	0.573815	-0.441303	-0.444019
H81	H	0.582151	-0.347467	-0.471751
O82	O	0.788244	-0.956189	-0.419401
C83	C	0.821730	-1.010577	-0.462112
H84	H	0.868668	-1.024629	-0.440645
H85	H	0.830028	-0.974214	-0.507094
C86	C	0.726043	-1.082865	-0.503370
C87	C	0.783691	-1.100130	-0.477001
H88	H	0.702578	-1.138104	-0.512557
H89	H	0.703482	-1.046221	-0.474597
H90	H	0.732966	-1.052561	-0.540852
H91	H	0.776767	-1.130424	-0.439516
H92	H	0.806250	-1.136782	-0.505768
O93	O	0.988011	-0.911465	-0.219713
C94	C	0.954520	-0.857042	-0.177029
H95	H	0.904044	-0.885525	-0.174241
H96	H	0.955188	-0.785624	-0.193534
C97	C	1.047214	-0.820610	-0.115299
C98	C	0.985220	-0.855597	-0.111870
H99	H	1.066152	-0.819714	-0.075106
H100	H	1.069779	-0.857272	-0.144057
H101	H	1.047762	-0.761098	-0.129056
H102	H	0.984673	-0.915111	-0.098122
H103	H	0.962656	-0.818944	-0.083108
H104	H	0.535031	-0.329491	-0.242768
H105	H	0.956640	-0.538671	-1.085282
H106	H	0.328613	-0.447356	-0.422525
H107	H	0.241742	-0.539049	-0.396394
H108	H	0.819687	-0.329474	-0.673195
O109	O	0.998893	-0.447887	-0.885030
C110	C	1.010062	-0.371070	-0.919822
H111	H	0.983639	-0.313082	-0.897768
H112	H	0.993223	-0.386598	-0.970026
C113	C	1.113158	-0.415735	-0.946884
C114	C	1.080708	-0.344512	-0.919795
H115	H	1.156735	-0.399355	-0.946870
H116	H	1.105632	-0.467491	-0.923446
H117	H	1.099118	-0.428669	-0.988719
H118	H	1.094743	-0.331587	-0.877959
H119	H	1.088238	-0.292753	-0.943226
O120	O	0.117622	-0.548169	-0.403108
C121	C	0.158496	-0.599164	-0.440444
H122	H	0.204985	-0.602248	-0.414883
H123	H	0.166848	-0.566228	-0.486752
C124	C	0.071962	-0.691405	-0.484597
C125	C	0.129059	-0.695199	-0.453200
H126	H	0.053804	-0.750643	-0.492468
H127	H	0.044424	-0.657047	-0.459444
H128	H	0.078930	-0.663955	-0.523183
H129	H	0.122090	-0.722639	-0.414611
H130	H	0.156595	-0.729564	-0.478346
O131	O	0.980747	-1.097108	-0.227175
C132	C	1.018601	-1.035294	-0.189386
H133	H	0.995606	-0.968177	-0.184489
H134	H	1.066575	-1.025175	-0.211988
C135	C	1.054451	-1.154541	-0.130206
C136	C	1.026205	-1.072108	-0.124187
H137	H	1.059144	-1.177250	-0.089990
H138	H	1.028950	-1.196187	-0.155667
H139	H	1.094427	-1.146097	-0.149043
H140	H	0.986227	-1.080555	-0.105358
H141	H	1.051699	-1.030464	-0.098722
H142	H	0.829241	-1.089983	-0.378440
O143	O	0.953533	-0.770175	-0.254056
C144	C	0.920050	-0.715753	-0.211365
H145	H	0.869573	-0.744232	-0.208571
H146	H	0.920717	-0.644333	-0.227867
C147	C	1.012754	-0.679332	-0.149648
C148	C	0.950759	-0.714315	-0.146211
H149	H	1.031697	-0.678441	-0.109458
H150	H	1.035313	-0.715994	-0.178411
H151	H	1.013301	-0.619819	-0.163402
H152	H	0.950212	-0.773831	-0.132465
H153	H	0.928200	-0.677663	-0.117444
O154	O	0.659315	-0.320567	-0.236049
C155	C	0.695019	-0.371870	-0.197548
H156	H	0.702060	-0.440285	-0.222298
H157	H	0.669349	-0.381685	-0.151507
C158	C	0.750535	-0.238206	-0.153855
C159	C	0.759188	-0.322231	-0.184256
H160	H	0.790116	-0.207586	-0.145653
H161	H	0.726479	-0.203641	-0.179792
H162	H	0.729141	-0.246397	-0.115491
H163	H	0.780573	-0.314039	-0.222623
H164	H	0.783249	-0.356793	-0.158326
O165	O	0.795628	-0.770311	-0.411979
C166	C	0.833441	-0.715695	-0.450293
H167	H	0.881663	-0.743997	-0.455367
H168	H	0.838444	-0.644301	-0.428057
C169	C	0.743621	-0.679485	-0.509094
C170	C	0.802847	-0.714250	-0.515331
H171	H	0.724749	-0.678589	-0.549212
H172	H	0.718145	-0.716278	-0.483281
H173	H	0.747798	-0.619993	-0.490562
H174	H	0.798668	-0.773744	-0.533855
H175	H	0.828321	-0.677467	-0.541149
H176	H	0.786258	-0.421224	-0.759942
H177	H	0.819680	-0.329510	-0.554490
H178	H	0.131399	-0.329371	-0.242907
H179	H	0.786265	-0.421187	-0.878653
H180	H	0.250108	-0.329409	-0.242862
O181	O	0.813706	-0.320303	-0.952706
C182	C	0.780407	-0.269366	-0.993558
H183	H	0.776750	-0.306305	-1.041673
H184	H	0.806114	-0.200835	-0.997800
C185	C	0.718736	-0.211032	-0.908360
C186	C	0.714240	-0.256405	-0.967455
H187	H	0.677922	-0.203033	-0.892257
H188	H	0.741172	-0.245347	-0.880836
H189	H	0.740162	-0.153928	-0.911903
H190	H	0.692822	-0.313512	-0.963910
H191	H	0.691799	-0.222099	-0.994977
O192	O	0.324448	-0.419968	-0.207702
C193	C	0.367561	-0.413619	-0.157615
H194	H	0.415286	-0.387522	-0.174854
H195	H	0.371680	-0.482926	-0.138592
C196	C	0.286008	-0.380366	-0.084141
C197	C	0.344623	-0.348306	-0.105313
H198	H	0.271858	-0.340081	-0.051877
H199	H	0.256962	-0.384647	-0.117885
H200	H	0.289448	-0.438122	-0.068293
H201	H	0.341181	-0.290557	-0.121167
H202	H	0.373669	-0.344014	-0.071570
O203	O	0.453410	-0.420182	-0.207750
C204	C	0.488115	-0.496991	-0.202646
H205	H	0.496663	-0.529002	-0.251335
H206	H	0.460811	-0.547494	-0.173470
C207	C	0.540862	-0.430112	-0.110907
C208	C	0.551366	-0.469425	-0.170710
H209	H	0.579877	-0.413110	-0.091205
H210	H	0.517479	-0.378366	-0.114344
H211	H	0.518107	-0.472205	-0.086602
H212	H	0.574113	-0.427329	-0.195016
H213	H	0.574754	-0.521164	-0.167276
O214	O	0.962623	-0.547799	-0.961891
C215	C	0.995924	-0.598714	-1.006855
H216	H	0.999588	-0.561748	-1.052027
H217	H	0.970213	-0.667238	-1.016530
C218	C	1.057583	-0.657105	-0.926402
C219	C	1.062087	-0.611698	-0.981881
H220	H	1.098394	-0.665118	-0.910997
H221	H	1.035146	-0.622806	-0.896109
H222	H	1.036155	-0.714203	-0.934472
H223	H	1.083508	-0.554597	-0.973809
H224	H	1.084529	-0.645989	-1.012173
H225	H	0.819696	-0.329363	-1.076827
O226	O	0.998942	-0.448074	-0.756117
C227	C	1.048515	-0.454345	-0.799310
H228	H	1.034909	-0.424017	-0.844734
H229	H	1.058546	-0.528064	-0.809220
C230	C	1.124203	-0.439833	-0.715957
C231	C	1.107495	-0.402576	-0.771745
H232	H	1.160586	-0.407903	-0.698953
H233	H	1.090805	-0.435611	-0.686856
H234	H	1.132558	-0.501264	-0.724223
H235	H	1.099133	-0.341150	-0.763477
H236	H	1.140893	-0.406786	-0.800844
H237	H	0.645373	-0.539168	-0.396249
H238	H	0.956611	-0.538844	-0.562939
H239	H	0.956617	-0.538796	-0.681650
