data_functionalizedCrystal
_audit_creation_method	'MofGen! by Chris Wilmer'
_symmetry_space_group_name_H-M	'P1'
_symmetry_Int_Tables_number	1
_symmetry_cell_setting	triclinic
loop_
_symmetry_equiv_pos_as_xyz
  x,y,z
_cell_length_a	19.077115
_cell_length_b	19.077068
_cell_length_c	12.759393
_cell_angle_alpha	92.261180
_cell_angle_beta	87.681635
_cell_angle_gamma	90.115280
loop_
_atom_site_label
_atom_site_type_symbol
_atom_site_fract_x
_atom_site_fract_y
_atom_site_fract_z
Zn1	Zn	1.063009	-0.322929	-0.677037
Zn2	Zn	1.058191	-0.440451	-0.508095
Zn3	Zn	0.945496	-0.318237	-0.494049
Zn4	Zn	0.940745	-0.435671	-0.676408
O5	O	1.001860	-0.379322	-0.588897
O6	O	1.160702	-0.342482	-0.660768
O7	O	1.043214	-0.424276	-0.359212
O8	O	0.965090	-0.220530	-0.512707
O9	O	1.157162	-0.428825	-0.536648
O10	O	1.051426	-0.223977	-0.647148
O11	O	0.960418	-0.334486	-0.348892
O12	O	0.846534	-0.329851	-0.512097
O13	O	0.956991	-0.420678	-0.823512
O14	O	0.843043	-0.416129	-0.646076
O15	O	1.046819	-0.337847	-0.823974
O16	O	1.038607	-0.538146	-0.536038
O17	O	0.952319	-0.534634	-0.659696
C18	C	0.819293	-0.371963	-0.577495
C19	C	0.741189	-0.368831	-0.572643
C20	C	0.301741	-0.346342	-0.537851
C21	C	0.375128	-0.349288	-0.542416
C22	C	0.410016	-0.395755	-0.614349
C23	C	0.371515	-0.439274	-0.681728
C24	C	0.298129	-0.436324	-0.677168
C25	C	0.629302	-0.409400	-0.635462
C26	C	0.702692	-0.412348	-0.640015
C27	C	0.706300	-0.322361	-0.500703
C28	C	0.632913	-0.319418	-0.496145
C29	C	0.594418	-0.362934	-0.563528
N30	N	0.485029	-0.398769	-0.619014
N31	N	0.519406	-0.359916	-0.558867
C32	C	0.994443	-0.561887	-0.599347
C33	C	0.991335	-0.639991	-0.603857
C34	C	1.034834	-0.678491	-0.541651
C35	C	1.031915	-0.751879	-0.545899
C36	C	0.985491	-0.786765	-0.612348
C37	C	0.941990	-0.748259	-0.674560
C38	C	0.944913	-0.674873	-0.670317
C39	C	0.971929	-1.006052	-0.631941
C40	C	0.969007	-1.079443	-0.636177
C41	C	1.058933	-1.083058	-0.507516
C42	C	1.061850	-1.009670	-0.503274
C43	C	1.018351	-0.971171	-0.565491
N44	N	0.982504	-0.861779	-0.616689
N45	N	1.021342	-0.896159	-0.561154
C46	C	1.185141	-0.386710	-0.600345
C47	C	1.263244	-0.389859	-0.605223
C48	C	1.001912	-0.379253	-0.862930
C49	C	1.001934	-0.379223	-0.979706
C50	C	1.009325	-0.196045	-0.578431
C51	C	1.012507	-0.117943	-0.573971
C52	C	0.958839	-0.332462	-1.029195
C53	C	0.958856	-0.332441	-1.138918
C54	C	1.045071	-0.425945	-1.149656
C55	C	1.045049	-0.425969	-1.039934
C56	C	1.001851	-0.379342	-0.315931
C57	C	1.001973	-0.379179	-0.199152
H58	H	0.737651	-0.286932	-0.445845
H59	H	0.923763	-0.294365	-1.179207
H60	H	0.406468	-0.313855	-0.487549
H61	H	0.604511	-0.281585	-0.437562
N62	N	1.091568	-0.476363	-1.214616
H63	H	1.085043	-0.469253	-1.291635
H64	H	1.142196	-0.467459	-1.197949
N65	N	0.587787	-0.456346	-0.708117
H66	H	0.621026	-0.486236	-0.754366
H67	H	0.556012	-0.487601	-0.665218
N68	N	0.409141	-0.489394	-0.759314
H69	H	0.461472	-0.484664	-0.751977
H70	H	0.394266	-0.539047	-0.744903
N71	N	0.264116	-0.296228	-0.460256
H72	H	0.232500	-0.323524	-0.411234
H73	H	0.299689	-0.269122	-0.418345
N74	N	0.740325	-0.462470	-0.717601
H75	H	0.704804	-0.489589	-0.759598
H76	H	0.771952	-0.435130	-0.766545
N77	N	0.256605	-0.483258	-0.749835
H78	H	0.289841	-0.513144	-0.796095
H79	H	0.224822	-0.514516	-0.706954
H80	H	0.909492	-0.643527	-0.720973
N81	N	1.091529	-0.476410	-0.986549
H82	H	1.118848	-0.506016	-1.041352
H83	H	1.125204	-0.449130	-0.941421
H84	H	1.072634	-0.650092	-0.487536
H85	H	1.067336	-0.783223	-0.495243
N86	N	0.918937	-1.117073	-0.707855
H87	H	0.885172	-1.146258	-0.664847
H88	H	0.891874	-1.081507	-0.746613
N89	N	1.111931	-0.972045	-0.431620
H90	H	1.139050	-1.007571	-0.392863
H91	H	1.145644	-0.942860	-0.474710
H92	H	1.094348	-1.114411	-0.456864
H93	H	0.936509	-0.974712	-0.682598
H94	H	0.904194	-0.776669	-0.728669
H95	H	0.923732	-0.294400	-0.980160
