data_functionalizedCrystal
_audit_creation_method	'MofGen! by Chris Wilmer'
_symmetry_space_group_name_H-M	'P1'
_symmetry_Int_Tables_number	1
_symmetry_cell_setting	triclinic
loop_
_symmetry_equiv_pos_as_xyz
  x,y,z
_cell_length_a	12.827893
_cell_length_b	15.299816
_cell_length_c	12.827885
_cell_angle_alpha	99.651250
_cell_angle_beta	89.980728
_cell_angle_gamma	80.350679
loop_
_atom_site_label
_atom_site_type_symbol
_atom_site_fract_x
_atom_site_fract_y
_atom_site_fract_z
Zn1	Zn	1.669579	-0.359008	-0.662875
Zn2	Zn	2.169579	0.140992	-0.162875
Zn3	Zn	1.699686	-0.509849	-0.518398
Zn4	Zn	2.199686	-0.009849	-0.018398
Zn5	Zn	1.494829	-0.359052	-0.488158
Zn6	Zn	1.994829	0.140948	0.011842
Zn7	Zn	1.525005	-0.509782	-0.693085
Zn8	Zn	2.025005	-0.009782	-0.193085
O9	O	1.597275	-0.434423	-0.590629
O10	O	2.097275	0.065577	-0.090629
O11	O	1.819810	-0.379027	-0.643723
O12	O	2.319810	0.120973	-0.143723
O13	O	1.672482	-0.489892	-0.368160
O14	O	2.172482	0.010108	0.131840
O15	O	1.492781	-0.232838	-0.486036
O16	O	1.992781	0.267162	0.013964
O17	O	1.841930	-0.489849	-0.537576
O18	O	2.341930	0.010151	-0.037576
O19	O	1.621169	-0.232806	-0.614400
O20	O	2.121169	0.267194	-0.114400
O21	O	1.521975	-0.379102	-0.345942
O22	O	2.021975	0.120898	0.154058
O23	O	1.352594	-0.379038	-0.515329
O24	O	1.852594	0.120962	-0.015329
O25	O	1.544212	-0.489735	-0.835304
O26	O	2.044212	0.010265	-0.335304
O27	O	1.374764	-0.489778	-0.665888
O28	O	1.874764	0.010222	-0.165888
O29	O	1.650430	-0.378962	-0.813109
O30	O	2.150430	0.121038	-0.313109
O31	O	1.701743	-0.636049	-0.566869
O32	O	2.201743	-0.136049	-0.066869
O33	O	1.573406	-0.636000	-0.695211
O34	O	2.073406	-0.136000	-0.195211
C35	C	1.325761	-0.434406	-0.590606
C36	C	1.825761	0.065594	-0.090606
C37	C	1.209611	-0.434421	-0.590625
C38	C	1.709611	0.065579	-0.090625
C39	C	1.146900	-0.379680	-0.643268
C40	C	1.646900	0.120320	-0.143268
C41	C	1.026853	-0.379694	-0.643289
C42	C	1.526853	0.120306	-0.143289
C43	C	1.644145	-0.668749	-0.637623
C44	C	2.144145	-0.168749	-0.137623
C45	C	1.664291	-0.768994	-0.657761
C46	C	2.164291	-0.268994	-0.157761
C47	C	1.453968	-1.051936	-0.447048
C48	C	1.953968	-0.551936	0.052952
C49	C	1.435034	-0.957750	-0.428129
C50	C	1.935034	-0.457750	0.071871
C51	C	1.492347	-0.910557	-0.485535
C52	C	1.992347	-0.410557	0.014465
C53	C	1.568597	-0.957558	-0.561864
C54	C	2.068597	-0.457558	-0.061864
C55	C	1.587527	-1.051752	-0.580791
C56	C	2.087527	-0.551752	-0.080791
C57	C	1.625906	-0.910373	-0.619278
C58	C	2.125906	-0.410373	-0.119278
C59	C	1.702156	-0.957374	-0.695607
C60	C	2.202156	-0.457374	-0.195607
C61	C	1.721083	-1.051560	-0.714530
C62	C	2.221083	-0.551560	-0.214530
C63	C	1.663770	-1.098754	-0.657124
C64	C	2.163770	-0.598754	-0.157124
C65	C	1.606975	-0.816178	-0.600351
C66	C	2.106975	-0.316178	-0.100351
C67	C	1.740534	-0.815995	-0.734094
C68	C	2.240534	-0.315995	-0.234094
C69	C	1.759469	-0.910181	-0.753013
C70	C	2.259469	-0.410181	-0.253013
C71	C	1.869848	-0.434440	-0.590653
C72	C	2.369848	0.065560	-0.090653
C73	C	1.986003	-0.434448	-0.590663
C74	C	2.486003	0.065552	-0.090663
C75	C	1.597328	-0.434336	-0.863182
C76	C	2.097328	0.065664	-0.363182
C77	C	1.597351	-0.434299	-0.979328
C78	C	2.097351	0.065701	-0.479328
C79	C	1.550250	-0.199182	-0.543475
C80	C	2.050250	0.300818	-0.043475
C81	C	1.530211	-0.098937	-0.523381
C82	C	2.030211	0.401063	-0.023381
C83	C	1.544832	-0.489052	-1.162127
C84	C	2.044832	0.010948	-0.662127
C85	C	1.544807	-0.489091	-1.042085
C86	C	2.044807	0.010909	-0.542085
C87	C	1.597268	-0.434444	-0.319123
C88	C	2.097268	0.065556	0.180877
C89	C	1.597397	-0.434227	-0.202927
C90	C	2.097397	0.065773	0.297073
H91	H	1.039886	-0.481321	-0.545598
H92	H	1.539886	0.018679	-0.045598
Br93	Br	1.672368	-0.356031	-1.113031
Br94	Br	2.172368	0.143969	-0.613031
H95	H	1.174425	-0.481295	-0.545568
H96	H	1.674425	0.018705	-0.045568
H97	H	1.476927	-0.833866	-0.470125
H98	H	1.976927	-0.333866	0.029875
H99	H	1.407308	-1.090369	-0.400321
H100	H	1.907308	-0.590369	0.099679
H101	H	1.821552	-0.948462	-0.815162
H102	H	2.321552	-0.448462	-0.315162
Br103	Br	1.469806	-0.567336	-0.983544
Br104	Br	1.969806	-0.067336	-0.483544
H105	H	1.544892	-0.777918	-0.538204
H106	H	2.044892	-0.277918	-0.038204
H107	H	1.372951	-0.919485	-0.365983
H108	H	1.872951	-0.419485	0.134017
H109	H	1.182085	-0.332801	-0.688318
H110	H	1.682085	0.167199	-0.188318
Br111	Br	1.689709	-1.226582	-0.682552
Br112	Br	2.189709	-0.726582	-0.182552
H113	H	1.783166	-1.089826	-0.776687
H114	H	2.283166	-0.589826	-0.276687
Br115	Br	1.818317	-0.751955	-0.812012
Br116	Br	2.318317	-0.251955	-0.312012
H117	H	1.499845	-0.535958	-1.216067
H118	H	1.999845	-0.035958	-0.716067
H119	H	0.972965	-0.332831	-0.688363
H120	H	1.472965	0.167169	-0.188363
H121	H	1.642360	-0.387362	-1.014450
H122	H	2.142360	0.112638	-0.514450
