data_functionalizedCrystal
_audit_creation_method	'MofGen! by Chris Wilmer'
_symmetry_space_group_name_H-M	'P1'
_symmetry_Int_Tables_number	1
_symmetry_cell_setting	triclinic
loop_
_symmetry_equiv_pos_as_xyz
  x,y,z
_cell_length_a	23.532407
_cell_length_b	22.610064
_cell_length_c	15.944493
_cell_angle_alpha	89.992417
_cell_angle_beta	83.161895
_cell_angle_gamma	90.011311
loop_
_atom_site_label
_atom_site_type_symbol
_atom_site_fract_x
_atom_site_fract_y
_atom_site_fract_z
O1	O	0.755649	0.049140	0.101959
O2	O	1.088982	0.382473	0.435292
O3	O	1.422315	0.715807	0.768625
O4	O	0.589840	0.049148	0.116712
O5	O	0.923174	0.382482	0.450046
O6	O	1.256507	0.715815	0.783379
O7	O	0.677290	0.049149	-0.012981
O8	O	1.010623	0.382482	0.320352
O9	O	1.343956	0.715815	0.653686
O10	O	0.668199	0.049139	0.231652
O11	O	1.001533	0.382473	0.564985
O12	O	1.334866	0.715806	0.898319
O13	O	0.677265	-0.049220	-0.012966
O14	O	1.010598	0.284113	0.320367
O15	O	1.343931	0.617446	0.653700
O16	O	0.589816	-0.049221	0.116727
O17	O	0.923149	0.284112	0.450060
O18	O	1.256482	0.617446	0.783394
O19	O	0.755624	-0.049229	0.101973
O20	O	1.088957	0.284104	0.435307
O21	O	1.422291	0.617437	0.768640
Zn22	Zn	0.672716	-0.064843	0.109353
Zn23	Zn	1.006049	0.268490	0.442686
Zn24	Zn	1.339382	0.601823	0.776019
Zn25	Zn	0.672748	0.064762	0.109333
Zn26	Zn	1.006082	0.398096	0.442666
Zn27	Zn	1.339415	0.731429	0.776000
O28	O	0.668175	-0.049230	0.231667
O29	O	1.001508	0.284104	0.565000
O30	O	1.334841	0.617437	0.898333
C31	C	0.568611	-0.000035	0.116344
C32	C	0.901944	0.333298	0.449677
C33	C	1.235277	0.666632	0.783011
C34	C	0.505389	-0.000032	0.115214
C35	C	0.838723	0.333302	0.448548
C36	C	1.172056	0.666635	0.781881
C37	C	0.238918	-0.000045	0.033806
C38	C	0.572251	0.333289	0.367140
C39	C	0.905585	0.666622	0.700473
C40	C	0.298322	-0.000044	0.034856
C41	C	0.631655	0.333289	0.368189
C42	C	0.964989	0.666622	0.701522
O43	O	0.334826	-0.000062	-0.029724
O44	O	0.668159	0.333271	0.303609
O45	O	1.001492	0.666604	0.636942
N46	N	0.321236	-0.000043	0.111958
N47	N	0.654569	0.333290	0.445292
N48	N	0.987903	0.666623	0.778625
C49	C	0.284742	-0.000048	0.188017
C50	C	0.618076	0.333285	0.521350
C51	C	0.951409	0.666618	0.854683
O52	O	0.309687	-0.000048	0.253695
O53	O	0.643021	0.333285	0.587028
O54	O	0.976354	0.666619	0.920361
C55	C	0.225339	-0.000053	0.186966
C56	C	0.558673	0.333281	0.520300
C57	C	0.892006	0.666614	0.853633
C58	C	0.202429	-0.000048	0.109859
C59	C	0.535762	0.333286	0.443192
C60	C	0.869096	0.666619	0.776525
C61	C	0.216007	-0.000040	-0.043295
C62	C	0.549340	0.333293	0.290038
C63	C	0.882674	0.666626	0.623372
C64	C	0.156607	-0.000039	-0.044344
C65	C	0.489940	0.333294	0.288989
C66	C	0.823273	0.666627	0.622323
C67	C	0.120118	-0.000043	0.031708
C68	C	0.453451	0.333291	0.365042
C69	C	0.786784	0.666624	0.698375
C70	C	0.143029	-0.000047	0.108810
C71	C	0.476362	0.333287	0.442143
C72	C	0.809696	0.666620	0.775476
C73	C	0.188847	-0.000062	0.263024
C74	C	0.522180	0.333271	0.596357
C75	C	0.855514	0.666605	0.929690
C76	C	0.129441	-0.000067	0.261967
C77	C	0.462774	0.333266	0.595300
C78	C	0.796107	0.666600	0.928634
C79	C	0.106530	-0.000062	0.184859
C80	C	0.439863	0.333271	0.518193
C81	C	0.773197	0.666605	0.851526
C82	C	0.047140	-0.000049	0.183813
C83	C	0.380473	0.333284	0.517147
C84	C	0.713807	0.666618	0.850480
N85	N	0.024226	-0.000050	0.106711
N86	N	0.357559	0.333283	0.440044
N87	N	0.690893	0.666616	0.773377
C88	C	0.060715	-0.000047	0.030658
C89	C	0.394048	0.333286	0.363992
C90	C	0.727382	0.666620	0.697325
C91	C	0.409493	-0.000040	0.190216
C92	C	0.742827	0.333293	0.523550
C93	C	1.076160	0.666626	0.856883
C94	C	0.468895	-0.000032	0.191267
C95	C	0.802228	0.333302	0.524601
C96	C	1.135562	0.666635	0.857934
C97	C	0.482471	-0.000029	0.038106
C98	C	0.815804	0.333305	0.371439
C99	C	1.149137	0.666638	0.704773
C100	C	0.423068	-0.000033	0.037056
C101	C	0.756401	0.333300	0.370389
C102	C	1.089734	0.666633	0.703722
C103	C	0.386579	-0.000041	0.113114
C104	C	0.719913	0.333292	0.446447
C105	C	1.053246	0.666625	0.779780
C106	C	-0.064030	-0.000044	0.028461
C107	C	0.269303	0.333289	0.361794
C108	C	0.602637	0.666622	0.695128
C109	C	-0.123436	-0.000041	0.027419
C110	C	0.209897	0.333292	0.360752
C111	C	0.543231	0.666626	0.694086
C112	C	-0.137006	-0.000047	0.180580
C113	C	0.196327	0.333286	0.513913
C114	C	0.529660	0.666620	0.847246
C115	C	-0.077606	-0.000047	0.181622
C116	C	0.255728	0.333286	0.514956
C117	C	0.589061	0.666619	0.848289
C118	C	-0.041118	-0.000048	0.105556
C119	C	0.292215	0.333285	0.438890
C120	C	0.625548	0.666619	0.772223
O121	O	0.010602	-0.000034	0.248359
O122	O	0.343935	0.333300	0.581693
O123	O	0.677268	0.666633	0.915026
O124	O	0.035762	-0.000055	-0.035009
O125	O	0.369095	0.333278	0.298324
O126	O	0.702428	0.666612	0.631658
N127	N	0.672698	-0.153296	0.109365
N128	N	1.006031	0.180038	0.442699
N129	N	1.339364	0.513371	0.776032
C130	C	0.638201	-0.438133	0.058640
C131	C	0.971534	-0.104800	0.391973
C132	C	1.304868	0.228534	0.725307
C133	C	0.638196	-0.376213	0.058644
C134	C	0.971529	-0.042880	0.391977
C135	C	1.304862	0.290453	0.725311
O136	O	0.608842	-0.344185	0.015518
O137	O	0.942175	-0.010852	0.348851
O138	O	1.275508	0.322481	0.682185
N139	N	0.672721	-0.345248	0.109338
N140	N	1.006055	-0.011915	0.442672
N141	N	1.339388	0.321419	0.776005
C142	C	0.707259	-0.376206	0.160026
C143	C	1.040593	-0.042873	0.493359
C144	C	1.373926	0.290461	0.826692
O145	O	0.736626	-0.344182	0.203145
O146	O	1.069960	-0.010849	0.536478
O147	O	1.403293	0.322485	0.869812
C148	C	0.707267	-0.438125	0.160016
C149	C	1.040601	-0.104791	0.493350
C150	C	1.373934	0.228542	0.826683
C151	C	0.672735	-0.469087	0.109325
C152	C	1.006068	-0.135753	0.442658
C153	C	1.339402	0.197580	0.775992
C154	C	0.603672	-0.469095	0.007952
C155	C	0.937005	-0.135762	0.341285
C156	C	1.270338	0.197572	0.674619
C157	C	0.603677	-0.531011	0.007949
C158	C	0.937010	-0.197677	0.341283
C159	C	1.270343	0.135656	0.674616
C160	C	0.638211	-0.561964	0.058635
C161	C	0.971544	-0.228631	0.391968
C162	C	1.304877	0.104702	0.725301
C163	C	0.672740	-0.531002	0.109322
C164	C	1.006073	-0.197669	0.442656
C165	C	1.339406	0.135664	0.775989
C166	C	0.741808	-0.469082	0.210699
C167	C	1.075141	-0.135748	0.544032
C168	C	1.408475	0.197585	0.877365
C169	C	0.741814	-0.531005	0.210684
C170	C	1.075147	-0.197671	0.544018
C171	C	1.408480	0.135662	0.877351
C172	C	0.707281	-0.561967	0.159993
C173	C	1.040614	-0.228633	0.493326
C174	C	1.373948	0.104700	0.826660
C175	C	0.707279	-0.623872	0.160005
C176	C	1.040612	-0.290538	0.493338
C177	C	1.373945	0.042795	0.826672
N178	N	0.672753	-0.654837	0.109310
N179	N	1.006086	-0.321503	0.442644
N180	N	1.339419	0.011830	0.775977
C181	C	0.638219	-0.623883	0.058625
C182	C	0.971552	-0.290550	0.391959
C183	C	1.304885	0.042784	0.725292
C184	C	0.707240	-0.246172	0.160040
C185	C	1.040574	0.087161	0.493373
C186	C	1.373907	0.420494	0.826707
C187	C	0.707230	-0.184255	0.160054
C188	C	1.040563	0.149079	0.493388
C189	C	1.373896	0.482412	0.826721
C190	C	0.638167	-0.184266	0.058671
C191	C	0.971500	0.149067	0.392005
C192	C	1.304833	0.482400	0.725338
C193	C	0.638175	-0.246185	0.058662
C194	C	0.971508	0.087148	0.391995
C195	C	1.304841	0.420482	0.725329
C196	C	0.672715	-0.277138	0.109346
C197	C	1.006048	0.056196	0.442679
C198	C	1.339381	0.389529	0.776012
C199	C	0.638231	-0.753910	0.058624
C200	C	0.971564	-0.420577	0.391957
C201	C	1.304898	-0.087244	0.725291
C202	C	0.638237	-0.815832	0.058628
C203	C	0.971570	-0.482498	0.391962
C204	C	1.304904	-0.149165	0.725295
C205	C	0.707302	-0.815815	0.160008
C206	C	1.040636	-0.482481	0.493341
C207	C	1.373969	-0.149148	0.826674
C208	C	0.707294	-0.753899	0.160007
C209	C	1.040627	-0.420566	0.493340
C210	C	1.373961	-0.087232	0.826674
C211	C	0.672757	-0.722948	0.109308
C212	C	1.006090	-0.389615	0.442642
C213	C	1.339423	-0.056282	0.775975
O214	O	0.736619	-0.655939	0.203106
O215	O	1.069953	-0.322605	0.536439
O216	O	1.403286	0.010728	0.869773
O217	O	0.608862	-0.655915	0.015505
O218	O	0.942196	-0.322581	0.348838
O219	O	1.275529	0.010752	0.682172
C220	C	0.776854	-0.000044	0.102342
C221	C	1.110187	0.333289	0.435675
C222	C	1.443520	0.666622	0.769008
C223	C	0.840075	-0.000044	0.103471
C224	C	1.173408	0.333289	0.436805
C225	C	1.506742	0.666622	0.770138
C226	C	0.676906	-0.000033	-0.044265
C227	C	1.010239	0.333300	0.289068
C228	C	1.343572	0.666633	0.622401
C229	C	0.675792	-0.000026	-0.137504
C230	C	1.009125	0.333308	0.195829
C231	C	1.342458	0.666641	0.529162
N232	N	0.672771	0.153215	0.109314
N233	N	1.006104	0.486548	0.442647
N234	N	1.339438	0.819881	0.775980
C235	C	0.727266	-0.000039	-0.373698
C236	C	1.060600	0.333294	-0.040365
C237	C	1.393933	0.666627	0.292969
C238	C	0.699520	0.048463	-0.424040
C239	C	1.032854	0.381796	-0.090706
C240	C	1.366187	0.715129	0.242627
C241	C	0.673728	-0.000033	-0.308208
C242	C	1.007061	0.333301	0.025125
C243	C	1.340395	0.666634	0.358459
C244	C	0.699483	-0.048522	-0.424001
C245	C	1.032817	0.284812	-0.090668
C246	C	1.366150	0.618145	0.242666
C247	C	0.671738	-0.000042	-0.473101
C248	C	1.005072	0.333291	-0.139768
C249	C	1.338405	0.666624	0.193566
C250	C	0.645996	0.048509	-0.357321
C251	C	0.979330	0.381843	-0.023988
C252	C	1.312663	0.715176	0.309345
C253	C	0.645967	-0.048518	-0.357279
C254	C	0.979301	0.284815	-0.023946
C255	C	1.312634	0.618148	0.309387
C256	C	0.618182	-0.000004	-0.407588
C257	C	0.951515	0.333329	-0.074254
C258	C	1.284848	0.666662	0.259079
C259	C	0.674876	-0.000027	-0.213218
C260	C	1.008209	0.333307	0.120115
C261	C	1.341542	0.666640	0.453449
C262	C	0.670586	-0.000044	-0.568088
C263	C	1.003920	0.333289	-0.234755
C264	C	1.337253	0.666623	0.098578
C265	C	0.668559	-0.000046	0.262951
C266	C	1.001892	0.333287	0.596284
C267	C	1.335225	0.666620	0.929618
C268	C	0.669672	-0.000050	0.356190
C269	C	1.003006	0.333283	0.689524
C270	C	1.336339	0.666617	1.022857
H271	H	-0.142086	-0.000035	-0.035374
H272	H	0.191247	0.333298	0.297959
H273	H	0.524581	0.666631	0.631293
H274	H	0.245711	-0.000039	-0.105230
H275	H	0.579044	0.333294	0.228104
H276	H	0.912378	0.666627	0.561437
H277	H	-0.058951	-0.000051	0.244410
H278	H	0.274382	0.333283	0.577743
H279	H	0.607715	0.666616	0.911076
H280	H	0.575550	-0.443899	-0.033326
H281	H	0.908883	-0.110566	0.300007
H282	H	1.242217	0.222767	0.633340
H283	H	0.572029	0.000025	-0.422665
H284	H	0.905363	0.333358	-0.089332
H285	H	1.238696	0.666691	0.244002
H286	H	0.735417	-0.841028	0.201276
H287	H	1.068751	-0.507695	0.534610
H288	H	1.402084	-0.174362	0.867943
H289	H	0.610055	-0.271390	0.017385
H290	H	0.943388	0.061943	0.350718
H291	H	1.276722	0.395277	0.684051
H292	H	0.512191	-0.000026	-0.023820
H293	H	0.845524	0.333307	0.309513
H294	H	1.178858	0.666640	0.642847
H295	H	0.773383	0.000007	-0.358458
H296	H	1.106716	0.333340	-0.025125
H297	H	1.440050	0.666674	0.308208
H298	H	-0.034329	-0.000045	-0.033479
H299	H	0.299005	0.333289	0.299854
H300	H	0.632338	0.666622	0.633187
H301	H	0.769942	-0.556203	0.251957
H302	H	1.103275	-0.222870	0.585290
H303	H	1.436608	0.110464	0.918624
H304	H	0.099734	-0.000076	0.323904
H305	H	0.433067	0.333257	0.657237
H306	H	0.766400	0.666590	0.990571
H307	H	-0.166726	-0.000047	0.242500
H308	H	0.166607	0.333287	0.575833
H309	H	0.499940	0.666620	0.909166
H310	H	0.722141	0.089466	-0.453182
H311	H	1.055474	0.422799	-0.119849
H312	H	1.388807	0.756133	0.213485
H313	H	0.404418	-0.000030	-0.025732
H314	H	0.737752	0.333304	0.307601
H315	H	1.071085	0.666637	0.640935
H316	H	0.722094	-0.089524	-0.453116
H317	H	1.055428	0.243810	-0.119783
H318	H	1.388761	0.577143	0.213550
H319	H	0.735405	-0.728688	0.201296
H320	H	1.068738	-0.395355	0.534629
H321	H	1.402072	-0.062022	0.867963
H322	H	0.610114	-0.841038	0.017350
H323	H	0.943447	-0.507705	0.350683
H324	H	1.276781	-0.174371	0.684016
H325	H	0.623409	0.089558	-0.328317
H326	H	0.956743	0.422891	0.005016
H327	H	1.290076	0.756225	0.338349
H328	H	0.610107	-0.728718	0.017341
H329	H	0.943441	-0.395384	0.350674
H330	H	1.276774	-0.062051	0.684007
H331	H	0.575559	-0.556215	-0.033332
H332	H	0.908892	-0.222881	0.300001
H333	H	1.242225	0.110452	0.633335
H334	H	0.487543	-0.000027	0.254056
H335	H	0.820876	0.333306	0.587389
H336	H	1.154210	0.666639	0.920723
H337	H	0.137959	-0.000038	-0.107133
H338	H	0.471292	0.333296	0.226200
H339	H	0.804626	0.666629	0.559534
H340	H	0.379787	-0.000043	0.252156
H341	H	0.713120	0.333291	0.585489
H342	H	1.046453	0.666624	0.918822
H343	H	0.769929	-0.443883	0.251975
H344	H	1.103263	-0.110550	0.585309
H345	H	1.436596	0.222784	0.918642
H346	H	0.207490	-0.000063	0.325813
H347	H	0.540823	0.333270	0.659146
H348	H	0.874156	0.666603	0.992480
H349	H	0.610047	-0.159053	0.017401
H350	H	0.943380	0.174281	0.350734
H351	H	1.276714	0.507614	0.684067
H352	H	0.735343	-0.159051	0.201343
H353	H	1.068676	0.174283	0.534676
H354	H	1.402009	0.507616	0.868009
H355	H	0.735365	-0.271370	0.201320
H356	H	1.068699	0.061963	0.534654
H357	H	1.402032	0.395297	0.867987
H358	H	0.623366	-0.089523	-0.328122
H359	H	0.956700	0.243810	0.005211
H360	H	1.290033	0.577144	0.338544
