data_functionalizedCrystal
_audit_creation_method	'MofGen! by Chris Wilmer'
_symmetry_space_group_name_H-M	'P1'
_symmetry_Int_Tables_number	1
_symmetry_cell_setting	triclinic
loop_
_symmetry_equiv_pos_as_xyz
  x,y,z
_cell_length_a	16.992694
_cell_length_b	10.723024
_cell_length_c	15.455313
_cell_angle_alpha	92.691723
_cell_angle_beta	87.142206
_cell_angle_gamma	87.568046
loop_
_atom_site_label
_atom_site_type_symbol
_atom_site_fract_x
_atom_site_fract_y
_atom_site_fract_z
O1	O	1.045219	0.259622	-0.072018
O2	O	0.816920	0.256716	-0.072044
O3	O	0.936335	0.077046	-0.072027
O4	O	0.925803	0.439291	-0.072035
O5	O	0.929506	0.087275	0.072234
O6	O	0.810091	0.266945	0.072217
O7	O	1.038390	0.269851	0.072243
Cu8	Cu	0.923617	0.269332	0.085402
Cu9	Cu	0.931693	0.257235	-0.085203
O10	O	0.918974	0.449520	0.072226
C11	C	0.784273	0.258094	0.000083
C12	C	0.697169	0.246945	0.000074
C13	C	0.647507	0.354505	0.000072
C14	C	0.565663	0.344024	0.000084
C15	C	0.533484	0.225982	0.000092
C16	C	0.583152	0.118414	0.000096
C17	C	0.664993	0.128896	0.000090
C18	C	0.289651	0.182535	0.000116
C19	C	0.207803	0.172061	0.000119
C20	C	0.190320	0.397673	0.000109
C21	C	0.272165	0.408144	0.000098
C22	C	0.321825	0.300577	0.000107
N23	N	0.449827	0.215266	0.000102
N24	N	0.405480	0.311295	0.000103
C25	C	0.932154	0.035595	0.000102
C26	C	0.929861	-0.103157	0.000099
C27	C	0.996680	-0.172386	0.000105
C28	C	0.994312	-0.315793	0.000102
C29	C	1.071037	0.268473	0.000114
C30	C	1.158141	0.279621	0.000118
C31	C	0.923155	0.490971	0.000095
C32	C	0.925449	0.629723	0.000093
N33	N	0.917942	0.277840	0.205397
N34	N	0.937374	0.248717	-0.205198
C35	C	0.968692	0.201542	0.250798
C36	C	0.964408	0.207989	0.341605
C37	C	0.909377	0.290741	0.387010
C38	C	0.858622	0.367042	0.341602
C39	C	0.862903	0.360588	0.250797
C40	C	0.890899	0.318564	0.658589
C41	C	0.886624	0.325015	0.749401
C42	C	0.992409	0.165960	0.749398
C43	C	0.996689	0.159518	0.658590
C44	C	0.945931	0.235815	0.613191
N45	N	0.904999	0.297335	0.479830
N46	N	0.950306	0.229213	0.520373
H47	H	0.556944	0.022302	0.000115
H48	H	0.868243	-0.310778	0.000093
C49	C	0.848240	-0.246213	-0.074073
C50	C	0.850264	-0.166458	0.000087
H51	H	0.799099	-0.285295	-0.074076
H52	H	0.854383	-0.199225	-0.124368
H53	H	0.889858	-0.308223	-0.074061
H54	H	0.808649	-0.104443	0.000072
H55	H	0.844113	-0.213449	0.050396
C56	C	0.459983	0.468392	0.074237
C57	C	0.511073	0.462255	0.000074
H58	H	0.426284	0.541390	0.074231
H59	H	0.429111	0.396597	0.074242
H60	H	0.489908	0.471372	0.124536
H61	H	0.481147	0.459266	-0.050225
H62	H	0.541948	0.534068	0.000062
C63	C	0.246659	0.630101	0.000103
C64	C	0.307534	0.537902	0.000098
H65	H	0.268496	0.710207	0.000107
H66	H	0.217478	0.617757	-0.050199
H67	H	0.212726	0.624878	0.050416
H68	H	0.341464	0.543119	-0.050218
H69	H	0.336728	0.550250	0.050405
C70	C	1.137611	-0.200521	0.000108
C71	C	1.076280	-0.109089	0.000107
H72	H	1.186753	-0.161444	0.000102
H73	H	1.131465	-0.247486	0.050413
H74	H	1.136214	-0.254628	-0.050201
H75	H	1.077673	-0.054987	0.050420
H76	H	1.082427	-0.062103	-0.050203
H77	H	0.149878	0.485248	0.000104
C78	C	0.201006	-0.028740	-0.074023
C79	C	0.172428	0.042300	0.000130
H80	H	0.179168	-0.108845	-0.074014
H81	H	0.186377	0.012322	-0.124324
H82	H	0.256855	-0.037891	-0.074012
H83	H	0.116579	0.051459	0.000115
H84	H	0.187051	0.001228	0.050443
H85	H	1.005732	0.145860	0.378571
C86	C	0.395323	0.058173	-0.074047
C87	C	0.344230	0.064296	0.000113
H88	H	0.429022	-0.014825	-0.074046
H89	H	0.365405	0.055211	-0.124342
H90	H	0.426201	0.129975	-0.074039
H91	H	0.313348	-0.007502	0.000102
H92	H	0.374151	0.067247	0.050422
C93	C	1.072819	0.044962	0.259925
C94	C	1.029183	0.110574	0.200894
H95	H	1.110160	-0.011205	0.229116
H96	H	1.099646	0.102288	0.295331
H97	H	1.038244	-0.000711	0.295354
H98	H	1.063758	0.156255	0.165469
H99	H	1.002355	0.053240	0.165474
H100	H	1.051514	-0.375300	0.000111
C101	C	1.100816	0.002933	0.667712
C102	C	1.057176	0.068547	0.608684
H103	H	1.138156	-0.053232	0.636900
H104	H	1.127643	0.060258	0.703117
H105	H	1.066243	-0.042744	0.703141
H106	H	1.091749	0.114231	0.573259
H107	H	1.030348	0.011214	0.573264
H108	H	0.705428	0.041309	0.000091
C109	C	0.757917	0.518467	0.259915
C110	C	0.807121	0.444464	0.200888
H111	H	0.723481	0.570251	0.229102
H112	H	0.727752	0.466175	0.295340
H113	H	0.789151	0.569178	0.295325
H114	H	0.775887	0.393745	0.165483
H115	H	0.837288	0.496761	0.165448
C116	C	0.782463	0.481560	0.740288
C117	C	0.826118	0.415964	0.799312
H118	H	0.745108	0.537696	0.771103
H119	H	0.817018	0.527256	0.704865
H120	H	0.755646	0.424212	0.704876
H121	H	0.852940	0.473312	0.834720
H122	H	0.791558	0.370267	0.834749
C123	C	0.879603	0.479519	0.556473
C124	C	0.835117	0.402451	0.608696
H125	H	0.845163	0.531308	0.525668
H126	H	0.910827	0.530215	0.591891
H127	H	0.912979	0.429297	0.516434
H128	H	0.801745	0.452673	0.648741
H129	H	0.803879	0.351750	0.573276
H130	H	1.033733	0.103841	0.786370
H131	H	0.813811	0.434416	0.378576
C132	C	0.661289	0.544776	-0.074094
C133	C	0.682872	0.484265	0.000063
H134	H	0.683117	0.624889	-0.074093
H135	H	0.680674	0.496581	-0.124391
H136	H	0.605438	0.553911	-0.074080
H137	H	0.738723	0.475121	0.000046
H138	H	0.663491	0.532471	0.050374
