data_functionalizedCrystal
_audit_creation_method	'MofGen! by Chris Wilmer'
_symmetry_space_group_name_H-M	'P1'
_symmetry_Int_Tables_number	1
_symmetry_cell_setting	triclinic
loop_
_symmetry_equiv_pos_as_xyz
  x,y,z
_cell_length_a	16.992694
_cell_length_b	14.519709
_cell_length_c	15.455313
_cell_angle_alpha	92.669068
_cell_angle_beta	87.142206
_cell_angle_gamma	87.174184
loop_
_atom_site_label
_atom_site_type_symbol
_atom_site_fract_x
_atom_site_fract_y
_atom_site_fract_z
O1	O	1.044092	0.191795	-0.072025
O2	O	0.815805	0.189648	-0.072051
O3	O	0.936001	0.056918	-0.072029
O4	O	0.923896	0.324525	-0.072046
O5	O	0.929127	0.064474	0.072232
O6	O	0.808932	0.197205	0.072210
O7	O	1.037219	0.199352	0.072236
Cu8	Cu	0.922447	0.198968	0.085395
Cu9	Cu	0.930576	0.190031	-0.085210
O10	O	0.917023	0.332082	0.072215
C11	C	0.783152	0.190666	0.000077
C12	C	0.696097	0.182430	0.000067
C13	C	0.645968	0.261890	0.000063
C14	C	0.564170	0.254147	0.000075
C15	C	0.532502	0.166943	0.000086
C16	C	0.582638	0.087478	0.000093
C17	C	0.664434	0.095222	0.000087
C18	C	0.288859	0.134847	0.000111
C19	C	0.207056	0.127109	0.000115
C20	C	0.188594	0.293779	0.000099
C21	C	0.270393	0.301515	0.000087
C22	C	0.320520	0.222050	0.000099
N23	N	0.448892	0.159027	0.000096
N24	N	0.404129	0.229968	0.000095
C25	C	0.932000	0.026296	0.000101
C26	C	0.930309	-0.076207	0.000102
C27	C	0.924087	-0.451550	0.000078
C28	C	0.925815	-0.347118	0.000085
C29	C	0.927198	-0.263882	0.000091
C30	C	0.928926	-0.159443	0.000096
C31	C	1.069872	0.198333	0.000107
C32	C	1.156927	0.206569	0.000111
C33	C	0.921024	0.362704	0.000082
C34	C	0.922715	0.465206	0.000076
N35	N	0.916736	0.205254	0.205390
N36	N	0.936294	0.183739	-0.205204
C37	C	0.967817	0.148889	0.250793
C38	C	0.963505	0.153651	0.341600
C39	C	0.908115	0.214784	0.387002
C40	C	0.857028	0.271151	0.341593
C41	C	0.861337	0.266383	0.250787
C42	C	0.889516	0.235339	0.658581
C43	C	0.885212	0.240104	0.749392
C44	C	0.991689	0.122602	0.749393
C45	C	0.995996	0.117844	0.658586
C46	C	0.944907	0.174208	0.613185
N47	N	0.903708	0.219655	0.479822
N48	N	0.949311	0.169331	0.520367
H49	H	0.556847	0.016475	0.000114
O50	O	0.337628	0.057716	-0.000004
C51	C	0.389030	0.053278	-0.074732
H52	H	0.394459	0.125486	-0.099643
H53	H	0.364542	0.006437	-0.127047
C54	C	0.464257	-0.074524	-0.021446
C55	C	0.470931	0.014165	-0.052038
H56	H	0.514777	-0.098655	-0.007449
H57	H	0.429625	-0.071537	0.028898
H58	H	0.443848	-0.113547	-0.065047
H59	H	0.491330	0.053189	-0.008433
H60	H	0.505568	0.011183	-0.102375
H61	H	0.181276	0.056094	0.000123
O62	O	0.713108	0.018000	-0.000067
C63	C	0.702274	-0.038515	-0.074765
H64	H	0.676865	0.005378	-0.126988
H65	H	0.659751	-0.094087	-0.057866
C66	C	0.813411	-0.138382	-0.044502
C67	C	0.782210	-0.084471	-0.108646
H68	H	0.862719	-0.166734	-0.065400
H69	H	0.820709	-0.100310	0.005825
H70	H	0.777968	-0.184685	-0.030426
H71	H	0.817649	-0.038163	-0.122714
H72	H	0.774921	-0.122537	-0.158977
O73	O	0.140013	0.371059	0.000056
C74	C	0.185503	0.449687	0.000070
H75	H	0.247814	0.429344	-0.027245
H76	H	0.188077	0.479758	0.069277
C77	C	0.071014	0.547421	-0.022958
C78	C	0.147544	0.522437	-0.056513
H79	H	0.047598	0.592299	-0.057857
H80	H	0.040365	0.494449	-0.022963
H81	H	0.073169	0.572475	0.034715
H82	H	0.145387	0.497373	-0.114180
H83	H	0.178191	0.575407	-0.056518
H84	H	0.819740	0.312280	0.213821
O85	O	1.021647	0.089424	0.206827
C86	C	1.065820	0.040712	0.266378
H87	H	1.030596	0.040679	0.331112
H88	H	1.123654	0.075500	0.276023
C89	C	1.126790	-0.059405	0.151449
C90	C	1.083525	-0.059452	0.230954
H91	H	1.137715	-0.121190	0.129597
H92	H	1.097033	-0.026585	0.111328
H93	H	1.174980	-0.030411	0.159497
H94	H	1.035332	-0.088435	0.222903
H95	H	1.113274	-0.092279	0.271074
O96	O	0.301285	0.386151	0.000010
C97	C	0.384230	0.375947	0.000009
H98	H	0.404625	0.303941	-0.027267
H99	H	0.403732	0.385759	0.069206
C100	C	0.395888	0.537252	-0.023122
C101	C	0.420939	0.448816	-0.056630
H102	H	0.418533	0.582203	-0.058055
H103	H	0.340007	0.544129	-0.023117
H104	H	0.412142	0.545416	0.034542
H105	H	0.404677	0.440649	-0.114288
H106	H	0.476819	0.441940	-0.056645
H107	H	0.671744	0.332900	0.000054
H108	H	0.840105	0.289889	0.786355
O109	O	0.839826	0.289964	0.614442
C110	C	0.793883	0.234224	0.561911
H111	H	0.791150	0.162824	0.589287
H112	H	0.821687	0.227600	0.493090
C113	C	0.713189	0.366429	0.526892
C114	C	0.709827	0.278737	0.560520
H115	H	0.661340	0.393888	0.526029
H116	H	0.744143	0.403983	0.562280
H117	H	0.736362	0.360897	0.469544
H118	H	0.686664	0.284272	0.617870
H119	H	0.678867	0.241185	0.525141
H120	H	0.811924	0.320923	0.378565
H121	H	1.033283	0.076712	0.786368
H122	H	0.523358	0.318852	0.000071
O123	O	1.013021	0.098803	0.385739
C124	C	0.968467	0.041540	0.438295
H125	H	0.907921	0.033941	0.410943
H126	H	0.961133	0.073706	0.507113
C127	C	1.085853	-0.044863	0.473282
C128	C	1.011493	-0.054203	0.439685
H129	H	1.112394	-0.103920	0.474144
H130	H	1.115871	-0.006282	0.437877
H131	H	1.079731	-0.018054	0.530628
H132	H	1.017616	-0.081000	0.382337
H133	H	0.981477	-0.092790	0.475081
H134	H	1.041099	0.068065	0.621621
