data_functionalizedCrystal
_audit_creation_method	'MofGen! by Chris Wilmer'
_symmetry_space_group_name_H-M	'P1'
_symmetry_Int_Tables_number	1
_symmetry_cell_setting	triclinic
loop_
_symmetry_equiv_pos_as_xyz
  x,y,z
_cell_length_a	10.654550
_cell_length_b	14.519709
_cell_length_c	9.730223
_cell_angle_alpha	89.997715
_cell_angle_beta	89.996251
_cell_angle_gamma	84.082524
loop_
_atom_site_label
_atom_site_type_symbol
_atom_site_fract_x
_atom_site_fract_y
_atom_site_fract_z
O1	O	1.666589	0.129528	-0.114406
O2	O	1.300991	0.141869	-0.114384
O3	O	1.493483	0.001510	-0.114384
O4	O	1.474097	0.269887	-0.114407
O5	O	1.493481	0.001514	0.114196
O6	O	1.300989	0.141873	0.114195
O7	O	1.666586	0.129532	0.114174
Zn8	Zn	1.483787	0.135703	0.150477
Zn9	Zn	1.483790	0.135698	-0.150687
O10	O	1.474094	0.269890	0.114173
C11	C	1.254201	0.140965	-0.000092
C12	C	1.114784	0.138254	-0.000083
C13	C	1.034504	0.220895	-0.000110
C14	C	0.903507	0.218342	-0.000134
C15	C	0.933085	0.050500	-0.000108
C16	C	1.064078	0.053054	-0.000075
C17	C	1.017426	0.317797	-0.000131
C18	C	0.886430	0.315244	-0.000154
C19	C	1.492579	-0.032852	-0.000093
C20	C	1.489871	-0.135247	-0.000092
C21	C	1.479904	-0.510195	-0.000127
C22	C	1.482672	-0.405873	-0.000117
C23	C	1.484887	-0.322725	-0.000109
C24	C	1.487656	-0.218396	-0.000101
C25	C	1.713377	0.130436	-0.000122
C26	C	1.852794	0.133147	-0.000140
C27	C	1.474999	0.304253	-0.000120
C28	C	1.477707	0.406648	-0.000130
N29	N	1.483795	0.135705	0.356013
N30	N	1.483793	0.135688	-0.356224
C31	C	1.569052	0.073576	0.427939
C32	C	1.569048	0.073565	0.571822
C33	C	1.398527	0.197821	0.571840
C34	C	1.398525	0.197827	0.427959
C35	C	1.667505	0.001840	0.427931
C36	C	1.667502	0.001829	0.571814
H37	H	1.052786	0.348651	-0.098821
H38	H	1.646743	-0.069045	0.388884
H39	H	0.840476	0.344531	0.098527
H40	H	0.891784	-0.018867	-0.000123
C41	C	1.627188	-0.088666	0.632131
C42	C	1.510279	-0.086032	0.725668
C43	C	1.469977	-0.176524	0.785997
C44	C	1.546583	-0.269650	0.752788
C45	C	1.663498	-0.272288	0.659246
C46	C	1.703801	-0.181795	0.598917
H47	H	1.453564	-0.017091	0.750256
H48	H	1.383428	-0.174571	0.855244
H49	H	1.516748	-0.336638	0.797448
H50	H	1.720213	-0.341228	0.634659
H51	H	1.790350	-0.183749	0.529671
H52	H	1.763861	0.017630	0.610857
H53	H	1.046392	0.355697	0.095532
H54	H	0.844347	0.351754	-0.095825
C55	C	1.790392	0.032185	0.367624
C56	C	1.917817	-0.023316	0.400819
C57	C	2.040702	0.007034	0.340513
C58	C	2.036163	0.092886	0.247012
C59	C	1.908734	0.148392	0.213812
C60	C	1.785849	0.118041	0.274118
H61	H	1.921181	-0.086873	0.470039
H62	H	2.135033	-0.034055	0.365091
H63	H	2.127130	0.115353	0.202370
H64	H	1.905370	0.211949	0.144592
H65	H	1.691517	0.159131	0.249540
C66	C	1.304734	0.266162	0.348834
C67	C	1.211007	0.334540	0.427969
C68	C	1.117211	0.402877	0.348842
C69	C	1.117143	0.402836	0.190579
C70	C	1.210874	0.334456	0.111435
C71	C	1.304669	0.266119	0.190563
H72	H	1.211054	0.334573	0.545133
H73	H	1.047825	0.453497	0.407430
H74	H	1.047710	0.453423	0.132004
H75	H	1.210826	0.334423	-0.005729
H76	H	1.374055	0.215499	0.131974
C77	C	1.152385	-0.037854	-0.000027
C78	C	1.246467	-0.059169	0.118703
C79	C	1.334772	-0.150082	0.118754
C80	C	1.328997	-0.219679	0.000074
C81	C	1.234912	-0.198366	-0.118665
C82	C	1.146606	-0.107453	-0.118715
H83	H	1.250745	-0.007648	0.206564
H84	H	1.404421	-0.165859	0.206653
H85	H	1.394366	-0.286978	0.000112
H86	H	1.230633	-0.249887	-0.206526
H87	H	1.076957	-0.091676	-0.206615
H88	H	1.329102	0.248398	0.630434
