data_functionalizedCrystal
_audit_creation_method	'MofGen! by Chris Wilmer'
_symmetry_space_group_name_H-M	'P1'
_symmetry_Int_Tables_number	1
_symmetry_cell_setting	triclinic
loop_
_symmetry_equiv_pos_as_xyz
  x,y,z
_cell_length_a	10.723024
_cell_length_b	10.654550
_cell_length_c	9.798715
_cell_angle_alpha	89.998020
_cell_angle_beta	89.996609
_cell_angle_gamma	84.476386
loop_
_atom_site_label
_atom_site_type_symbol
_atom_site_fract_x
_atom_site_fract_y
_atom_site_fract_z
O1	O	1.657213	0.176147	-0.113478
O2	O	1.294064	0.193008	-0.113483
O3	O	1.483988	0.001837	-0.113475
O4	O	1.467289	0.367318	-0.113486
O5	O	1.483974	0.001836	0.113507
O6	O	1.294049	0.193007	0.113499
O7	O	1.657199	0.176146	0.113504
Zn8	Zn	1.475622	0.184577	0.149540
Zn9	Zn	1.475641	0.184577	-0.149519
O10	O	1.467275	0.367317	0.113496
C11	C	1.247557	0.191780	0.000008
C12	C	1.109002	0.188109	0.000006
C13	C	1.482755	-0.044961	0.000014
C14	C	1.479086	-0.184404	0.000009
C15	C	1.034035	0.295078	0.000002
C16	C	0.890831	0.291287	0.000001
C17	C	1.590911	-0.263907	0.000015
C18	C	1.587456	-0.394927	0.000005
C19	C	1.360343	-0.366929	-0.000010
C20	C	1.363799	-0.235912	-0.000010
C21	C	1.706198	-0.212399	0.000034
C22	C	1.818032	-0.291903	0.000041
C23	C	1.814578	-0.422923	0.000031
C24	C	1.699289	-0.474440	0.000015
C25	C	1.703706	0.177373	0.000010
C26	C	1.842261	0.181045	0.000003
C27	C	1.468508	0.414115	0.000004
C28	C	1.472176	0.553558	-0.000000
N29	N	1.475618	0.184575	0.353640
N30	N	1.475654	0.184569	-0.353619
C31	C	1.555362	0.103954	0.421420
C32	C	1.555382	0.103950	0.578582
H33	H	1.075871	0.389466	0.000007
H34	H	1.709024	-0.105717	0.000046
H35	H	1.623616	0.034929	0.363100
O36	O	1.636778	0.021427	0.647961
C37	C	1.707338	-0.196390	0.692005
C38	C	1.615105	-0.103068	0.613321
H39	H	1.689831	-0.297065	0.664049
H40	H	1.807548	-0.179527	0.663945
H41	H	1.692857	-0.181657	0.806360
H42	H	1.629472	-0.117747	0.498948
H43	H	1.514928	-0.119956	0.641494
H44	H	1.407383	0.253600	0.588102
H45	H	1.911895	-0.249949	0.000020
H46	H	1.905638	-0.487652	0.000023
O47	O	1.248330	-0.416911	-0.000258
C48	C	1.053139	-0.433015	-0.117812
C49	C	1.179964	-0.376354	-0.117723
H50	H	0.997818	-0.400226	-0.212758
H51	H	1.069806	-0.540319	-0.117896
H52	H	0.997865	-0.400376	-0.022779
H53	H	1.235303	-0.408897	-0.212740
H54	H	1.163208	-0.269057	-0.117568
O55	O	1.394130	0.266746	0.423357
C56	C	1.224073	0.292234	0.584821
C57	C	1.316309	0.199036	0.505981
H58	H	1.161113	0.237527	0.651620
H59	H	1.278676	0.355222	0.651802
H60	H	1.164085	0.352963	0.509321
H61	H	1.376319	0.138224	0.581383
H62	H	1.261629	0.136135	0.438981
H63	H	1.067166	0.093722	-0.000026
H64	H	0.906672	0.089466	-0.000002
H65	H	0.826412	0.382860	-0.000008
H66	H	1.696486	-0.581126	-0.000008
H67	H	1.272742	-0.171178	-0.000012
