data_functionalizedCrystal
_audit_creation_method	'MofGen! by Chris Wilmer'
_symmetry_space_group_name_H-M	'P1'
_symmetry_Int_Tables_number	1
_symmetry_cell_setting	triclinic
loop_
_symmetry_equiv_pos_as_xyz
  x,y,z
_cell_length_a	6.817900
_cell_length_b	15.866870
_cell_length_c	14.858572
_cell_angle_alpha	112.093349
_cell_angle_beta	104.524003
_cell_angle_gamma	102.655915
loop_
_atom_site_label
_atom_site_type_symbol
_atom_site_fract_x
_atom_site_fract_y
_atom_site_fract_z
V1	V	-4.065742	-0.133334	-0.335668
O2	O	-4.024422	0.005786	-0.282457
O3	O	-4.044008	-0.263781	-0.378402
O4	O	-4.022016	-0.131555	-0.461520
O5	O	-4.046567	-0.127355	-0.198764
V6	V	-4.545308	-0.116661	-0.313823
O7	O	-4.335678	-0.169906	-0.383586
O8	O	-4.725569	-0.080089	-0.265904
O9	O	-4.343835	0.013786	-0.271088
O10	O	-4.704024	-0.255781	-0.367033
O11	O	-4.681880	-0.122640	-0.450726
O12	O	-4.365828	-0.118440	-0.187971
C13	C	-3.895345	-0.295573	-0.384726
C14	C	-3.958894	-0.402217	-0.420506
C15	C	-3.935468	-0.683610	-0.088619
C16	C	-3.995192	-0.783823	-0.122270
C17	C	-4.088163	-0.811550	-0.302100
C18	C	-4.028436	-0.711337	-0.268463
C19	C	-3.952093	-0.647375	-0.161721
C20	C	-4.045061	-0.675101	-0.341565
C21	C	-3.985349	-0.574898	-0.307931
C22	C	-3.909012	-0.510929	-0.201194
C23	C	-3.892381	-0.547171	-0.128087
C24	C	-4.121418	-0.739066	-0.448307
C25	C	-4.138044	-0.702830	-0.521409
C26	C	-4.078317	-0.602624	-0.487775
C27	C	-4.001980	-0.538656	-0.381038
C28	C	-4.094948	-0.566383	-0.560882
C29	C	-4.035236	-0.466179	-0.527248
C30	C	-3.942268	-0.438452	-0.347404
C31	C	-3.867290	-0.126905	-0.490749
C32	C	-3.913000	-0.126314	-0.593930
C33	C	-4.080298	-0.124154	-0.971758
C34	C	-4.033742	-0.124755	-0.866634
C35	C	-3.996650	-0.125235	-0.782847
C36	C	-3.950091	-0.125834	-0.677716
C37	C	-4.155841	0.045573	-0.264763
C38	C	-4.071532	0.152216	-0.228990
C39	C	-4.183896	-0.123093	-0.158737
C40	C	-4.117424	-0.123679	-0.055554
H41	H	-4.150336	-0.863641	-0.389009
H42	H	-3.860402	-0.429338	-0.173811
O43	O	-3.818450	-0.484935	-0.024435
C44	C	-3.955332	-0.430817	-0.005610
H45	H	-4.044828	-0.429410	-0.080653
H46	H	-4.077345	-0.465844	0.021609
C47	C	-3.709217	-0.328015	0.171726
C48	C	-3.819125	-0.326280	0.079559
H49	H	-3.625203	-0.263533	0.224265
H50	H	-3.617001	-0.364478	0.159045
H51	H	-3.810915	-0.357209	0.194394
H52	H	-3.717426	-0.297098	0.056885
H53	H	-3.911322	-0.289810	0.092238
O54	O	-3.861454	-0.621606	0.015107
C55	C	-3.859527	-0.675070	0.072426
H56	H	-3.979361	-0.752270	0.019895
H57	H	-3.690245	-0.677140	0.102076
C58	C	-3.777040	-0.531575	0.230467
C59	C	-3.924235	-0.626390	0.165949
H60	H	-3.816945	-0.501546	0.288159
H61	H	-3.778330	-0.495554	0.191851
H62	H	-3.635984	-0.533313	0.255164
H63	H	-4.065283	-0.624650	0.141243
H64	H	-3.922971	-0.662410	0.204563
O65	O	-4.051738	-0.431094	-0.598362
C66	C	-4.268777	-0.468644	-0.667276
H67	H	-4.356983	-0.539012	-0.668140
H68	H	-4.350683	-0.413586	-0.640083
C69	C	-4.167731	-0.402555	-0.777063
C70	C	-4.276062	-0.488986	-0.778130
H71	H	-4.172228	-0.415099	-0.845442
H72	H	-4.021508	-0.377253	-0.730632
H73	H	-4.235999	-0.356681	-0.754397
H74	H	-4.207777	-0.534853	-0.800783
H75	H	-4.422274	-0.514297	-0.824567
H76	H	-4.200216	-0.754922	-0.608319
H77	H	-3.981642	-0.813320	-0.062733
O78	O	-3.868337	-0.376217	-0.243752
C79	C	-4.005218	-0.322099	-0.224927
H80	H	-4.094714	-0.320691	-0.299970
H81	H	-4.127232	-0.357126	-0.197708
C82	C	-3.759104	-0.219297	-0.047591
C83	C	-3.869011	-0.217562	-0.139758
H84	H	-3.675090	-0.154815	0.004948
H85	H	-3.666887	-0.255759	-0.060271
H86	H	-3.860802	-0.248491	-0.024922
H87	H	-3.767313	-0.188379	-0.162432
H88	H	-3.961208	-0.181092	-0.127079
O89	O	-4.179227	-0.836418	-0.481102
C90	C	-4.050492	-0.872845	-0.535645
H91	H	-3.985161	-0.821641	-0.566763
H92	H	-3.909745	-0.878609	-0.480573
C93	C	-4.268487	-1.036907	-0.589362
C94	C	-4.188261	-0.974021	-0.627589
H95	H	-4.353463	-1.099319	-0.646075
H96	H	-4.355214	-1.012366	-0.552612
H97	H	-4.151181	-1.041699	-0.543468
H98	H	-4.305565	-0.969221	-0.673471
H99	H	-4.101556	-0.998564	-0.664349
O100	O	-4.169419	-0.628625	-0.664547
C101	C	-4.380928	-0.692046	-0.695387
H102	H	-4.407572	-0.696565	-0.624352
H103	H	-4.502804	-0.663524	-0.731004
C104	C	-4.378621	-0.788197	-0.864166
C105	C	-4.411338	-0.793754	-0.776920
H106	H	-4.397386	-0.850935	-0.914463
H107	H	-4.236126	-0.745468	-0.843391
H108	H	-4.480188	-0.764425	-0.893834
H109	H	-4.309755	-0.817514	-0.747247
H110	H	-4.553817	-0.836489	-0.797693
