data_functionalizedCrystal
_audit_creation_method	'MofGen! by Chris Wilmer'
_symmetry_space_group_name_H-M	'P1'
_symmetry_Int_Tables_number	1
_symmetry_cell_setting	triclinic
loop_
_symmetry_equiv_pos_as_xyz
  x,y,z
_cell_length_a	31.640172
_cell_length_b	27.440280
_cell_length_c	27.440280
_cell_angle_alpha	120.008231
_cell_angle_beta	90.001612
_cell_angle_gamma	59.994340
loop_
_atom_site_label
_atom_site_type_symbol
_atom_site_fract_x
_atom_site_fract_y
_atom_site_fract_z
Zr1	Zr	0.407154	0.533438	0.064060
O2	O	0.339654	0.635131	0.141891
O3	O	0.427848	0.431754	0.040190
O4	O	0.427835	0.533442	0.141879
O5	O	0.339675	0.533436	-0.040000
O6	O	0.497392	0.533434	0.141883
O7	O	0.339667	0.533443	0.040202
O8	O	0.497415	0.351533	-0.040022
O9	O	0.339651	0.715337	0.141904
O10	O	0.488580	0.473568	0.030025
O11	O	0.436677	0.473569	-0.029831
O12	O	0.436662	0.593293	0.089895
O13	O	0.384758	0.593294	0.030039
Zr14	Zr	0.518100	0.533413	-0.063847
Zr15	Zr	0.518088	0.533424	0.064065
Zr16	Zr	0.407166	0.533426	-0.063852
Zr17	Zr	0.407150	0.661357	0.064081
Zr18	Zr	0.518104	0.405493	-0.063868
O19	O	0.497405	0.635096	-0.039976
O20	O	0.497388	0.635113	0.141899
O21	O	0.339671	0.635115	-0.039984
O22	O	0.585600	0.431719	-0.141678
O23	O	0.585582	0.431735	0.040197
O24	O	0.427865	0.431737	-0.141686
O25	O	0.585579	0.533414	0.040213
O26	O	0.497418	0.533408	-0.141666
O27	O	0.427862	0.533416	-0.141669
O28	O	0.585587	0.533407	-0.039989
O29	O	0.427829	0.715327	0.141908
O30	O	0.497424	0.351523	-0.141695
O31	O	0.585602	0.351513	-0.141691
O32	O	0.585593	0.351522	-0.040018
O33	O	0.339661	0.715328	0.040231
O34	O	0.427839	0.715318	0.040235
O35	O	0.488592	0.473557	-0.089682
O36	O	0.540495	0.473556	-0.029826
O37	O	0.488577	0.593282	0.030044
O38	O	0.436673	0.593282	-0.029812
C39	C	0.462632	0.373418	0.000081
C40	C	0.462634	0.319112	0.000072
C41	C	0.424301	0.026623	0.044313
C42	C	0.424301	-0.024394	0.044319
O43	O	0.391718	-0.013195	0.081914
N44	N	0.462625	-0.094107	0.000130
C45	C	0.500955	-0.112803	-0.044065
O46	O	0.533553	-0.176783	-0.081650
C47	C	0.500957	-0.061786	-0.044068
C48	C	0.462627	0.007927	0.000121
C49	C	0.385975	0.096332	0.088498
C50	C	0.385975	0.147345	0.088491
C51	C	0.424301	0.128649	0.044299
C52	C	0.462627	0.058940	0.000114
C53	C	0.539289	-0.080482	-0.088260
C54	C	0.539288	-0.029459	-0.088259
C55	C	0.500958	0.040254	-0.044070
C56	C	0.500953	0.091257	-0.044086
N57	N	0.462629	0.160970	0.000103
C58	C	0.424303	0.179666	0.044296
C59	C	0.500948	-0.219938	-0.044054
C60	C	0.500945	-0.270954	-0.044054
C61	C	0.424291	-0.182542	0.044331
C62	C	0.424293	-0.131525	0.044328
C63	C	0.462624	-0.150225	0.000135
C64	C	0.424306	0.286795	0.044277
C65	C	0.424308	0.337808	0.044265
C66	C	0.500963	0.249392	-0.044118
C67	C	0.500959	0.198382	-0.044108
C68	C	0.462628	0.217089	0.000095
O69	O	0.533521	0.080109	-0.081660
O70	O	0.391715	0.243647	0.081879
C71	C	0.323865	0.533442	0.000100
C72	C	0.276771	0.533447	0.000098
C73	C	-0.015239	0.533417	0.044289
C74	C	-0.192225	0.533408	0.044294
O75	O	-0.215102	0.533381	0.081856
N76	N	-0.214352	0.533405	0.000110
C77	C	-0.192227	0.533400	-0.044079
O78	O	-0.215105	0.533391	-0.081663
C79	C	-0.015239	0.533404	-0.044086
C80	C	0.006882	0.533414	0.000104
C81	C	0.006883	0.533426	0.088475
C82	C	0.051125	0.533432	0.088475
C83	C	0.073246	0.533429	0.044290
C84	C	0.051124	0.533420	0.000104
C85	C	0.006887	0.533394	-0.088277
C86	C	0.051137	0.533393	-0.088276
C87	C	0.073258	0.533403	-0.044086
C88	C	0.117487	0.533423	-0.044081
N89	N	0.139614	0.533425	0.000103
C90	C	0.117493	0.533428	0.044288
C91	C	-0.285149	0.533400	-0.044072
C92	C	-0.329396	0.533400	-0.044070
C93	C	-0.329391	0.533407	0.044302
C94	C	-0.285145	0.533411	0.044302
C95	C	-0.263022	0.533402	0.000111
C96	C	0.210405	0.533441	0.044285
C97	C	0.254650	0.533450	0.044283
C98	C	0.254642	0.533440	-0.044091
C99	C	0.210400	0.533435	-0.044087
C100	C	0.188283	0.533433	0.000104
O101	O	0.140394	0.533442	-0.081627
O102	O	0.140385	0.533423	0.081859
C103	C	-0.059481	0.533411	0.044289
C104	C	-0.081603	0.533402	0.000103
C105	C	-0.059482	0.533399	-0.044082
C106	C	-0.125850	0.533402	0.000105
C107	C	-0.147971	0.533405	0.044291
C108	C	-0.125844	0.533408	0.088474
C109	C	-0.081602	0.533414	0.088474
C110	C	-0.081609	0.533396	-0.088265
C111	C	-0.125851	0.533391	-0.088262
C112	C	-0.147972	0.533394	-0.044076
C113	C	0.601389	0.533409	0.000113
C114	C	0.648483	0.533403	0.000115
C115	C	0.462612	0.533440	0.160106
C116	C	0.462607	0.533445	0.214408
C117	C	0.462622	0.693433	0.000132
C118	C	0.462620	0.747738	0.000141
C119	C	0.424302	0.533430	0.449096
C120	C	0.424300	0.533430	0.398076
O121	O	0.391721	0.533410	0.371674
N122	N	0.462617	0.533430	0.372564
C123	C	0.500942	0.533423	0.398072
O124	O	0.533534	0.533422	0.371687
C125	C	0.500946	0.533417	0.449089
C126	C	0.462623	0.533424	0.474601
C127	C	0.385982	0.533436	0.474608
C128	C	0.385984	0.533437	0.525626
C129	C	0.424305	0.533432	0.551131
C130	C	0.462624	0.533425	0.525619
C131	C	0.539272	0.533405	0.474593
C132	C	0.539273	0.533399	0.525613
C133	C	0.500950	0.533406	0.551125
C134	C	0.500947	0.533421	0.602141
N135	N	0.462630	0.533421	0.627653
C136	C	0.424309	0.533426	0.602147
C137	C	0.500932	0.533433	0.290933
C138	C	0.500926	0.533443	0.239919
C139	C	0.424284	0.533449	0.239926
C140	C	0.424288	0.533444	0.290943
C141	C	0.462614	0.533433	0.316444
C142	C	0.424315	0.533429	0.709288
C143	C	0.424318	0.533432	0.760311
C144	C	0.500962	0.533423	0.760298
C145	C	0.500957	0.533423	0.709281
C146	C	0.462631	0.533423	0.683776
O147	O	0.533510	0.533438	0.628574
O148	O	0.391726	0.533418	0.628534
C149	C	0.462640	0.533416	0.840110
C150	C	0.462640	0.533427	0.785816
C151	C	0.601394	0.373401	0.000087
C152	C	0.648490	0.319090	0.000081
C153	C	0.462647	0.373403	-0.159918
C154	C	0.462654	0.319093	-0.214229
C155	C	0.601409	0.373386	-0.159912
C156	C	0.648510	0.319071	-0.214220
C157	C	0.323845	0.693464	0.160125
C158	C	0.276743	0.747779	0.214434
C159	C	0.323860	0.693449	0.000126
C160	C	0.276764	0.747760	0.000132
C161	C	0.462606	0.693447	0.160131
C162	C	0.462600	0.747757	0.214442
C163	C	0.643508	0.293592	0.031325
C164	C	0.687756	0.242568	0.031331
C165	C	0.736985	0.217041	0.000089
C166	C	0.741966	0.242545	-0.031156
C167	C	0.697719	0.293571	-0.031158
C168	C	0.489756	0.293582	-0.270981
C169	C	0.489761	0.242559	-0.322017
C170	C	0.462666	0.217044	-0.316299
C171	C	0.435560	0.242560	-0.259541
C172	C	0.435553	0.293586	-0.208507
C173	C	0.697727	0.293563	-0.208480
C174	C	0.741988	0.242535	-0.259504
C175	C	0.737031	0.217012	-0.316268
C176	C	0.687809	0.242524	-0.322007
C177	C	0.643549	0.293555	-0.270983
C178	C	0.227526	0.773293	0.208693
C179	C	0.183265	0.824337	0.259717
C180	C	0.188222	0.849863	0.316481
C181	C	0.237445	0.824347	0.322220
C182	C	0.281705	0.773308	0.271197
C183	C	0.281746	0.773264	-0.031106
C184	C	0.237498	0.824302	-0.031098
C185	C	0.188269	0.849831	0.000146
C186	C	0.183288	0.824324	0.031388
C187	C	0.227535	0.773291	0.031383
C188	C	0.489700	0.773256	0.208705
C189	C	0.489703	0.824279	0.259731
C190	C	0.462603	0.849807	0.316494
C191	C	0.435502	0.824303	0.322229
C192	C	0.435502	0.773277	0.271204
H193	H	0.393094	0.302035	0.080272
H194	H	0.511768	0.752480	0.162491
Cl195	Cl	0.221263	0.741230	0.070654
Cl196	Cl	0.343629	0.741184	-0.070386
Cl197	Cl	0.792605	0.152891	0.000096
Cl198	Cl	0.523772	0.856335	0.252507
H199	H	0.272659	0.533460	0.080270
Cl200	Cl	0.132576	0.914027	0.380620
Cl201	Cl	0.462607	0.913957	0.380635
H202	H	0.272659	0.533441	-0.080064
Cl203	Cl	0.549140	0.225901	-0.099673
H204	H	0.241475	0.845137	0.368443
Cl205	Cl	0.462681	0.152896	-0.380464
Cl206	Cl	0.376132	0.533431	0.677233
Cl207	Cl	0.401502	0.210475	-0.252363
H208	H	0.393110	0.533440	0.781083
Cl209	Cl	0.703991	0.325615	-0.070445
Cl210	Cl	0.221281	0.741214	0.137339
H211	H	0.532161	0.533421	0.781074
H212	H	0.393083	0.533449	0.311712
Cl213	Cl	0.182587	0.533434	-0.099636
H214	H	0.782054	0.221753	-0.056592
H215	H	0.511820	0.314351	-0.275648
Cl216	Cl	0.401431	0.856408	0.393592
Cl217	Cl	0.523841	0.210491	-0.393362
Cl218	Cl	0.792678	0.152857	-0.380406
Cl219	Cl	0.549100	0.533448	0.207859
H220	H	-0.143864	0.533414	0.124453
H221	H	0.413485	0.314350	-0.162298
H222	H	0.701773	0.314337	-0.162265
H223	H	0.413432	0.752522	0.275883
H224	H	0.393092	0.394573	0.080248
H225	H	0.354767	0.204106	0.124479
Cl226	Cl	0.343576	0.741234	0.278424
Cl227	Cl	-0.053798	0.533424	0.144029
H228	H	0.782063	0.221768	-0.254820
H229	H	0.683780	0.221736	-0.368230
H230	H	0.354765	0.111567	0.124488
Cl231	Cl	0.581678	0.325611	-0.278210
Cl232	Cl	0.121393	0.856401	0.252488
H233	H	0.241564	0.845060	-0.056542
Cl234	Cl	0.132648	0.913986	0.000144
H235	H	0.393079	-0.074764	0.080307
H236	H	0.393085	-0.167326	0.080317
Cl237	Cl	0.549126	-0.358589	-0.099615
H238	H	-0.267140	0.533393	-0.080059
Cl239	Cl	0.182608	0.533441	0.099841
H240	H	0.532162	-0.235174	-0.080046
H241	H	0.603427	0.314375	0.056773
Cl242	Cl	0.587477	-0.168113	-0.143816
H243	H	0.570503	-0.044693	-0.124246
Cl244	Cl	0.078933	0.533437	0.144026
Cl245	Cl	0.549142	0.110742	-0.099663
H246	H	0.143199	0.845118	0.056826
Cl247	Cl	0.587459	0.533384	0.557667
H248	H	0.354776	0.533438	0.453845
Cl249	Cl	-0.153658	0.533383	-0.143818
H250	H	-0.011123	0.533426	0.124456
H251	H	-0.267136	0.533418	0.080285
Cl252	Cl	-0.357208	0.533409	0.099848
H253	H	0.570478	0.533399	0.453828
Cl254	Cl	-0.357207	0.533402	-0.099618
H255	H	-0.011118	0.533386	-0.124261
H256	H	-0.063601	0.533393	-0.124247
Cl257	Cl	0.078946	0.533381	-0.143835
H258	H	0.354779	0.533440	0.546393
H259	H	0.393082	0.533452	0.219150
Cl260	Cl	0.549114	0.533427	0.322991
Cl261	Cl	0.549131	0.533425	0.677215
Cl262	Cl	0.681482	0.210514	0.070610
