data_functionalizedCrystal
_audit_creation_method	'MofGen! by Chris Wilmer'
_symmetry_space_group_name_H-M	'P1'
_symmetry_Int_Tables_number	1
_symmetry_cell_setting	triclinic
loop_
_symmetry_equiv_pos_as_xyz
  x,y,z
_cell_length_a	17.640280
_cell_length_b	18.215407
_cell_length_c	18.215399
_cell_angle_alpha	90.017777
_cell_angle_beta	78.775397
_cell_angle_gamma	101.203616
loop_
_atom_site_label
_atom_site_type_symbol
_atom_site_fract_x
_atom_site_fract_y
_atom_site_fract_z
Zn1	Zn	-0.314768	-1.184386	-0.356900
Zn2	Zn	0.185232	-0.684386	0.143100
Zn3	Zn	-0.446948	-1.209202	-0.208984
Zn4	Zn	0.053052	-0.709202	0.291016
Zn5	Zn	-0.314783	-1.061321	-0.233849
Zn6	Zn	0.185217	-0.561321	0.266151
Zn7	Zn	-0.446892	-1.086181	-0.332024
Zn8	Zn	0.053108	-0.586181	0.167976
O9	O	-0.380848	-1.135272	-0.282939
O10	O	0.119152	-0.635272	0.217061
O11	O	-0.332319	-1.290665	-0.337283
O12	O	0.167681	-0.790665	0.162717
O13	O	-0.429445	-1.189566	-0.109293
O14	O	0.070555	-0.689566	0.390707
O15	O	-0.204175	-1.056856	-0.270989
O16	O	0.295825	-0.556856	0.229011
O17	O	-0.429431	-1.308897	-0.228610
O18	O	0.070569	-0.808897	0.271390
O19	O	-0.204164	-1.147271	-0.361394
O20	O	0.295836	-0.647271	0.138606
O21	O	-0.332344	-1.080919	-0.127561
O22	O	0.167656	-0.580919	0.372439
O23	O	-0.332290	-0.961631	-0.246867
O24	O	0.167710	-0.461631	0.253133
O25	O	-0.429337	-1.099227	-0.438314
O26	O	0.070663	-0.599227	0.061686
O27	O	-0.429351	-0.979896	-0.318996
O28	O	0.070649	-0.479896	0.181004
O29	O	-0.332265	-1.171377	-0.456590
O30	O	0.167735	-0.671377	0.043410
O31	O	-0.557546	-1.213672	-0.204489
O32	O	-0.057546	-0.713672	0.295511
O33	O	-0.557506	-1.123290	-0.294886
O34	O	-0.057506	-0.623290	0.205114
C35	C	-0.380817	-0.944060	-0.282931
C36	C	0.119183	-0.444060	0.217069
C37	C	-0.380823	-0.862263	-0.282941
C38	C	0.119177	-0.362263	0.217059
C39	C	-0.330354	-0.664593	-0.339582
C40	C	0.169646	-0.164593	0.160418
C41	C	-0.330358	-0.587735	-0.339583
C42	C	0.169642	-0.087735	0.160417
C43	C	-0.431329	-0.606702	-0.226305
C44	C	0.068671	-0.106702	0.273695
C45	C	-0.431320	-0.683558	-0.226301
C46	C	0.068680	-0.183558	0.273699
C47	C	-0.380834	-0.712501	-0.282944
C48	C	0.119166	-0.212501	0.217056
C49	C	-0.380847	-0.558788	-0.282948
C50	C	0.119153	-0.058788	0.217052
C51	C	-0.380852	-0.475455	-0.282949
C52	C	0.119148	0.024545	0.217051
C53	C	-0.380828	-0.795839	-0.282943
C54	C	0.119172	-0.295839	0.217057
C55	C	-0.586205	-1.173891	-0.244306
C56	C	-0.086205	-0.673891	0.255694
C57	C	-0.674058	-1.190480	-0.227803
C58	C	-0.174058	-0.690480	0.272197
C59	C	-0.963026	-1.009552	-0.408577
C60	C	-0.463026	-0.509552	0.091423
C61	C	-1.045577	-1.025141	-0.393047
C62	C	-0.545577	-0.525141	0.106953
C63	C	-1.045554	-1.119314	-0.299012
C64	C	-0.545554	-0.619314	0.200988
C65	C	-0.963001	-1.103736	-0.314537
C66	C	-0.463001	-0.603736	0.185463
C67	C	-0.921744	-1.048853	-0.369320
C68	C	-0.421744	-0.548853	0.130680
C69	C	-0.921719	-1.143037	-0.275280
C70	C	-0.421719	-0.643037	0.224720
C71	C	-0.839173	-1.127457	-0.290801
C72	C	-0.339173	-0.627457	0.209199
C73	C	-0.797910	-1.072575	-0.345580
C74	C	-0.297910	-0.572575	0.154420
C75	C	-0.839198	-1.033273	-0.384841
C76	C	-0.339198	-0.533273	0.115159
C77	C	-0.962978	-1.197916	-0.220493
C78	C	-0.462978	-0.697916	0.279507
C79	C	-0.921695	-1.237217	-0.181236
C80	C	-0.421695	-0.737217	0.318764
C81	C	-0.839148	-1.221641	-0.196761
C82	C	-0.339148	-0.721641	0.303239
C83	C	-0.797885	-1.166759	-0.251539
C84	C	-0.297885	-0.666759	0.248461
C85	C	-0.797860	-1.260943	-0.157499
C86	C	-0.297860	-0.760943	0.342501
C87	C	-0.715315	-1.245363	-0.173020
C88	C	-0.215315	-0.745363	0.326980
C89	C	-0.715340	-1.151179	-0.267061
C90	C	-0.215340	-0.651179	0.232939
C91	C	-0.174689	-1.096523	-0.321740
C92	C	0.325311	-0.596523	0.178260
C93	C	-0.086836	-1.080010	-0.338274
C94	C	0.413164	-0.580010	0.161726
C95	C	-0.380793	-1.135307	-0.474903
C96	C	0.119207	-0.635307	0.025097
C97	C	-0.380770	-1.135322	-0.556706
C98	C	0.119230	-0.635322	-0.056706
C99	C	-0.380871	-0.327230	-0.282948
C100	C	0.119129	0.172770	0.217052
C101	C	-0.380858	-0.409026	-0.282951
C102	C	0.119142	0.090974	0.217049
C103	C	-0.330178	-1.172898	-0.754426
C104	C	0.169822	-0.672898	-0.254426
C105	C	-0.330155	-1.172903	-0.831290
C106	C	0.169845	-0.672903	-0.331290
C107	C	-0.431240	-1.097774	-0.812246
C108	C	0.068760	-0.597774	-0.312246
C109	C	-0.431258	-1.097765	-0.735385
C110	C	0.068742	-0.597765	-0.235385
C111	C	-0.380729	-1.135332	-0.706477
C112	C	0.119271	-0.635332	-0.206477
C113	C	-0.380687	-1.135345	-0.860201
C114	C	0.119313	-0.635345	-0.360201
C115	C	-0.380662	-1.135350	-0.943540
C116	C	0.119338	-0.635350	-0.443540
C117	C	-0.380752	-1.135327	-0.623134
C118	C	0.119248	-0.635327	-0.123134
C119	C	-0.380845	-1.135270	-0.091734
C120	C	0.119155	-0.635270	0.408266
C121	C	-0.380646	-1.135355	-0.009973
C122	C	0.119354	-0.635355	0.490027
H123	H	-0.472428	-0.722567	-0.180176
H124	H	0.027572	-0.222567	0.319824
H125	H	-0.472381	-1.067190	-0.835793
H126	H	0.027619	-0.567190	-0.335793
Br127	Br	-0.499861	-1.046771	-0.670307
Br128	Br	0.000139	-0.546771	-0.170307
Br129	Br	-0.261553	-1.223894	-0.896360
Br130	Br	0.238447	-0.723894	-0.396360
Br131	Br	-0.685883	-1.051614	-0.366833
Br132	Br	-0.185883	-0.551614	0.133167
H133	H	-0.289243	-0.688155	-0.385702
H134	H	0.210757	-0.188155	0.114298
H135	H	-0.289251	-0.548730	-0.385702
H136	H	0.210749	-0.048730	0.114298
H137	H	-0.681746	-1.106493	-0.311676
H138	H	-0.181746	-0.606493	0.188324
H139	H	-0.955298	-1.281901	-0.136630
H140	H	-0.455298	-0.781901	0.363370
Br141	Br	-0.499844	-0.567417	-0.149438
Br142	Br	0.000156	-0.067417	0.350562
H143	H	-0.805605	-0.988587	-0.429457
H144	H	-0.305605	-0.488587	0.070543
H145	H	-1.079186	-0.993141	-0.425028
H146	H	-0.579186	-0.493141	0.074972
Br147	Br	-0.907026	-0.935076	-0.482936
Br148	Br	-0.407026	-0.435076	0.017064
H149	H	-0.831464	-1.305623	-0.112890
H150	H	-0.331464	-0.805623	0.387110
H151	H	-1.079157	-1.163998	-0.254406
H152	H	-0.579157	-0.663998	0.245594
Br153	Br	-0.261600	-1.223880	-0.715196
Br154	Br	0.238400	-0.723880	-0.215196
H155	H	-0.681703	-1.277366	-0.141052
H156	H	-0.181703	-0.777366	0.358948
Br157	Br	-1.075005	-1.219089	-0.199456
Br158	Br	-0.575005	-0.719089	0.300544
