data_functionalizedCrystal
_audit_creation_method	'MofGen! by Chris Wilmer'
_symmetry_space_group_name_H-M	'P1'
_symmetry_Int_Tables_number	1
_symmetry_cell_setting	triclinic
loop_
_symmetry_equiv_pos_as_xyz
  x,y,z
_cell_length_a	10.489711
_cell_length_b	8.965430
_cell_length_c	10.489741
_cell_angle_alpha	90.000707
_cell_angle_beta	95.466909
_cell_angle_gamma	90.005384
loop_
_atom_site_label
_atom_site_type_symbol
_atom_site_fract_x
_atom_site_fract_y
_atom_site_fract_z
O1	O	1.694075	0.124092	-0.179778
O2	O	1.322875	0.124084	-0.196710
O3	O	1.516922	0.124079	-0.002645
O4	O	1.500029	0.124097	-0.373843
O5	O	1.516905	-0.124000	-0.002658
O6	O	1.322859	-0.123995	-0.196723
O7	O	1.694059	-0.123986	-0.179791
Cu8	Cu	1.508457	-0.146642	-0.188258
Cu9	Cu	1.508477	0.146740	-0.188243
O10	O	1.500012	-0.123982	-0.373856
C11	C	1.275334	0.000043	-0.195446
C12	C	1.133703	0.000039	-0.191644
C13	C	0.951317	0.000062	-0.308348
C14	C	1.043470	0.122373	-0.250046
C15	C	1.043427	-0.122214	-0.250028
C16	C	0.973519	0.122483	-0.126504
C17	C	0.973466	-0.122213	-0.126502
C18	C	1.065593	0.000127	-0.068111
N19	N	1.508453	-0.352992	-0.188268
C20	C	1.418685	-0.450295	-0.277987
C21	C	1.534183	-0.549705	-0.303785
C22	C	1.393004	-0.549709	-0.162481
C23	C	1.624010	-0.450212	-0.214124
C24	C	1.482754	-0.450208	-0.072769
C25	C	1.598335	-0.549573	-0.098519
C26	C	1.741600	0.000058	-0.181055
C27	C	1.883231	0.000071	-0.184857
C28	C	1.515638	0.000041	0.044880
C29	C	1.511820	0.000043	0.186509
N30	N	1.508491	0.353089	-0.188223
C31	C	1.501296	0.000060	-0.421381
C32	C	1.505114	0.000067	-0.563010
C33	C	1.388354	0.000051	0.254636
C34	C	1.446670	-0.122263	0.346758
C35	C	1.446716	0.122323	0.346746
C36	C	1.570187	-0.122372	0.276766
C37	C	1.570216	0.122324	0.276744
C38	C	1.628622	-0.000020	0.368839
H39	H	1.115050	0.000184	0.033484
H40	H	0.942717	0.226008	-0.074295
H41	H	1.394422	-0.225673	0.377759
H42	H	1.394466	0.225740	0.377709
F43	F	1.083885	-0.257370	-0.318359
F44	F	1.319553	-0.393312	-0.377245
F45	F	1.638407	-0.257683	0.236472
F46	F	0.932905	-0.257385	-0.058267
F47	F	1.751676	-0.393333	-0.242756
H48	H	1.555946	-0.593408	-0.401440
F49	F	1.265370	-0.606838	-0.133995
H50	H	1.286841	-0.000074	0.204974
F51	F	1.761424	-0.000101	0.433457
F52	F	1.697687	-0.606199	0.000680
H53	H	1.622420	0.225740	0.245710
F54	F	1.083979	0.257543	-0.318333
F55	F	1.454263	-0.393035	0.054834
H56	H	0.901626	0.000188	-0.409850
