data_functionalizedCrystal
_audit_creation_method	'MofGen! by Chris Wilmer'
_symmetry_space_group_name_H-M	'P1'
_symmetry_Int_Tables_number	1
_symmetry_cell_setting	triclinic
loop_
_symmetry_equiv_pos_as_xyz
  x,y,z
_cell_length_a	16.109302
_cell_length_b	12.503567
_cell_length_c	16.109301
_cell_angle_alpha	86.482070
_cell_angle_beta	96.538369
_cell_angle_gamma	86.475616
loop_
_atom_site_label
_atom_site_type_symbol
_atom_site_fract_x
_atom_site_fract_y
_atom_site_fract_z
O1	O	1.107936	-0.089373	-0.102059
O2	O	1.441269	0.243961	0.231274
O3	O	1.774603	0.577294	0.564608
O4	O	0.865874	-0.089365	-0.115358
O5	O	1.199207	0.243969	0.217975
O6	O	1.532540	0.577302	0.551309
O7	O	0.993554	-0.089358	0.012322
O8	O	1.326887	0.243975	0.345655
O9	O	1.660220	0.577309	0.678988
O10	O	0.980256	-0.089379	-0.229739
O11	O	1.313589	0.243954	0.103594
O12	O	1.646922	0.577287	0.436928
O13	O	0.983940	0.089284	0.002709
O14	O	1.317273	0.422617	0.336043
O15	O	1.650606	0.755951	0.669376
O16	O	0.856259	0.089277	-0.124971
O17	O	1.189593	0.422611	0.208363
O18	O	1.522926	0.755944	0.541696
O19	O	1.098322	0.089269	-0.111672
O20	O	1.431655	0.422603	0.221662
O21	O	1.764988	0.755936	0.554995
Cu22	Cu	0.976413	0.105585	-0.119199
Cu23	Cu	1.309746	0.438918	0.214135
Cu24	Cu	1.643079	0.772252	0.547468
Cu25	Cu	0.987783	-0.105680	-0.107831
Cu26	Cu	1.321116	0.227653	0.225502
Cu27	Cu	1.654449	0.560987	0.558836
O28	O	0.970641	0.089263	-0.239351
O29	O	1.303975	0.422596	0.093982
O30	O	1.637308	0.755929	0.427315
C31	C	0.830092	-0.000042	-0.119626
C32	C	1.163425	0.333291	0.213708
C33	C	1.496758	0.666624	0.547041
C34	C	0.737796	-0.000039	-0.118010
C35	C	1.071129	0.333294	0.215323
C36	C	1.404463	0.666628	0.548656
N37	N	0.968422	0.254177	-0.127194
N38	N	1.301755	0.587511	0.206139
N39	N	1.635088	0.920844	0.539473
C40	C	0.520215	0.097328	-0.119515
C41	C	0.853548	0.430662	0.213819
C42	C	1.186882	0.763995	0.547152
C43	C	0.433495	0.097325	-0.117988
C44	C	0.766828	0.430658	0.215346
C45	C	1.100162	0.763991	0.548679
C46	C	0.443988	-0.097441	-0.107512
C47	C	0.777321	0.235893	0.225822
C48	C	1.110654	0.569226	0.559155
C49	C	0.530707	-0.097436	-0.109033
C50	C	0.864040	0.235898	0.224301
C51	C	1.197373	0.569231	0.557634
C52	C	0.568817	-0.000048	-0.115039
C53	C	0.902151	0.333285	0.218295
C54	C	1.235484	0.666619	0.551628
C55	C	0.395378	-0.000056	-0.111991
C56	C	0.728712	0.333277	0.221343
C57	C	1.062045	0.666610	0.554676
C58	C	0.301353	-0.000061	-0.110335
C59	C	0.634686	0.333272	0.222998
C60	C	0.968020	0.666606	0.556332
C61	C	0.662849	-0.000043	-0.116693
C62	C	0.996182	0.333290	0.216641
C63	C	1.329516	0.666624	0.549974
C64	C	1.007526	0.526612	-0.088076
C65	C	1.340859	0.859946	0.245258
C66	C	1.674193	1.193279	0.578591
C67	C	0.956674	0.473286	-0.138955
C68	C	1.290007	0.806619	0.194378
C69	C	1.623340	1.139952	0.527712
C70	C	0.963212	0.351362	-0.132409
C71	C	1.296545	0.684696	0.200924
C72	C	1.629879	1.018029	0.534257
C73	C	1.000989	0.648547	-0.094620
C74	C	1.334322	0.981880	0.238713
C75	C	1.667656	1.315213	0.572047
C76	C	1.134104	-0.000055	-0.107404
C77	C	1.467437	0.333278	0.225929
C78	C	1.800770	0.666612	0.559263
C79	C	1.226400	-0.000066	-0.109019
C80	C	1.559733	0.333268	0.224315
C81	C	1.893066	0.666601	0.557648
C82	C	0.988208	-0.000036	0.038490
C83	C	1.321541	0.333297	0.371824
C84	C	1.654875	0.666630	0.705157
C85	C	0.986593	-0.000035	0.130786
C86	C	1.319926	0.333299	0.464119
C87	C	1.653259	0.666632	0.797452
N88	N	0.995775	0.745728	-0.099839
N89	N	1.329109	1.079061	0.233494
N90	N	1.662442	1.412394	0.566827
C91	C	0.975987	-0.000061	-0.265520
C92	C	1.309321	0.333272	0.067813
C93	C	1.642654	0.666605	0.401147
C94	C	0.977603	-0.000070	-0.357815
C95	C	1.310936	0.333263	-0.024481
C96	C	1.644270	0.666597	0.308852
C97	C	1.058601	-0.000054	0.353059
C98	C	1.391935	0.333279	0.686392
C99	C	1.725268	0.666613	1.019726
C100	C	1.057078	-0.000063	0.439780
C101	C	1.390411	0.333270	0.773113
C102	C	1.723745	0.666604	1.106446
C103	C	0.905589	-0.000054	0.419905
C104	C	1.238922	0.333280	0.753239
C105	C	1.572255	0.666613	1.086572
C106	C	0.907114	-0.000053	0.333187
C107	C	1.240447	0.333281	0.666520
C108	C	1.573780	0.666614	0.999853
C109	C	0.983622	-0.000047	0.299766
C110	C	1.316955	0.333286	0.633099
C111	C	1.650289	0.666619	0.966432
C112	C	0.980574	-0.000057	0.473205
C113	C	1.313907	0.333276	0.806539
C114	C	1.647240	0.666609	1.139872
C115	C	0.978921	-0.000067	0.567232
C116	C	1.312254	0.333267	0.900565
C117	C	1.645588	0.666600	1.233898
C118	C	0.985275	-0.000040	0.205733
C119	C	1.318608	0.333293	0.539067
C120	C	1.651942	0.666627	0.872400
H121	H	0.551242	0.176628	-0.124405
H122	H	0.884575	0.509961	0.208929
H123	H	1.217909	0.843294	0.542262
O124	O	0.380985	0.202291	-0.122877
O125	O	0.714318	0.535624	0.210456
O126	O	1.047652	0.868958	0.543790
H127	H	0.402459	0.249089	-0.069079
H128	H	0.735792	0.582422	0.264254
H129	H	1.069125	0.915756	0.597588
O130	O	0.402882	-0.202478	-0.101047
O131	O	0.736215	0.130855	0.232287
O132	O	1.069549	0.464189	0.565620
H133	H	0.334414	-0.186124	-0.100751
H134	H	0.667747	0.147209	0.232583
H135	H	1.001081	0.480542	0.565916
H136	H	0.843298	-0.000056	0.447127
H137	H	1.176631	0.333277	0.780461
H138	H	1.509965	0.666611	1.113794
H139	H	0.570281	-0.176736	-0.105385
H140	H	0.903614	0.156597	0.227948
H141	H	1.236947	0.489930	0.561281
H142	H	0.908228	0.519199	-0.187430
H143	H	1.241561	0.852532	0.145903
H144	H	1.574895	1.185865	0.479236
O145	O	1.071681	0.465810	-0.023850
O146	O	1.405015	0.799143	0.309483
O147	O	1.738348	1.132476	0.642816
H148	H	1.066807	0.378201	-0.028720
H149	H	1.400140	0.711535	0.304613
H150	H	1.733473	1.044868	0.637946
H151	H	1.120900	-0.000052	0.325851
H152	H	1.454233	0.333281	0.659184
H153	H	1.787566	0.666615	0.992518
H154	H	0.846053	-0.000050	0.289793
H155	H	1.179386	0.333283	0.623126
H156	H	1.512719	0.666616	0.956459
O157	O	1.137947	-0.000057	0.497263
O158	O	1.471280	0.333277	0.830596
O159	O	1.804614	0.666610	1.163930
H160	H	1.191400	-0.000042	0.459450
H161	H	1.524733	0.333291	0.792783
H162	H	1.858066	0.666624	1.126117
