data_functionalizedCrystal
_audit_creation_method	'MofGen! by Chris Wilmer'
_symmetry_space_group_name_H-M	'P1'
_symmetry_Int_Tables_number	1
_symmetry_cell_setting	triclinic
loop_
_symmetry_equiv_pos_as_xyz
  x,y,z
_cell_length_a	15.712078
_cell_length_b	15.538191
_cell_length_c	16.776229
_cell_angle_alpha	89.995703
_cell_angle_beta	89.984862
_cell_angle_gamma	83.426622
loop_
_atom_site_label
_atom_site_type_symbol
_atom_site_fract_x
_atom_site_fract_y
_atom_site_fract_z
O1	O	1.000641	0.466182	-0.066424
O2	O	0.769289	0.401467	-0.066392
O3	O	0.930000	0.312211	-0.066418
O4	O	0.839931	0.555438	-0.066398
O5	O	0.929986	0.312197	0.066159
O6	O	0.769276	0.401453	0.066185
O7	O	1.000628	0.466168	0.066152
Zn8	Zn	0.884950	0.433809	0.087218
Zn9	Zn	0.884967	0.433826	-0.087457
O10	O	0.839917	0.555424	0.066179
C11	C	0.740397	0.390888	-0.000099
C12	C	0.654328	0.359376	-0.000088
C13	C	0.203291	0.626921	-0.000120
C14	C	0.122426	0.597291	-0.000142
C15	C	0.189623	0.448823	-0.000157
C16	C	0.270496	0.478440	-0.000138
C17	C	0.277322	0.567490	-0.000119
C18	C	0.344527	0.419010	-0.000137
C19	C	0.425392	0.448625	-0.000115
C20	C	0.432227	0.537671	-0.000093
C21	C	0.358188	0.597106	-0.000097
C22	C	0.337698	0.329960	-0.000151
C23	C	0.411729	0.270529	-0.000150
C24	C	0.492597	0.300145	-0.000133
C25	C	0.499432	0.389191	-0.000111
C26	C	0.566636	0.240710	-0.000129
C27	C	0.647502	0.270326	-0.000107
C28	C	0.580297	0.418806	-0.000089
C29	C	0.939417	0.280355	-0.000134
C30	C	0.967487	0.185453	-0.000146
C31	C	0.688621	-0.198417	-0.000089
C32	C	0.715016	-0.287589	-0.000091
C33	C	0.863485	-0.258879	-0.000112
C34	C	0.837102	-0.169703	-0.000114
C35	C	0.749668	-0.139480	-0.000102
C36	C	0.898149	-0.110766	-0.000127
C37	C	0.871768	-0.021598	-0.000125
C38	C	0.784339	0.008633	-0.000110
C39	C	0.723287	-0.050312	-0.000100
C40	C	0.985582	-0.140991	-0.000134
C41	C	1.046630	-0.082053	-0.000147
C42	C	1.020249	0.007117	-0.000150
C43	C	0.932820	0.037347	-0.000135
C44	C	1.081301	0.066061	-0.000160
C45	C	1.054920	0.155229	-0.000158
C46	C	0.906439	0.126515	-0.000133
C47	C	1.029521	0.476747	-0.000142
C48	C	1.115589	0.508259	-0.000159
C49	C	0.830500	0.587280	-0.000107
C50	C	0.802431	0.682182	-0.000101
N51	N	0.884944	0.433798	0.206429
N52	N	0.884982	0.433833	-0.206668
C53	C	0.956115	0.394305	0.248135
C54	C	0.956119	0.394305	0.331587
C55	C	0.884954	0.433805	0.373332
C56	C	0.813777	0.473299	0.331621
C57	C	0.813770	0.473293	0.248170
C58	C	0.813799	0.473326	0.668168
C59	C	0.813812	0.473332	0.751625
C60	C	0.956149	0.394339	0.751585
C61	C	0.956142	0.394332	0.668134
C62	C	0.884963	0.433822	0.626430
C63	C	0.884959	0.433819	0.535942
C64	C	0.884961	0.433814	0.463819
H65	H	0.707781	0.221931	-0.000108
Cl66	Cl	0.366776	0.709057	-0.000083
Cl67	Cl	1.045611	0.344677	0.615657
H68	H	0.835242	0.151124	-0.000129
Cl69	Cl	0.533887	0.574905	-0.000029
H70	H	0.762861	0.081240	-0.000104
H71	H	1.014072	0.362146	0.365543
Cl72	Cl	0.613369	-0.012310	-0.000092
H73	H	0.184052	0.376318	-0.000163
Cl74	Cl	0.724340	0.522991	0.804104
H75	H	0.617424	-0.173808	-0.000085
H76	H	1.014105	0.362180	0.785549
H77	H	0.755829	0.505457	0.365615
H78	H	0.208848	0.699434	-0.000103
H79	H	1.117818	-0.106674	-0.000154
Cl80	Cl	0.724292	0.522940	0.195741
H81	H	1.007059	-0.213598	-0.000143
H82	H	0.062147	0.645693	-0.000140
H83	H	1.152489	0.041440	-0.000163
Cl84	Cl	0.638259	-0.361681	-0.000070
Cl85	Cl	0.973396	-0.296883	-0.000122
H86	H	0.755844	0.505482	0.634219
Cl87	Cl	0.588885	0.530757	-0.000075
Cl88	Cl	0.236037	0.292729	-0.000171
Cl89	Cl	0.558041	0.128766	-0.000142
Cl90	Cl	0.403137	0.158585	-0.000172
Cl91	Cl	1.131666	0.229327	-0.000159
Cl92	Cl	1.045588	0.344650	0.195664
