data_functionalizedCrystal
_audit_creation_method	'MofGen! by Chris Wilmer'
_symmetry_space_group_name_H-M	'P1'
_symmetry_Int_Tables_number	1
_symmetry_cell_setting	triclinic
loop_
_symmetry_equiv_pos_as_xyz
  x,y,z
_cell_length_a	12.784890
_cell_length_b	27.731996
_cell_length_c	11.295483
_cell_angle_alpha	94.054077
_cell_angle_beta	86.328828
_cell_angle_gamma	77.863973
loop_
_atom_site_label
_atom_site_type_symbol
_atom_site_fract_x
_atom_site_fract_y
_atom_site_fract_z
O1	O	1.417484	-0.000531	-0.098988
O2	O	1.107681	0.020185	-0.099004
O3	O	1.272231	-0.060944	-0.098970
O4	O	1.252934	0.080597	-0.099022
O5	O	1.257779	-0.053828	0.099078
O6	O	1.093228	0.027300	0.099044
O7	O	1.403031	0.006584	0.099060
Cu8	Cu	1.246810	0.017592	0.117135
Cu9	Cu	1.263902	0.009177	-0.117079
O10	O	1.238481	0.087713	0.099026
C11	C	1.060832	0.025090	0.000019
C12	C	0.942771	0.029099	0.000014
C13	C	0.762950	0.079342	-0.000007
C14	C	0.873879	0.075579	-0.000005
C15	C	0.900729	-0.013621	0.000028
C16	C	0.789801	-0.009857	0.000026
C17	C	0.720915	0.036626	0.000011
C18	C	0.609984	0.040390	0.000018
C19	C	0.636837	-0.048810	0.000042
C20	C	0.747765	-0.052573	0.000044
C21	C	1.264608	-0.075378	0.000058
C22	C	1.263413	-0.128988	0.000070
C23	C	1.263782	-0.465294	-0.107944
C24	C	1.259248	-0.666778	-0.107965
O25	O	1.265316	-0.696123	-0.199778
N26	N	1.250807	-0.688095	-0.000010
C27	C	1.243491	-0.659036	0.107957
O28	O	1.236197	-0.681790	0.199779
C29	C	1.248017	-0.457553	0.107977
C30	C	1.256470	-0.436240	0.000015
C31	C	1.272232	-0.443981	-0.215897
C32	C	1.273372	-0.393614	-0.215891
C33	C	1.266060	-0.364560	-0.107931
C34	C	1.257609	-0.385873	0.000022
C35	C	1.240694	-0.428495	0.215944
C36	C	1.241824	-0.378121	0.215939
C37	C	1.250276	-0.356808	0.107977
C38	C	1.251436	-0.306451	0.107988
N39	N	1.259878	-0.285135	0.000033
C40	C	1.267189	-0.314189	-0.107927
C41	C	1.241118	-0.764819	0.107939
C42	C	1.239988	-0.815190	0.107935
C43	C	1.255743	-0.822928	-0.107988
C44	C	1.256880	-0.772556	-0.107982
C45	C	1.249559	-0.743502	-0.000016
C46	C	1.269582	-0.208413	-0.107905
C47	C	1.270725	-0.158042	-0.107889
C48	C	1.254964	-0.150308	0.108033
C49	C	1.253827	-0.200675	0.108018
C50	C	1.261133	-0.229727	0.000039
O51	O	1.245361	-0.277076	0.199753
O52	O	1.274460	-0.291424	-0.199735
C53	C	1.262643	-0.515662	-0.107950
C54	C	1.254192	-0.536975	0.000003
C55	C	1.246880	-0.507921	0.107962
C56	C	1.253062	-0.587346	-0.000002
C57	C	1.260374	-0.616400	-0.107961
C58	C	1.268815	-0.595083	-0.215916
C59	C	1.269954	-0.544716	-0.215910
C60	C	1.238439	-0.529237	0.215917
C61	C	1.237302	-0.579605	0.215902
C62	C	1.244613	-0.608659	0.107942
C63	C	1.449880	0.001679	0.000035
C64	C	1.567942	-0.002330	0.000032
C65	C	1.246104	0.102147	-0.000005
C66	C	1.247300	0.155756	-0.000025
N67	N	1.234796	0.023510	0.281869
N68	N	1.275924	0.003255	-0.281813
C69	C	1.362407	-0.039374	0.531185
C70	C	1.353335	-0.034898	0.655847
C71	C	1.207578	0.036934	0.655857
C72	C	1.216649	0.032459	0.531195
C73	C	1.294067	-0.005696	0.468863
C74	C	1.303143	-0.010169	0.344199
C75	C	1.157381	0.061661	0.344212
C76	C	1.148310	0.066136	0.468873
H77	H	1.277611	-0.140692	-0.195808
H78	H	1.275526	-0.232061	-0.195832
N79	N	1.069245	0.105114	0.532545
N80	N	1.070968	0.149263	0.518610
H81	H	1.015127	0.176793	0.563575
N82	N	0.593920	-0.092452	0.000072
N83	N	0.609220	-0.119734	0.083569
H84	H	0.578912	-0.150556	0.083596
N85	N	1.087588	0.096065	0.280532
N86	N	1.095704	0.092069	0.169228
H87	H	1.046419	0.116368	0.124253
H88	H	1.278183	-0.467632	-0.303816
N89	N	0.539631	0.087873	0.000013
N90	N	0.577182	0.126008	-0.000002
H91	H	0.527498	0.159545	-0.000007
H92	H	0.908098	0.110363	-0.000017
N93	N	0.692593	0.126825	-0.000001
N94	N	0.730138	0.164962	-0.000002
H95	H	0.680450	0.198498	0.000005
N96	N	0.971120	-0.061095	0.000018
N97	N	1.070161	-0.064447	0.000002
H98	H	1.119877	-0.097976	-0.000009
H99	H	0.803867	-0.090418	0.000052
H100	H	1.366183	-0.041235	0.293450
H101	H	1.144539	0.067996	0.706623
N102	N	1.282002	-0.371855	-0.326183
N103	N	1.288525	-0.397809	-0.422559
H104	H	1.294617	-0.382445	-0.500460
H105	H	1.425451	-0.070438	0.480434
H106	H	1.263762	-0.755207	-0.195895
N107	N	1.228677	-0.601382	0.326179
N108	N	1.301279	-0.636239	0.350284
H109	H	1.295181	-0.651617	0.428165
N110	N	1.423146	-0.069306	0.719489
N111	N	1.492257	-0.103370	0.663816
H112	H	1.541562	-0.127673	0.708762
N113	N	1.230954	-0.499562	0.326202
N114	N	1.150549	-0.494987	0.398484
H115	H	1.145266	-0.474031	0.476381
N116	N	1.263227	-0.852619	-0.218258
N117	N	1.262222	-0.897592	-0.218232
H118	H	1.267506	-0.918565	-0.296105
H119	H	1.233122	-0.832539	0.195848
H120	H	1.235161	-0.741167	0.195864
H121	H	1.235846	-0.354465	0.303861
N122	N	1.232069	-0.450250	0.326237
N123	N	1.225538	-0.424293	0.422611
H124	H	1.219447	-0.439656	0.500513
N125	N	1.245202	-0.222442	0.218306
N126	N	1.238675	-0.196493	0.314690
H127	H	1.232572	-0.211860	0.392584
H128	H	1.249016	-0.126643	0.195931
N129	N	1.278593	-0.522958	-0.326202
N130	N	1.285121	-0.548913	-0.422578
H131	H	1.291222	-0.533550	-0.500479
H132	H	1.274774	-0.618749	-0.303821
