data_functionalizedCrystal
_audit_creation_method	'MofGen! by Chris Wilmer'
_symmetry_space_group_name_H-M	'P1'
_symmetry_Int_Tables_number	1
_symmetry_cell_setting	triclinic
loop_
_symmetry_equiv_pos_as_xyz
  x,y,z
_cell_length_a	11.169417
_cell_length_b	17.077402
_cell_length_c	17.077396
_cell_angle_alpha	90.029784
_cell_angle_beta	89.983750
_cell_angle_gamma	89.976238
loop_
_atom_site_label
_atom_site_type_symbol
_atom_site_fract_x
_atom_site_fract_y
_atom_site_fract_z
Zn1	Zn	1.834815	0.312490	-0.443768
Zn2	Zn	1.834673	0.443765	-0.312499
Zn3	Zn	1.634114	0.312519	-0.312523
Zn4	Zn	1.634065	0.443720	-0.443730
O5	O	1.734417	0.378123	-0.378130
O6	O	2.002746	0.329910	-0.426360
O7	O	1.808030	0.426386	-0.202655
O8	O	1.660817	0.202668	-0.329959
O9	O	2.002642	0.426357	-0.329917
O10	O	1.808272	0.202647	-0.426384
O11	O	1.660679	0.329960	-0.202673
O12	O	1.466158	0.329916	-0.329922
O13	O	1.660734	0.426281	-0.553582
O14	O	1.466122	0.426309	-0.426319
O15	O	1.808224	0.329867	-0.553609
O16	O	1.807982	0.553606	-0.329881
O17	O	1.660596	0.553572	-0.426295
C18	C	1.422592	0.378111	-0.378120
C19	C	1.289192	0.378125	-0.378134
C20	C	1.734301	0.582071	-0.378098
C21	C	1.734361	0.669321	-0.378111
C22	C	1.734489	0.378065	-0.582874
C23	C	1.734520	0.378041	-0.670124
C24	C	2.047459	0.378136	-0.378140
C25	C	2.180859	0.378141	-0.378145
C26	C	1.734566	0.173379	-0.378178
C27	C	1.734629	0.086129	-0.378199
C28	C	1.811184	0.710302	-0.327962
C29	C	1.811242	0.792283	-0.327982
C30	C	1.734472	0.833280	-0.378148
C31	C	1.657646	0.792293	-0.428303
C32	C	1.657594	0.710314	-0.428286
C33	C	1.657757	0.963163	-0.428332
C34	C	1.657807	1.045148	-0.428348
C35	C	1.811405	1.045132	-0.328028
C36	C	1.811353	0.963153	-0.328012
C37	C	1.734526	0.922171	-0.378166
C38	C	1.811321	0.327834	-0.711130
C39	C	1.811336	0.327808	-0.793110
C40	C	1.734554	0.377993	-0.834083
C41	C	1.657745	0.428202	-0.793072
C42	C	1.657725	0.428224	-0.711093
C43	C	1.657793	0.428155	-0.963942
C44	C	1.657814	0.428135	-1.045926
C45	C	1.811404	0.327739	-1.045959
C46	C	1.811384	0.327760	-0.963980
C47	C	1.734576	0.377971	-0.922974
C48	C	1.734414	0.378124	-0.174182
C49	C	1.734615	0.377928	-0.086932
H50	H	1.873694	0.676927	-0.287108
O51	O	1.885954	0.278848	-1.085698
C52	C	1.859759	0.200618	-1.065688
H53	H	1.813606	0.199012	-1.006164
H54	H	1.946403	0.165426	-1.062893
H55	H	1.798089	0.174157	-1.111827
O56	O	1.582996	0.476888	-0.671226
C57	C	1.505513	0.432213	-0.623797
H58	H	1.498150	0.370380	-0.648513
H59	H	1.413130	0.460602	-0.622858
H60	H	1.542602	0.429531	-0.561668
O61	O	1.885791	0.278959	-0.924100
C62	C	1.817461	0.228259	-0.876713
H63	H	1.726495	0.255957	-0.864415
H64	H	1.866333	0.217738	-0.819072
H65	H	1.804303	0.170087	-0.908332
O66	O	1.582986	0.476869	-0.832834
C67	C	1.463377	0.459727	-0.812783
H68	H	1.457357	0.397022	-0.790266
H69	H	1.404092	0.466475	-0.866689
H70	H	1.431963	0.501822	-0.765183
H71	H	1.595229	0.469029	-0.930557
H72	H	1.595289	0.468998	-1.079285
H73	H	1.595039	0.676948	-0.469124
H74	H	1.595316	1.078526	-0.469213
H75	H	1.873860	0.929773	-0.287159
H76	H	1.595200	0.929799	-0.469176
H77	H	1.873965	1.078503	-0.287194
O78	O	1.885902	0.831970	-0.279190
C79	C	1.953665	0.778206	-0.234919
H80	H	1.904467	0.719798	-0.232164
H81	H	1.966532	0.801930	-0.173083
H82	H	2.044788	0.769414	-0.263710
H83	H	1.595143	0.825680	-0.469152
O84	O	1.885989	0.279143	-0.833035
C85	C	1.963499	0.323820	-0.880445
H86	H	1.921135	0.383305	-0.892705
H87	H	1.979600	0.291829	-0.938103
H88	H	2.052436	0.332451	-0.848866
O89	O	1.885781	0.278969	-0.671369
C90	C	1.859627	0.200730	-0.691437
H91	H	1.763754	0.196760	-0.713963
H92	H	1.869982	0.161961	-0.637537
H93	H	1.923996	0.180202	-0.739035
