data_functionalizedCrystal
_audit_creation_method	'MofGen! by Chris Wilmer'
_symmetry_space_group_name_H-M	'P1'
_symmetry_Int_Tables_number	1
_symmetry_cell_setting	triclinic
loop_
_symmetry_equiv_pos_as_xyz
  x,y,z
_cell_length_a	16.974800
_cell_length_b	16.956995
_cell_length_c	15.455313
_cell_angle_alpha	92.465639
_cell_angle_beta	90.973911
_cell_angle_gamma	79.729798
loop_
_atom_site_label
_atom_site_type_symbol
_atom_site_fract_x
_atom_site_fract_y
_atom_site_fract_z
O1	O	1.042454	0.101634	0.001076
O2	O	0.812229	0.113810	-0.015093
O3	O	0.941172	-0.008325	-0.006034
O4	O	0.913511	0.223769	-0.007983
O5	O	0.933800	-0.001370	0.137710
O6	O	0.804857	0.120765	0.128651
O7	O	1.035083	0.108590	0.144820
Cu8	Cu	0.919297	0.115313	0.149861
Cu9	Cu	0.928015	0.107087	-0.020133
O10	O	0.906139	0.230725	0.135761
C11	C	0.779222	0.116697	0.054720
C12	C	0.691856	0.114928	0.048584
C13	C	0.646797	0.117886	0.124059
C14	C	0.564710	0.116211	0.118296
C15	C	0.527681	0.111584	0.037058
C16	C	0.572746	0.108623	-0.038422
C17	C	0.654833	0.110292	-0.032658
C18	C	0.282608	0.106179	0.011419
C19	C	0.200515	0.104513	0.005661
C20	C	0.192484	0.112100	0.162380
C21	C	0.274573	0.113774	0.168136
C22	C	0.319631	0.110808	0.092656
N23	N	0.443774	0.109874	0.031166
N24	N	0.403538	0.112512	0.098549
C25	C	0.938902	-0.034553	0.065937
C26	C	0.943113	-0.123064	0.066230
C27	C	0.974613	-0.622293	0.068438
C28	C	0.970651	-0.539127	0.068165
C29	C	0.896273	-0.488206	0.062938
C30	C	0.825852	-0.520454	0.057992
C31	C	0.829815	-0.603619	0.058271
C32	C	0.876656	-0.238477	0.061563
C33	C	0.872698	-0.155307	0.061281
C34	C	1.017497	-0.173986	0.071457
C35	C	1.021454	-0.257151	0.071730
C36	C	0.951034	-0.289393	0.066789
N37	N	0.892220	-0.403196	0.062656
N38	N	0.955086	-0.374401	0.067077
C39	C	1.068090	0.105702	0.075005
C40	C	1.155456	0.107471	0.081135
C41	C	0.908409	0.256952	0.063789
C42	C	0.904199	0.345463	0.063490
N43	N	0.913171	0.121097	0.269426
N44	N	0.934147	0.101296	-0.139698
C45	C	0.967967	0.069229	0.318670
C46	C	0.963341	0.073612	0.409153
C47	C	0.903922	0.129866	0.450390
C48	C	0.849120	0.181737	0.401140
C49	C	0.853743	0.177350	0.310658
C50	C	0.883968	0.148779	0.720570
C51	C	0.879351	0.153164	0.811058
C52	C	0.993572	0.045037	0.819065
C53	C	0.998192	0.040659	0.728581
C54	C	0.943388	0.092526	0.679339
N55	N	0.899193	0.134349	0.542878
N56	N	0.948114	0.088039	0.586852
H57	H	0.528029	0.118607	0.179756
O58	O	1.055659	-0.014334	0.688608
C59	C	1.019038	-0.066141	0.633824
H60	H	0.956157	-0.034939	0.615628
H61	H	1.015335	-0.123129	0.668907
C62	C	1.146209	-0.126222	0.573517
C63	C	1.068980	-0.087896	0.551163
H64	H	1.177017	-0.139645	0.522529
H65	H	1.170883	-0.091321	0.610428
H66	H	1.143112	-0.173708	0.602755
H67	H	1.072077	-0.040406	0.521936
H68	H	1.044308	-0.122790	0.514244
O69	O	0.310421	0.118235	0.247120
C70	C	0.253044	0.120509	0.312502
H71	H	0.200615	0.092986	0.285772
H72	H	0.230642	0.185402	0.335102
C73	C	0.355847	0.106317	0.422332
C74	C	0.291455	0.072506	0.389503
H75	H	0.379540	0.076710	0.469832
H76	H	0.394503	0.104788	0.378284
H77	H	0.337169	0.160393	0.441159
H78	H	0.310135	0.018434	0.370667
H79	H	0.252803	0.074025	0.433550
H80	H	1.074830	-0.147726	0.075473
O81	O	0.800404	-0.105925	0.056085
C82	C	0.761154	-0.124154	-0.021396
H83	H	0.785882	-0.188396	-0.044562
H84	H	0.771642	-0.081170	-0.072982
C85	C	0.640337	-0.036447	0.023397
C86	C	0.670704	-0.115352	-0.005051
H87	H	0.584543	-0.031015	0.033477
H88	H	0.666781	-0.024163	0.075597
H89	H	0.649085	-0.000636	-0.019596
H90	H	0.661965	-0.151161	0.037946
H91	H	0.644256	-0.127642	-0.057244
O92	O	1.046881	-0.005390	0.866770
C93	C	1.100300	-0.055999	0.810969
H94	H	1.102361	-0.026431	0.746381
H95	H	1.079061	-0.115760	0.799830
C96	C	1.182027	-0.106812	0.931637
C97	C	1.184563	-0.070493	0.852311
H98	H	1.234004	-0.115756	0.957139
H99	H	1.146037	-0.072718	0.969232
H100	H	1.164324	-0.156609	0.922343
H101	H	1.202256	-0.020693	0.861607
H102	H	1.220559	-0.104579	0.814718
O103	O	0.761429	-0.634974	0.053615
C104	C	0.755577	-0.678935	0.127909
H105	H	0.792795	-0.656653	0.182746
H106	H	0.778894	-0.745287	0.112657
C107	C	0.621697	-0.694791	0.088238
C108	C	0.667404	-0.667419	0.155592
H109	H	0.567308	-0.687692	0.105313
H110	H	0.625640	-0.665177	0.038183
H111	H	0.641137	-0.750083	0.075535
H112	H	0.647970	-0.612127	0.168287
H113	H	0.663456	-0.697024	0.205650
O114	O	1.039084	-0.507855	0.072820
C115	C	1.087923	-0.537473	0.001547
H116	H	1.049320	-0.557382	-0.053389
H117	H	1.134498	-0.590758	0.021709
C118	C	1.177918	-0.446498	0.038138
C119	C	1.130503	-0.470945	-0.029337
H120	H	1.204186	-0.405463	0.019089
H121	H	1.145016	-0.426546	0.086158
H122	H	1.216724	-0.490909	0.054933
H123	H	1.091692	-0.426537	-0.046124
H124	H	1.163400	-0.490889	-0.077361
O125	O	0.821549	0.207828	0.850978
C126	C	0.774176	0.252678	0.788114
H127	H	0.778717	0.216864	0.723706
H128	H	0.796374	0.311519	0.780003
C129	C	0.680733	0.314548	0.896513
C130	C	0.686304	0.270558	0.817408
H131	H	0.626530	0.325582	0.914584
H132	H	0.712650	0.284335	0.938867
H133	H	0.699236	0.363578	0.889744
H134	H	0.667811	0.221526	0.824181
H135	H	0.654382	0.300764	0.775056
H136	H	0.155789	0.114513	0.223831
O137	O	0.830851	0.199203	0.672661
C138	C	0.872514	0.245987	0.623063
H139	H	0.936923	0.213742	0.613961
H140	H	0.872256	0.306611	0.658039
C141	C	0.752258	0.298359	0.545110
C142	C	0.831365	0.258752	0.533926
H143	H	0.726874	0.306236	0.490128
H144	H	0.724188	0.266842	0.578527
H145	H	0.752054	0.348875	0.574260
H146	H	0.831567	0.208233	0.504786
H147	H	0.859434	0.290261	0.500502
H148	H	0.800736	0.227538	0.434720
O149	O	0.808269	-0.269824	0.056906
C150	C	0.802411	-0.313786	0.131197
H151	H	0.839624	-0.291505	0.186039
H152	H	0.825729	-0.380138	0.115946
C153	C	0.668534	-0.329643	0.091511
C154	C	0.714236	-0.302272	0.158871
H155	H	0.614144	-0.322544	0.108580
H156	H	0.672482	-0.300028	0.041458
H157	H	0.687976	-0.384934	0.078808
H158	H	0.694800	-0.246979	0.171565
H159	H	0.710283	-0.331877	0.208927
H160	H	1.016356	0.023424	0.285101
H161	H	0.676938	0.121661	0.190211
H162	H	1.082021	-0.298607	0.075991
H163	H	0.170368	0.100747	-0.060496
H164	H	0.542591	0.104849	-0.104567
H165	H	0.319286	0.103762	-0.050042
H166	H	0.691518	0.107884	-0.094118
O167	O	1.046855	-0.671795	0.073361
C168	C	1.057295	-0.724075	-0.000608
H169	H	1.017689	-0.696232	-0.055615
H170	H	1.039986	-0.783782	0.015067
C171	C	1.194230	-0.772333	0.039281
C172	C	1.145589	-0.738134	-0.028281
H173	H	1.248694	-0.781009	0.022213
H174	H	1.187196	-0.737114	0.089118
H175	H	1.179796	-0.822086	0.052337
H176	H	1.160017	-0.688378	-0.041328
H177	H	1.152628	-0.773345	-0.078121
H178	H	0.765292	-0.478987	0.053740
H179	H	1.007960	0.031376	0.449247
H180	H	0.809121	0.219586	0.270564
