data_functionalizedCrystal
_audit_creation_method	'MofGen! by Chris Wilmer'
_symmetry_space_group_name_H-M	'P1'
_symmetry_Int_Tables_number	1
_symmetry_cell_setting	triclinic
loop_
_symmetry_equiv_pos_as_xyz
  x,y,z
_cell_length_a	10.268362
_cell_length_b	10.489716
_cell_length_c	11.792241
_cell_angle_alpha	84.361276
_cell_angle_beta	89.998512
_cell_angle_gamma	89.995734
loop_
_atom_site_label
_atom_site_type_symbol
_atom_site_fract_x
_atom_site_fract_y
_atom_site_fract_z
O1	O	-0.108290	1.693528	0.159998
O2	O	-0.108295	1.322277	0.175059
O3	O	-0.108284	1.516911	0.002382
O4	O	-0.108302	1.498893	0.332676
O5	O	0.108317	1.516893	0.002388
O6	O	0.108305	1.322258	0.175065
O7	O	0.108310	1.693509	0.160004
Cu8	Cu	0.128085	1.507882	0.167535
Cu9	Cu	-0.128070	1.507904	0.167528
O10	O	0.108299	1.498874	0.332681
C11	C	0.000004	1.274739	0.173930
C12	C	0.000003	1.133119	0.170545
N13	N	0.308251	1.507875	0.167539
N14	N	-0.308236	1.507920	0.167515
C15	C	-0.000006	1.035085	0.276436
C16	C	0.106798	0.957920	0.220484
C17	C	-0.106753	0.957945	0.220453
C18	C	0.106895	1.057820	0.114637
C19	C	-0.106752	1.057851	0.114622
C20	C	0.000079	0.980735	0.058592
C21	C	0.426093	1.507885	0.167540
C22	C	0.573931	1.507901	0.167530
C23	C	0.000016	1.515770	-0.039909
C24	C	0.000015	1.512382	-0.165932
C25	C	0.000008	1.741047	0.161133
C26	C	0.000001	1.882666	0.164518
C27	C	-0.000007	1.506153	-0.396660
C28	C	0.000005	1.509614	-0.268266
C29	C	-0.000004	1.500015	0.374972
C30	C	-0.000011	1.503403	0.500995
H31	H	0.197087	0.914278	0.265187
N32	N	0.000185	0.950470	-0.057038
N33	N	0.091085	0.885948	-0.092741
H34	H	0.091168	0.864570	-0.174404
H35	H	-0.197035	0.914317	0.265173
N36	N	0.220278	1.112349	0.058599
N37	N	0.238598	1.230641	0.052223
H38	H	0.318674	1.269156	0.012649
N39	N	-0.220031	1.112618	0.058597
N40	N	-0.330841	1.080357	0.094731
H41	H	-0.410856	1.119036	0.055171
H42	H	0.000088	1.059440	0.368545
