data_functionalizedCrystal
_audit_creation_method	'MofGen! by Chris Wilmer'
_symmetry_space_group_name_H-M	'P1'
_symmetry_Int_Tables_number	1
_symmetry_cell_setting	triclinic
loop_
_symmetry_equiv_pos_as_xyz
  x,y,z
_cell_length_a	18.101395
_cell_length_b	21.395364
_cell_length_c	21.395355
_cell_angle_alpha	89.974702
_cell_angle_beta	90.018571
_cell_angle_gamma	89.951348
loop_
_atom_site_label
_atom_site_type_symbol
_atom_site_fract_x
_atom_site_fract_y
_atom_site_fract_z
Zn1	Zn	-0.294585	-0.957854	0.354274
Zn2	Zn	0.205415	-0.457854	0.854274
Zn3	Zn	-0.418409	-0.957754	0.249496
Zn4	Zn	0.081591	-0.457754	0.749496
Zn5	Zn	-0.294622	-0.853069	0.249509
Zn6	Zn	0.205378	-0.353069	0.749509
Zn7	Zn	-0.418426	-0.853036	0.354235
Zn8	Zn	0.081574	-0.353036	0.854235
O9	O	-0.356510	-0.905428	0.301878
O10	O	0.143490	-0.405428	0.801878
O11	O	-0.310989	-1.045518	0.340386
O12	O	0.189011	-0.545518	0.840386
O13	O	-0.401996	-0.943839	0.161820
O14	O	0.098004	-0.443839	0.661820
O15	O	-0.190984	-0.867024	0.263428
O16	O	0.309016	-0.367024	0.763428
O17	O	-0.401961	-1.045445	0.263406
O18	O	0.098039	-0.545445	0.763406
O19	O	-0.190957	-0.944009	0.340398
O20	O	0.309043	-0.444009	0.840398
O21	O	-0.311050	-0.866928	0.161829
O22	O	0.188950	-0.366928	0.661829
O23	O	-0.311067	-0.765387	0.263390
O24	O	0.188933	-0.265387	0.763390
O25	O	-0.401990	-0.866968	0.441918
O26	O	0.098010	-0.366968	0.941918
O27	O	-0.402025	-0.765362	0.340332
O28	O	0.097975	-0.265362	0.840332
O29	O	-0.311005	-0.943977	0.441946
O30	O	0.188995	-0.443977	0.941946
O31	O	-0.522044	-0.943807	0.263368
O32	O	-0.022044	-0.443807	0.763368
O33	O	-0.522056	-0.866871	0.340319
O34	O	-0.022056	-0.366871	0.840319
C35	C	-0.356552	-0.742640	0.301859
C36	C	0.143448	-0.242640	0.801859
C37	C	-0.356588	-0.672999	0.301865
C38	C	0.143412	-0.172999	0.801865
C39	C	-0.309297	-0.640347	0.342010
C40	C	0.190703	-0.140347	0.842010
C41	C	-0.309280	-0.574911	0.342012
C42	C	0.190720	-0.074911	0.842012
C43	C	-0.356567	-0.542131	0.301875
C44	C	0.143433	-0.042131	0.801875
C45	C	-0.403861	-0.574791	0.261722
C46	C	0.096139	-0.074791	0.761722
C47	C	-0.403871	-0.640226	0.261717
C48	C	0.096129	-0.140226	0.761717
C49	C	-0.423263	-0.438405	0.296836
C50	C	0.076737	0.061595	0.796836
C51	C	-0.423253	-0.372972	0.296845
C52	C	0.076747	0.127028	0.796845
C53	C	-0.356533	-0.340310	0.301886
C54	C	0.143467	0.159690	0.801886
C55	C	-0.289820	-0.373089	0.306931
C56	C	0.210180	0.126911	0.806931
C57	C	-0.289831	-0.438523	0.306926
C58	C	0.210169	0.061477	0.806926
C59	C	-0.356560	-0.471179	0.301875
C60	C	0.143440	0.028821	0.801875
C61	C	-0.309220	-0.236705	0.342035
C62	C	0.190780	0.263295	0.842035
C63	C	-0.309201	-0.171268	0.342032
C64	C	0.190799	0.328732	0.842032
C65	C	-0.403788	-0.171150	0.261746
C66	C	0.096212	0.328850	0.761746
C67	C	-0.403800	-0.236585	0.261746
C68	C	0.096200	0.263415	0.761746
C69	C	-0.356517	-0.269359	0.301893
C70	C	0.143483	0.230641	0.801893
C71	C	-0.548921	-0.905342	0.301852
C72	C	-0.048921	-0.405342	0.801852
C73	C	-0.631235	-0.905362	0.301862
C74	C	-0.131235	-0.405362	0.801862
C75	C	-0.781943	-0.905434	0.301886
C76	C	-0.281943	-0.405434	0.801886
C77	C	-0.813336	-0.857003	0.350265
C78	C	-0.313336	-0.357003	0.850265
C79	C	-0.898954	-0.857186	0.350469
C80	C	-0.398954	-0.357186	0.850469
C81	C	-0.930326	-0.905504	0.301911
C82	C	-0.430326	-0.405504	0.801911
C83	C	-0.899124	-0.971561	0.319675
C84	C	-0.399124	-0.471561	0.819675
C85	C	-0.813480	-0.971240	0.320012
C86	C	-0.313480	-0.471240	0.820012
C87	C	-0.813571	-0.888401	0.235628
C88	C	-0.313571	-0.388401	0.735628
C89	C	-0.899224	-0.886985	0.235995
C90	C	-0.399224	-0.386985	0.735995
C91	C	-1.014185	-0.905547	0.301924
C92	C	-0.514185	-0.405547	0.801924
C93	C	-0.698084	-0.905395	0.301875
C94	C	-0.198084	-0.405395	0.801875
C95	C	-0.163348	-0.905532	0.301919
C96	C	0.336652	-0.405532	0.801919
C97	C	-0.081034	-0.905576	0.301936
C98	C	0.418966	-0.405576	0.801936
C99	C	-0.356495	-0.905480	0.465302
C100	C	0.143505	-0.405480	0.965302
C101	C	-0.356489	-0.905502	0.534943
C102	C	0.143511	-0.405502	1.034943
C103	C	-0.356478	-0.068851	0.301895
C104	C	0.143522	0.431149	0.801895
C105	C	-0.356487	-0.138493	0.301894
C106	C	0.143513	0.361507	0.801894
C107	C	-0.356472	-0.905412	0.139091
C108	C	0.143528	-0.405412	0.639091
C109	C	-0.356270	-0.905512	0.069450
C110	C	0.143730	-0.405512	0.569450
C111	C	-0.309111	-0.945599	0.567672
C112	C	0.190889	-0.445599	1.067672
C113	C	-0.309079	-0.945599	0.633107
C114	C	0.190921	-0.445599	1.133107
C115	C	-0.356439	-0.905507	0.665811
C116	C	0.143561	-0.405507	1.165811
C117	C	-0.403820	-0.865402	0.633075
C118	C	0.096180	-0.365402	1.133075
C119	C	-0.403845	-0.865400	0.567640
C120	C	0.096155	-0.365400	1.067640
C121	C	-0.423122	-0.900530	0.769477
C122	C	0.076878	-0.400530	1.269477
C123	C	-0.423098	-0.900537	0.834910
C124	C	0.076902	-0.400537	1.334910
C125	C	-0.356360	-0.905511	0.867632
C126	C	0.143640	-0.405511	1.367632
C127	C	-0.289645	-0.910492	0.834914
C128	C	0.210355	-0.410492	1.334914
C129	C	-0.289670	-0.910489	0.769480
C130	C	0.210330	-0.410489	1.269480
C131	C	-0.356416	-0.905505	0.736764
C132	C	0.143584	-0.405505	1.236764
C133	C	-0.308944	-0.945609	0.971314
C134	C	0.191056	-0.445609	1.471314
C135	C	-0.308911	-0.945604	1.036751
C136	C	0.191089	-0.445604	1.536751
C137	C	-0.403658	-0.865411	1.036716
C138	C	0.096342	-0.365411	1.536716
C139	C	-0.403684	-0.865413	0.971281
C140	C	0.096316	-0.365413	1.471281
C141	C	-0.356328	-0.905516	0.938584
C142	C	0.143672	-0.405516	1.438584
H143	H	-0.270767	-0.548320	0.374701
H144	H	0.229233	-0.048320	0.874701
O145	O	-0.257809	-0.988855	1.072056
O146	O	0.242191	-0.488855	1.572056
H147	H	-0.224892	-1.016742	1.038324
H148	H	0.275108	-0.516742	1.538324
O149	O	-0.257963	-0.988846	0.668407
O150	O	0.242037	-0.488846	1.168407
H151	H	-0.220274	-0.960820	0.698198
H152	H	0.279726	-0.460820	1.198198
O153	O	-0.257867	-0.988860	0.936045
O154	O	0.242133	-0.488860	1.436045
H155	H	-0.265853	-0.982130	0.885045
H156	H	0.234147	-0.482130	1.385045
H157	H	-0.793259	-0.923671	0.199584
H158	H	-0.293259	-0.423671	0.699584
O159	O	-0.454810	-0.271806	0.218446
O160	O	0.045190	0.228194	0.718446
H161	H	-0.492540	-0.301605	0.246426
H162	H	0.007460	0.198395	0.746426
O163	O	-0.454864	-0.539441	0.218430
O164	O	0.045136	-0.039441	0.718430
H165	H	-0.446917	-0.488454	0.225182
H166	H	0.053083	0.011546	0.725182
O167	O	-0.926251	-0.822590	0.218244
O168	O	-0.426251	-0.322590	0.718244
H169	H	-0.904027	-0.809846	0.171607
H170	H	-0.404027	-0.309846	0.671607
O171	O	-0.217884	-0.473880	0.312361
O172	O	0.282116	0.026120	0.812361
H173	H	-0.210269	-0.503679	0.270399
H174	H	0.289731	-0.003679	0.770399
O175	O	-0.926041	-0.872166	0.415509
O176	O	-0.426041	-0.372166	0.915509
H177	H	-0.987357	-0.872343	0.415884
H178	H	-0.487357	-0.372343	0.915884
O179	O	-0.258214	-0.272056	0.385329
O180	O	0.241786	0.227944	0.885329
H181	H	-0.266173	-0.323043	0.378588
H182	H	0.233827	0.176957	0.878588
O183	O	-0.454740	-0.822167	1.071979
O184	O	0.045260	-0.322167	1.571979
H185	H	-0.446766	-0.828906	1.122979
H186	H	0.053234	-0.328906	1.622979
O187	O	-0.258298	-0.675697	0.385306
O188	O	0.241702	-0.175697	0.885306
H189	H	-0.220580	-0.705529	0.357317
H190	H	0.279420	-0.205529	0.857317
H191	H	-0.442269	-0.832765	0.944633
H192	H	0.057731	-0.332765	1.444633
O193	O	-0.495201	-0.337619	0.291392
O194	O	0.004799	0.162381	0.791392
H195	H	-0.541596	-0.371322	0.287869
H196	H	-0.041596	0.128678	0.787869
H197	H	-0.920589	-0.919688	0.198039
H198	H	-0.420589	-0.419688	0.698039
H199	H	-0.270549	-0.978253	0.541054
H200	H	0.229451	-0.478253	1.041054
H201	H	-0.477598	-0.464993	0.292730
H202	H	0.022402	0.035007	0.792730
O203	O	-0.786946	-0.990306	0.384170
O204	O	-0.286946	-0.490306	0.884170
H205	H	-0.835285	-0.999668	0.414663
H206	H	-0.335285	-0.499668	0.914663
H207	H	-0.920057	-0.808210	0.339365
H208	H	-0.420057	-0.308210	0.839365
H209	H	-0.477453	-0.896312	0.742840
H210	H	0.022547	-0.396312	1.242840
H211	H	-0.235348	-0.914543	0.742843
H212	H	0.264652	-0.414543	1.242843
H213	H	-0.235490	-0.346497	0.311036
H214	H	0.264510	0.153503	0.811036
O215	O	-0.454787	-0.135798	0.218454
O216	O	0.045213	0.364202	0.718454
H217	H	-0.441995	-0.148340	0.169299
H218	H	0.058005	0.351660	0.669299
O219	O	-0.495049	-0.895159	0.870198
O220	O	0.004951	-0.395159	1.370198
H221	H	-0.541458	-0.891684	0.836453
H222	H	-0.041458	-0.391684	1.336453
H223	H	-0.235301	-0.914543	0.861555
H224	H	0.264699	-0.414543	1.361555
O225	O	-0.258190	-0.136045	0.385331
O226	O	0.241810	0.363955	0.885331
H227	H	-0.225320	-0.169830	0.413249
H228	H	0.274680	0.330170	0.913249
H229	H	-0.442378	-0.832758	0.659706
H230	H	0.057622	-0.332758	1.159706
H231	H	-0.920525	-0.986247	0.367580
H232	H	-0.420525	-0.486247	0.867580
O233	O	-0.454931	-0.822137	0.532333
O234	O	0.045069	-0.322137	1.032333
H235	H	-0.487854	-0.794253	0.566065
H236	H	0.012146	-0.294253	1.066065
O237	O	-0.454881	-0.675450	0.218418
O238	O	0.045119	-0.175450	0.718418
H239	H	-0.487762	-0.641666	0.190508
H240	H	0.012238	-0.141666	0.690508
H241	H	-0.791773	-0.868155	0.399081
H242	H	-0.291773	-0.368155	0.899081
O243	O	-0.786168	-0.791895	0.335736
O244	O	-0.286168	-0.291895	0.835736
H245	H	-0.749996	-0.793355	0.293881
H246	H	-0.249996	-0.293355	0.793881
H247	H	-0.792704	-1.008566	0.286300
H248	H	-0.292704	-0.508566	0.786300
O249	O	-0.785075	-0.825655	0.214157
O250	O	-0.285075	-0.325655	0.714157
H251	H	-0.832353	-0.793505	0.206385
H252	H	-0.332353	-0.293505	0.706385
O253	O	-0.926463	-1.020772	0.274721
O254	O	-0.426463	-0.520772	0.774721
H255	H	-0.962606	-0.998607	0.239119
H256	H	-0.462606	-0.498607	0.739119
