data_functionalizedCrystal
_audit_creation_method	'MofGen! by Chris Wilmer'
_symmetry_space_group_name_H-M	'P1'
_symmetry_Int_Tables_number	1
_symmetry_cell_setting	triclinic
loop_
_symmetry_equiv_pos_as_xyz
  x,y,z
_cell_length_a	17.699104
_cell_length_b	9.065218
_cell_length_c	8.140239
_cell_angle_alpha	89.998670
_cell_angle_beta	90.002352
_cell_angle_gamma	95.846299
loop_
_atom_site_label
_atom_site_type_symbol
_atom_site_fract_x
_atom_site_fract_y
_atom_site_fract_z
O1	O	1.005519	-0.186701	0.136640
O2	O	0.785332	-0.210941	0.136635
O3	O	0.899976	0.015956	0.136635
O4	O	0.890874	-0.413598	0.136641
O5	O	0.899973	0.015957	-0.136593
O6	O	0.785328	-0.210939	-0.136592
O7	O	1.005515	-0.186699	-0.136587
Zn8	Zn	0.895421	-0.198819	-0.179970
Zn9	Zn	0.895426	-0.198821	0.180018
O10	O	0.890870	-0.413596	-0.136586
C11	C	0.757126	-0.210066	0.000021
C12	C	0.673088	-0.207445	0.000020
C13	C	0.149141	-0.325845	0.000039
C14	C	0.228104	-0.328299	0.000043
C15	C	0.275682	-0.195102	0.000041
C16	C	0.244295	-0.059442	0.000051
C17	C	0.165333	-0.056990	0.000058
C18	C	0.562738	-0.069331	0.000024
C19	C	0.641704	-0.071794	0.000012
C20	C	0.625508	-0.340640	0.000010
C21	C	0.546547	-0.338188	0.000017
C22	C	0.515166	-0.202529	0.000035
C23	C	0.429545	-0.199869	0.000033
C24	C	0.361302	-0.197760	0.000031
C25	C	0.899100	0.070917	0.000024
C26	C	0.896484	0.234683	0.000031
C27	C	1.033720	-0.187574	0.000031
C28	C	1.117758	-0.190195	0.000043
C29	C	0.891747	-0.468558	0.000028
C30	C	0.894363	-0.632323	0.000031
N31	N	0.895423	-0.198817	-0.425653
N32	N	0.895429	-0.198812	0.425701
H33	H	0.507811	-0.446650	0.000011
C34	C	0.296629	0.087072	0.000043
H35	H	0.348151	0.066185	0.000020
H36	H	0.287021	0.142711	0.095322
H37	H	0.287008	0.142701	-0.095250
H38	H	0.139783	0.053470	0.000064
H39	H	0.110407	-0.434310	0.000028
C40	C	0.660029	-0.489865	0.000016
H41	H	0.713870	-0.472257	0.000031
H42	H	0.643760	-0.544695	-0.095264
H43	H	0.643762	-0.544693	0.095309
C44	C	0.694040	0.074730	0.000032
H45	H	0.664043	0.155875	0.000063
H46	H	0.725178	0.079373	-0.095249
H47	H	0.725181	0.079339	0.095324
C48	C	0.528228	0.079887	0.000016
H49	H	0.567875	0.158858	-0.000009
H50	H	0.497765	0.086447	0.095296
H51	H	0.497761	0.086428	-0.095277
H52	H	0.253651	-0.438758	0.000055
