data_functionalizedCrystal
_audit_creation_method	'MofGen! by Chris Wilmer'
_symmetry_space_group_name_H-M	'P1'
_symmetry_Int_Tables_number	1
_symmetry_cell_setting	triclinic
loop_
_symmetry_equiv_pos_as_xyz
  x,y,z
_cell_length_a	22.610064
_cell_length_b	14.853567
_cell_length_c	14.853559
_cell_angle_alpha	96.366808
_cell_angle_beta	90.012760
_cell_angle_gamma	89.998830
loop_
_atom_site_label
_atom_site_type_symbol
_atom_site_fract_x
_atom_site_fract_y
_atom_site_fract_z
O1	O	-0.049141	-1.196360	0.117685
O2	O	-0.049151	-0.933900	0.131706
O3	O	-0.049145	-1.072145	-0.006535
O4	O	-0.049147	-1.058115	0.255926
O5	O	0.049224	-1.072135	-0.006499
O6	O	0.049219	-0.933891	0.131742
O7	O	0.049228	-1.196351	0.117720
Zn8	Zn	0.064842	-1.065119	0.124737
Zn9	Zn	-0.064764	-1.065131	0.124690
O10	O	0.049223	-1.058106	0.255961
C11	C	0.000033	-0.900307	0.131089
C12	C	0.000029	-0.800223	0.129185
N13	N	0.153294	-1.065117	0.124768
N14	N	-0.153216	-1.065140	0.124651
C15	C	0.438140	-1.003882	0.185906
C16	C	0.376220	-1.003880	0.185915
O17	O	0.344199	-0.951788	0.237937
N18	N	0.345246	-1.065111	0.124732
C19	C	0.376196	-1.126342	0.063530
O20	O	0.344165	-1.178423	0.011489
C21	C	0.438115	-1.126339	0.063517
C22	C	0.469085	-1.065110	0.124711
C23	C	0.469110	-0.942657	0.247094
C24	C	0.531026	-0.942661	0.247086
C25	C	0.561971	-1.003890	0.185891
C26	C	0.531001	-1.065114	0.124703
C27	C	0.469064	-1.187566	0.002311
C28	C	0.530987	-1.187557	0.002304
C29	C	0.561957	-1.126328	0.063497
C30	C	0.623862	-1.126346	0.063499
N31	N	0.654835	-1.065115	0.124683
C32	C	0.623890	-1.003887	0.185878
C33	C	0.246163	-1.126342	0.063559
C34	C	0.184245	-1.126349	0.063575
C35	C	0.184273	-1.003886	0.185960
C36	C	0.246192	-1.003883	0.185947
C37	C	0.277136	-1.065111	0.124742
C38	C	0.753917	-1.003900	0.185858
C39	C	0.815838	-1.003912	0.185847
C40	C	0.815805	-1.126372	0.063460
C41	C	0.753889	-1.126364	0.063473
C42	C	0.722947	-1.065120	0.124676
O43	O	0.655922	-1.178409	0.011502
O44	O	0.655928	-0.951807	0.237903
C45	C	0.000039	-1.071506	-0.040106
C46	C	0.000035	-1.069605	-0.140190
C47	C	0.000044	-1.229944	0.118338
C48	C	0.000044	-1.330028	0.120242
C49	C	0.000043	-0.387692	0.039019
C50	C	0.000041	-0.366406	0.203252
C51	C	0.000039	-0.460440	0.205042
C52	C	0.000038	-0.518104	0.123819
C53	C	0.000039	-0.481735	0.040806
C54	C	0.000032	-0.496816	0.288054
C55	C	0.000030	-0.590855	0.289847
C56	C	0.000033	-0.648521	0.208623
C57	C	0.000034	-0.612147	0.125607
C58	C	0.000033	-0.669811	0.044384
C59	C	0.000039	-0.633438	-0.038633
C60	C	0.000042	-0.539401	-0.040417
C61	C	0.000030	-0.742559	0.210408
C62	C	0.000030	-0.763854	0.046172
C63	C	-0.053586	-1.061546	-0.563384
C64	C	0.053660	-1.061536	-0.563340
C65	C	0.053660	-1.063329	-0.469307
C66	C	0.000037	-1.064230	-0.422308
C67	C	-0.053587	-1.063337	-0.469342
C68	C	0.107283	-1.064213	-0.422265
C69	C	0.107286	-1.066006	-0.328226
C70	C	0.053662	-1.066913	-0.281226
C71	C	0.000036	-1.066021	-0.328266
C72	C	-0.053588	-1.066921	-0.281266
C73	C	-0.107215	-1.066036	-0.328306
C74	C	-0.107211	-1.064244	-0.422342
C75	C	0.053659	-1.068704	-0.187189
C76	C	-0.053589	-1.068712	-0.187224
C77	C	0.000038	-1.058745	0.289532
C78	C	0.000037	-1.060646	0.389616
H79	H	0.841052	-0.954052	0.235681
H80	H	0.271404	-0.954025	0.235776
H81	H	0.000037	-0.319450	0.269380
H82	H	-0.150871	-1.063522	-0.460649
H83	H	0.000050	-0.358073	-0.028572
H84	H	0.000031	-0.810799	-0.019971
H85	H	0.150952	-1.066730	-0.289935
H86	H	0.728731	-0.954029	0.235694
H87	H	0.000027	-0.449859	0.354181
H88	H	0.000061	-0.509777	-0.108006
H89	H	0.097321	-1.069405	-0.148891
H90	H	0.000025	-0.620461	0.357445
H91	H	0.000026	-0.772169	0.277999
H92	H	0.556238	-0.892801	0.296913
H93	H	0.443920	-0.892794	0.296927
H94	H	-0.097256	-1.069449	-0.148964
H95	H	0.097317	-1.060797	-0.601612
H96	H	-0.150875	-1.066762	-0.290026
H97	H	-0.097248	-1.060829	-0.601688
H98	H	0.159066	-0.954029	0.235787
H99	H	0.271355	-1.176208	0.013721
H100	H	0.159033	-1.176217	0.013755
H101	H	0.150941	-1.063475	-0.460538
H102	H	0.443856	-1.237423	-0.047518
H103	H	0.556179	-1.237415	-0.047539
H104	H	0.841010	-1.176226	0.013637
H105	H	0.000034	-0.680401	-0.104765
H106	H	0.728673	-1.176231	0.013653
