data_functionalizedCrystal
_audit_creation_method	'MofGen! by Chris Wilmer'
_symmetry_space_group_name_H-M	'P1'
_symmetry_Int_Tables_number	1
_symmetry_cell_setting	triclinic
loop_
_symmetry_equiv_pos_as_xyz
  x,y,z
_cell_length_a	13.897448
_cell_length_b	17.077404
_cell_length_c	17.077396
_cell_angle_alpha	90.017060
_cell_angle_beta	89.971029
_cell_angle_gamma	89.982083
loop_
_atom_site_label
_atom_site_type_symbol
_atom_site_fract_x
_atom_site_fract_y
_atom_site_fract_z
Zn1	Zn	-0.383994	-1.200064	-0.443849
Zn2	Zn	0.116006	-0.700064	0.056151
Zn3	Zn	-0.545311	-1.199989	-0.312585
Zn4	Zn	-0.045311	-0.699989	0.187415
Zn5	Zn	-0.384032	-1.068801	-0.312597
Zn6	Zn	0.115968	-0.568801	0.187403
Zn7	Zn	-0.545249	-1.068776	-0.443809
Zn8	Zn	-0.045249	-0.568776	0.056191
O9	O	-0.464647	-1.134407	-0.378210
O10	O	0.035353	-0.634407	0.121790
O11	O	-0.405403	-1.309901	-0.426448
O12	O	0.094597	-0.809901	0.073552
O13	O	-0.523959	-1.182566	-0.202740
O14	O	-0.023959	-0.682566	0.297260
O15	O	-0.249045	-1.086256	-0.330029
O16	O	0.250955	-0.586256	0.169971
O17	O	-0.523922	-1.309846	-0.330010
O18	O	-0.023922	-0.809846	0.169990
O19	O	-0.249017	-1.182694	-0.426459
O20	O	0.250983	-0.682694	0.073541
O21	O	-0.405468	-1.086183	-0.202748
O22	O	0.094532	-0.586183	0.297252
O23	O	-0.405408	-0.958951	-0.329990
O24	O	0.094592	-0.458951	0.170010
O25	O	-0.523816	-1.086212	-0.553661
O26	O	-0.023816	-0.586212	-0.053661
O27	O	-0.523854	-0.958932	-0.426391
O28	O	-0.023854	-0.458932	0.073609
O29	O	-0.405343	-1.182669	-0.553690
O30	O	0.094657	-0.682669	-0.053690
O31	O	-0.680284	-1.182541	-0.329971
O32	O	-0.180284	-0.682541	0.170029
O33	O	-0.680239	-1.086139	-0.426380
O34	O	-0.180239	-0.586139	0.073620
C35	C	-0.715261	-1.134350	-0.378187
C36	C	-0.215261	-0.634350	0.121813
C37	C	-0.822475	-1.134397	-0.378204
C38	C	-0.322475	-0.634397	0.121796
C39	C	-0.464629	-0.930460	-0.378188
C40	C	0.035371	-0.430460	0.121812
C41	C	-0.464645	-0.843210	-0.378198
C42	C	0.035355	-0.343210	0.121802
C43	C	-0.464568	-1.134446	-0.582954
C44	C	0.035432	-0.634446	-0.082954
C45	C	-0.464535	-1.134463	-0.670204
C46	C	0.035465	-0.634463	-0.170204
C47	C	-1.018770	-1.134480	-0.378253
C48	C	-0.518770	-0.634480	0.121747
C49	C	-0.909537	-1.134432	-0.378228
C50	C	-0.409537	-0.634432	0.121772
C51	C	-0.213054	-1.134486	-0.378250
C52	C	0.286946	-0.634486	0.121750
C53	C	-0.105840	-1.134520	-0.378267
C54	C	0.394160	-0.634520	0.121733
C55	C	-0.464665	-1.339152	-0.378232
C56	C	0.035335	-0.839152	0.121768
C57	C	-0.464673	-1.426401	-0.378242
C58	C	0.035327	-0.926401	0.121758
C59	C	-0.526412	-0.802230	-0.428313
C60	C	-0.026412	-0.302230	0.071687
C61	C	-0.526415	-0.720250	-0.428326
C62	C	-0.026415	-0.220250	0.071674
C63	C	-0.464653	-0.679250	-0.378218
C64	C	0.035347	-0.179250	0.121782
C65	C	-0.402879	-0.720236	-0.328100
C66	C	0.097121	-0.220236	0.171900
C67	C	-0.402873	-0.802215	-0.328092
C68	C	0.097127	-0.302215	0.171908
C69	C	-0.402898	-0.549366	-0.328119
C70	C	0.097102	-0.049366	0.171881
C71	C	-0.402905	-0.467381	-0.328126
C72	C	0.097095	0.032619	0.171874
C73	C	-0.526440	-0.467401	-0.428353
C74	C	-0.026440	0.032599	0.071647
C75	C	-0.526433	-0.549380	-0.428345
C76	C	-0.026433	-0.049380	0.071655
C77	C	-0.464660	-0.590359	-0.378226
C78	C	0.035340	-0.090359	0.121774
C79	C	-0.526121	-1.184721	-1.046017
C80	C	-0.026121	-0.684721	-0.546017
C81	C	-0.526149	-1.184701	-0.964036
C82	C	-0.026149	-0.684701	-0.464036
C83	C	-0.464467	-1.134513	-0.923053
C84	C	0.035533	-0.634513	-0.423053
C85	C	-0.402760	-1.084337	-0.964055
C86	C	0.097240	-0.584337	-0.464055
C87	C	-0.402737	-1.084353	-1.046034
C88	C	0.097263	-0.584353	-0.546034
C89	C	-0.402809	-1.084307	-0.793185
C90	C	0.097191	-0.584307	-0.293185
C91	C	-0.402831	-1.084292	-0.711200
C92	C	0.097169	-0.584292	-0.211200
C93	C	-0.526221	-1.184655	-0.711187
C94	C	-0.026221	-0.684655	-0.211187
C95	C	-0.526199	-1.184671	-0.793166
C96	C	-0.026199	-0.684671	-0.293166
C97	C	-0.464490	-1.134496	-0.834162
C98	C	0.035510	-0.634496	-0.334162
C99	C	-0.464655	-1.134414	-0.174262
C100	C	0.035345	-0.634414	0.325738
C101	C	-0.464416	-1.134550	-0.087013
C102	C	0.035584	-0.634550	0.412987
H103	H	-0.576709	-0.835606	-0.469114
H104	H	-0.076709	-0.335606	0.030886
Br105	Br	-0.319034	-1.016235	-0.908436
Br106	Br	0.180966	-0.516235	-0.408436
Br107	Br	-0.319060	-0.604980	-0.260102
Br108	Br	0.180940	-0.104980	0.239898
Br109	Br	-0.318989	-1.016264	-1.101672
Br110	Br	0.181011	-0.516264	-0.601672
Br111	Br	-0.319093	-0.411739	-0.260116
Br112	Br	0.180907	0.088261	0.239884
Br113	Br	-0.610243	-0.664638	-0.496345
Br114	Br	-0.110243	-0.164638	0.003655
H115	H	-0.352601	-1.043427	-0.677834
H116	H	0.147399	-0.543427	-0.177834
H117	H	-0.352587	-0.686847	-0.287305
H118	H	0.147413	-0.186847	0.212695
Br119	Br	-0.609829	-1.252843	-1.101629
Br120	Br	-0.109829	-0.752843	-0.601629
Br121	Br	-0.610263	-0.605022	-0.496341
Br122	Br	-0.110263	-0.105022	0.003659
Br123	Br	-0.609907	-1.252787	-0.848786
Br124	Br	-0.109907	-0.752787	-0.348786
Br125	Br	-0.319036	-0.857831	-0.260080
Br126	Br	0.180964	-0.357831	0.239920
Br127	Br	-0.609895	-1.252793	-0.908402
Br128	Br	-0.109895	-0.752793	-0.408402
Br129	Br	-0.610263	-0.411787	-0.496382
Br130	Br	-0.110263	0.088213	0.003618
Br131	Br	-0.609971	-1.252750	-0.655551
Br132	Br	-0.109971	-0.752750	-0.155551
H133	H	-0.352560	-1.043449	-0.826561
H134	H	0.147440	-0.543449	-0.326561
