data_functionalizedCrystal
_audit_creation_method	'MofGen! by Chris Wilmer'
_symmetry_space_group_name_H-M	'P1'
_symmetry_Int_Tables_number	1
_symmetry_cell_setting	triclinic
loop_
_symmetry_equiv_pos_as_xyz
  x,y,z
_cell_length_a	15.995280
_cell_length_b	14.472311
_cell_length_c	15.995350
_cell_angle_alpha	90.007428
_cell_angle_beta	96.522014
_cell_angle_gamma	89.995148
loop_
_atom_site_label
_atom_site_type_symbol
_atom_site_fract_x
_atom_site_fract_y
_atom_site_fract_z
O1	O	-1.111021	0.076852	0.107652
O2	O	-0.867238	0.076850	0.121041
O3	O	-0.995793	0.076850	-0.007543
O4	O	-0.982466	0.076851	0.236236
O5	O	-0.995785	-0.076832	-0.007559
O6	O	-0.867229	-0.076832	0.121025
O7	O	-1.111012	-0.076830	0.107636
Cu8	Cu	-0.989120	-0.090864	0.114329
Cu9	Cu	-0.989130	0.090883	0.114348
O10	O	-0.982457	-0.076831	0.236220
C11	C	-0.836038	0.000008	0.120490
C12	C	-0.743084	0.000008	0.118861
C13	C	-0.405344	0.000021	0.112875
C14	C	-0.428656	0.000364	0.205679
C15	C	-0.525332	0.000013	0.207438
C16	C	-0.572901	0.000015	0.115846
C17	C	-0.543794	-0.087742	0.069440
C18	C	-0.447002	-0.087811	0.068327
C19	C	-0.447157	0.086955	0.066450
C20	C	-0.543650	0.088110	0.069885
C21	C	-0.667597	0.000008	0.117519
C22	C	-0.310647	0.000021	0.111199
C23	C	-0.142211	0.000015	0.108198
C24	C	-0.235160	0.000028	0.109859
N25	N	-0.989119	-0.218695	0.114315
C26	C	-0.995238	0.000011	-0.038746
C27	C	-0.993586	0.000016	-0.131696
C28	C	-0.989131	-0.592786	0.114342
C29	C	-1.058142	-0.553591	0.045769
C30	C	-1.057962	-0.446503	0.045516
C31	C	-0.989126	-0.407195	0.114328
C32	C	-0.901766	-0.446087	0.095270
C33	C	-0.902174	-0.553208	0.094785
C34	C	-1.006693	-0.553290	0.202176
C35	C	-1.008676	-0.446162	0.201587
C36	C	-0.989117	-0.302307	0.114323
C37	C	-0.989134	-0.697674	0.114346
N38	N	-0.989138	0.218714	0.114355
C39	C	-0.987654	0.000013	-0.469442
C40	C	-0.896099	0.000356	-0.421984
C41	C	-0.897751	0.000010	-0.325295
C42	C	-0.990596	0.000015	-0.301882
C43	C	-1.035750	-0.087743	-0.342980
C44	C	-1.033450	-0.087817	-0.439615
C45	C	-1.035351	0.086948	-0.439955
C46	C	-1.035329	0.088108	-0.343010
C47	C	-0.992264	0.000013	-0.207185
C48	C	-0.985989	0.000008	-0.564139
C49	C	-0.983012	0.000011	0.267422
C50	C	-0.984664	0.000012	0.360372
H51	H	-0.433164	0.087549	-0.001859
C52	C	-1.043203	-0.589961	-0.041793
C53	C	-1.111494	-0.647760	-0.093487
C54	C	-1.096550	-0.684132	-0.181048
C55	C	-1.013316	-0.662705	-0.216913
C56	C	-0.945020	-0.604903	-0.165218
C57	C	-0.959963	-0.568531	-0.077658
H58	H	-1.173113	-0.663624	-0.066938
H59	H	-1.147108	-0.726921	-0.219315
H60	H	-1.002254	-0.689630	-0.281730
H61	H	-0.883400	-0.589039	-0.191768
H62	H	-0.909405	-0.525743	-0.039391
C63	C	-0.881275	-0.586981	0.008247
C64	C	-0.944818	-0.647142	-0.047142
C65	C	-0.923923	-0.680908	-0.133683
C66	C	-0.839485	-0.654514	-0.164837
C67	C	-0.775937	-0.594350	-0.109447
C68	C	-0.796832	-0.560584	-0.022906
H69	H	-1.007329	-0.666683	-0.024081
H70	H	-0.970966	-0.725445	-0.174686
H71	H	-0.824017	-0.679510	-0.228900
H72	H	-0.713426	-0.574809	-0.132508
H73	H	-0.749789	-0.516047	0.018097
C74	C	-0.846664	0.085380	-0.446984
C75	C	-0.888821	0.155540	-0.510800
C76	C	-0.839388	0.240572	-0.535799
C77	C	-0.747799	0.255444	-0.496983
C78	C	-0.705638	0.185282	-0.433164
C79	C	-0.755071	0.100250	-0.408164
H80	H	-0.956624	0.144532	-0.539537
H81	H	-0.870599	0.292510	-0.583043
H82	H	-0.711206	0.318390	-0.515489
H83	H	-0.637834	0.196290	-0.404426
H84	H	-0.723860	0.048312	-0.360921
H85	H	-1.122901	-0.420207	0.056862
H86	H	-1.069034	-0.580298	0.220499
H87	H	-1.123298	-0.579345	0.056931
H88	H	-0.562224	0.153032	0.103674
H89	H	-0.849175	-0.420626	0.143886
H90	H	-1.046741	-0.420887	-0.019667
H91	H	-0.563849	-0.153052	0.101653
H92	H	-0.956369	-0.578642	0.253206
H93	H	-0.961670	-0.419402	0.255004
H94	H	-0.400664	0.063300	0.241457
C95	C	-0.389466	-0.084185	0.253730
C96	C	-0.336443	-0.153440	0.209074
C97	C	-0.297255	-0.237993	0.257121
C98	C	-0.311090	-0.253290	0.349825
C99	C	-0.364116	-0.184032	0.394486
C100	C	-0.403304	-0.099479	0.346438
H101	H	-0.326199	-0.142119	0.140444
H102	H	-0.258002	-0.289262	0.224059
H103	H	-0.282081	-0.315881	0.385392
H104	H	-0.374360	-0.195354	0.463115
H105	H	-0.442557	-0.048210	0.379500
C106	C	-0.550199	-0.085117	0.256807
C107	C	-0.482047	-0.152997	0.294748
C108	C	-0.506912	-0.238131	0.344120
C109	C	-0.599931	-0.255386	0.355552
C110	C	-0.668089	-0.187505	0.317611
C111	C	-0.643224	-0.102370	0.268238
H112	H	-0.413183	-0.140225	0.286286
H113	H	-0.456456	-0.288381	0.372207
H114	H	-0.618338	-0.318407	0.392101
H115	H	-0.736952	-0.200276	0.326073
H116	H	-0.693680	-0.052120	0.240152
H117	H	-0.849278	-0.579137	0.142832
H118	H	-0.862257	0.062918	-0.296857
C119	C	-0.427337	-0.093213	-0.023592
C120	C	-0.499677	-0.097454	-0.095749
C121	C	-0.480016	-0.102869	-0.187664
C122	C	-0.388015	-0.104042	-0.207423
C123	C	-0.315668	-0.099800	-0.135264
C124	C	-0.335330	-0.094386	-0.043348
H125	H	-0.567788	-0.096586	-0.081124
H126	H	-0.533572	-0.106009	-0.241081
H127	H	-0.373460	-0.108050	-0.275464
H128	H	-0.247558	-0.100669	-0.149888
H129	H	-0.281774	-0.091246	0.010069
H130	H	-1.103960	-0.091004	-0.328872
C131	C	-0.880338	-0.409868	0.009717
C132	C	-0.938963	-0.431612	-0.071032
C133	C	-0.917541	-0.395396	-0.156587
C134	C	-0.837495	-0.337436	-0.161393
C135	C	-0.778866	-0.315689	-0.080641
C136	C	-0.800287	-0.351905	0.004914
H137	H	-0.998222	-0.474520	-0.067477
H138	H	-0.960943	-0.411495	-0.216365
H139	H	-0.821638	-0.310627	-0.224726
H140	H	-0.719606	-0.272781	-0.084196
H141	H	-0.756885	-0.335807	0.064692
H142	H	-1.004381	-0.153053	-0.314597
C143	C	-0.846872	-0.084188	-0.448443
C144	C	-0.889442	-0.153441	-0.512896
C145	C	-0.840217	-0.237986	-0.539358
C146	C	-0.748423	-0.253278	-0.501367
C147	C	-0.705848	-0.184023	-0.436910
C148	C	-0.755072	-0.099478	-0.410448
H149	H	-0.957398	-0.142123	-0.541023
H150	H	-0.871734	-0.289253	-0.587074
H151	H	-0.711983	-0.315863	-0.520955
H152	H	-0.637891	-0.195341	-0.408783
H153	H	-0.723555	-0.048211	-0.362733
C154	C	-0.849479	-0.085125	-0.287640
C155	C	-0.809308	-0.153012	-0.345563
C156	C	-0.761036	-0.238153	-0.307909
C157	C	-0.752935	-0.255407	-0.212333
C158	C	-0.793106	-0.187518	-0.154404
C159	C	-0.841378	-0.102377	-0.192058
H160	H	-0.815305	-0.140241	-0.416319
H161	H	-0.731299	-0.288408	-0.350792
H162	H	-0.717201	-0.318434	-0.184459
H163	H	-0.787110	-0.200289	-0.083648
H164	H	-0.871116	-0.052122	-0.149175
H165	H	-1.103036	0.093410	-0.327664
H166	H	-0.576621	0.093411	0.003033
H167	H	-1.102854	0.087542	-0.471733
C168	C	-0.586846	-0.092161	-0.021612
C169	C	-0.649081	-0.015951	-0.054967
C170	C	-0.692135	-0.020368	-0.146019
C171	C	-0.672953	-0.100994	-0.203717
C172	C	-0.610715	-0.177210	-0.170363
C173	C	-0.567661	-0.172793	-0.079311
H174	H	-0.663284	0.043739	-0.012256
H175	H	-0.738208	0.036052	-0.170710
H176	H	-0.704824	-0.104264	-0.271119
H177	H	-0.596512	-0.236900	-0.213074
H178	H	-0.521588	-0.229213	-0.054620
C179	C	-0.994919	0.176811	-0.467675
C180	C	-1.047246	0.245248	-0.525881
C181	C	-1.006805	0.335105	-0.553600
C182	C	-0.914036	0.356524	-0.523113
C183	C	-0.861704	0.288086	-0.464904
C184	C	-0.902146	0.198229	-0.437185
H185	H	-1.115924	0.229393	-0.548453
H186	H	-1.045545	0.385767	-0.596690
H187	H	-0.884099	0.423042	-0.543632
H188	H	-0.793026	0.303940	-0.442332
H189	H	-0.863405	0.147566	-0.394095
C190	C	-0.551049	0.085002	0.256522
C191	C	-0.644255	0.101332	0.267737
C192	C	-0.669967	0.186327	0.316819
C193	C	-0.602473	0.254992	0.354686
C194	C	-0.509261	0.238665	0.343472
C195	C	-0.483549	0.153670	0.294390
H196	H	-0.694224	0.050500	0.239705
H197	H	-0.738970	0.198414	0.325121
H198	H	-0.621507	0.317911	0.391020
H199	H	-0.459292	0.289496	0.371504
H200	H	-0.414546	0.141583	0.286088
H201	H	-1.100668	-0.091795	-0.471881
H202	H	-1.000516	-0.153420	-0.457915
H203	H	-1.072942	-0.420742	0.216050
H204	H	-0.420182	-0.153412	0.100455
H205	H	-0.418834	0.153470	0.095466
H206	H	-1.002317	0.153029	-0.315746
