data_functionalizedCrystal
_audit_creation_method	'MofGen! by Chris Wilmer'
_symmetry_space_group_name_H-M	'P1'
_symmetry_Int_Tables_number	1
_symmetry_cell_setting	triclinic
loop_
_symmetry_equiv_pos_as_xyz
  x,y,z
_cell_length_a	14.628931
_cell_length_b	14.628931
_cell_length_c	14.628931
_cell_angle_alpha	60.000000
_cell_angle_beta	90.000000
_cell_angle_gamma	60.000000
loop_
_atom_site_label
_atom_site_type_symbol
_atom_site_fract_x
_atom_site_fract_y
_atom_site_fract_z
Zr1	Zr	0.880621	1.000576	-0.119961
O2	O	0.734660	1.191281	-0.265922
O3	O	0.925365	0.809870	-0.075216
O4	O	0.925366	1.000575	-0.265921
O5	O	0.734659	1.000577	0.075215
O6	O	1.075798	1.000575	-0.265921
O7	O	0.734660	1.000576	-0.075216
O8	O	1.075797	0.659438	0.075216
O9	O	0.734660	1.341713	-0.265922
O10	O	1.056714	0.888310	-0.056132
O11	O	0.944448	0.888310	0.056133
O12	O	0.944449	1.112841	-0.168398
O13	O	0.832183	1.112842	-0.056133
Zr14	Zr	1.120542	1.000576	0.119961
Zr15	Zr	1.120542	1.000575	-0.119960
Zr16	Zr	0.880620	1.000576	0.119960
Zr17	Zr	0.880621	1.240497	-0.119961
Zr18	Zr	1.120542	0.760654	0.119961
O19	O	1.075798	1.191281	0.075216
O20	O	1.075798	1.191280	-0.265921
O21	O	0.734660	1.191282	0.075215
O22	O	1.266503	0.809870	0.265922
O23	O	1.266503	0.809869	-0.075215
O24	O	0.925365	0.809871	0.265921
O25	O	1.266503	1.000575	-0.075215
O26	O	1.075797	1.000576	0.265921
O27	O	0.925365	1.000577	0.265921
O28	O	1.266503	1.000575	0.075216
O29	O	0.925366	1.341713	-0.265922
O30	O	1.075797	0.659439	0.265922
O31	O	1.266502	0.659438	0.265922
O32	O	1.266503	0.659438	0.075217
O33	O	0.734660	1.341714	-0.075217
O34	O	0.925366	1.341713	-0.075216
O35	O	1.056714	0.888310	0.168398
O36	O	1.168980	0.888310	0.056133
O37	O	1.056715	1.112841	-0.056133
O38	O	0.944449	1.112842	0.056132
C39	C	1.000581	0.700470	0.000000
C40	C	1.000581	0.598617	0.000001
C41	C	1.056272	0.553208	-0.055691
C42	C	1.056273	0.447937	-0.055692
C43	C	0.700476	1.000576	-0.000000
C44	C	0.598623	1.000577	-0.000001
C45	C	0.608905	0.889194	0.055691
C46	C	0.503635	0.889192	0.055692
C47	C	1.300687	1.000575	0.000000
C48	C	1.402540	1.000574	0.000001
C49	C	1.000582	1.000575	-0.300105
C50	C	1.000582	1.000574	-0.401958
C51	C	1.000582	1.300681	-0.000000
C52	C	1.000582	1.402534	-0.000001
C53	C	0.944891	1.111957	-0.503058
C54	C	0.944890	1.111959	-0.608330
C55	C	1.000581	1.000576	0.300105
C56	C	1.000581	1.000577	0.401958
C57	C	1.300687	0.700469	0.000001
C58	C	1.402540	0.598616	0.000001
C59	C	1.000581	0.700471	0.300105
C60	C	1.000580	0.598619	0.401958
C61	C	1.300686	0.700470	0.300106
C62	C	1.402539	0.598617	0.401959
C63	C	0.700477	1.300681	-0.300106
C64	C	0.598624	1.402534	-0.401959
C65	C	0.700476	1.300682	-0.000001
C66	C	0.598623	1.402535	-0.000001
C67	C	1.000582	1.300680	-0.300105
C68	C	1.000583	1.402533	-0.401958
C69	C	1.392257	0.553207	-0.055690
C70	C	1.497527	0.447936	-0.055691
C71	C	1.056271	0.553209	0.503059
C72	C	1.056272	0.447939	0.608330
C73	C	1.503640	0.553208	0.391677
C74	C	1.608911	0.447937	0.496946
H75	H	0.952895	0.441584	0.047676
O76	O	1.608796	0.449080	0.056972
C77	C	1.556918	0.425667	0.139191
H78	H	1.491776	0.413664	0.114546
H79	H	1.514322	0.510712	0.146231
H80	H	1.622703	0.333695	0.223279
O81	O	0.887988	1.225840	-0.513554
C82	C	0.836180	1.329404	-0.627997
H83	H	0.882081	1.295170	-0.679130
H84	H	0.839356	1.411329	-0.641234
H85	H	0.745213	1.365457	-0.656168
O86	O	1.495139	0.449311	0.608297
C87	C	1.436309	0.583421	0.556365
H88	H	1.498438	0.609558	0.552033
H89	H	1.383300	0.611033	0.607016
H90	H	1.379617	0.638118	0.468055
O91	O	1.487163	0.401236	-0.112430
C92	C	1.428142	0.345848	-0.069381
H93	H	1.436038	0.317183	0.019921
H94	H	1.464597	0.256434	-0.069476
H95	H	1.336067	0.419137	-0.123775
O96	O	0.943599	0.552213	0.391462
C97	C	0.891842	0.614848	0.277020
H98	H	0.880176	0.711881	0.225886
H99	H	0.806740	0.631263	0.263783
H100	H	0.946755	0.552051	0.248849
O101	O	1.505927	0.552207	0.056906
C102	C	1.495048	0.614841	0.108715
H103	H	1.409683	0.711877	0.062813
H104	H	1.563739	0.631250	0.105543
H105	H	1.502928	0.552045	0.199681
H106	H	0.952905	0.559557	0.047682
H107	H	1.048264	0.905218	-0.393337
H108	H	1.103945	0.592272	0.511679
O109	O	0.514140	0.775307	0.112596
C110	C	0.628583	0.671746	0.164402
H111	H	0.679714	0.705983	0.118500
H112	H	0.641823	0.589819	0.161227
H113	H	0.656755	0.635693	0.255370
H114	H	1.305521	0.592270	-0.103373
O115	O	1.113141	0.401175	-0.112477
C116	C	1.100467	0.306494	-0.099852
H117	H	1.078872	0.264732	-0.020693
H118	H	1.182002	0.225914	-0.093104
H119	H	1.030282	0.352272	-0.175547
O120	O	1.712459	0.401269	0.486841
C121	C	1.794514	0.306545	0.594196
H122	H	1.757113	0.322338	0.657554
H123	H	1.868338	0.314263	0.593241
H124	H	1.824446	0.206439	0.618601
O125	O	0.392284	1.114315	-0.056707
C126	C	0.444215	1.121214	0.018573
H127	H	0.448548	1.054751	0.106839
H128	H	0.393563	1.224874	-0.006824
H129	H	0.532525	1.089597	0.016578
H130	H	1.103953	0.408887	0.695061
O131	O	1.392099	0.552014	0.505369
C132	C	1.333131	0.496561	0.517737
H133	H	1.280218	0.539819	0.431624
H134	H	1.276339	0.517452	0.568173
H135	H	1.395152	0.387577	0.563415
O136	O	0.495127	1.114309	-0.057030
C137	C	0.436299	1.121202	-0.139205
H138	H	0.498431	1.054743	-0.161011
H139	H	0.383285	1.224862	-0.217468
H140	H	0.379612	1.089578	-0.105589
H141	H	1.103957	0.592259	-0.103365
H142	H	0.695641	0.793837	0.103374
O143	O	0.943858	0.449087	0.494523
C144	C	1.019148	0.425676	0.435715
H145	H	1.096294	0.413669	0.472365
H146	H	0.976698	0.510725	0.343631
H147	H	1.045331	0.333708	0.443594
O148	O	1.057300	0.886883	-0.494524
C149	C	0.982007	0.879957	-0.435721
H150	H	0.904864	0.981747	-0.472368
H151	H	1.024456	0.830465	-0.343634
H152	H	0.955818	0.822059	-0.443608
H153	H	0.897204	1.207318	-0.695060
H154	H	1.512263	0.592268	0.304942
