data_functionalizedCrystal
_audit_creation_method	'MofGen! by Chris Wilmer'
_symmetry_space_group_name_H-M	'P1'
_symmetry_Int_Tables_number	1
_symmetry_cell_setting	triclinic
loop_
_symmetry_equiv_pos_as_xyz
  x,y,z
_cell_length_a	19.077236
_cell_length_b	13.031981
_cell_length_c	19.076919
_cell_angle_alpha	95.212724
_cell_angle_beta	90.112677
_cell_angle_gamma	99.168272
loop_
_atom_site_label
_atom_site_type_symbol
_atom_site_fract_x
_atom_site_fract_y
_atom_site_fract_z
Zn1	Zn	1.027260	-0.379248	0.406832
Zn2	Zn	1.360593	-0.045914	0.740166
Zn3	Zn	1.693926	0.287419	1.073499
Zn4	Zn	1.018200	-0.546676	0.274444
Zn5	Zn	1.351533	-0.213343	0.607777
Zn6	Zn	1.684866	0.119990	0.941111
Zn7	Zn	0.914520	-0.378700	0.284661
Zn8	Zn	1.247853	-0.045366	0.617995
Zn9	Zn	1.581187	0.287967	0.951328
Zn10	Zn	0.894879	-0.560614	0.385943
Zn11	Zn	1.228212	-0.227281	0.719277
Zn12	Zn	1.561545	0.106052	1.052610
O13	O	0.963714	-0.466310	0.337970
O14	O	1.297048	-0.132976	0.671304
O15	O	1.630381	0.200357	1.004637
O16	O	1.124850	-0.395853	0.393737
O17	O	1.458183	-0.062520	0.727070
O18	O	1.791517	0.270813	1.060404
O19	O	1.008875	-0.518331	0.178007
O20	O	1.342208	-0.184998	0.511341
O21	O	1.675542	0.148335	0.844674
O22	O	0.941487	-0.232571	0.313886
O23	O	1.274820	0.100762	0.647219
O24	O	1.608153	0.434096	0.980552
O25	O	1.118194	-0.518863	0.296472
O26	O	1.451527	-0.185529	0.629805
O27	O	1.784861	0.147804	0.963138
O28	O	1.024316	-0.232973	0.403644
O29	O	1.357649	0.100360	0.736978
O30	O	1.690983	0.433693	1.070311
O31	O	0.932702	-0.394920	0.185514
O32	O	1.266035	-0.061586	0.518847
O33	O	1.599368	0.271747	0.852181
O34	O	0.813122	-0.408435	0.293630
O35	O	1.146456	-0.075102	0.626964
O36	O	1.479789	0.258232	0.960297
O37	O	0.908011	-0.542618	0.486506
O38	O	1.241344	-0.209285	0.819839
O39	O	1.574677	0.124048	1.153173
O40	O	0.798692	-0.542087	0.368042
O41	O	1.132025	-0.208754	0.701375
O42	O	1.465358	0.124580	1.034708
O43	O	1.005271	-0.409369	0.501853
O44	O	1.338604	-0.076035	0.835187
O45	O	1.671937	0.257298	1.168520
O46	O	0.989829	-0.694727	0.276216
O47	O	1.323163	-0.361393	0.609550
O48	O	1.656496	-0.028060	0.942883
O49	O	0.899226	-0.704967	0.358134
O50	O	1.232559	-0.371634	0.691468
O51	O	1.565893	-0.038300	1.024801
C52	C	0.780291	-0.476715	0.329678
C53	C	1.113625	-0.143382	0.663012
C54	C	1.446958	0.189952	0.996345
C55	C	0.701819	-0.481192	0.326145
C56	C	1.035152	-0.147859	0.659479
C57	C	1.368486	0.185474	0.992812
C58	C	0.668407	-0.419362	0.375185
C59	C	1.001740	-0.086029	0.708518
C60	C	1.335074	0.247305	1.041852
C61	C	0.594675	-0.423564	0.371860
C62	C	0.928008	-0.090231	0.705193
C63	C	1.261342	0.243103	1.038526
C64	C	0.554355	-0.489602	0.319497
C65	C	0.887689	-0.156269	0.652831
C66	C	1.221022	0.177064	0.986164
C67	C	0.587773	-0.551435	0.270452
C68	C	0.921106	-0.218102	0.603786
C69	C	1.254439	0.115232	0.937119
C70	C	0.661504	-0.547227	0.273775
C71	C	0.994837	-0.213894	0.607109
C72	C	1.328171	0.119440	0.940442
C73	C	0.333472	-0.509038	0.304120
C74	C	0.666805	-0.175705	0.637454
C75	C	1.000138	0.157629	0.970787
C76	C	0.259735	-0.513244	0.300803
C77	C	0.593068	-0.179910	0.634136
C78	C	0.926402	0.153423	0.967469
C79	C	0.266643	-0.385371	0.402209
C80	C	0.599976	-0.052037	0.735543
C81	C	0.933309	0.281296	1.068876
C82	C	0.340375	-0.381173	0.405530
C83	C	0.673708	-0.047840	0.738863
C84	C	1.007042	0.285494	1.072197
C85	C	0.373786	-0.443002	0.356483
C86	C	0.707119	-0.109668	0.689817
C87	C	1.040453	0.223665	1.023150
N88	N	0.478989	-0.493901	0.316098
N89	N	0.812322	-0.160568	0.649432
N90	N	1.145656	0.172765	0.982765
N91	N	0.449152	-0.438697	0.359879
N92	N	0.782485	-0.105363	0.693213
N93	N	1.115818	0.227970	1.026546
C94	C	0.941432	-0.737755	0.313816
C95	C	1.274765	-0.404422	0.647149
C96	C	1.608098	-0.071088	0.980483
C97	C	0.931963	-0.853878	0.303509
C98	C	1.265296	-0.520545	0.636842
C99	C	1.598629	-0.187212	0.970176
C100	C	0.968693	-0.905770	0.343365
C101	C	1.302027	-0.572437	0.676698
C102	C	1.635360	-0.239103	1.010032
C103	C	0.958907	-1.025789	0.332713
C104	C	1.292241	-0.692456	0.666047
C105	C	1.625574	-0.359123	0.999380
C106	C	1.147854	-0.455864	0.346295
C107	C	1.481187	-0.122531	0.679628
C108	C	1.814521	0.210802	1.012962
C109	C	1.226323	-0.451413	0.349842
C110	C	1.559656	-0.118080	0.683176
C111	C	1.892990	0.215253	1.016509
C112	C	0.955460	-0.477609	0.520245
C113	C	1.288794	-0.144276	0.853578
C114	C	1.622127	0.189057	1.186912
C115	C	0.951943	-0.482425	0.597920
C116	C	1.285276	-0.149091	0.931253
C117	C	1.618610	0.184242	1.264586
C118	C	0.986103	-0.193804	0.362235
C119	C	1.319436	0.139529	0.695568
C120	C	1.652770	0.472863	1.028902
C121	C	0.995643	-0.077678	0.372575
C122	C	1.328977	0.255655	0.705908
C123	C	1.662310	0.588988	1.039242
C124	C	0.971983	-0.454976	0.156413
C125	C	1.305317	-0.121643	0.489746
C126	C	1.638650	0.211691	0.823080
C127	C	0.975662	-0.449859	0.078771
C128	C	1.308995	-0.116525	0.412104
C129	C	1.642328	0.216808	0.745438
C130	C	1.000926	-0.415314	0.642403
C131	C	1.334259	-0.081981	0.975736
C132	C	1.667592	0.251353	1.309069
C133	C	0.997612	-0.419835	0.715386
C134	C	1.330946	-0.086502	1.048720
C135	C	1.664279	0.246832	1.382053
C136	C	0.945319	-0.491472	0.743885
C137	C	1.278652	-0.158139	1.077219
C138	C	1.611986	0.175194	1.410552
C139	C	0.896331	-0.558586	0.699397
C140	C	1.229664	-0.225252	1.032730
C141	C	1.562998	0.108081	1.366063
C142	C	0.899642	-0.554059	0.626415
C143	C	1.232975	-0.220726	0.959748
C144	C	1.566308	0.112608	1.293081
C145	C	0.929984	-0.512445	0.961301
C146	C	1.263318	-0.179112	1.294634
C147	C	1.596651	0.154221	1.627967
C148	C	0.926679	-0.516969	1.034288
C149	C	1.260012	-0.183636	1.367621
C150	C	1.593345	0.149697	1.700955
C151	C	1.027960	-0.378217	1.050273
C152	C	1.361293	-0.044883	1.383606
C153	C	1.694627	0.288450	1.716939
C154	C	1.031269	-0.373700	0.977288
C155	C	1.364602	-0.040367	1.310622
C156	C	1.697935	0.292966	1.643955
C157	C	0.982278	-0.440810	0.932807
C158	C	1.315612	-0.107477	1.266140
C159	C	1.648945	0.225857	1.599473
N160	N	0.941932	-0.496098	0.818486
N161	N	1.275266	-0.162764	1.151819
N162	N	1.608599	0.170569	1.485153
N163	N	0.985662	-0.436179	0.858208
N164	N	1.318996	-0.102846	1.191541
N165	N	1.652329	0.230488	1.524874
H166	H	0.239431	-0.335032	0.442140
H167	H	0.572765	-0.001699	0.775473
H168	H	0.906098	0.331635	1.108807
Cl169	Cl	0.860930	-0.607029	1.070114
Cl170	Cl	1.194263	-0.273695	1.403447
Cl171	Cl	1.527597	0.059638	1.736781
Cl172	Cl	0.872220	-0.922463	0.238653
Cl173	Cl	1.205553	-0.589130	0.571986
Cl174	Cl	1.538886	-0.255796	0.905320
Cl175	Cl	0.209045	-0.596295	0.234984
Cl176	Cl	0.542379	-0.262962	0.568318
Cl177	Cl	0.875712	0.070372	0.901651
Cl178	Cl	0.899162	-1.094370	0.267854
Cl179	Cl	1.232495	-0.761037	0.601188
Cl180	Cl	1.565829	-0.427703	0.934521
H181	H	1.067844	-0.323579	1.086497
H182	H	1.401177	0.009755	1.419831
H183	H	1.734511	0.343088	1.753164
H184	H	0.890102	-0.567105	0.925091
H185	H	1.223436	-0.233772	1.258424
H186	H	1.556769	0.099561	1.591757
H187	H	0.360666	-0.559384	0.264183
H188	H	0.693999	-0.226051	0.597517
H189	H	1.027333	0.107282	0.930850
Cl190	Cl	0.719087	-0.336343	0.441018
Cl191	Cl	1.052420	-0.003009	0.774352
Cl192	Cl	1.385754	0.330324	1.107685
Cl193	Cl	0.537086	-0.634450	0.204622
Cl194	Cl	0.870419	-0.301116	0.537955
Cl195	Cl	1.203752	0.032217	0.871288
H196	H	1.043511	-0.356982	0.619205
H197	H	1.376844	-0.023649	0.952538
H198	H	1.710177	0.309684	1.285872
Cl199	Cl	0.703508	-0.624961	0.212123
Cl200	Cl	1.036841	-0.291628	0.545456
Cl201	Cl	1.370174	0.041706	0.878790
Cl202	Cl	1.059221	-0.335508	0.771303
Cl203	Cl	1.392555	-0.002174	1.104636
Cl204	Cl	1.725888	0.331159	1.437969
Cl205	Cl	1.097012	-0.283639	0.941467
Cl206	Cl	1.430345	0.049694	1.274800
Cl207	Cl	1.763679	0.383028	1.608134
Cl208	Cl	1.028424	-0.837187	0.408232
Cl209	Cl	1.361758	-0.503853	0.741565
Cl210	Cl	1.695091	-0.170520	1.074899
Cl211	Cl	1.055385	-1.009101	0.437438
Cl212	Cl	1.388719	-0.675767	0.770772
Cl213	Cl	1.722052	-0.342434	1.104105
Cl214	Cl	0.830588	-0.648641	0.735224
Cl215	Cl	1.163921	-0.315308	1.068557
Cl216	Cl	1.497254	0.018026	1.401891
H217	H	0.567474	-0.373217	0.411794
H218	H	0.900808	-0.039884	0.745128
H219	H	1.234141	0.293450	1.078461
Cl220	Cl	0.391056	-0.298157	0.471364
Cl221	Cl	0.724390	0.035177	0.804697
Cl222	Cl	1.057723	0.368510	1.138031
Cl223	Cl	0.838059	-0.638427	0.570493
Cl224	Cl	1.171392	-0.305094	0.903826
Cl225	Cl	1.504725	0.028240	1.237160
