data_functionalizedCrystal
_audit_creation_method	'MofGen! by Chris Wilmer'
_symmetry_space_group_name_H-M	'P1'
_symmetry_Int_Tables_number	1
_symmetry_cell_setting	triclinic
loop_
_symmetry_equiv_pos_as_xyz
  x,y,z
_cell_length_a	14.185569
_cell_length_b	13.339070
_cell_length_c	13.339070
_cell_angle_alpha	64.370706
_cell_angle_beta	106.813458
_cell_angle_gamma	106.813070
loop_
_atom_site_label
_atom_site_type_symbol
_atom_site_fract_x
_atom_site_fract_y
_atom_site_fract_z
O1	O	0.083444	-1.478880	0.568438
O2	O	0.083439	-1.164071	0.496177
O3	O	0.083438	-1.285346	0.374902
O4	O	0.083445	-1.357605	0.689713
O5	O	-0.083397	-1.321174	0.339081
O6	O	-0.083396	-1.199899	0.460356
O7	O	-0.083391	-1.514707	0.532617
Cu8	Cu	-0.098627	-1.360574	0.493216
Cu9	Cu	0.098675	-1.318204	0.535578
O10	O	-0.083390	-1.393432	0.653892
C11	C	0.000021	-1.140870	0.466060
C12	C	0.000019	-1.018356	0.429676
C13	C	0.000022	-1.291054	0.315877
C14	C	0.000025	-1.254669	0.193363
N15	N	-0.237398	-1.390383	0.463423
C16	C	-0.605046	-1.200811	0.652850
C17	C	-0.710068	-1.223401	0.630291
C18	C	-0.710030	-1.330835	0.522966
C19	C	-0.605006	-1.308251	0.545511
C20	C	-0.552523	-1.243239	0.610455
C21	C	-0.552483	-1.350678	0.503116
C22	C	-0.447468	-1.328100	0.525665
C23	C	-0.394977	-1.263094	0.590608
C24	C	-0.447508	-1.220661	0.633003
C25	C	-0.604968	-1.415696	0.438180
C26	C	-0.552444	-1.458124	0.395785
C27	C	-0.447428	-1.435539	0.418326
C28	C	-0.394937	-1.370533	0.483270
C29	C	-0.394897	-1.477972	0.375931
C30	C	-0.289882	-1.455394	0.398479
C31	C	-0.289922	-1.347955	0.505818
N32	N	0.237446	-1.288402	0.565365
C33	C	0.000029	-1.537908	0.562734
C34	C	0.000037	-1.660420	0.599119
C35	C	0.000041	-0.732964	0.712580
C36	C	0.000046	-0.848072	0.746769
C37	C	0.000039	-0.890649	0.667498
C38	C	0.000028	-0.818106	0.554034
C39	C	0.000031	-0.702986	0.519844
C40	C	0.000029	-0.860670	0.474762
C41	C	0.000017	-0.788128	0.361297
C42	C	0.000020	-0.673019	0.327113
C43	C	0.000027	-0.630442	0.406383
C44	C	0.000026	-0.975791	0.508952
C45	C	0.000015	-0.945813	0.316216
C46	C	0.000010	-0.830705	0.282027
C47	C	0.000029	-1.537568	-0.092024
C48	C	0.000020	-1.571757	0.023083
C49	C	0.000021	-1.492488	0.065659
C50	C	0.000031	-1.379024	-0.006884
C51	C	0.000032	-1.344832	-0.122003
C52	C	0.000025	-1.299753	0.035679
C53	C	0.000035	-1.186289	-0.036863
C54	C	0.000037	-1.152103	-0.151971
C55	C	0.000035	-1.231372	-0.194547
C56	C	0.000024	-1.333944	0.150799
C57	C	0.000028	-1.141209	0.120819
C58	C	0.000037	-1.107020	0.005713
C59	C	0.000028	-1.387724	0.712918
C60	C	0.000031	-1.424107	0.835433
H61	H	-0.247188	-1.295006	0.558692
H62	H	0.000037	-1.059715	-0.211035
F63	F	-0.608310	-1.527316	0.326672
F64	F	0.000019	-0.507931	0.370001
F65	F	0.000063	-0.687639	0.796934
H66	H	0.000022	-0.613955	0.234725
F67	F	0.000026	-1.692505	0.100283
H68	H	0.000016	-1.426327	0.209853
H69	H	0.000014	-1.520332	0.159385
F70	F	-0.549187	-1.131605	0.721958
H71	H	0.000024	-1.076662	0.155482
F72	F	-0.283209	-1.239070	0.614611
H73	H	0.000045	-0.984375	0.695342
F74	F	0.000014	-0.991118	0.231845
F75	F	0.000062	-0.925267	0.867521
H76	H	0.000019	-1.602098	-0.126703
H77	H	0.000044	-1.014635	-0.053368
F78	F	0.000139	-1.194969	-0.317037
H79	H	-0.690478	-1.434081	0.419828
H80	H	-0.404774	-1.167712	0.685877
H81	H	-0.752774	-1.383772	0.470092
F82	F	-0.450765	-1.547173	0.306828
F83	F	-0.765961	-1.178238	0.675425
H84	H	-0.247117	-1.489945	0.363958
H85	H	0.000031	-1.034845	0.601335
H86	H	0.000010	-0.771623	0.189644
