data_functionalizedCrystal
_audit_creation_method	'MofGen! by Chris Wilmer'
_symmetry_space_group_name_H-M	'P1'
_symmetry_Int_Tables_number	1
_symmetry_cell_setting	triclinic
loop_
_symmetry_equiv_pos_as_xyz
  x,y,z
_cell_length_a	14.853567
_cell_length_b	14.853567
_cell_length_c	13.330367
_cell_angle_alpha	90.002061
_cell_angle_beta	89.996356
_cell_angle_gamma	96.365069
loop_
_atom_site_label
_atom_site_type_symbol
_atom_site_fract_x
_atom_site_fract_y
_atom_site_fract_z
O1	O	-0.117700	1.196366	0.083359
O2	O	0.382300	1.696366	0.583359
O3	O	-0.131721	0.933906	0.083377
O4	O	0.368279	1.433906	0.583377
O5	O	0.006519	1.072147	0.083356
O6	O	0.506519	1.572147	0.583356
O7	O	-0.255940	1.058125	0.083380
O8	O	0.244060	1.558125	0.583380
O9	O	0.006515	1.072133	-0.083492
O10	O	0.506515	1.572133	0.416508
O11	O	-0.131725	0.933892	-0.083470
O12	O	0.368275	1.433892	0.416530
O13	O	-0.117704	1.196352	-0.083488
O14	O	0.382296	1.696352	0.416512
Cu15	Cu	-0.124715	1.065121	-0.098714
Cu16	Cu	0.375285	1.565121	0.401286
Cu17	Cu	-0.124710	1.065137	0.098602
Cu18	Cu	0.375290	1.565137	0.598602
O19	O	-0.255945	1.058111	-0.083467
O20	O	0.244055	1.558111	0.416533
C21	C	-0.131088	0.900311	-0.000045
C22	C	0.368912	1.400311	0.499955
C23	C	-0.129184	0.800227	-0.000038
C24	C	0.370816	1.300227	0.499962
C25	C	-0.039019	0.387693	-0.000069
C26	C	0.460981	0.887693	0.499931
C27	C	-0.203251	0.366412	-0.000053
C28	C	0.296749	0.866412	0.499947
C29	C	-0.205042	0.460446	-0.000050
C30	C	0.294958	0.960446	0.499950
C31	C	-0.123819	0.518108	-0.000055
C32	C	0.376181	1.018108	0.499945
C33	C	-0.040806	0.481736	-0.000063
C34	C	0.459194	0.981736	0.499937
C35	C	-0.288053	0.496825	-0.000031
C36	C	0.211947	0.996825	0.499969
C37	C	-0.289846	0.590864	-0.000027
C38	C	0.210154	1.090864	0.499973
C39	C	-0.208623	0.648528	-0.000039
C40	C	0.291377	1.148528	0.499961
C41	C	-0.125607	0.612150	-0.000048
C42	C	0.374393	1.112150	0.499952
C43	C	-0.044384	0.669812	-0.000053
C44	C	0.455616	1.169812	0.499947
C45	C	0.038633	0.633437	-0.000070
C46	C	0.538633	1.133437	0.499930
C47	C	0.040417	0.539399	-0.000075
C48	C	0.540417	1.039399	0.499925
C49	C	-0.210407	0.742565	-0.000034
C50	C	0.289593	1.242565	0.499966
C51	C	-0.046172	0.763855	-0.000047
C52	C	0.453828	1.263855	0.499953
C53	C	-0.289531	1.058754	-0.000041
C54	C	0.210469	1.558754	0.499959
C55	C	-0.389615	1.060657	-0.000032
C56	C	0.110385	1.560657	0.499968
C57	C	-0.802149	1.150823	-0.000074
C58	C	-0.302149	1.650823	0.499926
C59	C	-0.823430	0.986590	-0.000062
C60	C	-0.323430	1.486590	0.499938
C61	C	-0.729396	0.984800	-0.000052
C62	C	-0.229396	1.484800	0.499948
C63	C	-0.671734	1.066023	-0.000055
C64	C	-0.171734	1.566023	0.499945
C65	C	-0.708106	1.149036	-0.000067
C66	C	-0.208106	1.649036	0.499933
C67	C	-0.693017	0.901789	-0.000050
C68	C	-0.193017	1.401789	0.499950
C69	C	-0.598978	0.899996	-0.000041
C70	C	-0.098978	1.399996	0.499959
C71	C	-0.541314	0.981219	-0.000037
C72	C	-0.041314	1.481219	0.499963
C73	C	-0.577691	1.064235	-0.000048
C74	C	-0.077691	1.564235	0.499952
C75	C	-0.520029	1.145458	-0.000051
C76	C	-0.020029	1.645458	0.499949
C77	C	-0.556405	1.228475	-0.000055
C78	C	-0.056405	1.728475	0.499945
C79	C	-0.650442	1.230259	-0.000063
C80	C	-0.150442	1.730259	0.499937
C81	C	-0.447277	0.979435	-0.000029
C82	C	0.052723	1.479435	0.499971
C83	C	-0.425987	1.143670	-0.000044
C84	C	0.074013	1.643670	0.499956
C85	C	0.040106	1.071504	-0.000069
C86	C	0.540106	1.571504	0.499931
C87	C	0.140189	1.069601	-0.000071
C88	C	0.640189	1.569601	0.499929
C89	C	-0.118337	1.229947	-0.000065
C90	C	0.381663	1.729947	0.499935
C91	C	-0.120241	1.330031	-0.000064
C92	C	0.379759	1.830031	0.499936
N93	N	-0.124718	1.065115	-0.237495
N94	N	0.375282	1.565115	0.262505
C95	C	-0.185912	1.003894	-0.290011
C96	C	0.314088	1.503894	0.209989
C97	C	-0.063520	1.126342	-0.290007
C98	C	0.436480	1.626342	0.209993
C99	C	-0.063517	1.126351	-0.395026
C100	C	0.436483	1.626351	0.104974
C101	C	-0.124711	1.065130	-0.447542
C102	C	0.375289	1.565130	0.052458
C103	C	-0.185909	1.003899	-0.395039
C104	C	0.314091	1.503899	0.104961
C105	C	-0.002314	1.187574	-0.447536
C106	C	0.497686	1.687574	0.052464
C107	C	-0.002307	1.187585	-0.552561
C108	C	0.497693	1.687585	-0.052561
C109	C	-0.063507	1.126368	-0.605079
C110	C	0.436493	1.626368	-0.105079
C111	C	-0.124707	1.065135	-0.552570
C112	C	0.375293	1.565135	-0.052570
C113	C	-0.185902	1.003914	-0.605086
C114	C	0.314098	1.503914	-0.105086
C115	C	-0.247108	0.942685	-0.552579
C116	C	0.252892	1.442685	-0.052579
C117	C	-0.247108	0.942682	-0.447557
C118	C	0.252892	1.442682	0.052443
C119	C	-0.063506	1.126371	-0.710100
C120	C	0.436494	1.626371	-0.210100
C121	C	-0.185898	1.003919	-0.710114
C122	C	0.314102	1.503919	-0.210114
N123	N	-0.124700	1.065150	0.237384
N124	N	0.375300	1.565150	0.737384
H125	H	0.019971	0.810798	-0.000055
H126	H	0.519971	1.310798	0.499945
Cl127	Cl	-0.353504	1.245785	-0.000040
Cl128	Cl	0.146496	1.745785	0.499960
Cl129	Cl	0.074619	1.264530	-0.381519
Cl130	Cl	0.574619	1.764530	0.118481
Cl131	Cl	0.013412	1.203297	-0.223990
Cl132	Cl	0.513412	1.703297	0.276010
H133	H	-0.870383	0.920463	-0.000066
H134	H	-0.370383	1.420463	0.499934
Cl135	Cl	-0.765508	0.799688	-0.000049
Cl136	Cl	-0.265508	1.299688	0.499951
H137	H	-0.235733	0.954068	-0.752866
H138	H	0.264267	1.454068	-0.252866
Cl139	Cl	0.074632	1.264559	-0.618563
Cl140	Cl	0.574632	1.764559	-0.118563
Cl141	Cl	-0.847875	1.255182	-0.000073
Cl142	Cl	-0.347875	1.755182	0.499927
Cl143	Cl	-0.401551	0.875080	-0.000034
Cl144	Cl	0.098449	1.375080	0.499966
Cl145	Cl	-0.483905	1.330579	-0.000070
Cl146	Cl	0.016095	1.830579	0.499930
H147	H	-0.569370	0.832398	-0.000035
H148	H	-0.069370	1.332398	0.499965
Cl149	Cl	-0.324029	0.865718	-0.618610
Cl150	Cl	0.175971	1.365718	-0.118610
Cl151	Cl	-0.696178	1.334613	-0.000072
Cl152	Cl	-0.196178	1.834613	0.499928
H153	H	-0.354180	0.449870	-0.000017
H154	H	0.145820	0.949870	0.499983
Cl155	Cl	-0.324043	0.865712	-0.381547
Cl156	Cl	0.175957	1.365712	0.118453
H157	H	-0.357443	0.620472	-0.000013
H158	H	0.142557	1.120472	0.499987
Cl159	Cl	-0.262857	0.926927	-0.224008
Cl160	Cl	0.237143	1.426927	0.275992
H161	H	-0.013669	1.176219	-0.752847
H162	H	0.486331	1.676219	-0.252847
H163	H	0.104764	0.680397	-0.000067
H164	H	0.604764	1.180397	0.499933
H165	H	0.028572	0.358072	-0.000087
H166	H	0.528572	0.858072	0.499913
Cl167	Cl	-0.314762	0.788291	-0.000005
Cl168	Cl	0.185238	1.288291	0.499995
H169	H	0.108005	0.509774	-0.000112
H170	H	0.608005	1.009774	0.499888
H171	H	-0.269379	0.319459	-0.000041
H172	H	0.230621	0.819459	0.499959
