data_functionalizedCrystal
_audit_creation_method	'MofGen! by Chris Wilmer'
_symmetry_space_group_name_H-M	'P1'
_symmetry_Int_Tables_number	1
_symmetry_cell_setting	triclinic
loop_
_symmetry_equiv_pos_as_xyz
  x,y,z
_cell_length_a	19.288864
_cell_length_b	11.792241
_cell_length_c	18.366186
_cell_angle_alpha	89.993644
_cell_angle_beta	89.977106
_cell_angle_gamma	83.664831
loop_
_atom_site_label
_atom_site_type_symbol
_atom_site_fract_x
_atom_site_fract_y
_atom_site_fract_z
O1	O	0.922157	0.141582	-0.060784
O2	O	0.720005	0.160681	-0.060734
O3	O	0.825987	-0.014113	-0.060755
O4	O	0.816175	0.316377	-0.060763
O5	O	0.825968	-0.014122	0.060345
O6	O	0.719987	0.160673	0.060365
O7	O	0.922139	0.141574	0.060316
Zn8	Zn	0.821060	0.151122	0.079568
Zn9	Zn	0.821084	0.151133	-0.079986
O10	O	0.816157	0.316368	0.060337
C11	C	0.694116	0.160063	-0.000178
C12	C	0.617002	0.158218	-0.000159
C13	C	0.572888	0.260779	-0.000173
C14	C	0.500431	0.259046	-0.000181
C15	C	0.472091	0.154746	-0.000189
C16	C	0.516215	0.052171	-0.000171
C17	C	0.588670	0.053907	-0.000156
C18	C	0.363370	0.072757	-0.042638
C19	C	0.290915	0.071025	-0.042658
C20	C	0.248615	0.149387	-0.000233
C21	C	0.278777	0.229500	0.042202
C22	C	0.351232	0.231236	0.042217
C23	C	0.393526	0.152852	-0.000205
C24	C	0.125935	0.250076	-0.000255
C25	C	0.053477	0.248339	-0.000258
C26	C	0.069262	0.041460	-0.000256
C27	C	0.141718	0.043201	-0.000246
C28	C	0.170050	0.147512	-0.000248
C29	C	0.825361	-0.056399	-0.000205
C30	C	0.823517	-0.182385	-0.000206
C31	C	0.820125	-0.413045	-0.000217
C32	C	0.822009	-0.284689	-0.000211
C33	C	0.948028	0.142192	-0.000242
C34	C	1.025142	0.144037	-0.000266
C35	C	0.816783	0.358654	-0.000214
C36	C	0.818627	0.484640	-0.000219
N37	N	0.821049	0.151113	0.188459
N38	N	0.821101	0.151133	-0.188877
C39	C	0.867993	0.073752	0.226550
C40	C	0.867997	0.073747	0.302778
C41	C	0.821064	0.151123	0.340912
C42	C	0.774111	0.228490	0.302811
C43	C	0.774103	0.228485	0.226585
C44	C	0.812353	0.254534	0.461671
C45	C	0.812366	0.254540	0.537896
C46	C	0.821084	0.151137	0.576019
C47	C	0.829804	0.047723	0.537908
C48	C	0.829796	0.047719	0.461682
C49	C	0.821067	0.151136	0.423566
C50	C	0.868036	0.073764	0.696765
C51	C	0.868035	0.073757	0.772994
C52	C	0.774152	0.228510	0.773026
C53	C	0.774149	0.228507	0.696799
C54	C	0.821095	0.151135	0.658673
H55	H	0.624588	-0.029614	-0.000145
H56	H	0.464507	0.342567	-0.000190
H57	H	0.046188	-0.043463	-0.000309
H58	H	0.805270	0.338745	0.568920
H59	H	0.906261	0.010755	0.804009
H60	H	0.595951	0.345717	-0.000176
H61	H	0.493136	-0.032752	-0.000188
H62	H	0.836903	-0.036477	0.568946
O63	O	0.723552	0.311999	0.814150
H64	H	0.690913	0.365806	0.774852
O65	O	0.723502	0.311962	0.343941
H66	H	0.690856	0.365760	0.304644
H67	H	0.177637	-0.040316	-0.000238
O68	O	0.839189	-0.063809	0.420573
H69	H	0.845246	-0.135717	0.459882
H70	H	0.266364	0.005797	-0.077214
O71	O	0.408988	-0.011779	-0.088395
H72	H	0.464438	0.002874	-0.081248
H73	H	0.906217	0.010749	0.195510
H74	H	0.735925	0.291506	0.665783
H75	H	0.375787	0.296463	0.076772
O76	O	0.802955	0.366068	0.420553
H77	H	0.796906	0.437976	0.459858
H78	H	0.735875	0.291483	0.195571
O79	O	0.918639	-0.009683	0.343877
H80	H	0.951285	-0.063477	0.304559
O81	O	0.918651	-0.009725	0.655650
H82	H	0.889191	-0.064754	0.620948
O83	O	0.233163	0.314019	0.087971
H84	H	0.196083	0.366726	0.052187
O85	O	0.156499	0.362578	-0.000241
H86	H	0.138830	0.411859	-0.049596
O87	O	0.005891	0.358963	-0.000271
H88	H	0.037768	0.431783	-0.000276
