data_functionalizedCrystal
_audit_creation_method	'MofGen! by Chris Wilmer'
_symmetry_space_group_name_H-M	'P1'
_symmetry_Int_Tables_number	1
_symmetry_cell_setting	triclinic
loop_
_symmetry_equiv_pos_as_xyz
  x,y,z
_cell_length_a	14.044191
_cell_length_b	14.044190
_cell_length_c	13.596369
_cell_angle_alpha	89.989293
_cell_angle_beta	89.997249
_cell_angle_gamma	93.191777
loop_
_atom_site_label
_atom_site_type_symbol
_atom_site_fract_x
_atom_site_fract_y
_atom_site_fract_z
O1	O	1.277179	0.230202	-0.081764
O2	O	1.610513	0.563536	0.251569
O3	O	1.943846	0.896869	0.584902
O4	O	1.000507	0.221890	-0.081776
O5	O	1.333840	0.555223	0.251557
O6	O	1.667173	0.888556	0.584891
O7	O	1.134687	0.087710	-0.081751
O8	O	1.468020	0.421043	0.251582
O9	O	1.801353	0.754376	0.584916
O10	O	1.142999	0.364382	-0.081789
O11	O	1.476333	0.697716	0.251544
O12	O	1.809666	1.031049	0.584877
O13	O	1.134671	0.087701	0.081832
O14	O	1.468005	0.421034	0.415165
O15	O	1.801338	0.754367	0.748499
O16	O	1.000492	0.221881	0.081807
O17	O	1.333825	0.555214	0.415140
O18	O	1.667158	0.888547	0.748474
O19	O	1.277164	0.230193	0.081819
O20	O	1.610498	0.563527	0.415152
O21	O	1.943831	0.896860	0.748485
Zn22	Zn	1.138825	0.226036	0.107785
Zn23	Zn	1.472159	0.559369	0.441118
Zn24	Zn	1.805492	0.892702	0.774452
Zn25	Zn	1.138846	0.226047	-0.107742
Zn26	Zn	1.472179	0.559381	0.225591
Zn27	Zn	1.805512	0.892714	0.558924
O28	O	1.142984	0.364373	0.081794
O29	O	1.476318	0.697707	0.415127
O30	O	1.809651	1.031040	0.748460
C31	C	0.964877	0.218249	0.000014
C32	C	1.298210	0.551582	0.333348
C33	C	1.631544	0.884915	0.666681
C34	C	0.858734	0.207401	0.000011
C35	C	1.192067	0.540735	0.333344
C36	C	1.525400	0.874068	0.666677
C37	C	1.131043	0.052083	0.000043
C38	C	1.464376	0.385416	0.333377
C39	C	1.797709	0.718750	0.666710
C40	C	1.120195	-0.054060	0.000051
C41	C	1.453529	0.279273	0.333385
C42	C	1.786862	0.612606	0.666718
C43	C	0.613277	0.264502	0.000013
C44	C	0.946610	0.597835	0.333346
C45	C	1.279943	0.931169	0.666679
C46	C	0.664400	0.187585	0.000022
C47	C	0.997734	0.520919	0.333355
C48	C	1.331067	0.854252	0.666688
C49	C	0.772537	0.198614	0.000015
C50	C	1.105871	0.531947	0.333349
C51	C	1.439204	0.865280	0.666682
C52	C	0.505130	0.253475	0.000019
C53	C	0.838463	0.586809	0.333352
C54	C	1.171796	0.920142	0.666685
C55	C	1.177296	-0.299517	0.000015
C56	C	1.510629	0.033816	0.333349
C57	C	1.843963	0.367149	0.666682
C58	C	1.100379	-0.248394	0.000019
C59	C	1.433713	0.084940	0.333352
C60	C	1.767046	0.418273	0.666685
C61	C	1.111408	-0.140257	0.000037
C62	C	1.444741	0.193077	0.333370
C63	C	1.778074	0.526410	0.666704
C64	C	1.166269	-0.407664	-0.000003
C65	C	1.499602	-0.074331	0.333330
C66	C	1.832936	0.259002	0.666664
C67	C	1.312794	0.233834	0.000026
C68	C	1.646127	0.567168	0.333360
C69	C	1.979461	0.900501	0.666693
C70	C	1.418937	0.244682	0.000023
C71	C	1.752271	0.578015	0.333357
C72	C	2.085604	0.911348	0.666690
C73	C	1.146628	0.400000	-0.000003
C74	C	1.479962	0.733333	0.333331
C75	C	1.813295	1.066667	0.666664
C76	C	1.157476	0.506143	-0.000017
C77	C	1.490809	0.839477	0.333316
C78	C	1.824142	1.172810	0.666649
N79	N	1.138819	0.226028	0.254877
N80	N	1.472152	0.559361	0.588210
N81	N	1.805485	0.892694	0.921544
N82	N	1.138859	0.226049	-0.254834
N83	N	1.472193	0.559382	0.078499
N84	N	1.805526	0.892715	0.411832
C85	C	1.138844	0.226048	0.656168
C86	C	1.472178	0.559382	0.989501
C87	C	1.805511	0.892715	1.322835
C88	C	1.138835	0.226046	0.544517
C89	C	1.472168	0.559379	0.877850
C90	C	1.805501	0.892712	1.211183
C91	C	1.138832	0.226039	0.455526
C92	C	1.472165	0.559372	0.788859
C93	C	1.805499	0.892705	1.122193
C94	C	1.138821	0.226034	0.343867
C95	C	1.472155	0.559368	0.677201
C96	C	1.805488	0.892701	1.010534
H97	H	0.626955	0.113453	-0.000037
H98	H	0.960288	0.446786	0.333296
H99	H	1.293622	0.780119	0.666629
H100	H	1.026247	-0.285839	0.000010
H101	H	1.359580	0.047494	0.333343
H102	H	1.692913	0.380828	0.666677
F103	F	1.274187	-0.250577	0.000031
F104	F	1.607520	0.082757	0.333364
F105	F	1.940853	0.416090	0.666698
H106	H	0.650720	0.338629	-0.000001
H107	H	0.984053	0.671962	0.333333
H108	H	1.317386	1.005295	0.666666
