data_functionalizedCrystal
_audit_creation_method	'MofGen! by Chris Wilmer'
_symmetry_space_group_name_H-M	'P1'
_symmetry_Int_Tables_number	1
_symmetry_cell_setting	triclinic
loop_
_symmetry_equiv_pos_as_xyz
  x,y,z
_cell_length_a	19.288864
_cell_length_b	15.944551
_cell_length_c	17.766277
_cell_angle_alpha	89.992686
_cell_angle_beta	89.976791
_cell_angle_gamma	83.317492
loop_
_atom_site_label
_atom_site_type_symbol
_atom_site_fract_x
_atom_site_fract_y
_atom_site_fract_z
O1	O	0.921629	0.104784	-0.062837
O2	O	0.719406	0.118919	-0.062786
O3	O	0.826040	-0.010445	-0.062806
O4	O	0.814995	0.234147	-0.062817
O5	O	0.826021	-0.010451	0.062382
O6	O	0.719387	0.118912	0.062403
O7	O	0.921610	0.104777	0.062351
Cu8	Cu	0.820497	0.111844	0.073808
Cu9	Cu	0.820519	0.111852	-0.074242
O10	O	0.814976	0.234141	0.062372
C11	C	0.693519	0.118461	-0.000185
C12	C	0.616411	0.117095	-0.000165
C13	C	0.571915	0.193000	-0.000181
C14	C	0.499465	0.191717	-0.000189
C15	C	0.471514	0.114526	-0.000197
C16	C	0.516020	0.038611	-0.000178
C17	C	0.588469	0.039896	-0.000162
C18	C	0.363099	0.053847	-0.044079
C19	C	0.290651	0.052565	-0.044099
C20	C	0.248058	0.110560	-0.000242
C21	C	0.277920	0.169850	0.043625
C22	C	0.350369	0.171135	0.043641
C23	C	0.392956	0.113124	-0.000214
C24	C	0.125002	0.185079	-0.000265
C25	C	0.052550	0.183793	-0.000269
C26	C	0.069107	0.030684	-0.000265
C27	C	0.141557	0.031972	-0.000254
C28	C	0.169500	0.109172	-0.000258
C29	C	0.825572	-0.041740	-0.000212
C30	C	0.824197	-0.134981	-0.000211
C31	C	0.754815	-0.349571	-0.000204
C32	C	0.787024	-0.410715	0.061514
C33	C	0.821710	-0.305697	-0.000216
C34	C	0.787059	-0.410692	-0.061912
C35	C	0.819303	-0.470601	-0.000224
C36	C	0.853938	-0.365614	0.061552
C37	C	0.853963	-0.365585	-0.061929
C38	C	0.886222	-0.426712	-0.000197
C39	C	0.823095	-0.210700	-0.000211
C40	C	0.817924	-0.565597	-0.000224
C41	C	0.947497	0.105235	-0.000251
C42	C	1.024605	0.106600	-0.000276
C43	C	0.815444	0.265436	-0.000225
C44	C	0.816819	0.358677	-0.000230
N45	N	0.820486	0.111838	0.177938
N46	N	0.820535	0.111851	-0.178373
C47	C	0.867719	0.054584	0.217316
C48	C	0.867723	0.054580	0.296118
C49	C	0.820501	0.111845	0.335539
C50	C	0.773259	0.169103	0.296151
C51	C	0.773252	0.169100	0.217351
C52	C	0.811404	0.188378	0.460375
C53	C	0.811416	0.188382	0.539173
C54	C	0.820520	0.111855	0.578585
C55	C	0.829626	0.035319	0.539188
C56	C	0.829618	0.035316	0.460387
C57	C	0.820503	0.111854	0.420984
C58	C	0.867759	0.054592	0.703409
C59	C	0.867759	0.054587	0.782212
C60	C	0.773298	0.169117	0.782244
C61	C	0.773295	0.169115	0.703442
C62	C	0.820530	0.111853	0.664029
H63	H	0.266342	0.004291	-0.079822
H64	H	0.906179	0.007956	0.185228
H65	H	0.941797	-0.460084	-0.000176
H66	H	0.837039	-0.026997	0.571275
H67	H	0.882241	-0.345560	-0.114123
O68	O	0.749583	-0.437154	-0.131028
H69	H	0.695059	-0.405941	-0.130879
O70	O	0.918676	-0.007166	0.338605
H71	H	0.951523	-0.046979	0.297960
O72	O	0.485880	-0.044649	-0.000187
H73	H	0.428025	-0.032791	-0.000208
O74	O	0.839427	-0.047224	0.417891
H75	H	0.845753	-0.100443	0.458529
H76	H	0.397773	0.006619	-0.079797
H77	H	0.624699	-0.021917	-0.000150
H78	H	0.594661	0.255862	-0.000185
O79	O	0.681269	-0.305155	-0.000109
H80	H	0.653658	-0.323100	0.051216
O81	O	0.918692	-0.007175	0.660890
H82	H	0.951530	-0.047001	0.701514
O83	O	0.918712	-0.007160	0.824690
H84	H	0.951560	-0.046967	0.784042
H85	H	0.758722	-0.430717	0.113705
H86	H	0.016321	0.245606	-0.000277
H87	H	0.734846	0.215740	0.814340
O88	O	0.722359	0.230878	0.660962
H89	H	0.689527	0.270703	0.701610
H90	H	0.243242	0.217075	0.079338
O91	O	0.189557	-0.049896	-0.000244
H92	H	0.157952	-0.103790	-0.000256
H93	H	0.804006	0.250702	0.571244
H94	H	0.882201	-0.345735	0.113786
H95	H	0.734788	0.215724	0.185289
H96	H	0.803978	0.250700	0.428292
O97	O	0.382570	0.235058	0.090984
H98	H	0.361657	0.299733	0.072949
O99	O	0.722331	0.230881	0.338659
H100	H	0.688578	0.195637	0.374595
O101	O	0.451458	0.273588	-0.000213
H102	H	0.483060	0.327484	-0.000218
H103	H	0.147754	0.247939	-0.000257
H104	H	0.046351	-0.032167	-0.000319
