data_functionalizedCrystal
_audit_creation_method	'MofGen! by Chris Wilmer'
_symmetry_space_group_name_H-M	'P1'
_symmetry_Int_Tables_number	1
_symmetry_cell_setting	triclinic
loop_
_symmetry_equiv_pos_as_xyz
  x,y,z
_cell_length_a	12.759395
_cell_length_b	12.759394
_cell_length_c	12.759387
_cell_angle_alpha	90.031660
_cell_angle_beta	90.020674
_cell_angle_gamma	90.012314
loop_
_atom_site_label
_atom_site_type_symbol
_atom_site_fract_x
_atom_site_fract_y
_atom_site_fract_z
Zn1	Zn	-1.606268	0.418282	-0.594003
Zn2	Zn	-1.606158	0.593999	-0.418321
Zn3	Zn	-1.430566	0.418327	-0.418340
Zn4	Zn	-1.430558	0.593912	-0.593960
O5	O	-1.518387	0.506130	-0.506156
O6	O	-1.753274	0.441609	-0.570709
O7	O	-1.582823	0.570751	-0.271302
O8	O	-1.453922	0.271300	-0.441668
O9	O	-1.753194	0.570707	-0.441636
O10	O	-1.583010	0.271267	-0.570727
O11	O	-1.453816	0.441685	-0.271316
O12	O	-1.283544	0.441601	-0.441626
O13	O	-1.453909	0.570559	-0.740987
O14	O	-1.283538	0.570602	-0.570653
O15	O	-1.583002	0.441524	-0.741019
O16	O	-1.582815	0.741008	-0.441594
O17	O	-1.453802	0.740944	-0.570635
C18	C	-1.245420	0.506098	-0.506137
C19	C	-1.128643	0.506109	-0.506154
C20	C	-1.128708	0.371896	-0.640775
C21	C	-1.073879	0.304800	-0.708093
C22	C	-0.964158	0.304814	-0.708103
C23	C	-0.909262	0.371929	-0.640787
C24	C	-0.964091	0.439025	-0.573469
C25	C	-1.073815	0.439006	-0.573468
C26	C	-0.964026	0.573232	-0.438845
C27	C	-1.073747	0.573224	-0.438838
C28	C	-0.909130	0.640347	-0.371528
C29	C	-0.963959	0.707450	-0.304214
C30	C	-1.073687	0.707434	-0.304207
C31	C	-1.128576	0.640320	-0.371520
C32	C	-1.518324	0.779097	-0.506131
C33	C	-1.518393	0.895874	-0.506155
C34	C	-1.518467	0.506027	-0.780190
C35	C	-1.518500	0.505983	-0.896966
C36	C	-0.792421	0.506152	-0.506170
C37	C	-0.909197	0.506136	-0.506162
C38	C	-1.518479	0.232096	-0.506205
C39	C	-1.518518	0.115320	-0.506225
C40	C	-1.652835	0.895887	-0.371885
C41	C	-1.720083	0.950755	-0.304763
C42	C	-1.720145	1.060476	-0.304791
C43	C	-1.652953	1.115333	-0.371952
C44	C	-1.585705	1.060465	-0.439074
C45	C	-1.585648	0.950741	-0.439036
C46	C	-1.451270	1.060452	-0.573348
C47	C	-1.451202	0.950731	-0.573315
C48	C	-1.384079	1.115309	-0.640508
C49	C	-1.316823	1.060441	-0.707627
C50	C	-1.316764	0.950713	-0.707595
C51	C	-1.383954	0.895863	-0.640438
C52	C	-1.652934	0.371628	-0.897020
C53	C	-1.720166	0.304435	-0.951907
C54	C	-1.720192	0.304397	-1.061629
C55	C	-1.652976	0.371557	-1.116465
C56	C	-1.585744	0.438750	-1.061578
C57	C	-1.585728	0.438783	-0.951854
C58	C	-1.451307	0.573098	-1.061525
C59	C	-1.451285	0.573143	-0.951803
C60	C	-1.384091	0.640257	-1.116362
C61	C	-1.316863	0.707457	-1.061474
C62	C	-1.316841	0.707494	-0.951746
C63	C	-1.384053	0.640336	-0.896916
C64	C	-1.518369	0.506157	-0.233189
C65	C	-1.518538	0.505904	-0.116412
H66	H	-0.819921	0.371926	-0.640793
H67	H	-1.652930	0.371662	-0.807678
Br68	Br	-1.148384	0.213716	-0.799443
H69	H	-1.262136	0.762128	-1.106131
Br70	Br	-0.889743	0.213746	-0.799453
H71	H	-1.774890	0.249753	-0.907247
Br72	Br	-1.384036	0.640387	-0.748007
H73	H	-1.118322	0.762068	-0.249385
H74	H	-0.919254	0.762085	-0.249406
H75	H	-1.262082	0.762199	-0.907063
H76	H	-1.653018	1.204674	-0.371978
Br77	Br	-0.760221	0.640360	-0.371534
Br78	Br	-1.277485	0.640300	-0.371522
H79	H	-1.218049	0.371873	-0.640768
H80	H	-1.652778	0.806546	-0.371842
Br81	Br	-1.811276	0.876303	-0.213629
H82	H	-1.384138	1.204650	-0.640531
H83	H	-1.262126	1.105114	-0.762308
Br84	Br	-1.811418	1.134944	-0.213705
H85	H	-1.262006	0.906046	-0.762258
H86	H	-1.383905	0.806522	-0.640398
H87	H	-1.774931	0.249676	-1.106318
Br88	Br	-1.652999	0.371491	-1.265375
H89	H	-1.384113	0.640217	-1.205703
