data_functionalizedCrystal
_audit_creation_method	'MofGen! by Chris Wilmer'
_symmetry_space_group_name_H-M	'P1'
_symmetry_Int_Tables_number	1
_symmetry_cell_setting	triclinic
loop_
_symmetry_equiv_pos_as_xyz
  x,y,z
_cell_length_a	19.077105
_cell_length_b	19.121063
_cell_length_c	19.076919
_cell_angle_alpha	85.393653
_cell_angle_beta	89.923776
_cell_angle_gamma	90.263052
loop_
_atom_site_label
_atom_site_type_symbol
_atom_site_fract_x
_atom_site_fract_y
_atom_site_fract_z
Zn1	Zn	1.043169	-0.339734	0.454309
Zn2	Zn	1.376503	-0.006401	0.787643
Zn3	Zn	1.709836	0.326933	1.120976
Zn4	Zn	1.042790	-0.452646	0.341419
Zn5	Zn	1.376124	-0.119312	0.674753
Zn6	Zn	1.709457	0.214021	1.008086
Zn7	Zn	0.930805	-0.330327	0.331718
Zn8	Zn	1.264139	0.003007	0.665051
Zn9	Zn	1.597472	0.336340	0.998385
Zn10	Zn	0.920631	-0.452222	0.454155
Zn11	Zn	1.253964	-0.118889	0.787488
Zn12	Zn	1.587297	0.214445	1.120821
O13	O	0.984349	-0.393732	0.395400
O14	O	1.317682	-0.060399	0.728734
O15	O	1.651015	0.272935	1.062067
O16	O	1.141268	-0.358826	0.443459
O17	O	1.474601	-0.025493	0.776792
O18	O	1.807934	0.307840	1.110126
O19	O	1.032035	-0.432660	0.241647
O20	O	1.365368	-0.099327	0.574981
O21	O	1.698701	0.234007	0.908314
O22	O	0.950127	-0.233307	0.343985
O23	O	1.283460	0.100026	0.677318
O24	O	1.616794	0.433360	1.010651
O25	O	1.140989	-0.441782	0.360519
O26	O	1.474323	-0.108449	0.693853
O27	O	1.807656	0.224885	1.027186
O28	O	1.032681	-0.240219	0.434052
O29	O	1.366014	0.093115	0.767385
O30	O	1.699347	0.426448	1.100719
O31	O	0.949760	-0.342793	0.234520
O32	O	1.283093	-0.009459	0.567853
O33	O	1.616426	0.323874	0.901187
O34	O	0.831307	-0.342382	0.343835
O35	O	1.164640	-0.009049	0.677168
O36	O	1.497973	0.324285	1.010501
O37	O	0.932786	-0.441060	0.552660
O38	O	1.266120	-0.107727	0.885993
O39	O	1.599453	0.225607	1.219327
O40	O	0.823831	-0.431938	0.433788
O41	O	1.157165	-0.098605	0.767122
O42	O	1.490498	0.234729	1.100455
O43	O	1.022815	-0.358416	0.552774
O44	O	1.356148	-0.025082	0.886107
O45	O	1.689481	0.308251	1.219440
O46	O	1.022169	-0.550857	0.360369
O47	O	1.355502	-0.217524	0.693703
O48	O	1.688836	0.115810	1.027036
O49	O	0.932419	-0.550546	0.443195
O50	O	1.265752	-0.217212	0.776529
O51	O	1.599085	0.116121	1.109862
C52	C	0.802120	-0.386094	0.387742
C53	C	1.135453	-0.052760	0.721076
C54	C	1.468787	0.280573	1.054409
C55	C	0.724160	-0.382844	0.384484
C56	C	1.057494	-0.049510	0.717817
C57	C	1.390827	0.283823	1.051150
C58	C	0.683661	-0.428009	0.429719
C59	C	1.016995	-0.094676	0.763052
C60	C	1.350328	0.238658	1.096386
C61	C	0.610410	-0.424946	0.426660
C62	C	0.943743	-0.091613	0.759993
C63	C	1.277077	0.241721	1.093327
C64	C	0.577659	-0.376721	0.378362
C65	C	0.910993	-0.043387	0.711695
C66	C	1.244326	0.289946	1.045029
C67	C	0.618164	-0.331551	0.333125
C68	C	0.951497	0.001783	0.666458
C69	C	1.284831	0.335116	0.999792
C70	C	0.691414	-0.334611	0.336188
C71	C	1.024747	-0.001277	0.669521
C72	C	1.358081	0.332056	1.002854
C73	C	0.359002	-0.362559	0.364190
C74	C	0.692335	-0.029225	0.697524
C75	C	1.025668	0.304108	1.030857
C76	C	0.285746	-0.359503	0.361130
C77	C	0.619080	-0.026170	0.694463
C78	C	0.952413	0.307163	1.027796
C79	C	0.277998	-0.452898	0.454666
C80	C	0.611331	-0.119565	0.787999
C81	C	0.944664	0.213769	1.121333
C82	C	0.351249	-0.455957	0.457722
C83	C	0.684582	-0.122623	0.791055
C84	C	1.017916	0.210710	1.124388
C85	C	0.391747	-0.410784	0.412487
C86	C	0.725081	-0.077451	0.745820
C87	C	1.058414	0.255882	1.079154
N88	N	0.502785	-0.373590	0.375233
N89	N	0.836118	-0.040257	0.708566
N90	N	1.169452	0.293076	1.041899
N91	N	0.466620	-0.413912	0.415620
N92	N	0.799954	-0.080578	0.748954
N93	N	1.133287	0.252755	1.082287
C94	C	0.976167	-0.576182	0.402834
C95	C	1.309500	-0.242849	0.736168
C96	C	1.642834	0.090484	1.069501
C97	C	0.972730	-0.654239	0.406041
C98	C	1.306063	-0.320906	0.739374
C99	C	1.639397	0.012428	1.072708
C100	C	1.017877	-0.691052	0.364463
C101	C	1.351210	-0.357718	0.697796
C102	C	1.684543	-0.024385	1.031130
C103	C	1.014648	-0.764395	0.367483
C104	C	1.347981	-0.431061	0.700816
C105	C	1.681315	-0.097728	1.034150
C106	C	0.966269	-0.800923	0.412078
C107	C	1.299602	-0.467590	0.745411
C108	C	1.632936	-0.134256	1.078745
C109	C	0.921120	-0.764105	0.453660
C110	C	1.254454	-0.430772	0.786994
C111	C	1.587787	-0.097439	1.120327
C112	C	0.924353	-0.690764	0.450644
C113	C	1.257686	-0.357431	0.783977
C114	C	1.591020	-0.024097	1.117310
C115	C	0.954173	-1.022359	0.423346
C116	C	1.287506	-0.689026	0.756679
C117	C	1.620840	-0.355693	1.090012
C118	C	0.950942	-1.095705	0.426358
C119	C	1.284276	-0.762372	0.759691
C120	C	1.617609	-0.429039	1.093025
C121	C	1.044471	-1.095990	0.340181
C122	C	1.377805	-0.762656	0.673514
C123	C	1.711138	-0.429323	1.006848
C124	C	1.047697	-1.022647	0.337165
C125	C	1.381030	-0.689314	0.670498
C126	C	1.714363	-0.355980	1.003832
C127	C	1.002551	-0.985836	0.378750
C128	C	1.335884	-0.652502	0.712084
C129	C	1.669217	-0.319169	1.045417
C130	C	0.962966	-0.875891	0.415164
C131	C	1.296300	-0.542558	0.748498
C132	C	1.629633	-0.209224	1.081831
C133	C	1.005857	-0.910869	0.375667
C134	C	1.339191	-0.577536	0.709000
C135	C	1.672524	-0.244203	1.042334
C136	C	1.167289	-0.401401	0.403088
C137	C	1.500622	-0.068067	0.736422
C138	C	1.833956	0.265266	1.069755
C139	C	1.245247	-0.404669	0.406365
C140	C	1.578581	-0.071335	0.739698
C141	C	1.911914	0.261998	1.073031
C142	C	0.976708	-0.400740	0.578967
C143	C	1.310041	-0.067407	0.912300
C144	C	1.643375	0.265927	1.245634
C145	C	0.973452	-0.403726	0.657192
C146	C	1.306785	-0.070393	0.990526
C147	C	1.640118	0.262940	1.323859
C148	C	0.992581	-0.210571	0.387953
C149	C	1.325914	0.122763	0.721287
C150	C	1.659248	0.456096	1.054620
C151	C	0.996089	-0.132518	0.384780
C152	C	1.329422	0.200815	0.718113
C153	C	1.662756	0.534149	1.051447
C154	C	0.992003	-0.386702	0.212547
C155	C	1.325336	-0.053369	0.545881
C156	C	1.658669	0.279964	0.879214
C157	C	0.995403	-0.383524	0.134320
C158	C	1.328737	-0.050191	0.467653
C159	C	1.662070	0.283143	0.800987
C160	C	1.018793	-0.362103	0.694003
C161	C	1.352126	-0.028769	1.027336
C162	C	1.685459	0.304564	1.360670
C163	C	1.015725	-0.364906	0.767503
C164	C	1.349058	-0.031572	1.100837
C165	C	1.682391	0.301761	1.434170
C166	C	0.967319	-0.409336	0.804192
C167	C	1.300652	-0.076003	1.137525
C168	C	1.633986	0.257330	1.470859
C169	C	0.921973	-0.450962	0.767376
C170	C	1.255306	-0.117628	1.100709
C171	C	1.588640	0.215705	1.434043
C172	C	0.925038	-0.448154	0.693877
C173	C	1.258371	-0.114821	1.027210
C174	C	1.591705	0.218512	1.360543
C175	C	0.953123	-0.422342	1.024005
C176	C	1.286456	-0.089009	1.357338
C177	C	1.619789	0.244325	1.690672
C178	C	0.950063	-0.425148	1.097510
C179	C	1.283396	-0.091814	1.430843
C180	C	1.616729	0.241519	1.764176
C181	C	1.043814	-0.339090	1.097632
C182	C	1.377147	-0.005757	1.430965
C183	C	1.710480	0.327576	1.764298
C184	C	1.046877	-0.336290	1.024131
C185	C	1.380211	-0.002957	1.357464
C186	C	1.713544	0.330376	1.690798
C187	C	1.001529	-0.377913	0.987321
C188	C	1.334862	-0.044579	1.320655
C189	C	1.668196	0.288754	1.653988
N190	N	0.964183	-0.412204	0.879321
N191	N	1.297517	-0.078871	1.212655
N192	N	1.630850	0.254463	1.545988
N193	N	1.004662	-0.375041	0.912193
N194	N	1.337995	-0.041707	1.245526
N195	N	1.671328	0.291626	1.578860
H196	H	0.259084	-0.320225	0.321804
H197	H	0.592417	0.013109	0.655137
H198	H	0.925750	0.346442	0.988470
O199	O	0.881072	-0.488698	0.658152
O200	O	1.214405	-0.155365	0.991485
O201	O	1.547739	0.177968	1.324818
C202	C	0.892500	-0.560013	0.679614
C203	C	1.225833	-0.226680	1.012947
C204	C	1.559167	0.106653	1.346280
H205	H	0.947527	-0.566674	0.702328
H206	H	1.280861	-0.233340	1.035662
H207	H	1.614194	0.099993	1.368995
H208	H	0.886925	-0.592606	0.632432
H209	H	1.220258	-0.259273	0.965765
H210	H	1.553591	0.074060	1.299098
H211	H	0.852289	-0.578428	0.721435
H212	H	1.185623	-0.245095	1.054768
H213	H	1.518956	0.088239	1.388101
O214	O	0.398369	-0.318616	0.320347
O215	O	0.731702	0.014717	0.653681
O216	O	1.065036	0.348050	0.987014
C217	C	0.441118	-0.276636	0.360416
C218	C	0.774452	0.056697	0.693749
C219	C	1.107785	0.390031	1.027082
H220	H	0.416937	-0.273577	0.414756
H221	H	0.750271	0.059757	0.748089
H222	H	1.083604	0.393090	1.081423
H223	H	0.445424	-0.221621	0.332879
H224	H	0.778757	0.111712	0.666212
H225	H	1.112090	0.445045	0.999546
H226	H	0.495561	-0.300762	0.366012
H227	H	0.828894	0.032572	0.699345
H228	H	1.162228	0.365905	1.032679
H229	H	0.724388	-0.297829	0.299356
H230	H	1.057721	0.035504	0.632689
H231	H	1.391054	0.368838	0.966023
O232	O	0.586240	-0.284763	0.286232
O233	O	0.919573	0.048570	0.619566
O234	O	1.252907	0.381903	0.952899
C235	C	0.512903	-0.291734	0.293240
C236	C	0.846237	0.041600	0.626573
C237	C	1.179570	0.374933	0.959906
H238	H	0.499517	-0.346423	0.317987
H239	H	0.832850	-0.013090	0.651320
H240	H	1.166183	0.320243	0.984653
H241	H	0.487464	-0.283708	0.239170
H242	H	0.820798	0.049626	0.572503
H243	H	1.154131	0.382959	0.905837
H244	H	0.492426	-0.250707	0.328227
H245	H	0.825760	0.082626	0.661560
H246	H	1.159093	0.415959	0.994894
O247	O	1.088302	-1.131859	0.299867
O248	O	1.421635	-0.798526	0.633200
O249	O	1.754969	-0.465193	0.966534
C250	C	1.075069	-1.204424	0.312079
C251	C	1.408402	-0.871091	0.645412
C252	C	1.741735	-0.537758	0.978746
H253	H	1.049345	-1.215546	0.365814
H254	H	1.382678	-0.882213	0.699147
H255	H	1.716011	-0.548879	1.032481
H256	H	1.126582	-1.234271	0.310710
H257	H	1.459915	-0.900938	0.644044
H258	H	1.793249	-0.567605	0.977377
H259	H	1.038580	-1.222134	0.269589
H260	H	1.371913	-0.888801	0.602922
H261	H	1.705247	-0.555467	0.936255
O262	O	0.715360	-0.474876	0.476699
O263	O	1.048693	-0.141542	0.810033
O264	O	1.382026	0.191791	1.143366
C265	C	0.663903	-0.514093	0.515958
C266	C	0.997236	-0.180759	0.849291
C267	C	1.330569	0.152574	1.182624
H268	H	0.612874	-0.483246	0.515084
H269	H	0.946207	-0.149913	0.848418
H270	H	1.279541	0.183421	1.181751
H271	H	0.682430	-0.524669	0.572590
H272	H	1.015763	-0.191336	0.905924
H273	H	1.349096	0.141998	1.239257
H274	H	0.654795	-0.566074	0.491945
H275	H	0.988128	-0.232741	0.825278
H276	H	1.321462	0.100593	1.158612
O277	O	0.874218	-0.799670	0.497022
O278	O	1.207551	-0.466337	0.830355
O279	O	1.540884	-0.133004	1.163689
C280	C	0.910352	-0.845437	0.545939
C281	C	1.243686	-0.512103	0.879273
C282	C	1.577019	-0.178770	1.212606
H283	H	0.964074	-0.857670	0.523846
H284	H	1.297407	-0.524337	0.857179
H285	H	1.630740	-0.191003	1.190513
H286	H	0.879110	-0.896193	0.556267
H287	H	1.212443	-0.562859	0.889600
H288	H	1.545776	-0.229526	1.222933
H289	H	0.917092	-0.819456	0.597260
H290	H	1.250425	-0.486123	0.930593
H291	H	1.583759	-0.152790	1.263927
O292	O	1.065836	-0.318881	0.658474
O293	O	1.399169	0.014452	0.991807
O294	O	1.732503	0.347786	1.325140
C295	C	1.105207	-0.282757	0.706730
C296	C	1.438541	0.050577	1.040063
C297	C	1.771874	0.383910	1.373396
H298	H	1.074403	-0.281123	0.757814
H299	H	1.407736	0.052210	1.091147
H300	H	1.741069	0.385543	1.424480
H301	H	1.116061	-0.226931	0.683561
H302	H	1.449394	0.106402	1.016894
H303	H	1.782728	0.439736	1.350228
H304	H	1.156994	-0.311003	0.717835
H305	H	1.490327	0.022330	1.051168
H306	H	1.823661	0.355664	1.384501
O307	O	0.880428	-0.655109	0.491059
O308	O	1.213761	-0.321775	0.824392
O309	O	1.547094	0.011558	1.157725
C310	C	0.837046	-0.703076	0.531081
C311	C	1.170380	-0.369742	0.864414
C312	C	1.503713	-0.036409	1.197748
H313	H	0.833530	-0.754167	0.504300
H314	H	1.166863	-0.420834	0.837633
H315	H	1.500196	-0.087501	1.170966
H316	H	0.782403	-0.679896	0.535359
H317	H	1.115736	-0.346563	0.868692
H318	H	1.449069	-0.013230	1.202026
H319	H	0.860126	-0.713950	0.585946
H320	H	1.193460	-0.380617	0.919279
H321	H	1.526793	-0.047283	1.252613
H322	H	0.911554	-1.125446	0.462685
H323	H	1.244888	-0.792112	0.796018
H324	H	1.578221	-0.458779	1.129352
H325	H	0.910642	-0.461330	1.127379
H326	H	1.243976	-0.127997	1.460713
H327	H	1.577309	0.205337	1.794046
H328	H	0.577438	-0.461725	0.463495
H329	H	0.910772	-0.128391	0.796828
H330	H	1.244105	0.204942	1.130161
H331	H	1.086296	-0.300112	0.994264
H332	H	1.419630	0.033221	1.327598
H333	H	1.752963	0.366555	1.660931
H334	H	1.045250	-0.881126	0.339361
H335	H	1.378583	-0.547793	0.672694
H336	H	1.711917	-0.214459	1.006027
O337	O	0.238689	-0.496868	0.498543
O338	O	0.572023	-0.163535	0.831876
O339	O	0.905356	0.169799	1.165209
C340	C	0.254107	-0.566991	0.486666
C341	C	0.587441	-0.233658	0.819999
C342	C	0.920774	0.099675	1.153332
H343	H	0.276411	-0.569151	0.431417
H344	H	0.609744	-0.235817	0.764750
H345	H	0.943078	0.097516	1.098084
H346	H	0.204132	-0.599911	0.492081
H347	H	0.537466	-0.266578	0.825415
H348	H	0.870799	0.066755	1.158748
H349	H	0.294244	-0.588616	0.526894
H350	H	0.627577	-0.255282	0.860227
H351	H	0.960910	0.078051	1.193560
O352	O	1.064933	-0.655681	0.321126
O353	O	1.398267	-0.322348	0.654459
O354	O	1.731600	0.010985	0.987792
C355	C	1.104076	-0.703904	0.285063
C356	C	1.437409	-0.370570	0.618397
C357	C	1.770743	-0.037237	0.951730
H358	H	1.102978	-0.757369	0.316145
H359	H	1.436312	-0.424036	0.649478
H360	H	1.769645	-0.090703	0.982812
H361	H	1.160589	-0.684699	0.279048
H362	H	1.493923	-0.351366	0.612381
H363	H	1.827256	-0.018032	0.945715
H364	H	1.080313	-0.708636	0.230838
H365	H	1.413647	-0.375302	0.564171
H366	H	1.746980	-0.041969	0.897505
H367	H	1.052648	-0.331013	0.797471
H368	H	1.385981	0.002320	1.130805
H369	H	1.719314	0.335654	1.464138
H370	H	0.917412	-0.992393	0.457205
H371	H	1.250745	-0.659060	0.790538
H372	H	1.584079	-0.325726	1.123871
O373	O	0.383025	-0.502730	0.504739
O374	O	0.716358	-0.169396	0.838072
O375	O	1.049692	0.163937	1.171405
C376	C	0.362887	-0.489434	0.573537
C377	C	0.696220	-0.156101	0.906870
C378	C	1.029554	0.177233	1.240204
H379	H	0.345116	-0.432637	0.574055
H380	H	0.678450	-0.099304	0.907388
H381	H	1.011783	0.234030	1.240722
H382	H	0.409344	-0.498879	0.610562
H383	H	0.742677	-0.165546	0.943895
H384	H	1.076011	0.167787	1.277228
H385	H	0.317918	-0.526034	0.591627
H386	H	0.651252	-0.192700	0.924960
H387	H	0.984585	0.140633	1.258294
H388	H	0.923575	-0.905641	0.451472
H389	H	1.256908	-0.572307	0.784805
H390	H	1.590241	-0.238974	1.118139
H391	H	1.080733	-0.305203	1.127610
H392	H	1.414066	0.028131	1.460943
H393	H	1.747399	0.361464	1.794277
H394	H	0.916207	-0.456245	0.994044
H395	H	1.249540	-0.122911	1.327377
H396	H	1.582874	0.210422	1.660711
H397	H	1.051411	-0.794364	0.333625
H398	H	1.384744	-0.461031	0.666959
H399	H	1.718077	-0.127698	1.000292
H400	H	0.882558	-0.487135	0.797254
H401	H	1.215891	-0.153802	1.130587
H402	H	1.549224	0.179531	1.463920
O403	O	1.094761	-0.987276	0.293837
O404	O	1.428094	-0.653943	0.627170
O405	O	1.761427	-0.320610	0.960503
C406	C	1.133907	-1.035495	0.257774
C407	C	1.467241	-0.702162	0.591108
C408	C	1.800574	-0.368829	0.924441
H409	H	1.132806	-1.088964	0.288851
H410	H	1.466139	-0.755630	0.622184
H411	H	1.799472	-0.422297	0.955518
H412	H	1.190422	-1.016291	0.251767
H413	H	1.523755	-0.682958	0.585101
H414	H	1.857088	-0.349625	0.918434
H415	H	1.110151	-1.040222	0.203545
H416	H	1.443485	-0.706889	0.536878
H417	H	1.776818	-0.373555	0.870212
