data_functionalizedCrystal
_audit_creation_method	'MofGen! by Chris Wilmer'
_symmetry_space_group_name_H-M	'P1'
_symmetry_Int_Tables_number	1
_symmetry_cell_setting	triclinic
loop_
_symmetry_equiv_pos_as_xyz
  x,y,z
_cell_length_a	19.188925
_cell_length_b	17.666332
_cell_length_c	19.188930
_cell_angle_alpha	89.988397
_cell_angle_beta	96.856335
_cell_angle_gamma	90.010303
loop_
_atom_site_label
_atom_site_type_symbol
_atom_site_fract_x
_atom_site_fract_y
_atom_site_fract_z
O1	O	0.926152	0.062973	-0.087151
O2	O	1.259485	0.396306	0.246183
O3	O	1.592819	0.729640	0.579516
O4	O	0.722840	0.062972	-0.098889
O5	O	1.056173	0.396305	0.234444
O6	O	1.389507	0.729639	0.567778
O7	O	0.830363	0.062958	0.008636
O8	O	1.163697	0.396291	0.341969
O9	O	1.497030	0.729625	0.675303
O10	O	0.818629	0.062987	-0.194676
O11	O	1.151962	0.396321	0.138658
O12	O	1.485296	0.729654	0.471991
O13	O	0.830344	-0.062939	0.008642
O14	O	1.163678	0.270394	0.341975
O15	O	1.497011	0.603728	0.675308
O16	O	0.722821	-0.062925	-0.098883
O17	O	1.056155	0.270409	0.234450
O18	O	1.389488	0.603742	0.567783
O19	O	0.926133	-0.062924	-0.087145
O20	O	1.259467	0.270410	0.246188
O21	O	1.592800	0.603743	0.579522
Cu22	Cu	0.824476	-0.074419	-0.093014
Cu23	Cu	1.157809	0.258914	0.240320
Cu24	Cu	1.491142	0.592247	0.573653
Cu25	Cu	0.824498	0.074468	-0.093020
Cu26	Cu	1.157831	0.407801	0.240313
Cu27	Cu	1.491164	0.741135	0.573646
O28	O	0.818610	-0.062909	-0.194670
O29	O	1.151943	0.270424	0.138663
O30	O	1.485277	0.603757	0.471997
C31	C	0.696820	0.000023	-0.098507
C32	C	1.030153	0.333357	0.234827
C33	C	1.363486	0.666690	0.568160
C34	C	0.619315	0.000022	-0.097367
C35	C	0.952648	0.333356	0.235966
C36	C	1.285982	0.666689	0.569299
C37	C	0.057545	0.000032	-0.152831
C38	C	0.390878	0.333366	0.180502
C39	C	0.724211	0.666699	0.513835
C40	C	0.130368	0.000037	-0.153908
C41	C	0.463701	0.333370	0.179425
C42	C	0.797035	0.666703	0.512759
C43	C	0.175302	0.000026	-0.090816
C44	C	0.508636	0.333359	0.242518
C45	C	0.841969	0.666693	0.575851
C46	C	0.147408	0.000031	-0.026642
C47	C	0.480742	0.333364	0.306691
C48	C	0.814075	0.666697	0.640024
C49	C	0.074586	0.000034	-0.025568
C50	C	0.407920	0.333367	0.307766
C51	C	0.741253	0.666701	0.641099
N52	N	0.295973	-0.042837	-0.045138
N53	N	0.629306	0.290497	0.288196
N54	N	0.962640	0.623830	0.621529
N55	N	0.365150	-0.042842	-0.046163
N56	N	0.698484	0.290492	0.287170
N57	N	1.031817	0.623825	0.620504
C58	C	0.394712	0.000018	-0.094050
C59	C	0.728045	0.333351	0.239284
C60	C	1.061378	0.666684	0.572617
N61	N	0.352481	0.042872	-0.140883
N62	N	0.685814	0.376205	0.192450
N63	N	1.019147	0.709539	0.525783
N64	N	0.283297	0.042874	-0.139860
N65	N	0.616630	0.376207	0.193473
N66	N	0.949963	0.709540	0.526806
C67	C	0.254267	0.000023	-0.091974
C68	C	0.587600	0.333356	0.241359
C69	C	0.920933	0.666690	0.574693
C70	C	0.501561	0.000023	-0.159386
C71	C	0.834894	0.333356	0.173947
C72	C	1.168227	0.666689	0.507280
C73	C	0.574385	0.000032	-0.160460
C74	C	0.907719	0.333365	0.172873
C75	C	1.241052	0.666698	0.506206
C76	C	0.591425	0.000018	-0.033193
C77	C	0.924758	0.333352	0.300141
C78	C	1.258091	0.666685	0.633474
C79	C	0.518601	0.000017	-0.032121
C80	C	0.851934	0.333350	0.301213
C81	C	1.185268	0.666684	0.634546
C82	C	0.473673	0.000016	-0.095220
C83	C	0.807006	0.333349	0.238114
C84	C	1.140340	0.666682	0.571447
N85	N	0.824465	-0.179139	-0.093008
N86	N	1.157798	0.154194	0.240325
N87	N	1.491132	0.487528	0.573658
C88	C	0.872092	-0.218755	-0.045420
C89	C	1.205425	0.114578	0.287914
C90	C	1.538758	0.447912	0.621247
C91	C	0.872096	-0.298003	-0.045416
C92	C	1.205429	0.035331	0.287917
C93	C	1.538762	0.368664	0.621250
C94	C	0.824480	-0.337631	-0.093014
C95	C	1.157813	-0.004298	0.240320
C96	C	1.491146	0.329036	0.573653
C97	C	0.776844	-0.298005	-0.140606
C98	C	1.110178	0.035328	0.192727
C99	C	1.443511	0.368661	0.526061
C100	C	0.776837	-0.218759	-0.140604
C101	C	1.110170	0.114574	0.192730
C102	C	1.443504	0.447907	0.526063
N103	N	0.815404	-0.462041	-0.154821
N104	N	1.148737	-0.128707	0.178512
N105	N	1.482070	0.204626	0.511845
N106	N	0.815415	-0.537321	-0.154821
N107	N	1.148748	-0.203988	0.178512
N108	N	1.482081	0.129345	0.511845
C109	C	0.824498	-0.576395	-0.093023
C110	C	1.157831	-0.243062	0.240310
C111	C	1.491165	0.090272	0.573643
N112	N	0.833584	-0.537345	-0.031223
N113	N	1.166917	-0.204011	0.302110
N114	N	1.500250	0.129322	0.635444
N115	N	0.833576	-0.462057	-0.031223
N116	N	1.166909	-0.128724	0.302110
N117	N	1.500243	0.204609	0.635443
C118	C	0.824482	-0.423560	-0.093022
C119	C	1.157816	-0.090227	0.240312
C120	C	1.491149	0.243106	0.573645
C121	C	0.872132	-0.701940	-0.045427
C122	C	1.205465	-0.368607	0.287906
C123	C	1.538798	-0.035274	0.621240
C124	C	0.872131	-0.781190	-0.045423
C125	C	1.205464	-0.447856	0.287911
C126	C	1.538798	-0.114523	0.621244
C127	C	0.776883	-0.781191	-0.140619
C128	C	1.110216	-0.447858	0.192715
C129	C	1.443550	-0.114524	0.526048
C130	C	0.776880	-0.701943	-0.140617
C131	C	1.110214	-0.368610	0.192716
C132	C	1.443547	-0.035277	0.526050
C133	C	0.824509	-0.662323	-0.093022
C134	C	1.157842	-0.328990	0.240311
C135	C	1.491175	0.004344	0.573645
C136	C	0.952154	0.000027	-0.087527
C137	C	1.285487	0.333360	0.245806
C138	C	1.618820	0.666693	0.579139
C139	C	1.029658	0.000033	-0.088666
C140	C	1.362992	0.333366	0.244667
C141	C	1.696325	0.666699	0.578000
C142	C	0.829974	0.000007	0.034650
C143	C	1.163307	0.333341	0.367983
C144	C	1.496640	0.666674	0.701317
C145	C	0.828833	0.000001	0.112154
C146	C	1.162166	0.333334	0.445488
C147	C	1.495500	0.666667	0.778821
N148	N	0.824514	0.179187	-0.093020
N149	N	1.157847	0.512521	0.240313
N150	N	1.491181	0.845854	0.573647
C151	C	0.819000	0.000043	-0.220684
C152	C	1.152333	0.333376	0.112650
C153	C	1.485666	0.666710	0.445983
C154	C	0.820140	0.000054	-0.298188
C155	C	1.153474	0.333388	0.035145
C156	C	1.486807	0.666721	0.368478
C157	C	0.891924	-0.000003	0.157079
C158	C	1.225257	0.333331	0.490413
C159	C	1.558591	0.666664	0.823746
C160	C	0.890852	0.000010	0.229903
C161	C	1.224186	0.333343	0.563237
C162	C	1.557519	0.666676	0.896570
C163	C	0.826686	0.000010	0.257799
C164	C	1.160020	0.333343	0.591132
C165	C	1.493353	0.666677	0.924465
C166	C	0.763587	0.000017	0.212864
C167	C	1.096920	0.333351	0.546197
C168	C	1.430254	0.666684	0.879530
C169	C	0.764660	0.000013	0.140041
C170	C	1.097994	0.333346	0.473375
C171	C	1.431327	0.666680	0.806708
N172	N	0.777632	-0.042835	0.365805
N173	N	1.110966	0.290498	0.699138
N174	N	1.444299	0.623831	1.032471
N175	N	0.776617	-0.042833	0.434983
N176	N	1.109950	0.290501	0.768316
N177	N	1.443284	0.623834	1.101650
C178	C	0.823448	0.000025	0.477207
C179	C	1.156781	0.333358	0.810541
C180	C	1.490115	0.666692	1.143874
N181	N	0.871344	0.042871	0.447641
N182	N	1.204677	0.376204	0.780974
N183	N	1.538010	0.709537	1.114307
N184	N	0.872361	0.042865	0.378456
N185	N	1.205695	0.376198	0.711789
N186	N	1.539028	0.709531	1.045123
C187	C	0.825515	0.000015	0.336761
C188	C	1.158848	0.333349	0.670094
C189	C	1.492182	0.666682	1.003428
C190	C	0.885381	0.000036	0.601097
C191	C	1.218715	0.333369	0.934430
C192	C	1.552048	0.666703	1.267763
C193	C	0.884307	0.000053	0.673922
C194	C	1.217640	0.333386	1.007255
C195	C	1.550974	0.666719	1.340588
C196	C	0.757040	0.000053	0.656880
C197	C	1.090373	0.333386	0.990214
C198	C	1.423706	0.666720	1.323547
C199	C	0.758116	0.000044	0.584057
C200	C	1.091449	0.333377	0.917390
C201	C	1.424783	0.666711	1.250724
C202	C	0.822289	0.000032	0.556170
C203	C	1.155622	0.333365	0.889503
C204	C	1.488955	0.666698	1.222837
H205	H	0.628010	0.000016	0.018178
H206	H	0.961343	0.333349	0.351511
H207	H	1.294676	0.666682	0.684845
Cl208	Cl	0.972598	0.000004	0.122025
Cl209	Cl	1.305932	0.333337	0.455359
Cl210	Cl	1.639265	0.666670	0.788692
H211	H	0.711342	0.000019	0.235581
H212	H	1.044676	0.333353	0.568914
H213	H	1.378009	0.666686	0.902247
H214	H	0.910880	-0.330264	-0.006662
H215	H	1.244213	0.003069	0.326671
H216	H	1.577547	0.336403	0.660005
Cl217	Cl	0.609442	0.000039	-0.241132
Cl218	Cl	0.942776	0.333373	0.092201
Cl219	Cl	1.276109	0.666706	0.425534
H220	H	0.495896	0.000013	0.020129
H221	H	0.829230	0.333346	0.353463
H222	H	1.162563	0.666679	0.686796
H223	H	0.738074	-0.330275	-0.179360
H224	H	1.071407	0.003058	0.153974
H225	H	1.404740	0.336392	0.487307
Cl226	Cl	0.932003	-0.652131	0.014410
Cl227	Cl	1.265336	-0.318797	0.347743
Cl228	Cl	1.598670	0.014536	0.681077
H229	H	0.910871	-0.186498	-0.006663
H230	H	1.244205	0.146835	0.326670
H231	H	1.577538	0.480168	0.660003
H232	H	0.935686	0.000054	0.710500
H233	H	1.269019	0.333388	1.043833
H234	H	1.602352	0.666721	1.377166
Cl235	Cl	0.717018	-0.831004	-0.200450
Cl236	Cl	1.050351	-0.497671	0.132883
Cl237	Cl	1.383684	-0.164337	0.466216
Cl238	Cl	0.716960	-0.168953	-0.200435
Cl239	Cl	1.050293	0.164380	0.132898
Cl240	Cl	1.383626	0.497714	0.466232
H241	H	0.910912	-0.813446	-0.006666
H242	H	1.244245	-0.480112	0.326667
H243	H	1.577579	-0.146779	0.660000
H244	H	0.051883	0.000035	0.026685
H245	H	0.385216	0.333368	0.360018
H246	H	0.718549	0.666701	0.693351
H247	H	0.738101	-0.669686	-0.179371
H248	H	1.071434	-0.336352	0.153962
H249	H	1.404768	-0.003019	0.487296
H250	H	0.942230	0.000010	0.266488
H251	H	1.275564	0.333343	0.599822
H252	H	1.608897	0.666677	0.933155
H253	H	0.713282	0.000015	0.103462
H254	H	1.046616	0.333349	0.436796
H255	H	1.379949	0.666682	0.770129
H256	H	0.937635	0.000030	0.578390
H257	H	1.270968	0.333363	0.911723
H258	H	1.604301	0.666696	1.245057
H259	H	0.020968	0.000035	-0.204211
H260	H	0.354302	0.333368	0.129122
H261	H	0.687635	0.666702	0.462455
H262	H	0.704794	0.000057	0.679592
H263	H	1.038128	0.333390	1.012925
H264	H	1.371461	0.666724	1.346258
Cl265	Cl	0.678797	0.000045	0.527576
Cl266	Cl	1.012130	0.333378	0.860910
Cl267	Cl	1.345463	0.666711	1.194243
H268	H	0.153078	0.000029	-0.206160
H269	H	0.486411	0.333362	0.127173
H270	H	0.819744	0.666696	0.460506
H271	H	0.183999	0.000024	0.024728
H272	H	0.517332	0.333358	0.358061
H273	H	0.850665	0.666691	0.691394
H274	H	0.464978	0.000023	-0.210765
H275	H	0.798312	0.333356	0.122568
H276	H	1.131645	0.666690	0.455902
