data_functionalizedCrystal
_audit_creation_method	'MofGen! by Chris Wilmer'
_symmetry_space_group_name_H-M	'P1'
_symmetry_Int_Tables_number	1
_symmetry_cell_setting	triclinic
loop_
_symmetry_equiv_pos_as_xyz
  x,y,z
_cell_length_a	30.700809
_cell_length_b	30.711276
_cell_length_c	30.700862
_cell_angle_alpha	59.998386
_cell_angle_beta	89.999414
_cell_angle_gamma	60.000191
loop_
_atom_site_label
_atom_site_type_symbol
_atom_site_fract_x
_atom_site_fract_y
_atom_site_fract_z
O1	O	-0.371254	-0.311651	0.012944
O2	O	-0.307913	-0.222487	-0.012907
O3	O	-0.307911	-0.311650	0.076286
O4	O	-0.371257	-0.222488	-0.076249
O5	O	-0.235466	-0.384070	0.076286
O6	O	-0.235468	-0.294907	-0.012907
O7	O	-0.298809	-0.384071	0.012944
Cu8	Cu	-0.260524	-0.346102	0.000018
Cu9	Cu	-0.346199	-0.260456	0.000019
O10	O	-0.298812	-0.294908	-0.076249
C11	C	-0.234796	-0.137097	-0.018777
C12	C	-0.261674	-0.083360	-0.015076
C13	C	-0.182374	-0.163176	-0.019143
C14	C	-0.234798	-0.215942	-0.018783
C15	C	-0.261678	-0.246507	-0.015089
C16	C	-0.182376	-0.241901	-0.019150
C17	C	-0.155920	-0.215947	-0.018777
C18	C	-0.098463	-0.246515	-0.015075
C19	C	-0.261132	-0.163172	-0.019150
C20	C	-0.574961	-0.535511	0.039265
C21	C	-0.548506	-0.588283	0.039634
C22	C	-0.496086	-0.535509	0.039262
C23	C	-0.469751	-0.588281	0.039632
C24	C	-0.496085	-0.614360	0.039265
C25	C	-0.548507	-0.509552	0.039632
C26	C	-0.765169	-0.393516	0.024987
C27	C	-0.819034	-0.364488	0.020950
C28	C	-0.846055	-0.389406	0.018925
C29	C	-0.904462	-0.357927	0.014538
C30	C	-0.819206	-0.443357	0.020941
C31	C	-0.765344	-0.472385	0.024984
C32	C	-0.738325	-0.447463	0.027007
C33	C	-0.447920	-0.790230	0.024988
C34	C	-0.423094	-0.840041	0.020951
C35	C	-0.371150	-0.865027	0.018921
C36	C	-0.344230	-0.919028	0.014536
C37	C	-0.344030	-0.840201	0.020935
C38	C	-0.368852	-0.790399	0.024981
C39	C	-0.420803	-0.765414	0.027004
C40	C	-0.447922	-0.393510	0.024977
C41	C	-0.423099	-0.364475	0.020931
C42	C	-0.371152	-0.389391	0.018903
C43	C	-0.344235	-0.357911	0.014513
C44	C	-0.344034	-0.443338	0.020916
C45	C	-0.368860	-0.472368	0.024960
C46	C	-0.420804	-0.447452	0.026995
C47	C	-0.679920	-0.478941	0.031387
C48	C	-0.633366	-0.504032	0.034880
C49	C	-0.469171	-0.504029	0.034875
C50	C	-0.447717	-0.478936	0.031380
C51	C	-0.469170	-0.668361	0.034880
C52	C	-0.447716	-0.711408	0.031386
C53	C	-0.496432	-0.071057	-0.503890
C54	C	-0.548853	-0.018285	-0.530226
C55	C	-0.496432	-0.071056	-0.425015
C56	C	-0.548854	-0.018284	-0.451470
C57	C	-0.575308	0.007793	-0.503892
C58	C	-0.470097	-0.097014	-0.451469
C59	C	-0.368666	-0.213054	-0.552051
C60	C	-0.343664	-0.242084	-0.576877
C61	C	-0.370616	-0.217167	-0.628824
C62	C	-0.343513	-0.248647	-0.655741
C63	C	-0.422570	-0.163216	-0.655945
C64	C	-0.447565	-0.134187	-0.631122
C65	C	-0.420611	-0.159108	-0.579173
C66	C	-0.765518	0.183662	-0.631659
C67	C	-0.819384	0.233473	-0.656662
C68	C	-0.846408	0.258459	-0.629712
C69	C	-0.904813	0.312461	-0.656813
C70	C	-0.819559	0.233635	-0.577758
C71	C	-0.765694	0.183833	-0.552761
C72	C	-0.738677	0.158847	-0.579717
C73	C	-0.368668	-0.213052	-0.234803
C74	C	-0.343669	-0.242086	-0.180935
C75	C	-0.370621	-0.217169	-0.153914
C76	C	-0.343519	-0.248648	-0.095506
C77	C	-0.422573	-0.163222	-0.180762
C78	C	-0.447570	-0.134193	-0.234627
C79	C	-0.420610	-0.159111	-0.261646
C80	C	-0.447720	-0.127629	-0.552258
C81	C	-0.469327	-0.102536	-0.530805
C82	C	-0.469328	-0.102535	-0.366609
C83	C	-0.447721	-0.127627	-0.320054
C84	C	-0.633714	0.061794	-0.530997
C85	C	-0.680269	0.104841	-0.552605
O86	O	0.076277	-0.384081	0.012960
O87	O	-0.076257	-0.294916	-0.012894
O88	O	0.012931	-0.384083	0.076300
O89	O	-0.012910	-0.294914	-0.076234
O90	O	0.012933	-0.311666	0.076306
O91	O	-0.076254	-0.222499	-0.012888
O92	O	0.076280	-0.311664	0.012966
Cu93	Cu	0.000013	-0.260469	0.000040
Cu94	Cu	0.000010	-0.346111	0.000033
O95	O	-0.012908	-0.222497	-0.076228
O96	O	-0.298805	0.063292	0.012964
O97	O	-0.235462	-0.063346	-0.012888
O98	O	-0.235465	-0.063353	0.076305
O99	O	-0.298803	0.063300	-0.076229
O100	O	-0.307912	-0.063350	0.076299
O101	O	-0.307909	-0.063342	-0.012895
O102	O	-0.371252	0.063295	0.012958
Cu103	Cu	-0.346196	-0.000023	0.000031
Cu104	Cu	-0.260519	-0.000027	0.000039
O105	O	-0.371250	0.063303	-0.076236
O106	O	-1.076607	0.456783	-0.692421
O107	O	-0.924074	0.330140	-0.629074
O108	O	-1.013262	0.330138	-0.629073
O109	O	-0.987418	0.456785	-0.692422
O110	O	-1.013261	0.330136	-0.701518
O111	O	-0.924072	0.330138	-0.701518
O112	O	-1.076605	0.456781	-0.764865
Cu113	Cu	-1.000338	0.393460	-0.739807
Cu114	Cu	-1.000340	0.393461	-0.654133
O115	O	-0.987417	0.456783	-0.764866
O116	O	-0.307911	-0.311650	-0.764507
O117	O	-0.371254	-0.222491	-0.701165
O118	O	-0.371252	-0.311652	-0.701162
O119	O	-0.307912	-0.222489	-0.764510
O120	O	-0.298806	-0.384074	-0.628716
O121	O	-0.298807	-0.294912	-0.628719
O122	O	-0.235464	-0.384072	-0.692061
Cu123	Cu	-0.260521	-0.346105	-0.653775
Cu124	Cu	-0.346197	-0.260458	-0.739451
O125	O	-0.235466	-0.294910	-0.692064
C126	C	-0.155920	-0.469469	0.234827
C127	C	-0.098464	-0.523208	0.261706
C128	C	-0.182375	-0.443392	0.261162
C129	C	-0.234797	-0.390619	0.155950
C130	C	-0.261676	-0.360052	0.098494
C131	C	-0.261132	-0.364662	0.182405
C132	C	-0.234797	-0.390620	0.234826
C133	C	-0.261675	-0.360052	0.261704
C134	C	-0.182375	-0.443391	0.182406
C135	C	0.018810	-0.390643	0.234846
C136	C	0.015111	-0.360079	0.261727
C137	C	0.019176	-0.443414	0.261179
C138	C	0.018812	-0.390637	0.155967
C139	C	0.015115	-0.360067	0.098511
C140	C	0.019178	-0.443408	0.182420
C141	C	0.018807	-0.469488	0.234841
C142	C	0.015106	-0.523226	0.261717
C143	C	0.019180	-0.364683	0.182425
C144	C	-0.234799	-0.215977	0.234834
C145	C	-0.261678	-0.246545	0.261708
C146	C	-0.182376	-0.241940	0.261172
C147	C	-0.234798	-0.137119	0.155964
C148	C	-0.261676	-0.083372	0.098509
C149	C	-0.182375	-0.163202	0.182421
C150	C	-0.155921	-0.215981	0.234841
C151	C	-0.098464	-0.246554	0.261721
C152	C	-0.261134	-0.163198	0.182415
C153	C	-0.039199	0.007461	-0.503869
C154	C	-0.039568	-0.018614	-0.530207
C155	C	-0.039203	-0.071390	-0.424995
C156	C	-0.039572	-0.097344	-0.451452
C157	C	-0.039201	-0.071385	-0.503874
C158	C	-0.039570	-0.018618	-0.451448
C159	C	-0.024912	0.183325	-0.552025
C160	C	-0.020873	0.233135	-0.576849
C161	C	-0.018844	0.258123	-0.628796
C162	C	-0.014454	0.312124	-0.655711
C163	C	-0.020859	0.233301	-0.655918
C164	C	-0.024906	0.183500	-0.631097
C165	C	-0.026932	0.158512	-0.579148
C166	C	-0.024920	-0.133799	-0.631644
C167	C	-0.020882	-0.162650	-0.656647
C168	C	-0.018855	-0.216605	-0.629699
C169	C	-0.014470	-0.247897	-0.656801
C170	C	-0.020872	-0.241704	-0.577746
C171	C	-0.024919	-0.212847	-0.552747
C172	C	-0.026939	-0.158893	-0.579702
C173	C	-0.024929	-0.133823	-0.234783
C174	C	-0.020887	-0.162684	-0.180915
C175	C	-0.018862	-0.216639	-0.153896
C176	C	-0.014477	-0.247936	-0.095488
C177	C	-0.020875	-0.241733	-0.180745
C178	C	-0.024915	-0.212872	-0.234610
C179	C	-0.026947	-0.158912	-0.261627
C180	C	-0.031316	0.104507	-0.552235
C181	C	-0.034811	0.061462	-0.530782
C182	C	-0.034820	-0.102682	-0.366590
C183	C	-0.031328	-0.127624	-0.320035
C184	C	-0.034816	-0.102672	-0.530980
C185	C	-0.031322	-0.127610	-0.552588
O186	O	-0.012940	-0.294936	0.371303
O187	O	0.012923	-0.384099	0.307961
O188	O	-0.076273	-0.294935	0.307950
O189	O	0.076257	-0.384100	0.371315
O190	O	-0.076265	-0.222515	0.235508
O191	O	0.012932	-0.311679	0.235520
O192	O	-0.012931	-0.222517	0.298862
Cu193	Cu	0.000001	-0.260485	0.260576
Cu194	Cu	-0.000009	-0.346130	0.346247
O195	O	0.076266	-0.311681	0.298873
C196	C	-0.574962	0.464558	-0.503864
C197	C	-0.548506	0.490518	-0.530195
C198	C	-0.496085	0.385697	-0.424987
C199	C	-0.469749	0.411776	-0.451438
C200	C	-0.496084	0.464555	-0.503857
C201	C	-0.548507	0.411779	-0.451444
C202	C	-0.765173	0.526994	-0.552039
C203	C	-0.819039	0.555852	-0.576867
C204	C	-0.846061	0.609814	-0.628812
C205	C	-0.904469	0.641114	-0.655732
C206	C	-0.819211	0.634913	-0.655928
C207	C	-0.765348	0.606050	-0.631102
C208	C	-0.738329	0.552088	-0.579155
C209	C	-0.447916	0.606561	-0.631604
C210	C	-0.423088	0.635592	-0.656601
C211	C	-0.371143	0.610674	-0.629648
C212	C	-0.344222	0.642150	-0.656742
C213	C	-0.344023	0.556716	-0.577696
C214	C	-0.368845	0.527681	-0.552704
C215	C	-0.420798	0.552613	-0.579664
C216	C	-0.447920	0.209802	-0.234786
C217	C	-0.423096	0.159988	-0.180919
C218	C	-0.371148	0.134996	-0.153895
C219	C	-0.344230	0.080987	-0.095489
C220	C	-0.344029	0.159823	-0.180737
C221	C	-0.368856	0.209637	-0.234602
C222	C	-0.420801	0.234620	-0.261624
C223	C	-0.679923	0.520797	-0.552238
C224	C	-0.633367	0.495853	-0.530781
C225	C	-0.469169	0.331687	-0.366583
C226	C	-0.447714	0.288634	-0.320030
C227	C	-0.469167	0.496035	-0.530956
C228	C	-0.447712	0.521128	-0.552558
H229	H	-0.569747	-0.610106	0.040228
H230	H	-0.161139	-0.284365	-0.019743
H231	H	0.019779	-0.465234	0.161179
O232	O	-0.026874	-0.081395	-0.657745
C233	C	-0.033143	-0.001883	-0.654214
C234	C	-0.030921	-0.061233	-0.624593
H235	H	-0.036427	0.014444	-0.627428
H236	H	0.004687	-0.011455	-0.664959
H237	H	-0.069377	0.035328	-0.692206
H238	H	0.005289	-0.098471	-0.586583
H239	H	-0.068776	-0.051610	-0.613889
O240	O	-0.418375	-0.614382	0.040315
C241	C	-0.342462	-0.696196	0.041399
C242	C	-0.400645	-0.666692	0.040613
H243	H	-0.328105	-0.738501	0.041652
H244	H	-0.339997	-0.661497	0.004455
H245	H	-0.316196	-0.710454	0.078714
H246	H	-0.426946	-0.652434	0.003323
H247	H	-0.403067	-0.701410	0.077582
O248	O	-0.157092	-0.469482	0.312580
C249	C	-0.156955	-0.516629	0.403235
C250	C	-0.185634	-0.487100	0.345028
H251	H	-0.180026	-0.530870	0.429484
H252	H	-0.114873	-0.558931	0.417630
H253	H	-0.154754	-0.481901	0.405676
H254	H	-0.187875	-0.521781	0.342542
H255	H	-0.227700	-0.444787	0.330660
H256	H	-0.019226	-0.285667	-0.158742
H257	H	-0.301729	0.139473	-0.158731
H258	H	0.019773	-0.322218	0.161189
H259	H	-0.161128	-0.465208	0.161163
H260	H	-0.161136	-0.141377	0.161182
H261	H	-0.161141	-0.284407	0.304244
H262	H	-0.304205	-0.141373	0.161175
H263	H	-0.161137	-0.141349	-0.019737
H264	H	-0.743837	0.163627	-0.510462
H265	H	-0.743179	0.483055	-0.509743
O266	O	0.019810	-0.469466	0.312539
C267	C	-0.025128	-0.499221	0.373674
C268	C	-0.025905	-0.469716	0.315493
H269	H	-0.062089	-0.499420	0.376080
H270	H	0.012175	-0.548530	0.399972
H271	H	-0.024909	-0.471513	0.388038
H272	H	-0.026143	-0.497375	0.301080
H273	H	-0.063203	-0.420401	0.289230
O274	O	-0.040320	-0.147976	-0.426054
C275	C	-0.041366	-0.222819	-0.345290
C276	C	-0.040521	-0.165481	-0.373988
H277	H	-0.041517	-0.236997	-0.303186
H278	H	-0.078712	-0.211771	-0.368291
H279	H	-0.004453	-0.262167	-0.343139
H280	H	-0.077408	-0.126108	-0.376147
H281	H	-0.003151	-0.176580	-0.350977
O282	O	-0.040214	0.007462	-0.581571
C283	C	-0.041198	0.089207	-0.657460
C284	C	-0.040478	0.059751	-0.599297
H285	H	-0.041423	0.131496	-0.671813
H286	H	-0.004244	0.054473	-0.659882
H287	H	-0.078503	0.103483	-0.683758
H288	H	-0.003198	0.045476	-0.572964
H289	H	-0.077457	0.094504	-0.596917
H290	H	-0.489870	-0.090268	-0.256484
H291	H	-0.570087	0.003544	-0.573301
H292	H	-0.019237	-0.142213	-0.698946
O293	O	-0.293527	0.532421	-0.551524
C294	C	-0.201510	0.444897	-0.508560
C295	C	-0.258668	0.472339	-0.538206
H296	H	-0.173313	0.396312	-0.497774
H297	H	-0.188383	0.474870	-0.535334
H298	H	-0.200530	0.443183	-0.470590
H299	H	-0.259692	0.474056	-0.576176
H300	H	-0.271771	0.442358	-0.511395
H301	H	-0.304201	-0.322192	0.161160
O302	O	-0.040306	0.007510	-0.426193
C303	C	-0.041321	0.089271	-0.432080
C304	C	-0.040496	0.059752	-0.460746
H305	H	-0.041464	0.131506	-0.460000
H306	H	-0.078663	0.103617	-0.420126
H307	H	-0.004404	0.054510	-0.394872
H308	H	-0.077387	0.094481	-0.497973
H309	H	-0.003130	0.045393	-0.472660
O310	O	-0.418705	-0.147657	-0.426214
C311	C	-0.342808	-0.222522	-0.432099
C312	C	-0.401001	-0.165165	-0.460767
H313	H	-0.328479	-0.236703	-0.460019
H314	H	-0.316499	-0.211496	-0.420141
H315	H	-0.340377	-0.261860	-0.394893
H316	H	-0.403483	-0.125802	-0.497991
H317	H	-0.427283	-0.176242	-0.472685
O318	O	-0.418388	0.385731	-0.426021
C319	C	-0.357242	0.355994	-0.351340
C320	C	-0.415423	0.385483	-0.380059
H321	H	-0.354828	0.355795	-0.314180
H322	H	-0.330940	0.306685	-0.339316
H323	H	-0.342890	0.383712	-0.379289
H324	H	-0.429824	0.357814	-0.352139
H325	H	-0.441690	0.434797	-0.392091
H326	H	-0.304205	-0.141343	-0.019747
H327	H	-0.019235	-0.142256	-0.159055
H328	H	-0.026581	-0.089888	-0.256777
O329	O	-0.573935	0.541214	-0.581562
C330	C	-0.654709	0.616082	-0.657465
C331	C	-0.625976	0.558670	-0.599296
H332	H	-0.696785	0.630205	-0.671824
H333	H	-0.656920	0.655451	-0.659896
H334	H	-0.631674	0.605065	-0.683751
H335	H	-0.648987	0.569627	-0.572974
H336	H	-0.623759	0.519319	-0.596907
H337	H	-0.026563	0.162985	-0.509727
O338	O	-0.573914	-0.458905	0.040356
C339	C	-0.654697	-0.384029	0.041346
C340	C	-0.625983	-0.441395	0.040543
H341	H	-0.696804	-0.369847	0.041486
H342	H	-0.631713	-0.395045	0.078681
H343	H	-0.656841	-0.344696	0.004421
H344	H	-0.623832	-0.480753	0.077442
H345	H	-0.648978	-0.430328	0.003183
H346	H	-0.019230	0.253339	-0.554762
O347	O	-0.018856	0.257627	-0.706364
C348	C	-0.012642	0.334445	-0.779656
C349	C	-0.014897	0.306950	-0.722520
H350	H	-0.009452	0.374336	-0.792740
H351	H	0.023613	0.297504	-0.780674
H352	H	-0.050461	0.351877	-0.807869
H353	H	0.022896	0.289522	-0.694274
H354	H	-0.051177	0.343911	-0.721545
H355	H	-0.026547	0.163294	-0.653183
O356	O	-0.342492	0.475213	-0.502278
C357	C	-0.307822	0.367693	-0.445116
C358	C	-0.337661	0.427065	-0.502252
H359	H	-0.303917	0.328753	-0.445075
H360	H	-0.266411	0.354814	-0.430126
H361	H	-0.331083	0.375573	-0.417840
H362	H	-0.314445	0.419231	-0.529569
H363	H	-0.379075	0.439925	-0.517199
H364	H	-0.346776	-0.516292	0.026600
H365	H	-0.019230	-0.285631	-0.555806
O366	O	-0.026849	-0.237322	-0.502273
C367	C	-0.026445	-0.318755	-0.426662
C368	C	-0.024245	-0.291109	-0.483818
H369	H	-0.024352	-0.362239	-0.411728
H370	H	0.008708	-0.330682	-0.399347
H371	H	-0.065364	-0.283778	-0.426614
H372	H	0.014651	-0.326056	-0.483918
H373	H	-0.059425	-0.279168	-0.511109
H374	H	-0.445184	-0.320548	0.019287
O375	O	-0.026886	-0.237316	-0.260615
C376	C	-0.026404	-0.318793	-0.254751
C377	C	-0.024186	-0.291164	-0.225242
H378	H	-0.024211	-0.362341	-0.226162
H379	H	-0.065335	-0.283877	-0.289769
H380	H	0.008733	-0.330636	-0.270164
H381	H	-0.059296	-0.279323	-0.209794
H382	H	0.014767	-0.326097	-0.190250
O383	O	-0.293194	-0.294469	-0.154943
C384	C	-0.217579	-0.369642	-0.160792
C385	C	-0.274736	-0.310310	-0.190294
H386	H	-0.202642	-0.382476	-0.189357
H387	H	-0.190268	-0.361802	-0.145406
H388	H	-0.217526	-0.408601	-0.125753
H389	H	-0.274839	-0.271323	-0.225353
H390	H	-0.302022	-0.318202	-0.205640
H391	H	-0.841210	-0.463642	0.019294
H392	H	-0.743487	-0.516312	0.026628
H393	H	-0.346709	-0.233340	-0.256801
H394	H	-0.569753	0.389964	-0.430206
H395	H	-0.445183	0.139782	-0.159066
O396	O	-0.448673	-0.139080	-0.154444
C397	C	-0.445149	-0.148862	-0.071379
C398	C	-0.415526	-0.176261	-0.101121
H399	H	-0.418366	-0.178918	-0.028260
H400	H	-0.455892	-0.100303	-0.091706
H401	H	-0.483141	-0.147103	-0.072149
H402	H	-0.377515	-0.178062	-0.100361
H403	H	-0.404824	-0.224804	-0.080785
O404	O	-0.498392	0.234019	-0.260948
C405	C	-0.574187	0.228909	-0.255452
C406	C	-0.517035	0.201430	-0.225755
H407	H	-0.589273	0.202565	-0.227014
H408	H	-0.601421	0.279438	-0.270842
H409	H	-0.574163	0.225044	-0.290501
H410	H	-0.517007	0.205251	-0.190684
H411	H	-0.489826	0.150913	-0.210403
O412	O	-0.498373	-0.766057	0.026978
C413	C	-0.574184	-0.771134	0.026540
C414	C	-0.517045	-0.798581	0.024294
H415	H	-0.589301	-0.797410	0.024359
H416	H	-0.574190	-0.775046	0.065475
H417	H	-0.601376	-0.720591	-0.008594
H418	H	-0.489820	-0.849132	0.059401
H419	H	-0.517081	-0.794622	-0.014663
H420	H	-0.840896	0.535415	-0.554785
O421	O	-0.498394	-0.369204	0.026914
C422	C	-0.574190	-0.287931	0.026517
C423	C	-0.517037	-0.315382	0.024311
H424	H	-0.589276	-0.244418	0.024424
H425	H	-0.601423	-0.276096	-0.008636
H426	H	-0.574168	-0.322988	0.065437
H427	H	-0.517009	-0.280355	-0.014587
H428	H	-0.489829	-0.327231	0.059490
H429	H	-0.743175	-0.373219	0.026636
O430	O	-0.845040	-0.312070	0.018968
C431	C	-0.839179	-0.236922	0.019424
C432	C	-0.809667	-0.296281	0.021663
H433	H	-0.810589	-0.224146	0.021613
H434	H	-0.874191	-0.197921	-0.019512
H435	H	-0.854599	-0.244781	0.054556
H436	H	-0.794211	-0.288483	-0.013442
H437	H	-0.774680	-0.335262	0.060621
O438	O	-0.845546	0.687350	-0.706371
C439	C	-0.928601	0.766842	-0.779664
C440	C	-0.898845	0.707464	-0.722532
H441	H	-0.971695	0.783115	-0.792751
H442	H	-0.927900	0.804097	-0.780672
H443	H	-0.908219	0.757247	-0.807879
H444	H	-0.919204	0.716999	-0.694283
H445	H	-0.899542	0.670227	-0.721566
O446	O	-0.739355	0.630525	-0.657507
C447	C	-0.745201	0.711968	-0.738551
C448	C	-0.774704	0.684321	-0.708706
H449	H	-0.773764	0.755459	-0.779955
H450	H	-0.729815	0.723884	-0.715319
H451	H	-0.710163	0.676996	-0.742486
H452	H	-0.809762	0.719263	-0.704764
H453	H	-0.790051	0.672391	-0.731951
H454	H	-0.445180	-0.860248	0.019309
O455	O	-0.498369	0.630839	-0.657878
C456	C	-0.574180	0.712152	-0.738768
C457	C	-0.517041	0.684719	-0.709083
H458	H	-0.589298	0.755726	-0.780168
H459	H	-0.574188	0.677153	-0.742694
H460	H	-0.601372	0.723907	-0.715399
H461	H	-0.489817	0.672966	-0.732427
H462	H	-0.517076	0.719735	-0.705151
O463	O	-0.449403	0.688054	-0.707031
C464	C	-0.484127	0.795592	-0.764160
C465	C	-0.454309	0.736217	-0.707026
H466	H	-0.488113	0.834551	-0.764173
H467	H	-0.460873	0.787793	-0.791467
H468	H	-0.525509	0.808397	-0.779133
H469	H	-0.412927	0.723380	-0.692004
H470	H	-0.477604	0.744047	-0.679755
H471	H	-0.301733	-0.860548	0.019286
O472	O	-0.342443	-0.766342	0.026907
C473	C	-0.261393	-0.771776	0.026496
C474	C	-0.291243	-0.799073	0.024300
H475	H	-0.219988	-0.798235	0.024401
H476	H	-0.284620	-0.721254	-0.008659
H477	H	-0.257462	-0.775655	0.065415
H478	H	-0.295181	-0.795237	-0.014595
H479	H	-0.268004	-0.849582	0.059482
O480	O	-0.342427	0.233659	-0.260602
C481	C	-0.261395	0.228260	-0.254732
C482	C	-0.291260	0.200988	-0.225226
H483	H	-0.220025	0.201866	-0.226140
H484	H	-0.257393	0.224349	-0.289749
H485	H	-0.284678	0.278793	-0.270145
H486	H	-0.268002	0.150447	-0.209778
H487	H	-0.295268	0.204947	-0.190234
H488	H	-0.301736	-0.463624	0.019263
H489	H	-0.346713	-0.233351	-0.509753
O490	O	-0.574108	0.007693	-0.426066
C491	C	-0.568222	0.002814	-0.345288
C492	C	-0.539554	-0.026659	-0.373997
H493	H	-0.540301	-0.024954	-0.303182
H494	H	-0.580181	0.052096	-0.368278
H495	H	-0.605426	0.003098	-0.343142
H496	H	-0.502332	-0.026987	-0.376150
H497	H	-0.527635	-0.075925	-0.350997
H498	H	-0.301364	-0.286010	-0.554791
H499	H	-0.444508	-0.142931	-0.698242
O500	O	-0.498002	-0.081740	-0.657545
C501	C	-0.556230	0.023549	-0.734355
C502	C	-0.499089	-0.035811	-0.704494
H503	H	-0.557126	0.060702	-0.772314
H504	H	-0.584401	0.013916	-0.745165
H505	H	-0.569461	0.039985	-0.707668
H506	H	-0.485809	-0.052278	-0.731152
H507	H	-0.470953	-0.026144	-0.693677
O508	O	-0.739346	0.159488	-0.657929
C509	C	-0.744864	0.164562	-0.738818
C510	C	-0.774566	0.192011	-0.709137
H511	H	-0.773330	0.190837	-0.780220
H512	H	-0.709842	0.168474	-0.742738
H513	H	-0.729437	0.114019	-0.715448
H514	H	-0.790028	0.242562	-0.732481
H515	H	-0.809563	0.188051	-0.705211
H516	H	-0.841239	0.253681	-0.698962
H517	H	-0.841561	0.253985	-0.555818
