data_functionalizedCrystal
_audit_creation_method	'MofGen! by Chris Wilmer'
_symmetry_space_group_name_H-M	'P1'
_symmetry_Int_Tables_number	1
_symmetry_cell_setting	triclinic
loop_
_symmetry_equiv_pos_as_xyz
  x,y,z
_cell_length_a	14.044191
_cell_length_b	10.540510
_cell_length_c	12.503572
_cell_angle_alpha	93.560801
_cell_angle_beta	86.162165
_cell_angle_gamma	88.852544
loop_
_atom_site_label
_atom_site_type_symbol
_atom_site_fract_x
_atom_site_fract_y
_atom_site_fract_z
O1	O	1.265175	0.299581	-0.089257
O2	O	0.989132	0.288519	-0.089271
O3	O	1.133466	0.109979	-0.089264
O4	O	1.120841	0.478120	-0.089265
O5	O	1.122611	0.123431	0.089378
O6	O	0.978277	0.301970	0.089370
O7	O	1.254320	0.313032	0.089384
Cu8	Cu	1.115308	0.308729	0.105688
Cu9	Cu	1.128144	0.292821	-0.105576
O10	O	1.109986	0.491572	0.089376
C11	C	0.948358	0.290405	0.000047
C12	C	0.843036	0.275972	0.000042
C13	C	0.593257	0.351951	0.000052
C14	C	0.650201	0.249605	0.000051
C15	C	0.757504	0.264279	0.000046
C16	C	0.485944	0.337279	0.000057
C17	C	1.127098	0.069306	0.000055
C18	C	1.124283	-0.071929	0.000048
C19	C	1.224527	-0.279213	0.000462
C20	C	1.227554	-0.132344	0.000054
C21	C	1.077617	-0.129716	-0.101965
C22	C	1.075351	-0.276712	-0.102045
C23	C	1.060857	-0.261441	0.101103
C24	C	1.065673	-0.114504	0.102446
C25	C	1.295094	0.311145	0.000063
C26	C	1.400417	0.325579	0.000061
C27	C	1.116354	0.532245	0.000055
C28	C	1.119169	0.673479	0.000055
N29	N	1.106286	0.319918	0.254280
N30	N	1.137174	0.281623	-0.254168
C31	C	1.093014	0.336388	0.473395
C32	C	1.150442	0.265157	0.526725
C33	C	1.143058	0.274321	0.648648
C34	C	1.100398	0.327226	0.351461
H35	H	0.618371	0.150958	-0.000024
H36	H	1.260315	-0.311590	0.073622
N37	N	1.110539	-0.063911	0.202417
H38	H	1.072531	-0.091598	0.268010
H39	H	1.178245	-0.098268	0.201672
N40	N	1.020556	0.426286	0.534205
H41	H	1.033367	0.516219	0.514704
H42	H	0.954295	0.402593	0.514693
H43	H	0.998391	-0.307867	-0.106671
N44	N	0.635421	0.482603	0.000028
H45	H	0.582470	0.548868	0.000024
H46	H	0.672021	0.498122	0.066246
H47	H	1.001822	-0.090301	-0.105762
N48	N	1.276430	-0.080624	0.096932
H49	H	1.296202	-0.153247	0.140286
H50	H	1.334773	-0.032878	0.072512
H51	H	1.268948	-0.324150	-0.072279
H52	H	0.989904	-0.072598	0.108602
H53	H	1.205154	0.197293	0.480815
N54	N	1.288557	-0.096435	-0.096969
H55	H	1.313578	-0.176062	-0.139643
H56	H	1.248918	-0.044230	-0.143376
N57	N	0.958095	-0.301093	0.102028
H58	H	0.929358	-0.274368	0.034756
H59	H	0.955175	-0.396495	0.104861
N60	N	1.129357	-0.332756	-0.203038
H61	H	1.128432	-0.428613	-0.204099
H62	H	1.098202	-0.303075	-0.267873
H63	H	1.118943	-0.100862	-0.177880
H64	H	1.088976	-0.294482	0.178429
