data_functionalizedCrystal
_audit_creation_method	'MofGen! by Chris Wilmer'
_symmetry_space_group_name_H-M	'P1'
_symmetry_Int_Tables_number	1
_symmetry_cell_setting	triclinic
loop_
_symmetry_equiv_pos_as_xyz
  x,y,z
_cell_length_a	8.559649
_cell_length_b	9.730223
_cell_length_c	10.654550
_cell_angle_alpha	90.003672
_cell_angle_beta	77.131797
_cell_angle_gamma	90.002289
loop_
_atom_site_label
_atom_site_type_symbol
_atom_site_fract_x
_atom_site_fract_y
_atom_site_fract_z
O1	O	2.119652	0.114267	-0.042559
O2	O	1.655166	0.114274	0.022228
O3	O	1.898089	0.114262	-0.194008
O4	O	1.876730	0.114279	0.173677
O5	O	1.898076	-0.114318	-0.194010
O6	O	1.655153	-0.114305	0.022226
O7	O	2.119639	-0.114313	-0.042561
Zn8	Zn	1.887394	-0.150601	-0.010168
Zn9	Zn	1.887411	0.150563	-0.010165
O10	O	1.876717	-0.114301	0.173675
C11	C	1.595684	-0.000015	0.027137
C12	C	1.418466	-0.000012	0.041751
C13	C	1.896514	-0.000027	-0.240645
C14	C	1.891822	-0.000025	-0.379603
N15	N	1.887395	-0.356138	-0.010171
C16	C	2.179121	-0.000021	-0.047469
C17	C	2.356339	-0.000015	-0.062084
C18	C	1.995005	-0.571962	-0.105893
C19	C	1.994995	-0.428079	-0.105891
C20	C	1.779808	-0.428087	0.085559
C21	C	1.779827	-0.571968	0.085561
N22	N	1.887424	0.356099	-0.010172
C23	C	2.034851	-0.000027	-0.473864
C24	C	2.030432	-0.000010	-0.604428
C25	C	1.739944	0.000005	-0.546458
C26	C	1.744364	-0.000002	-0.415896
C27	C	1.878292	-0.000008	0.220312
C28	C	1.882984	-0.000001	0.359271
H29	H	1.438727	-0.000013	-0.162162
H30	H	1.627885	0.000003	-0.339143
C31	C	2.283803	0.117481	-0.483057
C32	C	2.196930	-0.000029	-0.433963
H33	H	2.383861	0.117485	-0.458419
H34	H	2.301638	0.117474	-0.574294
H35	H	2.224831	0.197179	-0.449733
H36	H	2.255897	-0.079728	-0.467295
H37	H	2.179101	-0.000035	-0.342708
C38	C	2.211664	-0.265994	-0.154207
C39	C	2.112993	-0.348880	-0.211191
H40	H	2.284444	-0.217071	-0.219244
H41	H	2.147572	-0.202663	-0.097106
H42	H	2.269915	-0.322042	-0.107644
H43	H	2.054733	-0.292830	-0.257747
H44	H	2.177094	-0.412218	-0.268315
C45	C	1.336636	0.117510	0.243903
C46	C	1.307246	0.000002	0.176866
H47	H	1.267965	0.117521	0.327312
H48	H	1.445121	0.117494	0.251473
H49	H	1.316724	0.197210	0.198396
H50	H	1.327170	-0.079698	0.222369
H51	H	1.198735	0.000006	0.169302
C52	C	1.747020	-0.266252	0.259607
C53	C	1.661530	-0.349009	0.190774
H54	H	1.673993	-0.217429	0.324555
H55	H	1.813943	-0.322365	0.298362
H56	H	1.811085	-0.202820	0.202583
H57	H	1.597474	-0.412447	0.247796
H58	H	1.594580	-0.292891	0.152018
C59	C	2.207707	-0.557496	-0.295130
C60	C	2.113280	-0.651032	-0.211117
H61	H	2.280732	-0.606311	-0.360087
H62	H	2.140765	-0.501391	-0.333875
H63	H	2.265684	-0.501364	-0.248406
H64	H	2.055293	-0.707157	-0.257840
H65	H	2.180230	-0.707160	-0.172370
H66	H	2.146901	-0.000009	-0.681172
H67	H	1.619888	0.000020	-0.576024
H68	H	1.692220	-0.630545	0.163514
