data_functionalizedCrystal
_audit_creation_method	'MofGen! by Chris Wilmer'
_symmetry_space_group_name_H-M	'P1'
_symmetry_Int_Tables_number	1
_symmetry_cell_setting	triclinic
loop_
_symmetry_equiv_pos_as_xyz
  x,y,z
_cell_length_a	14.628931
_cell_length_b	20.875641
_cell_length_c	20.875641
_cell_angle_alpha	60.089808
_cell_angle_beta	90.001412
_cell_angle_gamma	62.439816
loop_
_atom_site_label
_atom_site_type_symbol
_atom_site_fract_x
_atom_site_fract_y
_atom_site_fract_z
Zr1	Zr	0.922464	0.694345	-0.105770
O2	O	0.788502	0.820586	-0.209034
O3	O	0.958518	0.563090	-0.070838
O4	O	0.971980	0.687113	-0.204310
O5	O	0.770122	0.704016	0.025997
O6	O	1.122412	0.687113	-0.204310
O7	O	0.775040	0.696562	-0.075562
O8	O	1.098331	0.465258	0.034447
O9	O	0.794204	0.925871	-0.212760
O10	O	1.092216	0.618934	-0.059897
O11	O	0.976280	0.624497	0.015895
O12	O	0.992130	0.770518	-0.141251
O13	O	0.876194	0.776081	-0.065459
Zr14	Zr	1.154543	0.706232	0.056206
Zr15	Zr	1.162385	0.694345	-0.105769
Zr16	Zr	0.914621	0.706233	0.056206
Zr17	Zr	0.931557	0.862263	-0.111712
Zr18	Zr	1.145449	0.538314	0.062148
O19	O	1.118488	0.837487	0.021274
O20	O	1.129640	0.820585	-0.209034
O21	O	0.777350	0.837488	0.021274
O22	O	1.288504	0.579992	0.159470
O23	O	1.299656	0.563089	-0.070838
O24	O	0.947366	0.579992	0.159470
O25	O	1.306884	0.696561	-0.075561
O26	O	1.105026	0.713464	0.154746
O27	O	0.954594	0.713464	0.154746
O28	O	1.301966	0.704015	0.025998
O29	O	0.984910	0.925870	-0.212760
O30	O	1.092097	0.474707	0.163196
O31	O	1.282803	0.474706	0.163196
O32	O	1.289037	0.465258	0.034447
O33	O	0.787970	0.935320	-0.084011
O34	O	0.978675	0.935319	-0.084011
O35	O	1.084876	0.630059	0.091688
O36	O	1.200812	0.624496	0.015895
O37	O	1.100726	0.776080	-0.065459
O38	O	0.984790	0.781643	0.010334
C39	C	1.027129	0.490249	-0.017349
C40	C	1.023268	0.418964	-0.014826
C41	C	1.081969	0.382570	-0.053204
C42	C	1.078344	0.315586	-0.050826
C43	C	1.016012	0.285000	-0.010075
C44	C	0.957309	0.321397	0.028308
C45	C	0.960941	0.388376	0.025934
C46	C	0.998667	0.084989	0.001271
C47	C	0.995037	0.018007	0.003640
C48	C	1.116074	0.012199	-0.075493
C49	C	1.119695	0.079183	-0.077867
C50	C	1.060997	0.115571	-0.039481
N51	N	1.012302	0.216533	-0.007645
N52	N	1.064713	0.184032	-0.041906
C53	C	0.738397	0.700289	-0.024782
C54	C	0.636544	0.700289	-0.024782
C55	C	0.640784	0.625094	0.015575
C56	C	0.535515	0.625092	0.015576
C57	C	1.338609	0.700288	-0.024782
C58	C	1.440462	0.700288	-0.024781
C59	C	1.048313	0.685419	-0.227388
C60	C	1.051643	0.680373	-0.296151
C61	C	1.049878	0.910328	-0.032215
C62	C	1.053738	0.981613	-0.034738
C63	C	1.000965	0.757125	-0.370921
C64	C	1.004108	0.752378	-0.435528
C65	C	1.057922	0.670878	-0.425363
C66	C	1.108606	0.594120	-0.350585
C67	C	1.105470	0.598868	-0.285979
C68	C	1.072911	0.648194	-0.614029
C69	C	1.076041	0.643452	-0.678642
C70	C	0.971544	0.801711	-0.763582
C71	C	0.968406	0.806451	-0.698971
C72	C	1.019095	0.729693	-0.624199
N73	N	1.061133	0.666024	-0.491401
N74	N	1.015891	0.734548	-0.558163
C75	C	1.028693	0.715158	0.177824
C76	C	1.025363	0.720204	0.246587
C77	C	1.327234	0.490249	-0.017348
C78	C	1.425227	0.418963	-0.014826
C79	C	1.017318	0.505119	0.185257
C80	C	1.010128	0.438880	0.256543
C81	C	1.317424	0.505118	0.185258
C82	C	1.412087	0.438879	0.256543
C83	C	0.759582	0.895459	-0.234822
C84	C	0.664919	0.961698	-0.306107
C85	C	0.749772	0.910329	-0.032215
C86	C	0.651779	0.981614	-0.034738
C87	C	1.059688	0.895459	-0.234821
C88	C	1.066878	0.961698	-0.306107
C89	C	1.414560	0.382583	-0.053210
C90	C	1.506627	0.315610	-0.050855
C91	C	1.609359	0.285016	-0.010110
C92	C	1.620024	0.321403	0.028275
C93	C	1.527959	0.388378	0.025915
C94	C	1.063438	0.410677	0.329589
C95	C	1.056678	0.348448	0.396575
C96	C	0.996615	0.314419	0.390514
C97	C	0.943299	0.342627	0.317460
C98	C	0.950053	0.404860	0.250475
C99	C	1.517069	0.404869	0.250457
C100	C	1.606025	0.342639	0.317431
C101	C	1.589997	0.314416	0.390490
C102	C	1.485004	0.348432	0.396575
C103	C	1.396050	0.410666	0.329602
C104	C	0.559937	0.995717	-0.300021
C105	C	0.470982	1.057967	-0.366996
C106	C	0.487011	1.086194	-0.440055
C107	C	0.592004	1.052173	-0.446140
C108	C	0.680957	0.989928	-0.379166
C109	C	0.662447	1.018001	0.003640
C110	C	0.570382	1.084991	0.001266
C111	C	0.467650	1.115588	-0.039481
C112	C	0.456985	1.079198	-0.077864
C113	C	0.549049	1.012214	-0.075495
C114	C	1.126950	0.995708	-0.300020
C115	C	1.133727	1.057938	-0.366994
C116	C	1.080424	1.086161	-0.440054
C117	C	1.020350	1.052145	-0.446138
C118	C	1.013580	0.989911	-0.379165
H119	H	1.170451	0.104084	-0.111050
O120	O	1.087122	1.146504	-0.505127
C121	C	1.134019	1.110614	-0.547273
H122	H	1.184067	1.036279	-0.506622
H123	H	1.188401	1.135000	-0.574369
H124	H	1.067514	1.131539	-0.594909
O125	O	0.968709	1.079429	-0.517091
C126	C	1.008294	1.007355	-0.522855
H127	H	1.092549	0.953411	-0.479925
H128	H	1.012462	1.028481	-0.584195
H129	H	0.951883	0.981893	-0.509108
O130	O	1.154677	0.524396	-0.213291
C131	C	1.140348	0.546061	-0.158448
H132	H	1.123804	0.614713	-0.186124
H133	H	1.216663	0.497331	-0.106769
H134	H	1.068995	0.543658	-0.138104
H135	H	0.906645	0.427813	0.191000
H136	H	0.746088	0.993095	0.036826
O137	O	1.142612	0.412149	-0.092797
C138	C	1.193625	0.365673	-0.126174
H139	H	1.200043	0.300063	-0.092738
H140	H	1.278027	0.354284	-0.123636
H141	H	1.144058	0.405091	-0.189137
O142	O	0.607434	1.079516	-0.517146
C143	C	0.556523	1.060235	-0.556246
H144	H	0.546971	1.004586	-0.512195
H145	H	0.607942	1.039900	-0.591395
H146	H	0.473492	1.120628	-0.596763
H147	H	0.579087	1.114609	0.032525
H148	H	1.163865	-0.017435	-0.106744
H149	H	0.414570	1.136878	-0.494583
O150	O	1.160796	0.515020	-0.340843
C151	C	1.152657	0.527280	-0.413896
H152	H	1.079374	0.594626	-0.459205
H153	H	1.143082	0.474925	-0.411296
H154	H	1.228933	0.522204	-0.430259
O155	O	1.538139	0.423824	0.063149
C156	C	1.434857	0.489479	0.052359
H157	H	1.375579	0.514880	-0.002118
H158	H	1.439203	0.545479	0.045858
H159	H	1.406275	0.461172	0.104611
H160	H	0.392694	1.170131	-0.041404
O161	O	1.496183	0.280189	-0.088038
C162	C	1.433621	0.243600	-0.057574
H163	H	1.437623	0.227912	0.003447
H164	H	1.466575	0.181051	-0.055469
H165	H	1.346080	0.292249	-0.096064
H166	H	0.894396	0.314911	0.312536
H167	H	0.964658	0.962227	-0.384132
H168	H	0.950875	0.114605	0.032531
H169	H	0.546865	0.972738	-0.240538
O170	O	0.357234	1.108767	-0.117376
C171	C	0.339668	1.039435	-0.085735
H172	H	0.420781	0.974554	-0.054405
H173	H	0.292179	1.046013	-0.134235
H174	H	0.291841	1.041673	-0.042980
O175	O	1.121780	0.443675	0.335625
C176	C	1.167386	0.405419	0.414468
H177	H	1.118261	0.380341	0.449897
H178	H	1.166494	0.456333	0.421691
H179	H	1.254281	0.348649	0.435571
O180	O	0.539782	0.548235	0.056910
C181	C	0.592306	0.503983	0.135923
H182	H	0.646161	0.527699	0.141615
H183	H	0.643862	0.430713	0.162820
H184	H	0.529370	0.517750	0.167223
O185	O	1.108305	0.321136	0.467546
C186	C	1.032049	0.340410	0.506720
H187	H	0.948962	0.396034	0.462725
H188	H	1.056694	0.360778	0.541804
H189	H	1.028829	0.280004	0.547307
H190	H	0.436998	0.764669	-0.059338
H191	H	1.310572	0.438349	0.334568
H192	H	1.126143	0.285953	-0.082075
O193	O	1.698671	0.219919	-0.007867
C194	C	1.667214	0.194389	-0.050501
H195	H	1.580019	0.212637	-0.054122
H196	H	1.722236	0.120697	-0.020433
H197	H	1.673952	0.229187	-0.111421
H198	H	0.554980	0.764666	-0.059331
O199	O	1.128413	0.564326	-0.668860
C200	C	1.212106	0.556840	-0.703675
H201	H	1.193461	0.624832	-0.750230
H202	H	1.218712	0.520012	-0.731131
H203	H	1.291820	0.519624	-0.657820
O204	O	0.538803	0.976715	-0.112652
C205	C	0.583068	0.886597	-0.058531
H206	H	0.644245	0.862005	-0.005458
H207	H	0.625047	0.849779	-0.086003
H208	H	0.515710	0.875135	-0.040369
O209	O	0.948681	0.836367	-0.380937
C210	C	0.904604	0.903091	-0.460789
H211	H	0.950942	0.876508	-0.494388
H212	H	0.911298	0.959805	-0.471826
H213	H	0.815934	0.926916	-0.480721
O214	O	0.896974	0.291541	0.068058
C215	C	0.934294	0.258467	0.146649
H216	H	1.021824	0.239473	0.161300
H217	H	0.929140	0.198491	0.184673
H218	H	0.882099	0.310692	0.157525
O219	O	1.178840	0.968364	-0.229114
C220	C	1.233290	1.011750	-0.238120
H221	H	1.249176	1.035117	-0.296752
H222	H	1.313455	0.964902	-0.190006
H223	H	1.181272	1.070312	-0.234885
H224	H	0.944274	-0.006891	0.036824
H225	H	0.962843	0.814878	-0.496408
O226	O	0.916131	0.885692	-0.708986
C227	C	0.872052	0.952421	-0.788836
H228	H	0.918386	0.925840	-0.822439
H229	H	0.878748	1.009132	-0.799871
H230	H	0.783381	0.976247	-0.808768
O231	O	1.532735	0.432101	0.179524
C232	C	1.588252	0.359989	0.173805
H233	H	1.634677	0.297277	0.234347
H234	H	1.647284	0.367590	0.139414
H235	H	1.527689	0.356788	0.143031
H236	H	1.182643	1.085628	-0.362024
H237	H	0.722348	0.560717	0.050128
O238	O	0.903849	0.423882	0.063096
C239	C	0.829128	0.514003	0.008980
H240	H	0.857816	0.538586	-0.044101
H241	H	0.822530	0.550815	0.036451
H242	H	0.746616	0.525485	-0.009170
O243	O	1.719898	0.291546	0.067850
C244	C	1.798859	0.224643	0.061683
H245	H	1.760658	0.194302	0.048138
H246	H	1.866942	0.172319	0.118742
H247	H	1.832826	0.253207	0.013183
H248	H	0.930276	0.864203	-0.824467
O249	O	0.369057	1.091023	-0.360979
C250	C	0.356967	1.132688	-0.322491
H251	H	0.439757	1.105045	-0.285769
H252	H	0.303993	1.120801	-0.283556
H253	H	0.317374	1.205908	-0.367026
O254	O	1.121991	0.573602	-0.541423
C255	C	1.075800	0.524311	-0.531405
H256	H	0.991055	0.569322	-0.574017
H257	H	1.071008	0.491524	-0.469655
H258	H	1.127985	0.472232	-0.542443
O259	O	0.989876	0.254074	0.455560
C260	C	0.880771	0.286779	0.454289
H261	H	0.832701	0.361215	0.415018
H262	H	0.875260	0.264896	0.515492
H263	H	0.846126	0.260671	0.431330
O264	O	1.707957	0.309753	0.311402
C265	C	1.726003	0.378316	0.269012
H266	H	1.645197	0.442696	0.230997
H267	H	1.777625	0.365408	0.230947
H268	H	1.769780	0.382286	0.310814
H269	H	1.662438	0.263741	0.445018
H270	H	1.330919	0.407491	-0.086399
H271	H	1.471969	0.325444	0.456069
O272	O	0.782883	0.957036	-0.385194
C273	C	0.800943	1.025594	-0.427569
H274	H	0.720141	1.089980	-0.465577
H275	H	0.852557	1.012694	-0.465641
H276	H	0.844733	1.029545	-0.385758
