data_functionalizedCrystal
_audit_creation_method	'MofGen! by Chris Wilmer'
_symmetry_space_group_name_H-M	'P1'
_symmetry_Int_Tables_number	1
_symmetry_cell_setting	triclinic
loop_
_symmetry_equiv_pos_as_xyz
  x,y,z
_cell_length_a	16.109302
_cell_length_b	16.109298
_cell_length_c	15.186229
_cell_angle_alpha	90.001652
_cell_angle_beta	89.994701
_cell_angle_gamma	83.460985
loop_
_atom_site_label
_atom_site_type_symbol
_atom_site_fract_x
_atom_site_fract_y
_atom_site_fract_z
O1	O	1.103129	0.106869	-0.073257
O2	O	0.861067	0.120168	-0.073249
O3	O	0.988749	-0.007513	-0.073260
O4	O	0.975447	0.234550	-0.073247
O5	O	0.988741	-0.007514	0.073197
O6	O	0.861058	0.120166	0.073208
O7	O	1.103121	0.106867	0.073200
Zn8	Zn	0.982088	0.113516	0.096457
Zn9	Zn	0.982099	0.113519	-0.096507
O10	O	0.975438	0.234548	0.073210
C11	C	0.830088	0.119628	-0.000020
C12	C	0.737793	0.118013	-0.000017
C13	C	0.988206	-0.038489	-0.000035
C14	C	0.986592	-0.130784	-0.000045
C15	C	0.525447	0.114277	0.079808
C16	C	0.438727	0.112750	0.079805
C17	C	0.438747	0.112756	-0.079871
C18	C	0.525466	0.114277	-0.079867
C19	C	0.568813	0.115041	-0.000025
C20	C	0.395374	0.111994	-0.000032
C21	C	0.301348	0.110338	-0.000036
C22	C	0.662845	0.116695	-0.000021
C23	C	0.981330	-0.429852	-0.079860
C24	C	0.982858	-0.343132	-0.079866
C25	C	0.982860	-0.343119	0.079809
C26	C	0.981338	-0.429839	0.079815
C27	C	0.980569	-0.473202	-0.000023
C28	C	0.983619	-0.299763	-0.000034
C29	C	0.985275	-0.205737	-0.000041
C30	C	0.978914	-0.567234	-0.000017
C31	C	1.134100	0.107407	-0.000032
C32	C	1.226395	0.109022	-0.000040
C33	C	0.975981	0.265524	-0.000017
C34	C	0.977595	0.357819	-0.000012
N35	N	0.982087	0.113514	0.228150
N36	N	0.982108	0.113514	-0.228199
C37	C	1.038643	0.056996	0.453868
C38	C	1.038646	0.056994	0.546058
C39	C	0.925545	0.170035	0.546076
C40	C	0.925539	0.170032	0.453888
C41	C	0.982093	0.113514	0.407787
C42	C	0.982101	0.113515	0.592164
C43	C	0.982104	0.113513	0.692120
C44	C	0.982090	0.113514	0.307824
H45	H	0.560738	0.114899	0.144820
H46	H	0.879484	0.216056	0.416366
C47	C	0.980498	-0.477527	0.167640
H48	H	0.981162	-0.439281	0.215188
H49	H	1.028358	-0.517712	0.170955
H50	H	0.931444	-0.504998	0.170963
H51	H	0.403422	0.112127	0.144813
H52	H	1.084692	0.010975	0.416334
H53	H	0.560776	0.114897	-0.144880
H54	H	0.879501	0.216052	0.583621
C55	C	0.980509	-0.477552	-0.167677
H56	H	0.981193	-0.439313	-0.215225
H57	H	0.931466	-0.505034	-0.171004
H58	H	1.028381	-0.517731	-0.170986
C59	C	1.100850	-0.005173	0.596748
H60	H	1.092750	0.002914	0.658255
H61	H	1.156332	0.003870	0.581633
H62	H	1.091831	-0.060667	0.581637
C63	C	0.983689	-0.295449	-0.167688
H64	H	0.983007	-0.333697	-0.215231
H65	H	1.032737	-0.267977	-0.171019
H66	H	0.935823	-0.255265	-0.171000
C67	C	0.983696	-0.295416	0.167623
H68	H	0.984702	-0.237559	0.156187
H69	H	1.031899	-0.315978	0.200425
H70	H	0.934985	-0.303271	0.200428
C71	C	0.391061	0.111927	-0.167690
H72	H	0.333201	0.110920	-0.156260
H73	H	0.411629	0.063725	-0.200501
H74	H	0.398923	0.160639	-0.200483
