data_functionalizedCrystal
_audit_creation_method	'MofGen! by Chris Wilmer'
_symmetry_space_group_name_H-M	'P1'
_symmetry_Int_Tables_number	1
_symmetry_cell_setting	triclinic
loop_
_symmetry_equiv_pos_as_xyz
  x,y,z
_cell_length_a	15.944551
_cell_length_b	9.130313
_cell_length_c	10.654550
_cell_angle_alpha	89.999724
_cell_angle_beta	83.991834
_cell_angle_gamma	89.994529
loop_
_atom_site_label
_atom_site_type_symbol
_atom_site_fract_x
_atom_site_fract_y
_atom_site_fract_z
O1	O	0.117977	-0.121694	1.666313
O2	O	0.129217	-0.121721	1.300689
O3	O	0.001379	-0.121693	1.493485
O4	O	0.245814	-0.121721	1.473517
O5	O	0.001376	0.121906	1.493472
O6	O	0.129213	0.121878	1.300676
O7	O	0.117973	0.121905	1.666300
Cu8	Cu	0.123592	0.144134	1.483487
Cu9	Cu	0.123597	-0.143950	1.483502
O10	O	0.245810	0.121878	1.473503
C11	C	-0.029921	0.000106	1.492650
C12	C	-0.123182	0.000107	1.490165
C13	C	0.128389	0.000075	1.253895
C14	C	0.125920	0.000065	1.114484
N15	N	0.123589	0.346757	1.483485
C16	C	-0.338764	0.000077	1.364720
C17	C	-0.399446	0.120191	1.422966
C18	C	-0.293933	0.000095	1.485668
C19	C	-0.399426	-0.119979	1.423007
C20	C	-0.458871	0.000078	1.481317
C21	C	-0.353387	0.120308	1.543947
C22	C	-0.353360	-0.119969	1.543972
C23	C	-0.414024	0.000173	1.602306
C24	C	-0.198917	0.000107	1.488172
C25	C	-0.553887	0.000077	1.478822
C26	C	0.277110	0.000075	1.474339
C27	C	0.370371	0.000065	1.476824
N28	N	0.123594	-0.346572	1.483514
C29	C	0.067007	0.423421	1.568884
C30	C	0.067007	0.576758	1.568896
C31	C	0.180179	0.576753	1.398106
C32	C	0.180174	0.423419	1.398089
C33	C	0.201189	0.000061	1.034024
C34	C	0.198863	0.000087	0.903034
C35	C	0.045995	0.000115	0.932975
C36	C	0.048321	0.000100	1.063963
C37	C	0.118800	0.000106	1.713094
C38	C	0.121269	0.000106	1.852505
H39	H	-0.306038	0.000190	1.264327
H40	H	0.226250	0.360995	1.328541
C41	C	-0.034476	0.000103	1.152480
H42	H	-0.021975	0.000105	1.237726
H43	H	-0.066265	-0.084836	1.137162
H44	H	-0.066260	0.085072	1.137171
C45	C	-0.458042	0.000273	1.738038
H46	H	-0.442284	0.085672	1.780789
H47	H	-0.441567	-0.084234	1.781325
H48	H	-0.517441	-0.000524	1.735731
H49	H	-0.419852	0.221729	1.371804
C50	C	-0.325990	0.257646	1.612979
H51	H	-0.266491	0.256842	1.614091
H52	H	-0.352432	0.258007	1.697122
H53	H	-0.342133	0.342827	1.570285
C54	C	-0.426963	-0.257156	1.353891
H55	H	-0.464312	-0.313716	1.409854
H56	H	-0.378741	-0.314088	1.325869
H57	H	-0.454838	-0.228280	1.283311
H58	H	0.260155	0.000086	0.837528
H59	H	-0.017184	0.000152	0.891824
C60	C	-0.325754	-0.257141	1.613024
H61	H	-0.341345	-0.342406	1.569933
H62	H	-0.352564	-0.258000	1.696951
H63	H	-0.266311	-0.255663	1.614759
H64	H	0.020930	0.361006	1.638416
H65	H	0.264375	0.000044	1.075154
H66	H	0.020931	0.639173	1.638433
C67	C	0.242425	0.661086	1.304190
H68	H	0.234331	0.763387	1.316439
H69	H	0.232783	0.635977	1.220377
H70	H	0.298571	0.635933	1.317835
