data_functionalizedCrystal
_audit_creation_method	'MofGen! by Chris Wilmer'
_symmetry_space_group_name_H-M	'P1'
_symmetry_Int_Tables_number	1
_symmetry_cell_setting	triclinic
loop_
_symmetry_equiv_pos_as_xyz
  x,y,z
_cell_length_a	16.625547
_cell_length_b	16.625545
_cell_length_c	16.625539
_cell_angle_alpha	90.028107
_cell_angle_beta	90.024822
_cell_angle_gamma	90.025495
loop_
_atom_site_label
_atom_site_type_symbol
_atom_site_fract_x
_atom_site_fract_y
_atom_site_fract_z
Zn1	Zn	1.232663	-0.321001	0.456002
Zn2	Zn	1.732663	0.178999	0.956002
Zn3	Zn	1.232559	-0.455845	0.321170
Zn4	Zn	1.732559	0.044155	0.821170
Zn5	Zn	1.097825	-0.321030	0.321172
Zn6	Zn	1.597825	0.178970	0.821172
Zn7	Zn	1.097788	-0.455796	0.455949
Zn8	Zn	1.597788	0.044204	0.955949
O9	O	1.165209	-0.388418	0.388573
O10	O	1.665209	0.111582	0.888573
O11	O	1.345482	-0.338897	0.438137
O12	O	1.845482	0.161103	0.938137
O13	O	1.214658	-0.437993	0.208338
O14	O	1.714658	0.062007	0.708338
O15	O	1.115771	-0.208193	0.339081
O16	O	1.615771	0.291807	0.839081
O17	O	1.345405	-0.437966	0.339076
O18	O	1.845405	0.062034	0.839076
O19	O	1.214836	-0.208173	0.438140
O20	O	1.714836	0.291827	0.938140
O21	O	1.115670	-0.338945	0.208340
O22	O	1.615670	0.161055	0.708340
O23	O	0.984988	-0.338898	0.339030
O24	O	1.484988	0.161102	0.839030
O25	O	1.115708	-0.437883	0.568789
O26	O	1.615708	0.062117	1.068789
O27	O	0.984961	-0.437910	0.438050
O28	O	1.484961	0.062090	0.938050
O29	O	1.214800	-0.338850	0.568827
O30	O	1.714800	0.161150	1.068827
O31	O	1.214623	-0.568671	0.339025
O32	O	1.714623	-0.068671	0.839025
O33	O	1.115607	-0.568635	0.438048
O34	O	1.615607	-0.068635	0.938048
C35	C	0.955718	-0.388402	0.388535
C36	C	1.455718	0.111598	0.888535
C37	C	0.866097	-0.388415	0.388538
C38	C	1.366097	0.111585	0.888538
C39	C	0.793314	-0.388416	0.388548
C40	C	1.293314	0.111584	0.888548
C41	C	0.702006	-0.388421	0.388568
C42	C	1.202006	0.111579	0.888568
C43	C	0.629230	-0.388428	0.388589
C44	C	1.129230	0.111572	0.888589
C45	C	0.537915	-0.388434	0.388608
C46	C	1.037915	0.111566	0.888608
C47	C	1.165121	-0.597909	0.388548
C48	C	1.665121	-0.097909	0.888548
C49	C	1.165158	-0.687530	0.388564
C50	C	1.665158	-0.187530	0.888564
C51	C	1.165189	-0.760312	0.388580
C52	C	1.665189	-0.260312	0.888580
C53	C	1.165236	-0.851621	0.388598
C54	C	1.665236	-0.351621	0.888598
C55	C	1.165278	-0.924397	0.388608
C56	C	1.665278	-0.424397	0.888608
C57	C	1.165324	-1.015711	0.388625
C58	C	1.665324	-0.515711	0.888625
C59	C	1.375518	-0.388434	0.388612
C60	C	1.875518	0.111566	0.888612
C61	C	1.465139	-0.388441	0.388629
C62	C	1.965139	0.111559	0.888629
C63	C	1.165261	-0.388358	0.598882
C64	C	1.665261	0.111642	1.098882
C65	C	1.165284	-0.388332	0.688504
C66	C	1.665284	0.111668	1.188504
C67	C	1.165319	-0.178109	0.388617
C68	C	1.665319	0.321891	0.888617
C69	C	1.165366	-0.088488	0.388635
C70	C	1.665366	0.411512	0.888635
C71	C	1.165203	-0.388419	0.179083
C72	C	1.665203	0.111581	0.679083
C73	C	1.165337	-0.388218	0.089462
C74	C	1.665337	0.111782	0.589462
C75	C	1.165321	-0.388242	1.016679
C76	C	1.665321	0.111758	1.516679
C77	C	1.165308	-0.388270	0.925371
C78	C	1.665308	0.111730	1.425371
C79	C	1.165303	-0.388288	0.852594
C80	C	1.665303	0.111712	1.352594
C81	C	1.165289	-0.388314	0.761280
C82	C	1.665289	0.111686	1.261280
