data_functionalizedCrystal
_audit_creation_method	'MofGen! by Chris Wilmer'
_symmetry_space_group_name_H-M	'P1'
_symmetry_Int_Tables_number	1
_symmetry_cell_setting	triclinic
loop_
_symmetry_equiv_pos_as_xyz
  x,y,z
_cell_length_a	11.169417
_cell_length_b	11.169416
_cell_length_c	11.169409
_cell_angle_alpha	90.028030
_cell_angle_beta	90.019824
_cell_angle_gamma	90.013967
loop_
_atom_site_label
_atom_site_type_symbol
_atom_site_fract_x
_atom_site_fract_y
_atom_site_fract_z
Zn1	Zn	-1.834939	0.477682	-0.678579
Zn2	Zn	-1.501606	0.811015	-0.345245
Zn3	Zn	-1.168273	1.144348	-0.011912
Zn4	Zn	-1.834819	0.678422	-0.477911
Zn5	Zn	-1.501486	1.011756	-0.144577
Zn6	Zn	-1.168152	1.345089	0.188756
Zn7	Zn	-1.634225	0.477755	-0.477913
Zn8	Zn	-1.300892	0.811088	-0.144580
Zn9	Zn	-0.967559	1.144422	0.188754
Zn10	Zn	-1.634223	0.678325	-0.678556
Zn11	Zn	-1.300890	1.011658	-0.345222
Zn12	Zn	-0.967556	1.344991	-0.011889
O13	O	-1.734552	0.578046	-0.578239
O14	O	-1.401218	0.911379	-0.244906
O15	O	-1.067885	1.244713	0.088427
O16	O	-2.002873	0.504321	-0.651968
O17	O	-1.669540	0.837654	-0.318635
O18	O	-1.336206	1.170987	0.014698
O19	O	-1.808161	0.651875	-0.309961
O20	O	-1.474827	0.985208	0.023372
O21	O	-1.141494	1.318542	0.356706
O22	O	-1.660902	0.309796	-0.504542
O23	O	-1.327568	0.643129	-0.171209
O24	O	-0.994235	0.976462	0.162124
O25	O	-2.002785	0.651804	-0.504538
O26	O	-1.669451	0.985137	-0.171205
O27	O	-1.336118	1.318471	0.162128
O28	O	-1.808365	0.309742	-0.651971
O29	O	-1.475032	0.643075	-0.318637
O30	O	-1.141699	0.976408	0.014696
O31	O	-1.660785	0.504445	-0.309963
O32	O	-1.327452	0.837779	0.023370
O33	O	-0.994118	1.171112	0.356704
O34	O	-1.466275	0.504351	-0.504520
O35	O	-1.132942	0.837684	-0.171187
O36	O	-0.799609	1.171017	0.162147
O37	O	-1.660898	0.651637	-0.846508
O38	O	-1.327565	0.984971	-0.513175
O39	O	-0.994231	1.318304	-0.179842
O40	O	-1.466274	0.651708	-0.651931
O41	O	-1.132940	0.985042	-0.318598
O42	O	-0.799607	1.318375	0.014736
O43	O	-1.808363	0.504226	-0.846525
O44	O	-1.475030	0.837559	-0.513192
O45	O	-1.141697	1.170893	-0.179859
O46	O	-1.808158	0.846359	-0.504516
O47	O	-1.474825	1.179692	-0.171183
O48	O	-1.141492	1.513026	0.162151
O49	O	-1.660781	0.846287	-0.651929
O50	O	-1.327448	1.179621	-0.318596
O51	O	-0.994115	1.512954	0.014738
C52	C	-1.422727	0.578028	-0.578224
C53	C	-1.089394	0.911361	-0.244891
C54	C	-0.756060	1.244694	0.088443
C55	C	-1.289327	0.578049	-0.578246
C56	C	-0.955994	0.911382	-0.244913
C57	C	-0.622660	1.244716	0.088421
C58	C	-1.734489	0.889871	-0.578246
C59	C	-1.401156	1.223204	-0.244912
C60	C	-1.067823	1.556537	0.088421
C61	C	-1.734572	1.023271	-0.578289
C62	C	-1.401239	1.356604	-0.244955
C63	C	-1.067906	1.689937	0.088378
C64	C	-1.734644	0.577913	-0.891282
C65	C	-1.401311	0.911246	-0.557949
C66	C	-1.067977	1.244579	-0.224615
C67	C	-1.734683	0.577856	-1.024682
C68	C	-1.401350	0.911189	-0.691349
C69	C	-1.068017	1.244523	-0.358015
C70	C	-2.047594	0.578065	-0.578256
C71	C	-1.714261	0.911398	-0.244922
C72	C	-1.380927	1.244732	0.088411
C73	C	-2.180994	0.578073	-0.578263
C74	C	-1.847661	0.911407	-0.244929
C75	C	-1.514327	1.244740	0.088404
C76	C	-1.734635	1.265004	-0.578272
C77	C	-1.401302	1.598337	-0.244939
C78	C	-1.067969	1.931670	0.088395
C79	C	-1.734640	1.131604	-0.578317
C80	C	-1.401307	1.464937	-0.244984
C81	C	-1.067973	1.798270	0.088349
C82	C	-1.734529	0.578092	-0.266415
C83	C	-1.401196	0.911425	0.066919
C84	C	-1.067862	1.244759	0.400252
C85	C	-1.734722	0.577811	-0.133015
C86	C	-1.401389	0.911144	0.200318
C87	C	-1.068056	1.244477	0.533651
