data_functionalizedCrystal
_audit_creation_method	'MofGen! by Chris Wilmer'
_symmetry_space_group_name_H-M	'P1'
_symmetry_Int_Tables_number	1
_symmetry_cell_setting	triclinic
loop_
_symmetry_equiv_pos_as_xyz
  x,y,z
_cell_length_a	10.489741
_cell_length_b	10.489741
_cell_length_c	13.596369
_cell_angle_alpha	89.994306
_cell_angle_beta	89.997383
_cell_angle_gamma	84.539174
loop_
_atom_site_label
_atom_site_type_symbol
_atom_site_fract_x
_atom_site_fract_y
_atom_site_fract_z
O1	O	1.694055	0.179970	-0.081730
O2	O	1.322859	0.196863	-0.081745
O3	O	1.516904	0.002819	-0.081731
O4	O	1.500011	0.374014	-0.081744
O5	O	1.516884	0.002808	0.081851
O6	O	1.322840	0.196852	0.081838
O7	O	1.694035	0.179960	0.081853
Zn8	Zn	1.508434	0.188404	0.107818
Zn9	Zn	1.508460	0.188418	-0.107710
O10	O	1.499991	0.374004	0.081839
C11	C	1.275318	0.195582	0.000044
C12	C	1.133688	0.191765	0.000039
C13	C	1.065548	0.068300	0.000052
C14	C	0.973431	0.126629	-0.080603
C15	C	0.973446	0.126648	0.080677
C16	C	1.043437	0.250144	-0.080683
C17	C	1.043461	0.250146	0.080670
C18	C	0.951371	0.308564	-0.000005
C19	C	1.515618	-0.044718	0.000059
C20	C	1.511801	-0.186348	0.000057
C21	C	1.388336	-0.254488	0.000045
C22	C	1.446650	-0.346616	0.080702
C23	C	1.446698	-0.346580	-0.080577
C24	C	1.570165	-0.276610	0.080781
C25	C	1.570197	-0.276565	-0.080571
C26	C	1.628600	-0.368665	0.000106
C27	C	1.741577	0.181241	0.000061
C28	C	1.883206	0.185058	0.000060
C29	C	1.501277	0.421541	0.000046
C30	C	1.505094	0.563170	0.000042
N31	N	1.508426	0.188394	0.254909
N32	N	1.508479	0.188418	-0.254802
C33	C	1.508459	0.188420	0.656200
C34	C	1.508446	0.188417	0.544549
C35	C	1.508443	0.188408	0.455558
C36	C	1.508429	0.188403	0.343900
H37	H	0.942460	0.074380	0.148865
N38	N	1.639342	-0.235416	-0.170892
H39	H	1.716933	-0.191860	-0.150341
H40	H	1.667349	-0.313060	-0.212225
H41	H	0.942425	0.074392	-0.148788
N42	N	1.377442	-0.387719	0.171015
H43	H	1.437284	-0.448006	0.211415
H44	H	1.347866	-0.309863	0.211629
N45	N	1.639259	-0.235782	0.171224
H46	H	1.668006	-0.313603	0.212155
H47	H	1.716373	-0.191440	0.150713
N48	N	1.084267	0.319294	-0.171110
H49	H	1.180324	0.321414	-0.170576
H50	H	1.058118	0.272971	-0.231902
N51	N	1.253875	-0.188720	0.000140
H52	H	1.240952	-0.132826	0.060477
H53	H	1.240380	-0.134113	-0.060838
N54	N	1.131307	-0.066165	-0.000034
H55	H	1.106013	-0.112631	-0.061013
H56	H	1.227172	-0.062546	0.000626
N57	N	0.885890	0.443142	-0.000060
H58	H	0.911331	0.489597	-0.061011
H59	H	0.789999	0.439722	0.000558
N60	N	1.084536	0.319318	0.170988
H61	H	1.059335	0.272608	0.231887
H62	H	1.180498	0.322128	0.169902
N63	N	1.763176	-0.434150	0.000158
H64	H	1.826595	-0.367491	0.000766
H65	H	1.776142	-0.490008	0.060516
H66	H	1.394450	-0.377539	-0.148773
