data_functionalizedCrystal
_audit_creation_method	'MofGen! by Chris Wilmer'
_symmetry_space_group_name_H-M	'P1'
_symmetry_Int_Tables_number	1
_symmetry_cell_setting	triclinic
loop_
_symmetry_equiv_pos_as_xyz
  x,y,z
_cell_length_a	12.827893
_cell_length_b	21.295416
_cell_length_c	12.827885
_cell_angle_alpha	90.035627
_cell_angle_beta	89.980538
_cell_angle_gamma	89.969508
loop_
_atom_site_label
_atom_site_type_symbol
_atom_site_fract_x
_atom_site_fract_y
_atom_site_fract_z
Zn1	Zn	1.597563	0.250576	-0.590806
Zn2	Zn	1.597411	0.355858	-0.416049
Zn3	Zn	1.422804	0.250607	-0.416080
Zn4	Zn	1.422744	0.355812	-0.590749
O5	O	1.510131	0.303213	-0.503421
O6	O	1.743779	0.264548	-0.567635
O7	O	1.574210	0.341929	-0.269817
O8	O	1.446075	0.162514	-0.439295
O9	O	1.743667	0.341899	-0.439242
O10	O	1.574470	0.162491	-0.567666
O11	O	1.445927	0.264601	-0.269840
O12	O	1.276560	0.264556	-0.439239
O13	O	1.445973	0.341819	-0.736992
O14	O	1.276516	0.341850	-0.567567
O15	O	1.574412	0.264503	-0.737035
O16	O	1.574152	0.443941	-0.439186
O17	O	1.445826	0.443907	-0.567537
C18	C	1.238621	0.303202	-0.503401
C19	C	1.122468	0.303212	-0.503417
C20	C	0.950583	0.341438	-0.439818
C21	C	1.070634	0.341428	-0.439800
C22	C	1.509994	0.466765	-0.503375
C23	C	1.510032	0.536733	-0.503390
C24	C	1.576911	0.569596	-0.436628
C25	C	1.576960	0.635339	-0.436656
C26	C	1.510112	0.668215	-0.503435
C27	C	1.443228	0.635344	-0.570210
C28	C	1.443188	0.569603	-0.570187
N29	N	1.418696	0.771481	-0.511403
N30	N	1.418737	0.833932	-0.511418
C31	C	1.510230	0.866290	-0.503509
N32	N	1.601682	0.833837	-0.495564
N33	N	1.601640	0.771380	-0.495543
C34	C	1.510148	0.739501	-0.503468
C35	C	1.577168	0.970439	-0.436775
C36	C	1.577219	1.036183	-0.436810
C37	C	1.443477	1.036187	-0.570358
C38	C	1.443435	0.970444	-0.570328
C39	C	1.510280	0.937574	-0.503531
C40	C	1.782701	0.303225	-0.503441
C41	C	1.898854	0.303230	-0.503450
C42	C	1.510203	0.303153	-0.775991
C43	C	1.510233	0.303127	-0.892144
C44	C	1.510297	1.139023	-0.503508
C45	C	1.510371	1.069055	-0.503591
C46	C	1.446775	0.264855	-0.943940
C47	C	1.446805	0.264828	-1.063991
C48	C	1.510119	0.303228	-0.231911
C49	C	1.510291	0.303076	-0.115758
H50	H	1.631425	0.662102	-0.382291
H51	H	1.389052	1.062954	-0.624736
H52	H	1.392420	0.232113	-0.899408
H53	H	1.392481	0.232059	-1.108534
H54	H	1.631342	0.542836	-0.382241
H55	H	1.388801	0.662116	-0.624584
H56	H	1.388725	0.542845	-0.624554
H57	H	1.564627	0.335841	-1.071222
H58	H	0.943443	0.270510	-0.557910
O59	O	1.378508	0.938587	-0.635317
C60	C	1.327704	0.918381	-0.813023
C61	C	1.401284	0.954508	-0.739536
H62	H	1.346107	0.931230	-0.897301
H63	H	1.243442	0.931376	-0.794684
H64	H	1.339138	0.865750	-0.801483
H65	H	1.389944	1.007147	-0.751035
H66	H	1.485519	0.941462	-0.757893
H67	H	1.077988	0.270501	-0.557901
O68	O	0.897238	0.380452	-0.374936
C69	C	0.728948	0.415986	-0.315720
C70	C	0.789227	0.371781	-0.389271
H71	H	0.641611	0.408982	-0.327268
H72	H	0.750241	0.466782	-0.333898
H73	H	0.750377	0.404889	-0.231478
H74	H	0.767831	0.382822	-0.473538
H75	H	0.767929	0.320998	-0.371004
H76	H	1.631600	0.943675	-0.382387
O77	O	1.642224	1.068011	-0.371857
C78	C	1.774902	1.061067	-0.239426
C79	C	1.701320	1.024942	-0.312916
H80	H	1.822715	1.026261	-0.191769
H81	H	1.727020	1.091884	-0.184688
H82	H	1.829498	1.091806	-0.287477
H83	H	1.646709	0.994169	-0.264949
H84	H	1.749267	0.994165	-0.367656
H85	H	1.564583	0.335873	-0.936677
O86	O	1.123535	0.380514	-0.374772
C87	C	1.112138	0.460263	-0.241903
C88	C	1.052095	0.416038	-0.315512
H89	H	1.054405	0.488986	-0.193957
H90	H	1.163209	0.493223	-0.289771
H91	H	1.163262	0.431282	-0.187432
H92	H	1.000915	0.444969	-0.369998
H93	H	1.001090	0.383076	-0.267578
