data_functionalizedCrystal
_audit_creation_method	'MofGen! by Chris Wilmer'
_symmetry_space_group_name_H-M	'P1'
_symmetry_Int_Tables_number	1
_symmetry_cell_setting	triclinic
loop_
_symmetry_equiv_pos_as_xyz
  x,y,z
_cell_length_a	14.519709
_cell_length_b	10.723024
_cell_length_c	9.798715
_cell_angle_alpha	90.003391
_cell_angle_beta	89.995905
_cell_angle_gamma	95.925993
loop_
_atom_site_label
_atom_site_type_symbol
_atom_site_fract_x
_atom_site_fract_y
_atom_site_fract_z
O1	O	0.129347	-1.655978	-0.113485
O2	O	0.141728	-1.292710	-0.113490
O3	O	0.001349	-1.483975	-0.113475
O4	O	0.269727	-1.464712	-0.113500
O5	O	0.001348	-1.483961	0.113507
O6	O	0.141728	-1.292695	0.113492
O7	O	0.129347	-1.655963	0.113497
Zn8	Zn	0.135537	-1.474327	0.149533
Zn9	Zn	0.135538	-1.474346	-0.149526
O10	O	0.269727	-1.464698	0.113482
C11	C	-0.033016	-1.483070	0.000016
C12	C	-0.135411	-1.480380	0.000017
C13	C	0.140827	-1.246211	0.000000
C14	C	0.138132	-1.107682	-0.000001
C15	C	0.130248	-1.702462	0.000003
C16	C	0.132944	-1.840991	-0.000004
C17	C	-0.510357	-1.470476	-0.000019
C18	C	-0.406035	-1.473227	-0.000009
C19	C	-0.322887	-1.475428	0.000000
C20	C	-0.218559	-1.478179	0.000008
C21	C	0.304091	-1.465603	-0.000012
C22	C	0.406486	-1.468293	-0.000022
N23	N	0.135537	-1.474323	0.353632
C24	C	0.216681	-1.031965	-0.000009
C25	C	0.213896	-0.888788	-0.000011
N26	N	0.135532	-1.474359	-0.353626
C27	C	0.076335	-1.554633	0.421415
C28	C	0.076332	-1.554653	0.578578
H29	H	0.285991	-1.073139	-0.000008
H30	H	0.186216	-1.405577	0.411951
H31	H	0.068822	-1.066508	-0.000030
C32	C	0.304746	-0.800904	-0.000020
C33	C	0.374343	-0.806556	0.117839
C34	C	0.465195	-0.718669	0.117829
C35	C	0.486451	-0.625131	-0.000039
C36	C	0.416852	-0.619476	-0.117907
C37	C	0.325999	-0.707362	-0.117898
H38	H	0.358610	-0.875802	0.205100
H39	H	0.516717	-0.722857	0.205084
H40	H	0.553705	-0.560072	-0.000046
H41	H	0.432585	-0.550230	-0.205169
H42	H	0.274478	-0.703175	-0.205152
H43	H	0.065696	-0.906045	-0.000006
C44	C	0.007862	-1.647506	0.342646
C45	C	0.007873	-1.647238	0.185490
C46	C	-0.060604	-1.740115	0.106727
C47	C	-0.129092	-1.833258	0.185119
C48	C	-0.129105	-1.833529	0.342284
C49	C	-0.060629	-1.740653	0.421048
H50	H	0.058574	-1.578285	0.127451
H51	H	-0.060593	-1.739914	-0.009618
H52	H	-0.179782	-1.902011	0.126814
H53	H	-0.179807	-1.902482	0.400323
H54	H	-0.060640	-1.740854	0.537392
H55	H	0.186222	-1.405604	0.588092
C56	C	0.007856	-1.647545	0.657314
C57	C	-0.062794	-1.598282	0.755645
C58	C	-0.131272	-1.691177	0.834384
C59	C	-0.129101	-1.833334	0.814792
C60	C	-0.058449	-1.882604	0.716456
C61	C	0.010030	-1.789709	0.637717
H62	H	-0.064403	-1.493043	0.770153
H63	H	-0.183574	-1.654704	0.907179
H64	H	-0.179793	-1.902101	0.873079
H65	H	-0.056839	-1.987843	0.701949
H66	H	0.062331	-1.826182	0.564923
