data_functionalizedCrystal
_audit_creation_method	'MofGen! by Chris Wilmer'
_symmetry_space_group_name_H-M	'P1'
_symmetry_Int_Tables_number	1
_symmetry_cell_setting	triclinic
loop_
_symmetry_equiv_pos_as_xyz
  x,y,z
_cell_length_a	15.995350
_cell_length_b	15.995350
_cell_length_c	14.472310
_cell_angle_alpha	90.009379
_cell_angle_beta	90.001162
_cell_angle_gamma	96.507625
loop_
_atom_site_label
_atom_site_type_symbol
_atom_site_fract_x
_atom_site_fract_y
_atom_site_fract_z
O1	O	0.107921	-1.110997	-0.076758
O2	O	0.607921	-0.610997	0.423242
O3	O	0.121248	-0.867221	-0.076776
O4	O	0.621248	-0.367221	0.423224
O5	O	-0.007303	-0.995773	-0.076766
O6	O	0.492697	-0.495773	0.423234
O7	O	0.236472	-0.982445	-0.076769
O8	O	0.736472	-0.482445	0.423231
O9	O	-0.007296	-0.995740	0.076916
O10	O	0.492704	-0.495740	0.576916
O11	O	0.121256	-0.867188	0.076906
O12	O	0.621256	-0.367188	0.576906
O13	O	0.107928	-1.110963	0.076924
O14	O	0.607928	-0.610963	0.576924
Cu15	Cu	0.114593	-0.989073	0.090947
Cu16	Cu	0.614593	-0.489073	0.590947
Cu17	Cu	0.114584	-0.989112	-0.090800
Cu18	Cu	0.614584	-0.489112	0.409200
O19	O	0.236480	-0.982412	0.076913
O20	O	0.736480	-0.482412	0.576913
C21	C	-0.038494	-0.995205	0.000073
C22	C	0.461506	-0.495205	0.500073
C23	C	-0.131444	-0.993553	0.000068
C24	C	0.368556	-0.493553	0.500068
C25	C	0.120701	-0.836010	0.000062
C26	C	0.620701	-0.336010	0.500062
C27	C	0.119049	-0.743060	0.000055
C28	C	0.619049	-0.243060	0.500055
C29	C	0.108476	-1.142175	0.000083
C30	C	0.608476	-0.642175	0.500083
C31	C	0.110127	-1.235125	0.000084
C32	C	0.610127	-0.735125	0.500084
C33	C	-0.469192	-0.987621	0.000071
C34	C	0.030808	-0.487621	0.500071
C35	C	-0.421758	-0.896069	-0.000281
C36	C	0.078242	-0.396069	0.499719
C37	C	-0.325068	-0.897721	0.000066
C38	C	0.174932	-0.397721	0.500066
C39	C	-0.301631	-0.990564	0.000069
C40	C	0.198369	-0.490564	0.500069
C41	C	-0.342705	-1.035701	0.087831
C42	C	0.157295	-0.535701	0.587831
C43	C	-0.439340	-1.033401	0.087904
C44	C	0.060660	-0.533401	0.587904
C45	C	-0.439707	-1.035330	-0.086861
C46	C	0.060293	-0.535330	0.413139
C47	C	-0.342762	-1.035309	-0.088021
C48	C	0.157238	-0.535309	0.411979
C49	C	-0.206934	-0.992231	0.000071
C50	C	0.293066	-0.492231	0.500071
C51	C	-0.563890	-0.985956	0.000075
C52	C	-0.063890	-0.485956	0.500075
C53	C	0.267671	-0.982980	0.000072
C54	C	0.767671	-0.482980	0.500072
C55	C	0.360621	-0.984631	0.000071
C56	C	0.860621	-0.484631	0.500071
N57	N	0.114598	-0.989051	0.218778
N58	N	0.614598	-0.489051	0.718778
C59	C	0.113117	-0.405312	0.000074
C60	C	0.613117	0.094688	0.500074
C61	C	0.021565	-0.452746	0.000418
C62	C	0.521565	0.047254	0.500418
C63	C	0.023217	-0.549436	0.000065
C64	C	0.523217	-0.049436	0.500065
C65	C	0.116060	-0.572873	0.000065
C66	C	0.616060	-0.072873	0.500065
C67	C	0.161212	-0.531804	-0.087692
C68	C	0.661212	-0.031804	0.412308
C69	C	0.158912	-0.435169	-0.087759
C70	C	0.658912	0.064831	0.412241
C71	C	0.160812	-0.434792	0.087007
C72	C	0.660812	0.065208	0.587007
C73	C	0.160790	-0.531737	0.088160
C74	C	0.660790	-0.031737	0.588160
C75	C	0.117727	-0.667570	0.000057
C76	C	0.617727	-0.167570	0.500057
C77	C	0.111452	-0.310614	0.000076
C78	C	0.611452	0.189386	0.500076
N79	N	0.114572	-0.989140	-0.218631
N80	N	0.614572	-0.489140	0.281369
C81	C	0.114581	-0.989111	0.592869
C82	C	0.614581	-0.489111	1.092869
C83	C	0.183135	-0.920095	0.553698
C84	C	0.683135	-0.420095	1.053698
C85	C	0.183385	-0.920254	0.446610
C86	C	0.683385	-0.420254	0.946610
C87	C	0.114590	-0.989081	0.407278
C88	C	0.614590	-0.489081	0.907278
C89	C	0.133671	-1.076445	0.446122
C90	C	0.633671	-0.576445	0.946122
C91	C	0.134159	-1.076057	0.553243
C92	C	0.634159	-0.576057	1.053243
C93	C	0.026741	-0.971542	0.553398
C94	C	0.526741	-0.471542	1.053398
C95	C	0.027327	-0.969538	0.446270
C96	C	0.527327	-0.469538	0.946270
C97	C	0.114593	-0.989069	0.302390
C98	C	0.614593	-0.489069	0.802390
C99	C	0.114579	-0.989128	0.697757
C100	C	0.614579	-0.489128	1.197757
H101	H	-0.296649	-0.862239	-0.062846
H102	H	0.203351	-0.362239	0.437154
F103	F	0.217890	-1.096293	0.585892
F104	F	0.717890	-0.596293	1.085892
H105	H	0.012845	-0.905272	0.420883
H106	H	0.512845	-0.405272	0.920883
H107	H	0.197002	-1.092297	0.419285
H108	H	0.697002	-0.592297	0.919285
F109	F	0.250359	-0.550286	-0.091975
F110	F	0.750359	-0.050286	0.408025
H111	H	0.085068	-1.129029	0.420643
H112	H	0.585068	-0.629029	0.920643
F113	F	0.120214	-0.568907	-0.173059
F114	F	0.620214	-0.068907	0.326941
F115	F	-0.305607	-0.994690	0.173193
F116	F	0.194393	-0.494690	0.673193
H117	H	-0.024275	-1.021872	0.578728
H118	H	0.475725	-0.521872	1.078728
F119	F	-0.023175	-0.586580	0.082289
F120	F	0.476825	-0.086580	0.582289
H121	H	0.130885	-0.414242	0.153524
H122	H	0.630885	0.085758	0.653524
F123	F	-0.023306	-0.585845	-0.082433
F124	F	0.476694	-0.085845	0.417567
F125	F	0.115865	-0.411254	-0.173502
F126	F	0.615865	0.088746	0.326498
H127	H	0.226128	-0.402921	-0.091741
H128	H	0.726128	0.097079	0.408259
F129	F	0.268593	-0.934891	0.413100
F130	F	0.768593	-0.434891	0.913100
F131	F	-0.481221	-1.123558	-0.087631
F132	F	0.018779	-0.623558	0.412369
H133	H	-0.014865	-0.433166	-0.062168
H134	H	0.485135	0.066834	0.437832
F135	F	0.071312	-1.145140	0.587113
F136	F	0.571312	-0.645140	1.087113
H137	H	0.127830	-0.559040	0.153082
H138	H	0.627830	-0.059040	0.653082
F139	F	0.002771	-0.890067	0.588744
F140	F	0.502771	-0.390067	1.088744
H141	H	-0.460250	-1.005412	-0.153379
H142	H	0.039750	-0.505412	0.346621
F143	F	-0.042479	-1.030980	0.411290
F144	F	0.457521	-0.530980	0.911290
F145	F	-0.306761	-0.992506	-0.172894
F146	F	0.193239	-0.492506	0.327106
H147	H	-0.440293	-0.859490	-0.063217
H148	H	0.059707	-0.359490	0.436783
F149	F	0.249287	-0.551814	0.095088
F150	F	0.749287	-0.051814	0.595088
F151	F	0.249040	-0.393279	0.087783
F152	F	0.749040	0.106721	0.587783
F153	F	0.168568	-0.835361	0.412282
F154	F	0.668568	-0.335361	0.912282
F155	F	-0.026264	-0.428515	0.082678
F156	F	0.473736	0.071485	0.582678
F157	F	0.168511	-0.834934	0.587380
F158	F	0.668511	-0.334934	1.087380
F159	F	0.267860	-0.934564	0.588855
F160	F	0.767860	-0.434564	1.088855
H161	H	-0.441349	-0.859626	0.062299
H162	H	0.058651	-0.359626	0.562299
H163	H	-0.327400	-1.103014	-0.093317
H164	H	0.172600	-0.603014	0.406683
F165	F	-0.463260	-0.990340	0.173646
F166	F	0.036740	-0.490340	0.673646
F167	F	-0.288638	-0.850993	0.082427
F168	F	0.211362	-0.350993	0.582427
H169	H	-0.328579	-1.103909	0.091097
H170	H	0.171421	-0.603909	0.591097
F171	F	-0.481493	-1.121254	0.093121
F172	F	0.018507	-0.621254	0.593121
