data_functionalizedCrystal
_audit_creation_method	'MofGen! by Chris Wilmer'
_symmetry_space_group_name_H-M	'P1'
_symmetry_Int_Tables_number	1
_symmetry_cell_setting	triclinic
loop_
_symmetry_equiv_pos_as_xyz
  x,y,z
_cell_length_a	10.654551
_cell_length_b	10.654550
_cell_length_c	16.776229
_cell_angle_alpha	89.994543
_cell_angle_beta	89.993455
_cell_angle_gamma	84.485087
loop_
_atom_site_label
_atom_site_type_symbol
_atom_site_fract_x
_atom_site_fract_y
_atom_site_fract_z
O1	O	1.667845	0.176407	-0.066276
O2	O	1.302367	0.193212	-0.066279
O3	O	1.493509	0.002070	-0.066275
O4	O	1.476703	0.367549	-0.066281
O5	O	1.493483	0.002058	0.066302
O6	O	1.302341	0.193200	0.066297
O7	O	1.667819	0.176395	0.066301
Zn8	Zn	1.485076	0.184795	0.087348
Zn9	Zn	1.485110	0.184811	-0.087327
O10	O	1.476677	0.367537	0.066296
C11	C	1.255556	0.191972	0.000008
C12	C	1.116113	0.188279	0.000007
C13	C	0.919567	0.183055	0.072275
C14	C	1.050587	0.186536	0.072276
C15	C	1.050610	0.186555	-0.072267
C16	C	0.919590	0.183084	-0.072266
C17	C	0.854050	0.181298	0.144549
C18	C	0.919544	0.183025	0.216823
C19	C	1.050564	0.186505	0.216823
C20	C	1.116090	0.188260	0.144549
C21	C	1.492262	-0.044734	0.000013
C22	C	1.488570	-0.184177	0.000010
C23	C	1.601112	-0.263662	0.000013
C24	C	1.597635	-0.394683	0.000008
C25	C	1.369066	-0.366720	-0.000002
C26	C	1.372544	-0.235702	-0.000002
C27	C	1.717138	-0.212137	0.000025
C28	C	1.829689	-0.291624	0.000029
C29	C	1.826212	-0.422645	0.000024
C30	C	1.710185	-0.474179	0.000014
C31	C	1.714630	0.177635	0.000011
C32	C	1.854073	0.181327	0.000007
C33	C	1.477924	0.414341	0.000007
C34	C	1.481616	0.553784	0.000004
N35	N	1.485062	0.184784	0.206559
N36	N	1.485134	0.184813	-0.206538
C37	C	1.569726	0.100182	0.248279
C38	C	1.569733	0.100181	0.331731
C39	C	1.485081	0.184789	0.373462
C40	C	1.400408	0.269395	0.331737
C41	C	1.400396	0.269389	0.248287
C42	C	1.400454	0.269420	0.668284
C43	C	1.400475	0.269422	0.751741
C44	C	1.569791	0.100212	0.751729
C45	C	1.569779	0.100206	0.668278
C46	C	1.485102	0.184807	0.626560
C47	C	1.485094	0.184805	0.536072
C48	C	1.485094	0.184798	0.463949
H49	H	1.924154	-0.249656	0.000018
H50	H	1.638672	0.031290	0.365698
C51	C	1.122609	0.188411	0.296316
H52	H	1.210022	0.190744	0.285968
H53	H	1.110076	0.114729	0.326011
H54	H	1.092186	0.260955	0.326009
C55	C	1.260210	0.192088	0.144550
H56	H	1.289835	0.192861	0.197942
H57	H	1.280915	0.265983	0.117857
H58	H	1.298794	0.119756	0.117863
C59	C	1.662843	0.007109	0.202381
H60	H	1.713258	-0.043285	0.239183
H61	H	1.715509	0.052767	0.169814
H62	H	1.617200	-0.045599	0.169841
H63	H	1.719982	-0.105455	0.000032
C64	C	1.122687	0.188471	-0.151759
H65	H	1.210099	0.190774	-0.141409
H66	H	1.092284	0.261012	-0.181458
H67	H	1.110161	0.114785	-0.181449
C68	C	0.847540	0.181202	-0.151759
H69	H	0.905324	0.182735	-0.194802
H70	H	0.787497	0.252964	-0.154753
H71	H	0.805364	0.106737	-0.154769
H72	H	1.917857	-0.487360	0.000019
C73	C	1.706363	-0.618299	0.000003
H74	H	1.790007	-0.658260	0.000009
H75	H	1.663377	-0.642765	-0.046230
H76	H	1.663362	-0.642784	0.046240
H77	H	1.274602	-0.408691	-0.000008
H78	H	1.280902	-0.170983	-0.000003
H79	H	1.638714	0.031314	0.634303
H80	H	1.638736	0.031321	0.785704
H81	H	1.331536	0.338323	0.785717
C82	C	1.307271	0.362456	0.202395
H83	H	1.256864	0.412856	0.239200
H84	H	1.254598	0.316790	0.169852
H85	H	1.352903	0.415160	0.169832
C86	C	1.307348	0.362508	0.622402
H87	H	1.319457	0.350391	0.566724
H88	H	1.321740	0.446446	0.636077
H89	H	1.223404	0.348105	0.636086
C90	C	0.709932	0.177476	0.144552
H91	H	0.680289	0.176687	0.197943
H92	H	0.689238	0.103588	0.117857
H93	H	0.671355	0.249815	0.117865
C94	C	0.847458	0.181203	0.296316
H95	H	0.760045	0.178903	0.285968
H96	H	0.860014	0.254909	0.325969
H97	H	0.877830	0.108681	0.326051
C98	C	1.307295	0.362465	0.377640
H99	H	1.319435	0.350362	0.433315
H100	H	1.223358	0.348048	0.363978
H101	H	1.321667	0.446415	0.363951
