data_functionalizedCrystal
_audit_creation_method	'MofGen! by Chris Wilmer'
_symmetry_space_group_name_H-M	'P1'
_symmetry_Int_Tables_number	1
_symmetry_cell_setting	triclinic
loop_
_symmetry_equiv_pos_as_xyz
  x,y,z
_cell_length_a	10.540539
_cell_length_b	10.540539
_cell_length_c	9.016244
_cell_angle_alpha	90.000067
_cell_angle_beta	90.005301
_cell_angle_gamma	84.525492
loop_
_atom_site_label
_atom_site_type_symbol
_atom_site_fract_x
_atom_site_fract_y
_atom_site_fract_z
O1	O	1.685893	0.178895	0.123263
O2	O	1.316480	0.195751	0.123280
O3	O	1.509614	0.002617	0.123269
O4	O	1.492759	0.372030	0.123274
O5	O	1.509586	0.002621	-0.123411
O6	O	1.316452	0.195755	-0.123400
O7	O	1.685865	0.178900	-0.123418
Cu8	Cu	1.501156	0.187328	-0.145933
Cu9	Cu	1.501189	0.187323	0.145795
O10	O	1.492730	0.372034	-0.123407
C11	C	1.269163	0.194489	-0.000058
C12	C	1.128215	0.190707	-0.000051
C13	C	0.944788	0.045790	-0.000628
C14	C	1.091406	0.049624	-0.000057
C15	C	1.066558	0.258600	0.140811
C16	C	0.920014	0.253785	0.140914
C17	C	0.919493	0.256660	-0.139608
C18	C	1.066475	0.257960	-0.141455
C19	C	1.508336	-0.044684	-0.000068
C20	C	1.504554	-0.185632	-0.000060
C21	C	1.359637	-0.369059	0.000500
C22	C	1.363471	-0.222441	-0.000055
C23	C	1.572434	-0.247287	-0.140930
C24	C	1.567619	-0.393832	-0.141049
C25	C	1.570520	-0.394355	0.139473
C26	C	1.571820	-0.247373	0.141336
C27	C	1.733182	0.180161	-0.000077
C28	C	1.874130	0.183943	-0.000074
C29	C	1.494008	0.419335	-0.000066
C30	C	1.497790	0.560283	-0.000064
N31	N	1.501141	0.187331	-0.351119
C32	C	1.397510	0.290298	-0.586146
C33	C	1.397739	0.290684	-0.414255
C34	C	1.633864	0.217464	-0.413464
C35	C	1.633298	0.218193	-0.585409
C36	C	1.473367	0.053892	-0.585663
C37	C	1.470322	0.054757	-0.413709
N38	N	1.501213	0.187310	0.350982
H39	H	1.109159	0.211434	0.245643
H40	H	1.712941	0.146204	-0.626995
N41	N	1.292736	-0.165995	0.133708
H42	H	1.219424	-0.103965	0.100085
H43	H	1.352714	-0.119921	0.197032
H44	H	1.378630	0.025213	-0.629106
N45	N	1.285815	-0.406942	0.134305
H46	H	1.341203	-0.470277	0.195857
H47	H	1.207412	-0.446973	0.100569
N48	N	0.904777	-0.027722	0.132434
H49	H	0.981943	-0.054712	0.195353
H50	H	0.864466	-0.105729	0.097929
H51	H	1.304121	-0.399265	-0.099949
N52	N	0.877710	0.196190	-0.281052
H53	H	0.781670	0.199121	-0.283044
H54	H	0.915733	0.104625	-0.285618
N55	N	1.506110	-0.193155	0.279376
H56	H	1.510566	-0.097893	0.282191
H57	H	1.549823	-0.233310	0.369879
N58	N	1.340979	0.024546	-0.359726
H59	H	1.350302	-0.057099	-0.300413
H60	H	1.283500	0.014150	-0.447644
H61	H	1.107425	0.208362	-0.245664
N62	N	1.098552	0.394212	-0.152730
H63	H	1.153803	0.414366	-0.065945
H64	H	1.017320	0.453353	-0.151529
H65	H	1.299123	0.272553	-0.372106
N66	N	1.708075	-0.215300	0.152598
H67	H	1.767304	-0.296477	0.151341
H68	H	1.719878	-0.167858	0.248176
N69	N	1.738590	0.120833	-0.359275
H70	H	1.823041	0.142066	-0.400708
H71	H	1.720924	0.032986	-0.393473
H72	H	1.298584	0.272446	-0.627535
H73	H	1.415177	0.388722	-0.629339
N74	N	1.147833	-0.021138	-0.133814
H75	H	1.126888	-0.112612	-0.130158
H76	H	1.243385	-0.018687	-0.133629
N77	N	1.666859	0.344937	-0.356408
H78	H	1.596030	0.383341	-0.290191
H79	H	1.677788	0.403779	-0.442919
H80	H	1.672424	-0.441581	0.140416
H81	H	1.309661	-0.180683	-0.101200
H82	H	1.676041	-0.224933	-0.146173
H83	H	1.524871	-0.425910	0.246244
H84	H	1.517429	-0.422030	-0.246347
N85	N	1.665547	0.347122	-0.638540
H86	H	1.752697	0.363552	-0.600770
H87	H	1.599974	0.415239	-0.599890
H88	H	1.540849	-0.025564	-0.370737
N89	N	1.421109	0.421886	-0.359733
H90	H	1.431347	0.479685	-0.447397
H91	H	1.501178	0.416108	-0.297592
N92	N	1.702011	-0.457384	-0.149530
H93	H	1.764116	-0.390167	-0.153183
H94	H	1.711664	-0.511696	-0.241862
N95	N	1.573494	-0.047665	-0.639530
H96	H	1.619527	-0.089894	-0.551650
H97	H	1.636523	-0.007436	-0.704676
H98	H	0.872045	0.355250	0.147309
N99	N	0.906903	-0.028027	-0.134448
H100	H	0.811941	-0.034558	-0.132517
H101	H	0.953390	-0.116349	-0.132589
N102	N	0.882642	0.187306	0.280374
H103	H	0.909012	0.235957	0.369980
H104	H	0.926627	0.097903	0.282614
N105	N	1.096176	0.395835	0.147784
H106	H	1.149975	0.415364	0.059486
H107	H	1.144297	0.410335	0.242200
H108	H	1.133163	-0.004177	0.101092
N109	N	0.856944	0.391643	-0.140898
H110	H	0.881151	0.437160	-0.048004
H111	H	0.761333	0.390208	-0.144815
N112	N	1.509969	-0.190850	-0.279793
H113	H	1.437714	-0.125361	-0.251773
H114	H	1.475634	-0.260686	-0.340174
