data_functionalizedCrystal
_audit_creation_method	'MofGen! by Chris Wilmer'
_symmetry_space_group_name_H-M	'P1'
_symmetry_Int_Tables_number	1
_symmetry_cell_setting	triclinic
loop_
_symmetry_equiv_pos_as_xyz
  x,y,z
_cell_length_a	27.732048
_cell_length_b	15.944551
_cell_length_c	14.421503
_cell_angle_alpha	89.989777
_cell_angle_beta	90.010988
_cell_angle_gamma	83.070697
loop_
_atom_site_label
_atom_site_type_symbol
_atom_site_fract_x
_atom_site_fract_y
_atom_site_fract_z
O1	O	-0.641353	-0.099952	0.076994
O2	O	-0.500625	-0.115148	0.077023
O3	O	-0.574832	0.014775	0.076999
O4	O	-0.567146	-0.229875	0.077018
O5	O	-0.574840	0.014793	-0.077224
O6	O	-0.500633	-0.115130	-0.077201
O7	O	-0.641361	-0.099934	-0.077229
Cu8	Cu	-0.570998	-0.107530	-0.091297
Cu9	Cu	-0.570988	-0.107552	0.091090
O10	O	-0.567154	-0.229857	-0.077206
C11	C	-0.482621	-0.114820	-0.000086
C12	C	-0.428962	-0.113860	-0.000075
C13	C	-0.574517	0.046074	-0.000112
C14	C	-0.573560	0.139308	-0.000113
C15	C	-0.659365	-0.100262	-0.000119
C16	C	-0.713024	-0.101222	-0.000123
C17	C	-0.090453	-0.184589	-0.000110
C18	C	0.111222	-0.181025	-0.000118
O19	O	0.142198	-0.245701	-0.000154
N20	N	0.130679	-0.103986	-0.000123
C21	C	0.099715	-0.027832	-0.000131
O22	O	0.120892	0.037776	-0.000144
C23	C	-0.101960	-0.031397	-0.000129
C24	C	-0.121414	-0.108441	-0.000115
C25	C	-0.109908	-0.261627	-0.000097
C26	C	-0.160324	-0.262517	-0.000090
C27	C	-0.191285	-0.186369	-0.000096
C28	C	-0.171830	-0.109331	-0.000108
C29	C	-0.132923	0.044756	-0.000143
C30	C	-0.183345	0.043858	-0.000145
C31	C	-0.202799	-0.033186	-0.000132
C32	C	-0.253206	-0.034073	-0.000106
N33	N	-0.272664	-0.111113	-0.000102
C34	C	-0.241703	-0.187260	-0.000097
C35	C	0.205597	-0.025966	-0.000130
C36	C	0.256015	-0.025074	-0.000129
C37	C	0.267519	-0.178268	-0.000118
C38	C	0.217100	-0.179158	-0.000113
C39	C	0.186139	-0.103005	-0.000126
C40	C	-0.347580	-0.189124	-0.000081
C41	C	-0.398001	-0.190007	-0.000070
C42	C	-0.409500	-0.036815	-0.000085
C43	C	-0.359084	-0.035931	-0.000091
C44	C	-0.328125	-0.112092	-0.000092
O45	O	-0.284210	0.030569	-0.000081
O46	O	-0.262890	-0.252859	-0.000104
C47	C	-0.040037	-0.183699	-0.000117
C48	C	-0.020582	-0.106661	-0.000130
C49	C	-0.051543	-0.030513	-0.000135
C50	C	0.029836	-0.105769	-0.000128
C51	C	0.060797	-0.181917	-0.000123
C52	C	0.041339	-0.258956	-0.000119
C53	C	-0.009076	-0.259846	-0.000112
C54	C	-0.032086	0.046526	-0.000139
C55	C	0.018331	0.047410	-0.000145
C56	C	0.049291	-0.028737	-0.000140
C57	C	-0.567469	-0.261156	-0.000092
C58	C	-0.568426	-0.354389	-0.000086
N59	N	-0.571009	-0.107515	-0.219578
C60	C	-0.525277	0.353533	-0.000090
C61	C	-0.547702	0.414852	-0.076136
C62	C	-0.571830	0.310011	-0.000105
C63	C	-0.547705	0.414818	0.075916
C64	C	-0.570155	0.474902	-0.000094
C65	C	-0.594268	0.370102	-0.076214
C66	C	-0.594264	0.370061	0.075906
C67	C	-0.616723	0.431364	-0.000158
C68	C	-0.572793	0.215021	-0.000113
C69	C	-0.569195	0.569890	-0.000093
N70	N	-0.570981	-0.107560	0.219372
C71	C	-0.536603	-0.167518	0.469030
C72	C	-0.527332	-0.091678	0.530832
C73	C	-0.570990	-0.107543	0.408533
C74	C	-0.580248	-0.183368	0.530825
C75	C	-0.570998	-0.107533	0.591254
C76	C	-0.561697	-0.031664	0.468974
C77	C	-0.614632	-0.123404	0.468962
C78	C	-0.605380	-0.047508	0.530736
C79	C	-0.570985	-0.107550	0.303272
C80	C	-0.571004	-0.107518	0.696513
H81	H	-0.413838	-0.252749	-0.000058
O82	O	-0.620334	0.343989	-0.161473
H83	H	-0.595241	0.299232	-0.202960
O84	O	-0.338099	0.047167	-0.000100
H85	H	-0.315414	0.051239	-0.062964
O86	O	0.196117	-0.262254	-0.000116
H87	H	0.226121	-0.315049	-0.000120
H88	H	-0.490428	-0.078255	0.558014
O89	O	-0.667966	0.475895	-0.000177
H90	H	-0.673813	0.515575	0.062992
H91	H	0.066557	-0.320958	-0.000111
H92	H	0.034165	0.110154	-0.000149
O93	O	-0.620319	0.343713	0.161055
H94	H	-0.600916	0.361397	0.224091
O95	O	-0.314196	-0.271272	-0.000078
H96	H	-0.290962	-0.274538	-0.062943
H97	H	-0.057290	0.108537	-0.000145
H98	H	-0.434718	0.025183	-0.000086
O99	O	-0.590629	-0.268307	0.566806
H100	H	-0.559749	-0.296255	0.610244
H101	H	-0.176158	-0.325254	-0.000079
H102	H	-0.528016	0.434711	-0.140419
H103	H	-0.117093	0.107494	-0.000155
H104	H	-0.486636	0.319720	-0.000158
O105	O	0.300918	-0.260400	-0.000129
H106	H	0.324177	-0.263669	0.062722
O107	O	-0.076517	-0.343764	-0.000088
H108	H	-0.098525	-0.397474	-0.000073
O109	O	-0.498059	-0.234633	0.433129
H110	H	-0.498627	-0.234437	0.356172
H111	H	-0.024911	-0.322584	-0.000102
O112	O	-0.663501	-0.141206	0.432926
H113	H	-0.658803	-0.199084	0.389503
O114	O	-0.551267	0.053299	0.433151
H115	H	-0.551325	0.052616	0.356190
O116	O	-0.521614	0.441076	0.161079
H117	H	-0.483670	0.409578	0.160919
H118	H	0.271850	0.037663	-0.000125
O119	O	-0.643907	0.019745	0.566413
H120	H	-0.636108	0.082587	0.541507
H121	H	0.180392	0.036051	-0.000140
H122	H	-0.208551	0.105873	-0.000156
