data_functionalizedCrystal
_audit_creation_method	'MofGen! by Chris Wilmer'
_symmetry_space_group_name_H-M	'P1'
_symmetry_Int_Tables_number	1
_symmetry_cell_setting	triclinic
loop_
_symmetry_equiv_pos_as_xyz
  x,y,z
_cell_length_a	16.120484
_cell_length_b	16.120542
_cell_length_c	13.032268
_cell_angle_alpha	85.358095
_cell_angle_beta	99.642751
_cell_angle_gamma	89.836765
loop_
_atom_site_label
_atom_site_type_symbol
_atom_site_fract_x
_atom_site_fract_y
_atom_site_fract_z
Zn1	Zn	-0.462338	-1.180621	-0.695185
Zn2	Zn	-0.212338	-0.930621	-0.445185
Zn3	Zn	0.037662	-0.680621	-0.195185
Zn4	Zn	0.287662	-0.430621	0.054815
Zn5	Zn	-0.585460	-1.191127	-0.528926
Zn6	Zn	-0.335460	-0.941127	-0.278926
Zn7	Zn	-0.085460	-0.691127	-0.028926
Zn8	Zn	0.164540	-0.441127	0.221074
Zn9	Zn	-0.437668	-1.061095	-0.511303
Zn10	Zn	-0.187668	-0.811095	-0.261303
Zn11	Zn	0.062332	-0.561095	-0.011303
Zn12	Zn	0.312332	-0.311095	0.238697
Zn13	Zn	-0.594189	-1.034575	-0.694224
Zn14	Zn	-0.344189	-0.784575	-0.444224
Zn15	Zn	-0.094189	-0.534575	-0.194224
Zn16	Zn	0.155811	-0.284575	0.055776
O17	O	-0.519914	-1.116854	-0.607409
O18	O	-0.269914	-0.866854	-0.357409
O19	O	-0.019914	-0.616854	-0.107409
O20	O	0.230086	-0.366854	0.142591
O21	O	-0.485342	-1.297554	-0.680907
O22	O	-0.235342	-1.047554	-0.430907
O23	O	0.014658	-0.797554	-0.180907
O24	O	0.264658	-0.547554	0.069093
O25	O	-0.551878	-1.189373	-0.380455
O26	O	-0.301878	-0.939373	-0.130455
O27	O	-0.051878	-0.689373	0.119545
O28	O	0.198122	-0.439373	0.369545
O29	O	-0.323910	-1.083653	-0.528721
O30	O	-0.073910	-0.833653	-0.278721
O31	O	0.176090	-0.583653	-0.028721
O32	O	0.426090	-0.333653	0.221279
O33	O	-0.575799	-1.305272	-0.558758
O34	O	-0.325799	-1.055272	-0.308758
O35	O	-0.075799	-0.805272	-0.058758
O36	O	0.174201	-0.555272	0.191242
O37	O	-0.342034	-1.171468	-0.663819
O38	O	-0.092034	-0.921468	-0.413819
O39	O	0.157966	-0.671468	-0.163819
O40	O	0.407966	-0.421468	0.086181
O41	O	-0.443296	-1.093840	-0.367508
O42	O	-0.193296	-0.843840	-0.117508
O43	O	0.056704	-0.593840	0.132492
O44	O	0.306704	-0.343840	0.382492
O45	O	-0.451760	-0.942038	-0.527790
O46	O	-0.201760	-0.692038	-0.277790
O47	O	0.048240	-0.442038	-0.027790
O48	O	0.298240	-0.192038	0.222210
O49	O	-0.590676	-1.038453	-0.840485
O50	O	-0.340676	-0.788453	-0.590485
O51	O	-0.090676	-0.538453	-0.340485
O52	O	0.159324	-0.288453	-0.090485
O53	O	-0.566754	-0.922554	-0.662182
O54	O	-0.316754	-0.672554	-0.412182
O55	O	-0.066754	-0.422554	-0.162182
O56	O	0.183246	-0.172554	0.087818
O57	O	-0.493806	-1.145752	-0.841190
O58	O	-0.243806	-0.895752	-0.591190
O59	O	0.006194	-0.645752	-0.341190
O60	O	0.256194	-0.395752	-0.091190
O61	O	-0.703649	-1.163658	-0.557827
O62	O	-0.453649	-0.913658	-0.307827
O63	O	-0.203649	-0.663658	-0.057827
O64	O	0.046351	-0.413658	0.192173
O65	O	-0.710062	-1.048640	-0.679271
O66	O	-0.460062	-0.798640	-0.429271
O67	O	-0.210062	-0.548640	-0.179271
O68	O	0.039938	-0.298640	0.070729
C69	C	-0.737204	-1.104431	-0.620381
C70	C	-0.487204	-0.854431	-0.370381
C71	C	-0.237204	-0.604431	-0.120381
C72	C	0.012796	-0.354431	0.129619
C73	C	-0.830169	-1.099188	-0.625971
C74	C	-0.580169	-0.849188	-0.375971
C75	C	-0.330169	-0.599188	-0.125971
C76	C	-0.080169	-0.349188	0.124029
C77	C	-0.507528	-0.902338	-0.592970
C78	C	-0.257528	-0.652338	-0.342970
C79	C	-0.007528	-0.402338	-0.092970
C80	C	0.242472	-0.152338	0.157030
C81	C	-0.502252	-0.810563	-0.586819
C82	C	-0.252252	-0.560563	-0.336819
C83	C	-0.002252	-0.310563	-0.086819
C84	C	0.247748	-0.060563	0.163181
C85	C	-0.545966	-1.087972	-0.879788
C86	C	-0.295966	-0.837972	-0.629788
C87	C	-0.045966	-0.587972	-0.379788
C88	C	0.204034	-0.337972	-0.129788
C89	C	-0.557068	-1.075664	-0.995859
C90	C	-0.307068	-0.825664	-0.745859
C91	C	-0.057068	-0.575664	-0.495859
C92	C	0.192932	-0.325664	-0.245859
C93	C	-1.000380	-1.089618	-0.636197
C94	C	-0.750380	-0.839618	-0.386197
C95	C	-0.500380	-0.589618	-0.136197
C96	C	-0.250380	-0.339618	0.113803
C97	C	-1.038617	-1.144237	-0.578649
C98	C	-0.788617	-0.894237	-0.328649
C99	C	-0.538617	-0.644237	-0.078649
C100	C	-0.288617	-0.394237	0.171351
C101	C	-1.133328	-1.138912	-0.584339
C102	C	-0.883328	-0.888912	-0.334339
C103	C	-0.633328	-0.638912	-0.084339
C104	C	-0.383328	-0.388912	0.165661
C105	C	-0.905660	-1.094942	-0.630508
C106	C	-0.655660	-0.844942	-0.380508
C107	C	-0.405660	-0.594942	-0.130508
C108	C	-0.155660	-0.344942	0.119492
C109	C	-0.301779	-1.129346	-0.594411
C110	C	-0.051779	-0.879346	-0.344411
C111	C	0.198221	-0.629346	-0.094411
C112	C	0.448221	-0.379346	0.155589
C113	C	-0.208823	-1.134670	-0.588872
C114	C	0.041177	-0.884670	-0.338872
C115	C	0.291177	-0.634670	-0.088872
C116	C	0.541177	-0.384670	0.161128
C117	C	-0.547253	-0.592022	-0.639258
C118	C	-0.297253	-0.342022	-0.389258
C119	C	-0.047253	-0.092022	-0.139258
C120	C	0.202747	0.157978	0.110742
C121	C	-0.492626	-0.642532	-0.575588
C122	C	-0.242626	-0.392532	-0.325588
C123	C	0.007374	-0.142532	-0.075588
C124	C	0.257374	0.107468	0.174412
C125	C	-0.497983	-0.736033	-0.581839
C126	C	-0.247983	-0.486033	-0.331839
C127	C	0.002017	-0.236033	-0.081839
C128	C	0.252017	0.013967	0.168161
C129	C	-0.541897	-0.498513	-0.633009
C130	C	-0.291897	-0.248513	-0.383009
C131	C	-0.041897	0.001487	-0.133009
C132	C	0.208103	0.251487	0.116991
C133	C	-0.532343	-0.332211	-0.621891
C134	C	-0.282343	-0.082211	-0.371891
C135	C	-0.032343	0.167789	-0.121891
C136	C	0.217657	0.417789	0.128109
C137	C	-0.537625	-0.423987	-0.628024
C138	C	-0.287625	-0.173987	-0.378024
C139	C	-0.037625	0.076013	-0.128024
C140	C	0.212375	0.326013	0.121976
C141	C	-0.514089	-1.123267	-1.047956
C142	C	-0.264089	-0.873267	-0.797956
C143	C	-0.014089	-0.623267	-0.547956
C144	C	0.235911	-0.373267	-0.297956
C145	C	-0.525562	-1.110547	-1.167922
C146	C	-0.275562	-0.860547	-0.917922
C147	C	-0.025562	-0.610547	-0.667922
C148	C	0.224438	-0.360547	-0.417922
C149	C	-0.493905	-1.145675	-0.336091
C150	C	-0.243905	-0.895675	-0.086091
C151	C	0.006095	-0.645675	0.163909
C152	C	0.256095	-0.395675	0.413909
C153	C	-0.482577	-1.158156	-0.220017
C154	C	-0.232577	-0.908156	0.029983
C155	C	0.017423	-0.658156	0.279983
C156	C	0.267423	-0.408156	0.529983
H157	H	-1.000223	-1.194996	-0.525106
H158	H	-0.750223	-0.944996	-0.275106
H159	H	-0.500223	-0.694996	-0.025106
H160	H	-0.250223	-0.444996	0.224894
H161	H	-0.468795	-1.173435	-1.003744
H162	H	-0.218795	-0.923435	-0.753744
H163	H	0.031205	-0.673435	-0.503744
H164	H	0.281205	-0.423435	-0.253744
Cl165	Cl	-0.414212	-0.600885	-0.484174
Cl166	Cl	-0.164212	-0.350885	-0.234174
Cl167	Cl	0.085788	-0.100885	0.015826
Cl168	Cl	0.335788	0.149115	0.265826
Cl169	Cl	-0.595488	-1.033077	-1.236168
Cl170	Cl	-0.345488	-0.783077	-0.986168
Cl171	Cl	-0.095488	-0.533077	-0.736168
Cl172	Cl	0.154512	-0.283077	-0.486168
H173	H	-0.437278	-1.208326	-1.175810
H174	H	-0.187278	-0.958326	-0.925810
H175	H	0.062722	-0.708326	-0.675810
H176	H	0.312722	-0.458326	-0.425810
Cl177	Cl	-1.059654	-1.011252	-0.718855
Cl178	Cl	-0.809654	-0.761252	-0.468855
Cl179	Cl	-0.559654	-0.511252	-0.218855
Cl180	Cl	-0.309654	-0.261252	0.031145
H181	H	-0.598040	-0.618998	-0.698458
H182	H	-0.348040	-0.368998	-0.448458
H183	H	-0.098040	-0.118998	-0.198458
H184	H	0.151960	0.131002	0.051542
H185	H	-0.602353	-1.025489	-1.040070
H186	H	-0.352353	-0.775489	-0.790070
H187	H	-0.102353	-0.525489	-0.540070
H188	H	0.147647	-0.275489	-0.290070
