data_functionalizedCrystal
_audit_creation_method	'MofGen! by Chris Wilmer'
_symmetry_space_group_name_H-M	'P1'
_symmetry_Int_Tables_number	1
_symmetry_cell_setting	triclinic
loop_
_symmetry_equiv_pos_as_xyz
  x,y,z
_cell_length_a	16.109301
_cell_length_b	11.792241
_cell_length_c	15.186229
_cell_angle_alpha	89.996105
_cell_angle_beta	89.999362
_cell_angle_gamma	83.827448
loop_
_atom_site_label
_atom_site_type_symbol
_atom_site_fract_x
_atom_site_fract_y
_atom_site_fract_z
O1	O	1.103817	0.145885	-0.073173
O2	O	0.861841	0.164040	-0.073187
O3	O	0.988701	-0.010259	-0.073174
O4	O	0.976957	0.320185	-0.073187
O5	O	0.988692	-0.010262	0.073284
O6	O	0.861832	0.164038	0.073270
O7	O	1.103809	0.145883	0.073284
Zn8	Zn	0.982819	0.154960	0.096530
Zn9	Zn	0.982830	0.154963	-0.096433
O10	O	0.976948	0.320182	0.073271
C11	C	0.830858	0.163304	0.000040
C12	C	0.738552	0.161099	0.000034
C13	C	0.516743	0.259398	0.000041
C14	C	0.430012	0.257318	0.000047
C15	C	0.448914	0.050517	0.000051
C16	C	0.535642	0.052599	0.000052
C17	C	0.569554	0.157043	0.000042
C18	C	0.396095	0.152880	0.000047
C19	C	0.302059	0.150624	0.000053
C20	C	0.663597	0.159300	0.000037
C21	C	0.987959	-0.052545	0.000055
C22	C	0.985751	-0.178539	0.000054
C23	C	0.981691	-0.409216	0.000039
C24	C	0.983947	-0.280850	0.000047
C25	C	1.134791	0.146619	0.000055
C26	C	1.227097	0.148824	0.000055
C27	C	0.977690	0.362468	0.000040
C28	C	0.979898	0.488462	0.000035
N29	N	0.982817	0.154957	0.228223
N30	N	0.982838	0.154957	-0.228126
C31	C	1.039011	0.077803	0.453952
C32	C	1.039013	0.077800	0.546141
C33	C	0.926639	0.232115	0.546139
C34	C	0.926633	0.232111	0.453951
C35	C	0.982824	0.154957	0.407860
C36	C	0.982832	0.154958	0.592237
C37	C	0.982835	0.154955	0.692193
C38	C	0.982820	0.154957	0.307897
H39	H	1.084763	0.014978	0.416427
H40	H	0.880875	0.294939	0.416420
C41	C	0.554047	0.374283	0.000038
C42	C	0.649444	0.376582	0.000034
C43	C	0.686745	0.491470	0.000034
C44	C	0.628650	0.604059	0.000036
C45	C	0.533247	0.601764	0.000040
C46	C	0.495946	0.486876	0.000040
H47	H	0.692455	0.293234	0.000032
H48	H	0.757369	0.493169	0.000031
H49	H	0.656262	0.689106	0.000036
H50	H	0.490236	0.685113	0.000042
H51	H	0.425322	0.485178	0.000043
H52	H	0.578644	-0.030757	0.000055
C53	C	1.100822	-0.007066	0.596844
C54	C	1.162634	-0.091920	0.546144
C55	C	1.224444	-0.176792	0.596846
C56	C	1.224443	-0.176809	0.698250
C57	C	1.162629	-0.091952	0.748956
C58	C	1.100818	-0.007080	0.698253
H59	H	1.162637	-0.091910	0.471074
H60	H	1.270203	-0.239608	0.559310
H61	H	1.270199	-0.239636	0.735783
H62	H	1.162626	-0.091962	0.824025
H63	H	1.055059	0.055736	0.735790
C64	C	0.371920	0.369912	0.000043
C65	C	0.376047	0.455501	-0.076013
C66	C	0.317956	0.568101	-0.076015
C67	C	0.255737	0.595111	0.000039
C68	C	0.251608	0.509520	0.076101
C69	C	0.309700	0.396920	0.076103
H70	H	0.422107	0.435508	-0.132318
H71	H	0.321013	0.631461	-0.132321
H72	H	0.212734	0.678464	0.000038
H73	H	0.205548	0.529512	0.132406
H74	H	0.306642	0.333559	0.132409
H75	H	0.421291	-0.034518	0.000064
C76	C	0.864838	0.316991	0.596839
C77	C	0.864886	0.317067	0.698242
C78	C	0.803085	0.401949	0.748940
C79	C	0.741236	0.486754	0.698234
C80	C	0.741186	0.486682	0.596825
C81	C	0.802987	0.401800	0.546128
H82	H	0.910672	0.254286	0.735783
H83	H	0.803122	0.402002	0.824009
H84	H	0.695487	0.549589	0.735763
H85	H	0.695399	0.549463	0.559284
H86	H	0.802949	0.401746	0.471058
