data_functionalizedCrystal
_audit_creation_method	'MofGen! by Chris Wilmer'
_symmetry_space_group_name_H-M	'P1'
_symmetry_Int_Tables_number	1
_symmetry_cell_setting	triclinic
loop_
_symmetry_equiv_pos_as_xyz
  x,y,z
_cell_length_a	23.532407
_cell_length_b	23.532407
_cell_length_c	12.503572
_cell_angle_alpha	93.496478
_cell_angle_beta	86.509276
_cell_angle_gamma	82.848678
loop_
_atom_site_label
_atom_site_type_symbol
_atom_site_fract_x
_atom_site_fract_y
_atom_site_fract_z
O1	O	0.758558	0.065826	-0.089196
O2	O	1.008558	0.315826	0.160804
O3	O	1.258558	0.565826	0.410804
O4	O	1.508558	0.815826	0.660804
O5	O	0.592696	0.075828	-0.089229
O6	O	0.842696	0.325828	0.160771
O7	O	1.092696	0.575828	0.410771
O8	O	1.342696	0.825828	0.660771
O9	O	0.680627	-0.012104	-0.089192
O10	O	0.930627	0.237896	0.160808
O11	O	1.180627	0.487896	0.410808
O12	O	1.430627	0.737896	0.660808
O13	O	0.670626	0.153758	-0.089233
O14	O	0.920626	0.403758	0.160767
O15	O	1.170626	0.653758	0.410767
O16	O	1.420626	0.903758	0.660767
O17	O	0.674014	-0.005480	0.089447
O18	O	0.924014	0.244520	0.339447
O19	O	1.174014	0.494520	0.589447
O20	O	1.424014	0.744520	0.839447
O21	O	0.586082	0.082452	0.089410
O22	O	0.836082	0.332452	0.339410
O23	O	1.086082	0.582452	0.589410
O24	O	1.336082	0.832452	0.839410
O25	O	0.751945	0.072450	0.089443
O26	O	1.001945	0.322450	0.339443
O27	O	1.251945	0.572450	0.589443
O28	O	1.501945	0.822450	0.839443
Cu29	Cu	0.668410	0.078056	0.105738
Cu30	Cu	0.918410	0.328056	0.355738
Cu31	Cu	1.168410	0.578056	0.605738
Cu32	Cu	1.418410	0.828056	0.855738
Cu33	Cu	0.676230	0.070222	-0.105524
Cu34	Cu	0.926230	0.320222	0.144476
Cu35	Cu	1.176230	0.570222	0.394476
Cu36	Cu	1.426230	0.820222	0.644476
O37	O	0.664013	0.160382	0.089406
O38	O	0.914013	0.410382	0.339406
O39	O	1.164013	0.660382	0.589406
O40	O	1.414013	0.910382	0.839406
C41	C	0.568173	0.078885	0.000086
C42	C	0.818173	0.328885	0.250086
C43	C	1.068173	0.578885	0.500086
C44	C	1.318173	0.828885	0.750086
C45	C	0.504957	0.078119	0.000075
C46	C	0.754957	0.328119	0.250075
C47	C	1.004957	0.578119	0.500075
C48	C	1.254957	0.828119	0.750075
C49	C	0.105852	0.125354	0.000111
C50	C	0.355852	0.375354	0.250111
C51	C	0.605852	0.625354	0.500111
C52	C	0.855852	0.875354	0.750111
C53	C	0.046452	0.124642	0.000118
C54	C	0.296452	0.374642	0.250118
C55	C	0.546452	0.624642	0.500118
C56	C	0.796452	0.874642	0.750118
O57	O	0.009706	0.168429	0.000146
O58	O	0.259706	0.418429	0.250146
O59	O	0.509706	0.668429	0.500146
O60	O	0.759706	0.918429	0.750146
N61	N	0.023825	0.072367	0.000129
N62	N	0.273825	0.322367	0.250129
N63	N	0.523825	0.572367	0.500129
N64	N	0.773825	0.822367	0.750129
C65	C	0.060602	0.020799	0.000145
C66	C	0.310602	0.270799	0.250145
C67	C	0.560602	0.520799	0.500145
C68	C	0.810602	0.770799	0.750145
O69	O	0.035902	-0.023731	0.000156
O70	O	0.285902	0.226269	0.250156
O71	O	0.535902	0.476269	0.500156
O72	O	0.785902	0.726269	0.750156
C73	C	0.120001	0.021511	0.000146
C74	C	0.370001	0.271511	0.250146
C75	C	0.620001	0.521511	0.500146
C76	C	0.870001	0.771511	0.750146
C77	C	0.142625	0.073790	0.000124
C78	C	0.392625	0.323790	0.250124
C79	C	0.642625	0.573790	0.500124
C80	C	0.892625	0.823790	0.750124
C81	C	0.128476	0.177628	0.000090
C82	C	0.378476	0.427628	0.250090
C83	C	0.628476	0.677628	0.500090
C84	C	0.878476	0.927628	0.750090
C85	C	0.187873	0.178339	0.000082
C86	C	0.437873	0.428339	0.250082
C87	C	0.687873	0.678339	0.500082
C88	C	0.937873	0.928339	0.750082
C89	C	0.224645	0.126775	0.000094
C90	C	0.474645	0.376775	0.250094
C91	C	0.724645	0.626775	0.500094
C92	C	0.974645	0.876775	0.750094
C93	C	0.202021	0.074501	0.000115
C94	C	0.452021	0.324501	0.250115
C95	C	0.702021	0.574501	0.500115
C96	C	0.952021	0.824501	0.750115
C97	C	0.156777	-0.030056	0.000169
C98	C	0.406777	0.219944	0.250169
C99	C	0.656777	0.469944	0.500169
C100	C	0.906777	0.719944	0.750169
C101	C	0.216179	-0.029339	0.000171
C102	C	0.466179	0.220661	0.250171
C103	C	0.716179	0.470661	0.500171
C104	C	0.966179	0.720661	0.750171
C105	C	0.238803	0.022940	0.000148
C106	C	0.488803	0.272940	0.250148
C107	C	0.738803	0.522940	0.500148
C108	C	0.988803	0.772940	0.750148
C109	C	0.298190	0.023648	0.000118
C110	C	0.548190	0.273648	0.250118
C111	C	0.798190	0.523648	0.500118
C112	C	1.048190	0.773648	0.750118
N113	N	0.320817	0.075924	0.000107
N114	N	0.570817	0.325924	0.250107
N115	N	0.820817	0.575924	0.500107
N116	N	1.070817	0.825924	0.750107
C117	C	0.284044	0.127488	0.000095
C118	C	0.534044	0.377488	0.250095
C119	C	0.784044	0.627488	0.500095
C120	C	1.034044	0.877488	0.750095
C121	C	-0.064140	0.019307	0.000145
C122	C	0.185860	0.269307	0.250145
C123	C	0.435860	0.519307	0.500145
C124	C	0.685860	0.769307	0.750145
C125	C	-0.123538	0.018595	0.000136
C126	C	0.126462	0.268595	0.250136
C127	C	0.376462	0.518595	0.500136
C128	C	0.626462	0.768595	0.750136
C129	C	-0.137685	0.122438	0.000111
C130	C	0.112315	0.372438	0.250111
C131	C	0.362315	0.622438	0.500111
C132	C	0.612315	0.872438	0.750111
C133	C	-0.078286	0.123151	0.000112
C134	C	0.171714	0.373151	0.250112
C135	C	0.421714	0.623151	0.500112
C136	C	0.671714	0.873151	0.750112
C137	C	-0.041514	0.071583	0.000133
C138	C	0.208486	0.321583	0.250133
C139	C	0.458486	0.571583	0.500133
C140	C	0.708486	0.821583	0.750133
C141	C	0.408782	0.128976	0.000076
C142	C	0.658782	0.378976	0.250076
C143	C	0.908782	0.628976	0.500076
C144	C	1.158782	0.878976	0.750076
C145	C	0.468184	0.129683	0.000062
C146	C	0.718184	0.379683	0.250062
C147	C	0.968184	0.629683	0.500062
C148	C	1.218184	0.879683	0.750062
C149	C	0.482325	0.025839	0.000093
C150	C	0.732325	0.275839	0.250093
C151	C	0.982325	0.525839	0.500093
C152	C	1.232325	0.775839	0.750093
C153	C	0.422928	0.025133	0.000100
C154	C	0.672928	0.275133	0.250100
C155	C	0.922928	0.525133	0.500100
C156	C	1.172928	0.775133	0.750100
C157	C	0.386157	0.076706	0.000095
C158	C	0.636157	0.326706	0.250095
C159	C	0.886157	0.576706	0.500095
C160	C	1.136157	0.826706	0.750095
O161	O	0.334970	-0.020116	0.000095
O162	O	0.584970	0.229884	0.250095
O163	O	0.834970	0.479884	0.500095
O164	O	1.084970	0.729884	0.750095
O165	O	0.308752	0.172011	0.000098
O166	O	0.558752	0.422011	0.250098
O167	O	0.808752	0.672011	0.500098
O168	O	1.058752	0.922011	0.750098
C169	C	0.677066	-0.030008	0.000130
C170	C	0.927066	0.219992	0.250130
C171	C	1.177066	0.469992	0.500130
C172	C	1.427066	0.719992	0.750130
C173	C	0.676300	-0.093225	0.000138
C174	C	0.926300	0.156775	0.250138
C175	C	1.176300	0.406775	0.500138
C176	C	1.426300	0.656775	0.750138
C177	C	0.723535	-0.492329	0.000089
C178	C	0.973535	-0.242329	0.250089
C179	C	1.223535	0.007671	0.500089
C180	C	1.473535	0.257671	0.750089
C181	C	0.722824	-0.551730	0.000080
C182	C	0.972824	-0.301730	0.250080
C183	C	1.222824	-0.051730	0.500080
C184	C	1.472824	0.198270	0.750080
O185	O	0.766611	-0.588476	0.000050
O186	O	1.016611	-0.338476	0.250050
O187	O	1.266611	-0.088476	0.500050
O188	O	1.516611	0.161524	0.750050
N189	N	0.670548	-0.574357	0.000071
N190	N	0.920548	-0.324357	0.250071
N191	N	1.170548	-0.074357	0.500071
N192	N	1.420548	0.175643	0.750071
C193	C	0.618980	-0.537579	0.000059
C194	C	0.868980	-0.287579	0.250059
C195	C	1.118980	-0.037579	0.500059
C196	C	1.368980	0.212421	0.750059
O197	O	0.574450	-0.562279	0.000049
O198	O	0.824450	-0.312279	0.250049
O199	O	1.074450	-0.062279	0.500049
O200	O	1.324450	0.187721	0.750049
C201	C	0.619692	-0.478180	0.000059
C202	C	0.869692	-0.228180	0.250059
C203	C	1.119692	0.021820	0.500059
C204	C	1.369692	0.271820	0.750059
C205	C	0.671971	-0.455557	0.000080
C206	C	0.921971	-0.205557	0.250080
C207	C	1.171971	0.044443	0.500080
C208	C	1.421971	0.294443	0.750080
C209	C	0.775810	-0.469706	0.000108
C210	C	1.025810	-0.219706	0.250108
C211	C	1.275810	0.030294	0.500108
C212	C	1.525810	0.280294	0.750108
C213	C	0.776521	-0.410309	0.000118
C214	C	1.026521	-0.160309	0.250118
C215	C	1.276521	0.089691	0.500118
C216	C	1.526521	0.339691	0.750118
C217	C	0.724957	-0.373536	0.000109
C218	C	0.974957	-0.123536	0.250109
C219	C	1.224957	0.126464	0.500109
C220	C	1.474957	0.376464	0.750109
C221	C	0.672682	-0.396160	0.000090
C222	C	0.922682	-0.146160	0.250090
C223	C	1.172682	0.103840	0.500090
C224	C	1.422682	0.353840	0.750090
C225	C	0.568126	-0.441405	0.000039
C226	C	0.818126	-0.191405	0.250039
C227	C	1.068126	0.058595	0.500039
C228	C	1.318126	0.308595	0.750039
C229	C	0.568842	-0.382002	0.000039
C230	C	0.818842	-0.132002	0.250039
C231	C	1.068842	0.117998	0.500039
C232	C	1.318842	0.367998	0.750039
C233	C	0.621121	-0.359379	0.000060
C234	C	0.871121	-0.109379	0.250060
C235	C	1.121121	0.140621	0.500060
C236	C	1.371121	0.390621	0.750060
C237	C	0.621829	-0.299991	0.000091
C238	C	0.871829	-0.049991	0.250091
C239	C	1.121829	0.200009	0.500091
C240	C	1.371829	0.450009	0.750091
N241	N	0.674105	-0.277365	0.000101
N242	N	0.924105	-0.027365	0.250101
N243	N	1.174105	0.222635	0.500101
N244	N	1.424105	0.472635	0.750101
C245	C	0.725669	-0.314137	0.000110
C246	C	0.975669	-0.064137	0.250110
C247	C	1.225669	0.185863	0.500110
C248	C	1.475669	0.435863	0.750110
C249	C	0.617489	-0.662322	0.000055
C250	C	0.867489	-0.412322	0.250055
C251	C	1.117489	-0.162322	0.500055
C252	C	1.367489	0.087678	0.750055
C253	C	0.616776	-0.721720	0.000062
C254	C	0.866776	-0.471720	0.250062
C255	C	1.116776	-0.221720	0.500062
C256	C	1.366776	0.028280	0.750062
C257	C	0.720620	-0.735866	0.000082
C258	C	0.970620	-0.485866	0.250082
C259	C	1.220620	-0.235866	0.500082
C260	C	1.470620	0.014134	0.750082
C261	C	0.721332	-0.676467	0.000083
C262	C	0.971332	-0.426467	0.250083
C263	C	1.221332	-0.176467	0.500083
C264	C	1.471332	0.073533	0.750083
C265	C	0.669765	-0.639696	0.000065
C266	C	0.919765	-0.389696	0.250065
C267	C	1.169765	-0.139696	0.500065
C268	C	1.419765	0.110304	0.750065
C269	C	0.727158	-0.189400	0.000133
C270	C	0.977158	0.060600	0.250133
C271	C	1.227158	0.310600	0.500133
C272	C	1.477158	0.560600	0.750133
C273	C	0.727864	-0.129997	0.000147
C274	C	0.977864	0.120003	0.250147
C275	C	1.227864	0.370003	0.500147
C276	C	1.477864	0.620003	0.750147
C277	C	0.624020	-0.115856	0.000122
C278	C	0.874020	0.134144	0.250122
C279	C	1.124020	0.384144	0.500122
C280	C	1.374020	0.634144	0.750122
C281	C	0.623314	-0.175253	0.000113
C282	C	0.873314	0.074747	0.250113
C283	C	1.123314	0.324747	0.500113
C284	C	1.373314	0.574747	0.750113
C285	C	0.674887	-0.212024	0.000114
C286	C	0.924887	0.037976	0.250114
C287	C	1.174887	0.287976	0.500114
C288	C	1.424887	0.537976	0.750114
O289	O	0.578065	-0.263211	0.000118
O290	O	0.828065	-0.013211	0.250118
O291	O	1.078065	0.236789	0.500118
O292	O	1.328065	0.486789	0.750118
O293	O	0.770192	-0.289430	0.000106
O294	O	1.020192	-0.039430	0.250106
O295	O	1.270192	0.210570	0.500106
O296	O	1.520192	0.460570	0.750106
C297	C	0.776467	0.069393	0.000125
C298	C	1.026467	0.319393	0.250125
C299	C	1.276467	0.569393	0.500125
C300	C	1.526467	0.819393	0.750125
C301	C	0.839684	0.070159	0.000130
C302	C	1.089684	0.320159	0.250130
C303	C	1.339684	0.570159	0.500130
C304	C	1.589684	0.820159	0.750130
C305	C	0.667574	0.178286	0.000081
C306	C	0.917574	0.428286	0.250081
C307	C	1.167574	0.678286	0.500081
C308	C	1.417574	0.928286	0.750081
C309	C	0.668341	0.241502	0.000066
C310	C	0.918341	0.491502	0.250066
C311	C	1.168341	0.741502	0.500066
C312	C	1.418341	0.991502	0.750066
N313	N	0.662913	0.083565	0.254327
N314	N	0.912913	0.333565	0.504327
N315	N	1.162913	0.583565	0.754327
N316	N	1.412913	0.833565	1.004327
N317	N	0.681732	0.064708	-0.254114
N318	N	0.931732	0.314708	-0.004114
N319	N	1.181732	0.564708	0.245886
N320	N	1.431732	0.814708	0.495886
C321	C	0.654828	0.091674	0.473439
C322	C	0.904828	0.341674	0.723439
C323	C	1.154828	0.591674	0.973439
C324	C	1.404828	0.841674	1.223439
C325	C	0.689815	0.056601	0.526781
C326	C	0.939815	0.306601	0.776781
C327	C	1.189815	0.556601	1.026781
C328	C	1.439815	0.806601	1.276781
C329	C	0.685316	0.061113	0.648702
C330	C	0.935316	0.311113	0.898702
C331	C	1.185316	0.561113	1.148702
C332	C	1.435316	0.811113	1.398702
C333	C	0.659326	0.087163	0.351507
C334	C	0.909326	0.337163	0.601507
C335	C	1.159326	0.587163	0.851507
C336	C	1.409326	0.837163	1.101507
H337	H	0.378849	0.170973	0.000075
H338	H	0.628849	0.420973	0.250075
H339	H	0.878849	0.670973	0.500075
H340	H	1.128849	0.920973	0.750075
N341	N	0.782779	-0.229058	0.000142
N342	N	1.032779	0.020942	0.250142
N343	N	1.282779	0.270942	0.500142
N344	N	1.532779	0.520942	0.750142
H345	H	0.808056	-0.224260	-0.066069
H346	H	1.058056	0.025740	0.183931
H347	H	1.308056	0.275740	0.433931
H348	H	1.558056	0.525740	0.683931
H349	H	0.803099	-0.219340	0.066418
H350	H	1.053099	0.030660	0.316418
H351	H	1.303099	0.280660	0.566418
H352	H	1.553099	0.530660	0.816418
N353	N	0.831429	-0.509363	0.000133
N354	N	1.081429	-0.259363	0.250133
N355	N	1.331429	-0.009363	0.500133
N356	N	1.581429	0.240637	0.750133
H357	H	0.835910	-0.536777	-0.066085
H358	H	1.085910	-0.286777	0.183915
H359	H	1.335910	-0.036777	0.433915
H360	H	1.585910	0.213223	0.683915
H361	H	0.864614	-0.485968	0.000188
H362	H	1.114614	-0.235968	0.250188
H363	H	1.364614	0.014032	0.500188
H364	H	1.614614	0.264032	0.750188
H365	H	0.819092	-0.391895	0.000131
H366	H	1.069092	-0.141895	0.250131
H367	H	1.319092	0.108105	0.500131
H368	H	1.569092	0.358105	0.750131
H369	H	0.763902	-0.658052	0.000099
H370	H	1.013902	-0.408052	0.250099
H371	H	1.263902	-0.158052	0.500099
H372	H	1.513902	0.091948	0.750099
N373	N	0.776238	-0.775534	0.000092
N374	N	1.026238	-0.525534	0.250092
N375	N	1.276238	-0.275534	0.500092
N376	N	1.526238	-0.025534	0.750092
H377	H	0.767850	-0.816595	0.000085
H378	H	1.017850	-0.566595	0.250085
H379	H	1.267850	-0.316595	0.500085
H380	H	1.517850	-0.066595	0.750085
H381	H	0.801487	-0.770693	-0.066127
H382	H	1.051487	-0.520693	0.183873
H383	H	1.301487	-0.270693	0.433873
H384	H	1.551487	-0.020693	0.683873
N385	N	0.255836	-0.084961	0.000198
N386	N	0.505836	0.165039	0.250198
N387	N	0.755836	0.415039	0.500198
N388	N	1.005836	0.665039	0.750198
H389	H	0.251037	-0.110241	-0.066014
H390	H	0.501037	0.139759	0.183986
H391	H	0.751037	0.389759	0.433986
H392	H	1.001037	0.639759	0.683986
H393	H	0.296882	-0.076535	0.000233
H394	H	0.546882	0.173465	0.250233
H395	H	0.796882	0.423465	0.500233
H396	H	1.046882	0.673465	0.750233
H397	H	0.206287	0.220910	0.000063
H398	H	0.456287	0.470910	0.250063
H399	H	0.706287	0.720910	0.500063
H400	H	0.956287	0.970910	0.750063
H401	H	0.098541	0.219620	0.000084
H402	H	0.348541	0.469620	0.250084
H403	H	0.598541	0.719620	0.500084
H404	H	0.848541	0.969620	0.750084
N405	N	-0.053886	0.179536	0.000085
N406	N	0.196114	0.429536	0.250085
N407	N	0.446114	0.679536	0.500085
N408	N	0.696114	0.929536	0.750085
H409	H	-0.086200	0.212090	0.000073
H410	H	0.163800	0.462090	0.250073
H411	H	0.413800	0.712090	0.500073
H412	H	0.663800	0.962090	0.750073
H413	H	-0.031999	0.184554	0.066308
H414	H	0.218001	0.434554	0.316308
H415	H	0.468001	0.684554	0.566308
H416	H	0.718001	0.934554	0.816308
N417	N	0.492579	0.186074	0.000032
N418	N	0.742579	0.436074	0.250032
N419	N	0.992579	0.686074	0.500032
N420	N	1.242579	0.936074	0.750032
H421	H	0.476702	0.211105	0.066248
H422	H	0.726702	0.461105	0.316248
H423	H	0.976702	0.711105	0.566248
H424	H	1.226702	0.961105	0.816248
H425	H	0.535787	0.178658	-0.000017
H426	H	0.785787	0.428658	0.249983
H427	H	1.035787	0.678658	0.499983
H428	H	1.285787	0.928658	0.749983
H429	H	-0.167636	0.164425	0.000107
H430	H	0.082364	0.414425	0.250107
H431	H	0.332364	0.664425	0.500107
H432	H	0.582364	0.914425	0.750107
H433	H	-0.141952	-0.023977	0.000137
H434	H	0.108048	0.226023	0.250137
H435	H	0.358048	0.476023	0.500137
H436	H	0.608048	0.726023	0.750137
N437	N	0.733970	0.012340	0.465987
N438	N	0.983970	0.262340	0.715987
N439	N	1.233970	0.512340	0.965987
N440	N	1.483970	0.762340	1.215987
H441	H	0.760796	0.032231	0.419325
H442	H	1.010796	0.282231	0.669325
H443	H	1.260796	0.532231	0.919325
H444	H	1.510796	0.782231	1.169325
H445	H	0.756654	-0.010426	0.518640
H446	H	1.006654	0.239574	0.768640
H447	H	1.256654	0.489574	1.018640
H448	H	1.506654	0.739574	1.268640
N449	N	0.566927	-0.199654	0.000098
N450	N	0.816927	0.050346	0.250098
N451	N	1.066927	0.300346	0.500098
N452	N	1.316927	0.550346	0.750098
H453	H	0.566769	-0.226429	-0.066131
H454	H	0.816769	0.023571	0.183869
H455	H	1.066769	0.273571	0.433869
H456	H	1.316769	0.523571	0.683869
H457	H	0.561896	-0.221508	0.066356
H458	H	0.811896	0.028492	0.316356
H459	H	1.061896	0.278492	0.566356
H460	H	1.311896	0.528492	0.816356
H461	H	0.621497	0.125088	0.519333
H462	H	0.871497	0.375088	0.769333
H463	H	1.121497	0.625088	1.019333
H464	H	1.371497	0.875088	1.269333
N465	N	-0.024486	-0.036319	0.000148
N466	N	0.225514	0.213681	0.250148
N467	N	0.475514	0.463681	0.500148
N468	N	0.725514	0.713681	0.750148
H469	H	0.002922	-0.040796	-0.066074
H470	H	0.252922	0.209204	0.183926
H471	H	0.502922	0.459204	0.433926
H472	H	0.752922	0.709204	0.683926
H473	H	-0.002012	-0.035855	0.066413
H474	H	0.247988	0.214145	0.316413
H475	H	0.497988	0.464145	0.566413
H476	H	0.747988	0.714145	0.816413
N477	N	0.132383	-0.086441	0.000203
N478	N	0.382383	0.163559	0.250203
N479	N	0.632383	0.413559	0.500203
N480	N	0.882383	0.663559	0.750203
H481	H	0.148264	-0.111476	-0.066006
H482	H	0.398264	0.138524	0.183994
H483	H	0.648264	0.388524	0.433994
H484	H	0.898264	0.638524	0.683994
H485	H	0.143376	-0.106505	0.066481
H486	H	0.393376	0.143495	0.316481
H487	H	0.643376	0.393495	0.566481
H488	H	0.893376	0.643495	0.816481
N489	N	0.398523	-0.031252	0.000104
N490	N	0.648523	0.218748	0.250104
N491	N	0.898523	0.468748	0.500104
N492	N	1.148523	0.718748	0.750104
H493	H	0.430834	-0.063810	0.000105
H494	H	0.680834	0.186190	0.250105
H495	H	0.930834	0.436190	0.500105
H496	H	1.180834	0.686190	0.750105
H497	H	0.371743	-0.031355	0.066334
H498	H	0.621743	0.218645	0.316334
H499	H	0.871743	0.468645	0.566334
H500	H	1.121743	0.718645	0.816334
H501	H	0.582038	-0.085905	0.000118
H502	H	0.832038	0.164095	0.250118
H503	H	1.082038	0.414095	0.500118
H504	H	1.332038	0.664095	0.750118
N505	N	0.521992	-0.029774	0.000106
N506	N	0.771992	0.220226	0.250106
N507	N	1.021992	0.470226	0.500106
N508	N	1.271992	0.720226	0.750106
H509	H	0.563053	-0.021386	0.000104
H510	H	0.813053	0.228614	0.250104
H511	H	1.063053	0.478614	0.500104
H512	H	1.313053	0.728614	0.750104
H513	H	0.512252	-0.050112	0.066342
H514	H	0.762252	0.199888	0.316342
H515	H	1.012252	0.449888	0.566342
H516	H	1.262252	0.699888	0.816342
H517	H	0.770437	-0.111581	0.000167
H518	H	1.020437	0.138419	0.250167
H519	H	1.270437	0.388419	0.500167
H520	H	1.520437	0.638419	0.750167
N521	N	0.560389	-0.746116	0.000070
N522	N	0.810389	-0.496116	0.250070
N523	N	1.060389	-0.246116	0.500070
N524	N	1.310389	0.003884	0.750070
H525	H	0.527834	-0.713803	0.000069
H526	H	0.777834	-0.463803	0.250069
H527	H	1.027834	-0.213803	0.500069
H528	H	1.277834	0.036197	0.750069
H529	H	0.560277	-0.772903	-0.066155
H530	H	0.810277	-0.522903	0.183845
H531	H	1.060277	-0.272903	0.433845
H532	H	1.310277	-0.022903	0.683845
N533	N	0.561869	-0.622657	0.000054
N534	N	0.811869	-0.372657	0.250054
N535	N	1.061869	-0.122657	0.500054
N536	N	1.311869	0.127343	0.750054
H537	H	0.541495	-0.632353	-0.066169
H538	H	0.791495	-0.382353	0.183831
H539	H	1.041495	-0.132353	0.433831
H540	H	1.291495	0.117647	0.683831
H541	H	0.536642	-0.627471	0.066318
H542	H	0.786642	-0.377471	0.316318
H543	H	1.036642	-0.127471	0.566318
H544	H	1.286642	0.122529	0.816318
N545	N	0.511738	-0.465795	0.000031
N546	N	0.761738	-0.215795	0.250031
N547	N	1.011738	0.034205	0.500031
N548	N	1.261738	0.284205	0.750031
H549	H	0.479186	-0.433479	0.000023
H550	H	0.729186	-0.183479	0.250023
H551	H	0.979186	0.066521	0.500023
H552	H	1.229186	0.316521	0.750023
H553	H	0.511627	-0.492582	-0.066193
H554	H	0.761627	-0.242582	0.183807
H555	H	1.011627	0.007418	0.433807
H556	H	1.261627	0.257418	0.683807
N557	N	0.513222	-0.342341	0.000014
N558	N	0.763222	-0.092341	0.250014
N559	N	1.013222	0.157659	0.500014
N560	N	1.263222	0.407659	0.750014
H561	H	0.480000	-0.365691	0.000001
H562	H	0.730000	-0.115691	0.250001
H563	H	0.980000	0.134309	0.500001
H564	H	1.230000	0.384309	0.750001
H565	H	0.508799	-0.314939	0.066240
H566	H	0.758799	-0.064939	0.316240
H567	H	1.008799	0.185061	0.566240
H568	H	1.258799	0.435061	0.816240
