data_functionalizedCrystal
_audit_creation_method	'MofGen! by Chris Wilmer'
_symmetry_space_group_name_H-M	'P1'
_symmetry_Int_Tables_number	1
_symmetry_cell_setting	triclinic
loop_
_symmetry_equiv_pos_as_xyz
  x,y,z
_cell_length_a	18.101395
_cell_length_b	12.759401
_cell_length_c	12.759393
_cell_angle_alpha	89.981504
_cell_angle_beta	89.966555
_cell_angle_gamma	90.031265
loop_
_atom_site_label
_atom_site_type_symbol
_atom_site_fract_x
_atom_site_fract_y
_atom_site_fract_z
Zn1	Zn	-0.294783	1.606136	-0.593968
Zn2	Zn	-0.418644	1.605980	-0.418282
Zn3	Zn	-0.294822	1.430438	-0.418307
Zn4	Zn	-0.418587	1.430376	-0.593923
O5	O	-0.356709	1.518232	-0.506120
O6	O	-0.311221	1.753136	-0.570671
O7	O	-0.402259	1.582654	-0.271264
O8	O	-0.191183	1.453835	-0.441638
O9	O	-0.402221	1.753021	-0.441595
O10	O	-0.191155	1.582920	-0.570695
O11	O	-0.311287	1.453684	-0.271283
O12	O	-0.311232	1.283408	-0.441595
O13	O	-0.402124	1.453730	-0.740950
O14	O	-0.402162	1.283363	-0.570619
O15	O	-0.311166	1.582860	-0.740983
O16	O	-0.522270	1.582594	-0.441552
O17	O	-0.522228	1.453579	-0.570595
C18	C	-0.356695	1.245265	-0.506106
C19	C	-0.356707	1.128488	-0.506125
C20	C	-0.404131	1.073630	-0.573197
C21	C	-0.404140	0.963906	-0.573208
C22	C	-0.309301	0.963908	-0.439066
C23	C	-0.309288	1.073630	-0.439061
C24	C	-0.451550	1.128488	-0.640260
C25	C	-0.498977	1.073630	-0.707337
C26	C	-0.498987	0.963906	-0.707348
C27	C	-0.451568	0.909040	-0.640283
C28	C	-0.549120	1.518092	-0.506089
C29	C	-0.631434	1.518128	-0.506111
C30	C	-0.930525	1.518358	-0.506168
C31	C	-0.899204	1.437374	-0.587559
C32	C	-0.813586	1.436989	-0.587305
C33	C	-0.782142	1.518244	-0.506140
C34	C	-0.813302	1.488263	-0.395415
C35	C	-0.898947	1.487741	-0.395903
C36	C	-0.898866	1.629501	-0.534526
C37	C	-0.813215	1.628847	-0.536954
C38	C	-0.698283	1.518181	-0.506118
C39	C	-1.014384	1.518418	-0.506182
C40	C	-0.163547	1.518402	-0.506174
C41	C	-0.081233	1.518474	-0.506197
C42	C	-0.356634	1.518306	-0.780153
C43	C	-0.356602	1.518337	-0.896930
C44	C	-0.356723	1.792265	-0.506135
C45	C	-0.356729	1.909042	-0.506141
C46	C	-0.309236	1.585584	-0.951811
C47	C	-0.309209	1.585609	-1.061535
C48	C	-0.403922	1.451137	-1.061488
C49	C	-0.403944	1.451108	-0.951766
C50	C	-0.261894	1.652814	-0.896975
C51	C	-0.214524	1.720068	-0.951856
C52	C	-0.214497	1.720092	-1.061580
C53	C	-0.261840	1.652864	-1.116423
C54	C	-0.356730	1.518219	-0.233153
C55	C	-0.356553	1.518392	-0.116376
H56	H	-0.919745	1.455945	-0.669927
H57	H	-0.451549	1.217831	-0.640256
H58	H	-0.175974	1.774796	-0.907195
H59	H	-0.792516	1.455746	-0.669407
H60	H	-0.918992	1.406496	-0.371879
H61	H	-0.792936	1.545393	-0.333119
H62	H	-0.792845	1.651456	-0.618442
H63	H	-0.442503	1.396333	-0.907081
O64	O	-0.261916	1.653008	-0.790391
C65	C	-0.280972	1.753679	-0.753772
H66	H	-0.268315	1.814199	-0.817037
H67	H	-0.247583	1.772399	-0.680391
H68	H	-0.342423	1.755846	-0.734276
H69	H	-0.791919	1.407879	-0.370962
O70	O	-0.787635	1.704509	-0.471268
C71	C	-0.740826	1.658887	-0.395686
H72	H	-0.754627	1.572101	-0.387334
H73	H	-0.749151	1.699735	-0.317116
H74	H	-0.680852	1.667936	-0.421488
O75	O	-0.263354	0.910570	-0.373801
C76	C	-0.305473	0.847040	-0.305860
H77	H	-0.363790	0.880075	-0.299232
H78	H	-0.278626	0.845782	-0.225070
H79	H	-0.308061	0.763893	-0.338338
H80	H	-0.920792	1.355493	-0.569012
O81	O	-0.168459	1.785514	-1.114730
C82	C	-0.126667	1.844821	-1.042798
H83	H	-0.157020	1.848409	-0.964573
H84	H	-0.118768	1.927614	-1.074508
H85	H	-0.070422	1.806400	-1.031145
H86	H	-0.442466	1.396402	-1.106150
O87	O	-0.545010	1.127084	-0.772385
C88	C	-0.534822	1.235692	-0.758014
H89	H	-0.510499	1.250659	-0.676993
H90	H	-0.590296	1.277361	-0.764998
H91	H	-0.495433	1.266878	-0.820427
O92	O	-0.545122	0.910778	-0.772539
C93	C	-0.586955	0.982730	-0.831746
H94	H	-0.589473	1.060924	-0.788698
H95	H	-0.645316	0.951000	-0.842806
H96	H	-0.559903	0.994448	-0.911607
H97	H	-0.261806	1.652878	-1.205768
O98	O	-0.789307	1.338639	-0.565012
C99	C	-0.815552	1.268295	-0.641643
H100	H	-0.866964	1.302330	-0.680360
H101	H	-0.829944	1.190296	-0.603087
H102	H	-0.770970	1.255377	-0.703444
H103	H	-0.919669	1.544168	-0.333192
H104	H	-0.451573	0.819695	-0.640307
H105	H	-0.920408	1.656833	-0.613890
O106	O	-0.263206	1.126764	-0.373800
C107	C	-0.221350	1.054819	-0.314616
H108	H	-0.251684	0.976583	-0.310911
H109	H	-0.213386	1.086496	-0.231856
H110	H	-0.165135	1.043202	-0.353223
O111	O	-0.923126	1.701363	-0.463752
C112	C	-0.968458	1.651510	-0.388912
H113	H	-0.991877	1.576181	-0.423609
H114	H	-1.015750	1.705970	-0.366275
H115	H	-0.934404	1.632069	-0.316338
