data_functionalizedCrystal
_audit_creation_method	'MofGen! by Chris Wilmer'
_symmetry_space_group_name_H-M	'P1'
_symmetry_Int_Tables_number	1
_symmetry_cell_setting	triclinic
loop_
_symmetry_equiv_pos_as_xyz
  x,y,z
_cell_length_a	27.732048
_cell_length_b	14.750779
_cell_length_c	27.732066
_cell_angle_alpha	102.532756
_cell_angle_beta	97.353622
_cell_angle_gamma	102.540316
loop_
_atom_site_label
_atom_site_type_symbol
_atom_site_fract_x
_atom_site_fract_y
_atom_site_fract_z
O1	O	0.630377	-0.079696	-0.068065
O2	O	1.130377	0.420304	0.431935
O3	O	0.489581	-0.079724	-0.076814
O4	O	0.989581	0.420276	0.423186
O5	O	0.564347	-0.079712	-0.002044
O6	O	1.064347	0.420288	0.497956
O7	O	0.555611	-0.079708	-0.142836
O8	O	1.055611	0.420292	0.357164
O9	O	0.585482	0.079942	0.019090
O10	O	1.085482	0.579942	0.519090
O11	O	0.510716	0.079930	-0.055680
O12	O	1.010716	0.579930	0.444320
O13	O	0.651513	0.079958	-0.046931
O14	O	1.151513	0.579958	0.453069
Zn15	Zn	0.584470	0.105292	-0.047950
Zn16	Zn	1.084470	0.605292	0.452050
Zn17	Zn	0.556623	-0.105058	-0.075795
Zn18	Zn	1.056623	0.394942	0.424205
O19	O	0.576747	0.079946	-0.121701
O20	O	1.076747	0.579946	0.378299
C21	C	0.482141	0.000099	-0.066064
C22	C	0.982141	0.500099	0.433936
C23	C	0.428485	0.000088	-0.065513
C24	C	0.928485	0.500088	0.434487
N25	N	0.603478	0.248851	-0.028946
N26	N	1.103478	0.748851	0.471054
N27	N	0.537619	-0.248617	-0.094796
N28	N	1.037619	0.251383	0.405204
C29	C	0.089678	0.000131	-0.106210
C30	C	0.589678	0.500131	0.393790
C31	C	-0.111981	0.000140	-0.104158
C32	C	0.388019	0.500140	0.395842
O33	O	-0.143228	0.000182	-0.141373
O34	O	0.356772	0.500182	0.358627
N35	N	-0.131108	0.000137	-0.059824
N36	N	0.368892	0.500137	0.440176
C37	C	-0.099816	0.000138	-0.015999
C38	C	0.400184	0.500138	0.484001
O39	O	-0.120710	0.000145	0.021759
O40	O	0.379290	0.500145	0.521759
C41	C	0.101843	0.000136	-0.018050
C42	C	0.601843	0.500136	0.481950
C43	C	0.120965	0.000129	-0.062389
C44	C	0.620965	0.500129	0.437611
C45	C	0.108801	0.000126	-0.150545
C46	C	0.608801	0.500126	0.349455
C47	C	0.159212	0.000118	-0.151058
C48	C	0.659212	0.500118	0.348942
C49	C	0.190500	0.000116	-0.107237
C50	C	0.690500	0.500116	0.392763
C51	C	0.171376	0.000122	-0.062902
C52	C	0.671376	0.500122	0.437098
C53	C	0.133135	0.000144	0.025775
C54	C	0.633135	0.500144	0.525775
C55	C	0.183552	0.000146	0.025259
C56	C	0.683552	0.500146	0.525259
C57	C	0.202675	0.000140	-0.019080
C58	C	0.702675	0.500140	0.480920
C59	C	0.253075	0.000113	-0.019594
C60	C	0.753075	0.500113	0.480406
N61	N	0.272202	0.000116	-0.063928
N62	N	0.772202	0.500116	0.436072
C63	C	0.240915	0.000118	-0.107750
C64	C	0.740915	0.500118	0.392250
C65	C	-0.205690	0.000137	-0.014925
C66	C	0.294310	0.500137	0.485075
C67	C	-0.256105	0.000135	-0.014412
C68	C	0.243895	0.500135	0.485588
C69	C	-0.268266	0.000139	-0.102572
C70	C	0.231734	0.500139	0.397428
C71	C	-0.217851	0.000134	-0.103085
C72	C	0.282149	0.500134	0.396915
C73	C	-0.186563	0.000140	-0.059259
C74	C	0.313437	0.500140	0.440741
C75	C	0.346782	0.000101	-0.108824
C76	C	0.846782	0.500101	0.391176
C77	C	0.397197	0.000090	-0.109334
C78	C	0.897197	0.500090	0.390666
C79	C	0.409355	0.000092	-0.021174
C80	C	0.909355	0.500092	0.478826
C81	C	0.358943	0.000098	-0.020665
C82	C	0.858943	0.500098	0.479335
C83	C	0.327658	0.000106	-0.064493
C84	C	0.827658	0.500106	0.435507
O85	O	0.284352	0.000081	0.017602
O86	O	0.784352	0.500081	0.517602
O87	O	0.261821	0.000132	-0.145499
O88	O	0.761821	0.500132	0.354501
C89	C	0.039267	0.000139	-0.105697
C90	C	0.539267	0.500139	0.394303
C91	C	0.020143	0.000144	-0.061362
C92	C	0.520143	0.500144	0.438638
C93	C	0.051431	0.000142	-0.017541
C94	C	0.551431	0.500142	0.482459
C95	C	-0.030271	0.000143	-0.060850
C96	C	0.469729	0.500143	0.439150
C97	C	-0.061559	0.000145	-0.104671
C98	C	0.438441	0.500145	0.395329
C99	C	-0.042432	0.000148	-0.149006
C100	C	0.457568	0.500148	0.350994
C101	C	0.007979	0.000140	-0.149519
C102	C	0.507979	0.500140	0.350481
C103	C	0.032304	0.000139	0.026794
C104	C	0.532304	0.500139	0.526794
C105	C	-0.018108	0.000146	0.027303
C106	C	0.481892	0.500146	0.527303
C107	C	-0.049395	0.000147	-0.016518
C108	C	0.450605	0.500147	0.483482
C109	C	0.658952	0.000133	-0.057681
C110	C	1.158952	0.500133	0.442319
C111	C	0.712608	0.000137	-0.058234
C112	C	1.212608	0.500137	0.441766
C113	C	0.574729	0.000112	0.026530
C114	C	1.074729	0.500112	0.526530
C115	C	0.574172	0.000104	0.080183
C116	C	1.074172	0.500104	0.580183
C117	C	0.484532	0.600650	-0.147850
C118	C	0.984532	1.100650	0.352150
C119	C	0.497855	0.701152	-0.134536
C120	C	0.997855	1.201152	0.365464
C121	C	0.564074	0.701125	-0.068351
C122	C	1.064074	1.201125	0.431649
C123	C	0.550754	0.600622	-0.081658
C124	C	1.050754	1.100622	0.418342
C125	C	0.510983	0.550392	-0.121408
C126	C	1.010983	1.050392	0.378592
C127	C	0.577206	0.550363	-0.055216
C128	C	1.077206	1.050363	0.444784
C129	C	0.563889	0.449869	-0.068523
C130	C	1.063889	0.949869	0.431477
C131	C	0.524121	0.399633	-0.108273
C132	C	1.024121	0.899633	0.391727
C133	C	0.497667	0.449898	-0.134715
C134	C	0.997667	0.949898	0.365285
C135	C	0.616979	0.600594	-0.015468
C136	C	1.116979	1.100594	0.484532
C137	C	0.643431	0.550336	0.010974
C138	C	1.143431	1.050336	0.510974
C139	C	0.630112	0.449840	-0.002331
C140	C	1.130112	0.949840	0.497669
C141	C	0.590344	0.399604	-0.042080
C142	C	1.090344	0.899604	0.457920
C143	C	0.656566	0.399575	0.024112
C144	C	1.156566	0.899575	0.524112
C145	C	0.643249	0.299080	0.010804
C146	C	1.143249	0.799080	0.510804
C147	C	0.577027	0.299109	-0.055388
C148	C	1.077027	0.799109	0.444612
C149	C	0.526201	0.000095	0.457254
C150	C	1.026201	0.500095	0.957254
C151	C	0.528248	0.000091	0.255594
C152	C	1.028248	0.500091	0.755594
O153	O	0.491022	0.000045	0.224335
O154	O	0.991022	0.500045	0.724335
N155	N	0.572584	0.000100	0.236467
N156	N	1.072584	0.500100	0.736467
C157	C	0.616410	0.000103	0.267759
C158	C	1.116410	0.500103	0.767759
O159	O	0.654166	0.000100	0.246862
O160	O	1.154166	0.500100	0.746862
C161	C	0.614362	0.000099	0.469417
C162	C	1.114362	0.500099	0.969417
C163	C	0.570025	0.000100	0.488542
C164	C	1.070025	0.500100	0.988542
C165	C	0.481868	0.000095	0.476379
C166	C	0.981868	0.500095	0.976379
C167	C	0.481357	0.000101	0.526792
C168	C	0.981357	0.500101	1.026792
C169	C	0.525180	0.000107	0.558080
C170	C	1.025180	0.500107	1.058080
C171	C	0.569514	0.000106	0.538955
C172	C	1.069514	0.500106	1.038955
C173	C	0.658186	0.000095	0.500707
C174	C	1.158186	0.500095	1.000707
C175	C	0.657670	0.000092	0.551124
C176	C	1.157670	0.500092	1.051124
C177	C	0.613333	0.000093	0.570249
C178	C	1.113333	0.500093	1.070249
C179	C	0.612826	0.000118	0.620656
C180	C	1.112826	0.500118	1.120656
N181	N	0.568491	0.000110	0.639782
N182	N	1.068491	0.500110	1.139782
C183	C	0.524668	0.000104	0.608494
C184	C	1.024668	0.500104	1.108494
C185	C	0.617483	0.000107	0.161885
C186	C	1.117483	0.500107	0.661885
C187	C	0.617995	0.000109	0.111471
C188	C	1.117995	0.500109	0.611471
C189	C	0.529833	0.000096	0.099309
C190	C	1.029833	0.500096	0.599309
C191	C	0.529322	0.000100	0.149725
C192	C	1.029322	0.500100	0.649725
C193	C	0.573147	0.000098	0.181011
C194	C	1.073147	0.500098	0.681011
C195	C	0.523599	0.000117	0.714365
C196	C	1.023599	0.500117	1.214365
C197	C	0.523093	0.000127	0.764784
C198	C	1.023093	0.500127	1.264784
C199	C	0.611254	0.000135	0.776940
C200	C	1.111254	0.500135	1.276940
C201	C	0.611761	0.000130	0.726527
C202	C	1.111761	0.500130	1.226527
C203	C	0.567929	0.000118	0.695240
C204	C	1.067929	0.500118	1.195240
O205	O	0.650032	0.000153	0.651941
O206	O	1.150032	0.500153	1.151941
O207	O	0.486915	0.000085	0.629397
O208	O	0.986915	0.500085	1.129397
C209	C	0.526712	0.000089	0.406841
C210	C	1.026712	0.500089	0.906841
C211	C	0.571046	0.000088	0.387716
C212	C	1.071046	0.500088	0.887716
C213	C	0.614869	0.000094	0.419004
C214	C	1.114869	0.500094	0.919004
C215	C	0.571558	0.000091	0.337302
C216	C	1.071558	0.500091	0.837302
C217	C	0.527735	0.000085	0.306014
C218	C	1.027735	0.500085	0.806014
C219	C	0.483400	0.000077	0.325141
C220	C	0.983400	0.500077	0.825141
C221	C	0.482889	0.000083	0.375553
C222	C	0.982889	0.500083	0.875553
C223	C	0.659204	0.000103	0.399878
C224	C	1.159204	0.500103	0.899878
C225	C	0.659711	0.000098	0.349465
C226	C	1.159711	0.500098	0.849465
C227	C	0.615888	0.000092	0.318177
C228	C	1.115888	0.500092	0.818177
C229	C	0.566363	0.000123	0.849725
C230	C	1.066363	0.500123	1.349725
C231	C	0.566916	0.000133	0.796072
C232	C	1.066916	0.500133	1.296072
H233	H	0.412764	0.000084	-0.145442
H234	H	0.912764	0.500084	0.354558
O235	O	0.476326	0.000121	0.680627
O236	O	0.976326	0.500121	1.180627
H237	H	0.446471	-0.064943	0.678781
H238	H	0.946471	0.435057	1.178781
H239	H	0.493219	0.000105	0.165293
H240	H	0.993219	0.500105	0.665293
H241	H	0.321315	0.000111	-0.144513
H242	H	0.821315	0.500111	0.355487
H243	H	0.675814	0.591245	0.043338
H244	H	1.175814	1.091245	0.543338
O245	O	0.454770	0.395708	-0.177588
O246	O	0.954770	0.895708	0.322412
H247	H	0.438612	0.447537	-0.193743
H248	H	0.938612	0.947537	0.306257
H249	H	0.445252	0.000094	0.542357
H250	H	0.945252	0.500094	1.042357
O251	O	-0.197227	0.000146	-0.150905
O252	O	0.302773	0.500146	0.349095
H253	H	-0.218440	-0.064920	-0.180560
H254	H	0.281560	0.435080	0.319440
O255	O	0.664756	0.000123	0.195630
O256	O	1.164756	0.500123	0.695630
H257	H	0.695669	0.000143	0.173857
H258	H	1.195669	0.500143	0.673857
H259	H	0.057774	0.000140	0.062480
H260	H	0.557774	0.500140	0.562480
O261	O	0.665817	0.000107	0.090848
O262	O	1.165817	0.500107	0.590848
H263	H	0.695474	0.065174	0.112059
H264	H	1.195474	0.565174	0.612059
H265	H	0.209025	0.000152	0.060948
H266	H	0.709025	0.500152	0.560948
H267	H	0.476312	0.742067	-0.156073
H268	H	0.976312	1.242067	0.343927
O269	O	0.441624	0.546481	-0.190716
O270	O	0.941624	1.046481	0.309284
H271	H	0.412220	0.500716	-0.176581
H272	H	0.912220	1.000716	0.323419
O273	O	0.338315	0.000099	0.027157
O274	O	0.838315	0.500099	0.527157
H275	H	0.324259	0.065177	0.038111
H276	H	0.824259	0.565177	0.538111
H277	H	0.695820	0.000104	0.333900
H278	H	1.195820	0.500104	0.833900
O279	O	0.435068	0.000078	0.396178
O280	O	0.935068	0.500078	0.896178
H281	H	0.404684	0.000066	0.365944
H282	H	0.904684	0.500066	0.865944
O283	O	0.179839	0.000140	-0.198877
O284	O	0.679839	0.500140	0.301123
H285	H	0.149609	0.000158	-0.229256
H286	H	0.649609	0.500158	0.270744
H287	H	-0.293749	0.000141	-0.138253
H288	H	0.206251	0.500141	0.361747
O289	O	0.631345	0.708986	-0.001118
O290	O	1.131345	1.208986	0.498882
H291	H	0.663449	0.735471	0.030958
H292	H	1.163449	1.235471	0.530958
H293	H	-0.067916	0.000145	-0.184687
H294	H	0.432084	0.500145	0.315313
O295	O	0.475270	0.000135	0.785411
O296	O	0.975270	0.500135	1.285411
H297	H	0.464312	-0.064929	0.799482
H298	H	0.964312	0.435071	1.299482
H299	H	0.694290	0.000093	0.485145
H300	H	1.194290	0.500093	0.985145
H301	H	0.693358	0.000085	0.576595
H302	H	1.193358	0.500085	1.076595
H303	H	0.434837	0.000086	0.014504
H304	H	0.934837	0.500086	0.514504
H305	H	0.688951	0.440485	0.056474
H306	H	1.188951	0.940485	0.556474
O307	O	0.509755	0.291241	-0.122628
O308	O	1.009755	0.791241	0.377372
H309	H	0.470192	0.264758	-0.118657
H310	H	0.970192	0.764758	0.381343
O311	O	-0.276729	0.000141	0.033409
O312	O	0.223271	0.500141	0.533409
H313	H	-0.246497	0.000152	0.063794
H314	H	0.253503	0.500152	0.563794
H315	H	0.447718	0.000078	0.299658
H316	H	0.947718	0.500078	0.799658
H317	H	0.647866	0.000143	0.710957
H318	H	1.147866	0.500143	1.210957
H319	H	0.544638	0.258211	-0.087753
H320	H	1.044638	0.758211	0.412247
O321	O	0.606967	0.755301	-0.025478
O322	O	1.106967	1.255301	0.474522
H323	H	0.611782	0.833625	-0.020664
H324	H	1.111782	1.333625	0.479336
H325	H	0.664790	0.258160	0.032336
H326	H	1.164790	0.758160	0.532336
H327	H	0.023544	0.000136	-0.185624
H328	H	0.523544	0.500136	0.314376
O329	O	0.434600	0.000104	0.442638
O330	O	0.934600	0.500104	0.942638
H331	H	0.403692	0.000114	0.464416
H332	H	0.903692	0.500114	0.964416
O333	O	0.482564	0.000081	0.065558
O334	O	0.982564	0.500081	0.565558
H335	H	0.490372	0.000075	0.027289
H336	H	0.990372	0.500075	0.527289
O337	O	0.075062	0.000124	-0.197817
O338	O	0.575062	0.500124	0.302183
H339	H	0.060421	0.065198	-0.191087
H340	H	0.560421	0.565198	0.308913
O341	O	0.658520	0.000144	0.810691
O342	O	1.158520	0.500144	1.310691
H343	H	0.650710	0.000138	0.848958
H344	H	1.150710	0.500138	1.348958
O345	O	0.706477	0.000126	0.433621
O346	O	1.206477	0.500126	0.933621
H347	H	0.719103	-0.064936	0.418247
H348	H	1.219103	0.435064	0.918247
O349	O	-0.171946	0.000144	0.032348
O350	O	0.328054	0.500144	0.532348
H351	H	-0.187324	-0.064934	0.044965
H352	H	0.312676	0.435066	0.544965
O353	O	0.112519	0.000171	0.073601
O354	O	0.612519	0.500171	0.573601
H355	H	0.142754	0.000188	0.103984
H356	H	0.642754	0.500188	0.603984
O357	O	-0.038730	0.000162	0.075130
O358	O	0.461270	0.500162	0.575130
H359	H	-0.008498	0.000173	0.105514
H360	H	0.491502	0.500173	0.605514
