data_functionalizedCrystal
_audit_creation_method	'MofGen! by Chris Wilmer'
_symmetry_space_group_name_H-M	'P1'
_symmetry_Int_Tables_number	1
_symmetry_cell_setting	triclinic
loop_
_symmetry_equiv_pos_as_xyz
  x,y,z
_cell_length_a	16.959455
_cell_length_b	12.759400
_cell_length_c	12.759401
_cell_angle_alpha	89.990457
_cell_angle_beta	89.990094
_cell_angle_gamma	90.012866
loop_
_atom_site_label
_atom_site_type_symbol
_atom_site_fract_x
_atom_site_fract_y
_atom_site_fract_z
Zn1	Zn	-1.208342	0.418484	0.594171
Zn2	Zn	-1.208298	0.594135	0.418491
Zn3	Zn	-1.076192	0.418465	0.418490
Zn4	Zn	-1.076148	0.594116	0.594112
O5	O	-1.142245	0.506300	0.506316
O6	O	-1.318947	0.441800	0.570892
O7	O	-1.190774	0.570832	0.271470
O8	O	-1.093758	0.271446	0.441818
O9	O	-1.318915	0.570850	0.441821
O10	O	-1.190849	0.271460	0.570891
O11	O	-1.093716	0.441768	0.271469
O12	O	-0.965575	0.441750	0.441761
O13	O	-1.093684	0.570817	0.741141
O14	O	-0.965543	0.570799	0.570790
O15	O	-1.190806	0.441781	0.741184
O16	O	-1.190731	0.741153	0.441764
O17	O	-1.093641	0.741139	0.570791
C18	C	-0.936879	0.506271	0.506269
C19	C	-0.849022	0.506284	0.506274
C20	C	-0.807741	0.438997	0.439201
C21	C	-0.807749	0.573577	0.573359
C22	C	-0.725203	0.573588	0.573370
C23	C	-0.683923	0.506301	0.506297
C24	C	-0.725188	0.439004	0.439212
C25	C	-0.683932	0.640876	0.640462
C26	C	-0.601381	0.640889	0.640476
C27	C	-0.560099	0.573607	0.573396
C28	C	-0.601369	0.506307	0.506308
C29	C	-0.560088	0.439021	0.439234
C30	C	-0.601357	0.371726	0.372139
C31	C	-0.683906	0.371721	0.372132
C32	C	-0.477550	0.573611	0.573404
C33	C	-0.477535	0.439027	0.439245
C34	C	-1.142198	0.779267	0.506294
C35	C	-1.142250	0.896044	0.506320
C36	C	-1.142245	0.506299	0.780349
C37	C	-1.142245	0.506299	0.897126
C38	C	-0.348413	0.506325	0.506350
C39	C	-0.436270	0.506324	0.506330
C40	C	-1.142313	0.232266	0.506361
C41	C	-1.142343	0.115490	0.506380
C42	C	-1.192861	0.950878	0.439209
C43	C	-1.192910	1.060602	0.439242
C44	C	-1.091729	1.060648	0.573498
C45	C	-1.091686	0.950926	0.573470
C46	C	-1.243426	0.895997	0.372059
C47	C	-1.294040	0.950831	0.304943
C48	C	-1.294089	1.060555	0.304975
C49	C	-1.243523	1.115445	0.372124
C50	C	-1.192813	0.439124	0.952012
C51	C	-1.192809	0.439129	1.061736
C52	C	-1.091668	0.573491	1.061678
C53	C	-1.091668	0.573480	0.951956
C54	C	-1.243389	0.371943	0.897182
C55	C	-1.293962	0.304764	0.952069
C56	C	-1.293958	0.304768	1.061793
C57	C	-1.243382	0.371951	1.116630
C58	C	-1.142240	0.506321	1.233349
C59	C	-1.142242	0.506313	1.116572
H60	H	-0.443930	0.384234	0.384623
H61	H	-0.567787	0.695686	0.695107
Cl62	Cl	-1.357536	0.220320	1.130790
H63	H	-1.050474	0.906279	0.628119
H64	H	-1.243390	0.806654	0.372022
Cl65	Cl	-1.028095	0.657928	0.882951
Cl66	Cl	-1.357613	0.881830	0.220542
Cl67	Cl	-1.243369	0.371940	1.254571
Cl68	Cl	-0.859645	0.658169	0.657668
Cl69	Cl	-0.549452	0.287132	0.287829
H70	H	-1.243573	1.204789	0.372153
H71	H	-0.717514	0.316933	0.317508
H72	H	-0.443953	0.628395	0.628038
H73	H	-0.841346	0.384210	0.384571
Cl74	Cl	-1.243400	0.371937	0.759244
Cl75	Cl	-1.357724	1.129488	0.220611
Cl76	Cl	-1.028163	1.129652	0.657904
Cl77	Cl	-1.357526	0.220294	0.883132
H78	H	-1.050492	0.628188	1.106336
H79	H	-0.717549	0.695654	0.695073
