data_functionalizedCrystal
_audit_creation_method	'MofGen! by Chris Wilmer'
_symmetry_space_group_name_H-M	'P1'
_symmetry_Int_Tables_number	1
_symmetry_cell_setting	triclinic
loop_
_symmetry_equiv_pos_as_xyz
  x,y,z
_cell_length_a	15.297475
_cell_length_b	16.994747
_cell_length_c	15.296720
_cell_angle_alpha	80.331298
_cell_angle_beta	88.382886
_cell_angle_gamma	80.317658
loop_
_atom_site_label
_atom_site_type_symbol
_atom_site_fract_x
_atom_site_fract_y
_atom_site_fract_z
Zn1	Zn	1.253489	-0.613951	0.726881
Zn2	Zn	1.278768	-0.727542	0.580449
Zn3	Zn	1.132361	-0.569635	0.555102
Zn4	Zn	1.106993	-0.719788	0.701574
O5	O	1.192903	-0.657729	0.641002
O6	O	1.379424	-0.650811	0.728656
O7	O	1.280543	-0.691294	0.454505
O8	O	1.148466	-0.465135	0.577872
O9	O	1.397996	-0.734266	0.621073
O10	O	1.237458	-0.497694	0.704077
O11	O	1.172978	-0.575280	0.435883
O12	O	1.006415	-0.567761	0.553332
O13	O	1.105231	-0.721050	0.827513
O14	O	0.987777	-0.678078	0.660945
O15	O	1.212861	-0.643292	0.846106
O16	O	1.255945	-0.836892	0.596534
O17	O	1.129743	-0.831195	0.685524
C18	C	0.965312	-0.617270	0.601643
C19	C	0.867944	-0.599983	0.584825
C20	C	1.192846	-0.862665	0.641032
C21	C	1.192852	-0.951988	0.641031
Zn22	Zn	1.132390	-1.200723	0.555081
Zn23	Zn	1.253535	-1.245018	0.726850
Zn24	Zn	1.107026	-1.087184	0.701565
Zn25	Zn	1.278789	-1.094797	0.580424
O26	O	1.192935	-1.156930	0.640980
O27	O	1.148506	-1.316983	0.577843
O28	O	1.212916	-1.239433	0.846079
O29	O	0.987807	-1.080521	0.660946
O30	O	1.237511	-1.349527	0.704040
O31	O	1.006442	-1.163937	0.553325
O32	O	1.105277	-1.123473	0.827503
O33	O	1.129765	-0.977809	0.685519
O34	O	1.280553	-1.093496	0.454478
O35	O	1.255958	-0.983402	0.596517
O36	O	1.172994	-1.171319	0.435859
O37	O	1.379468	-1.246815	0.728613
O38	O	1.398022	-1.136448	0.621035
C39	C	0.554824	-0.781288	0.761199
C40	C	0.646306	-0.797536	0.776997
C41	C	0.701720	-0.748149	0.728956
C42	C	0.665643	-0.682512	0.665113
C43	C	0.574152	-0.666266	0.649309
C44	C	0.721048	-0.633127	0.617065
C45	C	0.684971	-0.567490	0.553223
C46	C	0.593489	-0.551247	0.537422
C47	C	0.538075	-0.600634	0.585463
C48	C	0.812539	-0.649372	0.632870
C49	C	0.831867	-0.534350	0.520980
C50	C	0.740384	-0.518103	0.505181
C51	C	1.421383	-0.698347	0.680515
C52	C	1.518747	-0.715656	0.697353
C53	C	1.153396	-0.686250	0.869482
C54	C	1.136561	-0.698403	0.966847
C55	C	1.192966	-0.451993	0.640967
C56	C	1.192996	-0.362674	0.640953
C57	C	1.232306	-0.629272	0.413419
C58	C	1.249311	-0.616926	0.316084
C59	C	1.313261	-0.570732	1.280025
C60	C	1.329084	-0.559315	1.188547
C61	C	1.280954	-0.594086	1.133118
C62	C	1.216999	-0.640276	1.169175
C63	C	1.201179	-0.651699	1.260663
C64	C	1.168873	-0.675053	1.113756
C65	C	1.104918	-0.721243	1.149813
C66	C	1.089100	-0.732664	1.241292
C67	C	1.137230	-0.697893	1.296722
C68	C	1.184693	-0.663630	1.022268
C69	C	1.072612	-0.744597	1.002906
C70	C	1.056788	-0.756014	1.094384
C71	C	1.420529	-1.197267	0.680320
C72	C	1.517891	-1.214549	0.697176
C73	C	1.232420	-1.128316	0.412496
C74	C	1.249246	-1.116122	0.315129
C75	C	0.964452	-1.116439	0.601488
C76	C	0.867086	-1.099184	0.584659
C77	C	1.153541	-1.185467	0.868564
C78	C	1.136471	-1.197768	0.965888
C79	C	1.553935	-1.280164	0.761052
C80	C	1.645416	-1.296418	0.776890
C81	C	1.700851	-1.247053	0.728855
C82	C	1.664802	-1.181433	0.664971
C83	C	1.573323	-1.165184	0.649130
C84	C	1.201142	-1.150913	0.259705
C85	C	1.216934	-1.139452	0.168216
C86	C	1.280836	-1.093206	0.132154
C87	C	1.328942	-1.058411	0.187584
C88	C	1.313144	-1.069867	0.279071
C89	C	0.811654	-1.047644	0.632788
C90	C	0.720169	-1.031415	0.616976
C91	C	0.684115	-1.066732	0.553039
C92	C	0.739554	-1.118275	0.504905
C93	C	0.831039	-1.134499	0.520713
C94	C	1.072820	-1.142872	1.001952
C95	C	1.056764	-1.154426	1.093395
C96	C	1.104363	-1.220875	1.148773
C97	C	1.168017	-1.275777	1.112703
C98	C	1.184068	-1.264225	1.021261
H99	H	0.841904	-0.702814	0.684852
O100	O	1.359907	-1.036203	0.333012
C101	C	1.407387	-1.097767	0.395680
H102	H	1.374146	-1.153786	0.404046
H103	H	1.408013	-1.075771	0.462044
H104	H	1.478394	-1.113525	0.371625
H105	H	1.004933	-1.109713	1.122749
H106	H	1.149107	-1.188572	0.289054
O107	O	0.705475	-0.454295	0.443157
C108	C	0.773996	-0.414196	0.404122
H109	H	0.833016	-0.427573	0.451268
H110	H	0.749161	-0.346188	0.390308
H111	H	0.795219	-0.436402	0.339226
O112	O	1.088688	-1.231949	1.237586
C113	C	1.022285	-1.169250	1.257530
H114	H	1.019613	-1.114333	1.202832
H115	H	1.038185	-1.151951	1.323442
H116	H	0.955364	-1.190765	1.262443
O117	O	0.846525	-1.013236	0.694903
C118	C	0.777966	-0.964282	0.733996
H119	H	0.718956	-0.945502	0.686840
H120	H	0.802758	-0.907986	0.747920
H121	H	0.756745	-0.999771	0.798839
H122	H	1.293692	-1.083885	0.057658
H123	H	1.037031	-0.770282	1.270648
O124	O	0.994551	-0.800775	1.129355
C125	C	0.911119	-0.765237	1.091886
H126	H	0.911066	-0.698299	1.065961
H127	H	0.857440	-0.771847	1.144568
H128	H	0.897386	-0.796828	1.034833
H129	H	1.543983	-1.111750	0.597119
O130	O	1.170258	-1.173176	0.114252
C131	C	1.197907	-1.153169	0.025770
H132	H	1.228719	-1.095806	0.018229
H133	H	1.138293	-1.142551	-0.020327
H134	H	1.249065	-1.204969	0.007857
O135	O	1.245969	-1.317436	0.986147
C136	C	1.312146	-1.276338	0.943362
H137	H	1.284105	-1.209244	0.924440
H138	H	1.334945	-1.302457	0.881014
H139	H	1.370901	-1.284080	0.990032
H140	H	0.675042	-0.989446	0.656178
O141	O	1.246710	-0.618634	0.987272
C142	C	1.223735	-0.539416	1.006333
H143	H	1.149407	-0.526135	1.019374
H144	H	1.241699	-0.494273	0.947476
H145	H	1.261519	-0.533783	1.067559
O146	O	1.391281	-0.514554	1.153483
C147	C	1.456985	-0.562888	1.110320
H148	H	1.457643	-0.629419	1.138839
H149	H	1.524579	-0.546188	1.120911
H150	H	1.441865	-0.552142	1.036308
H151	H	0.675674	-0.850979	0.828976
O152	O	1.391018	-1.013551	0.152408
C153	C	1.394627	-1.010898	0.059774
H154	H	1.368099	-1.065120	0.042327
H155	H	1.466246	-1.012843	0.036334
H156	H	1.352455	-0.952587	0.025755
O157	O	0.790584	-0.763782	0.744308
C158	C	0.817242	-0.696477	0.772231
H159	H	0.767096	-0.639801	0.748229
H160	H	0.885269	-0.688335	0.743317
H161	H	0.820917	-0.706870	0.847723
H162	H	0.564119	-0.497808	0.485428
H163	H	1.033422	-0.772912	0.957775
O164	O	1.680571	-1.360143	0.838896
C165	C	1.773197	-1.363900	0.842601
H166	H	1.797402	-1.331791	0.777193
H167	H	1.806934	-1.429900	0.854507
H168	H	1.790156	-1.333047	0.899097
H169	H	1.508810	-1.320367	0.800175
O170	O	1.026704	-1.078257	0.948152
C171	C	1.086194	-1.029889	0.904164
H172	H	1.150358	-1.041198	0.943832
H173	H	1.055139	-0.963327	0.897789
H174	H	1.101188	-1.046028	0.835301
O175	O	1.214202	-1.340259	1.166634
C176	C	1.186363	-1.338681	1.255070
H177	H	1.155936	-1.274203	1.262723
H178	H	1.245803	-1.360482	1.301324
H179	H	1.134841	-1.380083	1.272676
O180	O	0.595221	-1.050917	0.537830
C181	C	0.554038	-0.997837	0.594013
H182	H	0.597925	-1.002550	0.654298
H183	H	0.487101	-1.014950	0.616685
H184	H	0.543785	-0.933091	0.556488
H185	H	1.775338	-1.260293	0.741763
O186	O	1.296430	-0.583148	1.044275
C187	C	1.324169	-0.658937	1.017630
H188	H	1.353193	-0.704912	1.076978
H189	H	1.376787	-0.653134	0.963720
H190	H	1.264958	-0.680050	0.990647
O191	O	0.704375	-1.152544	0.442861
C192	C	0.611744	-1.127153	0.439227
H193	H	0.587577	-1.107564	0.504679
H194	H	0.578009	-1.179327	0.427277
H195	H	0.594743	-1.074039	0.382789
O196	O	0.500867	-0.829156	0.807806
C197	C	0.412389	-0.800756	0.780146
H198	H	0.404840	-0.734053	0.749395
H199	H	0.366282	-0.808218	0.839743
H200	H	0.394497	-0.837030	0.728934
H201	H	0.876165	-1.176471	0.481521
O202	O	0.449180	-0.584888	0.570270
C203	C	0.404100	-0.569794	0.648968
H204	H	0.448112	-0.598982	0.708516
H205	H	0.340227	-0.596486	0.653912
H206	H	0.387507	-0.501711	0.648114
H207	H	0.876985	-0.494136	0.481859
H208	H	1.352446	-0.542432	1.325164
H209	H	1.124350	-0.707186	1.371212
H210	H	1.709951	-1.141244	0.625865
