data_functionalizedCrystal
_audit_creation_method	'MofGen! by Chris Wilmer'
_symmetry_space_group_name_H-M	'P1'
_symmetry_Int_Tables_number	1
_symmetry_cell_setting	triclinic
loop_
_symmetry_equiv_pos_as_xyz
  x,y,z
_cell_length_a	18.050591
_cell_length_b	29.839126
_cell_length_c	18.050589
_cell_angle_alpha	90.016881
_cell_angle_beta	89.975773
_cell_angle_gamma	89.974078
loop_
_atom_site_label
_atom_site_type_symbol
_atom_site_fract_x
_atom_site_fract_y
_atom_site_fract_z
Zn1	Zn	1.135329	-0.254103	0.295795
Zn2	Zn	1.135229	-0.178983	0.419976
Zn3	Zn	1.011138	-0.178978	0.295796
Zn4	Zn	1.011096	-0.254076	0.419939
O5	O	1.073198	-0.216535	0.357877
O6	O	1.239240	-0.244152	0.312283
O7	O	1.118743	-0.116115	0.403518
O8	O	1.027671	-0.188953	0.191871
O9	O	1.239167	-0.188961	0.403518
O10	O	1.118914	-0.244147	0.191871
O11	O	1.027574	-0.116111	0.312284
O12	O	0.907208	-0.188926	0.312248
O13	O	1.027601	-0.316947	0.403456
O14	O	0.907177	-0.244101	0.403456
O15	O	1.118874	-0.316967	0.312248
O16	O	1.118703	-0.188935	0.523896
O17	O	1.027504	-0.244105	0.523869
C18	C	0.880246	-0.216510	0.357849
C19	C	0.797700	-0.216510	0.357855
C20	C	0.598244	-0.186575	0.308199
C21	C	0.548823	-0.175523	0.375934
C22	C	0.646570	-0.216530	0.357878
C23	C	0.548909	-0.227582	0.290166
C24	C	0.500585	-0.216549	0.357893
C25	C	0.598236	-0.205456	0.425649
C26	C	0.598326	-0.257535	0.339834
C27	C	0.548927	-0.246498	0.407617
C28	C	0.730668	-0.216518	0.357867
C29	C	0.416488	-0.216561	0.357911
C30	C	1.073244	-0.333713	0.357848
C31	C	1.073264	-0.383648	0.357836
C32	C	1.025806	-0.693292	0.310256
C33	C	1.025828	-0.880965	0.310204
O34	O	0.985441	-0.905231	0.269824
N35	N	1.073299	-0.904433	0.357697
C36	C	1.120765	-0.880980	0.405209
O37	O	1.161137	-0.905247	0.445608
C38	C	1.120739	-0.693307	0.405264
C39	C	1.073270	-0.669842	0.357763
C40	C	0.978341	-0.669827	0.262759
C41	C	0.978339	-0.622911	0.262770
C42	C	1.025803	-0.599461	0.310277
C43	C	1.073268	-0.622927	0.357773
C44	C	1.168201	-0.669855	0.452779
C45	C	1.168189	-0.622934	0.452790
C46	C	1.120720	-0.599468	0.405289
C47	C	1.120730	-0.552561	0.405291
N48	N	1.073259	-0.529093	0.357798
C49	C	1.025795	-0.552543	0.310291
C50	C	1.120776	-0.979510	0.405176
C51	C	1.120783	-1.026428	0.405161
C52	C	1.025845	-1.026411	0.310157
C53	C	1.025842	-0.979492	0.310169
C54	C	1.073304	-0.956042	0.357683
C55	C	1.025795	-0.454017	0.310316
C56	C	1.025800	-0.407098	0.310329
C57	C	1.120735	-0.407119	0.405335
C58	C	1.120734	-0.454035	0.405320
C59	C	1.073258	-0.477483	0.357808
O60	O	1.161090	-0.528266	0.445656
O61	O	0.985417	-0.528268	0.269909
C62	C	1.025808	-0.740208	0.310245
C63	C	1.073274	-0.763673	0.357742
C64	C	1.120738	-0.740223	0.405249
C65	C	1.073282	-0.810591	0.357727
C66	C	1.025818	-0.834041	0.310220
C67	C	0.978346	-0.810573	0.262728
C68	C	0.978344	-0.763658	0.262738
C69	C	1.168209	-0.763690	0.452741
C70	C	1.168208	-0.810606	0.452726
C71	C	1.120744	-0.834056	0.405219
C72	C	1.266904	-0.216560	0.357905
C73	C	1.349449	-0.216571	0.357917
C74	C	1.073108	-0.216527	0.550829
C75	C	1.073138	-0.216539	0.633374
C76	C	1.073195	-0.099812	0.357851
C77	C	1.073319	-0.049878	0.357654
C78	C	1.073308	-0.216552	0.164171
C79	C	1.073355	-0.216560	0.081625
C80	C	1.023592	-0.246531	0.832838
C81	C	1.005489	-0.205535	0.882269
C82	C	1.073211	-0.216545	0.784505
C83	C	1.091351	-0.257545	0.882155
C84	C	1.073280	-0.216554	0.930490
C85	C	1.055072	-0.175528	0.832849
C86	C	1.140966	-0.227566	0.832731
C87	C	1.122888	-0.186542	0.882140
C88	C	1.073169	-0.216540	0.700407
C89	C	1.073322	-0.216555	1.014586
H90	H	0.527203	-0.236906	0.232903
O91	O	1.216889	-0.239875	0.804050
H92	H	1.231826	-0.273917	0.823822
H93	H	0.620087	-0.292193	0.324541
O94	O	0.626806	-0.193025	0.501531
H95	H	0.688294	-0.193095	0.500919
O96	O	0.626945	-0.152988	0.252612
H97	H	0.607118	-0.118984	0.267779
O98	O	1.111645	-0.303468	0.910843
H99	H	1.070339	-0.328287	0.891096
O100	O	0.974651	-1.051707	0.258913
H101	H	0.982634	-1.088273	0.266891
O102	O	1.178510	-0.152921	0.910638
H103	H	1.220908	-0.170465	0.944428
H104	H	0.987145	-0.387995	0.271645
O105	O	0.974598	-0.479305	0.259067
H106	H	0.941602	-0.455100	0.226039
O107	O	0.520011	-0.129604	0.396168
H108	H	0.539756	-0.104789	0.354845
H109	H	0.939682	-0.603810	0.224093
O110	O	0.520404	-0.280060	0.463333
H111	H	0.540263	-0.270787	0.519468
O112	O	0.927150	-0.695116	0.211510
H113	H	0.894153	-0.670910	0.178486
H114	H	0.987188	-0.960390	0.271489
O115	O	0.929631	-0.193188	0.911091
H116	H	0.933660	-0.162218	0.944922
O117	O	1.171988	-0.954225	0.456416
H118	H	1.159232	-0.963229	0.514698
H119	H	1.159446	-1.045530	0.443833
O120	O	1.219382	-0.695157	0.504031
H121	H	1.252367	-0.670961	0.537075
H122	H	1.206845	-0.603844	0.491478
H123	H	1.159395	-0.473141	0.443991
O124	O	1.171930	-0.381822	0.456571
H125	H	1.159162	-0.390820	0.514853
H126	H	0.939690	-0.744557	0.224058
O127	O	0.927160	-0.835870	0.211477
H128	H	0.935143	-0.872436	0.219455
O129	O	1.219400	-0.835914	0.503973
H130	H	1.252392	-0.811720	0.537015
H131	H	1.206858	-0.744602	0.491431
O132	O	0.967932	-0.280069	0.804147
H133	H	0.939881	-0.296544	0.851604
O134	O	1.034691	-0.129590	0.804289
H135	H	1.034792	-0.129952	0.742801
