data_functionalizedCrystal
_audit_creation_method	'MofGen! by Chris Wilmer'
_symmetry_space_group_name_H-M	'P1'
_symmetry_Int_Tables_number	1
_symmetry_cell_setting	triclinic
loop_
_symmetry_equiv_pos_as_xyz
  x,y,z
_cell_length_a	17.077404
_cell_length_b	18.215405
_cell_length_c	17.077396
_cell_angle_alpha	89.968409
_cell_angle_beta	89.981638
_cell_angle_gamma	90.022855
loop_
_atom_site_label
_atom_site_type_symbol
_atom_site_fract_x
_atom_site_fract_y
_atom_site_fract_z
Zn1	Zn	1.200044	-0.293024	-0.443802
Zn2	Zn	1.533377	0.040309	-0.110469
Zn3	Zn	1.866710	0.373643	0.222865
Zn4	Zn	1.199946	-0.416098	-0.312529
Zn5	Zn	1.533280	-0.082764	0.020805
Zn6	Zn	1.866613	0.250569	0.354138
Zn7	Zn	1.068776	-0.293045	-0.312552
Zn8	Zn	1.402109	0.040288	0.020781
Zn9	Zn	1.735442	0.373622	0.354114
Zn10	Zn	1.068739	-0.416049	-0.443755
Zn11	Zn	1.402072	-0.082716	-0.110422
Zn12	Zn	1.735406	0.250618	0.222912
O13	O	1.134376	-0.354554	-0.378159
O14	O	1.467709	-0.021221	-0.044826
O15	O	1.801043	0.312113	0.288507
O16	O	1.309878	-0.309362	-0.426398
O17	O	1.643211	0.023972	-0.093065
O18	O	1.976544	0.357305	0.240269
O19	O	1.182521	-0.399804	-0.202685
O20	O	1.515854	-0.066470	0.130648
O21	O	1.849187	0.266863	0.463982
O22	O	1.086245	-0.190058	-0.329993
O23	O	1.419578	0.143275	0.003341
O24	O	1.752911	0.476609	0.336674
O25	O	1.309806	-0.399783	-0.329952
O26	O	1.643139	-0.066450	0.003381
O27	O	1.976473	0.266883	0.336715
O28	O	1.182687	-0.190043	-0.426421
O29	O	1.516020	0.143291	-0.093088
O30	O	1.849353	0.476624	0.240246
O31	O	1.086150	-0.309397	-0.202702
O32	O	1.419483	0.023936	0.130631
O33	O	1.752817	0.357269	0.463964
O34	O	0.958924	-0.309350	-0.329947
O35	O	1.292257	0.023983	0.003386
O36	O	1.625590	0.357316	0.336720
O37	O	1.086182	-0.399701	-0.553608
O38	O	1.419516	-0.066367	-0.220275
O39	O	1.752849	0.266966	0.113059
O40	O	0.958897	-0.399721	-0.426341
O41	O	1.292230	-0.066388	-0.093008
O42	O	1.625564	0.266946	0.240326
O43	O	1.182651	-0.309315	-0.553643
O44	O	1.515985	0.024019	-0.220309
O45	O	1.849318	0.357352	0.113024
O46	O	1.182485	-0.519075	-0.329907
O47	O	1.515818	-0.185742	0.003427
O48	O	1.849152	0.147591	0.336760
O49	O	1.086088	-0.519040	-0.426318
O50	O	1.419421	-0.185707	-0.092985
O51	O	1.752754	0.147627	0.240349
C52	C	0.930428	-0.354533	-0.378142
C53	C	1.263762	-0.021200	-0.044809
C54	C	1.597095	0.312134	0.288525
C55	C	0.843178	-0.354542	-0.378153
C56	C	1.176512	-0.021209	-0.044820
C57	C	1.509845	0.312125	0.288514
C58	C	0.802226	-0.307543	-0.428449
C59	C	1.135560	0.025790	-0.095116
C60	C	1.468893	0.359124	0.238218
C61	C	0.720246	-0.307548	-0.428453
C62	C	1.053579	0.025785	-0.095119
C63	C	1.386913	0.359119	0.238214
C64	C	0.679219	-0.354556	-0.378164
C65	C	1.012552	-0.021222	-0.044830
C66	C	1.345886	0.312111	0.288503
C67	C	0.720177	-0.401557	-0.327862
C68	C	1.053510	-0.068223	0.005471
C69	C	1.386844	0.265110	0.338805
C70	C	0.802156	-0.401548	-0.327855
C71	C	1.135489	-0.068214	0.005478
C72	C	1.468822	0.265119	0.338812
C73	C	0.549307	-0.401573	-0.327882
C74	C	0.882640	-0.068240	0.005452
C75	C	1.215973	0.265093	0.338785
C76	C	0.467322	-0.401583	-0.327889
C77	C	0.800656	-0.068250	0.005444
C78	C	1.133989	0.265083	0.338777
C79	C	0.467397	-0.307574	-0.428479
C80	C	0.800730	0.025760	-0.095146
C81	C	1.134064	0.359093	0.238188
C82	C	0.549376	-0.307565	-0.428472
C83	C	0.882709	0.025769	-0.095139
C84	C	1.216042	0.359102	0.238195
C85	C	0.590328	-0.354567	-0.378171
C86	C	0.923661	-0.021233	-0.044838
C87	C	1.256995	0.312100	0.288495
C88	C	1.134293	-0.545760	-0.378122
C89	C	1.467627	-0.212427	-0.044788
C90	C	1.800960	0.120906	0.288545
C91	C	1.134330	-0.627559	-0.378132
C92	C	1.467663	-0.294226	-0.044798
C93	C	1.800996	0.039107	0.288535
C94	C	1.184642	-0.815747	-0.328023
C95	C	1.517975	-0.482414	0.005310
C96	C	1.851308	-0.149081	0.338644
C97	C	1.184677	-0.892606	-0.328042
C98	C	1.518010	-0.559273	0.005291
C99	C	1.851343	-0.225939	0.338625
C100	C	1.084211	-0.892609	-0.428353
C101	C	1.417544	-0.559275	-0.095019
C102	C	1.750878	-0.225942	0.238314
C103	C	1.084180	-0.815751	-0.428337
C104	C	1.417514	-0.482418	-0.095004
C105	C	1.750847	-0.149085	0.238330
C106	C	1.134395	-0.777323	-0.378168
C107	C	1.467728	-0.443989	-0.044834
C108	C	1.801061	-0.110656	0.288499
C109	C	1.134460	-0.931039	-0.378202
C110	C	1.467794	-0.597705	-0.044869
C111	C	1.801127	-0.264372	0.288464
C112	C	1.134498	-1.014372	-0.378223
C113	C	1.467831	-0.681039	-0.044890
C114	C	1.801165	-0.347706	0.288443
C115	C	1.134358	-0.693984	-0.378147
C116	C	1.467691	-0.360650	-0.044814
C117	C	1.801025	-0.027317	0.288519
C118	C	1.339120	-0.354575	-0.378178
C119	C	1.672454	-0.021242	-0.044844
C120	C	2.005787	0.312091	0.288489
C121	C	1.426370	-0.354585	-0.378185
C122	C	1.759703	-0.021251	-0.044852
C123	C	2.093037	0.312082	0.288481
C124	C	1.134424	-0.354500	-0.582904
C125	C	1.467757	-0.021166	-0.249571
C126	C	1.801090	0.312167	0.083763
C127	C	1.134444	-0.354477	-0.670154
C128	C	1.467777	-0.021143	-0.336820
C129	C	1.801110	0.312190	-0.003487
C130	C	1.134481	-0.162601	-0.378215
C131	C	1.467814	0.170732	-0.044881
C132	C	1.801147	0.504066	0.288452
C133	C	1.134525	-0.080802	-0.378238
C134	C	1.467859	0.252531	-0.044905
C135	C	1.801192	0.585865	0.288429
C136	C	1.184677	-0.307409	-0.711163
C137	C	1.518010	0.025924	-0.377830
C138	C	1.851344	0.359258	-0.044496
C139	C	1.184687	-0.307384	-0.793144
C140	C	1.518020	0.025949	-0.459810
C141	C	1.851353	0.359282	-0.126477
C142	C	1.134466	-0.354432	-0.834113
C143	C	1.467799	-0.021099	-0.500780
C144	C	1.801133	0.312235	-0.167447
C145	C	1.084227	-0.401502	-0.793098
C146	C	1.417561	-0.068169	-0.459765
C147	C	1.750894	0.265165	-0.126431
C148	C	1.084214	-0.401522	-0.711119
C149	C	1.417548	-0.068189	-0.377786
C150	C	1.750881	0.265145	-0.044452
C151	C	1.084259	-0.401458	-0.963968
C152	C	1.417592	-0.068124	-0.630635
C153	C	1.750926	0.265209	-0.297302
C154	C	1.084273	-0.401439	-1.045953
C155	C	1.417606	-0.068105	-0.712620
C156	C	1.750939	0.265228	-0.379286
C157	C	1.184731	-0.307320	-1.045993
C158	C	1.518064	0.026013	-0.712659
C159	C	1.851398	0.359347	-0.379326
C160	C	1.184718	-0.307340	-0.964014
C161	C	1.518051	0.025993	-0.630680
C162	C	1.851385	0.359327	-0.297347
C163	C	1.134480	-0.354411	-0.923004
C164	C	1.467813	-0.021078	-0.589671
C165	C	1.801147	0.312255	-0.256338
C166	C	1.134374	-0.354555	-0.174212
C167	C	1.467707	-0.021222	0.159122
C168	C	1.801041	0.312112	0.492455
C169	C	1.134506	-0.354371	-0.086962
C170	C	1.467839	-0.021037	0.246371
C171	C	1.801172	0.312296	0.579704
H172	H	0.582778	-0.269291	-0.469426
H173	H	0.916111	0.064042	-0.136093
H174	H	1.249444	0.397376	0.197240
O175	O	1.238869	-0.256620	-0.837377
O176	O	1.572202	0.076713	-0.504044
O177	O	1.905535	0.410046	-0.170710
H178	H	1.300466	-0.269263	-0.821654
H179	H	1.633799	0.064070	-0.488321
H180	H	1.967133	0.397403	-0.154988
O181	O	1.030041	-0.934063	-0.482445
O182	O	1.363374	-0.600729	-0.149112
O183	O	1.696708	-0.267396	0.184221
H184	H	1.065157	-0.969036	-0.522419
H185	H	1.398490	-0.635703	-0.189085
H186	H	1.731823	-0.302369	0.144248
H187	H	1.043301	-0.439842	-0.677730
H188	H	1.376635	-0.106509	-0.344397
H189	H	1.709968	0.226824	-0.011064
O190	O	0.846474	-0.256842	-0.482692
O191	O	1.179807	0.076492	-0.149358
O192	O	1.513140	0.409825	0.183975
H193	H	0.883825	-0.219359	-0.447626
H194	H	1.217158	0.113975	-0.114292
H195	H	1.550491	0.447308	0.219041
O196	O	1.030101	-0.452174	-1.090147
O197	O	1.363434	-0.118840	-0.756814
O198	O	1.696767	0.214493	-0.423480
H199	H	0.995155	-0.484900	-1.047860
H200	H	1.328488	-0.151566	-0.714526
H201	H	1.661822	0.181767	-0.381193
O202	O	1.238886	-0.256597	-0.919825
O203	O	1.572220	0.076736	-0.586492
O204	O	1.905553	0.410069	-0.253158
H205	H	1.278800	-0.289555	-0.882478
H206	H	1.612134	0.043778	-0.549145
H207	H	1.945467	0.377112	-0.215811
H208	H	0.582648	-0.439845	-0.286919
H209	H	0.915981	-0.106512	0.046414
H210	H	1.249314	0.226821	0.379747
O211	O	1.238909	-0.256542	-1.090222
O212	O	1.572242	0.076791	-0.756888
O213	O	1.905575	0.410125	-0.423555
H214	H	1.278827	-0.289474	-1.127577
H215	H	1.612160	0.043859	-0.794244
H216	H	1.945494	0.377193	-0.460910
O217	O	0.676073	-0.256856	-0.482699
O218	O	1.009406	0.076477	-0.149366
O219	O	1.342740	0.409811	0.183968
H220	H	0.718374	-0.224174	-0.517673
H221	H	1.051707	0.109160	-0.184340
H222	H	1.385041	0.442493	0.148994
O223	O	1.030055	-0.452241	-0.837287
O224	O	1.363388	-0.118907	-0.503953
O225	O	1.696721	0.214426	-0.170620
H226	H	1.043474	-0.510006	-0.821533
H227	H	1.376808	-0.176673	-0.488200
H228	H	1.710141	0.156661	-0.154866
H229	H	0.686766	-0.439828	-0.286912
H230	H	1.020100	-0.106494	0.046421
H231	H	1.353433	0.226839	0.379755
H232	H	1.043263	-0.784464	-0.469175
H233	H	1.376597	-0.451131	-0.135841
H234	H	1.709930	-0.117797	0.197492
O235	O	1.238851	-0.256666	-0.666982
O236	O	1.572184	0.076667	-0.333648
O237	O	1.905518	0.410001	-0.000315
H238	H	1.230412	-0.264592	-0.603086
H239	H	1.563745	0.068741	-0.269753
H240	H	1.897078	0.402075	0.063581
H241	H	1.225530	-0.784460	-0.287173
H242	H	1.558863	-0.451127	0.046160
H243	H	1.892197	-0.117794	0.379494
O244	O	0.423235	-0.256870	-0.482728
O245	O	0.756568	0.076463	-0.149395
O246	O	1.089901	0.409796	0.183938
H247	H	0.359337	-0.264764	-0.474279
H248	H	0.692670	0.068569	-0.140945
H249	H	1.026004	0.401902	0.192388
O250	O	1.238867	-0.934053	-0.273953
O251	O	1.572200	-0.600719	0.059380
O252	O	1.905533	-0.267386	0.392713
H253	H	1.273771	-0.894416	-0.239063
H254	H	1.607105	-0.561082	0.094270
H255	H	1.940438	-0.227749	0.427604
O256	O	1.030070	-0.452221	-0.919732
O257	O	1.363403	-0.118888	-0.586398
O258	O	1.696737	0.214446	-0.253065
H259	H	0.995154	-0.484937	-0.961991
H260	H	1.328487	-0.151604	-0.628658
H261	H	1.661821	0.181730	-0.295325
H262	H	0.433920	-0.439862	-0.286940
H263	H	0.767254	-0.106529	0.046393
H264	H	1.100587	0.226805	0.379726
O265	O	0.846332	-0.452239	-0.273609
O266	O	1.179665	-0.118906	0.059724
O267	O	1.512999	0.214427	0.393058
H268	H	0.804033	-0.484933	-0.238645
H269	H	1.137366	-0.151600	0.094688
H270	H	1.470699	0.181733	0.428022
