data_functionalizedCrystal
_audit_creation_method	'MofGen! by Chris Wilmer'
_symmetry_space_group_name_H-M	'P1'
_symmetry_Int_Tables_number	1
_symmetry_cell_setting	triclinic
loop_
_symmetry_equiv_pos_as_xyz
  x,y,z
_cell_length_a	23.532361
_cell_length_b	23.532407
_cell_length_c	13.330367
_cell_angle_alpha	89.990692
_cell_angle_beta	89.996730
_cell_angle_gamma	82.839173
loop_
_atom_site_label
_atom_site_type_symbol
_atom_site_fract_x
_atom_site_fract_y
_atom_site_fract_z
O1	O	0.755279	0.069008	-0.083333
O2	O	0.589412	0.079039	-0.083359
O3	O	0.677347	-0.008909	-0.083327
O4	O	0.667344	0.156956	-0.083365
O5	O	0.677335	-0.008911	0.083521
O6	O	0.589399	0.079037	0.083489
O7	O	0.755267	0.069006	0.083514
Cu8	Cu	0.672332	0.074022	0.098736
Cu9	Cu	0.672347	0.074024	-0.098580
O10	O	0.667331	0.156954	0.083482
C11	C	0.568189	0.078787	0.000062
C12	C	0.504971	0.078032	0.000053
C13	C	0.231734	0.074729	-0.090888
C14	C	0.291134	0.075444	-0.090891
O15	O	0.321865	0.075795	-0.168238
N16	N	0.320832	0.075804	0.000058
C17	C	0.291129	0.075444	0.091015
O18	O	0.321845	0.075815	0.168374
C19	C	0.231731	0.074725	0.091016
C20	C	0.202035	0.074370	0.000062
C21	C	0.202038	0.074374	-0.181836
C22	C	0.142642	0.073661	-0.181833
C23	C	0.112942	0.073302	-0.090882
C24	C	0.142639	0.073657	0.000065
C25	C	0.202029	0.074360	0.181973
C26	C	0.142627	0.073640	0.181966
C27	C	0.112931	0.073286	0.091012
C28	C	0.053544	0.072584	0.091018
N29	N	0.023845	0.072224	0.000069
C30	C	0.053544	0.072583	-0.090881
C31	C	0.415869	0.076953	0.091005
C32	C	0.475266	0.077676	0.091004
C33	C	0.475266	0.077675	-0.090902
C34	C	0.415868	0.076956	-0.090901
C35	C	0.386171	0.076593	0.000056
C36	C	-0.071191	0.071084	-0.090868
C37	C	-0.130593	0.070373	-0.090857
C38	C	-0.130588	0.070370	0.091049
C39	C	-0.071192	0.071085	0.091039
C40	C	-0.041495	0.071440	0.000072
O41	O	0.022774	0.072230	0.168325
O42	O	0.022823	0.072204	-0.168227
C43	C	0.677086	-0.030126	0.000099
C44	C	0.676320	-0.093343	0.000107
C45	C	0.723555	-0.492454	0.000059
C46	C	0.722844	-0.551854	0.000052
O47	O	0.766630	-0.588606	0.000021
N48	N	0.670566	-0.574471	0.000044
C49	C	0.618997	-0.537685	0.000035
O50	O	0.574465	-0.562377	0.000027
C51	C	0.619709	-0.478286	0.000035
C52	C	0.671990	-0.455672	0.000053
C53	C	0.775832	-0.469839	0.000076
C54	C	0.776543	-0.410443	0.000085
C55	C	0.724977	-0.373662	0.000079
C56	C	0.672701	-0.396276	0.000062
C57	C	0.568140	-0.441501	0.000018
C58	C	0.568857	-0.382099	0.000018
C59	C	0.621137	-0.359485	0.000035
C60	C	0.621847	-0.300099	0.000065
N61	N	0.674124	-0.277481	0.000072
C62	C	0.725690	-0.314263	0.000079
C63	C	0.617505	-0.662427	0.000032
C64	C	0.616793	-0.721825	0.000038
C65	C	0.720640	-0.735990	0.000053
C66	C	0.721352	-0.676591	0.000054
C67	C	0.669783	-0.639810	0.000039
C68	C	0.727179	-0.189526	0.000100
C69	C	0.727886	-0.130124	0.000114
C70	C	0.624039	-0.115965	0.000093
C71	C	0.623332	-0.175361	0.000085
C72	C	0.674907	-0.212141	0.000085
O73	O	0.578083	-0.263312	0.000091
O74	O	0.770214	-0.289562	0.000074
C75	C	0.776489	0.069258	0.000091
C76	C	0.839708	0.070014	0.000094
C77	C	0.667592	0.178171	0.000054
C78	C	0.668358	0.241388	0.000040
N79	N	0.672326	0.074020	0.237517
N80	N	0.672358	0.074021	-0.237362
C81	C	0.633408	0.112952	0.710126
C82	C	0.711302	0.035091	0.710122
C83	C	0.711295	0.035089	0.605104
C84	C	0.672345	0.074020	0.552592
C85	C	0.633401	0.112953	0.605098
C86	C	0.750242	-0.003839	0.552590
C87	C	0.750238	-0.003841	0.447565
C88	C	0.711284	0.035087	0.395051
C89	C	0.672338	0.074021	0.447564
C90	C	0.633388	0.112951	0.395052
C91	C	0.594439	0.151883	0.447562
C92	C	0.594448	0.151881	0.552584
C93	C	0.711276	0.035089	0.290029
C94	C	0.633382	0.112952	0.290024
H95	H	0.118468	0.073369	-0.255897
H96	H	0.743017	0.003397	0.752881
Br97	Br	0.242316	0.074842	0.305419
H98	H	0.601661	0.144652	0.247274
Br99	Br	0.845823	-0.519747	0.000084
H100	H	0.391693	0.076668	-0.164964
Br101	Br	0.803107	-0.056666	0.623852
H102	H	0.226213	0.074665	-0.255902
H103	H	0.769176	-0.219466	0.000096
H104	H	0.819115	-0.392037	0.000095
Br105	Br	0.580546	0.165782	0.781383
H106	H	0.781951	-0.035542	0.404817
Br107	Br	0.515559	0.078171	0.214447
H108	H	0.574220	-0.740232	0.000041
Br109	Br	0.375570	0.076466	0.214458
Br110	Br	-0.170892	0.069895	-0.214303
Br111	Br	-0.030897	0.071566	-0.214323
H112	H	-0.047013	0.071384	0.165101
H113	H	0.499458	0.077967	-0.164959
H114	H	-0.154780	0.070080	0.165098
H115	H	0.562728	0.183583	0.404795
Br116	Br	0.798843	-0.099438	0.000139
H117	H	0.525567	-0.459902	-0.000002
Br118	Br	0.790622	-0.785919	0.000059
Br119	Br	0.547512	-0.612515	0.000020
Br120	Br	0.792306	-0.645907	0.000080
Br121	Br	0.552379	-0.206053	0.000084
H122	H	0.118450	0.073349	0.256036
Br123	Br	0.498866	-0.332184	-0.000007
H124	H	0.582056	-0.086007	0.000091
H125	H	0.562737	0.183578	0.595345
Br126	Br	0.764136	-0.017737	0.218771
