data_functionalizedCrystal
_audit_creation_method	'MofGen! by Chris Wilmer'
_symmetry_space_group_name_H-M	'P1'
_symmetry_Int_Tables_number	1
_symmetry_cell_setting	triclinic
loop_
_symmetry_equiv_pos_as_xyz
  x,y,z
_cell_length_a	11.792254
_cell_length_b	10.654549
_cell_length_c	9.130307
_cell_angle_alpha	89.997449
_cell_angle_beta	89.996518
_cell_angle_gamma	84.342758
loop_
_atom_site_label
_atom_site_type_symbol
_atom_site_fract_x
_atom_site_fract_y
_atom_site_fract_z
O1	O	0.159444	1.667390	-0.121836
O2	O	0.174626	1.301870	-0.121831
O3	O	0.001886	1.493492	-0.121823
O4	O	0.332184	1.475768	-0.121844
O5	O	0.001884	1.493486	0.121776
O6	O	0.174624	1.301864	0.121768
O7	O	0.159442	1.667384	0.121763
Cu8	Cu	0.167033	1.484623	0.144008
Cu9	Cu	0.167035	1.484631	-0.144076
O10	O	0.332182	1.475762	0.121755
C11	C	-0.040408	1.492373	-0.000024
C12	C	-0.166429	1.489031	-0.000025
C13	C	0.173509	1.255072	-0.000031
C14	C	0.170171	1.115639	-0.000029
C15	C	-0.268772	1.486316	-0.000031
C16	C	-0.397166	1.482920	-0.000044
C17	C	0.370461	0.825098	-0.000083
C18	C	0.475311	0.876343	-0.000083
C19	C	0.478452	1.007353	-0.000064
C20	C	0.376731	1.087121	-0.000049
C21	C	0.271881	1.035875	-0.000048
C22	C	0.268751	0.904861	-0.000063
C23	C	0.065320	1.064393	-0.000028
C24	C	0.062176	0.933384	-0.000037
C25	C	-0.036401	1.144161	-0.000013
C26	C	-0.141255	1.092916	-0.000002
C27	C	-0.144391	0.961898	-0.000020
C28	C	-0.042674	0.882138	-0.000036
C29	C	0.374476	1.476882	-0.000047
C30	C	0.500497	1.480224	-0.000055
C31	C	0.160559	1.714182	-0.000040
C32	C	0.163897	1.853616	-0.000052
N33	N	0.167031	1.484627	0.346631
N34	N	0.167028	1.484637	-0.346699
C35	C	0.014114	1.654378	0.346628
C36	C	-0.062341	1.739262	0.423293
C37	C	-0.062341	1.739274	0.576626
C38	C	0.014119	1.654392	0.653298
C39	C	0.090574	1.569508	0.576633
C40	C	0.090569	1.569507	0.423296
C41	C	0.243483	1.399753	0.576636
C42	C	0.243491	1.399745	0.423303
C43	C	0.319943	1.314870	0.653308
C44	C	0.396406	1.229991	0.576643
C45	C	0.396404	1.229983	0.423300
C46	C	0.319946	1.314861	0.346637
H47	H	0.367914	0.718421	-0.000072
H48	H	0.458649	1.160880	0.639078
H49	H	0.458659	1.160855	0.360887
H50	H	0.319942	1.314866	0.221785
H51	H	0.558130	0.811382	-0.000100
H52	H	0.319935	1.314879	0.778160
H53	H	-0.033836	1.250835	-0.000005
H54	H	0.379298	1.193794	-0.000051
H55	H	0.563831	1.049075	-0.000062
H56	H	-0.124602	1.808389	0.639047
H57	H	-0.224067	1.157872	0.000000
H58	H	-0.229774	0.920183	-0.000028
H59	H	-0.124596	1.808371	0.360854
H60	H	-0.045219	0.775462	-0.000038
H61	H	0.014117	1.654387	0.221776
H62	H	0.014104	1.654397	0.778150
