data_functionalizedCrystal
_audit_creation_method	'MofGen! by Chris Wilmer'
_symmetry_space_group_name_H-M	'P1'
_symmetry_Int_Tables_number	1
_symmetry_cell_setting	triclinic
loop_
_symmetry_equiv_pos_as_xyz
  x,y,z
_cell_length_a	10.654553
_cell_length_b	16.109301
_cell_length_c	14.586319
_cell_angle_alpha	89.998857
_cell_angle_beta	90.000403
_cell_angle_gamma	96.024960
loop_
_atom_site_label
_atom_site_type_symbol
_atom_site_fract_x
_atom_site_fract_y
_atom_site_fract_z
O1	O	-0.161420	1.104094	-0.076183
O2	O	-0.181508	0.862152	-0.076195
O3	O	0.011350	0.988682	-0.076191
O4	O	-0.354278	0.977564	-0.076188
O5	O	0.011353	0.988673	0.076290
O6	O	-0.181505	0.862143	0.076286
O7	O	-0.161417	1.104085	0.076298
Cu8	Cu	-0.171461	0.983113	0.090214
Cu9	Cu	-0.171464	0.983124	-0.090112
O10	O	-0.354275	0.977555	0.076293
C11	C	-0.180693	0.831167	0.000044
C12	C	-0.178253	0.738858	0.000039
C13	C	-0.284716	0.430495	0.000056
C14	C	-0.287020	0.517229	0.000050
C15	C	-0.058200	0.535737	0.000036
C16	C	-0.055897	0.449004	0.000035
C17	C	-0.169159	0.396385	0.000049
C18	C	-0.173766	0.569852	0.000045
C19	C	-0.176263	0.663892	0.000040
C20	C	-0.166662	0.302338	0.000053
C21	C	-0.401063	0.978377	0.000053
C22	C	-0.540473	0.980824	0.000055
C23	C	-0.540490	0.980825	0.166294
C24	C	-0.605992	0.981977	0.249411
C25	C	-0.736979	0.984276	0.249407
C26	C	-0.802468	0.985419	0.166277
C27	C	-0.736966	0.984267	0.083161
C28	C	-0.605976	0.981971	0.083173
C29	C	-0.736950	0.984260	-0.083077
C30	C	-0.605962	0.981967	-0.083075
C31	C	-0.802440	0.985403	-0.166206
C32	C	-0.736937	0.984257	-0.249325
C33	C	-0.605941	0.981959	-0.249318
C34	C	-0.540460	0.980815	-0.166192
C35	C	0.058138	0.987859	0.000047
C36	C	0.197548	0.985412	0.000040
C37	C	-0.162232	1.135069	0.000057
C38	C	-0.164672	1.227379	0.000056
N39	N	-0.171458	0.983112	0.217046
N40	N	-0.171457	0.983131	-0.216943
C41	C	-0.086089	1.039158	0.452055
C42	C	-0.086086	1.039160	0.548036
C43	C	-0.256830	0.927079	0.548041
C44	C	-0.256826	0.927073	0.452062
C45	C	-0.171457	0.983117	0.404071
C46	C	-0.171458	0.983126	0.596032
C47	C	-0.171455	0.983128	0.700099
C48	C	-0.171458	0.983114	0.299997
H49	H	0.038208	0.421233	0.000027
H50	H	-0.433831	0.978962	0.166305
H51	H	0.034013	0.578589	0.000027
H52	H	-0.433803	0.978948	-0.166178
H53	H	-0.552656	0.981044	0.317093
H54	H	-0.790313	0.985199	0.317088
H55	H	-0.016570	1.084793	0.587102
H56	H	-0.326338	0.881450	0.587125
H57	H	-0.552619	0.981014	-0.317002
H58	H	-0.909097	0.987270	-0.166203
H59	H	-0.909127	0.987281	0.166282
H60	H	-0.790269	0.985182	-0.317002
H61	H	-0.016574	1.084791	0.412983
H62	H	-0.376941	0.387654	0.000067
H63	H	-0.381117	0.544996	0.000055
H64	H	-0.326344	0.881434	0.412991
