data_functionalizedCrystal
_audit_creation_method	'MofGen! by Chris Wilmer'
_symmetry_space_group_name_H-M	'P1'
_symmetry_Int_Tables_number	1
_symmetry_cell_setting	triclinic
loop_
_symmetry_equiv_pos_as_xyz
  x,y,z
_cell_length_a	17.052862
_cell_length_b	12.970454
_cell_length_c	12.970454
_cell_angle_alpha	59.999776
_cell_angle_beta	89.999706
_cell_angle_gamma	50.259530
loop_
_atom_site_label
_atom_site_type_symbol
_atom_site_fract_x
_atom_site_fract_y
_atom_site_fract_z
Zr1	Zr	0.914391	0.765897	0.046006
O2	O	0.762834	1.041091	-0.148671
O3	O	0.960852	0.532382	0.105685
O4	O	0.960853	0.747471	-0.109405
O5	O	0.762831	0.826003	0.236086
O6	O	1.117054	0.685526	-0.078433
O7	O	0.762833	0.826002	0.066420
O8	O	1.117052	0.300770	0.306325
O9	O	0.762834	1.210758	-0.148672
O10	O	1.097238	0.566765	0.154251
O11	O	0.980666	0.612995	0.257757
O12	O	0.980668	0.866234	0.004516
O13	O	0.864096	0.912464	0.108021
Zr14	Zr	1.163512	0.667104	0.366002
Zr15	Zr	1.163514	0.667102	0.095403
Zr16	Zr	0.914390	0.765899	0.316604
Zr17	Zr	0.914391	1.036497	0.046004
Zr18	Zr	1.163512	0.396504	0.366003
O19	O	1.117052	0.900620	0.306322
O20	O	1.117054	0.900616	-0.078434
O21	O	0.762831	1.041094	0.236085
O22	O	1.315070	0.391910	0.560678
O23	O	1.315072	0.391907	0.175922
O24	O	0.960849	0.532385	0.490441
O25	O	1.315072	0.606998	0.175921
O26	O	1.117051	0.685530	0.521413
O27	O	0.960849	0.747476	0.490440
O28	O	1.315071	0.607000	0.345587
O29	O	0.960853	1.132229	-0.109407
O30	O	1.117050	0.300772	0.521414
O31	O	1.315070	0.222243	0.560679
O32	O	1.315071	0.222241	0.345589
O33	O	0.762833	1.210760	0.066418
O34	O	0.960852	1.132231	0.105682
O35	O	1.097236	0.566767	0.407492
O36	O	1.213808	0.520537	0.303986
O37	O	1.097238	0.820006	0.154250
O38	O	0.980666	0.866236	0.257756
C39	C	1.038952	0.378021	0.206005
C40	C	1.038952	0.263145	0.206006
C41	C	0.727337	0.840079	0.144215
C42	C	0.621578	0.882020	0.123244
C43	C	0.566860	0.374949	0.376776
C44	C	0.666229	0.335538	0.396474
C45	C	0.655072	0.472155	0.328169
C46	C	0.544535	0.648190	0.240161
C47	C	0.445157	0.687606	0.220453
C48	C	0.533369	0.784811	0.171846
C49	C	0.422832	0.960847	0.083839
C50	C	0.323466	1.000254	0.064135
C51	C	0.334623	0.863638	0.132440
C52	C	0.632746	0.745395	0.191554
C53	C	0.511043	1.058052	0.035231
C54	C	0.411675	1.097463	0.015534
C55	C	1.350566	0.592923	0.267792
C56	C	1.456326	0.550981	0.288763
C57	C	1.038954	0.716498	-0.132473
C58	C	1.038955	0.716497	-0.247349
C59	C	1.038952	1.054980	0.206002
C60	C	1.038952	1.169857	0.206001
C61	C	1.038950	0.716503	0.544481
C62	C	1.038949	0.716504	0.659357
C63	C	1.350566	0.254443	0.267794
C64	C	1.456326	0.097625	0.288765
C65	C	1.038950	0.378024	0.544482
C66	C	1.038949	0.263148	0.659359
C67	C	1.350564	0.254446	0.606271
C68	C	1.456323	0.097629	0.742118
C69	C	0.727340	1.178555	-0.194264
C70	C	0.621581	1.335372	-0.330111
C71	C	0.727337	1.178558	0.144213
C72	C	0.621578	1.335376	0.123242
C73	C	1.038954	1.054977	-0.132475
C74	C	1.038955	1.169853	-0.247352
C75	C	1.445143	0.048113	0.220442
C76	C	1.544505	-0.099216	0.240120
C77	C	1.655049	-0.197036	0.328128
C78	C	1.666230	-0.147512	0.396452
C79	C	1.566869	-0.000179	0.376767
C80	C	1.566848	-0.000150	0.751887
C81	C	1.666228	-0.147485	0.879521
C82	C	1.655082	-0.197045	0.997385
C83	C	1.544545	-0.099252	0.987612
C84	C	1.445167	0.048088	0.859979
C85	C	0.511056	1.433164	-0.339879
C86	C	0.411675	1.580533	-0.467514
C87	C	0.422822	1.630099	-0.585378
C88	C	0.533359	1.532298	-0.575605
C89	C	0.632737	1.384940	-0.447972
C90	C	0.632761	1.384900	0.191554
C91	C	0.533399	1.532258	0.171847
C92	C	0.422855	1.630082	0.083834
C93	C	0.411674	1.580553	0.015515
C94	C	0.511035	1.433204	0.035215
H95	H	0.722738	0.602065	0.263220
Br96	Br	1.789887	-0.396987	0.354829
H97	H	0.321664	1.240793	-0.056124
Br98	Br	1.816264	-0.280292	0.515893
H99	H	0.321681	1.660142	-0.475445
Br100	Br	0.261640	1.713330	-0.103922
Br101	Br	1.582008	0.067083	0.591948
H102	H	0.341958	1.750059	0.067805
H103	H	1.535486	-0.139627	1.083595
H104	H	1.535379	-0.139516	0.184478
Br105	Br	1.789966	-0.397013	1.170593
Br106	Br	0.789931	0.418665	0.354903
H107	H	0.756222	0.192209	0.468115
H108	H	1.355176	0.127686	0.852044
Br109	Br	0.287938	1.830093	-0.758586
H110	H	0.575929	0.263735	0.432375
Br111	Br	0.199763	0.917119	0.105728
Br112	Br	1.582067	0.066989	0.469512
H113	H	0.501958	1.392822	-0.243923
H114	H	0.542421	1.572675	-0.671585
Br115	Br	1.816227	-0.280179	0.892752
Br116	Br	0.782732	1.252230	-0.434739
H117	H	0.501914	1.392891	-0.020412
Br118	Br	0.782773	1.252172	0.311003
H119	H	0.501955	1.169296	-0.020391
Br120	Br	0.173453	1.239160	-0.055317
Br121	Br	1.295131	0.180844	0.100990
H122	H	0.542525	1.572558	0.227489
