data_functionalizedCrystal
_audit_creation_method	'MofGen! by Chris Wilmer'
_symmetry_space_group_name_H-M	'P1'
_symmetry_Int_Tables_number	1
_symmetry_cell_setting	triclinic
loop_
_symmetry_equiv_pos_as_xyz
  x,y,z
_cell_length_a	10.654556
_cell_length_b	9.130307
_cell_length_c	10.654550
_cell_angle_alpha	90.002698
_cell_angle_beta	95.513766
_cell_angle_gamma	89.999981
loop_
_atom_site_label
_atom_site_type_symbol
_atom_site_fract_x
_atom_site_fract_y
_atom_site_fract_z
O1	O	1.667832	-0.121744	-0.176434
O2	O	1.302354	-0.121759	-0.193232
O3	O	1.493496	-0.121742	-0.002094
O4	O	1.476690	-0.121761	-0.367572
O5	O	1.493489	0.121857	-0.002094
O6	O	1.302347	0.121840	-0.193232
O7	O	1.667825	0.121855	-0.176434
Cu8	Cu	1.485085	0.144090	-0.184833
Cu9	Cu	1.485094	-0.143994	-0.184833
O10	O	1.476683	0.121838	-0.367572
C11	C	1.255553	0.000039	-0.191997
C12	C	1.116110	0.000033	-0.188302
C13	C	0.919568	-0.132741	-0.183099
C14	C	1.050591	-0.132750	-0.186563
C15	C	1.050602	0.132835	-0.186563
C16	C	0.919583	0.132843	-0.183090
N17	N	1.485089	0.346713	-0.184832
C18	C	1.654414	0.346718	-0.015629
C19	C	1.739085	0.423388	0.068968
C20	C	1.739097	0.576721	0.068968
C21	C	1.654427	0.653389	-0.015636
C22	C	1.569756	0.576719	-0.100234
C23	C	1.569756	0.423382	-0.100227
C24	C	1.400426	0.576714	-0.269428
C25	C	1.400418	0.423381	-0.269436
C26	C	1.315756	0.653382	-0.354033
C27	C	1.231089	0.576713	-0.438638
C28	C	1.231081	0.423370	-0.438635
C29	C	1.315747	0.346712	-0.354033
C30	C	1.714626	0.000054	-0.177669
C31	C	1.854069	0.000050	-0.181364
C32	C	1.492258	0.000057	0.044704
C33	C	1.488567	0.000055	0.184147
N34	N	1.485097	0.653384	-0.184831
C35	C	1.477920	0.000036	-0.414370
C36	C	1.481612	0.000029	-0.553813
C37	C	1.601108	0.000059	0.263630
C38	C	1.597631	0.000041	0.394651
C39	C	1.369063	0.000021	0.366693
C40	C	1.372540	0.000028	0.235675
H41	H	1.103959	0.240950	-0.187970
Cl42	Cl	0.837213	-0.299679	-0.180923
Cl43	Cl	1.845536	0.673107	0.175326
H44	H	0.866252	0.240984	-0.181676
Cl45	Cl	1.223209	-0.000012	0.431481
Cl46	Cl	1.231048	0.000010	0.135746
Cl47	Cl	1.654427	0.846152	-0.015620
H48	H	1.689274	0.000041	0.459362
H49	H	1.315764	0.778234	-0.354024
H50	H	1.103915	-0.240882	-0.187974
H51	H	1.654424	0.221866	-0.015631
H52	H	1.162151	0.639145	-0.507511
Cl53	Cl	1.845520	0.327003	0.175328
H54	H	1.162127	0.360954	-0.507520
H55	H	1.315753	0.221859	-0.354028
H56	H	1.695584	0.000077	0.221681
