data_functionalizedCrystal
_audit_creation_method	'MofGen! by Chris Wilmer'
_symmetry_space_group_name_H-M	'P1'
_symmetry_Int_Tables_number	1
_symmetry_cell_setting	triclinic
loop_
_symmetry_equiv_pos_as_xyz
  x,y,z
_cell_length_a	18.100771
_cell_length_b	15.297475
_cell_length_c	15.296720
_cell_angle_alpha	91.617114
_cell_angle_beta	80.097810
_cell_angle_gamma	99.337564
loop_
_atom_site_label
_atom_site_type_symbol
_atom_site_fract_x
_atom_site_fract_y
_atom_site_fract_z
Zn1	Zn	0.576261	1.249328	-0.729702
Zn2	Zn	1.076261	1.749328	-0.229702
Zn3	Zn	0.682878	1.273837	-0.583792
Zn4	Zn	1.182878	1.773837	-0.083792
Zn5	Zn	0.534665	1.128500	-0.557719
Zn6	Zn	1.034665	1.628500	-0.057719
Zn7	Zn	0.675600	1.102115	-0.704881
Zn8	Zn	1.175600	1.602115	-0.204881
O9	O	0.617351	1.188445	-0.644024
O10	O	1.117351	1.688445	-0.144024
O11	O	0.610858	1.375013	-0.731646
O12	O	1.110858	1.875013	-0.231646
O13	O	0.648855	1.275857	-0.457682
O14	O	1.148855	1.775857	0.042318
O15	O	0.436580	1.145313	-0.580009
O16	O	0.936580	1.645313	-0.080009
O17	O	0.689189	1.393019	-0.624447
O18	O	1.189189	1.893019	-0.124447
O19	O	0.467141	1.234085	-0.706364
O20	O	0.967141	1.734085	-0.206364
O21	O	0.539963	1.169078	-0.438526
O22	O	1.039963	1.669078	0.061474
O23	O	0.532906	1.002566	-0.555941
O24	O	1.032906	1.502566	-0.055941
O25	O	0.676785	1.100344	-0.830826
O26	O	1.176785	1.600344	-0.330826
O27	O	0.636451	0.983181	-0.664061
O28	O	1.136451	1.483181	-0.164061
O29	O	0.603800	1.208501	-0.849062
O30	O	1.103800	1.708501	-0.349062
O31	O	0.785515	1.250273	-0.600379
O32	O	1.285515	1.750273	-0.100379
O33	O	0.780168	1.124109	-0.689343
O34	O	1.280168	1.624109	-0.189343
C35	C	0.579375	0.961128	-0.604479
C36	C	1.079375	1.461128	-0.104479
C37	C	0.563150	0.863877	-0.587582
C38	C	1.063150	1.363877	-0.087582
C39	C	0.424247	1.189908	-0.643047
C40	C	0.924247	1.689908	-0.143047
C41	C	0.341957	1.190532	-0.642630
C42	C	0.841957	1.690532	-0.142630
C43	C	0.733325	0.549528	-0.764789
C44	C	1.233325	1.049528	-0.264789
C45	C	0.748575	0.640901	-0.780662
C46	C	1.248575	1.140901	-0.280662
C47	C	0.702220	0.696649	-0.732393
C48	C	1.202220	1.196649	-0.232393
C49	C	0.640612	0.661017	-0.668249
C50	C	1.140612	1.161017	-0.168249
C51	C	0.625364	0.569636	-0.652370
C52	C	1.125364	1.069636	-0.152370
C53	C	0.594259	0.716757	-0.619974
C54	C	1.094259	1.216757	-0.119974
C55	C	0.532651	0.681124	-0.555830
C56	C	1.032651	1.181124	-0.055830
C57	C	0.517406	0.589752	-0.539954
C58	C	1.017406	1.089752	-0.039954
C59	C	0.563761	0.534004	-0.588222
C60	C	1.063761	1.034004	-0.088222
C61	C	0.609507	0.808137	-0.635854
C62	C	1.109507	1.308137	-0.135854
C63	C	0.501546	0.828245	-0.523435
C64	C	1.001546	1.328245	-0.023435
C65	C	0.486296	0.736873	-0.507562
C66	C	0.986296	1.236873	-0.007562
C67	C	0.042774	1.187830	-0.644531
C68	C	0.542774	1.687830	-0.144531
C69	C	0.093329	1.243694	-0.724019
C70	C	0.593329	1.743694	-0.224019
C71	C	0.178990	1.244767	-0.723323
C72	C	0.678990	1.744767	-0.223323
C73	C	0.191202	1.189170	-0.643589
C74	C	0.691202	1.689170	-0.143589
C75	C	0.152310	1.229964	-0.555788
C76	C	0.652310	1.729964	-0.055788
C77	C	0.066766	1.229611	-0.556810
C78	C	0.566766	1.729611	-0.056810
C79	C	0.062812	1.091432	-0.651805
C80	C	0.562812	1.591432	-0.151805
C81	C	0.148824	1.092340	-0.653385
C82	C	0.648824	1.592340	-0.153385
C83	C	0.275087	1.189927	-0.643051
C84	C	0.775087	1.689927	-0.143051
C85	C	-0.041111	1.187076	-0.645064
C86	C	0.458889	1.687076	-0.145064
C87	C	0.809710	1.187008	-0.645020
C88	C	1.309710	1.687008	-0.145020
C89	C	0.892019	1.186468	-0.645490
C90	C	1.392019	1.686468	-0.145490
C91	C	0.644121	1.148745	-0.872635
C92	C	1.144121	1.648745	-0.372635
C93	C	0.655528	1.131827	-0.970056
C94	C	1.155528	1.631827	-0.470056
C95	C	0.655475	1.416649	-0.683724
C96	C	1.155475	1.916649	-0.183724
C97	C	0.671722	1.513896	-0.700641
C98	C	1.171722	2.013896	-0.200641
C99	C	0.535695	1.309392	-1.282648
C100	C	1.035695	1.809392	-0.782648
C101	C	0.524979	1.325293	-1.191117
C102	C	1.024979	1.825293	-0.691117
C103	C	0.557615	1.276928	-1.135847
C104	C	1.057615	1.776928	-0.635847
C105	C	0.600969	1.212659	-1.172117
C106	C	1.100969	1.712659	-0.672117
C107	C	0.611691	1.196762	-1.263657
C108	C	1.111691	1.696762	-0.763657
C109	C	0.633611	1.164298	-1.116857
C110	C	1.133611	1.664298	-0.616857
C111	C	0.676966	1.100029	-1.153127
C112	C	1.176966	1.600029	-0.653127
C113	C	0.687685	1.084135	-1.244658
C114	C	1.187685	1.584135	-0.744658
C115	C	0.655049	1.132500	-1.299928
C116	C	1.155049	1.632500	-0.799928
C117	C	0.622890	1.180195	-1.025317
C118	C	1.122890	1.680195	-0.525317
C119	C	0.698886	1.067565	-1.006327
C120	C	1.198886	1.567565	-0.506327
C121	C	0.709602	1.051664	-1.097857
C122	C	1.209602	1.551664	-0.597857
C123	C	0.590641	1.228041	-0.416310
C124	C	1.090641	1.728041	0.083690
C125	C	0.579053	1.245130	-0.318918
C126	C	1.079053	1.745130	0.181082
H127	H	0.659669	0.837140	-0.688081
H128	H	1.159669	1.337140	-0.188081
C129	C	0.719008	0.797164	-0.749841
C130	C	1.219008	1.297164	-0.249841
N131	N	0.731659	0.872875	-0.762983
N132	N	1.231659	1.372875	-0.262983
H133	H	0.436135	0.707848	-0.455335
H134	H	0.936135	1.207848	0.044665
C135	C	0.816343	0.680090	-0.851216
C136	C	1.316343	1.180090	-0.351216
N137	N	0.867389	0.709608	-0.904362
N138	N	1.367389	1.209608	-0.404362
H139	H	0.509132	1.348769	-1.327656
H140	H	1.009132	1.848769	-0.827656
H141	H	0.663772	1.119557	-1.374461
H142	H	1.163772	1.619557	-0.874461
H143	H	0.722994	1.031810	-1.274187
H144	H	1.222994	1.531810	-0.774187
H145	H	0.725463	1.028183	-0.961326
H146	H	1.225463	1.528183	-0.461326
H147	H	0.744901	0.999336	-1.127401
H148	H	1.244901	1.499336	-0.627401
C149	C	0.575195	1.250883	-0.985430
C150	C	1.075195	1.750883	-0.485430
N151	N	0.539266	1.304127	-0.955388
N152	N	1.039266	1.804127	-0.455388
H153	H	0.548888	1.289878	-1.061319
H154	H	1.048888	1.789878	-0.561319
H155	H	0.080551	1.314386	-0.720604
H156	H	0.580551	1.814386	-0.220604
C157	C	0.050692	1.325489	-0.545889
C158	C	0.550692	1.825489	-0.045889
N159	N	0.038590	1.397707	-0.537664
N160	N	0.538590	1.897707	-0.037664
C161	C	0.450551	0.889565	-0.470338
C162	C	0.950551	1.389565	0.029662
N163	N	0.412144	0.935756	-0.430349
N164	N	0.912144	1.435756	0.069651
H165	H	0.771064	0.504132	-0.804077
H166	H	1.271064	1.004132	-0.304077
H167	H	0.208271	1.316262	-0.719517
H168	H	0.708271	1.816262	-0.219517
H169	H	0.467247	0.560745	-0.487715
H170	H	0.967247	1.060745	0.012285
C171	C	0.546979	0.433485	-0.570779
C172	C	1.046979	0.933485	-0.070779
N173	N	0.534338	0.357772	-0.557646
N174	N	1.034338	0.857772	-0.057646
C175	C	0.215817	1.207777	-0.811972
C176	C	0.715817	1.707777	-0.311972
N177	N	0.243552	1.179914	-0.878746
N178	N	0.743552	1.679914	-0.378746
H179	H	0.046029	1.056958	-0.714161
H180	H	0.546029	1.556958	-0.214161
C181	C	0.073998	1.206403	-0.813366
C182	C	0.573998	1.706403	-0.313366
N183	N	0.059432	1.178314	-0.880664
N184	N	0.559432	1.678314	-0.380664
C185	C	0.477283	1.395978	-1.151226
C186	C	0.977283	1.895978	-0.651226
N187	N	0.441352	1.449219	-1.121179
N188	N	0.941352	1.949219	-0.621179
H189	H	0.174815	1.061841	-0.717936
H190	H	0.674815	1.561841	-0.217936
H191	H	0.032010	1.191571	-0.496413
H192	H	0.532010	1.691571	0.003587
H193	H	0.158602	1.191619	-0.495376
H194	H	0.658602	1.691619	0.004624
H195	H	0.181691	1.300628	-0.546960
H196	H	0.681691	1.800628	-0.046960
C197	C	0.158628	1.031912	-0.578759
C198	C	0.658628	1.531912	-0.078759
N199	N	0.166007	0.986402	-0.522540
N200	N	0.666007	1.486402	-0.022540
C201	C	0.016281	1.034970	-0.573308
C202	C	0.516281	1.534970	-0.073308
N203	N	-0.018771	0.992450	-0.514184
N204	N	0.481229	1.492450	-0.014184
