data_functionalizedCrystal
_audit_creation_method	'MofGen! by Chris Wilmer'
_symmetry_space_group_name_H-M	'P1'
_symmetry_Int_Tables_number	1
_symmetry_cell_setting	triclinic
loop_
_symmetry_equiv_pos_as_xyz
  x,y,z
_cell_length_a	13.897447
_cell_length_b	29.839134
_cell_length_c	13.897441
_cell_angle_alpha	89.964316
_cell_angle_beta	90.029327
_cell_angle_gamma	89.988103
loop_
_atom_site_label
_atom_site_type_symbol
_atom_site_fract_x
_atom_site_fract_y
_atom_site_fract_z
Zn1	Zn	-0.384180	-0.686831	0.545774
Zn2	Zn	-0.545502	-0.686779	0.384479
Zn3	Zn	-0.384201	-0.611701	0.384451
Zn4	Zn	-0.545414	-0.611690	0.545690
O5	O	-0.464824	-0.649250	0.465099
O6	O	-0.405608	-0.749691	0.524426
O7	O	-0.524151	-0.676803	0.249494
O8	O	-0.249217	-0.621693	0.405874
O9	O	-0.524131	-0.749653	0.405923
O10	O	-0.249202	-0.676891	0.524398
O11	O	-0.405644	-0.621643	0.249473
O12	O	-0.405558	-0.548832	0.405792
O13	O	-0.523980	-0.621675	0.680683
O14	O	-0.524000	-0.548824	0.524254
O15	O	-0.405523	-0.676880	0.680745
O16	O	-0.680472	-0.676792	0.405841
O17	O	-0.680407	-0.621624	0.524282
C18	C	-0.464773	-0.532528	0.465011
C19	C	-0.464774	-0.482593	0.464997
C20	C	-0.403053	-0.125998	0.403508
C21	C	-0.403028	-0.313671	0.403461
O22	O	-0.350474	-0.337928	0.351112
N23	N	-0.464787	-0.337148	0.465036
C24	C	-0.526552	-0.313704	0.526631
O25	O	-0.579074	-0.337979	0.579010
C26	C	-0.526571	-0.126032	0.526681
C27	C	-0.464815	-0.102557	0.465096
C28	C	-0.341301	-0.102523	0.341928
C29	C	-0.341312	-0.055607	0.341936
C30	C	-0.403074	-0.032167	0.403525
C31	C	-0.464826	-0.055642	0.465104
C32	C	-0.588330	-0.102589	0.588281
C33	C	-0.588328	-0.055668	0.588290
C34	C	-0.526572	-0.032193	0.526704
C35	C	-0.526598	0.014714	0.526701
N36	N	-0.464839	0.038192	0.465127
C37	C	-0.403077	0.014751	0.403538
C38	C	-0.526539	-0.412235	0.526599
C39	C	-0.526536	-0.459153	0.526585
C40	C	-0.403011	-0.459116	0.403416
C41	C	-0.403019	-0.412197	0.403426
C42	C	-0.464780	-0.388757	0.465024
C43	C	-0.403104	0.113277	0.403560
C44	C	-0.403123	0.160197	0.403571
C45	C	-0.526644	0.160156	0.526743
C46	C	-0.526630	0.113240	0.526729
C47	C	-0.464852	0.089802	0.465134
O48	O	-0.579117	0.039001	0.579030
O49	O	-0.350548	0.039034	0.351182
C50	C	-0.403043	-0.172913	0.403499
C51	C	-0.464794	-0.196388	0.465079
C52	C	-0.526556	-0.172947	0.526667
C53	C	-0.464791	-0.243306	0.465065
C54	C	-0.403029	-0.266746	0.403477
C55	C	-0.341270	-0.243269	0.341902
C56	C	-0.341280	-0.196354	0.341911
C57	C	-0.588315	-0.196425	0.588242
C58	C	-0.588300	-0.243340	0.588228
C59	C	-0.526538	-0.266781	0.526639
C60	C	-0.715439	-0.649214	0.465076
C61	C	-0.822653	-0.649239	0.465099
C62	C	-0.909722	-0.649261	0.465121
C63	C	-1.018955	-0.649292	0.465146
C64	C	-0.213231	-0.649299	0.465142
C65	C	-0.106017	-0.649320	0.465161
C66	C	-0.464739	-0.649282	0.716692
C67	C	-0.464703	-0.649296	0.823906
C68	C	-0.464874	0.233571	0.465171
C69	C	-0.464885	0.183637	0.465160
C70	C	-0.464840	-0.649244	0.214484
C71	C	-0.464604	-0.649318	0.107271
C72	C	-0.464638	-0.649308	1.020201
C73	C	-0.464677	-0.649300	0.910968
H74	H	-0.576933	0.179250	0.576883
N75	N	-0.274679	-0.127794	0.275486
H76	H	-0.313821	-0.147240	0.230707
H77	H	-0.230023	-0.147253	0.314808
H78	H	-0.290984	-0.262363	0.291751
H79	H	-0.290991	-0.177245	0.291762
N80	N	-0.336516	0.185516	0.337141
H81	H	-0.297389	0.163544	0.298127
H82	H	-0.291926	0.204968	0.376481
H83	H	-0.352795	0.094199	0.353408
N84	N	-0.593171	-0.386957	0.593028
H85	H	-0.554040	-0.367509	0.637811
H86	H	-0.632278	-0.408982	0.631957
H87	H	-0.638609	-0.177344	0.638396
N88	N	-0.654924	-0.127904	0.654716
H89	H	-0.699586	-0.147355	0.615452
H90	H	-0.693976	-0.105902	0.693723
H91	H	-0.638619	-0.036586	0.638455
N92	N	-0.274687	-0.030287	0.275535
H93	H	-0.313822	-0.010800	0.230765
H94	H	-0.235569	-0.052287	0.236589
N95	N	-0.336413	-0.386880	0.337002
H96	H	-0.297292	-0.408853	0.297986
H97	H	-0.291816	-0.367431	0.376343
N98	N	-0.593247	0.087918	0.593139
H99	H	-0.632377	0.109888	0.632153
H100	H	-0.554030	0.068436	0.637844
N101	N	-0.654920	-0.268657	0.654649
H102	H	-0.694043	-0.246684	0.693664
H103	H	-0.615704	-0.288139	0.699353
H104	H	-0.352722	-0.478209	0.353268
H105	H	-0.576834	-0.478262	0.576724
