data_functionalizedCrystal
_audit_creation_method	'MofGen! by Chris Wilmer'
_symmetry_space_group_name_H-M	'P1'
_symmetry_Int_Tables_number	1
_symmetry_cell_setting	triclinic
loop_
_symmetry_equiv_pos_as_xyz
  x,y,z
_cell_length_a	19.188905
_cell_length_b	23.532407
_cell_length_c	18.266242
_cell_angle_alpha	89.988983
_cell_angle_beta	89.983837
_cell_angle_gamma	82.991616
loop_
_atom_site_label
_atom_site_type_symbol
_atom_site_fract_x
_atom_site_fract_y
_atom_site_fract_z
O1	O	0.925934	0.071034	-0.061009
O2	O	1.425934	0.571034	0.438991
O3	O	0.722589	0.080620	-0.060985
O4	O	1.222589	0.580620	0.439015
O5	O	0.830393	-0.007092	-0.060984
O6	O	1.330393	0.492908	0.439016
O7	O	0.818130	0.158746	-0.061010
O8	O	1.318130	0.658746	0.438990
O9	O	0.830375	-0.007096	0.060778
O10	O	1.330375	0.492904	0.560778
O11	O	0.722571	0.080616	0.060777
O12	O	1.222571	0.580616	0.560777
O13	O	0.925916	0.071030	0.060753
O14	O	1.425916	0.571030	0.560753
Zn15	Zn	0.824240	0.075822	0.080097
Zn16	Zn	1.324240	0.575822	0.580097
Zn17	Zn	0.824264	0.075828	-0.080329
Zn18	Zn	1.324264	0.575828	0.419671
O19	O	0.818112	0.158742	0.060752
O20	O	1.318112	0.658742	0.560752
C21	C	0.696570	0.080310	-0.000101
C22	C	1.196570	0.580310	0.499899
C23	C	0.619067	0.079385	-0.000091
C24	C	1.119067	0.579385	0.499909
C25	C	0.830072	-0.028311	-0.000101
C26	C	1.330072	0.471689	0.499899
C27	C	0.829133	-0.091530	-0.000096
C28	C	1.329133	0.408470	0.499904
C29	C	0.582687	0.078944	-0.066465
C30	C	1.082687	0.578944	0.433535
C31	C	0.509866	0.078068	-0.066474
C32	C	1.009866	0.578068	0.433526
C33	C	0.473430	0.077623	-0.000105
C34	C	0.973430	0.577623	0.499895
C35	C	0.509819	0.078068	0.066278
C36	C	1.009819	0.578068	0.566278
C37	C	0.582638	0.078949	0.066285
C38	C	1.082638	0.578949	0.566285
N39	N	0.364511	0.043829	0.049292
N40	N	0.864511	0.543829	0.549292
N41	N	0.295336	0.042991	0.049281
N42	N	0.795336	0.542991	0.549281
C43	C	0.254032	0.074970	-0.000122
C44	C	0.754032	0.574970	0.499878
N45	N	0.284517	0.107812	-0.049525
N46	N	0.784517	0.607812	0.450475
N47	N	0.353698	0.108648	-0.049516
N48	N	0.853698	0.608648	0.450484
C49	C	0.394471	0.076668	-0.000105
C50	C	0.894471	0.576668	0.499895
C51	C	0.138691	0.073580	-0.066511
C52	C	0.638691	0.573580	0.433489
C53	C	0.065868	0.072709	-0.066517
C54	C	0.565868	0.572709	0.433483
C55	C	0.065824	0.072703	0.066237
C56	C	0.565824	0.572703	0.566237
C57	C	0.138644	0.073580	0.066241
C58	C	0.638644	0.573580	0.566241
C59	C	0.175074	0.074016	-0.000135
C60	C	0.675074	0.574016	0.499865
C61	C	0.887040	-0.490514	-0.000143
C62	C	1.387040	0.009486	0.499857
C63	C	0.886168	-0.549916	-0.000148
C64	C	1.386168	-0.049916	0.499852
O65	O	0.939848	-0.586551	-0.000181
O66	O	1.439848	-0.086551	0.499819
N67	N	0.822078	-0.572674	-0.000140
N68	N	1.322078	-0.072674	0.499860
C69	C	0.758857	-0.536026	-0.000134
C70	C	1.258857	-0.036026	0.499866
O71	O	0.704264	-0.560837	-0.000128
O72	O	1.204264	-0.060837	0.499872
C73	C	0.759730	-0.476625	-0.000134
C74	C	1.259730	0.023375	0.499866
C75	C	0.823824	-0.453871	-0.000134
C76	C	1.323824	0.046129	0.499866
C77	C	0.951129	-0.467759	-0.000144
C78	C	1.451129	0.032241	0.499856
C79	C	0.952000	-0.408362	-0.000137
C80	C	1.452000	0.091638	0.499863
C81	C	0.888784	-0.371718	-0.000129
C82	C	1.388784	0.128282	0.499871
C83	C	0.824696	-0.394473	-0.000127
C84	C	1.324696	0.105527	0.499873
C85	C	0.696509	-0.439978	-0.000133
C86	C	1.196509	0.060022	0.499867
C87	C	0.697388	-0.380574	-0.000133
C88	C	1.197388	0.119426	0.499867
C89	C	0.761482	-0.357820	-0.000134
C90	C	1.261482	0.142180	0.499866
C91	C	0.762351	-0.298432	-0.000112
C92	C	1.262351	0.201568	0.499888
N93	N	0.826440	-0.275674	-0.000120
N94	N	1.326440	0.224326	0.499880
C95	C	0.889657	-0.312317	-0.000129
C96	C	1.389657	0.187683	0.499871
C97	C	0.757029	-0.660772	-0.000136
C98	C	1.257029	-0.160772	0.499864
C99	C	0.756155	-0.720172	-0.000131
C100	C	1.256155	-0.220172	0.499869
C101	C	0.883466	-0.734058	-0.000146
C102	C	1.383466	-0.234058	0.499854
C103	C	0.884339	-0.674657	-0.000146
C104	C	1.384339	-0.174657	0.499854
C105	C	0.821118	-0.638014	-0.000144
C106	C	1.321118	-0.138014	0.499856
C107	C	0.891483	-0.187577	-0.000114
C108	C	1.391483	0.312423	0.499886
C109	C	0.892350	-0.128173	-0.000104
C110	C	1.392350	0.371827	0.499896
C111	C	0.765039	-0.114292	-0.000092
C112	C	1.265039	0.385708	0.499908
C113	C	0.764172	-0.173691	-0.000098
C114	C	1.264172	0.326309	0.499902
C115	C	0.827400	-0.210332	-0.000111
C116	C	1.327400	0.289668	0.499889
O117	O	0.708699	-0.261762	-0.000082
O118	O	1.208699	0.238238	0.499918
O119	O	0.944241	-0.287498	-0.000144
O120	O	1.444241	0.212502	0.499856
C121	C	0.951935	0.071340	-0.000133
C122	C	1.451935	0.571340	0.499867
C123	C	1.029437	0.072265	-0.000147
C124	C	1.529437	0.572265	0.499853
C125	C	0.818433	0.179961	-0.000132
C126	C	1.318433	0.679961	0.499868
C127	C	0.819372	0.243180	-0.000143
C128	C	1.319372	0.743180	0.499857
N129	N	0.824229	0.075818	0.189584
N130	N	1.324229	0.575818	0.689584
N131	N	0.824281	0.075828	-0.189816
N132	N	1.324281	0.575828	0.310184
C133	C	0.871980	0.036998	0.227893
C134	C	1.371980	0.536998	0.727893
C135	C	0.871985	0.036995	0.304538
C136	C	1.371985	0.536995	0.804538
C137	C	0.824245	0.075822	0.342871
C138	C	1.324245	0.575822	0.842871
C139	C	0.776485	0.114645	0.304553
C140	C	1.276485	0.614645	0.804553
C141	C	0.776477	0.114643	0.227909
C142	C	1.276477	0.614643	0.727909
N143	N	0.815008	0.126238	0.463197
N144	N	1.315008	0.626238	0.963197
N145	N	0.815020	0.126238	0.536005
N146	N	1.315020	0.626238	1.036005
C147	C	0.824264	0.075830	0.573794
C148	C	1.324264	0.575830	1.073794
N149	N	0.833511	0.025420	0.536024
N150	N	1.333511	0.525420	1.036024
N151	N	0.833503	0.025421	0.463209
N152	N	1.333503	0.525421	0.963209
C153	C	0.824248	0.075829	0.425978
C154	C	1.324248	0.575829	0.925978
C155	C	0.872023	0.037004	0.695210
C156	C	1.372023	0.537004	1.195210
C157	C	0.872022	0.037001	0.771856
C158	C	1.372022	0.537001	1.271856
C159	C	0.776526	0.114656	0.771869
C160	C	1.276526	0.614656	1.271869
C161	C	0.776523	0.114654	0.695224
C162	C	1.276523	0.614654	1.195224
C163	C	0.824275	0.075829	0.656899
C164	C	1.324275	0.575829	1.156899
H165	H	0.612344	0.079299	-0.120514
H166	H	1.112344	0.579299	0.379486
C167	C	0.964392	-0.262413	-0.062722
C168	C	1.464392	0.237587	0.437278
C169	C	0.960984	-0.227847	-0.000125
C170	C	1.460984	0.272153	0.499875
H171	H	1.007301	-0.287271	-0.062726
H172	H	1.507301	0.212729	0.437274
H173	H	0.926109	-0.284472	-0.062717
H174	H	1.426109	0.215528	0.437283
H175	H	0.962090	-0.238938	-0.105176
H176	H	1.462090	0.261062	0.394824
H177	H	0.963281	-0.251323	0.042329
H178	H	1.463281	0.248677	0.542329
H179	H	0.999278	-0.205787	-0.000124
H180	H	1.499278	0.294213	0.499876
H181	H	1.004192	-0.389841	-0.000141
H182	H	1.504192	0.110159	0.499859
C183	C	0.966877	0.024199	0.141382
C184	C	1.466877	0.524199	0.641382
C185	C	0.924238	-0.005776	0.185635
C186	C	1.424238	0.494224	0.685635
H187	H	0.999073	-0.002237	0.115257
H188	H	1.499073	0.497763	0.615257
H189	H	0.938424	0.047409	0.107703
H190	H	1.438424	0.547409	0.607703
H191	H	0.992059	0.047747	0.171177
H192	H	1.492059	0.547747	0.671177
H193	H	0.899052	-0.029321	0.155839
H194	H	1.399052	0.470679	0.655839
H195	H	0.952695	-0.028997	0.219318
H196	H	1.452695	0.471003	0.719318
C197	C	0.228801	0.025625	-0.143521
C198	C	0.728801	0.525625	0.356479
C199	C	0.178736	0.074067	-0.139471
C200	C	0.678736	0.574067	0.360529
H201	H	0.253517	0.025926	-0.188566
H202	H	0.753517	0.525926	0.311434
H203	H	0.260892	0.026013	-0.103995
H204	H	0.760892	0.526013	0.396005
H205	H	0.205945	-0.007917	-0.140759
H206	H	0.705945	0.492083	0.359241
H207	H	0.201593	0.107610	-0.142227
H208	H	0.701593	0.607610	0.357773
H209	H	0.146640	0.073684	-0.179007
H210	H	0.646640	0.573684	0.320993
C211	C	0.689347	-0.232425	-0.062690
C212	C	1.189347	0.267575	0.437310
C213	C	0.693723	-0.198709	-0.000091
C214	C	1.193723	0.301291	0.499909
H215	H	0.645856	-0.247870	-0.062686
H216	H	1.145856	0.252130	0.437314
H217	H	0.692336	-0.209528	-0.105138
H218	H	1.192336	0.290472	0.394862
H219	H	0.726876	-0.262748	-0.062691
H220	H	1.226876	0.237252	0.437309
H221	H	0.656197	-0.168384	-0.000092
H222	H	1.156197	0.331616	0.499908
H223	H	0.690727	-0.221607	0.042368
H224	H	1.190727	0.278393	0.542368
H225	H	0.737591	0.146255	0.196717
H226	H	1.237591	0.646255	0.696717
H227	H	0.737642	0.146268	0.664031
H228	H	1.237642	0.646268	1.164031
H229	H	0.480239	0.077709	-0.120526
H230	H	0.980239	0.577709	0.379474
H231	H	0.910904	0.005389	0.664004
H232	H	1.410904	0.505389	1.164004
H233	H	0.737652	0.146268	0.803079
H234	H	1.237652	0.646268	1.303079
C235	C	1.006342	-0.564981	-0.000155
C236	C	1.506342	-0.064981	0.499845
C237	C	1.020624	-0.508033	-0.000154
C238	C	1.520624	-0.008033	0.499846
H239	H	1.049249	-0.589840	-0.000162
H240	H	1.549249	-0.089840	0.499838
H241	H	0.980044	-0.571869	0.042306
H242	H	1.480044	-0.071869	0.542306
H243	H	0.980054	-0.571856	-0.042617
H244	H	1.480054	-0.071856	0.457383
H245	H	1.046907	-0.501156	0.042311
H246	H	1.546907	-0.001156	0.542311
H247	H	1.046933	-0.501141	-0.042619
H248	H	1.546933	-0.001141	0.457381
H249	H	0.936530	-0.656135	-0.000147
H250	H	1.436530	-0.156135	0.499853
C251	C	0.938648	-0.831286	-0.000176
C252	C	1.438648	-0.331286	0.499824
C253	C	0.952957	-0.774345	-0.000168
C254	C	1.452957	-0.274345	0.499832
H255	H	0.981547	-0.856157	-0.000195
H256	H	1.481547	-0.356157	0.499805
H257	H	0.912354	-0.838172	0.042288
H258	H	1.412354	-0.338172	0.542288
H259	H	0.912349	-0.838148	-0.042635
H260	H	1.412349	-0.338148	0.457365
H261	H	0.979252	-0.767482	0.042294
H262	H	1.479252	-0.267482	0.542294
H263	H	0.979262	-0.767456	-0.042636
H264	H	1.479262	-0.267456	0.457364
C265	C	0.630404	-0.700464	-0.000117
C266	C	1.130404	-0.200464	0.499883
C267	C	0.685701	-0.745179	-0.000124
C268	C	1.185701	-0.245179	0.499876
H269	H	0.586908	-0.715902	-0.000120
H270	H	1.086908	-0.215902	0.499880
H271	H	0.633388	-0.677596	0.042345
H272	H	1.133388	-0.177596	0.542345
H273	H	0.633408	-0.677576	-0.042578
H274	H	1.133408	-0.177576	0.457422
H275	H	0.682700	-0.768065	0.042340
H276	H	1.182700	-0.268065	0.542340
H277	H	0.682716	-0.768057	-0.042589
H278	H	1.182716	-0.268057	0.457411
H279	H	0.644318	-0.458493	-0.000137
H280	H	1.144318	0.041507	0.499863
H281	H	0.645904	-0.350741	-0.000132
H282	H	1.145904	0.149259	0.499868
H283	H	0.910905	0.005386	0.803048
H284	H	1.410905	0.505386	1.303048
C285	C	0.684142	-0.585910	-0.062716
C286	C	1.184142	-0.085910	0.437284
C287	C	0.687529	-0.620497	-0.000123
C288	C	1.187529	-0.120497	0.499877
H289	H	0.641233	-0.561051	-0.062710
H290	H	1.141233	-0.061051	0.437290
H291	H	0.722426	-0.563852	-0.062715
H292	H	1.222426	-0.063852	0.437285
H293	H	0.686457	-0.609371	-0.105173
H294	H	1.186457	-0.109371	0.394827
H295	H	0.685218	-0.597036	0.042334
H296	H	1.185218	-0.097036	0.542334
H297	H	0.649234	-0.642556	-0.000117
H298	H	1.149234	-0.142556	0.499883
H299	H	0.910871	0.005382	0.335735
H300	H	1.410871	0.505382	0.835735
C301	C	0.734103	0.149134	0.422049
C302	C	1.234103	0.649134	0.922049
C303	C	0.724010	0.157327	0.346685
C304	C	1.224010	0.657327	0.846685
H305	H	0.701707	0.175486	0.448057
H306	H	1.201707	0.675486	0.948057
H307	H	0.726787	0.111145	0.434622
H308	H	1.226787	0.611145	0.934622
H309	H	0.780660	0.155224	0.434578
H310	H	1.280660	0.655224	0.934578
H311	H	0.677455	0.151232	0.334155
H312	H	1.177455	0.651232	0.834155
H313	H	0.731320	0.195324	0.334107
H314	H	1.231320	0.695324	0.834107
H315	H	0.713570	-0.084446	-0.000083
H316	H	1.213570	0.415554	0.499917
H317	H	0.480148	0.077708	0.120316
H318	H	0.980148	0.577708	0.620316
H319	H	0.612258	0.079310	0.120337
H320	H	1.112258	0.579310	0.620337
H321	H	0.036158	0.072344	0.120276
H322	H	0.536158	0.572344	0.620276
C323	C	0.073234	0.072786	-0.197736
C324	C	0.573234	0.572786	0.302264
C325	C	0.025876	0.072221	-0.139482
C326	C	0.525876	0.572221	0.360518
H327	H	0.048543	0.072480	-0.242781
H328	H	0.548543	0.572480	0.257219
H329	H	0.096072	0.106330	-0.194984
H330	H	0.596072	0.606330	0.305016
H331	H	0.107198	0.039923	-0.194956
H332	H	0.607198	0.539923	0.305044
H333	H	-0.008085	0.105086	-0.142259
H334	H	0.491915	0.605086	0.357741
H335	H	0.003026	0.038673	-0.142236
H336	H	0.503026	0.538673	0.357764
H337	H	0.168266	0.073936	0.120291
H338	H	0.668266	0.573936	0.620291
C339	C	1.018107	-0.147875	-0.000126
C340	C	1.518107	0.352125	0.499874
C341	C	0.962806	-0.103163	-0.000111
C342	C	1.462806	0.396837	0.499889
H343	H	1.061601	-0.132435	-0.000136
H344	H	1.561601	0.367565	0.499864
H345	H	1.015112	-0.170761	0.042331
H346	H	1.515112	0.329239	0.542331
H347	H	1.015115	-0.170747	-0.042591
H348	H	1.515115	0.329253	0.457409
H349	H	0.965794	-0.080294	0.042358
H350	H	1.465794	0.419706	0.542358
H351	H	0.965802	-0.080268	-0.042572
H352	H	1.465802	0.419732	0.457428
