data_functionalizedCrystal
_audit_creation_method	'MofGen! by Chris Wilmer'
_symmetry_space_group_name_H-M	'P1'
_symmetry_Int_Tables_number	1
_symmetry_cell_setting	triclinic
loop_
_symmetry_equiv_pos_as_xyz
  x,y,z
_cell_length_a	12.645330
_cell_length_b	18.215407
_cell_length_c	18.215399
_cell_angle_alpha	90.013852
_cell_angle_beta	89.973779
_cell_angle_gamma	89.991482
loop_
_atom_site_label
_atom_site_type_symbol
_atom_site_fract_x
_atom_site_fract_y
_atom_site_fract_z
Zn1	Zn	-0.422134	-1.125114	-0.416079
Zn2	Zn	-0.599424	-1.125056	-0.293021
Zn3	Zn	-0.422163	-1.002053	-0.293032
Zn4	Zn	-0.599344	-1.002039	-0.416053
O5	O	-0.510767	-1.063566	-0.354546
O6	O	-0.445674	-1.228091	-0.399761
O7	O	-0.575956	-1.108721	-0.190038
O8	O	-0.273812	-1.018407	-0.309370
O9	O	-0.575928	-1.228048	-0.309351
O10	O	-0.273791	-1.108820	-0.399772
O11	O	-0.445723	-1.018351	-0.190047
O12	O	-0.445645	-0.899067	-0.309345
O13	O	-0.575792	-1.018384	-0.519040
O14	O	-0.575819	-0.899057	-0.399727
O15	O	-0.445596	-1.108807	-0.519059
O16	O	-0.747761	-1.108707	-0.309326
O17	O	-0.747702	-1.018328	-0.399717
C18	C	-0.510728	-0.872359	-0.354535
C19	C	-0.510737	-0.790560	-0.354548
C20	C	-0.578642	-0.525517	-0.401544
C21	C	-0.578635	-0.602376	-0.401540
C22	C	-0.442882	-0.602355	-0.307562
C23	C	-0.442895	-0.525498	-0.307562
C24	C	-0.510773	-0.487081	-0.354558
C25	C	-0.510754	-0.640797	-0.354554
C26	C	-0.510746	-0.724131	-0.354549
C27	C	-0.510782	-0.403742	-0.354561
C28	C	-0.786196	-1.063530	-0.354533
C29	C	-0.904026	-1.063581	-0.354552
C30	C	-0.948900	-1.120504	-0.297737
C31	C	-1.071461	-1.120374	-0.297534
C32	C	-1.072026	-0.986029	-0.333716
C33	C	-0.949428	-0.986321	-0.333283
C34	C	-0.949107	-1.083611	-0.432390
C35	C	-1.071712	-1.085359	-0.431995
C36	C	-0.234261	-1.063622	-0.354575
C37	C	-0.116431	-1.063646	-0.354588
C38	C	-0.510682	-1.063600	-0.546499
C39	C	-0.510646	-1.063615	-0.628298
C40	C	-0.510798	-0.255518	-0.354558
C41	C	-0.510790	-0.337317	-0.354564
C42	C	-0.442788	-1.016599	-0.816497
C43	C	-0.442766	-1.016612	-0.893356
C44	C	-0.578377	-1.110719	-0.893337
C45	C	-0.578403	-1.110702	-0.816480
C46	C	-0.510602	-1.063643	-0.778062
C47	C	-0.510555	-1.063673	-0.931778
C48	C	-0.510532	-1.063687	-1.015112
C49	C	-0.510626	-1.063628	-0.694723
C50	C	-0.510774	-1.063573	-0.163340
C51	C	-0.510512	-1.063701	-0.081541
H52	H	-0.919361	-1.178214	-0.310619
H53	H	-1.100727	-1.142478	-0.447737
H54	H	-0.919745	-0.942455	-0.372877
N55	N	-0.369658	-0.643789	-0.256885
H56	H	-0.386034	-0.630402	-0.204283
H57	H	-0.379975	-0.698297	-0.264077
N58	N	-0.910669	-1.028701	-0.488465
H59	H	-0.864281	-0.991031	-0.463612
H60	H	-0.868698	-1.054998	-0.527650
H61	H	-1.102318	-1.046958	-0.476590
N62	N	-0.369696	-0.484035	-0.256877
H63	H	-0.326689	-0.520034	-0.227109
H64	H	-0.320695	-0.452153	-0.286889
H65	H	-1.100867	-1.107119	-0.239870
H66	H	-0.633913	-0.494240	-0.439810
H67	H	-1.101481	-1.177921	-0.310570
H68	H	-0.920912	-0.969374	-0.276391
H69	H	-0.918163	-1.107395	-0.240392
N70	N	-1.110620	-0.928338	-0.386851
H71	H	-1.152295	-0.889839	-0.359341
H72	H	-1.048001	-0.904561	-0.411741
N73	N	-0.651486	-1.161482	-0.934776
H74	H	-0.694451	-1.191281	-0.898762
H75	H	-0.700530	-1.131527	-0.966659
H76	H	-0.633630	-1.149012	-0.785184
N77	N	-0.369662	-0.965848	-0.775059
H78	H	-0.326699	-0.936048	-0.811074
H79	H	-0.412815	-0.931775	-0.743161
H80	H	-0.633902	-0.633667	-0.439801
H81	H	-1.102810	-0.968806	-0.277459
H82	H	-0.918113	-1.139225	-0.451411
N83	N	-0.369628	-0.965870	-0.934813
H84	H	-0.326685	-0.936057	-0.898810
H85	H	-0.320564	-0.995840	-0.966712
