data_functionalizedCrystal
_audit_creation_method	'MofGen! by Chris Wilmer'
_symmetry_space_group_name_H-M	'P1'
_symmetry_Int_Tables_number	1
_symmetry_cell_setting	triclinic
loop_
_symmetry_equiv_pos_as_xyz
  x,y,z
_cell_length_a	23.532407
_cell_length_b	26.809956
_cell_length_c	23.532407
_cell_angle_alpha	89.990736
_cell_angle_beta	97.151322
_cell_angle_gamma	90.010714
loop_
_atom_site_label
_atom_site_type_symbol
_atom_site_fract_x
_atom_site_fract_y
_atom_site_fract_z
O1	O	0.755269	0.041422	-0.069133
O2	O	1.255269	0.541422	0.430867
O3	O	0.589406	0.041438	-0.079137
O4	O	1.089406	0.541438	0.420863
O5	O	0.677339	0.041420	0.008797
O6	O	1.177339	0.541420	0.508797
O7	O	0.667336	0.041440	-0.157067
O8	O	1.167336	0.541440	0.342933
O9	O	0.677312	-0.041539	0.008797
O10	O	1.177312	0.458461	0.508797
O11	O	0.589379	-0.041522	-0.079137
O12	O	1.089379	0.458478	0.420863
O13	O	0.755242	-0.041537	-0.069133
O14	O	1.255242	0.458463	0.430867
Zn15	Zn	0.672306	-0.054701	-0.074135
Zn16	Zn	1.172306	0.445299	0.425865
Zn17	Zn	0.672342	0.054602	-0.074135
Zn18	Zn	1.172342	0.554602	0.425865
O19	O	0.667309	-0.041520	-0.157067
O20	O	1.167309	0.458480	0.342933
C21	C	0.568176	-0.000040	-0.078882
C22	C	1.068176	0.499960	0.421118
C23	C	0.504959	-0.000035	-0.078116
C24	C	1.004959	0.499965	0.421884
N25	N	0.672286	-0.129297	-0.074135
N26	N	1.172286	0.370703	0.425865
C27	C	0.105856	-0.000052	-0.125350
C28	C	0.605856	0.499948	0.374650
C29	C	0.046456	-0.000055	-0.124638
C30	C	0.546456	0.499945	0.375362
O31	O	0.009711	-0.000068	-0.168424
O32	O	0.509711	0.499932	0.331576
N33	N	0.023830	-0.000060	-0.072362
N34	N	0.523830	0.499940	0.427638
C35	C	0.060607	-0.000067	-0.020794
C36	C	0.560607	0.499933	0.479206
O37	O	0.035908	-0.000072	0.023737
O38	O	0.535908	0.499928	0.523737
C39	C	0.120006	-0.000068	-0.021506
C40	C	0.620006	0.499932	0.478494
C41	C	0.142629	-0.000057	-0.073785
C42	C	0.642629	0.499943	0.426215
C43	C	0.128479	-0.000042	-0.177625
C44	C	0.628479	0.499958	0.322375
C45	C	0.187876	-0.000038	-0.178336
C46	C	0.687876	0.499962	0.321664
C47	C	0.224649	-0.000044	-0.126772
C48	C	0.724649	0.499956	0.373228
C49	C	0.202025	-0.000053	-0.074497
C50	C	0.702025	0.499947	0.425503
C51	C	0.156783	-0.000078	0.030062
C52	C	0.656783	0.499922	0.530062
C53	C	0.216185	-0.000079	0.029345
C54	C	0.716185	0.499921	0.529345
C55	C	0.238808	-0.000069	-0.022934
C56	C	0.738808	0.499931	0.477066
C57	C	0.298194	-0.000055	-0.023643
C58	C	0.798194	0.499945	0.476357
N59	N	0.320820	-0.000050	-0.075920
N60	N	0.820820	0.499950	0.424080
C61	C	0.284048	-0.000044	-0.127484
C62	C	0.784048	0.499956	0.372516
C63	C	-0.064135	-0.000067	-0.019302
C64	C	0.435865	0.499933	0.480698
C65	C	-0.123533	-0.000063	-0.018589
C66	C	0.376467	0.499937	0.481411
C67	C	-0.137680	-0.000052	-0.122434
C68	C	0.362320	0.499948	0.377566
C69	C	-0.078281	-0.000052	-0.123146
C70	C	0.421719	0.499948	0.376854
C71	C	-0.041509	-0.000062	-0.071578
C72	C	0.458491	0.499938	0.428422
C73	C	0.408784	-0.000035	-0.128974
C74	C	0.908784	0.499965	0.371026
C75	C	0.468186	-0.000029	-0.129680
C76	C	0.968186	0.499971	0.370320
C77	C	0.482329	-0.000043	-0.025836
C78	C	0.982329	0.499957	0.474164
C79	C	0.422932	-0.000047	-0.025129
C80	C	0.922932	0.499953	0.474871
C81	C	0.386160	-0.000044	-0.076702
C82	C	0.886160	0.499956	0.423298
O83	O	0.334974	-0.000044	0.020119
O84	O	0.834974	0.499956	0.520119
O85	O	0.308755	-0.000045	-0.172007
O86	O	0.808755	0.499955	0.327993
C87	C	0.706678	-0.473922	-0.108495
C88	C	1.206678	0.026078	0.391505
C89	C	0.706697	-0.682800	-0.108495
C90	C	1.206697	-0.182800	0.391505
O91	O	0.735923	-0.709803	-0.137703
O92	O	1.235923	-0.209803	0.362297
N93	N	0.672355	-0.708924	-0.074129
N94	N	1.172355	-0.208924	0.425871
C95	C	0.638010	-0.682825	-0.039759
C96	C	1.138010	-0.182825	0.460241
O97	O	0.608805	-0.709838	-0.010524
O98	O	1.108805	-0.209838	0.489476
C99	C	0.637995	-0.473949	-0.039756
C100	C	1.137995	0.026051	0.460244
C101	C	0.672334	-0.447827	-0.074129
C102	C	1.172334	0.052173	0.425871
C103	C	0.741015	-0.447801	-0.142864
C104	C	1.241015	0.052199	0.357136
C105	C	0.741008	-0.395584	-0.142866
C106	C	1.241008	0.104416	0.357134
C107	C	0.706664	-0.369489	-0.108500
C108	C	1.206664	0.130511	0.391500
C109	C	0.672327	-0.395611	-0.074131
C110	C	1.172327	0.104389	0.425869
C111	C	0.603653	-0.447851	-0.005383
C112	C	1.103653	0.052149	0.494617
C113	C	0.603653	-0.395629	-0.005384
C114	C	1.103653	0.104371	0.494616
C115	C	0.637993	-0.369507	-0.039757
C116	C	1.137993	0.130493	0.460243
C117	C	0.637975	-0.317300	-0.039766
C118	C	1.137975	0.182700	0.460234
N119	N	0.672317	-0.291176	-0.074132
N120	N	1.172317	0.208824	0.425868
C121	C	0.706661	-0.317270	-0.108498
C122	C	1.206661	0.182730	0.391502
C123	C	0.638019	-0.792489	-0.039763
C124	C	1.138019	-0.292489	0.460237
C125	C	0.638022	-0.844708	-0.039764
C126	C	1.138022	-0.344708	0.460236
C127	C	0.706710	-0.844678	-0.108500
C128	C	1.206710	-0.344678	0.391500
C129	C	0.706704	-0.792458	-0.108501
C130	C	1.206704	-0.292458	0.391499
C131	C	0.672361	-0.766365	-0.074129
C132	C	1.172361	-0.266365	0.425871
C133	C	0.706643	-0.207612	-0.108501
C134	C	1.206643	0.292388	0.391499
C135	C	0.706630	-0.155392	-0.108501
C136	C	1.206630	0.344608	0.391499
C137	C	0.637945	-0.155425	-0.039764
C138	C	1.137945	0.344575	0.460236
C139	C	0.637955	-0.207642	-0.039765
C140	C	1.137955	0.292358	0.460235
C141	C	0.672308	-0.233734	-0.074135
C142	C	1.172308	0.266266	0.425865
O143	O	0.608769	-0.290264	-0.010568
O144	O	1.108769	0.209736	0.489432
O145	O	0.735870	-0.290248	-0.137719
O146	O	1.235870	0.209752	0.362281
C147	C	0.706686	-0.526138	-0.108493
C148	C	1.206686	-0.026138	0.391507
C149	C	0.672349	-0.552260	-0.074124
C150	C	1.172349	-0.052260	0.425876
C151	C	0.638005	-0.526165	-0.039758
C152	C	1.138005	-0.026165	0.460242
C153	C	0.672352	-0.604479	-0.074126
C154	C	1.172352	-0.104479	0.425874
C155	C	0.706696	-0.630574	-0.108492
C156	C	1.206696	-0.130574	0.391508
C157	C	0.741037	-0.604449	-0.142858
C158	C	1.241037	-0.104449	0.357142
C159	C	0.741030	-0.552233	-0.142860
C160	C	1.241030	-0.052233	0.357140
C161	C	0.603663	-0.552289	-0.005392
C162	C	1.103663	-0.052289	0.494608
C163	C	0.603673	-0.604505	-0.005393
C164	C	1.103673	-0.104505	0.494607
C165	C	0.638017	-0.630600	-0.039760
C166	C	1.138017	-0.130600	0.460240
C167	C	0.776472	-0.000058	-0.069388
C168	C	1.276472	0.499942	0.430612
C169	C	0.839689	-0.000060	-0.070154
C170	C	1.339689	0.499940	0.429846
C171	C	0.677071	-0.000060	0.030013
C172	C	1.177071	0.499940	0.530013
C173	C	0.676305	-0.000064	0.093230
C174	C	1.176305	0.499936	0.593230
N175	N	0.672366	0.129198	-0.074131
N176	N	1.172366	0.629198	0.425869
C177	C	0.667577	-0.000038	-0.178283
C178	C	1.167577	0.499962	0.321717
C179	C	0.668343	-0.000031	-0.241500
C180	C	1.168343	0.499969	0.258500
C181	C	0.723539	-0.000041	0.492333
C182	C	1.223539	0.499959	0.992333
C183	C	0.722827	-0.000037	0.551733
C184	C	1.222827	0.499963	1.051733
O185	O	0.766613	-0.000023	0.588478
O186	O	1.266613	0.499977	1.088478
N187	N	0.670551	-0.000033	0.574359
N188	N	1.170551	0.499967	1.074359
C189	C	0.618983	-0.000027	0.537582
C190	C	1.118983	0.499973	1.037582
O191	O	0.574452	-0.000023	0.562281
O192	O	1.074452	0.499977	1.062281
C193	C	0.619695	-0.000027	0.478182
C194	C	1.119695	0.499973	0.978182
C195	C	0.671974	-0.000037	0.455560
C196	C	1.171974	0.499963	0.955560
C197	C	0.775814	-0.000050	0.469710
C198	C	1.275814	0.499950	0.969710
C199	C	0.776525	-0.000055	0.410313
C200	C	1.276525	0.499945	0.910313
C201	C	0.724961	-0.000051	0.373540
C202	C	1.224961	0.499949	0.873540
C203	C	0.672685	-0.000042	0.396164
C204	C	1.172685	0.499958	0.896164
C205	C	0.568127	-0.000018	0.441406
C206	C	1.068127	0.499982	0.941406
C207	C	0.568844	-0.000018	0.382004
C208	C	1.068844	0.499982	0.882004
C209	C	0.621123	-0.000028	0.359381
C210	C	1.121123	0.499972	0.859381
C211	C	0.621832	-0.000042	0.299995
C212	C	1.121832	0.499958	0.799995
N213	N	0.674109	-0.000047	0.277368
N214	N	1.174109	0.499953	0.777368
C215	C	0.725673	-0.000051	0.314141
C216	C	1.225673	0.499949	0.814141
C217	C	0.617491	-0.000026	0.662324
C218	C	1.117491	0.499974	1.162324
C219	C	0.616778	-0.000029	0.721722
C220	C	1.116778	0.499971	1.221722
C221	C	0.720623	-0.000038	0.735869
C222	C	1.220623	0.499962	1.235869
C223	C	0.721335	-0.000039	0.676470
C224	C	1.221335	0.499961	1.176470
C225	C	0.669767	-0.000030	0.639698
C226	C	1.169767	0.499970	1.139698
C227	C	0.727163	-0.000062	0.189405
C228	C	1.227163	0.499938	0.689405
C229	C	0.727869	-0.000068	0.130003
C230	C	1.227869	0.499932	0.630003
C231	C	0.624025	-0.000057	0.115860
C232	C	1.124025	0.499943	0.615860
C233	C	0.623318	-0.000052	0.175257
C234	C	1.123318	0.499948	0.675257
C235	C	0.674891	-0.000053	0.212029
C236	C	1.174891	0.499947	0.712029
O237	O	0.578070	-0.000055	0.263215
O238	O	1.078070	0.499945	0.763215
O239	O	0.770196	-0.000049	0.289433
O240	O	1.270196	0.499951	0.789433
H241	H	0.486602	-0.000020	-0.172255
H242	H	0.986602	0.499980	0.327745
H243	H	0.575687	-0.374386	0.022607
H244	H	1.075687	0.125614	0.522607
H245	H	0.526850	-0.000011	0.352066
H246	H	1.026850	0.499989	0.852066
Cl247	Cl	-0.151965	-0.000064	0.047136
Cl248	Cl	0.348035	0.499936	0.547136
H249	H	0.610053	-0.865971	-0.011782
H250	H	1.110053	-0.365971	0.488218
Cl251	Cl	0.791999	-0.000063	0.235622
Cl252	Cl	1.291999	0.499937	0.735622
H253	H	0.768992	-0.530970	-0.170849
H254	H	1.268992	-0.030970	0.329151
H255	H	0.734593	-0.134126	-0.136494
H256	H	1.234593	0.365874	0.363506
Cl257	Cl	0.528568	-0.000052	0.038984
Cl258	Cl	1.028568	0.499948	0.538984
Cl259	Cl	0.749829	-0.240406	-0.151710
Cl260	Cl	1.249829	0.259594	0.348290
H261	H	0.098544	-0.000039	-0.219617
H262	H	0.598544	0.499961	0.280383
Cl263	Cl	0.793597	-0.000079	0.101567
Cl264	Cl	1.293597	0.499921	0.601567
Cl265	Cl	0.840647	-0.000056	0.515929
Cl266	Cl	1.340647	0.499944	1.015929
H267	H	0.763906	-0.000046	0.658056
H268	H	1.263906	0.499954	1.158056
Cl269	Cl	0.128358	-0.000083	0.095789
Cl270	Cl	0.628358	0.499917	0.595789
Cl271	Cl	0.557594	-0.000050	0.203698
Cl272	Cl	1.057594	0.499950	0.703698
H273	H	0.762610	-0.000040	0.765821
H274	H	1.262610	0.499960	1.265821
H275	H	0.575697	-0.531048	0.022595
H276	H	1.075697	-0.031048	0.522595
Cl277	Cl	0.594780	-0.240481	0.003441
Cl278	Cl	1.094780	0.259519	0.503441
H279	H	0.574207	-0.000030	0.740136
H280	H	1.074207	0.499970	1.240136
H281	H	0.575496	-0.000023	0.632386
H282	H	1.075496	0.499977	1.132386
H283	H	0.610052	-0.771248	-0.011771
H284	H	1.110052	-0.271248	0.488229
H285	H	0.378851	-0.000035	-0.170970
H286	H	0.878851	0.499965	0.329030
H287	H	-0.059867	-0.000047	-0.165717
H288	H	0.440133	0.499953	0.334283
H289	H	0.609981	-0.134170	-0.011785
H290	H	1.109981	0.365830	0.488215
Cl291	Cl	0.784196	-0.480596	-0.186075
Cl292	Cl	1.284196	0.019404	0.313925
Cl293	Cl	0.560496	-0.637337	0.037819
Cl294	Cl	1.060496	-0.137337	0.537819
Cl295	Cl	0.502400	-0.000003	0.469831
Cl296	Cl	1.002400	0.499997	0.969831
H297	H	0.768998	-0.625705	-0.170843
H298	H	1.268998	-0.125705	0.329157
H299	H	0.206289	-0.000029	-0.220908
H300	H	0.706289	0.499971	0.279092
Cl301	Cl	0.749887	-0.877493	-0.151701
Cl302	Cl	1.249887	-0.377493	0.348299
Cl303	Cl	0.842252	-0.000053	0.381883
Cl304	Cl	1.342252	0.499947	0.881883
H305	H	0.734665	-0.771194	-0.136491
H306	H	1.234665	-0.271194	0.363509
H307	H	-0.167632	-0.000050	-0.164421
H308	H	0.332368	0.499950	0.335579
H309	H	-0.034198	-0.000071	0.022693
H310	H	0.465802	0.499929	0.522693
H311	H	0.246123	-0.000088	0.071339
H312	H	0.746123	0.499912	0.571339
H313	H	0.404512	-0.000048	0.017441
H314	H	0.904512	0.499952	0.517441
H315	H	0.768973	-0.374321	-0.170853
H316	H	1.268973	0.125679	0.329147
H317	H	0.575691	-0.469110	0.022607
H318	H	1.075691	0.030890	0.522607
H319	H	0.582043	-0.000055	0.085909
H320	H	1.082043	0.499945	0.585909
