data_functionalizedCrystal
_audit_creation_method	'MofGen! by Chris Wilmer'
_symmetry_space_group_name_H-M	'P1'
_symmetry_Int_Tables_number	1
_symmetry_cell_setting	triclinic
loop_
_symmetry_equiv_pos_as_xyz
  x,y,z
_cell_length_a	9.065218
_cell_length_b	19.288865
_cell_length_c	7.540329
_cell_angle_alpha	90.008813
_cell_angle_beta	90.003038
_cell_angle_gamma	84.076066
loop_
_atom_site_label
_atom_site_type_symbol
_atom_site_fract_x
_atom_site_fract_y
_atom_site_fract_z
O1	O	1.956831	0.101840	0.147511
O2	O	1.527253	0.110193	0.147515
O3	O	1.754455	0.004983	0.147478
O4	O	1.729629	0.207051	0.147548
O5	O	1.754441	0.004981	-0.147487
O6	O	1.527240	0.110192	-0.147450
O7	O	1.956817	0.101839	-0.147454
Cu8	Cu	1.742027	0.106015	-0.174385
Cu9	Cu	1.742043	0.106017	0.174446
O10	O	1.729616	0.207049	-0.147417
C11	C	1.472288	0.109390	0.000033
C12	C	1.308529	0.106989	0.000033
C13	C	1.753649	-0.020901	-0.000010
C14	C	1.751251	-0.098023	-0.000025
C15	C	1.884563	-0.141684	-0.000036
C16	C	1.882310	-0.214149	-0.000007
C17	C	1.746738	-0.242949	-0.000005
C18	C	1.613409	-0.199278	0.000015
C19	C	1.615666	-0.126815	0.000005
C20	C	1.640158	-0.352064	-0.103324
C21	C	1.637907	-0.424526	-0.103324
C22	C	1.739773	-0.466448	0.000035
C23	C	1.843914	-0.435901	0.103372
C24	C	1.846171	-0.363438	0.103362
C25	C	1.744276	-0.321522	0.000007
C26	C	1.870651	-0.588685	0.000058
C27	C	1.868392	-0.661150	0.000097
C28	C	1.599488	-0.646278	0.000102
C29	C	1.601750	-0.573814	0.000080
C30	C	1.737335	-0.545022	0.000050
C31	C	2.011782	0.102642	0.000032
C32	C	2.175541	0.105043	0.000044
C33	C	1.730421	0.232933	0.000075
C34	C	1.732819	0.310055	0.000102
N35	N	1.742027	0.106014	-0.419733
N36	N	1.742055	0.106013	0.419794
H37	H	1.994967	-0.118247	-0.000054
C38	C	1.455105	-0.525784	0.000061
H39	H	1.374038	-0.553313	0.000051
H40	H	1.450396	-0.497197	0.102914
H41	H	1.450398	-0.497219	-0.102821
H42	H	1.981053	-0.565241	0.000041
C43	C	1.528098	-0.305956	-0.217024
H44	H	1.465769	-0.334526	-0.278583
H45	H	1.469415	-0.274388	-0.142529
H46	H	1.579986	-0.280517	-0.300132
H47	H	1.976955	-0.696699	0.000098
H48	H	1.503025	-0.222732	0.000021
H49	H	1.489102	-0.669726	0.000112
C50	C	1.523358	-0.458125	-0.216979
H51	H	1.536612	-0.507285	-0.202187
H52	H	1.426131	-0.440849	-0.180629
H53	H	1.536680	-0.446975	-0.338254
C54	C	1.469017	-0.078786	-0.000001
H55	H	1.387949	-0.106313	-0.000004
H56	H	1.464312	-0.050196	0.102849
H57	H	1.464307	-0.050222	-0.102886
H58	H	1.990872	-0.249704	-0.000009
H59	H	1.926862	-0.470033	0.187538
H60	H	1.930963	-0.338570	0.187505
