data_functionalizedCrystal
_audit_creation_method	'MofGen! by Chris Wilmer'
_symmetry_space_group_name_H-M	'P1'
_symmetry_Int_Tables_number	1
_symmetry_cell_setting	triclinic
loop_
_symmetry_equiv_pos_as_xyz
  x,y,z
_cell_length_a	19.805407
_cell_length_b	12.759394
_cell_length_c	19.805399
_cell_angle_alpha	89.977727
_cell_angle_beta	89.982197
_cell_angle_gamma	90.011172
loop_
_atom_site_label
_atom_site_type_symbol
_atom_site_fract_x
_atom_site_fract_y
_atom_site_fract_z
Zn1	Zn	1.034795	-0.418366	-0.382713
Zn2	Zn	1.534795	0.081634	0.117287
Zn3	Zn	1.034734	-0.594059	-0.269535
Zn4	Zn	1.534734	-0.094059	0.230465
Zn5	Zn	0.921609	-0.418387	-0.269541
Zn6	Zn	1.421609	0.081613	0.230459
Zn7	Zn	0.921598	-0.593995	-0.382685
Zn8	Zn	1.421598	-0.093995	0.117315
O9	O	0.978184	-0.506202	-0.326118
O10	O	1.478184	-0.006202	0.173882
O11	O	1.129503	-0.441690	-0.367708
O12	O	1.629503	0.058310	0.132292
O13	O	1.019708	-0.570792	-0.174819
O14	O	1.519708	-0.070792	0.325181
O15	O	0.936654	-0.271363	-0.284567
O16	O	1.436654	0.228637	0.215433
O17	O	1.129459	-0.570771	-0.284557
O18	O	1.629459	-0.070771	0.215443
O19	O	1.019811	-0.271348	-0.367714
O20	O	1.519811	0.228652	0.132286
O21	O	0.936595	-0.441726	-0.174823
O22	O	1.436595	0.058274	0.325177
O23	O	0.826891	-0.441664	-0.284541
O24	O	1.326891	0.058336	0.215459
O25	O	0.936634	-0.570662	-0.477405
O26	O	1.436634	-0.070662	0.022595
O27	O	0.826883	-0.570682	-0.367667
O28	O	1.326883	-0.070682	0.132333
O29	O	1.019799	-0.441628	-0.477426
O30	O	1.519799	0.058372	0.022574
O31	O	1.019696	-0.741072	-0.284531
O32	O	1.519696	-0.241072	0.215469
O33	O	0.936575	-0.741025	-0.367662
O34	O	1.436575	-0.241025	0.132338
C35	C	0.802328	-0.506169	-0.326102
C36	C	1.302328	-0.006169	0.173898
C37	C	0.727096	-0.506180	-0.326111
C38	C	1.227096	-0.006180	0.173889
C39	C	0.691776	-0.439087	-0.369474
C40	C	1.191776	0.060913	0.130526
C41	C	0.621087	-0.439092	-0.369476
C42	C	1.121087	0.060908	0.130524
C43	C	0.585720	-0.506197	-0.326119
C44	C	1.085720	-0.006197	0.173881
C45	C	0.621046	-0.573294	-0.282752
C46	C	1.121046	-0.073294	0.217248
C47	C	0.691733	-0.573282	-0.282746
C48	C	1.191733	-0.073282	0.217254
C49	C	0.335972	-0.573341	-0.282772
C50	C	0.835972	-0.073341	0.217228
C51	C	0.265280	-0.573350	-0.282783
C52	C	0.765280	-0.073350	0.217217
C53	C	0.265327	-0.439151	-0.369502
C54	C	0.765327	0.060849	0.130498
C55	C	0.336014	-0.439139	-0.369497
C56	C	0.836014	0.060861	0.130503
C57	C	0.371333	-0.506232	-0.326127
C58	C	0.871333	-0.006232	0.173873
C59	C	0.447981	-0.506223	-0.326124
C60	C	0.947981	-0.006223	0.173876
C61	C	0.509073	-0.506212	-0.326125
C62	C	1.009073	-0.006212	0.173875
C63	C	0.978146	-0.779169	-0.326107
C64	C	1.478146	-0.279169	0.173893
C65	C	0.978192	-0.895946	-0.326125
C66	C	1.478192	-0.395946	0.173875
C67	C	1.064719	-0.895772	-0.412771
C68	C	1.564719	-0.395772	0.087229
C69	C	1.108003	-0.950546	-0.456099
C70	C	1.608003	-0.450546	0.043901
C71	C	1.108043	-1.060267	-0.456113
C72	C	1.608043	-0.560267	0.043887
C73	C	1.064793	-1.115218	-0.412797
C74	C	1.564793	-0.615218	0.087203
C75	C	1.021508	-1.060444	-0.369469
C76	C	1.521508	-0.560444	0.130531
C77	C	1.021474	-0.950720	-0.369457
C78	C	1.521474	-0.450720	0.130543
C79	C	0.934980	-1.060618	-0.282827
C80	C	1.434980	-0.560618	0.217173
C81	C	0.934942	-0.950896	-0.282808
C82	C	1.434942	-0.450896	0.217192
C83	C	0.891729	-1.115568	-0.239511
C84	C	1.391729	-0.615568	0.260489
C85	C	0.848447	-1.060795	-0.196178
C86	C	1.348447	-0.560795	0.303822
C87	C	0.848409	-0.951066	-0.196165
C88	C	1.348409	-0.451066	0.303835
C89	C	0.891657	-0.896123	-0.239480
C90	C	1.391657	-0.396123	0.260520
C91	C	1.154727	-0.506236	-0.326135
C92	C	1.654727	-0.006236	0.173865
C93	C	1.229959	-0.506250	-0.326142
C94	C	1.729959	-0.006250	0.173858
C95	C	0.978222	-0.506136	-0.502661
C96	C	1.478222	-0.006136	-0.002661
C97	C	0.978238	-0.506108	-0.577893
C98	C	1.478238	-0.006108	-0.077893
C99	C	0.978240	-0.232169	-0.326144
C100	C	1.478240	0.267831	0.173856
C101	C	0.978264	-0.115392	-0.326155
C102	C	1.478264	0.384608	0.173845
C103	C	1.021543	-0.438916	-0.613249
C104	C	1.521543	0.061084	-0.113249
C105	C	1.021550	-0.438886	-0.683937
C106	C	1.521550	0.061114	-0.183937
C107	C	0.978255	-0.506053	-0.719269
C108	C	1.478255	-0.006053	-0.219269
C109	C	0.934945	-0.573247	-0.683908
C110	C	1.434945	-0.073247	-0.183908
C111	C	0.934935	-0.573271	-0.613221
C112	C	1.434935	-0.073271	-0.113221
C113	C	0.934983	-0.573149	-0.968982
C114	C	1.434983	-0.073149	-0.468982
C115	C	0.934998	-0.573122	-1.039674
C116	C	1.434998	-0.073122	-0.539674
C117	C	1.021598	-0.438763	-1.039698
C118	C	1.521598	0.061237	-0.539698
C119	C	1.021588	-0.438788	-0.969011
C120	C	1.521588	0.061212	-0.469011
C121	C	0.978276	-0.505978	-0.933656
C122	C	1.478276	-0.005978	-0.433656
C123	C	0.978268	-0.506009	-0.857008
C124	C	1.478268	-0.006009	-0.357008
C125	C	0.978266	-0.506028	-0.795916
C126	C	1.478266	-0.006028	-0.295916
C127	C	0.978185	-0.506192	-0.150262
C128	C	1.478185	-0.006192	0.349738
C129	C	0.978300	-0.505924	-0.075031
C130	C	1.478300	-0.005924	0.424969
H131	H	0.364721	-0.627973	-0.247459
H132	H	0.864721	-0.127973	0.252541
H133	H	1.056863	-0.384050	-1.068492
H134	H	1.556863	0.115950	-0.568492
H135	H	0.592245	-0.627927	-0.247446
H136	H	1.092245	-0.127927	0.252554
H137	H	0.720490	-0.627916	-0.247435
H138	H	1.220490	-0.127916	0.252565
H139	H	0.236487	-0.627998	-0.247473
H140	H	0.736487	-0.127998	0.252527
O141	O	0.891496	-0.789540	-0.239472
O142	O	1.391496	-0.289540	0.260528
C143	C	0.826610	-0.752943	-0.256818
C144	C	1.326610	-0.252943	0.243182
H145	H	0.787650	-0.816227	-0.245228
H146	H	1.287650	-0.316227	0.254772
H147	H	0.814568	-0.679575	-0.226274
H148	H	1.314568	-0.179575	0.273726
H149	H	0.825143	-0.733434	-0.312976
H150	H	1.325143	-0.233434	0.187024
O151	O	1.149994	-0.897004	-0.498110
O152	O	1.649994	-0.397004	0.001890
C153	C	1.140670	-0.788416	-0.488820
C154	C	1.640670	-0.288416	0.011180
H155	H	1.118522	-0.773501	-0.436567
H156	H	1.618522	-0.273501	0.063433
H157	H	1.191352	-0.746655	-0.493446
H158	H	1.691352	-0.246655	0.006554
H159	H	1.104596	-0.757283	-0.528936
H160	H	1.604596	-0.257283	-0.028936
O161	O	0.726202	-0.373848	-0.411499
O162	O	1.226202	0.126152	0.088501
C163	C	0.767067	-0.305887	-0.373035
C164	C	1.267067	0.194113	0.126965
H165	H	0.777637	-0.342835	-0.321700
H166	H	1.277637	0.157165	0.178300
H167	H	0.816784	-0.291853	-0.400619
H168	H	1.316784	0.208147	0.099381
H169	H	0.739825	-0.228019	-0.365685
H170	H	1.239825	0.271981	0.134315
O171	O	1.150146	-1.113317	-0.498229
O172	O	1.650146	-0.613317	0.001771
C173	C	1.188294	-1.041296	-0.536476
C174	C	1.688294	-0.541296	-0.036476
H175	H	1.190635	-0.963105	-0.508746
H176	H	1.690635	-0.463105	-0.008746
H177	H	1.241626	-1.072941	-0.543754
H178	H	1.741626	-0.572941	-0.043754
H179	H	1.163469	-1.029606	-0.587856
H180	H	1.663469	-0.529606	-0.087856
O181	O	0.892856	-0.638654	-0.578979
O182	O	1.392856	-0.138654	-0.078979
C183	C	0.854636	-0.697921	-0.625319
C184	C	1.354636	-0.197921	-0.125319
H185	H	0.882363	-0.701535	-0.675714
H186	H	1.382363	-0.201535	-0.175714
H187	H	0.847407	-0.780708	-0.604888
H188	H	1.347407	-0.280708	-0.104888
H189	H	0.803235	-0.659448	-0.632827
H190	H	1.303235	-0.159448	-0.132827
O191	O	0.586810	-0.374030	-0.411698
O192	O	1.086810	0.125970	0.088302
C193	C	0.604121	-0.397117	-0.479129
C194	C	1.104121	0.102883	0.020871
H195	H	0.623544	-0.481056	-0.482449
H196	H	1.123544	0.018944	0.017551
H197	H	0.557650	-0.388139	-0.512583
H198	H	1.057650	0.111861	-0.012583
H199	H	0.645166	-0.340827	-0.496881
H200	H	1.145166	0.159173	0.003119
O201	O	1.064559	-0.789189	-0.412755
O202	O	1.564559	-0.289189	0.087245
C203	C	0.999675	-0.752583	-0.430098
C204	C	1.499675	-0.252583	0.069902
H205	H	0.960713	-0.815866	-0.418515
H206	H	1.460713	-0.315866	0.081485
H207	H	0.987635	-0.679221	-0.399547
H208	H	1.487635	-0.179221	0.100453
H209	H	0.998209	-0.733060	-0.486255
H210	H	1.498209	-0.233060	0.013745
O211	O	0.892871	-0.638400	-1.073891
O212	O	1.392871	-0.138400	-0.573891
C213	C	0.854651	-0.697727	-1.027530
C214	C	1.354651	-0.197727	-0.527530
H215	H	0.852307	-0.654713	-0.977145
H216	H	1.352307	-0.154713	-0.477145
H217	H	0.801324	-0.708907	-1.047948
H218	H	1.301324	-0.208907	-0.547948
H219	H	0.879413	-0.777531	-1.020007
H220	H	1.379413	-0.277531	-0.520007
H221	H	1.064824	-1.204559	-0.412818
H222	H	1.564824	-0.704559	0.087182
H223	H	0.891763	-1.204910	-0.239528
H224	H	1.391763	-0.704910	0.260472
H225	H	1.056802	-0.384224	-0.584487
H226	H	1.556802	0.115776	-0.084487
O227	O	1.063684	-0.373587	-0.718177
O228	O	1.563684	0.126413	-0.218177
C229	C	1.101886	-0.314297	-0.671835
C230	C	1.601886	0.185703	-0.171835
H231	H	1.104212	-0.357351	-0.621444
H232	H	1.604212	0.142649	-0.121444
H233	H	1.155221	-0.303099	-0.692269
H234	H	1.655221	0.196901	-0.192269
H235	H	1.077120	-0.234499	-0.664320
H236	H	1.577120	0.265501	-0.164320
O237	O	0.893005	-0.638474	-0.934577
O238	O	1.393005	-0.138474	-0.434577
C239	C	0.931510	-0.706382	-0.893697
C240	C	1.431510	-0.206382	-0.393697
H241	H	0.982808	-0.669347	-0.883105
H242	H	1.482808	-0.169347	-0.383105
H243	H	0.903918	-0.720482	-0.843992
H244	H	1.403918	-0.220482	-0.343992
H245	H	0.938938	-0.784227	-0.920938
H246	H	1.438938	-0.284227	-0.420938
H247	H	0.813233	-1.105544	-0.160917
H248	H	1.313233	-0.605544	0.339083
H249	H	0.899691	-0.627932	-0.712681
H250	H	1.399691	-0.127932	-0.212681
H251	H	0.813159	-0.906475	-0.160885
H252	H	1.313159	-0.406475	0.339115
H253	H	0.364806	-0.384499	-0.404805
H254	H	0.864806	0.115501	0.095195
H255	H	0.236561	-0.384517	-0.404814
H256	H	0.736561	0.115483	0.095186
H257	H	1.056846	-0.384097	-0.940248
H258	H	1.556846	0.115903	-0.440248
