data_functionalizedCrystal
_audit_creation_method	'MofGen! by Chris Wilmer'
_symmetry_space_group_name_H-M	'P1'
_symmetry_Int_Tables_number	1
_symmetry_cell_setting	triclinic
loop_
_symmetry_equiv_pos_as_xyz
  x,y,z
_cell_length_a	16.959455
_cell_length_b	19.121063
_cell_length_c	16.959447
_cell_angle_alpha	87.593376
_cell_angle_beta	90.020374
_cell_angle_gamma	92.466224
loop_
_atom_site_label
_atom_site_type_symbol
_atom_site_fract_x
_atom_site_fract_y
_atom_site_fract_z
Zn1	Zn	1.194915	-0.279655	0.460438
Zn2	Zn	1.694915	0.220345	0.960438
Zn3	Zn	1.189180	-0.397115	0.333888
Zn4	Zn	1.689180	0.102885	0.833888
Zn5	Zn	1.062742	-0.279677	0.328262
Zn6	Zn	1.562742	0.220323	0.828262
Zn7	Zn	1.057054	-0.397063	0.466010
Zn8	Zn	1.557054	0.102937	0.966010
O9	O	1.125973	-0.338378	0.397150
O10	O	1.625973	0.161622	0.897150
O11	O	1.304765	-0.295249	0.443673
O12	O	1.804765	0.204751	0.943673
O13	O	1.172389	-0.381568	0.222533
O14	O	1.672389	0.118432	0.722533
O15	O	1.085056	-0.181390	0.341109
O16	O	1.585056	0.318610	0.841109
O17	O	1.300551	-0.381547	0.350698
O18	O	1.800551	0.118453	0.850698
O19	O	1.182163	-0.181374	0.438218
O20	O	1.682163	0.318626	0.938218
O21	O	1.079496	-0.295287	0.218399
O22	O	1.579496	0.204713	0.718399
O23	O	0.951378	-0.295236	0.346513
O24	O	1.451378	0.204764	0.846513
O25	O	1.075360	-0.381457	0.575881
O26	O	1.575360	0.118543	1.075881
O27	O	0.947198	-0.381479	0.447715
O28	O	1.447198	0.118521	0.947715
O29	O	1.176647	-0.295198	0.571787
O30	O	1.676647	0.204802	1.071787
O31	O	1.166873	-0.495393	0.356101
O32	O	1.666873	0.004607	0.856101
O33	O	1.069800	-0.495354	0.453171
O34	O	1.569800	0.004646	0.953171
C35	C	0.920608	-0.338355	0.397109
C36	C	1.420608	0.161645	0.897109
C37	C	0.832751	-0.338362	0.397111
C38	C	1.332751	0.161638	0.897111
C39	C	0.459072	-0.383268	0.348709
C40	C	0.959072	0.116732	0.848709
C41	C	0.463474	-0.293545	0.445689
C42	C	0.963474	0.206455	0.945689
C43	C	0.546020	-0.293534	0.445669
C44	C	1.046020	0.206466	0.945669
C45	C	0.585096	-0.338391	0.397170
C46	C	1.085096	0.161609	0.897170
C47	C	0.541626	-0.383260	0.348690
C48	C	1.041626	0.116740	0.848690
C49	C	0.589497	-0.248671	0.494154
C50	C	1.089497	0.251329	0.994154
C51	C	0.672048	-0.248658	0.494137
C52	C	1.172048	0.251342	0.994137
C53	C	0.711126	-0.293512	0.445632
C54	C	1.211126	0.206488	0.945632
C55	C	0.667650	-0.338382	0.397150
C56	C	1.167650	0.161618	0.897150
C57	C	0.706726	-0.383239	0.348651
C58	C	1.206726	0.116761	0.848651
C59	C	0.663252	-0.428106	0.300164
C60	C	1.163252	0.071894	0.800164
C61	C	0.580704	-0.428114	0.300186
C62	C	1.080704	0.071886	0.800186
C63	C	0.793675	-0.293505	0.445610
C64	C	1.293675	0.206495	0.945610
C65	C	0.789280	-0.383231	0.348631
C66	C	1.289280	0.116769	0.848631
C67	C	1.117118	-0.520857	0.405868
C68	C	1.617118	-0.020857	0.905868
C69	C	1.113402	-0.598923	0.409624
C70	C	1.613402	-0.098923	0.909624
C71	C	1.162236	-0.635595	0.360892
C72	C	1.662236	-0.135595	0.860892
C73	C	1.158746	-0.708946	0.364429
C74	C	1.658746	-0.208946	0.864429
C75	C	1.106418	-0.745624	0.416696
C76	C	1.606418	-0.245624	0.916696
C77	C	1.057581	-0.708947	0.465433
C78	C	1.557581	-0.208947	0.965433
C79	C	1.061076	-0.635597	0.461899
C80	C	1.561076	-0.135597	0.961899
C81	C	1.093339	-0.967092	0.429896
C82	C	1.593339	-0.467092	0.929896
C83	C	1.089847	-1.040447	0.433424
C84	C	1.589847	-0.540447	0.933424
C85	C	1.191013	-1.040442	0.332421
C86	C	1.691013	-0.540442	0.832421
C87	C	1.194500	-0.967091	0.328888
C88	C	1.694500	-0.467091	0.828888
C89	C	1.145667	-0.930420	0.377629
C90	C	1.645667	-0.430420	0.877629
C91	C	1.102847	-0.820600	0.420311
C92	C	1.602847	-0.320600	0.920311
C93	C	1.149242	-0.855445	0.374017
C94	C	1.649242	-0.355445	0.874017
C95	C	1.332140	-0.338401	0.397191
C96	C	1.832140	0.161599	0.897191
C97	C	1.419996	-0.338411	0.397209
C98	C	1.919996	0.161589	0.897209
C99	C	1.126009	-0.338319	0.603315
C100	C	1.626009	0.161681	1.103315
C101	C	1.126024	-0.338295	0.691171
C102	C	1.626024	0.161705	1.191171
C103	C	1.134884	-0.155185	0.388415
C104	C	1.634884	0.344815	0.888415
C105	C	1.138681	-0.077119	0.384692
C106	C	1.638681	0.422881	0.884692
C107	C	1.125985	-0.338385	0.191784
C108	C	1.625985	0.161615	0.691784
C109	C	1.126133	-0.338212	0.103919
C110	C	1.626133	0.161788	0.603919
C111	C	1.073387	-0.383132	1.064777
C112	C	1.573387	0.116868	1.564777
C113	C	1.178857	-0.293309	1.060509
C114	C	1.678857	0.206691	1.560509
C115	C	1.178835	-0.293324	0.977964
C116	C	1.678835	0.206676	1.477964
C117	C	1.126089	-0.338244	0.938821
C118	C	1.626089	0.161756	1.438821
C119	C	1.073365	-0.383150	0.982224
C120	C	1.573365	0.116850	1.482224
C121	C	1.231564	-0.248425	0.934555
C122	C	1.731564	0.251575	1.434555
C123	C	1.231545	-0.248438	0.852005
C124	C	1.731545	0.251562	1.352005
C125	C	1.178794	-0.293356	0.812861
C126	C	1.678794	0.206644	1.312861
C127	C	1.126067	-0.338262	0.856269
C128	C	1.626067	0.161738	1.356269
C129	C	1.073321	-0.383182	0.817126
C130	C	1.573321	0.116818	1.317126
C131	C	1.020590	-0.428086	0.860533
C132	C	1.520590	0.071914	1.360533
C133	C	1.020614	-0.428067	0.943080
C134	C	1.520614	0.071933	1.443080
C135	C	1.178770	-0.293375	0.730313
C136	C	1.678770	0.206625	1.230313
C137	C	1.073299	-0.383200	0.734574
C138	C	1.573299	0.116800	1.234574
H139	H	1.204845	-0.605737	0.318328
H140	H	1.704845	-0.105737	0.818328
H141	H	1.274482	-0.211875	0.816670
H142	H	1.774482	0.288125	1.316670
H143	H	1.274512	-0.211858	0.966431
H144	H	1.774512	0.288142	1.466431
H145	H	1.198512	-0.738801	0.324746
H146	H	1.698512	-0.238801	0.824746
C147	C	1.248888	-0.862806	0.274530
C148	C	1.748888	-0.362806	0.774530
C149	C	1.206760	-0.815132	0.316565
C150	C	1.706760	-0.315132	0.816565
H151	H	1.284398	-0.837912	0.239063
H152	H	1.784398	-0.337912	0.739063
H153	H	1.213104	-0.891457	0.245643
H154	H	1.713104	-0.391457	0.745643
H155	H	1.277745	-0.891373	0.310378
H156	H	1.777745	-0.391373	0.810378
H157	H	1.177898	-0.786568	0.280717
H158	H	1.677898	-0.286568	0.780717
H159	H	1.242549	-0.786469	0.345453
H160	H	1.742549	-0.286469	0.845453
H161	H	1.221705	-0.256817	0.694975
H162	H	1.721705	0.243183	1.194975
C163	C	1.029098	-0.502051	1.095842
C164	C	1.529098	-0.002051	1.595842
C165	C	1.015426	-0.432490	1.112483
C166	C	1.515426	0.067510	1.612483
H167	H	0.993311	-0.532522	1.125291
H168	H	1.493311	-0.032522	1.625291
H169	H	1.081702	-0.512329	1.109873
H170	H	1.581702	-0.012329	1.609873
H171	H	1.021539	-0.508481	1.041075
H172	H	1.521539	-0.008481	1.541075
H173	H	1.022990	-0.426059	1.167249
H174	H	1.522990	0.073941	1.667249
H175	H	0.962809	-0.422209	1.098456
H176	H	1.462809	0.077791	1.598456
H177	H	0.423672	-0.419796	0.309230
H178	H	0.923672	0.080204	0.809230
H179	H	1.221805	-0.256741	1.092384
H180	H	1.721805	0.243259	1.592384
H181	H	1.053576	-0.937241	0.469581
H182	H	1.553576	-0.437241	0.969581
H183	H	0.431653	-0.257028	0.485180
H184	H	0.931653	0.242972	0.985180
H185	H	1.060239	-0.850471	0.462865
H186	H	1.560239	-0.350471	0.962865
H187	H	0.977647	-0.464663	0.828652
H188	H	1.477647	0.035337	1.328652
H189	H	0.821090	-0.419757	0.309134
H190	H	1.321090	0.080243	0.809134
H191	H	1.030340	-0.419774	0.702710
H192	H	1.530340	0.080226	1.202710
H193	H	1.014977	-0.738815	0.507993
H194	H	1.514977	-0.238815	1.007993
H195	H	1.230772	-1.070307	0.292740
H196	H	1.730772	-0.570307	0.792740
C197	C	0.990210	-1.033089	0.532928
C198	C	1.490210	-0.533089	1.032928
C199	C	1.032330	-1.080765	0.490888
C200	C	1.532330	-0.580765	0.990888
H201	H	0.954708	-1.057981	0.568405
H202	H	1.454708	-0.557981	1.068405
H203	H	0.961352	-1.004525	0.497090
H204	H	1.461352	-0.504525	0.997090
H205	H	1.026006	-1.004435	0.561812
H206	H	1.526006	-0.504435	1.061812
H207	H	0.996535	-1.109416	0.461999
H208	H	1.496535	-0.609416	0.961999
H209	H	1.061190	-1.109341	0.526731
H210	H	1.561190	-0.609341	1.026731
C211	C	0.960727	-0.642965	0.562091
C212	C	1.460727	-0.142965	1.062091
C213	C	1.007397	-0.595284	0.515469
C214	C	1.507397	-0.095284	1.015469
H215	H	0.927587	-0.618076	0.595162
H216	H	1.427587	-0.118076	1.095162
H217	H	0.993786	-0.671531	0.593731
H218	H	1.493786	-0.171531	1.093731
H219	H	0.929146	-0.671616	0.528995
H220	H	1.429146	-0.171616	1.028995
H221	H	1.038982	-0.566636	0.548565
H222	H	1.538982	-0.066636	1.048565
H223	H	0.974334	-0.566706	0.483826
H224	H	1.474334	-0.066706	0.983826
C225	C	0.464909	-0.208841	0.537228
C226	C	0.964909	0.291159	1.037228
C227	C	0.546544	-0.199363	0.547459
C228	C	1.046544	0.300637	1.047459
H229	H	0.438391	-0.178395	0.570133
H230	H	0.938391	0.321605	1.070133
H231	H	0.449106	-0.256039	0.550970
H232	H	0.949106	0.243961	1.050970
H233	H	0.451864	-0.198506	0.483644
H234	H	0.951864	0.301494	0.983644
H235	H	0.559590	-0.209704	0.601043
H236	H	1.059590	0.290296	1.101043
H237	H	0.562353	-0.152155	0.533722
H238	H	1.062353	0.347845	1.033722
C239	C	0.887037	-0.283864	0.551468
C240	C	1.387037	0.216136	1.051468
C241	C	0.841462	-0.244195	0.498904
C242	C	1.341462	0.255805	0.998904
H243	H	0.916534	-0.253419	0.584373
H244	H	1.416534	0.246581	1.084373
H245	H	0.922119	-0.310568	0.522576
H246	H	1.422119	0.189432	1.022576
H247	H	0.853362	-0.314502	0.583113
H248	H	1.353362	0.185498	1.083113
H249	H	0.875137	-0.213560	0.467255
H250	H	1.375137	0.286440	0.967255
H251	H	0.806376	-0.217479	0.527799
H252	H	1.306376	0.282521	1.027799
H253	H	0.977686	-0.464627	0.978429
H254	H	1.477686	0.035373	1.478429
H255	H	0.707438	-0.212124	0.533617
H256	H	1.207438	0.287876	1.033617
H257	H	1.237110	-0.937230	0.286329
H258	H	1.737110	-0.437230	0.786329
H259	H	0.695079	-0.464633	0.260680
H260	H	1.195079	0.035367	0.760680
H261	H	0.545300	-0.464642	0.260710
H262	H	1.045300	0.035358	0.760710
