data_functionalizedCrystal
_audit_creation_method	'MofGen! by Chris Wilmer'
_symmetry_space_group_name_H-M	'P1'
_symmetry_Int_Tables_number	1
_symmetry_cell_setting	triclinic
loop_
_symmetry_equiv_pos_as_xyz
  x,y,z
_cell_length_a	10.489711
_cell_length_b	15.944551
_cell_length_c	8.965430
_cell_angle_alpha	89.999468
_cell_angle_beta	89.994616
_cell_angle_gamma	84.012873
loop_
_atom_site_label
_atom_site_type_symbol
_atom_site_fract_x
_atom_site_fract_y
_atom_site_fract_z
O1	O	1.692434	0.118382	-0.124097
O2	O	1.321079	0.129531	-0.124088
O3	O	1.516898	0.001742	-0.124079
O4	O	1.496616	0.246171	-0.124106
O5	O	1.516881	0.001750	0.123999
O6	O	1.321063	0.129540	0.123991
O7	O	1.692418	0.118390	0.123982
Cu8	Cu	1.506739	0.123966	0.146638
Cu9	Cu	1.506758	0.123956	-0.146744
O10	O	1.496599	0.246179	0.123973
C11	C	1.273550	0.128699	-0.000048
C12	C	1.131954	0.126195	-0.000044
C13	C	1.516047	-0.029553	-0.000040
C14	C	1.513523	-0.122814	-0.000039
C15	C	0.948502	0.203044	-0.000069
C16	C	1.041188	0.164653	-0.122379
C17	C	1.041145	0.164640	0.122208
C18	C	0.972364	0.083301	-0.122486
C19	C	0.972312	0.083300	0.122210
C20	C	1.064971	0.044850	-0.000129
C21	C	1.386112	-0.338428	-0.000056
C22	C	1.445269	-0.399089	0.122260
C23	C	1.508956	-0.293567	-0.000050
C24	C	1.445315	-0.399081	-0.122326
C25	C	1.504536	-0.458506	-0.000068
C26	C	1.568147	-0.353000	0.122367
C27	C	1.568176	-0.352985	-0.122329
C28	C	1.627422	-0.413629	0.000018
C29	C	1.511499	-0.198550	-0.000039
C30	C	1.502003	-0.553522	-0.000068
C31	C	1.739947	0.119223	-0.000062
C32	C	1.881543	0.121726	-0.000075
C33	C	1.497450	0.277474	-0.000070
C34	C	1.499974	0.370735	-0.000081
N35	N	1.506734	0.123972	0.352987
N36	N	1.506773	0.123942	-0.353093
C37	C	1.416147	0.183051	0.450289
C38	C	1.531410	0.200039	0.549698
C39	C	1.391520	0.106992	0.549705
C40	C	1.622055	0.140998	0.450207
C41	C	1.482090	0.047918	0.450206
C42	C	1.597436	0.064874	0.549570
H43	H	0.897885	0.269881	-0.000198
H44	H	1.719527	0.155425	0.406686
H45	H	1.674142	0.014898	0.592889
C46	C	1.376226	-0.426385	0.260271
C47	C	1.460272	-0.481378	0.344879
C48	C	1.396712	-0.506527	0.472026
H49	H	1.304545	-0.454322	0.231060
H50	H	1.347797	-0.378198	0.318356
H51	H	1.488682	-0.529556	0.286804
H52	H	1.531954	-0.453458	0.374127
H53	H	1.368283	-0.458341	0.530111
H54	H	1.325033	-0.534461	0.442801
H55	H	1.453730	-0.543836	0.529455
C56	C	1.763409	-0.457186	-0.000026
C57	C	1.759635	-0.544701	-0.001300
C58	C	1.884882	-0.584848	-0.001375
H59	H	1.806978	-0.441514	0.086881
H60	H	1.807357	-0.440734	-0.086145
H61	H	1.715706	-0.561146	0.084810
H62	H	1.716091	-0.560397	-0.088201
H63	H	1.928830	-0.568396	-0.087494
H64	H	1.928440	-0.569170	0.085534
H65	H	1.882338	-0.644231	-0.002253
H66	H	1.620055	-0.332698	0.225890
H67	H	1.552281	0.264344	0.593399
H68	H	1.461183	-0.016367	0.406470
H69	H	1.115356	-0.022049	-0.000183
H70	H	0.941759	0.048925	0.225627
H71	H	1.071616	0.199065	0.225612
C72	C	1.313917	0.249669	0.392350
C73	C	1.193665	0.232505	0.444952
C74	C	1.099471	0.293862	0.391623
H75	H	1.313930	0.248931	0.286408
H76	H	1.331570	0.303675	0.426463
H77	H	1.176016	0.178513	0.410832
H78	H	1.193610	0.233250	0.550888
H79	H	1.117125	0.347868	0.425736
H80	H	1.099497	0.293119	0.285682
H81	H	1.017872	0.282229	0.427317
C82	C	1.081927	0.210715	-0.260034
C83	C	1.022486	0.293523	-0.259420
C84	C	1.060052	0.336004	-0.386140
H85	H	1.057315	0.182517	-0.347094
H86	H	1.172350	0.211571	-0.259332
H87	H	0.932082	0.292664	-0.260135
H88	H	1.047090	0.321744	-0.172388
H89	H	1.150476	0.336860	-0.385439
H90	H	1.035439	0.307800	-0.473191
H91	H	1.019738	0.392196	-0.385734
C92	C	1.261642	0.087674	0.607892
C93	C	1.235240	0.008618	0.555349
C94	C	1.115614	-0.009203	0.608930
H95	H	1.197245	0.129631	0.573934
H96	H	1.262811	0.087241	0.713850
H97	H	1.234061	0.009058	0.449413
H98	H	1.299605	-0.033355	0.589303
H99	H	1.116783	-0.009636	0.714888
H100	H	1.051228	0.032758	0.574968
H101	H	1.097690	-0.062846	0.573299
C102	C	1.250130	-0.294861	0.000408
C103	C	1.186391	-0.318089	0.128782
C104	C	1.061133	-0.277963	0.129278
H105	H	1.205901	-0.311267	-0.085502
H106	H	1.252629	-0.235471	-0.000401
H107	H	1.183885	-0.377466	0.129577
H108	H	1.230581	-0.301682	0.214713
H109	H	1.063633	-0.218573	0.128469
H110	H	1.016917	-0.294371	0.043363
H111	H	1.017875	-0.293711	0.216384
C112	C	1.637189	-0.325756	-0.260398
C113	C	1.572444	-0.348836	-0.388128
C114	C	1.635960	-0.323753	-0.515356
H115	H	1.722437	-0.352527	-0.261488
H116	H	1.638926	-0.266307	-0.258979
H117	H	1.570721	-0.408274	-0.389547
H118	H	1.487200	-0.322068	-0.387087
H119	H	1.637697	-0.264303	-0.513937
H120	H	1.721205	-0.350525	-0.516431
H121	H	1.592033	-0.339402	-0.602035
H122	H	1.393347	-0.419470	-0.225742
C123	C	0.931839	0.037620	-0.260657
C124	C	0.846733	0.092228	-0.344667
C125	C	0.809385	0.050183	-0.471970
H126	H	0.890786	-0.010172	-0.231626
H127	H	1.005295	0.019860	-0.319074
H128	H	0.773290	0.109975	-0.286261
H129	H	0.887758	0.140020	-0.373737
H130	H	0.882841	0.032424	-0.530387
H131	H	0.768338	0.002393	-0.442924
H132	H	0.751647	0.087231	-0.528993
