data_functionalizedCrystal
_audit_creation_method	'MofGen! by Chris Wilmer'
_symmetry_space_group_name_H-M	'P1'
_symmetry_Int_Tables_number	1
_symmetry_cell_setting	triclinic
loop_
_symmetry_equiv_pos_as_xyz
  x,y,z
_cell_length_a	19.077105
_cell_length_b	18.101397
_cell_length_c	18.101390
_cell_angle_alpha	89.964547
_cell_angle_beta	87.685241
_cell_angle_gamma	87.716700
loop_
_atom_site_label
_atom_site_type_symbol
_atom_site_fract_x
_atom_site_fract_y
_atom_site_fract_z
Zn1	Zn	1.075991	-0.340357	-0.464148
Zn2	Zn	1.575991	0.159643	0.035852
Zn3	Zn	1.075917	-0.464211	-0.340298
Zn4	Zn	1.575917	0.035789	0.159702
Zn5	Zn	0.958298	-0.335408	-0.335352
Zn6	Zn	1.458298	0.164592	0.164648
Zn7	Zn	0.958270	-0.459177	-0.459131
Zn8	Zn	1.458270	0.040823	0.040869
O9	O	1.017119	-0.399788	-0.399732
O10	O	1.517119	0.100212	0.100268
O11	O	1.174472	-0.360964	-0.451889
O12	O	1.674472	0.139036	0.048111
O13	O	1.060296	-0.447160	-0.236008
O14	O	1.560296	0.052840	0.263992
O15	O	0.973953	-0.232433	-0.352467
O16	O	1.473953	0.267567	0.147533
O17	O	1.174418	-0.451959	-0.360896
O18	O	1.674418	0.048041	0.139104
O19	O	1.060422	-0.236069	-0.447093
O20	O	1.560422	0.263931	0.052907
O21	O	0.973881	-0.352529	-0.232374
O22	O	1.473881	0.147471	0.267626
O23	O	0.859803	-0.347648	-0.347602
O24	O	1.359803	0.152352	0.152398
O25	O	0.973905	-0.443380	-0.563430
O26	O	1.473905	0.056620	-0.063430
O27	O	0.859782	-0.438581	-0.438541
O28	O	1.359782	0.061419	0.061459
O29	O	1.060394	-0.356083	-0.567116
O30	O	1.560394	0.143917	-0.067116
O31	O	1.060268	-0.567174	-0.356031
O32	O	1.560268	-0.067174	0.143969
O33	O	0.973833	-0.563476	-0.443337
O34	O	1.473833	-0.063476	0.056663
C35	C	0.834255	-0.392032	-0.391991
C36	C	1.334255	0.107968	0.108009
C37	C	0.756025	-0.388732	-0.388697
C38	C	1.256025	0.111268	0.111303
C39	C	0.719280	-0.434596	-0.434422
C40	C	1.219280	0.065404	0.065578
C41	C	0.645775	-0.431486	-0.431330
C42	C	1.145775	0.068514	0.068670
C43	C	0.609016	-0.382513	-0.382509
C44	C	1.109016	0.117487	0.117491
C45	C	0.645766	-0.336644	-0.336782
C46	C	1.145766	0.163356	0.163218
C47	C	0.719270	-0.339751	-0.339878
C48	C	1.219270	0.160249	0.160122
C49	C	0.389181	-0.368131	-0.368184
C50	C	0.889181	0.131869	0.131816
C51	C	0.315672	-0.365029	-0.365090
C52	C	0.815672	0.134971	0.134910
C53	C	0.315686	-0.459870	-0.459640
C54	C	0.815686	0.040130	0.040360
C55	C	0.389191	-0.462977	-0.462729
C56	C	0.889191	0.037023	0.037271
C57	C	0.425935	-0.417104	-0.417004
C58	C	0.925935	0.082896	0.082996
N59	N	0.533881	-0.379334	-0.379346
N60	N	1.033881	0.120666	0.120654
N61	N	0.501068	-0.420280	-0.420171
N62	N	1.001068	0.079720	0.079829
C63	C	1.017059	-0.592196	-0.399694
C64	C	1.517059	-0.092196	0.100306
C65	C	1.017097	-0.674512	-0.399705
C66	C	1.517097	-0.174512	0.100295
C67	C	1.017187	-0.973607	-0.399776
C68	C	1.517187	-0.473607	0.100224
C69	C	1.071418	-0.944571	-0.344686
C70	C	1.571418	-0.444571	0.155314
C71	C	1.071606	-0.858960	-0.344842
C72	C	1.571606	-0.358960	0.155158
C73	C	1.017143	-0.825222	-0.399740
C74	C	1.517143	-0.325222	0.100260
C75	C	1.037247	-0.857074	-0.478649
C76	C	1.537247	-0.357074	0.021351
C77	C	1.037667	-0.942737	-0.478355
C78	C	1.537667	-0.442737	0.021645
C79	C	0.942707	-0.938964	-0.376626
C80	C	1.442707	-0.438964	0.123374
C81	C	0.943075	-0.853330	-0.374899
C82	C	1.443075	-0.353330	0.125101
C83	C	1.017116	-0.741362	-0.399724
C84	C	1.517116	-0.241362	0.100276
C85	C	1.017215	-1.057467	-0.399797
C86	C	1.517215	-0.557467	0.100203
C87	C	1.200697	-0.407575	-0.407504
C88	C	1.700697	0.092425	0.092496
C89	C	1.278927	-0.410894	-0.410816
C90	C	1.778927	0.089106	0.089184
C91	C	1.017155	-0.399722	-0.592895
C92	C	1.517155	0.100278	-0.092895
C93	C	1.017170	-0.399694	-0.675210
C94	C	1.517170	0.100306	-0.175210
C95	C	1.017199	-0.206630	-0.399788
C96	C	1.517199	0.293370	0.100212
C97	C	1.017232	-0.124317	-0.399811
C98	C	1.517232	0.375683	0.100189
C99	C	1.017195	-0.399672	-0.825920
C100	C	1.517195	0.100328	-0.325920
C101	C	1.071614	-0.344742	-0.859593
C102	C	1.571614	0.155258	-0.359593
C103	C	1.071841	-0.344907	-0.945221
C104	C	1.571841	0.155093	-0.445221
C105	C	1.017220	-0.399649	-0.974304
C106	C	1.517220	0.100351	-0.474304
C107	C	1.037074	-0.478601	-0.944028
C108	C	1.537074	0.021399	-0.444028
C109	C	1.037454	-0.478300	-0.858399
C110	C	1.537454	0.021700	-0.358399
C111	C	0.942791	-0.376322	-0.854337
C112	C	1.442791	0.123678	-0.354337
C113	C	0.943204	-0.374604	-0.940006
C114	C	1.443204	0.125396	-0.440006
C115	C	1.017233	-0.399641	-1.058164
C116	C	1.517233	0.100359	-0.558164
C117	C	1.017184	-0.399686	-0.742060
C118	C	1.517184	0.100314	-0.242060
C119	C	1.017124	-0.399802	-0.207322
C120	C	1.517124	0.100198	0.292678
C121	C	1.017245	-0.399627	-0.125013
C122	C	1.517245	0.100373	0.374987
H123	H	1.058993	-0.964693	-0.286107
H124	H	1.558993	-0.464693	0.213893
O125	O	0.986192	-0.534471	-0.968807
O126	O	1.486192	-0.034471	-0.468807
H127	H	0.960007	-0.559629	-0.919600
H128	H	1.460007	-0.059629	-0.419600
O129	O	1.109779	-0.972176	-0.503846
O130	O	1.609779	-0.472176	-0.003846
H131	H	1.110793	-1.033527	-0.503894
H132	H	1.610793	-0.533527	-0.003894
H133	H	1.059029	-0.837471	-0.286430
H134	H	1.559029	-0.337471	0.213570
H135	H	0.928227	-0.316486	-0.959713
H136	H	1.428227	0.183514	-0.459713
H137	H	0.900517	-0.411416	-0.959568
H138	H	1.400517	0.088584	-0.459568
H139	H	1.059436	-0.286472	-0.965737
H140	H	1.559436	0.213528	-0.465737
O141	O	0.987225	-0.534604	-0.828766
O142	O	1.487225	-0.034604	-0.328766
H143	H	1.004147	-0.590241	-0.850091
H144	H	1.504147	-0.090241	-0.350091
H145	H	1.090854	-0.498264	-0.967770
H146	H	1.590854	0.001736	-0.467770
H147	H	1.126981	-0.360626	-0.968044
H148	H	1.626981	0.139374	-0.468044
H149	H	0.924655	-0.319575	-0.831980
H150	H	1.424655	0.180425	-0.331980
H151	H	1.126777	-0.840752	-0.360408
H152	H	1.626777	-0.340752	0.139592
O153	O	1.109488	-0.503973	-0.834976
O154	O	1.609488	-0.003973	-0.334976
H155	H	1.143724	-0.516483	-0.884795
H156	H	1.643724	-0.016483	-0.384795
O157	O	0.922988	-0.825650	-0.297959
O158	O	1.422988	-0.325650	0.202041
H159	H	0.873637	-0.791158	-0.299385
H160	H	1.373637	-0.291158	0.200615
O161	O	1.055392	-0.267107	-0.831663
O162	O	1.555392	0.232893	-0.331663
H163	H	1.100888	-0.247554	-0.801868
H164	H	1.600888	0.252446	-0.301868
H165	H	0.285745	-0.325141	-0.325338
H166	H	0.785745	0.174859	0.174662
H167	H	0.902249	-0.416289	-0.832331
H168	H	1.402249	0.083711	-0.332331
H169	H	0.615831	-0.296766	-0.297033
H170	H	1.115831	0.203234	0.202967
O171	O	0.428814	-0.318666	-0.318867
O172	O	0.928814	0.181334	0.181133
H173	H	0.462283	-0.353188	-0.282548
H174	H	0.962283	0.146812	0.217452
H175	H	0.285761	-0.497216	-0.496868
H176	H	0.785761	0.002784	0.003132
O177	O	0.758902	-0.290289	-0.290549
O178	O	1.258902	0.209711	0.209451
H179	H	0.744810	-0.231586	-0.302755
H180	H	1.244810	0.268414	0.197245
O181	O	0.758927	-0.487414	-0.487083
O182	O	1.258927	0.012586	0.012917
H183	H	0.721024	-0.518777	-0.518365
H184	H	1.221024	-0.018777	-0.018365
O185	O	0.606216	-0.481027	-0.480646
O186	O	1.106216	0.018973	0.019354
H187	H	0.572742	-0.446591	-0.517035
H188	H	1.072742	0.053409	-0.017035
H189	H	0.998955	-0.835090	-0.520935
H190	H	1.498955	-0.335090	-0.020935
H191	H	1.126287	-0.968361	-0.360086
H192	H	1.626287	-0.468361	0.139914
O193	O	0.428839	-0.515790	-0.515393
O194	O	0.928839	-0.015790	-0.015393
H195	H	0.390939	-0.547155	-0.546676
H196	H	0.890939	-0.047155	-0.046676
H197	H	0.999897	-0.961861	-0.520986
H198	H	1.499897	-0.461861	-0.020986
O199	O	1.108557	-0.831617	-0.504490
O200	O	1.608557	-0.331617	-0.004490
H201	H	1.129794	-0.796293	-0.461268
H202	H	1.629794	-0.296293	0.038732
H203	H	0.924417	-0.959855	-0.319919
H204	H	1.424417	-0.459855	0.180081
H205	H	0.900496	-0.830139	-0.411834
H206	H	1.400496	-0.330139	0.088166
O207	O	0.889147	-0.963683	-0.429610
O208	O	1.389147	-0.463683	0.070390
H209	H	0.915404	-1.000443	-0.472239
H210	H	1.415404	-0.500443	0.027761
O211	O	1.144235	-0.365342	-0.834181
O212	O	1.644235	0.134658	-0.334181
H213	H	1.141739	-0.414534	-0.797672
H214	H	1.641739	0.085466	-0.297672
