data_functionalizedCrystal
_audit_creation_method	'MofGen! by Chris Wilmer'
_symmetry_space_group_name_H-M	'P1'
_symmetry_Int_Tables_number	1
_symmetry_cell_setting	triclinic
loop_
_symmetry_equiv_pos_as_xyz
  x,y,z
_cell_length_a	10.540539
_cell_length_b	10.723024
_cell_length_c	9.198806
_cell_angle_alpha	90.002012
_cell_angle_beta	90.001893
_cell_angle_gamma	84.496681
loop_
_atom_site_label
_atom_site_type_symbol
_atom_site_fract_x
_atom_site_fract_y
_atom_site_fract_z
O1	O	-1.685796	-0.175862	-0.120820
O2	O	-1.185796	0.324138	0.379180
O3	O	-1.316375	-0.192432	-0.120837
O4	O	-0.816375	0.307568	0.379163
O5	O	-1.509607	-0.002575	-0.120823
O6	O	-1.009607	0.497425	0.379177
O7	O	-1.492564	-0.365719	-0.120834
O8	O	-0.992564	0.134281	0.379166
O9	O	-1.509591	-0.002574	0.120962
O10	O	-1.009591	0.497426	0.620962
O11	O	-1.316359	-0.192431	0.120948
O12	O	-0.816359	0.307569	0.620948
O13	O	-1.685781	-0.175861	0.120965
O14	O	-1.185781	0.324139	0.620965
Cu15	Cu	-1.501069	-0.184146	0.143033
Cu16	Cu	-1.001069	0.315854	0.643033
Cu17	Cu	-1.501087	-0.184147	-0.142906
Cu18	Cu	-1.001087	0.315853	0.357094
O19	O	-1.492549	-0.365718	0.120951
O20	O	-0.992549	0.134282	0.620951
C21	C	-1.269065	-0.191189	0.000053
C22	C	-0.769065	0.308811	0.500053
C23	C	-1.128118	-0.187471	0.000046
C24	C	-0.628118	0.312529	0.500046
C25	C	-1.508359	0.043926	0.000068
C26	C	-1.008359	0.543926	0.500068
C27	C	-1.504648	0.182482	0.000063
C28	C	-1.004648	0.682482	0.500063
C29	C	-1.733091	-0.177104	0.000072
C30	C	-1.233091	0.322896	0.500072
C31	C	-1.874037	-0.180822	0.000069
C32	C	-1.374037	0.319178	0.500069
C33	C	-0.944765	-0.045013	0.000615
C34	C	-0.444765	0.454987	0.500615
C35	C	-1.091381	-0.048782	0.000055
C36	C	-0.591381	0.451218	0.500055
C37	C	-1.066420	-0.254214	-0.138022
C38	C	-0.566420	0.245786	0.361978
C39	C	-0.919878	-0.249481	-0.138122
C40	C	-0.419878	0.250519	0.361878
C41	C	-0.919371	-0.252302	0.136832
C42	C	-0.419371	0.247698	0.636832
C43	C	-1.066352	-0.253579	0.138642
C44	C	-0.566352	0.246421	0.638642
C45	C	-1.493797	-0.412218	0.000057
C46	C	-0.993797	0.087782	0.500057
C47	C	-1.497507	-0.550775	0.000052
C48	C	-0.997507	-0.050775	0.500052
N49	N	-1.501065	-0.184145	0.344147
N50	N	-1.001065	0.315855	0.844147
C51	C	-1.612771	0.257411	0.000066
C52	C	-1.112771	0.757411	0.500066
C53	C	-1.608938	0.400616	0.000060
C54	C	-1.108938	0.900616	0.500060
N55	N	-1.501100	-0.184138	-0.344020
N56	N	-1.001100	0.315862	0.155980
C57	C	-1.582198	-0.104078	0.416350
C58	C	-1.082198	0.395922	0.916350
C59	C	-1.582217	-0.104073	0.583763
C60	C	-1.082217	0.395927	1.083763
H61	H	-1.134016	0.003735	0.099028
H62	H	-0.634016	0.503735	0.599028
F63	F	-1.410285	-0.273736	0.425341
F64	F	-0.910285	0.226264	0.925341
F65	F	-0.883043	-0.185004	-0.273016
F66	F	-0.383043	0.314996	0.226984
H67	H	-0.871858	-0.349224	-0.144392
H68	H	-0.371858	0.150776	0.355608
F69	F	-1.379942	0.237201	0.000043
F70	F	-0.879942	0.737201	0.500043
F71	F	-1.729927	0.484770	0.000074
F72	F	-1.229927	0.984770	0.500074
F73	F	-0.878166	-0.193633	0.273625
F74	F	-0.378166	0.306367	0.773625
H75	H	-1.404941	0.384846	0.000060
H76	H	-0.904941	0.884846	0.500060
F77	F	-1.673017	-0.014478	0.664917
F78	F	-1.173017	0.485522	1.164917
F79	F	-1.410309	-0.273749	0.574835
F80	F	-0.910309	0.226251	1.074835
H81	H	-0.916201	0.009777	0.099632
H82	H	-0.416201	0.509777	0.599632
F83	F	-0.905321	0.026306	-0.128073
F84	F	-0.405321	0.526306	0.371927
F85	F	-1.672744	-0.014259	0.335157
F86	F	-1.172744	0.485741	0.835157
H87	H	-1.088721	-0.356064	-0.143162
H88	H	-0.588721	0.143936	0.356838
F89	F	-1.145960	0.020064	-0.129734
F90	F	-0.645960	0.520064	0.370266
H91	H	-1.109039	-0.207851	-0.240772
H92	H	-0.609039	0.292149	0.259228
H93	H	-1.107333	-0.204821	0.240785
H94	H	-0.607333	0.295179	0.740785
H95	H	-1.090526	-0.354693	0.146975
H96	H	-0.590526	0.145307	0.646975
H97	H	-1.708175	0.215541	0.000079
H98	H	-1.208175	0.715541	0.500079
F99	F	-0.857577	-0.383236	0.138049
F100	F	-0.357577	0.116764	0.638049
