data_functionalizedCrystal
_audit_creation_method	'MofGen! by Chris Wilmer'
_symmetry_space_group_name_H-M	'P1'
_symmetry_Int_Tables_number	1
_symmetry_cell_setting	triclinic
loop_
_symmetry_equiv_pos_as_xyz
  x,y,z
_cell_length_a	6.817900
_cell_length_b	16.417823
_cell_length_c	16.305550
_cell_angle_alpha	95.391597
_cell_angle_beta	103.455250
_cell_angle_gamma	103.385419
loop_
_atom_site_label
_atom_site_type_symbol
_atom_site_fract_x
_atom_site_fract_y
_atom_site_fract_z
V1	V	-4.025831	-0.116592	-0.263325
O2	O	-4.013859	0.004875	-0.258012
O3	O	-3.976876	-0.230484	-0.261813
O4	O	-3.977242	-0.115118	-0.378038
O5	O	-4.013490	-0.111289	-0.140982
V6	V	-4.509555	-0.102026	-0.248657
O7	O	-4.286647	-0.148546	-0.295501
O8	O	-4.698935	-0.070073	-0.216481
O9	O	-4.335303	0.011865	-0.250169
O10	O	-4.638924	-0.223494	-0.253970
O11	O	-4.639292	-0.107329	-0.371000
O12	O	-4.334937	-0.103500	-0.133943
C13	C	-3.821748	-0.258238	-0.257733
C14	C	-3.863007	-0.351347	-0.257262
C15	C	-3.822214	-0.111077	-0.405989
C16	C	-3.863767	-0.110625	-0.499770
C17	C	-3.956729	-0.640901	-0.178490
C18	C	-3.917934	-0.553412	-0.178920
C19	C	-3.998030	-0.577729	-0.333500
C20	C	-4.036809	-0.665216	-0.333069
C21	C	-4.016167	-0.696800	-0.255562
C22	C	-3.938592	-0.521824	-0.256423
C23	C	-3.896529	-0.426965	-0.256889
C24	C	-4.058228	-0.791665	-0.255095
C25	C	-4.014860	-0.108874	-0.840511
C26	C	-3.778831	-0.103677	-0.799569
C27	C	-3.735634	-0.104494	-0.702077
C28	C	-3.939899	-0.109742	-0.671465
C29	C	-4.106638	-0.192462	-0.722300
C30	C	-4.148503	-0.191995	-0.819849
C31	C	-4.069889	-0.032012	-0.794474
C32	C	-4.021962	-0.031358	-0.696630
C33	C	-3.897548	-0.110236	-0.575929
C34	C	-4.057221	-0.108387	-0.936049
C35	C	-4.153773	0.039615	-0.254246
C36	C	-4.091752	0.132724	-0.254723
C37	C	-4.153307	-0.107544	-0.105988
C38	C	-4.090992	-0.107992	-0.012206
H39	H	-3.939911	-0.666613	-0.115379
H40	H	-3.869533	-0.507903	-0.116160
H41	H	-4.014835	-0.552003	-0.396604
H42	H	-4.085204	-0.710731	-0.395834
H43	H	-3.609349	-0.045018	-0.666903
Cl44	Cl	-4.020743	-0.282325	-0.696572
H45	H	-3.672905	-0.043921	-0.811783
H46	H	-4.169253	-0.030328	-0.675280
Cl47	Cl	-4.092379	-0.281829	-0.866985
H48	H	-4.322314	-0.199249	-0.847859
Cl49	Cl	-3.708902	-0.188937	-0.848429
H50	H	-3.669009	-0.160353	-0.685924
H51	H	-3.901133	0.029827	-0.662098
H52	H	-4.241943	-0.035084	-0.821298
H53	H	-4.259770	-0.199295	-0.703405
Cl54	Cl	-3.929122	0.064756	-0.814870
