data_functionalizedCrystal
_audit_creation_method	'MofGen! by Chris Wilmer'
_symmetry_space_group_name_H-M	'P1'
_symmetry_Int_Tables_number	1
_symmetry_cell_setting	triclinic
loop_
_symmetry_equiv_pos_as_xyz
  x,y,z
_cell_length_a	17.077404
_cell_length_b	25.639240
_cell_length_c	17.077396
_cell_angle_alpha	90.026057
_cell_angle_beta	90.019501
_cell_angle_gamma	90.032284
loop_
_atom_site_label
_atom_site_type_symbol
_atom_site_fract_x
_atom_site_fract_y
_atom_site_fract_z
Zn1	Zn	1.200005	-0.208148	0.443856
Zn2	Zn	1.199891	-0.295585	0.312595
Zn3	Zn	1.068736	-0.208166	0.312604
Zn4	Zn	1.068683	-0.295554	0.443819
O5	O	1.134329	-0.251863	0.378219
O6	O	1.309836	-0.219752	0.426456
O7	O	1.182467	-0.284010	0.202750
O8	O	1.086219	-0.134998	0.330034
O9	O	1.309753	-0.283992	0.330019
O10	O	1.182661	-0.134985	0.426464
O11	O	1.086109	-0.219783	0.202756
O12	O	0.958882	-0.219753	0.329998
O13	O	1.086129	-0.283939	0.553671
O14	O	0.958844	-0.283957	0.426401
O15	O	1.182610	-0.219722	0.553698
O16	O	1.182416	-0.368746	0.329984
O17	O	1.086018	-0.368724	0.426393
C18	C	0.930381	-0.251854	0.378197
C19	C	0.843131	-0.251862	0.378206
C20	C	0.802141	-0.285344	0.428323
C21	C	0.720161	-0.285345	0.428335
C22	C	0.679172	-0.251867	0.378227
C23	C	0.720167	-0.218382	0.328108
C24	C	0.802146	-0.218378	0.328100
C25	C	0.549297	-0.218392	0.328127
C26	C	0.467313	-0.218396	0.328134
C27	C	0.467312	-0.285358	0.428362
C28	C	0.549291	-0.285355	0.428354
C29	C	0.590281	-0.251871	0.378234
C30	C	1.134220	-0.387706	0.378201
C31	C	1.134246	-0.445820	0.378219
C32	C	1.184542	-0.696955	0.428481
C33	C	1.184518	-0.642351	0.428475
O34	O	1.227191	-0.614064	0.471184
N35	N	1.134332	-0.615094	0.378229
C36	C	1.084171	-0.642444	0.327979
O37	O	1.041482	-0.614246	0.285240
C38	C	1.084199	-0.697047	0.327982
C39	C	1.134383	-0.724301	0.378237
C40	C	1.234722	-0.724209	0.478732
C41	C	1.234745	-0.778810	0.478739
C42	C	1.184586	-0.806156	0.428495
C43	C	1.134406	-0.778902	0.378244
C44	C	1.034043	-0.724396	0.277729
C45	C	1.034076	-0.779003	0.277736
C46	C	1.084260	-0.806258	0.327991
C47	C	1.084270	-0.860849	0.328007
N48	N	1.134456	-0.888106	0.378253
C49	C	1.184615	-0.860759	0.428497
C50	C	1.084117	-0.527773	0.327977
C51	C	1.084084	-0.473171	0.327978
C52	C	1.184432	-0.473082	0.428473
C53	C	1.184461	-0.527685	0.428475
C54	C	1.134303	-0.555030	0.378223
C55	C	1.184657	-0.975424	0.428508
C56	C	1.184673	-1.030030	0.428513
C57	C	1.084328	-1.030114	0.328015
C58	C	1.084309	-0.975514	0.328013
C59	C	1.134480	-0.948170	0.378262
O60	O	1.041621	-0.889170	0.285318
O61	O	1.227304	-0.888964	0.471222
C62	C	1.339073	-0.251873	0.378241
C63	C	1.426323	-0.251877	0.378250
C64	C	1.134376	-0.251825	0.582963
C65	C	1.134397	-0.251808	0.670213
C66	C	1.134459	-0.115490	0.378254
C67	C	1.134514	-0.057376	0.378269
C68	C	1.134327	-0.251864	0.174271
C69	C	1.134459	-0.251733	0.087021
C70	C	1.184636	-0.218368	0.711218
C71	C	1.184646	-0.218350	0.793199
C72	C	1.134419	-0.251777	0.834172
C73	C	1.084174	-0.285219	0.793161
C74	C	1.084161	-0.285233	0.711182
C75	C	1.084205	-0.285187	0.964031
C76	C	1.084219	-0.285174	1.046016
C77	C	1.184690	-0.218304	1.046048
C78	C	1.184677	-0.218319	0.964069
C79	C	1.134433	-0.251762	0.923063
H80	H	0.686788	-0.191121	0.287312
H81	H	0.835519	-0.191112	0.287294
N82	N	1.030014	-0.321261	0.919808
H83	H	1.061888	-0.345497	0.885795
H84	H	0.993660	-0.299982	0.885840
N85	N	1.238763	-0.945934	0.482705
H86	H	1.294860	-0.955411	0.470571
H87	H	1.226470	-0.955438	0.538757
H88	H	1.043275	-0.312433	0.826528
N89	N	1.238784	-1.059425	0.482736
H90	H	1.270551	-1.033813	0.514567
H91	H	1.275146	-1.082078	0.450838
H92	H	0.433942	-0.191129	0.287340
H93	H	0.835509	-0.312607	0.469125
N94	N	1.029980	-0.321306	0.666953
H95	H	1.037591	-0.316243	0.608803
H96	H	0.973928	-0.313163	0.681276
H97	H	0.686790	-0.312609	0.469145
N98	N	1.030013	-0.321203	1.090209
H99	H	1.037641	-0.316114	1.148364
H100	H	1.042157	-0.358555	1.075887
N101	N	0.593495	-0.321464	0.482403
H102	H	0.627540	-0.300244	0.518830
H103	H	0.627431	-0.345658	0.450381
N104	N	0.423107	-0.321476	0.482420
H105	H	0.364954	-0.316398	0.474826
H106	H	0.437470	-0.313388	0.538502
N107	N	1.238817	-0.182272	0.837427
H108	H	1.270632	-0.161098	0.799031
H109	H	1.275131	-0.203541	0.871452
N110	N	1.238886	-0.182234	1.090269
H111	H	1.231272	-0.187294	1.148420
H112	H	1.226707	-0.144895	1.075946
N113	N	0.593511	-0.182275	0.274074
H114	H	0.555106	-0.161068	0.242329
H115	H	0.627493	-0.203526	0.237689
N116	N	1.288846	-0.808201	0.532969
H117	H	1.320604	-0.782585	0.564801
H118	H	1.325215	-0.830856	0.501083
H119	H	1.225539	-0.191150	0.677864
H120	H	1.275571	-0.701949	0.519646
N121	N	1.030178	-0.946121	0.273809
H122	H	1.062093	-0.923465	0.237456
H123	H	0.993781	-0.923502	0.305721
N124	N	1.029951	-0.443783	0.273775
H125	H	1.061861	-0.421123	0.237423
H126	H	0.993552	-0.421167	0.305690
N127	N	1.238577	-0.557078	0.482687
H128	H	1.270341	-0.531464	0.514518
H129	H	1.274942	-0.579725	0.450781
H130	H	1.225581	-0.191103	0.930711
N131	N	1.030235	-1.059615	0.273821
H132	H	1.037874	-1.098340	0.281450
H133	H	1.042492	-1.050082	0.217772
H134	H	1.225275	-0.450806	0.469383
H135	H	0.993179	-0.702214	0.236807
N136	N	1.030012	-0.557266	0.273777
H137	H	0.998218	-0.531709	0.241950
H138	H	0.993675	-0.579932	0.305696
N139	N	0.979980	-0.808497	0.223531
H140	H	0.948189	-0.782943	0.191698
H141	H	0.943641	-0.831162	0.255448
