data_functionalizedCrystal
_audit_creation_method	'MofGen! by Chris Wilmer'
_symmetry_space_group_name_H-M	'P1'
_symmetry_Int_Tables_number	1
_symmetry_cell_setting	triclinic
loop_
_symmetry_equiv_pos_as_xyz
  x,y,z
_cell_length_a	19.121102
_cell_length_b	19.120786
_cell_length_c	16.120297
_cell_angle_alpha	90.306305
_cell_angle_beta	90.563713
_cell_angle_gamma	89.915559
loop_
_atom_site_label
_atom_site_type_symbol
_atom_site_fract_x
_atom_site_fract_y
_atom_site_fract_z
Zn1	Zn	1.037352	-0.345607	-0.506327
Zn2	Zn	1.038708	-0.456929	-0.361340
Zn3	Zn	0.926536	-0.334719	-0.361878
Zn4	Zn	0.915608	-0.457319	-0.494460
O5	O	0.979551	-0.398644	-0.431001
O6	O	1.135426	-0.364767	-0.491835
O7	O	1.028969	-0.435998	-0.245248
O8	O	0.945241	-0.238266	-0.386230
O9	O	1.136422	-0.446556	-0.385314
O10	O	1.026657	-0.246265	-0.492356
O11	O	0.946556	-0.346211	-0.245643
O12	O	0.827192	-0.346589	-0.374724
O13	O	0.926617	-0.447220	-0.612198
O14	O	0.819163	-0.436663	-0.472132
O15	O	1.016061	-0.365145	-0.620916
O16	O	1.018373	-0.554878	-0.373808
O17	O	0.927932	-0.555165	-0.471611
C18	C	0.797794	-0.390487	-0.422199
C19	C	0.720037	-0.387016	-0.418452
C20	C	0.972132	-0.580407	-0.421382
C21	C	0.969021	-0.658170	-0.417298
C22	C	0.679345	-0.432345	-0.467320
C23	C	0.606284	-0.429074	-0.463804
C24	C	0.573915	-0.380476	-0.411415
C25	C	0.614612	-0.335142	-0.362546
C26	C	0.687672	-0.338410	-0.366067
C27	C	0.353530	-0.368256	-0.398255
C28	C	0.280464	-0.364992	-0.394736
C29	C	0.272141	-0.458924	-0.495996
C30	C	0.345203	-0.462191	-0.499509
C31	C	0.385893	-0.416854	-0.450643
C32	C	0.499235	-0.377133	-0.407818
C33	C	0.460572	-0.420194	-0.454245
C34	C	1.009913	-0.698807	-0.470675
C35	C	1.006987	-0.771874	-0.466839
C36	C	0.963172	-0.804301	-0.409621
C37	C	0.922275	-0.763658	-0.356242
C38	C	0.925198	-0.690593	-0.360083
C39	C	0.952225	-1.024706	-0.395262
C40	C	0.949306	-1.097776	-0.391423
C41	C	1.034017	-1.105987	-0.502021
C42	C	1.036939	-1.032920	-0.505854
C43	C	0.996040	-0.992283	-0.452478
C44	C	0.960182	-0.878987	-0.405697
C45	C	0.999027	-0.917599	-0.456407
C46	C	1.162017	-0.406832	-0.439838
C47	C	1.239773	-0.410322	-0.443604
C48	C	0.969969	-0.407440	-0.647519
C49	C	0.965886	-0.411189	-0.739786
C50	C	0.987017	-0.216172	-0.440677
C51	C	0.990199	-0.138414	-0.444800
C52	C	0.958406	-0.418016	-0.908719
C53	C	1.000842	-0.379068	-0.954153
C54	C	0.996680	-0.382866	-1.048153
C55	C	0.962567	-0.414218	-0.814710
C56	C	0.989138	-0.389833	-0.215330
C57	C	0.993364	-0.385893	-0.123081
H58	H	0.705694	-0.471921	-0.509978
H59	H	0.720802	-0.301495	-0.326278
H60	H	0.371552	-0.501766	-0.542167
H61	H	0.918953	-0.454212	-0.940417
H62	H	1.040298	-0.342869	-0.922453
C63	C	0.561527	-0.478977	-0.517506
H64	H	0.591269	-0.508406	-0.549187
H65	H	0.532496	-0.452502	-0.553783
H66	H	0.533211	-0.506835	-0.482657
H67	H	0.588252	-0.295570	-0.319893
H68	H	0.239003	-0.495834	-0.535782
H69	H	0.254112	-0.325410	-0.352080
C70	C	0.874082	-0.799327	-0.293302
H71	H	0.878203	-0.848662	-0.298652
H72	H	0.827011	-0.785777	-0.303752
H73	H	0.887311	-0.785552	-0.238662
C74	C	0.901111	-1.133449	-0.328480
H75	H	0.905237	-1.182784	-0.333832
H76	H	0.854039	-1.119903	-0.338931
H77	H	0.914339	-1.119674	-0.273840
H78	H	0.386651	-0.331344	-0.358458
C79	C	1.058110	-0.663140	-0.533613
H80	H	1.054000	-0.613805	-0.528252
H81	H	1.044888	-0.676912	-0.588250
H82	H	1.105181	-0.676694	-0.523153
H83	H	0.486930	-0.459760	-0.496903
H84	H	1.034699	-0.891195	-0.502996
C85	C	0.463630	-0.323680	-0.350188
H86	H	0.498326	-0.297147	-0.321587
H87	H	0.435633	-0.347649	-0.311185
H88	H	0.434971	-0.293256	-0.382248
H89	H	1.040291	-0.804958	-0.510298
C90	C	1.085148	-0.997255	-0.568780
H91	H	1.109083	-1.031923	-0.600021
H92	H	1.118190	-0.968819	-0.540016
H93	H	1.057911	-0.969027	-0.605133
H94	H	1.067314	-1.139081	-0.545478
C95	C	0.907247	-0.980015	-0.336540
H96	H	0.880743	-1.009794	-0.301907
H97	H	0.876476	-0.951449	-0.368276
H98	H	0.936780	-0.951234	-0.303191
H99	H	0.891898	-0.657506	-0.316619
H100	H	0.924509	-0.905398	-0.359108
