data_functionalizedCrystal
_audit_creation_method	'MofGen! by Chris Wilmer'
_symmetry_space_group_name_H-M	'P1'
_symmetry_Int_Tables_number	1
_symmetry_cell_setting	triclinic
loop_
_symmetry_equiv_pos_as_xyz
  x,y,z
_cell_length_a	6.817900
_cell_length_b	11.102244
_cell_length_c	16.255661
_cell_angle_alpha	93.853574
_cell_angle_beta	103.488922
_cell_angle_gamma	108.604870
loop_
_atom_site_label
_atom_site_type_symbol
_atom_site_fract_x
_atom_site_fract_y
_atom_site_fract_z
V1	V	-4.052933	-0.176865	-0.263869
O2	O	-4.013087	0.007443	-0.258848
O3	O	-4.030105	-0.349678	-0.262062
O4	O	-4.004160	-0.174608	-0.378952
O5	O	-4.039211	-0.168839	-0.141149
V6	V	-4.533296	-0.154765	-0.249191
O7	O	-4.321124	-0.225343	-0.296066
O8	O	-4.715302	-0.106287	-0.216993
O9	O	-4.332917	0.018048	-0.250998
O10	O	-4.690538	-0.339073	-0.254212
O11	O	-4.664414	-0.162791	-0.371911
O12	O	-4.358862	-0.157022	-0.134107
C13	C	-3.881339	-0.391791	-0.257899
C14	C	-3.943959	-0.533071	-0.257189
C15	C	-3.930414	-0.581003	-0.179357
C16	C	-3.989265	-0.713752	-0.178699
C17	C	-4.075195	-0.750628	-0.333712
C18	C	-4.016359	-0.617881	-0.334369
C19	C	-3.858014	-0.496193	-0.102176
C20	C	-3.844464	-0.544123	-0.024338
C21	C	-3.903314	-0.676873	-0.023681
C22	C	-3.975715	-0.761692	-0.100861
C23	C	-3.848243	-0.168471	-0.407003
C24	C	-3.889818	-0.167769	-0.501084
C25	C	-3.799132	-0.159385	-0.723903
C26	C	-3.971590	-0.267594	-0.793378
C27	C	-3.966008	-0.166453	-0.673333
C28	C	-3.867656	-0.057005	-0.771495
C29	C	-4.039586	-0.165176	-0.839716
C30	C	-4.137962	-0.274759	-0.741577
C31	C	-4.033952	-0.064074	-0.719680
C32	C	-4.206551	-0.172314	-0.789135
C33	C	-3.923616	-0.167190	-0.577483
C34	C	-4.081997	-0.164449	-0.935565
C35	C	-4.145026	0.060154	-0.255159
C36	C	-4.061645	0.201433	-0.255874
C37	C	-4.178122	-0.163163	-0.106052
C38	C	-4.115784	-0.163859	-0.011970
H39	H	-3.626588	-0.154059	-0.695422
H40	H	-4.379239	-0.177810	-0.817481
H41	H	-3.753781	0.034998	-0.785106
H42	H	-4.251837	-0.366886	-0.728109
N43	N	-4.030948	-0.566187	-0.418319
H44	H	-3.883947	-0.507518	-0.419173
H45	H	-4.133041	-0.516411	-0.424874
H46	H	-3.892298	-0.715894	0.039698
N47	N	-4.068183	0.049904	-0.677148
H48	H	-3.930750	0.104806	-0.633509
H49	H	-4.186130	0.018533	-0.647717
N50	N	-3.794504	-0.353014	-0.102885
H51	H	-3.746574	-0.306557	-0.042184
H52	H	-3.921754	-0.332781	-0.136380
H53	H	-3.785529	-0.475056	0.038499
H54	H	-4.023646	-0.869785	-0.100320
H55	H	-3.945674	-0.353639	-0.825462
N56	N	-4.153304	-0.842104	-0.416953
H57	H	-4.188526	-0.933472	-0.404726
H58	H	-4.037291	-0.822547	-0.448051
