data_functionalizedCrystal
_audit_creation_method	'MofGen! by Chris Wilmer'
_symmetry_space_group_name_H-M	'P1'
_symmetry_Int_Tables_number	1
_symmetry_cell_setting	triclinic
loop_
_symmetry_equiv_pos_as_xyz
  x,y,z
_cell_length_a	18.627263
_cell_length_b	18.627226
_cell_length_c	18.627268
_cell_angle_alpha	89.999910
_cell_angle_beta	60.000633
_cell_angle_gamma	60.000314
loop_
_atom_site_label
_atom_site_type_symbol
_atom_site_fract_x
_atom_site_fract_y
_atom_site_fract_z
O1	O	-0.513833	-0.611891	0.021362
O2	O	-0.366827	-0.507496	-0.021249
O3	O	-0.513832	-0.507484	0.125754
O4	O	-0.366828	-0.611903	-0.125641
O5	O	-0.633226	-0.388087	0.125741
O6	O	-0.486220	-0.388099	-0.021262
O7	O	-0.633227	-0.492495	0.021349
Zn8	Zn	-0.578680	-0.421340	0.000042
Zn9	Zn	-0.421374	-0.578650	0.000059
O10	O	-0.486221	-0.492506	-0.125654
C11	C	-0.356039	-0.256988	-0.030931
C12	C	-0.406439	-0.162289	-0.024828
C13	C	-0.398832	-0.300591	-0.031544
C14	C	-0.226034	-0.386991	-0.030937
C15	C	-0.137433	-0.431292	-0.024842
C16	C	-0.269025	-0.430397	-0.031550
C17	C	-0.356032	-0.386992	-0.030942
C18	C	-0.406425	-0.431295	-0.024852
C19	C	-0.269032	-0.300590	-0.031539
C20	C	-0.644031	-0.612993	0.031057
C21	C	-0.593631	-0.568694	0.024956
C22	C	-0.601239	-0.699389	0.031674
C23	C	-0.774030	-0.612995	0.031057
C24	C	-0.862627	-0.568698	0.024955
C25	C	-0.731041	-0.699391	0.031673
C26	C	-0.644039	-0.742990	0.031071
C27	C	-0.593648	-0.837684	0.024984
C28	C	-0.731033	-0.569591	0.031660
C29	C	-0.356024	-0.613024	-0.386945
C30	C	-0.406418	-0.568728	-0.431249
C31	C	-0.269022	-0.699423	-0.430343
C32	C	-0.356028	-0.613014	-0.256943
C33	C	-0.406424	-0.568709	-0.162248
C34	C	-0.269025	-0.699413	-0.300538
C35	C	-0.226031	-0.743020	-0.386934
C36	C	-0.137435	-0.837717	-0.431228
C37	C	-0.398821	-0.569614	-0.300549
O38	O	0.104369	-0.492496	0.021360
O39	O	-0.104433	-0.388091	-0.021238
O40	O	-0.104428	-0.388103	0.125759
O41	O	0.104364	-0.492483	-0.125637
O42	O	-0.104422	-0.507508	0.125749
O43	O	-0.104427	-0.507496	-0.021249
O44	O	0.104374	-0.611901	0.021349
Zn45	Zn	-0.000025	-0.578657	0.000048
Zn46	Zn	-0.000033	-0.421335	0.000063
O47	O	0.104370	-0.611888	-0.125648
O48	O	-0.633249	0.125714	0.021387
O49	O	-0.486240	-0.125688	-0.021229
O50	O	-0.633239	0.021302	0.125776
O51	O	-0.486250	-0.021277	-0.125618
O52	O	-0.513841	0.021304	0.125780
O53	O	-0.366841	-0.125686	-0.021224
O54	O	-0.513850	0.125716	0.021391
Zn55	Zn	-0.421389	0.000015	0.000084
Zn56	Zn	-0.578702	0.000012	0.000078
O57	O	-0.366851	-0.021274	-0.125613
O58	O	0.104354	-1.125715	-0.492408
O59	O	-0.104434	-0.874316	-0.388025
O60	O	-0.104442	-1.021311	-0.388013
O61	O	0.104363	-0.978719	-0.492420
O62	O	-0.104441	-1.021318	-0.507416
O63	O	-0.104433	-0.874323	-0.507428
O64	O	0.104356	-1.125722	-0.611811
Zn65	Zn	-0.000038	-1.000023	-0.578577
Zn66	Zn	-0.000040	-1.000014	-0.421259
O67	O	0.104364	-0.978726	-0.611823
O68	O	-0.513805	-0.507546	-0.611861
O69	O	-0.366817	-0.611932	-0.507449
O70	O	-0.513816	-0.611934	-0.507449
O71	O	-0.366807	-0.507544	-0.611861
O72	O	-0.633215	-0.492526	-0.388056
O73	O	-0.486216	-0.492524	-0.388056
O74	O	-0.633205	-0.388138	-0.492468
Zn75	Zn	-0.578668	-0.421373	-0.421306
Zn76	Zn	-0.421354	-0.578698	-0.578611
O77	O	-0.486206	-0.388136	-0.492468
C78	C	-0.226025	-0.387016	0.257052
C79	C	-0.137427	-0.431307	0.162355
C80	C	-0.269014	-0.430426	0.300646
C81	C	-0.356026	-0.257024	0.387058
C82	C	-0.406425	-0.162329	0.431365
C83	C	-0.398817	-0.300632	0.430455
C84	C	-0.356017	-0.387030	0.387044
C85	C	-0.406408	-0.431336	0.431337
C86	C	-0.269022	-0.300619	0.300660
C87	C	-0.774024	-0.256969	0.387034
C88	C	-0.862620	-0.162272	0.431326
C89	C	-0.731034	-0.300565	0.430443
C90	C	-0.644027	-0.386975	0.257043
C91	C	-0.593630	-0.431282	0.162348
C92	C	-0.601234	-0.430375	0.300650
C93	C	-0.644031	-0.386965	0.387046
C94	C	-0.593639	-0.431260	0.431351
C95	C	-0.731029	-0.300576	0.300638
C96	C	0.355987	-0.742980	-0.386937
C97	C	0.406388	-0.837677	-0.431241
C98	C	0.398783	-0.699375	-0.430334
C99	C	0.225977	-0.612983	-0.256937
C100	C	0.137372	-0.568686	-0.162243
C101	C	0.268970	-0.569575	-0.300531
C102	C	0.355981	-0.612976	-0.386925
C103	C	0.406376	-0.568672	-0.431216
C104	C	0.268976	-0.699382	-0.300542
C105	C	-0.644024	0.030977	0.387071
C106	C	-0.593625	0.024878	0.431370
C107	C	-0.731026	0.031580	0.430472
C108	C	-0.644030	0.030987	0.257073
C109	C	-0.593638	0.024899	0.162379
C110	C	-0.731032	0.031590	0.300672
C111	C	-0.774022	0.030975	0.387068
C112	C	-0.862618	0.024873	0.431364
C113	C	-0.601232	0.031592	0.300675
O114	O	-0.513872	0.125685	0.492575
O115	O	-0.366844	-0.125716	0.388163
O116	O	-0.513884	0.021276	0.388196
O117	O	-0.366832	-0.021306	0.492542
O118	O	-0.633249	0.021252	0.507608
O119	O	-0.486210	-0.125740	0.507575
O120	O	-0.633238	0.125661	0.611987
Zn121	Zn	-0.578676	-0.000043	0.578740
Zn122	Zn	-0.421406	-0.000011	0.421410
O123	O	-0.486198	-0.021330	0.611954
C124	C	-0.226070	-0.030947	-0.386906
C125	C	-0.137474	-0.024845	-0.431203
C126	C	-0.269067	-0.031552	-0.430310
C127	C	-0.356061	-0.030959	-0.256911
C128	C	-0.406452	-0.024871	-0.162216
C129	C	-0.398860	-0.031564	-0.300512
C130	C	-0.356069	-0.030949	-0.386907
C131	C	-0.406468	-0.024850	-0.431207
C132	C	-0.269059	-0.031562	-0.300510
H133	H	-0.233051	-0.265581	-0.032519
H134	H	-0.233065	-0.501395	0.265611
H135	H	0.232982	-0.498587	-0.265517
H136	H	-0.233045	-0.265609	0.265654
H137	H	-0.468828	-0.498624	-0.265553
H138	H	-0.531216	-0.501360	0.265642
Br139	Br	0.209010	-0.757732	-0.242201
Br140	Br	-0.791006	0.033214	0.242328
Br141	Br	-0.515508	-0.242299	0.548769
H142	H	-0.767005	-0.498606	0.032625
Br143	Br	-0.791018	-0.242224	0.548764
Br144	Br	-0.791014	-0.757738	0.033308
Br145	Br	-0.484515	-0.757753	0.033249
H146	H	-0.766994	0.032538	0.501455
H147	H	-0.766995	-0.265562	0.265622
H148	H	-0.233031	-0.734424	-0.501335
H149	H	0.468793	-0.734379	-0.501322
H150	H	-0.531221	0.032571	0.265674
Br151	Br	-0.209048	-0.757752	-0.242194
H152	H	-0.468869	-0.032545	-0.265504
H153	H	-0.233117	-0.032472	-0.265485
Br154	Br	-0.209055	-0.548715	-0.033181
Br155	Br	-0.515517	-0.242252	-0.033179
H156	H	-0.233083	-0.032525	-0.501297
