data_functionalizedCrystal
_audit_creation_method	'MofGen! by Chris Wilmer'
_symmetry_space_group_name_H-M	'P1'
_symmetry_Int_Tables_number	1
_symmetry_cell_setting	triclinic
loop_
_symmetry_equiv_pos_as_xyz
  x,y,z
_cell_length_a	16.120256
_cell_length_b	17.077404
_cell_length_c	17.077402
_cell_angle_alpha	89.976892
_cell_angle_beta	92.872538
_cell_angle_gamma	87.121621
loop_
_atom_site_label
_atom_site_type_symbol
_atom_site_fract_x
_atom_site_fract_y
_atom_site_fract_z
Zn1	Zn	-0.471376	-1.177551	-0.335042
Zn2	Zn	-0.331962	-1.184113	-0.459651
Zn3	Zn	-0.331980	-1.052937	-0.328404
Zn4	Zn	-0.471328	-1.046253	-0.466268
O5	O	-0.401662	-1.115213	-0.397341
O6	O	-0.452895	-1.288267	-0.351580
O7	O	-0.215301	-1.172257	-0.436694
O8	O	-0.350499	-1.069518	-0.219439
O9	O	-0.350468	-1.293089	-0.443130
O10	O	-0.452913	-1.161071	-0.224316
O11	O	-0.215314	-1.075882	-0.340267
O12	O	-0.350452	-0.942204	-0.346684
O13	O	-0.587998	-1.058125	-0.454408
O14	O	-0.452831	-0.937293	-0.447971
O15	O	-0.588033	-1.154589	-0.357996
O16	O	-0.350421	-1.165775	-0.570374
O17	O	-0.452813	-1.064489	-0.575236
C18	C	-0.401628	-1.115139	-0.601288
C19	C	-0.401642	-1.115178	-0.688538
C20	C	-0.401639	-0.911267	-0.397326
C21	C	-0.401649	-0.824016	-0.397339
C22	C	-0.619111	-1.104880	-0.407681
C23	C	-0.711775	-1.100476	-0.412087
C24	C	-0.922737	-1.138177	-0.374344
C25	C	-0.881427	-1.092410	-0.420098
C26	C	-0.787024	-1.096899	-0.415639
C27	C	-1.017149	-1.133688	-0.378802
C28	C	-0.185058	-1.125552	-0.386985
C29	C	-0.092395	-1.130108	-0.382358
C30	C	-0.401685	-1.319957	-0.397357
C31	C	-0.401695	-1.407206	-0.397364
C32	C	-0.454872	-0.780494	-0.450151
C33	C	-0.454885	-0.698513	-0.450154
C34	C	-0.401670	-0.660056	-0.397347
C35	C	-0.348445	-0.703585	-0.344529
C36	C	-0.348437	-0.785564	-0.344524
C37	C	-0.348465	-0.532714	-0.344546
C38	C	-0.348472	-0.450729	-0.344552
C39	C	-0.454913	-0.445662	-0.450176
C40	C	-0.454905	-0.527642	-0.450170
C41	C	-0.401678	-0.571165	-0.397353
C42	C	-0.348384	-1.167966	-0.726973
C43	C	-0.348405	-1.168003	-0.808955
C44	C	-0.401681	-1.115248	-0.852499
C45	C	-0.454945	-1.062458	-0.814058
C46	C	-0.454927	-1.062425	-0.732079
C47	C	-0.454977	-1.062529	-0.984930
C48	C	-0.454993	-1.062561	-1.066915
C49	C	-0.348454	-1.168108	-1.061806
C50	C	-0.348437	-1.168075	-0.979826
C51	C	-0.401700	-1.115283	-0.941391
C52	C	-0.401713	-1.115308	-0.192599
C53	C	-0.401735	-1.115349	-0.105351
H54	H	-0.916960	-1.049852	-0.462614
H55	H	-0.887207	-1.180728	-0.331828
H56	H	-0.498297	-1.019441	-0.700785
H57	H	-0.498327	-1.019507	-0.849519
O58	O	-0.506644	-0.817722	-0.501477
C59	C	-0.553609	-0.761724	-0.548102
H60	H	-0.556560	-0.703158	-0.516098
H61	H	-0.619277	-0.782298	-0.559691
H62	H	-0.522969	-0.754435	-0.606219
H63	H	-0.305120	-0.672267	-0.301530
O64	O	-0.296569	-1.219287	-0.937608
C65	C	-0.213464	-1.206142	-0.953719
H66	H	-0.211716	-1.176077	-1.013184
H67	H	-0.176138	-1.264598	-0.954714
H68	H	-0.185337	-1.167122	-0.906287
H69	H	-0.498224	-0.663080	-0.493159
H70	H	-0.305101	-0.820999	-0.301515
O71	O	-0.506673	-0.564875	-0.501496
C72	C	-0.553640	-0.508884	-0.548128
H73	H	-0.556599	-0.450316	-0.516128
H74	H	-0.619305	-0.529464	-0.559718
H75	H	-0.522998	-0.501597	-0.606243
H76	H	-0.305130	-0.568148	-0.301530
O77	O	-0.296602	-1.219287	-0.684798
C78	C	-0.249585	-1.265873	-0.736305
H79	H	-0.283750	-1.266966	-0.796350
H80	H	-0.240745	-1.328137	-0.712152
H81	H	-0.186244	-1.240188	-0.742064
O82	O	-0.506596	-0.403268	-0.501404
C83	C	-0.495185	-0.322665	-0.490099
H84	H	-0.468001	-0.312775	-0.428187
H85	H	-0.557626	-0.288555	-0.498487
H86	H	-0.450702	-0.301487	-0.534479
H87	H	-0.305088	-1.211095	-1.093104
O88	O	-0.296682	-0.413448	-0.293285
C89	C	-0.213544	-0.437374	-0.306350
H90	H	-0.211723	-0.496978	-0.336419
H91	H	-0.176285	-0.441937	-0.247861
H92	H	-0.185396	-0.392554	-0.345334
O93	O	-0.506831	-1.011294	-1.109098
C94	C	-0.553832	-0.964686	-1.057597
H95	H	-0.556733	-0.996669	-0.999268
H96	H	-0.619515	-0.953165	-1.084390
H97	H	-0.523257	-0.906534	-1.047490
O98	O	-0.506602	-1.011214	-0.947504
C99	C	-0.459078	-0.962775	-0.897900
H100	H	-0.395924	-0.993505	-0.882616
H101	H	-0.493016	-0.950590	-0.841863
H102	H	-0.449866	-0.905062	-0.929110
H103	H	-0.305036	-1.210988	-0.840245
