data_functionalizedCrystal
_audit_creation_method	'MofGen! by Chris Wilmer'
_symmetry_space_group_name_H-M	'P1'
_symmetry_Int_Tables_number	1
_symmetry_cell_setting	triclinic
loop_
_symmetry_equiv_pos_as_xyz
  x,y,z
_cell_length_a	10.723024
_cell_length_b	9.065218
_cell_length_c	8.140239
_cell_angle_alpha	90.001686
_cell_angle_beta	89.997577
_cell_angle_gamma	95.258123
loop_
_atom_site_label
_atom_site_type_symbol
_atom_site_fract_x
_atom_site_fract_y
_atom_site_fract_z
O1	O	1.658026	-0.206940	-0.136596
O2	O	1.294954	-0.226748	-0.136601
O3	O	1.483995	-0.002159	-0.136595
O4	O	1.468985	-0.431529	-0.136602
O5	O	1.483984	-0.002156	0.136632
O6	O	1.294944	-0.226745	0.136627
O7	O	1.658015	-0.206937	0.136631
Zn8	Zn	1.476478	-0.216841	0.180010
Zn9	Zn	1.476492	-0.216844	-0.179979
O10	O	1.468975	-0.431526	0.136626
C11	C	1.248443	-0.225305	0.000012
C12	C	1.109872	-0.220992	0.000010
N13	N	1.476477	-0.216837	0.425692
C14	C	1.482547	0.052821	0.000016
C15	C	1.478234	0.216639	0.000008
C16	C	1.035399	-0.346660	0.000007
C17	C	0.892178	-0.342206	0.000005
C18	C	1.704526	-0.208380	0.000015
C19	C	1.843098	-0.212693	0.000006
C20	C	1.470423	-0.486506	0.000011
C21	C	1.474736	-0.650324	0.000008
N22	N	1.476502	-0.216836	-0.425661
H23	H	1.077672	-0.457547	0.000015
H24	H	1.067599	-0.110105	-0.000030
C25	C	0.805735	-0.487553	0.000001
C26	C	0.712531	-0.521560	-0.141880
C27	C	0.626085	-0.666912	-0.141883
C28	C	0.632841	-0.778257	-0.000006
C29	C	0.726049	-0.744253	0.141886
C30	C	0.812495	-0.598901	0.141890
H31	H	0.707526	-0.439133	-0.246916
H32	H	0.557087	-0.692083	-0.246922
H33	H	0.568849	-0.885855	-0.000008
H34	H	0.731054	-0.826680	0.246922
H35	H	0.881493	-0.573729	0.246928
C36	C	0.929534	-0.067340	0.000010
C37	C	1.022737	-0.033333	0.141891
C38	C	1.109183	0.112020	0.141895
C39	C	1.102427	0.223365	0.000017
C40	C	1.009220	0.189360	-0.141875
C41	C	0.922773	0.044008	-0.141878
H42	H	1.027742	-0.115760	0.246927
H43	H	1.178181	0.137191	0.246933
H44	H	1.166419	0.330963	0.000020
H45	H	1.004214	0.271787	-0.246911
H46	H	0.853775	0.018837	-0.246917
