data_functionalizedCrystal
_audit_creation_method	'MofGen! by Chris Wilmer'
_symmetry_space_group_name_H-M	'P1'
_symmetry_Int_Tables_number	1
_symmetry_cell_setting	triclinic
loop_
_symmetry_equiv_pos_as_xyz
  x,y,z
_cell_length_a	16.992700
_cell_length_b	16.956993
_cell_length_c	14.586319
_cell_angle_alpha	90.008450
_cell_angle_beta	89.978312
_cell_angle_gamma	96.639065
loop_
_atom_site_label
_atom_site_type_symbol
_atom_site_fract_x
_atom_site_fract_y
_atom_site_fract_z
O1	O	0.032377	-1.060097	-0.076338
O2	O	0.532377	-0.560097	0.423662
O3	O	0.059790	-0.829686	-0.076324
O4	O	0.559790	-0.329686	0.423676
O5	O	-0.067999	-0.943969	-0.076307
O6	O	0.432001	-0.443969	0.423693
O7	O	0.160166	-0.945814	-0.076354
O8	O	0.660166	-0.445814	0.423646
O9	O	-0.068025	-0.943962	0.076173
O10	O	0.431975	-0.443962	0.576173
O11	O	0.059764	-0.829680	0.076157
O12	O	0.559764	-0.329680	0.576157
O13	O	0.032351	-1.060090	0.076143
O14	O	0.532351	-0.560090	0.576143
Cu15	Cu	0.046055	-0.944884	0.090073
Cu16	Cu	0.546055	-0.444884	0.590073
Cu17	Cu	0.046086	-0.944892	-0.090253
Cu18	Cu	0.546086	-0.444892	0.409747
O19	O	0.160141	-0.945808	0.076127
O20	O	0.660141	-0.445808	0.576127
C21	C	0.061181	-0.800064	-0.000081
C22	C	0.561181	-0.300064	0.499919
C23	C	0.065354	-0.711810	-0.000075
C24	C	0.565354	-0.211810	0.499925
C25	C	-0.097071	-0.941589	-0.000063
C26	C	0.402929	-0.441589	0.499937
C27	C	-0.183655	-0.934500	-0.000050
C28	C	0.316345	-0.434500	0.499950
C29	C	-0.669528	-0.886862	-0.000131
C30	C	-0.169528	-0.386862	0.499869
C31	C	-0.588173	-0.893530	-0.000123
C32	C	-0.088173	-0.393530	0.499877
C33	C	-0.561496	-0.968613	-0.000115
C34	C	-0.061496	-0.468613	0.499885
C35	C	-0.616178	-1.037033	-0.000125
C36	C	-0.116178	-0.537033	0.499875
C37	C	-0.697531	-1.030364	-0.000140
C38	C	-0.197531	-0.530364	0.499860
C39	C	-0.319690	-0.996251	-0.000075
C40	C	0.180310	-0.496251	0.499925
C41	C	-0.238331	-1.002914	-0.000058
C42	C	0.261669	-0.502914	0.499942
C43	C	-0.210332	-0.859411	-0.000057
C44	C	0.289668	-0.359411	0.499943
C45	C	-0.291687	-0.852749	-0.000067
C46	C	0.208313	-0.352749	0.499933
C47	C	-0.346362	-0.921168	-0.000082
C48	C	0.153638	-0.421168	0.499918
N49	N	-0.478339	-0.975430	-0.000103
N50	N	0.021661	-0.475430	0.499897
N51	N	-0.429517	-0.914350	-0.000100
N52	N	0.070483	-0.414350	0.499900
C53	C	0.096571	-0.214499	-0.000101
C54	C	0.596571	0.285501	0.499899
C55	C	0.092644	-0.297424	-0.000102
C56	C	0.592644	0.202576	0.499898
C57	C	0.018931	-0.343815	-0.000081
C58	C	0.518931	0.156185	0.499919
C59	C	-0.050859	-0.307278	-0.000069
C60	C	0.449141	0.192722	0.499931
C61	C	-0.046931	-0.224354	-0.000075
C62	C	0.453069	0.275646	0.499925
C63	C	-0.000509	-0.592349	-0.000068
C64	C	0.499491	-0.092349	0.499932
C65	C	-0.004432	-0.675278	-0.000060
C66	C	0.495568	-0.175278	0.499940
C67	C	0.139072	-0.665418	-0.000094
C68	C	0.639072	-0.165418	0.499906
C69	C	0.142993	-0.582493	-0.000094
C70	C	0.642993	-0.082493	0.499906
C71	C	0.073203	-0.545963	-0.000087
C72	C	0.573203	-0.045963	0.499913
N73	N	0.014916	-0.428578	-0.000079
N74	N	0.514916	0.071422	0.499921
N75	N	0.077219	-0.461202	-0.000096
N76	N	0.577219	0.038798	0.499904
C77	C	0.189212	-0.948187	-0.000120
C78	C	0.689212	-0.448187	0.499880
C79	C	0.275797	-0.955277	-0.000138
C80	C	0.775797	-0.455277	0.499862
C81	C	0.030960	-0.089712	-0.000095
C82	C	0.530960	0.410288	0.499905
C83	C	0.026786	-0.177967	-0.000086
C84	C	0.526786	0.322033	0.499914
N85	N	0.046102	-0.944898	-0.217085
N86	N	0.546102	-0.444898	0.282915
C87	C	0.090440	-0.995968	-0.548122
C88	C	0.590440	-0.495968	-0.048122
C89	C	0.090450	-0.995972	-0.452141
C90	C	0.590450	-0.495972	0.047859
C91	C	0.001690	-0.893812	-0.452065
C92	C	0.501690	-0.393812	0.047935
C93	C	0.001676	-0.893813	-0.548044
C94	C	0.501676	-0.393813	-0.048044
C95	C	0.046055	-0.944889	-0.596071
C96	C	0.546055	-0.444889	-0.096071
C97	C	0.046080	-0.944893	-0.404110
C98	C	0.546080	-0.444893	0.095890
C99	C	0.046091	-0.944897	-0.300043
C100	C	0.546091	-0.444897	0.199957
C101	C	0.046043	-0.944886	-0.700144
C102	C	0.546043	-0.444886	-0.200144
N103	N	0.046033	-0.944884	0.216905
N104	N	0.546033	-0.444884	0.716905
H105	H	-0.543659	-0.837819	-0.000119
H106	H	-0.043659	-0.337819	0.499881
C107	C	-0.744798	-0.796096	0.078238
C108	C	-0.244798	-0.296096	0.578238
C109	C	-0.698845	-0.804327	-0.000139
C110	C	-0.198845	-0.304327	0.499861
H111	H	-0.762890	-0.745138	0.078231
H112	H	-0.262890	-0.245138	0.578231
H113	H	-0.789002	-0.835880	0.078226
H114	H	-0.289002	-0.335880	0.578226
H115	H	-0.713659	-0.801675	0.131411
H116	H	-0.213659	-0.301675	0.631411
H117	H	-0.729986	-0.798754	-0.053312
H118	H	-0.229986	-0.298754	0.446688
H119	H	-0.654634	-0.764532	-0.000136
H120	H	-0.154634	-0.264532	0.499864
H121	H	-0.216615	-1.064059	-0.000051
H122	H	0.283385	-0.564059	0.499949
H123	H	-0.103758	-0.194612	-0.000065
H124	H	0.396242	0.305388	0.499935
H125	H	-0.364198	-1.051963	-0.000082
H126	H	0.135802	-0.551963	0.499918
C127	C	0.129837	-1.041327	-0.695286
C128	C	0.629837	-0.541327	-0.195286
C129	C	0.139216	-1.052114	-0.600915
C130	C	0.639216	-0.552114	-0.100915
H131	H	0.159954	-1.075988	-0.727874
H132	H	0.659954	-0.575988	-0.227874
H133	H	0.075474	-1.052786	-0.710980
H134	H	0.575474	-0.552786	-0.210980
H135	H	0.147735	-0.987891	-0.711007
H136	H	0.647735	-0.487891	-0.211007
H137	H	0.121312	-1.105548	-0.585193
H138	H	0.621312	-0.605548	-0.085193
H139	H	0.193591	-1.040660	-0.585215
H140	H	0.693591	-0.540660	-0.085215
H141	H	-0.594452	-1.098167	-0.000116
H142	H	-0.094452	-0.598167	0.499884
C143	C	-0.717041	-1.172880	-0.000130
C144	C	-0.217041	-0.672880	0.499870
C145	C	-0.757634	-1.105568	-0.000144
C146	C	-0.257634	-0.605568	0.499856
H147	H	-0.754147	-1.219307	-0.000131
H148	H	-0.254147	-0.719307	0.499869
H149	H	-0.684705	-1.172501	-0.053294
H150	H	-0.184705	-0.672501	0.446706
H151	H	-0.684750	-1.172485	0.053054
H152	H	-0.184750	-0.672485	0.553054
H153	H	-0.789920	-1.105959	-0.053332
H154	H	-0.289920	-0.605959	0.446668
H155	H	-0.789983	-1.105946	0.053024
H156	H	-0.289983	-0.605946	0.553024
C157	C	0.150344	-0.420161	-0.000167
C158	C	0.650344	0.079839	0.499833
C159	C	0.169354	-0.337580	-0.000152
C160	C	0.669354	0.162420	0.499848
H161	H	0.197704	-0.444950	-0.000214
H162	H	0.697704	0.055050	0.499786
H163	H	0.120236	-0.435775	0.053020
H164	H	0.620236	0.064225	0.553020
H165	H	0.120209	-0.435764	-0.053327
H166	H	0.620209	0.064236	0.446673
H167	H	0.199484	-0.321977	0.053012
H168	H	0.699484	0.178023	0.553012
H169	H	0.199474	-0.321960	-0.053344
H170	H	0.699474	0.178040	0.446656
C171	C	0.284446	-0.581080	-0.000136
C172	C	0.784446	-0.081080	0.499864
C173	C	0.224021	-0.531502	-0.000121
C174	C	0.724021	-0.031502	0.499879
H175	H	0.334469	-0.549598	-0.000154
H176	H	0.834469	-0.049598	0.499846
H177	H	0.279924	-0.613619	0.053036
H178	H	0.779924	-0.113619	0.553036
H179	H	0.279932	-0.613637	-0.053311
H180	H	0.779932	-0.113637	0.446689
H181	H	0.228532	-0.498948	0.053058
H182	H	0.728532	0.001052	0.553058
H183	H	0.228546	-0.498949	-0.053298
H184	H	0.728546	0.001051	0.446702
H185	H	-0.313401	-0.791608	-0.000084
H186	H	0.186599	-0.291608	0.499916
C187	C	0.178192	-1.096943	-0.461864
C188	C	0.678192	-0.596943	0.038136
C189	C	0.139243	-1.052116	-0.399437
C190	C	0.639243	-0.552116	0.100563
H191	H	0.208319	-1.131602	-0.429325
H192	H	0.708319	-0.631602	0.070675
H193	H	0.140212	-1.127263	-0.499280
H194	H	0.640212	-0.627263	0.000720
H195	H	0.212470	-1.062363	-0.499315
H196	H	0.712470	-0.562363	0.000685
H197	H	0.104961	-1.086695	-0.361990
H198	H	0.604961	-0.586695	0.138010
H199	H	0.177228	-1.021794	-0.362005
H200	H	0.677228	-0.521794	0.137995
C201	C	-0.190829	-0.716897	-0.000062
C202	C	0.309171	-0.216897	0.499938
C203	C	-0.150232	-0.784206	-0.000051
C204	C	0.349768	-0.284206	0.499949
H205	H	-0.153725	-0.670468	-0.000056
H206	H	0.346275	-0.170468	0.499944
H207	H	-0.223118	-0.717290	-0.053237
H208	H	0.276882	-0.217290	0.446763
H209	H	-0.223167	-0.717279	0.053110
H210	H	0.276833	-0.217279	0.553110
H211	H	-0.117899	-0.783828	-0.053227
H212	H	0.382101	-0.283828	0.446773
H213	H	-0.117930	-0.783812	0.053129
H214	H	0.382070	-0.283812	0.553129
H215	H	0.156596	-0.176732	-0.000111
H216	H	0.656596	0.323268	0.499889
C217	C	-0.037712	-0.848453	-0.304902
C218	C	0.462288	-0.348453	0.195098
C219	C	-0.047083	-0.837661	-0.399274
C220	C	0.452917	-0.337661	0.100726
H221	H	-0.067818	-0.813781	-0.272316
H222	H	0.432182	-0.313781	0.227684
H223	H	-0.055620	-0.901879	-0.289185
H224	H	0.444380	-0.401879	0.210815
H225	H	0.016659	-0.837005	-0.289204
H226	H	0.516659	-0.337005	0.210796
H227	H	-0.101453	-0.849116	-0.414973
H228	H	0.398547	-0.349116	0.085027
H229	H	-0.029178	-0.784223	-0.414998
H230	H	0.470822	-0.284223	0.085002
H231	H	0.195891	-0.695170	-0.000102
H232	H	0.695891	-0.195170	0.499898
H233	H	-0.064460	-0.713049	-0.000047
H234	H	0.435540	-0.213049	0.499953
H235	H	-0.057337	-0.562616	-0.000060
H236	H	0.442663	-0.062616	0.499940
C237	C	-0.086056	-0.792821	-0.538336
C238	C	0.413944	-0.292821	-0.038336
C239	C	-0.047114	-0.837660	-0.600756
C240	C	0.452886	-0.337660	-0.100756
H241	H	-0.116171	-0.758156	-0.570880
H242	H	0.383829	-0.258156	-0.070880
H243	H	-0.120336	-0.827387	-0.500886
H244	H	0.379664	-0.327387	-0.000886
H245	H	-0.048066	-0.762501	-0.500917
H246	H	0.451934	-0.262501	-0.000917
H247	H	-0.085104	-0.867985	-0.638170
H248	H	0.414896	-0.367985	-0.138170
H249	H	-0.012831	-0.803090	-0.638221
H250	H	0.487169	-0.303090	-0.138221
C251	C	-0.120599	-0.438770	-0.000034
C252	C	0.379401	0.061230	0.499966
C253	C	-0.131887	-0.358270	-0.000043
C254	C	0.368113	0.141730	0.499957
H255	H	-0.170624	-0.470248	-0.000010
H256	H	0.329376	0.029752	0.499990
H257	H	-0.091763	-0.450342	-0.053211
H258	H	0.408237	0.049658	0.446789
H259	H	-0.091765	-0.450317	0.053136
H260	H	0.408235	0.049683	0.553136
H261	H	-0.160715	-0.346722	-0.053217
H262	H	0.339285	0.153278	0.446783
H263	H	-0.160735	-0.346694	0.053140
H264	H	0.339265	0.153306	0.553140
