data_functionalizedCrystal
_audit_creation_method	'MofGen! by Chris Wilmer'
_symmetry_space_group_name_H-M	'P1'
_symmetry_Int_Tables_number	1
_symmetry_cell_setting	triclinic
loop_
_symmetry_equiv_pos_as_xyz
  x,y,z
_cell_length_a	14.853567
_cell_length_b	10.654541
_cell_length_c	9.730217
_cell_angle_alpha	90.001659
_cell_angle_beta	90.004011
_cell_angle_gamma	95.940571
loop_
_atom_site_label
_atom_site_type_symbol
_atom_site_fract_x
_atom_site_fract_y
_atom_site_fract_z
O1	O	0.126609	-1.666527	-0.114235
O2	O	0.138676	-1.300922	-0.114246
O3	O	0.001465	-1.493490	-0.114244
O4	O	0.263820	-1.473959	-0.114237
O5	O	0.001473	-1.493477	0.114336
O6	O	0.138684	-1.300909	0.114334
O7	O	0.126618	-1.666514	0.114345
Zn8	Zn	0.132652	-1.483709	0.150632
Zn9	Zn	0.132641	-1.483727	-0.150533
O10	O	0.263828	-1.473946	0.114343
C11	C	0.137794	-1.254127	0.000043
C12	C	0.135145	-1.114711	0.000038
C13	C	-0.032124	-1.492599	0.000042
C14	C	-0.132222	-1.489947	0.000030
C15	C	0.127499	-1.713309	0.000053
C16	C	0.130148	-1.852725	0.000049
C17	C	-0.545428	-1.364347	0.000052
C18	C	-0.565485	-1.593122	0.000059
C19	C	-0.471438	-1.595615	0.000051
C20	C	-0.414381	-1.482473	0.000045
C21	C	-0.451372	-1.366837	0.000048
C22	C	-0.434441	-1.711250	0.000062
C23	C	-0.340388	-1.713748	0.000055
C24	C	-0.283330	-1.600604	0.000040
C25	C	-0.320325	-1.484963	0.000042
C26	C	-0.263268	-1.371821	0.000036
C27	C	-0.300262	-1.256178	0.000028
C28	C	-0.394313	-1.253693	0.000033
C29	C	-0.189279	-1.603089	0.000035
C30	C	-0.169212	-1.374311	0.000032
C31	C	0.297418	-1.474837	0.000054
C32	C	0.397516	-1.477489	0.000057
N33	N	0.132659	-1.483707	0.356168
C34	C	0.299218	-1.085036	0.000026
C35	C	0.380006	-1.004702	0.000014
C36	C	0.377511	-0.873710	0.000012
C37	C	0.294219	-0.823050	0.000027
C38	C	0.213431	-0.903383	0.000039
C39	C	0.215935	-1.034377	0.000036
C40	C	0.049360	-0.933059	0.000061
C41	C	0.051853	-1.064051	0.000052
C42	C	-0.033931	-0.882399	0.000075
C43	C	-0.114721	-0.962733	0.000077
C44	C	-0.112223	-1.093732	0.000077
C45	C	-0.028935	-1.144385	0.000064
N46	N	0.132627	-1.483739	-0.356069
C47	C	0.022242	-1.331241	0.643913
C48	C	-0.032940	-1.254978	0.571964
C49	C	-0.032923	-1.254954	0.428084
C50	C	0.022280	-1.331204	0.356150
C51	C	0.077461	-1.407468	0.428099
C52	C	0.077440	-1.407481	0.571982
C53	C	0.187840	-1.559970	0.428117
C54	C	0.187829	-1.559989	0.571997
C55	C	0.243043	-1.636221	0.356183
C56	C	0.298230	-1.712479	0.428132
C57	C	0.298211	-1.712499	0.572020
C58	C	0.243011	-1.636253	0.643946
H59	H	-0.122762	-1.282175	0.000022
H60	H	-0.182531	-0.921474	0.000088
H61	H	-0.178011	-1.159134	0.000092
H62	H	0.443295	-0.808301	0.000013
Br63	Br	-0.025538	-1.322159	0.000051
Br64	Br	-0.290190	-1.870686	0.000046
Br65	Br	0.290835	-0.645273	0.000056
Br66	Br	-0.037319	-0.704623	0.000085
Br67	Br	0.022229	-1.331249	0.839180
H68	H	-0.077887	-1.192900	0.630549
H69	H	-0.159163	-1.697243	0.000051
H70	H	0.301257	-1.191695	-0.000004
Br71	Br	-0.107827	-1.151475	0.330433
H72	H	-0.253794	-1.164058	0.000033
H73	H	0.022280	-1.331189	0.238996
Br74	Br	-0.595629	-1.207411	0.000021
Br75	Br	-0.444524	-1.096764	0.000013
Br76	Br	0.243058	-1.636203	0.160916
H77	H	0.343167	-1.774562	0.369552
Br78	Br	0.373096	-1.816018	0.669653
H79	H	-0.611946	-1.685237	0.000074
Br80	Br	0.242987	-1.636266	0.839212
H81	H	-0.480903	-1.803364	0.000079
H82	H	0.447820	-1.045964	0.000006
