data_functionalizedCrystal
_audit_creation_method	'MofGen! by Chris Wilmer'
_symmetry_space_group_name_H-M	'P1'
_symmetry_Int_Tables_number	1
_symmetry_cell_setting	triclinic
loop_
_symmetry_equiv_pos_as_xyz
  x,y,z
_cell_length_a	10.654550
_cell_length_b	15.995350
_cell_length_c	9.730223
_cell_angle_alpha	90.000899
_cell_angle_beta	89.996251
_cell_angle_gamma	83.988639
loop_
_atom_site_label
_atom_site_type_symbol
_atom_site_fract_x
_atom_site_fract_y
_atom_site_fract_z
O1	O	1.666298	0.117599	-0.114395
O2	O	1.300673	0.128803	-0.114373
O3	O	1.493480	0.001371	-0.114383
O4	O	1.473491	0.245031	-0.114385
O5	O	1.493478	0.001375	0.114197
O6	O	1.300671	0.128806	0.114207
O7	O	1.666295	0.117602	0.114185
Zn8	Zn	1.483483	0.123205	0.150488
Zn9	Zn	1.483486	0.123200	-0.150676
O10	O	1.473488	0.245034	0.114195
C11	C	1.253885	0.127982	-0.000080
C12	C	1.114473	0.125521	-0.000071
C13	C	1.492652	-0.029827	-0.000096
C14	C	1.490175	-0.122791	-0.000104
C15	C	1.034008	0.200551	-0.000092
C16	C	0.903017	0.198233	-0.000116
C17	C	0.932971	0.045849	-0.000104
C18	C	1.063959	0.048168	-0.000071
C19	C	1.084522	0.277904	-0.000093
C20	C	1.004055	0.352940	-0.000115
C21	C	0.873064	0.350622	-0.000138
C22	C	0.822541	0.273268	-0.000140
C23	C	1.481278	-0.460591	-0.000098
C24	C	1.343964	-0.413954	-0.000603
C25	C	1.346442	-0.317249	-0.000087
C26	C	1.485691	-0.293004	-0.000102
C27	C	1.553417	-0.333687	0.130422
C28	C	1.549968	-0.430342	0.130531
C29	C	1.552807	-0.430688	-0.129407
C30	C	1.552775	-0.333743	-0.131132
C31	C	1.488192	-0.198292	-0.000099
C32	C	1.478780	-0.555303	-0.000092
C33	C	1.713084	0.118423	-0.000111
C34	C	1.852495	0.120884	-0.000129
C35	C	1.474316	0.276232	-0.000095
C36	C	1.476793	0.369197	-0.000097
N37	N	1.483490	0.123207	0.356024
N38	N	1.483488	0.123191	-0.356212
C39	C	1.568886	0.066800	0.427946
C40	C	1.568883	0.066789	0.571829
C41	C	1.398083	0.179602	0.571856
C42	C	1.398081	0.179607	0.427976
C43	C	1.654295	0.010400	0.355994
C44	C	1.739700	-0.046012	0.427915
C45	C	1.739697	-0.046022	0.571798
C46	C	1.654289	0.010379	0.643760
H47	H	1.045200	0.415918	-0.000102
C48	C	1.686150	-0.473120	0.138545
H49	H	1.743334	-0.431404	0.141730
H50	H	1.703475	-0.507539	0.059837
H51	H	1.695658	-0.506797	0.219041
C52	C	1.691620	-0.313810	0.136979
H53	H	1.730791	-0.339008	0.216660
H54	H	1.694027	-0.254659	0.140889
H55	H	1.735314	-0.335519	0.057430
H56	H	1.328548	0.225522	0.630457
H57	H	1.654308	0.010404	0.238837
H58	H	1.289324	-0.433864	0.092484
C59	C	1.152476	-0.034363	-0.000067
H60	H	1.103633	-0.080764	-0.000096
H61	H	1.204181	-0.036628	0.079652
H62	H	1.204211	-0.036620	-0.079780
C63	C	1.833637	-0.108053	0.348771
H64	H	1.884487	-0.141655	0.412216
H65	H	1.885909	-0.077606	0.292645
H66	H	1.788461	-0.143189	0.292641
H67	H	0.715878	0.271387	-0.000138
C68	C	1.274506	-0.279267	-0.126468
H69	H	1.243497	-0.322936	-0.178585
H70	H	1.329841	-0.250655	-0.181704
H71	H	1.205772	-0.240787	-0.097076
H72	H	1.289082	-0.432806	-0.094203
H73	H	1.809228	-0.091960	0.630355
C74	C	1.274056	-0.280020	0.126543
H75	H	1.243029	-0.324009	0.177878
H76	H	1.205331	-0.241448	0.097451
H77	H	1.329168	-0.251647	0.182446
C78	C	1.483235	-0.455455	0.262337
H79	H	1.458478	-0.406606	0.315308
H80	H	1.539337	-0.493099	0.314523
H81	H	1.410693	-0.482139	0.238490
C82	C	1.654277	0.010367	0.802028
H83	H	1.591180	0.052034	0.834580
H84	H	1.734534	0.022321	0.834581
H85	H	1.637085	-0.043261	0.834562
H86	H	1.506376	-0.305577	0.227563
C87	C	1.492168	-0.458784	-0.263057
H88	H	1.536744	-0.440106	-0.339832
H89	H	1.406624	-0.435218	-0.267061
H90	H	1.495741	-0.518369	-0.264735
C91	C	1.485981	-0.297252	-0.261581
H92	H	1.417501	-0.257352	-0.236311
H93	H	1.455135	-0.341332	-0.312832
H94	H	1.544103	-0.270539	-0.316067
H95	H	1.654321	-0.317791	-0.139024
C96	C	0.784549	0.433153	-0.000158
H97	H	0.699301	0.420697	-0.000164
H98	H	0.799883	0.464835	-0.079867
H99	H	0.799844	0.464841	0.079565
C100	C	1.689567	-0.472805	-0.130621
H101	H	1.703060	-0.508444	-0.052753
H102	H	1.746303	-0.430813	-0.127763
H103	H	1.703697	-0.505160	-0.212087
C104	C	1.304153	0.241658	0.348857
H105	H	1.253300	0.275256	0.412313
H106	H	1.251885	0.211215	0.292727
H107	H	1.349333	0.276797	0.292734
H108	H	0.891824	-0.017129	-0.000128
C109	C	1.228606	0.280457	-0.000060
H110	H	1.247168	0.337269	-0.000053
H111	H	1.263790	0.252835	-0.079758
H112	H	1.263746	0.252849	0.079673
