data_functionalizedCrystal
_audit_creation_method	'MofGen! by Chris Wilmer'
_symmetry_space_group_name_H-M	'P1'
_symmetry_Int_Tables_number	1
_symmetry_cell_setting	triclinic
loop_
_symmetry_equiv_pos_as_xyz
  x,y,z
_cell_length_a	10.489741
_cell_length_b	14.044220
_cell_length_c	12.503572
_cell_angle_alpha	93.843168
_cell_angle_beta	86.448361
_cell_angle_gamma	88.864026
loop_
_atom_site_label
_atom_site_type_symbol
_atom_site_fract_x
_atom_site_fract_y
_atom_site_fract_z
O1	O	-1.714360	-0.128402	0.089257
O2	O	-1.214360	0.371598	0.589257
O3	O	-1.344439	-0.140964	0.089274
O4	O	-0.844439	0.359036	0.589274
O5	O	-1.523846	0.003339	0.089255
O6	O	-1.023846	0.503339	0.589255
O7	O	-1.534953	-0.272705	0.089275
O8	O	-1.034953	0.227295	0.589275
O9	O	-1.510356	-0.007531	-0.089386
O10	O	-1.010356	0.492469	0.410614
O11	O	-1.330949	-0.151834	-0.089367
O12	O	-0.830949	0.348166	0.410633
O13	O	-1.700869	-0.139273	-0.089384
O14	O	-1.200869	0.360727	0.410616
Cu15	Cu	-1.514677	-0.146546	-0.105687
Cu16	Cu	-1.014677	0.353454	0.394313
Cu17	Cu	-1.530631	-0.133690	0.105576
Cu18	Cu	-1.030631	0.366310	0.605576
O19	O	-1.521462	-0.283575	-0.089365
O20	O	-1.021462	0.216425	0.410635
C21	C	-1.290066	-0.145450	-0.000045
C22	C	-0.790066	0.354550	0.499955
C23	C	-1.148150	-0.142611	-0.000038
C24	C	-0.648150	0.357389	0.499962
C25	C	-1.512240	0.033251	-0.000066
C26	C	-1.012240	0.533251	0.499934
C27	C	-1.497740	0.138576	-0.000066
C28	C	-0.997740	0.638576	0.499934
C29	C	-1.755242	-0.134786	-0.000063
C30	C	-1.255242	0.365214	0.499937
C31	C	-1.897160	-0.137625	-0.000062
C32	C	-1.397160	0.362375	0.499938
C33	C	-1.070696	-0.050796	-0.000055
C34	C	-0.570696	0.449204	0.499945
C35	C	-0.989620	-0.088809	0.088025
C36	C	-0.489620	0.411191	0.588025
C37	C	-0.976355	-0.099548	-0.088101
C38	C	-0.476355	0.400452	0.411899
C39	C	-1.068948	-0.180657	0.088114
C40	C	-0.568948	0.319343	0.588114
C41	C	-1.055686	-0.191389	-0.088090
C42	C	-0.555686	0.308611	0.411910
C43	C	-0.974646	-0.229468	0.000011
C44	C	-0.474646	0.270532	0.500011
C45	C	-1.533069	-0.313487	-0.000042
C46	C	-1.033069	0.186513	0.499958
C47	C	-1.547569	-0.418812	-0.000034
C48	C	-1.047569	0.081188	0.499966
N49	N	-1.503465	-0.155587	-0.254278
N50	N	-1.003465	0.344413	0.245722
C51	C	-1.471233	0.331419	-0.000050
C52	C	-0.971233	0.831419	0.499950
C53	C	-1.574071	0.388351	-0.000051
C54	C	-1.074071	0.888351	0.499949
C55	C	-1.559322	0.495655	-0.000042
C56	C	-1.059322	0.995655	0.499958
C57	C	-1.485980	0.224105	-0.000059
C58	C	-0.985980	0.724105	0.499941
C59	C	-1.486973	-0.168896	-0.473391
C60	C	-0.986973	0.331104	0.026609
C61	C	-1.558341	-0.111336	-0.526726
C62	C	-1.058341	0.388664	-0.026726
C63	C	-1.549164	-0.118741	-0.648648
C64	C	-1.049164	0.381259	-0.148648
C65	C	-1.496148	-0.161492	-0.351458
C66	C	-0.996148	0.338508	0.148542
N67	N	-1.541853	-0.124641	0.254168
N68	N	-1.041853	0.375359	0.754168
H69	H	-1.112738	0.024690	0.000049
H70	H	-0.612738	0.524690	0.500049
Cl71	Cl	-1.382008	-0.253563	-0.544260
Cl72	Cl	-0.882008	0.246437	-0.044260
Cl73	Cl	-0.913762	-0.046542	-0.203072
Cl74	Cl	-0.413762	0.453458	0.296928
Cl75	Cl	-1.318209	0.380588	-0.000037
Cl76	Cl	-0.818209	0.880588	0.499963
Cl77	Cl	-1.131307	-0.233587	0.203215
Cl78	Cl	-0.631307	0.266413	0.703215
Cl79	Cl	-0.944336	-0.021837	0.202989
Cl80	Cl	-0.444336	0.478163	0.702989
Cl81	Cl	-1.101022	-0.258317	-0.203058
Cl82	Cl	-0.601022	0.241683	0.296942
Cl83	Cl	-0.910169	-0.346117	0.000091
Cl84	Cl	-0.410169	0.153883	0.500091
Cl85	Cl	-1.727104	0.339184	-0.000070
Cl86	Cl	-1.227104	0.839184	0.499930
H87	H	-1.626334	-0.056497	-0.480820
H88	H	-1.126334	0.443503	0.019180
