data_functionalizedCrystal
_audit_creation_method	'MofGen! by Chris Wilmer'
_symmetry_space_group_name_H-M	'P1'
_symmetry_Int_Tables_number	1
_symmetry_cell_setting	triclinic
loop_
_symmetry_equiv_pos_as_xyz
  x,y,z
_cell_length_a	9.065218
_cell_length_b	15.944551
_cell_length_c	7.540329
_cell_angle_alpha	89.995457
_cell_angle_beta	89.996962
_cell_angle_gamma	84.257312
loop_
_atom_site_label
_atom_site_type_symbol
_atom_site_fract_x
_atom_site_fract_y
_atom_site_fract_z
O1	O	1.957520	0.123161	-0.147492
O2	O	1.527999	0.133263	-0.147494
O3	O	1.754488	0.006026	-0.147477
O4	O	1.731030	0.250398	-0.147509
O5	O	1.754475	0.006024	0.147488
O6	O	1.527985	0.133261	0.147471
O7	O	1.957506	0.123159	0.147473
Cu8	Cu	1.742744	0.128210	0.174405
Cu9	Cu	1.742760	0.128212	-0.174426
O10	O	1.731016	0.250396	0.147456
C11	C	1.473028	0.132291	-0.000012
C12	C	1.309253	0.129388	-0.000013
C13	C	1.753508	-0.025276	0.000006
C14	C	1.750588	-0.118544	0.000007
C15	C	1.603221	-0.334518	-0.000019
C16	C	1.671647	-0.395017	0.145418
C17	C	1.745306	-0.289310	-0.000007
C18	C	1.671693	-0.394999	-0.145395
C19	C	1.740194	-0.454262	-0.000028
C20	C	1.813771	-0.348582	0.145549
C21	C	1.813798	-0.348557	-0.145394
C22	C	1.882327	-0.409038	0.000078
C23	C	1.748247	-0.194286	0.000007
C24	C	1.737264	-0.549285	-0.000029
C25	C	2.012477	0.124131	-0.000013
C26	C	2.176252	0.127034	-0.000024
C27	C	1.731997	0.281698	-0.000031
C28	C	1.734917	0.374966	-0.000043
N29	N	1.742744	0.128208	0.419753
N30	N	1.742773	0.128207	-0.419774
H31	H	1.485283	-0.302103	0.000126
C32	C	2.039835	-0.451898	0.000292
C33	C	2.140132	-0.390587	0.001858
C34	C	2.285240	-0.430033	0.002097
H35	H	2.055424	-0.485720	-0.103007
H36	H	2.054651	-0.486415	0.102720
H37	H	2.125323	-0.356084	-0.100560
H38	H	2.124590	-0.356761	0.105150
H39	H	2.300056	-0.464550	0.104526
H40	H	2.300814	-0.463854	-0.101203
H41	H	2.353309	-0.388440	0.003177
C42	C	1.591783	-0.422521	-0.309403
C43	C	1.688958	-0.477299	-0.410005
C44	C	1.615380	-0.502674	-0.561078
H45	H	1.558854	-0.374459	-0.378536
H46	H	1.508888	-0.450656	-0.274499
H47	H	1.771825	-0.449164	-0.444911
H48	H	1.721892	-0.525374	-0.340925
H49	H	1.532486	-0.530809	-0.526174
H50	H	1.582455	-0.454607	-0.630196
H51	H	1.681298	-0.539850	-0.629347
H52	H	1.611544	-0.415582	0.268371
C53	C	1.893713	-0.321157	0.309619
C54	C	1.895421	-0.233452	0.307774
C55	C	1.969026	-0.208155	0.458896
H56	H	1.992613	-0.347253	0.310197
H57	H	1.843560	-0.337385	0.412814
H58	H	1.945577	-0.217232	0.204606
H59	H	1.796542	-0.207335	0.307223
H60	H	1.918873	-0.224383	0.562092
H61	H	2.067921	-0.234256	0.459461
H62	H	1.970182	-0.148645	0.457674
H63	H	1.873849	-0.327971	-0.268354
