data_functionalizedCrystal
_audit_creation_method	'MofGen! by Chris Wilmer'
_symmetry_space_group_name_H-M	'P1'
_symmetry_Int_Tables_number	1
_symmetry_cell_setting	triclinic
loop_
_symmetry_equiv_pos_as_xyz
  x,y,z
_cell_length_a	12.827893
_cell_length_b	13.897447
_cell_length_c	12.827885
_cell_angle_alpha	89.968996
_cell_angle_beta	89.980919
_cell_angle_gamma	90.019501
loop_
_atom_site_label
_atom_site_type_symbol
_atom_site_fract_x
_atom_site_fract_y
_atom_site_fract_z
Zn1	Zn	1.597640	-0.383969	-0.590835
Zn2	Zn	2.097640	0.116031	-0.090835
Zn3	Zn	1.597521	-0.545295	-0.416091
Zn4	Zn	2.097521	-0.045295	0.083909
Zn5	Zn	1.422881	-0.384016	-0.416109
Zn6	Zn	1.922881	0.115984	0.083891
Zn7	Zn	1.422854	-0.545224	-0.590792
Zn8	Zn	1.922854	-0.045224	-0.090792
O9	O	1.510224	-0.464626	-0.503456
O10	O	2.010224	0.035374	-0.003456
O11	O	1.743860	-0.405380	-0.567665
O12	O	2.243860	0.094620	-0.067665
O13	O	1.574316	-0.523951	-0.269857
O14	O	2.074316	-0.023951	0.230143
O15	O	1.446124	-0.249028	-0.439312
O16	O	1.946124	0.250972	0.060688
O17	O	1.743773	-0.523905	-0.439282
O18	O	2.243773	-0.023905	0.060718
O19	O	1.574518	-0.248994	-0.567682
O20	O	2.074518	0.251006	-0.067682
O21	O	1.446009	-0.405460	-0.269870
O22	O	1.946009	0.094540	0.230130
O23	O	1.276641	-0.405390	-0.439270
O24	O	1.776641	0.094610	0.060730
O25	O	1.446077	-0.523783	-0.737033
O26	O	1.946077	-0.023783	-0.237033
O27	O	1.276621	-0.523829	-0.567609
O28	O	1.776621	-0.023829	-0.067609
O29	O	1.574492	-0.405310	-0.737065
O30	O	2.074492	0.094690	-0.237065
O31	O	1.574290	-0.680267	-0.439240
O32	O	2.074290	-0.180267	0.060760
O33	O	1.445963	-0.680215	-0.567592
O34	O	1.945963	-0.180215	-0.067592
C35	C	1.238714	-0.464607	-0.503437
C36	C	1.738714	0.035393	-0.003437
C37	C	1.122561	-0.464623	-0.503454
C38	C	1.622561	0.035377	-0.003454
C39	C	1.070733	-0.523183	-0.439842
C40	C	1.570733	-0.023183	0.060158
C41	C	0.950683	-0.523200	-0.439857
C42	C	1.450683	-0.023200	0.060143
C43	C	1.510139	-0.715240	-0.503432
C44	C	2.010139	-0.215240	-0.003432
C45	C	1.510198	-0.822454	-0.503457
C46	C	2.010198	-0.322454	-0.003457
C47	C	1.510249	-0.909524	-0.503481
C48	C	2.010249	-0.409524	-0.003481
C49	C	1.510322	-1.018756	-0.503508
C50	C	2.010322	-0.518756	-0.003508
C51	C	1.782794	-0.464645	-0.503476
C52	C	2.282794	0.035355	-0.003476
C53	C	1.898947	-0.464654	-0.503485
C54	C	2.398947	0.035346	-0.003485
C55	C	1.510295	-0.464533	-0.776027
C56	C	2.010295	0.035467	-0.276027
C57	C	1.510325	-0.464494	-0.892180
C58	C	2.010325	0.035506	-0.392180
C59	C	1.510338	-0.213033	-0.503504
C60	C	2.010338	0.286967	-0.003504
C61	C	1.510386	-0.105819	-0.503524
C62	C	2.010386	0.394181	-0.003524
C63	C	1.573876	-0.405858	-0.943980
C64	C	2.073876	0.094142	-0.443980
C65	C	1.573908	-0.405816	-1.064031
C66	C	2.073908	0.094184	-0.564031
C67	C	1.510213	-0.464649	-0.231947
C68	C	2.010213	0.035351	0.268053
C69	C	1.510385	-0.464416	-0.115794
C70	C	2.010385	0.035584	0.384206
H71	H	0.943511	-0.414511	-0.557944
H72	H	1.443511	0.085489	-0.057944
H73	H	1.455935	-0.514656	-0.936709
H74	H	1.955935	-0.014656	-0.436709
Br75	Br	1.664493	-0.322205	-0.869774
Br76	Br	2.164493	0.177795	-0.369774
H77	H	1.628320	-0.355619	-1.108578
H78	H	2.128320	0.144381	-0.608578
H79	H	1.115238	-0.573309	-0.385373
H80	H	1.615238	-0.073309	0.114627
H81	H	1.455978	-0.514623	-1.071254
H82	H	1.955978	-0.014623	-0.571254
Br83	Br	1.048394	-0.381084	-0.594260
Br84	Br	1.548394	0.118916	-0.094260
Br85	Br	0.876404	-0.606760	-0.349071
Br86	Br	1.376404	-0.106760	0.150929
