data_functionalizedCrystal
_audit_creation_method	'MofGen! by Chris Wilmer'
_symmetry_space_group_name_H-M	'P1'
_symmetry_Int_Tables_number	1
_symmetry_cell_setting	triclinic
loop_
_symmetry_equiv_pos_as_xyz
  x,y,z
_cell_length_a	17.917603
_cell_length_b	14.560438
_cell_length_c	14.560438
_cell_angle_alpha	60.000069
_cell_angle_beta	89.999714
_cell_angle_gamma	57.011185
loop_
_atom_site_label
_atom_site_type_symbol
_atom_site_fract_x
_atom_site_fract_y
_atom_site_fract_z
Zr1	Zr	0.754908	0.920723	-0.078228
O2	O	0.629784	1.126341	-0.231881
O3	O	0.793265	0.724825	-0.031128
O4	O	0.793265	0.916429	-0.222729
O5	O	0.629784	0.934734	0.110861
O6	O	0.922222	0.901985	-0.215507
O7	O	0.629783	0.934737	-0.040280
O8	O	0.922222	0.559241	0.127232
O9	O	0.629784	1.277479	-0.231878
O10	O	0.905863	0.791021	-0.005647
O11	O	0.809624	0.801799	0.101757
O12	O	0.809624	1.027388	-0.123828
O13	O	0.713385	1.038165	-0.016423
Zr14	Zr	0.960580	0.897682	0.174343
Zr15	Zr	0.960580	0.897686	-0.066710
Zr16	Zr	0.754908	0.920719	0.162824
Zr17	Zr	0.754908	1.161770	-0.078224
Zr18	Zr	0.960579	0.656635	0.174338
O19	O	0.922223	1.093580	0.127242
O20	O	0.922222	1.093586	-0.215503
O21	O	0.629784	1.126335	0.110864
O22	O	1.085704	0.692064	0.327995
O23	O	1.085704	0.692070	-0.014750
O24	O	0.793265	0.724819	0.311617
O25	O	1.085704	0.883671	-0.014746
O26	O	0.922223	0.901976	0.318843
O27	O	0.793266	0.916420	0.311621
O28	O	1.085704	0.883668	0.136395
O29	O	0.793265	1.259168	-0.222722
O30	O	0.922222	0.559237	0.318837
O31	O	1.085704	0.540926	0.327992
O32	O	1.085704	0.540930	0.136388
O33	O	0.629784	1.277475	-0.040274
O34	O	0.793266	1.259164	-0.031118
O35	O	0.905863	0.791017	0.219942
O36	O	1.002103	0.780240	0.112537
O37	O	0.905864	1.016606	-0.005643
O38	O	0.809624	1.027384	0.101762
C39	C	0.857743	0.607689	0.048051
C40	C	0.857743	0.505358	0.048049
C41	C	0.907977	0.451656	-0.008015
C42	C	0.907981	0.355497	-0.008004
C43	C	0.807509	0.366753	0.104136
C44	C	0.807511	0.462904	0.104132
C45	C	0.600480	0.938018	0.033649
C46	C	0.513167	0.947797	0.028759
C47	C	0.353322	0.965661	0.019829
C48	C	0.362158	0.852750	0.076283
C49	C	0.273215	0.862689	0.071314
C50	C	0.442272	0.955724	0.024796
C51	C	1.115008	0.880387	0.062465
C52	C	1.202321	0.870608	0.067355
C53	C	0.857743	0.909208	-0.253463
C54	C	0.857743	0.909210	-0.355796
C55	C	0.857744	1.210716	0.048063
C56	C	0.857744	1.313047	0.048065
C57	C	0.928787	0.901254	-0.399893
C58	C	0.928789	0.901242	-0.496038
C59	C	0.786697	0.917148	-0.503985
C60	C	0.786699	0.917150	-0.407836
C61	C	0.857744	0.909197	0.349577
C62	C	0.857744	0.909195	0.451910
C63	C	1.115007	0.578874	0.062460
C64	C	1.202320	0.466763	0.067348
C65	C	0.857744	0.607683	0.349571
C66	C	0.857744	0.505351	0.451902
C67	C	1.115008	0.578868	0.363979
C68	C	1.202321	0.466756	0.471200
C69	C	0.600480	1.239537	-0.267865
C70	C	0.513167	1.351649	-0.375086
C71	C	0.600480	1.239531	0.033655
C72	C	0.513167	1.351642	0.028767
C73	C	0.857744	1.210722	-0.253457
C74	C	0.857744	1.313055	-0.355788
C75	C	1.193087	0.419743	0.007942
C76	C	1.275119	0.314417	0.012512
C77	C	1.366383	0.256107	0.076495
C78	C	1.375614	0.303138	0.135902
C79	C	1.293583	0.408468	0.131325
C80	C	1.293568	0.408480	0.465489
C81	C	1.375616	0.303151	0.566225
C82	C	1.366414	0.256093	0.672673
C83	C	1.275157	0.314380	0.678382
C84	C	1.193111	0.419713	0.577646
C85	C	0.421919	1.409937	-0.369374
C86	C	0.339871	1.515295	-0.470111
C87	C	0.349073	1.562358	-0.576558
C88	C	0.440331	1.504066	-0.582267
C89	C	0.522376	1.398715	-0.481532
C90	C	0.522400	1.398673	0.088162
C91	C	0.440368	1.504025	0.083566
C92	C	0.349104	1.562338	0.019580
C93	C	0.339873	1.515303	-0.039823
C94	C	0.421904	1.409959	-0.035233
C95	C	0.907979	0.451645	0.561669
C96	C	0.907968	0.355502	0.657815
C97	C	0.807485	0.366777	0.534415
C98	C	0.807491	0.462924	0.438270
H99	H	0.948880	0.486218	-0.053679
C100	C	0.462610	0.712078	0.146608
H101	H	0.510073	0.723767	0.140755
H102	H	0.469875	0.662833	0.224494
H103	H	0.469860	0.662859	0.117938
H104	H	1.301114	0.446738	0.179708
H105	H	0.414408	1.371625	-0.282709
C106	C	0.752225	0.522011	0.317520
H107	H	0.722305	0.482962	0.323170
H108	H	0.704692	0.618111	0.274911
H109	H	0.795591	0.501390	0.279991
C110	C	1.303709	0.460228	0.348410
H111	H	1.369809	0.410434	0.359453
H112	H	1.273801	0.447817	0.306774
H113	H	1.273791	0.554362	0.306784
C114	C	1.006939	0.892501	-0.342642
H115	H	1.049255	0.887748	-0.382672
H116	H	0.977760	0.971101	-0.344433
H117	H	1.042034	0.813228	-0.265500
C118	C	0.708546	0.925907	-0.359328
H119	H	0.666226	0.930656	-0.404100
H120	H	0.737732	0.847308	-0.282518
H121	H	0.673453	1.005181	-0.361459
C122	C	0.252875	1.106323	-0.050512
H123	H	0.205416	1.094625	-0.044673
H124	H	0.245605	1.155571	-0.021873
H125	H	0.245622	1.155543	-0.128402
C126	C	0.258879	1.678209	0.014543
H127	H	0.277457	1.697851	0.059093
H128	H	0.221761	1.757394	-0.062544
H129	H	0.221765	1.650848	0.044001
C130	C	1.092708	0.483872	-0.062451
H131	H	1.098971	0.440782	-0.097181
H132	H	1.058610	0.471931	-0.013548
H133	H	1.058621	0.578472	-0.120076
C134	C	0.411736	1.358221	-0.100557
H135	H	0.345633	1.408034	-0.139307
H136	H	0.441646	1.370615	-0.154604
H137	H	0.441641	1.264093	-0.048050
H138	H	0.948887	0.311773	-0.053655
H139	H	0.596704	1.351202	0.140274
H140	H	0.948873	0.311781	0.747189
C141	C	1.456611	0.140237	0.081534
H142	H	1.512292	0.112241	0.128142
H143	H	1.456603	0.065230	0.113049
H144	H	1.456608	0.171770	0.006510
H145	H	0.766611	0.332176	0.149795
H146	H	0.948894	0.486190	0.572774
H147	H	0.265574	1.562740	-0.465441
C148	C	0.752233	0.522009	0.165779
H149	H	0.759432	0.585350	0.157746
H150	H	0.686143	0.566923	0.132992
H151	H	0.777036	0.450216	0.244639
C152	C	0.752224	0.320089	0.519429
H153	H	0.759423	0.255123	0.592410
H154	H	0.686133	0.396516	0.475776
H155	H	0.777043	0.279796	0.480868
C156	C	0.258818	1.678224	-0.687358
H157	H	0.203159	1.706178	-0.668701
H158	H	0.258795	1.753259	-0.730870
H159	H	0.258809	1.646696	-0.730848
C160	C	1.006935	0.892490	-0.544546
H161	H	0.996769	0.893610	-0.609254
H162	H	1.003989	0.968154	-0.566625
H163	H	1.068267	0.810281	-0.487680
C164	C	0.708548	0.925901	-0.561241
H165	H	0.718714	0.924775	-0.624827
H166	H	0.711491	0.850240	-0.507654
H167	H	0.647217	1.008113	-0.586586
H168	H	1.267584	0.276139	-0.035866
C169	C	1.476007	0.238977	0.206288
H170	H	1.523531	0.169502	0.200510
H171	H	1.483223	0.307175	0.177635
H172	H	1.483207	0.200637	0.284160
C173	C	1.475986	0.239042	0.559925
H174	H	1.469708	0.282143	0.482100
H175	H	1.510087	0.250986	0.596878
H176	H	1.510078	0.144442	0.596895
C177	C	1.456670	0.140218	0.783472
H178	H	1.512328	0.112248	0.764815
H179	H	1.456689	0.171715	0.826981
H180	H	1.456682	0.065185	0.826965
C181	C	1.265042	0.262610	0.795474
H182	H	1.198948	0.312404	0.784460
H183	H	1.294968	0.168480	0.837100
H184	H	1.294960	0.275031	0.837096
H185	H	0.447903	1.542302	0.131944
C186	C	0.450445	1.555827	-0.699360
H187	H	0.516539	1.506034	-0.688346
H188	H	0.420517	1.543422	-0.740979
H189	H	0.420530	1.649960	-0.740988
H190	H	1.118816	0.467149	0.582312
C191	C	0.622744	1.334594	-0.487829
H192	H	0.616464	1.377709	-0.565655
H193	H	0.656856	1.346514	-0.450861
H194	H	0.656825	1.239999	-0.450875
H195	H	0.265555	1.562798	-0.091920
