data_functionalizedCrystal
_audit_creation_method	'MofGen! by Chris Wilmer'
_symmetry_space_group_name_H-M	'P1'
_symmetry_Int_Tables_number	1
_symmetry_cell_setting	triclinic
loop_
_symmetry_equiv_pos_as_xyz
  x,y,z
_cell_length_a	12.645331
_cell_length_b	29.839131
_cell_length_c	12.645323
_cell_angle_alpha	89.971457
_cell_angle_beta	89.977324
_cell_angle_gamma	90.040681
loop_
_atom_site_label
_atom_site_type_symbol
_atom_site_fract_x
_atom_site_fract_y
_atom_site_fract_z
Zn1	Zn	1.620554	-0.178862	-0.599419
Zn2	Zn	1.620362	-0.253994	-0.422148
Zn3	Zn	1.443269	-0.178877	-0.422164
Zn4	Zn	1.443176	-0.253964	-0.599363
O5	O	1.531840	-0.216424	-0.510773
O6	O	1.768876	-0.188834	-0.575921
O7	O	1.596828	-0.244048	-0.273803
O8	O	1.466906	-0.116008	-0.445707
O9	O	1.768735	-0.244033	-0.445680
O10	O	1.597156	-0.115997	-0.575936
O11	O	1.466719	-0.188860	-0.273814
O12	O	1.294909	-0.188832	-0.445653
O13	O	1.466748	-0.243983	-0.747718
O14	O	1.294841	-0.243998	-0.575840
O15	O	1.597067	-0.188806	-0.747759
O16	O	1.596738	-0.316857	-0.445626
O17	O	1.466561	-0.316835	-0.575825
C18	C	1.256411	-0.216414	-0.510743
C19	C	1.138581	-0.216420	-0.510755
C20	C	1.531648	-0.333147	-0.510741
C21	C	1.531662	-0.383081	-0.510762
C22	C	0.971024	-0.181555	-0.429305
C23	C	1.093584	-0.181645	-0.428947
C24	C	1.094014	-0.263746	-0.480233
C25	C	0.971415	-0.263555	-0.479677
C26	C	0.971443	-0.204409	-0.623041
C27	C	1.094050	-0.203352	-0.622417
C28	C	1.464101	-0.739673	-0.578564
C29	C	1.463961	-0.552000	-0.578531
O30	O	1.406286	-0.527739	-0.636158
N31	N	1.531774	-0.528526	-0.510794
C32	C	1.599632	-0.551974	-0.443066
O33	O	1.657317	-0.527702	-0.385459
C34	C	1.599777	-0.739646	-0.443105
C35	C	1.531952	-0.763117	-0.510839
C36	C	1.396281	-0.763144	-0.646292
C37	C	1.396313	-0.810059	-0.646296
C38	C	1.464164	-0.833504	-0.578571
C39	C	1.531983	-0.810033	-0.510842
C40	C	1.667640	-0.763093	-0.375383
C41	C	1.667672	-0.810014	-0.375401
C42	C	1.599846	-0.833485	-0.443134
C43	C	1.599866	-0.880393	-0.443121
N44	N	1.532052	-0.903866	-0.510857
C45	C	1.464201	-0.880422	-0.578582
C46	C	1.599550	-0.453444	-0.443049
C47	C	1.599513	-0.406526	-0.443037
C48	C	1.463842	-0.406555	-0.578504
C49	C	1.463875	-0.453473	-0.578509
C50	C	1.531737	-0.476917	-0.510785
C51	C	1.464272	-0.978947	-0.578584
C52	C	1.464307	-1.025867	-0.578578
C53	C	1.599981	-1.025834	-0.443116
C54	C	1.599943	-0.978919	-0.443118
C55	C	1.532085	-0.955476	-0.510860
O56	O	1.657518	-0.904682	-0.385532
O57	O	1.406542	-0.904702	-0.636197
C58	C	1.464069	-0.692757	-0.578560
C59	C	1.531888	-0.669286	-0.510832
C60	C	1.599739	-0.692731	-0.443107
C61	C	1.531851	-0.622369	-0.510820
C62	C	1.464000	-0.598924	-0.578545
C63	C	1.396187	-0.622398	-0.646282
C64	C	1.396218	-0.669313	-0.646285
C65	C	1.667553	-0.669258	-0.375370
C66	C	1.667515	-0.622342	-0.375371
C67	C	1.599664	-0.598898	-0.443096
C68	C	1.808346	-0.216435	-0.510805
C69	C	1.926176	-0.216440	-0.510818
C70	C	1.531918	-0.216390	-0.787279
C71	C	1.531952	-0.216375	-0.905109
C72	C	1.532063	-0.099246	-0.510829
C73	C	1.532158	-0.049312	-0.510853
C74	C	1.449716	-0.250923	-1.072647
C75	C	1.449931	-0.251094	-0.950087
C76	C	1.643639	-0.229224	-0.949627
C77	C	1.643188	-0.229441	-1.072225
C78	C	1.503558	-0.168784	-1.072314
C79	C	1.501065	-0.169069	-0.949708
C80	C	1.531824	-0.216427	-0.235344
C81	C	1.531996	-0.216315	-0.117514
H82	H	1.123719	-0.146552	-0.448078
F83	F	1.132093	-0.298627	-0.555403
F84	F	1.573687	-0.133583	-0.909701
H85	H	1.655162	-0.959808	-0.387952
H86	H	0.942439	-0.229818	-0.683775
H87	H	1.654731	-0.387419	-0.387871
H88	H	0.941595	-0.146356	-0.448232
F89	F	1.674700	-0.274856	-1.109618
H90	H	1.706569	-0.205328	-1.101907
F91	F	1.341136	-0.240513	-1.111163
H92	H	0.940580	-0.170502	-0.650797
F93	F	0.932629	-0.298680	-0.553887
F94	F	1.393629	-0.156404	-0.911687
H95	H	1.123188	-0.168526	-0.645432
H96	H	1.409017	-0.959866	-0.633747
H97	H	1.468302	-0.285940	-1.103461
F98	F	1.324060	-0.738200	-0.718383
H99	H	1.722807	-0.688341	-0.320220
H100	H	0.940168	-0.189419	-0.346633
F101	F	1.134085	-0.234142	-0.706048
F102	F	0.933957	-0.276889	-0.372444
F103	F	1.398962	-0.153475	-1.112706
F104	F	1.324135	-0.835033	-0.718400
H105	H	1.408651	-0.472580	-0.633669
F106	F	1.391627	-0.381596	-0.650580
H107	H	1.122854	-0.189597	-0.345785
F108	F	1.134065	-0.277311	-0.374150
H109	H	1.563487	-0.142999	-1.101332
F110	F	1.725918	-0.197319	-0.911553
F111	F	1.392114	-1.050844	-0.650672
F112	F	1.671782	-0.478388	-0.370962
F113	F	1.739840	-0.738124	-0.303300
F114	F	1.739904	-0.834962	-0.303320
F115	F	1.672192	-1.050794	-0.371045
F116	F	1.474514	-0.297147	-0.911760
F117	F	1.324031	-0.694287	-0.718380
F118	F	1.675697	-0.274164	-0.909510
H119	H	1.722744	-0.603235	-0.320205
F120	F	1.323972	-0.597438	-0.718357
F121	F	1.341679	-0.240582	-0.910740
