data_functionalizedCrystal
_audit_creation_method	'MofGen! by Chris Wilmer'
_symmetry_space_group_name_H-M	'P1'
_symmetry_Int_Tables_number	1
_symmetry_cell_setting	triclinic
loop_
_symmetry_equiv_pos_as_xyz
  x,y,z
_cell_length_a	18.101398
_cell_length_b	16.625546
_cell_length_c	16.625539
_cell_angle_alpha	89.971468
_cell_angle_beta	89.977600
_cell_angle_gamma	90.017734
loop_
_atom_site_label
_atom_site_type_symbol
_atom_site_fract_x
_atom_site_fract_y
_atom_site_fract_z
Zn1	Zn	1.132151	-0.321117	-0.456013
Zn2	Zn	1.132070	-0.455956	-0.321175
Zn3	Zn	1.008314	-0.321129	-0.321180
Zn4	Zn	1.008280	-0.455900	-0.455952
O5	O	1.070204	-0.388525	-0.388580
O6	O	1.235773	-0.339021	-0.438149
O7	O	1.115634	-0.438099	-0.208343
O8	O	1.024790	-0.208295	-0.339094
O9	O	1.235714	-0.438087	-0.339084
O10	O	1.115773	-0.208286	-0.438154
O11	O	1.024711	-0.339043	-0.208347
O12	O	0.904677	-0.338989	-0.339035
O13	O	1.024731	-0.437992	-0.568793
O14	O	0.904651	-0.438004	-0.438051
O15	O	1.115739	-0.338968	-0.568837
O16	O	1.115600	-0.568781	-0.339026
O17	O	1.024652	-0.568740	-0.438046
C18	C	1.070134	-0.598016	-0.388546
C19	C	1.070172	-0.687637	-0.388559
C20	C	0.877793	-0.388493	-0.388538
C21	C	0.795479	-0.388498	-0.388539
C22	C	1.070301	-1.015813	-0.388643
C23	C	1.070262	-0.924505	-0.388622
C24	C	1.070236	-0.851728	-0.388600
C25	C	1.070198	-0.760414	-0.388580
C26	C	0.496388	-0.388548	-0.388607
C27	C	0.527705	-0.325939	-0.326612
C28	C	0.613323	-0.326107	-0.326348
C29	C	0.644771	-0.388523	-0.388573
C30	C	0.613665	-0.473459	-0.365354
C31	C	0.528020	-0.473111	-0.364923
C32	C	0.527997	-0.366960	-0.473966
C33	C	0.613648	-0.365068	-0.473500
C34	C	0.728630	-0.388514	-0.388556
C35	C	0.412529	-0.388563	-0.388622
C36	C	1.263366	-0.388559	-0.388623
C37	C	1.345680	-0.388573	-0.388641
C38	C	1.070240	-0.388472	-0.598889
C39	C	1.070256	-0.388450	-0.688510
C40	C	1.070294	-0.178217	-0.388632
C41	C	1.070333	-0.088595	-0.388654
C42	C	1.070268	-0.388432	-0.761293
C43	C	1.070285	-0.388402	-0.852601
C44	C	1.070302	-0.388373	-0.925378
C45	C	1.070321	-0.388344	-1.016692
C46	C	1.070210	-0.388520	-0.179089
C47	C	1.070338	-0.388316	-0.089469
H48	H	0.507125	-0.262763	-0.341007
H49	H	0.635057	-0.407346	-0.522166
O50	O	0.640581	-0.282276	-0.496701
H51	H	0.701869	-0.282119	-0.498795
O52	O	0.500575	-0.536999	-0.422118
H53	H	0.439257	-0.537226	-0.422242
O54	O	0.641191	-0.242675	-0.345600
H55	H	0.593496	-0.201842	-0.355182
O56	O	0.640432	-0.344974	-0.242560
H57	H	0.592370	-0.354027	-0.202075
O58	O	0.501508	-0.497350	-0.282264
H59	H	0.549859	-0.509207	-0.242974
O60	O	0.499160	-0.344621	-0.243318
H61	H	0.521594	-0.300072	-0.200030
H62	H	0.507746	-0.412562	-0.520158
O63	O	0.640644	-0.536915	-0.423285
H64	H	0.676598	-0.508521	-0.469348
H65	H	0.506416	-0.306102	-0.495077
O66	O	0.642024	-0.498137	-0.283584
H67	H	0.678263	-0.450050	-0.259351
