data_functionalizedCrystal
_audit_creation_method	'MofGen! by Chris Wilmer'
_symmetry_space_group_name_H-M	'P1'
_symmetry_Int_Tables_number	1
_symmetry_cell_setting	triclinic
loop_
_symmetry_equiv_pos_as_xyz
  x,y,z
_cell_length_a	16.959454
_cell_length_b	19.805407
_cell_length_c	19.805399
_cell_angle_alpha	89.984884
_cell_angle_beta	89.976206
_cell_angle_gamma	90.017392
loop_
_atom_site_label
_atom_site_type_symbol
_atom_site_fract_x
_atom_site_fract_y
_atom_site_fract_z
Zn1	Zn	-0.314745	1.034748	-0.382712
Zn2	Zn	0.185255	1.534748	0.117288
Zn3	Zn	-0.446931	1.034680	-0.269534
Zn4	Zn	0.053069	1.534680	0.230466
Zn5	Zn	-0.314764	0.921567	-0.269540
Zn6	Zn	0.185236	1.421567	0.230460
Zn7	Zn	-0.446880	0.921538	-0.382684
Zn8	Zn	0.053120	1.421538	0.117316
O9	O	-0.380830	0.978133	-0.326118
O10	O	0.119170	1.478133	0.173882
O11	O	-0.332294	1.129455	-0.367708
O12	O	0.167706	1.629455	0.132292
O13	O	-0.429428	1.019660	-0.174818
O14	O	0.070572	1.519660	0.325182
O15	O	-0.204151	0.936621	-0.284567
O16	O	0.295849	1.436621	0.215433
O17	O	-0.429410	1.129406	-0.284556
O18	O	0.070590	1.629406	0.215444
O19	O	-0.204137	1.019774	-0.367714
O20	O	0.295863	1.519774	0.132286
O21	O	-0.332326	0.936556	-0.174823
O22	O	0.167674	1.436556	0.325177
O23	O	-0.332276	0.826847	-0.284540
O24	O	0.167724	1.326847	0.215460
O25	O	-0.429322	0.936572	-0.477405
O26	O	0.070678	1.436572	0.022595
O27	O	-0.429341	0.826826	-0.367666
O28	O	0.070659	1.326826	0.132334
O29	O	-0.332244	1.019746	-0.477425
O30	O	0.167756	1.519746	0.022575
O31	O	-0.557535	1.019631	-0.284530
O32	O	-0.057535	1.519631	0.215470
O33	O	-0.557497	0.936506	-0.367661
O34	O	-0.057497	1.436506	0.132339
C35	C	-0.380805	0.802277	-0.326101
C36	C	0.119195	1.302277	0.173899
C37	C	-0.380814	0.727045	-0.326110
C38	C	0.119186	1.227045	0.173890
C39	C	-0.330335	0.691728	-0.369473
C40	C	0.169665	1.191728	0.130527
C41	C	-0.330339	0.621039	-0.369476
C42	C	0.169661	1.121039	0.130524
C43	C	-0.380827	0.585670	-0.326118
C44	C	0.119173	1.085670	0.173882
C45	C	-0.431308	0.620992	-0.282751
C46	C	0.068692	1.120992	0.217249
C47	C	-0.431299	0.691680	-0.282745
C48	C	0.068701	1.191680	0.217255
C49	C	-0.431343	0.335919	-0.282772
C50	C	0.068657	0.835919	0.217228
C51	C	-0.431350	0.265227	-0.282782
C52	C	0.068650	0.765227	0.217218
C53	C	-0.330383	0.265279	-0.369502
C54	C	0.169617	0.765279	0.130498
C55	C	-0.330375	0.335966	-0.369496
C56	C	0.169625	0.835966	0.130504
C57	C	-0.380852	0.371282	-0.326127
C58	C	0.119148	0.871282	0.173873
C59	C	-0.380846	0.447931	-0.326123
C60	C	0.119154	0.947931	0.173877
C61	C	-0.380837	0.509023	-0.326125
C62	C	0.119163	1.009023	0.173875
C63	C	-0.586196	0.978077	-0.326106
C64	C	-0.086196	1.478077	0.173894
C65	C	-0.674053	0.978114	-0.326124
C66	C	-0.174053	1.478114	0.173876
C67	C	-1.045539	0.934913	-0.369399
C68	C	-0.545539	1.434913	0.130601
C69	C	-1.045518	1.021542	-0.282905
C70	C	-0.545518	1.521542	0.217095
C71	C	-0.962972	1.021519	-0.282899
C72	C	-0.462972	1.521519	0.217101
C73	C	-0.921706	0.978191	-0.326143
C74	C	-0.421706	1.478191	0.173857
C75	C	-0.962985	0.934887	-0.369393
C76	C	-0.462985	1.434887	0.130607
C77	C	-0.921687	1.064817	-0.239644
C78	C	-0.421687	1.564817	0.260356
C79	C	-0.839136	1.064795	-0.239636
C80	C	-0.339136	1.564795	0.260364
C81	C	-0.797868	1.021470	-0.282884
C82	C	-0.297868	1.521470	0.217116
C83	C	-0.839152	0.978164	-0.326136
C84	C	-0.339152	1.478164	0.173864
C85	C	-0.797886	0.934837	-0.369380
C86	C	-0.297886	1.434837	0.130620
C87	C	-0.839169	0.891534	-0.412637
C88	C	-0.339169	1.391534	0.087363
C89	C	-0.921717	0.891562	-0.412641
C90	C	-0.421717	1.391562	0.087359
C91	C	-0.715319	1.021442	-0.282880
C92	C	-0.215319	1.521442	0.217120
C93	C	-0.715332	0.934810	-0.369374
C94	C	-0.215332	1.434810	0.130626
C95	C	-0.174662	0.978209	-0.326144
C96	C	0.325338	1.478209	0.173856
C97	C	-0.086805	0.978241	-0.326155
C98	C	0.413195	1.478241	0.173845
C99	C	-0.380775	0.978163	-0.502660
C100	C	0.119225	1.478163	-0.002660
C101	C	-0.380752	0.978176	-0.577892
C102	C	0.119248	1.478176	-0.077892
C103	C	-0.380856	1.154676	-0.326135
C104	C	0.119144	1.654676	0.173865
C105	C	-0.380866	1.229908	-0.326142
C106	C	0.119134	1.729908	0.173858
C107	C	-0.330186	0.934916	-0.613238
C108	C	0.169814	1.434916	-0.113238
C109	C	-0.330171	0.934925	-0.683927
C110	C	0.169829	1.434925	-0.183927
C111	C	-0.380718	0.978198	-0.719268
C112	C	0.119282	1.478198	-0.219268
C113	C	-0.431289	1.021460	-0.683917
C114	C	0.068711	1.521460	-0.183917
C115	C	-0.431308	1.021447	-0.613230
C116	C	0.068692	1.521447	-0.113230
C117	C	-0.431215	1.021513	-0.968991
C118	C	0.068785	1.521513	-0.468991
C119	C	-0.431191	1.021525	-1.039683
C120	C	0.068809	1.521525	-0.539683
C121	C	-0.330078	0.934992	-1.039688
C122	C	0.169922	1.434992	-0.539688
C123	C	-0.330097	0.934979	-0.969000
C124	C	0.169903	1.434979	-0.469000
C125	C	-0.380671	0.978238	-0.933656
C126	C	0.119329	1.478238	-0.433656
C127	C	-0.380688	0.978226	-0.857007
C128	C	0.119312	1.478226	-0.357007
C129	C	-0.380697	0.978214	-0.795915
C130	C	0.119303	1.478214	-0.295915
C131	C	-0.380828	0.978143	-0.150262
C132	C	0.119172	1.478143	0.349738
C133	C	-0.380628	0.978261	-0.075030
C134	C	0.119372	1.478261	0.424970
H135	H	-0.289279	0.236515	-0.404813
H136	H	0.210721	0.736515	0.095187
C137	C	-0.967129	0.843927	-0.460210
C138	C	-0.467129	1.343927	0.039790
H139	H	-1.022202	0.850143	-0.454012
H140	H	-0.522202	1.350143	0.045988
H141	H	-0.953573	0.853794	-0.505697
H142	H	-0.453573	1.353794	-0.005697
H143	H	-0.953639	0.798451	-0.450254
H144	H	-0.453639	1.298451	0.049746
C145	C	-1.090905	1.069197	-0.235337
C146	C	-0.590905	1.569197	0.264663
H147	H	-1.054496	1.094980	-0.209575
H148	H	-0.554496	1.594980	0.290425
H149	H	-1.123074	1.098680	-0.261256
H150	H	-0.623074	1.598680	0.238744
H151	H	-1.123140	1.043328	-0.205821
H152	H	-0.623140	1.543328	0.294179
C153	C	-1.090945	0.887282	-0.416976
C154	C	-0.590945	1.387282	0.083024
H155	H	-1.146019	0.893498	-0.410786
H156	H	-0.646019	1.393498	0.089214
H157	H	-1.077378	0.897152	-0.462460
H158	H	-0.577378	1.397152	0.037540
H159	H	-1.077458	0.841805	-0.407021
H160	H	-0.577458	1.341805	0.092979
H161	H	-0.288900	0.899767	-1.068474
H162	H	0.211100	1.399767	-0.568474
H163	H	-0.472404	0.720434	-0.247434
H164	H	0.027596	1.220434	0.252566
C165	C	-0.967076	1.112471	-0.192077
C166	C	-0.467076	1.612471	0.307923
H167	H	-0.930668	1.138251	-0.166310
H168	H	-0.430668	1.638251	0.333690
H169	H	-0.999239	1.141957	-0.217996
H170	H	-0.499239	1.641957	0.282004
H171	H	-0.999316	1.086601	-0.162565
H172	H	-0.499316	1.586601	0.337435
H173	H	-0.681711	1.056695	-0.247658
H174	H	-0.181711	1.556695	0.252342
H175	H	-0.472356	1.056764	-1.068456
H176	H	0.027644	1.556764	-0.568456
C177	C	-0.486832	1.069106	-0.930120
C178	C	0.013168	1.569106	-0.430120
H179	H	-0.516923	1.094886	-0.961294
H180	H	-0.016923	1.594886	-0.461294
H181	H	-0.521281	1.043205	-0.902535
H182	H	-0.021281	1.543205	-0.402535
H183	H	-0.456598	1.098605	-0.902556
H184	H	0.043402	1.598605	-0.402556
H185	H	-0.289236	0.592287	-0.404787
H186	H	0.210764	1.092287	0.095213
C187	C	-0.274574	0.887320	-0.722808
C188	C	0.225426	1.387320	-0.222808
H189	H	-0.281816	0.893511	-0.769968
H190	H	0.218184	1.393511	-0.269968
H191	H	-0.221462	0.897223	-0.711246
H192	H	0.278538	1.397223	-0.211246
H193	H	-0.286167	0.841842	-0.711203
H194	H	0.213833	1.341842	-0.211203
C195	C	-0.274498	0.887377	-0.930129
C196	C	0.225502	1.387377	-0.430129
H197	H	-0.244385	0.861608	-0.961304
H198	H	0.255615	1.361608	-0.461304
H199	H	-0.240069	0.913272	-0.902559
H200	H	0.259931	1.413272	-0.402559
H201	H	-0.304747	0.857868	-0.902549
H202	H	0.195253	1.357868	-0.402549
C203	C	-0.669945	0.887150	-0.416945
C204	C	-0.169945	1.387150	0.083055
H205	H	-0.706356	0.861364	-0.442702
H206	H	-0.206356	1.361364	0.057298
H207	H	-0.637702	0.913011	-0.446454
H208	H	-0.137702	1.413011	0.053546
H209	H	-0.637785	0.857659	-0.391020
H210	H	-0.137785	1.357659	0.108980
H211	H	-0.805528	1.100054	-0.204415
H212	H	-0.305528	1.600054	0.295585
H213	H	-0.289265	0.364760	-0.404805
H214	H	0.210735	0.864760	0.095195
C215	C	-0.486883	0.226322	-0.235082
C216	C	0.013117	0.726322	0.264918
H217	H	-0.516940	0.257478	-0.209247
H218	H	-0.016940	0.757478	0.290753
H219	H	-0.521368	0.198750	-0.260923
H220	H	-0.021368	0.698750	0.239077
H221	H	-0.456595	0.198742	-0.205640
H222	H	0.043405	0.698742	0.294360
H223	H	-0.805560	0.856253	-0.447844
H224	H	-0.305560	1.356253	0.052156
C225	C	-0.486869	0.374759	-0.235069
C226	C	0.013131	0.874759	0.264931
H227	H	-0.516943	0.343568	-0.209254
H228	H	-0.016943	0.843568	0.290746
H229	H	-0.456585	0.402327	-0.205619
H230	H	0.043415	0.902327	0.294381
H231	H	-0.521350	0.402337	-0.260909
H232	H	-0.021350	0.902337	0.239091
C233	C	-0.486889	1.069060	-0.722791
C234	C	0.013111	1.569060	-0.222791
H235	H	-0.479630	1.062878	-0.769952
H236	H	0.020370	1.562878	-0.269952
H237	H	-0.540000	1.059135	-0.711199
H238	H	-0.040000	1.559135	-0.211199
H239	H	-0.475324	1.114541	-0.711209
H240	H	0.024676	1.614541	-0.211209
C241	C	-0.486844	0.582088	-0.235060
C242	C	0.013156	1.082088	0.264940
H243	H	-0.479627	0.534931	-0.241278
H244	H	0.020373	1.034931	0.258722
H245	H	-0.475209	0.593657	-0.189598
H246	H	0.024791	1.093657	0.310402
H247	H	-0.539969	0.593669	-0.244893
H248	H	-0.039969	1.093669	0.255107
C249	C	-0.274590	0.887310	-0.574369
C250	C	0.225410	1.387310	-0.074369
H251	H	-0.244480	0.861541	-0.605547
H252	H	0.255520	1.361541	-0.105547
H253	H	-0.240158	0.913202	-0.546798
H254	H	0.259842	1.413202	-0.046798
H255	H	-0.304841	0.857801	-0.546791
H256	H	0.195159	1.357801	-0.046791
C257	C	-0.486929	1.069031	-0.574346
C258	C	0.013071	1.569031	-0.074346
H259	H	-0.479707	1.062821	-0.527186
H260	H	0.020293	1.562821	-0.027186
H261	H	-0.475369	1.114515	-0.585934
H262	H	0.024631	1.614515	-0.085934
H263	H	-0.540035	1.059100	-0.585923
H264	H	-0.040035	1.559100	-0.085923
C265	C	-0.274797	0.730628	-0.417167
C266	C	0.225203	1.230628	0.082833
H267	H	-0.244730	0.699467	-0.442988
H268	H	0.255270	1.199467	0.057012
H269	H	-0.305073	0.758209	-0.446612
H270	H	0.194927	1.258209	0.053388
H271	H	-0.240312	0.758199	-0.391319
H272	H	0.259688	1.258199	0.108681
