data_functionalizedCrystal
_audit_creation_method	'MofGen! by Chris Wilmer'
_symmetry_space_group_name_H-M	'P1'
_symmetry_Int_Tables_number	1
_symmetry_cell_setting	triclinic
loop_
_symmetry_equiv_pos_as_xyz
  x,y,z
_cell_length_a	16.120530
_cell_length_b	16.120444
_cell_length_c	18.215399
_cell_angle_alpha	87.129468
_cell_angle_beta	92.916648
_cell_angle_gamma	90.168401
loop_
_atom_site_label
_atom_site_type_symbol
_atom_site_fract_x
_atom_site_fract_y
_atom_site_fract_z
Zn1	Zn	1.254465	-0.395615	0.489893
Zn2	Zn	1.247306	-0.534674	0.372727
Zn3	Zn	1.115405	-0.388580	0.360309
Zn4	Zn	1.108315	-0.527569	0.489221
O5	O	1.181373	-0.461609	0.428038
O6	O	1.369881	-0.419979	0.479829
O7	O	1.229780	-0.515323	0.268096
O8	O	1.139815	-0.273150	0.372583
O9	O	1.364621	-0.522145	0.393748
O10	O	1.241982	-0.278318	0.467788
O11	O	1.132873	-0.407989	0.258972
O12	O	0.998099	-0.401100	0.371931
O13	O	1.127731	-0.510035	0.592295
O14	O	0.992890	-0.503214	0.466642
O15	O	1.235107	-0.413090	0.592788
O16	O	1.222905	-0.650095	0.393096
O17	O	1.120789	-0.644875	0.478684
C18	C	0.965322	-0.450623	0.417867
C19	C	0.872894	-0.445943	0.413534
C20	C	1.170323	-0.677658	0.437182
C21	C	1.165672	-0.770088	0.441122
C22	C	0.703667	-0.437379	0.405629
C23	C	0.659916	-0.485901	0.450503
C24	C	0.565752	-0.481136	0.446104
C25	C	0.797839	-0.442143	0.410026
C26	C	1.205703	-0.983061	0.407766
C27	C	1.157197	-0.939315	0.448324
C28	C	1.161914	-0.845148	0.444316
C29	C	1.200987	-1.077236	0.411774
C30	C	1.398267	-0.472639	0.438249
C31	C	1.490694	-0.477339	0.442600
C32	C	1.181426	-0.461555	0.619991
C33	C	1.181449	-0.461531	0.701790
C34	C	1.192488	-0.244719	0.418875
C35	C	1.197224	-0.152293	0.414970
C36	C	1.181370	-0.461606	0.236831
C37	C	1.181520	-0.461404	0.155030
C38	C	1.237381	-0.411003	0.890241
C39	C	1.237393	-0.410979	0.967099
C40	C	1.125582	-0.511934	0.966574
C41	C	1.125568	-0.511953	0.889717
C42	C	1.181472	-0.461489	0.851552
C43	C	1.181498	-0.461446	1.005268
C44	C	1.181509	-0.461421	1.088601
C45	C	1.181459	-0.461513	0.768214
H46	H	0.693179	-0.531018	0.492225
Br47	Br	1.082073	-0.994760	0.511215
Br48	Br	1.280819	-0.927613	0.344877
H49	H	1.282900	-0.369909	0.859169
Br50	Br	0.648230	-0.362182	0.336095
H51	H	1.282918	-0.369867	0.998595
H52	H	1.080069	-0.553022	0.997657
H53	H	1.080034	-0.553063	0.858215
