data_functionalizedCrystal
_audit_creation_method	'MofGen! by Chris Wilmer'
_symmetry_space_group_name_H-M	'P1'
_symmetry_Int_Tables_number	1
_symmetry_cell_setting	triclinic
loop_
_symmetry_equiv_pos_as_xyz
  x,y,z
_cell_length_a	19.288864
_cell_length_b	8.559649
_cell_length_c	17.766277
_cell_angle_alpha	89.996972
_cell_angle_beta	89.980434
_cell_angle_gamma	76.457456
loop_
_atom_site_label
_atom_site_type_symbol
_atom_site_fract_x
_atom_site_fract_y
_atom_site_fract_z
O1	O	0.910984	0.199401	-0.062829
O2	O	0.707325	0.226301	-0.062777
O3	O	0.827097	-0.019880	-0.062807
O4	O	0.791212	0.445582	-0.062799
O5	O	0.827086	-0.019886	0.062381
O6	O	0.707314	0.226295	0.062411
O7	O	0.910973	0.199395	0.062359
Cu8	Cu	0.809142	0.212845	0.073816
Cu9	Cu	0.809156	0.212852	-0.074234
O10	O	0.791201	0.445576	0.062389
C11	C	0.681488	0.225432	-0.000176
C12	C	0.604519	0.222834	-0.000157
C13	C	0.829811	-0.079432	-0.000215
C14	C	0.837906	-0.256871	-0.000221
C15	C	0.552314	0.367282	-0.000166
C16	C	0.479994	0.364841	-0.000174
C17	C	0.459883	0.217944	-0.000188
C18	C	0.512099	0.073477	-0.000175
C19	C	0.584417	0.075922	-0.000159
C20	C	0.357628	0.102469	-0.044075
C21	C	0.285310	0.100030	-0.044095
C22	C	0.236829	0.210396	-0.000234
C23	C	0.260673	0.323229	0.043638
C24	C	0.332991	0.325675	0.043654
C25	C	0.381467	0.215276	-0.000205
C26	C	0.106205	0.352207	-0.000251
C27	C	0.033884	0.349760	-0.000255
C28	C	0.065991	0.058393	-0.000263
C29	C	0.138310	0.060844	-0.000252
C30	C	0.158412	0.207756	-0.000250
C31	C	0.936810	0.200264	-0.000243
C32	C	1.013778	0.202862	-0.000268
C33	C	0.788487	0.505129	-0.000205
C34	C	0.780392	0.682567	-0.000203
N35	N	0.809138	0.212839	0.177946
N36	N	0.809166	0.212845	-0.178364
C37	C	0.862201	0.103866	0.782222
C38	C	0.862202	0.103869	0.703420
C39	C	0.809157	0.212837	0.664035
C40	C	0.756117	0.321837	0.703459
C41	C	0.756122	0.321840	0.782259
C42	C	0.744755	0.234170	0.539220
C43	C	0.744750	0.234155	0.460421
C44	C	0.809142	0.212834	0.420989
C45	C	0.873542	0.191495	0.460365
C46	C	0.873547	0.191499	0.539165
C47	C	0.809146	0.212846	0.578590
C48	C	0.862181	0.103853	0.296129
C49	C	0.862182	0.103868	0.217326
C50	C	0.756093	0.321828	0.217366
C51	C	0.756097	0.321820	0.296168
C52	C	0.809141	0.212825	0.335544
H53	H	0.568676	0.486909	-0.000166
O54	O	0.714206	-0.217585	-0.000158
C55	C	0.662357	-0.309512	-0.000161
H56	H	0.686566	-0.434106	0.023538
H57	H	0.615193	-0.247574	0.036193
H58	H	0.643386	-0.321192	-0.060216
H59	H	0.925984	0.174128	0.571222
H60	H	0.221200	0.413100	0.079355
O61	O	0.903991	-0.357182	-0.000269
C62	C	0.897637	-0.517959	-0.000241
H63	H	0.843383	-0.523810	-0.023925
H64	H	0.941577	-0.593888	-0.036596
H65	H	0.902814	-0.566188	0.059819
O66	O	0.913804	-0.002049	0.820354
C67	C	0.960606	-0.098258	0.768662
H68	H	0.957884	-0.032733	0.712487
H69	H	1.017395	-0.122958	0.791400
H70	H	0.944387	-0.216879	0.760299
O71	O	0.913641	-0.001992	0.665019
C72	C	0.881713	-0.100409	0.619444
H73	H	0.823938	-0.036477	0.607687
H74	H	0.912048	-0.125754	0.564008
H75	H	0.883337	-0.218578	0.649781
H76	H	0.925976	0.174146	0.428261
H77	H	0.352401	0.417542	0.079378
H78	H	0.265902	0.008161	-0.079821
O79	O	0.913775	-0.002081	0.334268
C80	C	0.960578	-0.098295	0.282578
H81	H	0.957872	-0.032755	0.226409
H82	H	1.017364	-0.123033	0.305328
H83	H	0.944346	-0.216896	0.274201
O84	O	0.404773	-0.004526	-0.086731
C85	C	0.437549	0.079188	-0.139022
H86	H	0.434424	0.206106	-0.117487
H87	H	0.495817	0.013676	-0.146407
H88	H	0.408911	0.085476	-0.195455
H89	H	0.905373	0.015129	0.185234
H90	H	0.122573	0.471832	-0.000239
O91	O	0.704657	0.427754	0.179036
C92	C	0.736603	0.526175	0.133455
H93	H	0.794364	0.462181	0.121625
H94	H	0.706252	0.551647	0.078056
H95	H	0.735027	0.644280	0.163825
O96	O	0.704504	0.427733	0.334342
C97	C	0.657694	0.523942	0.282686
H98	H	0.660402	0.458409	0.226515
H99	H	0.600910	0.548659	0.305478
H100	H	0.673918	0.642554	0.274293
H101	H	0.495719	-0.046127	-0.000196
H102	H	0.437480	0.482471	-0.000180
O103	O	0.682129	0.254971	0.422291
C104	C	0.625297	0.273774	0.473990
H105	H	0.642175	0.317580	0.530151
H106	H	0.577185	0.365455	0.451238
H107	H	0.610575	0.153497	0.482385
O108	O	0.682259	0.254641	0.577611
C109	C	0.683906	0.118959	0.623180
H110	H	0.741650	0.054805	0.634950
H111	H	0.655430	0.158767	0.678610
H112	H	0.655969	0.033592	0.592831
O113	O	0.046341	-0.084165	-0.000312
C114	C	-0.028684	-0.055353	-0.000306
H115	H	-0.052346	0.069515	-0.024004
H116	H	-0.045900	-0.149315	-0.036661
H117	H	-0.048474	-0.062960	0.059748
O118	O	0.704680	0.427752	0.665121
C119	C	0.736624	0.526166	0.619533
H120	H	0.794385	0.462174	0.607704
H121	H	0.706271	0.551622	0.564133
H122	H	0.735045	0.644280	0.649896
H123	H	-0.008622	0.467392	-0.000259
O124	O	0.704511	0.427542	0.820516
C125	C	0.637119	0.401993	0.801274
H126	H	0.643607	0.274017	0.779610
H127	H	0.601272	0.420581	0.853111
H128	H	0.611984	0.490719	0.755543
O129	O	0.188935	-0.079622	-0.000284
C130	C	0.155680	-0.209804	-0.000279
H131	H	0.099435	-0.168840	-0.023990
H132	H	0.187820	-0.310982	-0.036623
H133	H	0.152895	-0.254861	0.059778
H134	H	0.626924	-0.041708	-0.000151
