data_functionalizedCrystal
_audit_creation_method	'MofGen! by Chris Wilmer'
_symmetry_space_group_name_H-M	'P1'
_symmetry_Int_Tables_number	1
_symmetry_cell_setting	triclinic
loop_
_symmetry_equiv_pos_as_xyz
  x,y,z
_cell_length_a	13.897449
_cell_length_b	21.295417
_cell_length_c	13.897441
_cell_angle_alpha	90.036423
_cell_angle_beta	90.020733
_cell_angle_gamma	90.031786
loop_
_atom_site_label
_atom_site_type_symbol
_atom_site_fract_x
_atom_site_fract_y
_atom_site_fract_z
Zn1	Zn	1.474617	-0.250568	0.545342
Zn2	Zn	1.807950	0.082766	0.878675
Zn3	Zn	2.141283	0.416099	1.212009
Zn4	Zn	1.474475	-0.355847	0.384027
Zn5	Zn	1.807808	-0.022513	0.717360
Zn6	Zn	2.141141	0.310820	1.050694
Zn7	Zn	1.313306	-0.250598	0.384060
Zn8	Zn	1.646639	0.082736	0.717394
Zn9	Zn	1.979973	0.416069	1.050727
Zn10	Zn	1.313252	-0.355805	0.545280
Zn11	Zn	1.646585	-0.022472	0.878613
Zn12	Zn	1.979918	0.310861	1.211946
O13	O	1.393912	-0.303204	0.464677
O14	O	1.727246	0.030129	0.798011
O15	O	2.060579	0.363462	1.131344
O16	O	1.609579	-0.264538	0.523955
O17	O	1.942913	0.068795	0.857289
O18	O	2.276246	0.402129	1.190622
O19	O	1.453059	-0.341915	0.249050
O20	O	1.786392	-0.008582	0.582383
O21	O	2.119725	0.324752	0.915716
O22	O	1.334786	-0.162504	0.405495
O23	O	1.668120	0.170829	0.738828
O24	O	2.001453	0.504162	1.072162
O25	O	1.609475	-0.341886	0.405438
O26	O	1.942808	-0.008553	0.738771
O27	O	2.276142	0.324781	1.072105
O28	O	1.453301	-0.162482	0.523988
O29	O	1.786634	0.170851	0.857321
O30	O	2.119967	0.504184	1.190655
O31	O	1.334649	-0.264589	0.249074
O32	O	1.667982	0.068744	0.582408
O33	O	2.001315	0.402078	0.915741
O34	O	1.178317	-0.264549	0.405434
O35	O	1.511650	0.068784	0.738768
O36	O	1.844984	0.402118	1.072101
O37	O	1.334694	-0.341815	0.680270
O38	O	1.668027	-0.008482	1.013603
O39	O	2.001360	0.324851	1.346936
O40	O	1.178277	-0.341844	0.523881
O41	O	1.511610	-0.008511	0.857215
O42	O	1.844944	0.324822	1.190548
O43	O	1.453248	-0.264498	0.680316
O44	O	1.786581	0.068836	1.013649
O45	O	2.119915	0.402169	1.346982
O46	O	1.453006	-0.443931	0.405378
O47	O	1.786339	-0.110597	0.738711
O48	O	2.119672	0.222736	1.072044
O49	O	1.334556	-0.443900	0.523849
O50	O	1.667889	-0.110567	0.857182
O51	O	2.001223	0.222766	1.190516
C52	C	1.143298	-0.303196	0.464655
C53	C	1.476631	0.030137	0.797989
C54	C	1.809965	0.363471	1.131322
C55	C	1.036084	-0.303207	0.464669
C56	C	1.369417	0.030126	0.798002
C57	C	1.702751	0.363459	1.131336
C58	C	0.839789	-0.303210	0.464694
C59	C	1.173122	0.030124	0.798027
C60	C	1.506455	0.363457	1.131361
C61	C	0.949021	-0.303207	0.464677
C62	C	1.282355	0.030127	0.798011
C63	C	1.615688	0.363460	1.131344
C64	C	1.393786	-0.466756	0.464624
C65	C	1.727119	-0.133423	0.797957
C66	C	2.060452	0.199911	1.131291
C67	C	1.393820	-0.536724	0.464633
C68	C	1.727153	-0.203391	0.797967
C69	C	2.060487	0.129943	1.131300
C70	C	1.455552	-0.569586	0.403008
C71	C	1.788885	-0.236252	0.736342
C72	C	2.122218	0.097081	1.069675
C73	C	1.455597	-0.635328	0.403030
C74	C	1.788930	-0.301995	0.736363
C75	C	2.122263	0.031339	1.069697
C76	C	1.393893	-0.668207	0.464667
C77	C	1.727226	-0.334873	0.798000
C78	C	2.060560	-0.001540	1.131333
C79	C	1.332157	-0.635337	0.526304
C80	C	1.665490	-0.302004	0.859637
C81	C	1.998824	0.031330	1.192970
C82	C	1.332120	-0.569596	0.526287
C83	C	1.665454	-0.236262	0.859620
C84	C	1.998787	0.097071	1.192954
N85	N	1.309512	-0.771473	0.472013
N86	N	1.642845	-0.438140	0.805346
N87	N	1.976179	-0.104806	1.138679
N88	N	1.309550	-0.833925	0.472023
N89	N	1.642883	-0.500591	0.805356
N90	N	1.976216	-0.167258	1.138690
C91	C	1.394001	-0.866281	0.464722
C92	C	1.727334	-0.532948	0.798055
C93	C	2.060668	-0.199615	1.131389
N94	N	1.478416	-0.833827	0.457392
N95	N	1.811749	-0.500494	0.790725
N96	N	2.145082	-0.167160	1.124058
N97	N	1.478377	-0.771370	0.457376
N98	N	1.811710	-0.438037	0.790710
N99	N	2.145044	-0.104703	1.124043
C100	C	1.393926	-0.739492	0.464692
C101	C	1.727260	-0.406159	0.798025
C102	C	2.060593	-0.072825	1.131359
C103	C	1.455787	-0.970428	0.403117
C104	C	1.789120	-0.637095	0.736451
C105	C	2.122454	-0.303762	1.069784
C106	C	1.455834	-1.036172	0.403146
C107	C	1.789167	-0.702839	0.736479
C108	C	2.122501	-0.369505	1.069812
C109	C	1.332386	-1.036180	0.526414
C110	C	1.665719	-0.702846	0.859747
C111	C	1.999052	-0.369513	1.193081
C112	C	1.332347	-0.970437	0.526391
C113	C	1.665681	-0.637104	0.859724
C114	C	1.999014	-0.303771	1.193057
C115	C	1.394047	-0.937565	0.464737
C116	C	1.727380	-0.604232	0.798070
C117	C	2.060713	-0.270899	1.131404
C118	C	1.645505	-0.303213	0.464700
C119	C	1.978838	0.030120	0.798033
C120	C	2.312172	0.363453	1.131367
C121	C	1.752719	-0.303217	0.464710
C122	C	2.086052	0.030116	0.798043
C123	C	2.419386	0.363450	1.131376
C124	C	1.393981	-0.303149	0.716270
C125	C	1.727314	0.030185	1.049604
C126	C	2.060647	0.363518	1.382937
C127	C	1.394010	-0.303125	0.823484
C128	C	1.727343	0.030208	1.156818
C129	C	2.060676	0.363542	1.490151
C130	C	1.394065	-0.139014	0.464752
C131	C	1.727399	0.194319	0.798085
C132	C	2.060732	0.527653	1.131419
C133	C	1.394131	-0.069046	0.464784
C134	C	1.727464	0.264287	0.798117
C135	C	2.060797	0.597621	1.131451
C136	C	1.393900	-0.303214	0.214063
C137	C	1.727233	0.030119	0.547396
C138	C	2.060566	0.363452	0.880730
C139	C	1.394057	-0.303061	0.106850
C140	C	1.727391	0.030273	0.440183
C141	C	2.060724	0.363606	0.773516
C142	C	1.394036	-0.303082	1.019780
C143	C	1.727369	0.030251	1.353113
C144	C	2.060703	0.363584	1.686446
C145	C	1.394018	-0.303108	0.910547
C146	C	1.727352	0.030226	1.243881
C147	C	2.060685	0.363559	1.577214
H148	H	1.505793	-0.542823	0.352809
H149	H	1.839126	-0.209490	0.686142
H150	H	2.172460	0.123843	1.019476
H151	H	1.281850	-0.542839	0.576471
H152	H	1.615184	-0.209506	0.909804
H153	H	1.948517	0.123827	1.243137
C154	C	1.619222	-1.056257	0.356343
C155	C	1.952556	-0.722924	0.689676
C156	C	2.285889	-0.389591	1.023009
C157	C	1.523742	-1.072261	0.335405
C158	C	1.857075	-0.738928	0.668738
C159	C	2.190409	-0.405594	1.002071
H160	H	1.661157	-1.078525	0.314517
H161	H	1.994491	-0.745192	0.647851
H162	H	2.327824	-0.411859	0.981184
H163	H	1.633297	-1.067001	0.421158
H164	H	1.966630	-0.733668	0.754491
H165	H	2.299963	-0.400334	1.087824
H166	H	1.627968	-1.012391	0.347537
H167	H	1.961301	-0.679058	0.680870
H168	H	2.294635	-0.345725	1.014203
H169	H	1.514994	-1.116126	0.344218
H170	H	1.848328	-0.782793	0.677551
H171	H	2.181661	-0.449460	1.010884
H172	H	1.509663	-1.061521	0.270574
H173	H	1.842996	-0.728188	0.603907
H174	H	2.176329	-0.394855	0.937241
C175	C	1.502854	-0.950247	0.239817
C176	C	1.836187	-0.616914	0.573151
C177	C	2.169520	-0.283581	0.906484
C178	C	1.523610	-0.934290	0.335357
C179	C	1.856944	-0.600956	0.668690
C180	C	2.190277	-0.267623	1.002023
H181	H	1.544729	-0.927940	0.197987
H182	H	1.878063	-0.594607	0.531320
H183	H	2.211396	-0.261273	0.864653
H184	H	1.438053	-0.939520	0.225646
H185	H	1.771386	-0.606187	0.558979
H186	H	2.104719	-0.272853	0.892313
H187	H	1.511719	-0.994105	0.231023
H188	H	1.845052	-0.660772	0.564356
H189	H	2.178386	-0.327438	0.897690
H190	H	1.514738	-0.890433	0.344153
H191	H	1.848071	-0.557099	0.677486
H192	H	2.181405	-0.223766	1.010819
H193	H	1.588427	-0.945013	0.349533
H194	H	1.921761	-0.611679	0.682866
H195	H	2.255094	-0.278346	1.016199
C196	C	1.277630	-1.136956	0.581174
C197	C	1.610963	-0.803623	0.914508
C198	C	1.944296	-0.470289	1.247841
C199	C	1.264561	-1.072312	0.594170
C200	C	1.597894	-0.738979	0.927503
C201	C	1.931228	-0.405645	1.260837
H202	H	1.235754	-1.159263	0.623005
H203	H	1.569087	-0.825930	0.956338
H204	H	1.902421	-0.492597	1.289672
H205	H	1.342431	-1.147678	0.595353
H206	H	1.675765	-0.814345	0.928686
H207	H	2.009098	-0.481011	1.262019
H208	H	1.263550	-1.147768	0.516353
H209	H	1.596883	-0.814434	0.849686
H210	H	1.930217	-0.481101	1.183019
H211	H	1.278648	-1.061499	0.658990
H212	H	1.611981	-0.728166	0.992324
H213	H	1.945314	-0.394833	1.325657
H214	H	1.199744	-1.061586	0.579998
H215	H	1.533078	-0.728252	0.913332
H216	H	1.866411	-0.394919	1.246665
C217	C	1.210321	-0.977050	0.648222
C218	C	1.543654	-0.643717	0.981555
C219	C	1.876987	-0.310384	1.314889
C220	C	1.264476	-0.934311	0.594119
C221	C	1.597809	-0.600978	0.927452
C222	C	1.931142	-0.267645	1.260785
H223	H	1.168415	-0.954747	0.690032
H224	H	1.501748	-0.621413	1.023365
H225	H	1.835081	-0.288080	1.356699
H226	H	1.252340	-1.002644	0.685166
H227	H	1.585673	-0.669311	1.018499
H228	H	1.919006	-0.335977	1.351833
H229	H	1.173467	-1.002739	0.606157
H230	H	1.506800	-0.669406	0.939490
H231	H	1.840134	-0.336072	1.272824
H232	H	1.301335	-0.908626	0.636184
H233	H	1.634668	-0.575292	0.969517
H234	H	1.968001	-0.241959	1.302850
H235	H	1.222451	-0.908707	0.557172
H236	H	1.555785	-0.575374	0.890505
H237	H	1.889118	-0.242040	1.223839
H238	H	1.505870	-0.662089	0.352848
H239	H	1.839203	-0.328756	0.686181
H240	H	2.172536	0.004577	1.019515
H241	H	1.281919	-0.662111	0.576490
H242	H	1.615253	-0.328778	0.909823
H243	H	1.948586	0.004556	1.243157
