data_functionalizedCrystal
_audit_creation_method	'MofGen! by Chris Wilmer'
_symmetry_space_group_name_H-M	'P1'
_symmetry_Int_Tables_number	1
_symmetry_cell_setting	triclinic
loop_
_symmetry_equiv_pos_as_xyz
  x,y,z
_cell_length_a	13.897449
_cell_length_b	10.686285
_cell_length_c	10.686551
_cell_angle_alpha	80.915481
_cell_angle_beta	85.601944
_cell_angle_gamma	85.631338
loop_
_atom_site_label
_atom_site_type_symbol
_atom_site_fract_x
_atom_site_fract_y
_atom_site_fract_z
Zn1	Zn	-1.541014	0.450166	0.679087
Zn2	Zn	-1.041014	0.950166	1.179087
Zn3	Zn	-1.540936	0.678746	0.450585
Zn4	Zn	-1.040936	1.178746	0.950585
Zn5	Zn	-1.368210	0.466520	0.466840
Zn6	Zn	-0.868210	0.966520	0.966840
Zn7	Zn	-1.391202	0.662363	0.662781
Zn8	Zn	-0.891202	1.162363	1.162781
O9	O	-1.460341	0.564449	0.564823
O10	O	-0.960341	1.064449	1.064823
O11	O	-1.675987	0.480500	0.648797
O12	O	-1.175987	0.980500	1.148797
O13	O	-1.508369	0.664294	0.275110
O14	O	-1.008369	1.164294	0.775110
O15	O	-1.381543	0.286728	0.508622
O16	O	-0.881543	0.786728	1.008622
O17	O	-1.675930	0.648437	0.480918
O18	O	-1.175930	1.148437	0.980918
O19	O	-1.508502	0.274713	0.664559
O20	O	-1.008502	0.774713	1.164559
O21	O	-1.381468	0.508372	0.287053
O22	O	-0.881468	1.008372	0.787053
O23	O	-1.236276	0.492486	0.492810
O24	O	-0.736276	0.992486	0.992810
O25	O	-1.420730	0.620515	0.842574
O26	O	-0.920730	1.120515	1.342574
O27	O	-1.253168	0.636372	0.636767
O28	O	-0.753168	1.136372	1.136767
O29	O	-1.530796	0.464614	0.854555
O30	O	-1.030796	0.964614	1.354555
O31	O	-1.530663	0.854196	0.465106
O32	O	-1.030663	1.354196	0.965106
O33	O	-1.420654	0.842159	0.621005
O34	O	-0.920654	1.342159	1.121005
C35	C	-1.209723	0.564427	0.564784
C36	C	-0.709723	1.064427	1.064784
C37	C	-1.102510	0.564446	0.564795
C38	C	-0.602510	1.064446	1.064795
C39	C	-1.478173	0.894231	0.539550
C40	C	-0.978173	1.394231	1.039550
C41	C	-1.485892	1.035310	0.528780
C42	C	-0.985892	1.535310	1.028780
C43	C	-1.478336	0.538913	0.895910
C44	C	-0.978336	1.038913	1.395910
C45	C	-1.486005	0.528031	1.037000
C46	C	-0.986005	1.028031	1.537000
C47	C	-0.906216	0.564442	0.564819
C48	C	-0.406216	1.064442	1.064819
C49	C	-1.015448	0.564440	0.564802
C50	C	-0.515448	1.064440	1.064802
C51	C	-0.711936	0.564465	0.564852
C52	C	-0.211936	1.064465	1.064852
C53	C	-0.819148	0.564452	0.564834
C54	C	-0.319148	1.064452	1.064834
C55	C	-1.442466	0.233377	0.590223
C56	C	-0.942466	0.733377	1.090223
C57	C	-1.434850	0.092294	0.601047
C58	C	-0.934850	0.592294	1.101047
C59	C	-1.442465	0.589794	0.235031
C60	C	-0.942465	1.089794	0.735031
C61	C	-1.434964	0.600318	0.093970
C62	C	-0.934964	1.100318	0.593970
H63	H	-1.385245	1.033153	0.671159
H64	H	-0.885245	1.533153	1.171159
Cl65	Cl	-1.562543	0.419626	1.128344
Cl66	Cl	-1.062543	0.919626	1.628344
Cl67	Cl	-1.562472	1.126624	0.420510
Cl68	Cl	-1.062472	1.626624	0.920510
Cl69	Cl	-1.358441	0.708732	1.002629
Cl70	Cl	-0.858441	1.208732	1.502629
