data_functionalizedCrystal
_audit_creation_method	'MofGen! by Chris Wilmer'
_symmetry_space_group_name_H-M	'P1'
_symmetry_Int_Tables_number	1
_symmetry_cell_setting	triclinic
loop_
_symmetry_equiv_pos_as_xyz
  x,y,z
_cell_length_a	10.654563
_cell_length_b	10.654549
_cell_length_c	18.366186
_cell_angle_alpha	90.003482
_cell_angle_beta	90.003207
_cell_angle_gamma	84.487643
loop_
_atom_site_label
_atom_site_type_symbol
_atom_site_fract_x
_atom_site_fract_y
_atom_site_fract_z
O1	O	1.667833	0.176480	0.060509
O2	O	1.302357	0.193268	0.060519
O3	O	1.493498	0.002135	0.060511
O4	O	1.476692	0.367613	0.060517
O5	O	1.493477	0.002130	-0.060588
O6	O	1.302336	0.193263	-0.060580
O7	O	1.667812	0.176475	-0.060590
Zn8	Zn	1.485071	0.184869	-0.079812
Zn9	Zn	1.485098	0.184875	0.079741
O10	O	1.476671	0.367608	-0.060582
C11	C	1.255549	0.192030	-0.000029
C12	C	1.116106	0.188331	-0.000026
C13	C	1.492254	-0.044665	-0.000038
C14	C	1.488562	-0.184109	-0.000036
C15	C	1.597625	-0.394618	-0.000034
C16	C	1.601103	-0.263597	-0.000039
C17	C	1.372535	-0.235647	-0.000033
C18	C	1.369058	-0.366665	-0.000033
C19	C	1.743144	-0.101336	-0.042473
C20	C	1.859168	-0.049803	-0.042464
C21	C	1.958948	-0.104660	-0.000032
C22	C	1.942708	-0.211049	0.042409
C23	C	1.826682	-0.262576	0.042408
C24	C	1.726907	-0.207721	-0.000041
C25	C	1.227025	-0.528930	0.042407
C26	C	1.110998	-0.580458	0.042410
C27	C	1.011208	-0.525602	-0.000017
C28	C	1.027435	-0.419207	-0.042448
C29	C	1.143462	-0.367679	-0.042452
C30	C	1.243253	-0.422544	-0.000025
C31	C	1.050597	0.186599	0.065983
C32	C	0.919573	0.183144	0.065977
C33	C	0.919581	0.183148	-0.066053
C34	C	1.050601	0.186612	-0.066046
C35	C	0.731537	0.251861	0.145277
C36	C	0.666026	0.250108	0.211289
C37	C	0.717522	0.177767	0.269573
C38	C	0.834531	0.107150	0.261847
C39	C	0.900037	0.108892	0.195834
C40	C	0.848539	0.181262	0.137553
C41	C	1.238641	0.117885	-0.145342
C42	C	1.304150	0.119618	-0.211355
C43	C	1.252658	0.191951	-0.269645
C44	C	1.135647	0.262549	-0.261926
C45	C	1.070138	0.260816	-0.195912
C46	C	1.121639	0.188486	-0.137623
C47	C	1.714620	0.177714	-0.000040
C48	C	1.854063	0.181413	-0.000039
C49	C	1.477915	0.414409	-0.000031
C50	C	1.481607	0.553852	-0.000029
N51	N	1.485062	0.184864	-0.188704
C52	C	1.569757	0.100260	-0.773258
C53	C	1.569758	0.100262	-0.697030
C54	C	1.485098	0.184863	-0.658915
C55	C	1.400453	0.269490	-0.697034
C56	C	1.400462	0.269493	-0.773260
C57	C	1.370851	0.200265	-0.538157
C58	C	1.370840	0.200253	-0.461932
C59	C	1.485070	0.184861	-0.423807
C60	C	1.599315	0.169454	-0.461917
C61	C	1.599324	0.169457	-0.538143
C62	C	1.485079	0.184870	-0.576260
C63	C	1.569718	0.100249	-0.303042
C64	C	1.569721	0.100260	-0.226813
C65	C	1.400404	0.269482	-0.226819
C66	C	1.400412	0.269476	-0.303047
C67	C	1.485067	0.184853	-0.341154
N68	N	1.485117	0.184870	0.188632
H69	H	1.689270	-0.459330	-0.000031
Cl70	Cl	1.293984	0.375847	-0.178909
Cl71	Cl	1.742928	0.150094	-0.413997
Cl72	Cl	1.293996	0.375842	-0.350961
H73	H	1.399432	0.062135	-0.217635
Cl74	Cl	1.303385	0.026948	-0.072061
Cl75	Cl	1.676141	-0.006108	-0.178900
Cl76	Cl	1.335000	0.194099	-0.352642
H77	H	1.638691	0.031358	-0.804282
H78	H	1.093713	0.321438	-0.309393
Cl79	Cl	0.666800	0.342831	0.072011
H80	H	0.916729	-0.567562	-0.000005
H81	H	1.638684	0.031360	-0.665995
Cl82	Cl	1.227225	0.219732	-0.414031
Cl83	Cl	0.923028	0.349558	-0.186212
Cl84	Cl	1.163864	-0.233924	-0.095796
Cl85	Cl	0.901980	-0.350235	-0.095786
Cl86	Cl	1.806261	-0.396314	0.095756
H87	H	0.876445	0.048237	0.309307
Cl88	Cl	1.227235	0.219622	-0.586078
Cl89	Cl	1.352489	-0.597919	0.095734
H90	H	1.103927	0.188005	0.119741
Cl91	Cl	2.104804	-0.039870	-0.000022
Cl92	Cl	1.742939	0.150103	-0.586049
Cl93	Cl	2.068149	-0.279994	0.095765
H94	H	0.570753	0.307608	0.217574
Cl95	Cl	1.090598	-0.714213	0.095754
H96	H	0.866231	0.181746	-0.119804
H97	H	1.638653	0.031347	-0.334070
Cl98	Cl	1.879581	0.083939	-0.095818
H99	H	1.331523	0.338375	-0.665997
H100	H	1.661907	-0.056669	-0.077034
Cl101	Cl	1.231054	-0.135718	-0.000032
H102	H	1.331537	0.338394	-0.804290
H103	H	0.995304	0.051399	0.189544
H104	H	0.664178	0.176349	0.323323
