data_functionalizedCrystal
_audit_creation_method	'MofGen! by Chris Wilmer'
_symmetry_space_group_name_H-M	'P1'
_symmetry_Int_Tables_number	1
_symmetry_cell_setting	triclinic
loop_
_symmetry_equiv_pos_as_xyz
  x,y,z
_cell_length_a	10.654550
_cell_length_b	23.532407
_cell_length_c	9.730223
_cell_angle_alpha	89.994043
_cell_angle_beta	89.996251
_cell_angle_gamma	83.666790
loop_
_atom_site_label
_atom_site_type_symbol
_atom_site_fract_x
_atom_site_fract_y
_atom_site_fract_z
O1	O	1.665300	0.079982	-0.114418
O2	O	1.299580	0.087603	-0.114398
O3	O	1.493468	0.000933	-0.114384
O4	O	1.471412	0.166652	-0.114433
O5	O	1.493466	0.000935	0.114196
O6	O	1.299578	0.087605	0.114182
O7	O	1.665298	0.079985	0.114161
Zn8	Zn	1.482437	0.083795	0.150464
Zn9	Zn	1.482440	0.083792	-0.150700
O10	O	1.471409	0.166655	0.114147
C11	C	1.252799	0.087044	-0.000105
C12	C	1.113408	0.085370	-0.000096
C13	C	1.032306	0.136400	-0.000131
C14	C	0.901335	0.134824	-0.000154
C15	C	0.932582	0.031183	-0.000113
C16	C	1.063550	0.032760	-0.000080
C17	C	1.082164	0.189010	-0.000147
C18	C	1.001060	0.240045	-0.000184
C19	C	0.870089	0.238468	-0.000207
C20	C	0.820222	0.185858	-0.000194
C21	C	1.492905	-0.020286	-0.000090
C22	C	1.491217	-0.083514	-0.000079
C23	C	1.595364	-0.481938	-0.000161
C24	C	1.593795	-0.541349	-0.000171
O25	O	1.690341	-0.577464	-0.000227
N26	N	1.478529	-0.564726	-0.000164
C27	C	1.364824	-0.528689	-0.000160
O28	O	1.266636	-0.554029	-0.000156
C29	C	1.366394	-0.469280	-0.000159
C30	C	1.481668	-0.445906	-0.000153
C31	C	1.710629	-0.458564	-0.000156
C32	C	1.712197	-0.399158	-0.000143
C33	C	1.598500	-0.363126	-0.000135
C34	C	1.483236	-0.386500	-0.000140
C35	C	1.252690	-0.433244	-0.000165
C36	C	1.254270	-0.373832	-0.000166
C37	C	1.369544	-0.350458	-0.000159
C38	C	1.371107	-0.291061	-0.000119
N39	N	1.486374	-0.267684	-0.000126
C40	C	1.600070	-0.303716	-0.000134
C41	C	1.361535	-0.653453	-0.000163
C42	C	1.359964	-0.712861	-0.000154
C43	C	1.588936	-0.725517	-0.000168
C44	C	1.590506	-0.666108	-0.000167
C45	C	1.476802	-0.630076	-0.000171
C46	C	1.603355	-0.178958	-0.000106
C47	C	1.604913	-0.119546	-0.000087
C48	C	1.375942	-0.106896	-0.000081
C49	C	1.374383	-0.166303	-0.000092
C50	C	1.488100	-0.202333	-0.000109
O51	O	1.274613	-0.254911	-0.000068
O52	O	1.698241	-0.278369	-0.000157
C53	C	1.712079	0.080543	-0.000135
C54	C	1.851469	0.082217	-0.000152
C55	C	1.471972	0.187873	-0.000149
C56	C	1.473661	0.251101	-0.000169
N57	N	1.482444	0.083797	0.356000
N58	N	1.482443	0.083786	-0.356237
C59	C	1.568320	0.045432	0.427932
C60	C	1.568317	0.045425	0.571815
C61	C	1.396559	0.122152	0.571821
C62	C	1.396557	0.122156	0.427941
C63	C	1.654207	0.007073	0.355992
C64	C	1.740090	-0.031294	0.427924
C65	C	1.740087	-0.031301	0.571807
C66	C	1.654201	0.007059	0.643758
H67	H	1.129587	-0.008793	-0.000055
C68	C	1.800564	-0.112037	-0.117606
C69	C	1.731630	-0.093854	-0.000091
H70	H	1.878786	-0.096174	-0.117612
H71	H	1.815894	-0.152571	-0.117604
H72	H	1.753767	-0.099689	-0.197301
H73	H	1.778422	-0.106205	0.079604
H74	H	1.716304	-0.053311	-0.000081
C75	C	0.803462	-0.030714	-0.117646
C76	C	0.877772	-0.026644	-0.000118
H77	H	0.769634	-0.066417	-0.117654
H78	H	0.736422	-0.000552	-0.117659
H79	H	0.853943	-0.027945	-0.197332
H80	H	0.827288	-0.029410	0.079569
H81	H	0.944821	-0.056815	-0.000092
H82	H	1.695954	-0.208288	-0.000125
C83	C	1.181250	-0.077808	0.117418
C84	C	1.250969	-0.067282	-0.000080
H85	H	1.104101	-0.053348	0.117410
H86	H	1.163811	-0.116529	0.117405
H87	H	1.228550	-0.070675	0.197124
H88	H	1.203672	-0.074419	-0.079787
H89	H	1.268405	-0.028552	-0.000080
H90	H	1.810008	-0.062545	0.630373
C91	C	1.225523	0.133783	0.733656
C92	C	1.302167	0.164318	0.650911
H93	H	1.167257	0.159817	0.782487
H94	H	1.180651	0.109896	0.677533
H95	H	1.276684	0.110935	0.797080
H96	H	1.251007	0.187164	0.587480
H97	H	1.347043	0.188216	0.707039
H98	H	1.810010	-0.062529	0.369335
C99	C	1.230430	-0.579299	-0.117652
C100	C	1.236538	-0.613850	-0.000148
H101	H	1.153259	-0.554856	-0.117645
H102	H	1.299285	-0.556872	-0.117646
H103	H	1.234585	-0.602741	-0.197354
H104	H	1.232393	-0.590409	0.079555
H105	H	1.167664	-0.636280	-0.000142
C106	C	1.907836	-0.391663	-0.117671
C107	C	1.838911	-0.373471	-0.000156
H108	H	1.986065	-0.375805	-0.117684
H109	H	1.923152	-0.432197	-0.117663
H110	H	1.861040	-0.379314	-0.197366
H111	H	1.885704	-0.385824	0.079539
H112	H	1.823599	-0.332928	-0.000152
H113	H	1.188805	0.190300	-0.000134
C114	C	1.841740	-0.532705	-0.117668
C115	C	1.835621	-0.498164	-0.000164
H116	H	1.918916	-0.557145	-0.117667
H117	H	1.772891	-0.555135	-0.117657
H118	H	1.837585	-0.509256	-0.197370
H119	H	1.839768	-0.521612	0.079539
H120	H	1.904489	-0.475731	-0.000162
C121	C	1.225343	-0.772329	0.117354
C122	C	1.233251	-0.738549	-0.000145
H123	H	1.147109	-0.788182	0.117354
H124	H	1.292816	-0.802292	0.117335
H125	H	1.230720	-0.749416	0.197060
H126	H	1.227883	-0.761463	-0.079852
H127	H	1.165759	-0.708582	-0.000139
H128	H	1.326628	0.153395	0.369373
H129	H	0.804057	0.280023	-0.000223
C130	C	0.957018	0.342330	-0.000215
C131	C	1.055867	0.297872	-0.000189
H132	H	0.990854	0.378031	-0.000209
H133	H	0.906607	0.339559	-0.079930
H134	H	0.906566	0.339556	0.079492
H135	H	1.106314	0.300644	-0.079903
H136	H	1.106300	0.300645	0.079534
C137	C	1.239765	-0.225779	0.117407
C138	C	1.247671	-0.191996	-0.000085
H139	H	1.161532	-0.241634	0.117404
H140	H	1.307240	-0.255742	0.117383
H141	H	1.245141	-0.202869	0.197118
H142	H	1.242304	-0.214907	-0.079796
H143	H	1.180177	-0.162029	-0.000073
H144	H	1.684372	-0.647081	-0.000163
H145	H	1.681514	-0.754865	-0.000180
H146	H	1.158822	-0.452264	-0.000179
C147	C	1.123189	-0.299674	-0.117669
C148	C	1.129278	-0.334226	-0.000168
H149	H	1.046022	-0.275228	-0.117669
H150	H	1.192049	-0.277250	-0.117652
H151	H	1.127347	-0.323115	-0.197373
H152	H	1.125130	-0.310786	0.079537
H153	H	1.060400	-0.356653	-0.000172
H154	H	1.654220	0.007076	0.238835
H155	H	0.713576	0.184578	-0.000191
H156	H	1.654197	0.007046	0.760917
