data_functionalizedCrystal
_audit_creation_method	'MofGen! by Chris Wilmer'
_symmetry_space_group_name_H-M	'P1'
_symmetry_Int_Tables_number	1
_symmetry_cell_setting	triclinic
loop_
_symmetry_equiv_pos_as_xyz
  x,y,z
_cell_length_a	19.188930
_cell_length_b	27.732048
_cell_length_c	18.266242
_cell_angle_alpha	89.988683
_cell_angle_beta	89.977082
_cell_angle_gamma	82.893716
loop_
_atom_site_label
_atom_site_type_symbol
_atom_site_fract_x
_atom_site_fract_y
_atom_site_fract_z
O1	O	0.925764	0.060348	-0.061124
O2	O	0.722401	0.068472	-0.061075
O3	O	0.830399	-0.005968	-0.061087
O4	O	0.817767	0.134787	-0.061112
O5	O	0.830381	-0.005971	0.060675
O6	O	0.722383	0.068468	0.060687
O7	O	0.925746	0.060344	0.060638
Zn8	Zn	0.824062	0.064405	0.079995
Zn9	Zn	0.824086	0.064410	-0.080432
O10	O	0.817749	0.134783	0.060650
C11	C	0.696383	0.068207	-0.000187
C12	C	0.618883	0.067417	-0.000168
C13	C	0.573681	0.111096	-0.000187
C14	C	0.500862	0.110354	-0.000195
C15	C	0.473249	0.065931	-0.000199
C16	C	0.518461	0.022246	-0.000175
C17	C	0.591278	0.022990	-0.000160
N18	N	0.365491	0.031976	-0.041663
N19	N	0.296317	0.031273	-0.041679
C20	C	0.253854	0.063689	-0.000243
N21	N	0.283177	0.096842	0.041201
N22	N	0.352358	0.097546	0.041213
C23	C	0.394291	0.065120	-0.000215
C24	C	0.129692	0.106566	-0.000270
C25	C	0.056872	0.105822	-0.000273
C26	C	0.074473	0.017714	-0.000261
C27	C	0.147292	0.018459	-0.000250
C28	C	0.174897	0.062886	-0.000258
C29	C	0.830125	-0.023977	-0.000204
C30	C	0.829326	-0.077635	-0.000198
C31	C	0.888119	-0.416270	-0.000250
C32	C	0.885157	-0.617939	-0.000259
O33	O	0.938918	-0.649030	-0.000304
N34	N	0.821118	-0.637258	-0.000243
C35	C	0.757816	-0.606157	-0.000229
O36	O	0.703280	-0.627217	-0.000223
C37	C	0.760780	-0.404489	-0.000225
C38	C	0.824822	-0.385173	-0.000234
C39	C	0.952156	-0.396953	-0.000259
C40	C	0.952896	-0.346539	-0.000253
C41	C	0.889599	-0.315441	-0.000237
C42	C	0.825562	-0.334759	-0.000227
C43	C	0.697478	-0.373389	-0.000216
C44	C	0.698225	-0.322969	-0.000217
C45	C	0.762267	-0.303653	-0.000226
C46	C	0.763005	-0.253247	-0.000205
N47	N	0.827043	-0.233928	-0.000221
C48	C	0.890340	-0.265025	-0.000237
C49	C	0.756265	-0.712036	-0.000230
C50	C	0.755524	-0.762452	-0.000230
C51	C	0.882865	-0.774231	-0.000261
C52	C	0.883605	-0.723813	-0.000256
C53	C	0.820303	-0.692716	-0.000246
C54	C	0.891889	-0.159151	-0.000223
C55	C	0.892623	-0.108732	-0.000214
C56	C	0.765283	-0.096958	-0.000186
C57	C	0.764549	-0.147373	-0.000192
C58	C	0.827857	-0.178468	-0.000213
O59	O	0.709272	-0.222127	-0.000168
O60	O	0.944868	-0.243956	-0.000259
C61	C	0.887379	-0.466684	-0.000256
C62	C	0.823342	-0.486001	-0.000246
C63	C	0.760045	-0.454904	-0.000230
C64	C	0.822601	-0.536418	-0.000246
C65	C	0.885898	-0.567515	-0.000262
C66	C	0.949936	-0.548195	-0.000278
C67	C	0.950676	-0.497781	-0.000272
C68	C	0.696007	-0.474223	-0.000214
C69	C	0.695272	-0.524638	-0.000220
C70	C	0.758569	-0.555735	-0.000236
C71	C	0.951765	0.060609	-0.000251
C72	C	1.029264	0.061399	-0.000275
C73	C	0.818023	0.152793	-0.000235
C74	C	0.818821	0.206450	-0.000246
N75	N	0.824051	0.064402	0.189482
N76	N	0.824103	0.064410	-0.189919
C77	C	0.871887	0.031456	0.227785
C78	C	0.871892	0.031454	0.304430
C79	C	0.824066	0.064406	0.342769
C80	C	0.776220	0.097354	0.304456
C81	C	0.776213	0.097352	0.227813
N82	N	0.814718	0.107196	0.463095
N83	N	0.814729	0.107196	0.535903
C84	C	0.824086	0.064413	0.573691
N85	N	0.833444	0.021627	0.535921
N86	N	0.833436	0.021628	0.463106
C87	C	0.824069	0.064411	0.425876
C88	C	0.871930	0.031462	0.695102
C89	C	0.871929	0.031459	0.771748
C90	C	0.776261	0.097363	0.771772
C91	C	0.776258	0.097362	0.695127
C92	C	0.824096	0.064412	0.656797
H93	H	0.020068	0.141392	-0.000285
H94	H	0.051991	-0.018456	-0.000309
H95	H	0.910838	0.004625	0.196579
N96	N	0.923487	-0.004083	0.345756
H97	H	0.953789	-0.024957	0.309843
H98	H	0.954150	0.014375	0.377532
N99	N	0.724633	0.132892	0.345801
H100	H	0.731897	0.127895	0.400167
H101	H	0.732320	0.167170	0.332386
N102	N	0.724613	0.132886	0.186494
H103	H	0.694312	0.153760	0.222408
H104	H	0.751105	0.154210	0.154673
H105	H	1.003703	-0.422268	-0.000275
N106	N	0.686449	-0.783282	-0.000218
H107	H	0.695577	-0.819940	-0.000221
H108	H	0.658768	-0.771901	0.044926
N109	N	0.196051	-0.028652	-0.000229
H110	H	0.167511	-0.056907	-0.000231
H111	H	0.226675	-0.030263	-0.045360
N112	N	1.021967	-0.325704	-0.000281
H113	H	1.025117	-0.305054	0.044854
H114	H	1.061910	-0.353084	-0.000324
H115	H	0.737308	0.124191	0.663939
H116	H	0.944776	-0.093007	-0.000219
H117	H	0.910880	0.004630	0.663892
N118	N	0.923539	-0.004069	0.813065
H119	H	0.953846	-0.024937	0.777150
H120	H	0.954194	0.014398	0.844835
H121	H	0.645328	-0.389107	-0.000214
N122	N	0.952678	-0.702980	-0.000271
H123	H	0.955818	-0.682331	0.044867
H124	H	0.992619	-0.730362	-0.000306
H125	H	0.934404	-0.799559	-0.000274
H126	H	0.737318	0.124191	0.802987
N127	N	0.960170	-0.192685	-0.000246
H128	H	1.000844	-0.172791	-0.000249
H129	H	0.962631	-0.213867	0.044891
H130	H	0.596152	0.147272	-0.000195
N131	N	0.687986	-0.678499	-0.000218
H132	H	0.647311	-0.698393	-0.000205
H133	H	0.685510	-0.657330	0.044922
H134	H	0.152169	0.142741	-0.000266
N135	N	0.629948	-0.289430	-0.000210
H136	H	0.589270	-0.309320	-0.000205
H137	H	0.627469	-0.268261	0.044931
H138	H	0.628083	-0.012580	-0.000145
H139	H	0.464051	0.145923	-0.000209
H140	H	0.712400	-0.163101	-0.000164
N141	N	0.488683	-0.025668	-0.000170
H142	H	0.435694	-0.019511	-0.000184
H143	H	0.505280	-0.044776	-0.045300
N144	N	0.697022	-0.063406	-0.000155
H145	H	0.694503	-0.042216	-0.045288
H146	H	0.656370	-0.083318	-0.000118
N147	N	1.019750	-0.476951	-0.000280
H148	H	1.059731	-0.504306	-0.000291
H149	H	1.022844	-0.456283	-0.045418
N150	N	1.018208	-0.581741	-0.000289
H151	H	1.008014	-0.616609	-0.000290
H152	H	1.046149	-0.575497	-0.045433
H153	H	0.644461	-0.448908	-0.000203
N154	N	0.626193	-0.545469	-0.000198
H155	H	0.586211	-0.518115	-0.000187
H156	H	0.623116	-0.566123	-0.045339
