data_functionalizedCrystal
_audit_creation_method	'MofGen! by Chris Wilmer'
_symmetry_space_group_name_H-M	'P1'
_symmetry_Int_Tables_number	1
_symmetry_cell_setting	triclinic
loop_
_symmetry_equiv_pos_as_xyz
  x,y,z
_cell_length_a	10.967926
_cell_length_b	16.109301
_cell_length_c	14.586319
_cell_angle_alpha	89.998857
_cell_angle_beta	102.130661
_cell_angle_gamma	95.899663
loop_
_atom_site_label
_atom_site_type_symbol
_atom_site_fract_x
_atom_site_fract_y
_atom_site_fract_z
O1	O	-0.160392	1.104076	-0.101526
O2	O	-0.180352	0.862131	-0.104692
O3	O	0.011278	0.988683	-0.074409
O4	O	-0.352022	0.977524	-0.131810
O5	O	0.011281	0.988674	0.078073
O6	O	-0.180349	0.862122	0.047789
O7	O	-0.160389	1.104067	0.050955
Cu8	Cu	-0.170369	0.983094	0.063295
Cu9	Cu	-0.170372	0.983104	-0.117032
O10	O	-0.352019	0.977515	0.020672
C11	C	-0.179542	0.831147	-0.028325
C12	C	-0.177118	0.738838	-0.027947
C13	C	-0.282903	0.430463	-0.044645
C14	C	-0.285192	0.517196	-0.045012
C15	C	-0.057830	0.535730	-0.009101
C16	C	-0.055541	0.448998	-0.008741
C17	C	-0.168082	0.396366	-0.026509
C18	C	-0.172659	0.569832	-0.027236
C19	C	-0.175141	0.663873	-0.027634
C20	C	-0.165601	0.302319	-0.026113
C21	C	-0.398509	0.978332	-0.062914
C22	C	-0.537031	0.980763	-0.084800
C23	C	-0.598787	0.981843	-0.015568
C24	C	-0.741957	0.984355	-0.038187
C25	C	0.057768	0.987866	0.009175
C26	C	0.196290	0.985435	0.031055
C27	C	-0.161199	1.135051	-0.025414
C28	C	-0.163623	1.227360	-0.025798
N29	N	-0.170366	0.983092	0.190127
N30	N	-0.170366	0.983112	-0.243862
C31	C	-0.085540	1.039148	0.438539
C32	C	-0.085537	1.039151	0.534520
C33	C	-0.255195	0.927050	0.507719
C34	C	-0.255191	0.927044	0.411740
C35	C	-0.170365	0.983098	0.377152
C36	C	-0.170366	0.983106	0.569113
C37	C	-0.170363	0.983108	0.673180
C38	C	-0.170366	0.983095	0.273078
H39	H	-0.378691	0.544953	-0.059781
H40	H	-0.545667	0.980902	0.060449
H41	H	0.037965	0.421237	0.006026
O42	O	-0.404278	0.373692	-0.063819
H43	H	-0.484504	0.411976	-0.076501
H44	H	-0.795074	0.985285	-0.114209
H45	H	-0.590153	0.981693	-0.160818
O46	O	-0.733370	0.984202	0.131761
H47	H	-0.631956	0.982431	0.133727
H48	H	-0.016468	1.084790	0.410381
O49	O	0.005950	1.099605	0.600734
H50	H	-0.046602	1.140303	0.636161
O51	O	0.063551	0.592496	0.010081
H52	H	0.042673	0.658535	0.006797
O53	O	-0.346698	0.866603	0.545021
H54	H	-0.332463	0.876029	0.622072
O55	O	-0.346688	0.866591	0.345518
H56	H	-0.405687	0.827623	0.385689
