data_functionalizedCrystal
_audit_creation_method	'MofGen! by Chris Wilmer'
_symmetry_space_group_name_H-M	'P1'
_symmetry_Int_Tables_number	1
_symmetry_cell_setting	triclinic
loop_
_symmetry_equiv_pos_as_xyz
  x,y,z
_cell_length_a	10.654545
_cell_length_b	17.699083
_cell_length_c	9.730223
_cell_angle_alpha	89.994713
_cell_angle_beta	89.997167
_cell_angle_gamma	83.883047
loop_
_atom_site_label
_atom_site_type_symbol
_atom_site_fract_x
_atom_site_fract_y
_atom_site_fract_z
O1	O	1.665982	0.106286	-0.114279
O2	O	2.165982	0.606286	0.385721
O3	O	1.300325	0.116418	-0.114285
O4	O	1.800325	0.616418	0.385715
O5	O	1.493484	0.001228	-0.114270
O6	O	1.993484	0.501228	0.385730
O7	O	1.472823	0.221476	-0.114295
O8	O	1.972823	0.721476	0.385705
O9	O	1.493472	0.001225	0.114310
O10	O	1.993472	0.501225	0.614310
O11	O	1.300313	0.116414	0.114295
O12	O	1.800313	0.616414	0.614295
O13	O	1.665970	0.106283	0.114301
O14	O	2.165970	0.606283	0.614301
Zn15	Zn	1.483139	0.111348	0.150590
Zn16	Zn	1.983139	0.611348	0.650590
Zn17	Zn	1.483156	0.111352	-0.150574
Zn18	Zn	1.983156	0.611352	0.349426
O19	O	1.472811	0.221472	0.114285
O20	O	1.972811	0.721472	0.614285
C21	C	1.253534	0.115673	0.000004
C22	C	1.753534	0.615673	0.500004
C23	C	1.114130	0.113449	0.000002
C24	C	1.614130	0.613449	0.500002
C25	C	1.048637	0.112401	0.124602
C26	C	1.548637	0.612401	0.624602
C27	C	0.917654	0.110299	0.124602
C28	C	1.417654	0.610299	0.624602
C29	C	0.917668	0.110298	-0.124608
C30	C	1.417668	0.610298	0.375392
C31	C	1.048649	0.112394	-0.124607
C32	C	1.548649	0.612394	0.375393
C33	C	1.492738	-0.026975	0.000020
C34	C	1.992738	0.473025	0.500020
C35	C	1.490517	-0.111007	0.000021
C36	C	1.990517	0.388993	0.500021
C37	C	1.603897	-0.158908	0.000024
C38	C	2.103897	0.341092	0.500024
C39	C	1.601803	-0.237865	0.000012
C40	C	2.101803	0.262135	0.500012
C41	C	1.486327	-0.268919	0.000006
C42	C	1.986327	0.231081	0.500006
C43	C	1.372938	-0.221011	-0.000002
C44	C	1.872938	0.278989	0.499998
C45	C	1.375033	-0.142056	0.000001
C46	C	1.875033	0.357944	0.500001
C47	C	1.364484	-0.539428	-0.000013
C48	C	1.864484	-0.039428	0.499987
C49	C	1.362397	-0.618389	-0.000011
C50	C	1.862397	-0.118389	0.499989
C51	C	1.591253	-0.635237	-0.000001
C52	C	2.091253	-0.135237	0.499999
C53	C	1.593348	-0.556282	0.000001
C54	C	2.093348	-0.056282	0.500001
C55	C	1.479960	-0.508381	-0.000014
C56	C	1.979960	-0.008381	0.499986
C57	C	1.482233	-0.422768	-0.000004
C58	C	1.982233	0.077232	0.499996
C59	C	1.484053	-0.354531	0.000005
C60	C	1.984053	0.145469	0.500005
C61	C	1.712761	0.107028	0.000008
C62	C	2.212761	0.607028	0.500008
C63	C	1.852165	0.109251	0.000001
C64	C	2.352165	0.609251	0.500001
C65	C	1.473557	0.249676	-0.000008
C66	C	1.973557	0.749676	0.499992
C67	C	1.475778	0.333708	-0.000017
C68	C	1.975778	0.833708	0.499983
N69	N	1.483137	0.111345	0.356126
N70	N	1.983137	0.611345	0.856126
N71	N	1.483167	0.111350	-0.356111
N72	N	1.983167	0.611350	0.143889
C73	C	1.568697	0.060361	0.428059
C74	C	2.068697	0.560361	0.928059
C75	C	1.568709	0.060361	0.571942
C76	C	2.068709	0.560361	1.071942
C77	C	1.397599	0.162336	0.571947
C78	C	1.897599	0.662336	1.071947
C79	C	1.397581	0.162332	0.428066
C80	C	1.897581	0.662332	0.928066
H81	H	0.864335	0.109446	0.226064
H82	H	1.364335	0.609446	0.726064
H83	H	1.282707	-0.103055	-0.000003
H84	H	1.782707	0.396945	0.499997
H85	H	1.327943	0.203850	0.630535
H86	H	1.827943	0.703850	1.130535
C87	C	1.720380	-0.522128	0.000008
C88	C	2.220380	-0.022128	0.500008
N89	N	1.816064	-0.496404	0.000007
N90	N	2.316064	0.003596	0.500007
C91	C	1.235358	-0.652546	-0.000029
C92	C	1.735358	-0.152546	0.499971
N93	N	1.139678	-0.678273	-0.000044
N94	N	1.639678	-0.178273	0.499956
H95	H	1.101947	0.113260	0.226067
H96	H	1.601947	0.613260	0.726067
C97	C	1.730932	-0.124757	0.000031
C98	C	2.230932	0.375243	0.500031
N99	N	1.826618	-0.099037	0.000030
N100	N	2.326618	0.400963	0.500030
H101	H	1.694128	-0.276864	0.000018
H102	H	2.194128	0.223136	0.500018
H103	H	1.683579	-0.674247	0.000004
H104	H	2.183579	-0.174247	0.500004
H105	H	1.272156	-0.500437	-0.000025
H106	H	1.772156	-0.000437	0.499975
H107	H	1.638360	0.018843	0.369488
H108	H	2.138360	0.518843	0.869488
C109	C	0.845626	0.109143	-0.261671
C110	C	1.345626	0.609143	0.238329
N111	N	0.791365	0.108275	-0.364910
N112	N	1.291365	0.608275	0.135090
C113	C	1.245913	-0.255173	0.000003
C114	C	1.745913	0.244827	0.500003
N115	N	1.150235	-0.280903	0.000017
N116	N	1.650235	0.219097	0.500017
C117	C	1.662822	0.004268	0.651061
C118	C	2.162822	0.504268	1.151061
N119	N	1.733707	-0.037986	0.710653
N120	N	2.233707	0.462014	1.210653
H121	H	1.327902	0.203849	0.369495
H122	H	1.827902	0.703849	0.869495
H123	H	1.101976	0.113246	-0.226077
H124	H	1.601976	0.613246	0.273923
