data_functionalizedCrystal
_audit_creation_method	'MofGen! by Chris Wilmer'
_symmetry_space_group_name_H-M	'P1'
_symmetry_Int_Tables_number	1
_symmetry_cell_setting	triclinic
loop_
_symmetry_equiv_pos_as_xyz
  x,y,z
_cell_length_a	13.897448
_cell_length_b	14.908571
_cell_length_c	14.908308
_cell_angle_alpha	89.824947
_cell_angle_beta	93.267188
_cell_angle_gamma	93.286109
loop_
_atom_site_label
_atom_site_type_symbol
_atom_site_fract_x
_atom_site_fract_y
_atom_site_fract_z
Zn1	Zn	-0.503381	-1.345318	-0.587582
Zn2	Zn	-0.003381	-0.845318	-0.087582
Zn3	Zn	-0.655952	-1.353905	-0.437223
Zn4	Zn	-0.155952	-0.853905	0.062777
Zn5	Zn	-0.484854	-1.203632	-0.428580
Zn6	Zn	0.015146	-0.703632	0.071420
Zn7	Zn	-0.654806	-1.194933	-0.578874
Zn8	Zn	-0.154806	-0.694933	-0.078874
O9	O	-0.574748	-1.274447	-0.508065
O10	O	-0.074748	-0.774447	-0.008065
O11	O	-0.531853	-1.472283	-0.574898
O12	O	-0.031853	-0.972283	-0.074898
O13	O	-0.625981	-1.341206	-0.310251
O14	O	-0.125981	-0.841206	0.189749
O15	O	-0.352335	-1.222474	-0.449699
O16	O	0.147665	-0.722474	0.050301
O17	O	-0.643947	-1.478592	-0.464429
O18	O	-0.143947	-0.978592	0.035571
O19	O	-0.365946	-1.326570	-0.566518
O20	O	0.134054	-0.826570	-0.066518
O21	O	-0.500276	-1.230801	-0.303902
O22	O	-0.000276	-0.730801	0.196098
O23	O	-0.499165	-1.076652	-0.441256
O24	O	0.000835	-0.576652	0.058744
O25	O	-0.641993	-1.207647	-0.705854
O26	O	-0.141993	-0.707647	-0.205854
O27	O	-0.624028	-1.070260	-0.551676
O28	O	-0.124028	-0.570260	-0.051676
O29	O	-0.530742	-1.318134	-0.712252
O30	O	-0.030742	-0.818134	-0.212252
O31	O	-0.790777	-1.332770	-0.455986
O32	O	-0.290777	-0.832770	0.044014
O33	O	-0.789935	-1.215974	-0.560056
O34	O	-0.289935	-0.715974	-0.060056
C35	C	-0.825357	-1.274383	-0.508035
C36	C	-0.325357	-0.774383	-0.008035
C37	C	-0.932575	-1.274436	-0.508057
C38	C	-0.432575	-0.774436	-0.008057
C39	C	-0.559463	-1.040831	-0.494584
C40	C	-0.059463	-0.540831	0.005416
C41	C	-0.552948	-0.940888	-0.488838
C42	C	-0.052948	-0.440888	0.011162
C43	C	-0.588307	-1.260963	-0.742590
C44	C	-0.088307	-0.760963	-0.242590
C45	C	-0.594084	-1.255216	-0.842531
C46	C	-0.094084	-0.755216	-0.342531
C47	C	-1.128880	-1.274527	-0.508119
C48	C	-0.628880	-0.774527	-0.008119
C49	C	-1.019642	-1.274474	-0.508087
C50	C	-0.519642	-0.774474	-0.008087
C51	C	-0.323164	-1.274535	-0.508116
C52	C	0.176836	-0.774535	-0.008116
C53	C	-0.215954	-1.274572	-0.508138
C54	C	0.284046	-0.774572	-0.008138
C55	C	-0.590094	-1.508975	-0.521599
C56	C	-0.090094	-1.008975	-0.021599
C57	C	-0.596634	-1.608918	-0.527367
C58	C	-0.096634	-1.108918	-0.027367
C59	C	-0.670908	-0.746485	-0.592867
C60	C	-0.170908	-0.246485	-0.092867
C61	C	-0.664790	-0.652579	-0.587471
C62	C	-0.164790	-0.152579	-0.087471
C63	C	-0.534590	-0.659168	-0.472656
C64	C	-0.034590	-0.159168	0.027344
C65	C	-0.540708	-0.753074	-0.478051
C66	C	-0.040708	-0.253074	0.021949
C67	C	-0.608870	-0.796729	-0.538158
C68	C	-0.108870	-0.296729	-0.038158
C69	C	-0.614992	-0.890637	-0.543549
C70	C	-0.114992	-0.390637	-0.043549
C71	C	-0.484788	-0.897224	-0.428738
C72	C	0.015212	-0.397224	0.071262
C73	C	-0.478670	-0.803318	-0.423343
C74	C	0.021330	-0.303318	0.076657
C75	C	-0.489073	-1.359466	-1.036993
C76	C	0.010927	-0.859466	-0.536993
C77	C	-0.494498	-1.354070	-1.130897
C78	C	0.005502	-0.854070	-0.630897
C79	C	-0.610355	-1.239023	-1.124242
C80	C	-0.110355	-0.739023	-0.624242
C81	C	-0.604930	-1.244420	-1.030339
C82	C	-0.104930	-0.744420	-0.530339
C83	C	-0.544287	-1.304644	-0.986718
C84	C	-0.044287	-0.804644	-0.486718
C85	C	-0.538868	-1.310044	-0.892813
C86	C	-0.038868	-0.810044	-0.392813
C87	C	-0.654719	-1.194994	-0.886160
C88	C	-0.154719	-0.694994	-0.386160
C89	C	-0.660144	-1.189597	-0.980064
C90	C	-0.160144	-0.689597	-0.480064
C91	C	-0.561177	-1.287931	-0.274455
C92	C	-0.061177	-0.787931	0.225545
C93	C	-0.555139	-1.293851	-0.174525
C94	C	-0.055139	-0.793851	0.325475
H95	H	-0.670495	-0.926180	-0.592489
H96	H	-0.170495	-0.426180	-0.092489
N97	N	-0.740547	-0.791070	-0.654253
N98	N	-0.240547	-0.291070	-0.154253
N99	N	-0.795942	-0.746198	-0.703089
N100	N	-0.295942	-0.246198	-0.203089
H101	H	-0.845129	-0.777685	-0.746443
H102	H	-0.345129	-0.277685	-0.246443
H103	H	-0.479089	-0.623607	-0.423726
H104	H	0.020911	-0.123607	0.076274
N105	N	-0.711108	-1.138973	-0.834807
N106	N	-0.211108	-0.638973	-0.334807
N107	N	-0.699889	-1.055403	-0.840511
N108	N	-0.199889	-0.555403	-0.340511
H109	H	-0.739714	-1.015839	-0.804243
H110	H	-0.239714	-0.515839	-0.304243
N111	N	-0.427137	-1.420993	-0.992445
N112	N	0.072863	-0.920993	-0.492445
N113	N	-0.377848	-1.469943	-1.037345
N114	N	0.122152	-0.969943	-0.537345
H115	H	-0.334105	-1.513399	-1.005885
H116	H	0.165895	-1.013399	-0.505885
H117	H	-0.434274	-0.938142	-0.384188
H118	H	0.065726	-0.438142	0.115812
N119	N	-0.409048	-0.758707	-0.361959
N120	N	0.090952	-0.258707	0.138041
N121	N	-0.403590	-0.674863	-0.357151
N122	N	0.096410	-0.174863	0.142849
H123	H	-0.354420	-0.643356	-0.313796
H124	H	0.145580	-0.143356	0.186204
H125	H	-0.449534	-1.398709	-1.171828
H126	H	0.050466	-0.898709	-0.671828
H127	H	-0.659727	-1.189991	-1.159775
H128	H	-0.159727	-0.689991	-0.659775
N129	N	-0.476926	-1.371568	-0.848267
N130	N	0.023074	-0.871568	-0.348267
N131	N	-0.427631	-1.420509	-0.893172
N132	N	0.072369	-0.920509	-0.393172
H133	H	-0.383880	-1.463961	-0.861714
H134	H	0.116120	-0.963961	-0.361714
H135	H	-0.715306	-0.611674	-0.632022
H136	H	-0.215306	-0.111674	-0.132022
N137	N	-0.722074	-1.128083	-1.024639
N138	N	-0.222074	-0.628083	-0.524639
N139	N	-0.726908	-1.123268	-1.108481
N140	N	-0.226908	-0.623268	-0.608481
H141	H	-0.770649	-1.079823	-1.139962
H142	H	-0.270649	-0.579823	-0.639962
