data_functionalizedCrystal
_audit_creation_method	'MofGen! by Chris Wilmer'
_symmetry_space_group_name_H-M	'P1'
_symmetry_Int_Tables_number	1
_symmetry_cell_setting	triclinic
loop_
_symmetry_equiv_pos_as_xyz
  x,y,z
_cell_length_a	19.188929
_cell_length_b	19.288864
_cell_length_c	17.766277
_cell_angle_alpha	89.976791
_cell_angle_beta	90.028158
_cell_angle_gamma	96.859491
loop_
_atom_site_label
_atom_site_type_symbol
_atom_site_fract_x
_atom_site_fract_y
_atom_site_fract_z
O1	O	-0.087099	0.921360	-0.062871
O2	O	0.412901	1.421360	0.437129
O3	O	-0.098849	0.719100	-0.062825
O4	O	0.401151	1.219100	0.437175
O5	O	0.008682	0.826066	-0.062803
O6	O	0.508682	1.326066	0.437197
O7	O	-0.194630	0.814393	-0.062893
O8	O	0.305370	1.314393	0.437107
O9	O	0.008688	0.826048	0.062386
O10	O	0.508688	1.326048	0.562386
O11	O	-0.098843	0.719081	0.062364
O12	O	0.401157	1.219081	0.562364
O13	O	-0.087094	0.921341	0.062317
O14	O	0.412906	1.421341	0.562317
Cu15	Cu	-0.092968	0.820209	0.073771
Cu16	Cu	0.407032	1.320209	0.573771
Cu17	Cu	-0.092974	0.820231	-0.074279
Cu18	Cu	0.407026	1.320231	0.425721
O19	O	-0.194625	0.814374	0.062295
O20	O	0.305375	1.314374	0.562295
C21	C	-0.098468	0.693214	-0.000224
C22	C	0.401532	1.193214	0.499776
C23	C	-0.097333	0.616110	-0.000203
C24	C	0.402667	1.116110	0.499797
C25	C	-0.160427	0.571419	-0.000243
C26	C	0.339573	1.071419	0.499757
C27	C	-0.159361	0.498972	-0.000251
C28	C	0.340639	0.998972	0.499749
C29	C	-0.095197	0.471219	-0.000234
C30	C	0.404803	0.971219	0.499766
C31	C	-0.032095	0.515921	-0.000190
C32	C	0.467905	1.015921	0.499810
C33	C	-0.033163	0.588366	-0.000175
C34	C	0.466837	1.088366	0.499825
C35	C	-0.044759	0.362960	-0.044096
C36	C	0.455241	0.862960	0.455904
C37	C	-0.043694	0.290515	-0.044116
C38	C	0.456306	0.790515	0.455884
C39	C	-0.091900	0.247773	-0.000278
C40	C	0.408100	0.747773	0.499722
C41	C	-0.141184	0.277483	0.043570
C42	C	0.358816	0.777483	0.543570
C43	C	-0.142252	0.349929	0.043585
C44	C	0.357748	0.849929	0.543585
C45	C	-0.094032	0.392665	-0.000250
C46	C	0.405968	0.892665	0.499750
C47	C	-0.153843	0.124526	-0.000326
C48	C	0.346157	0.624526	0.499674
C49	C	-0.152774	0.052078	-0.000329
C50	C	0.347226	0.552078	0.499671
C51	C	-0.025506	0.069028	-0.000275
C52	C	0.474494	0.569028	0.499725
C53	C	-0.026576	0.141475	-0.000265
C54	C	0.473424	0.641475	0.499735
C55	C	-0.090747	0.169219	-0.000293
C56	C	0.409253	0.669219	0.499707
C57	C	-0.220638	0.814762	-0.000311
C58	C	0.279362	1.314762	0.499689
C59	C	-0.298143	0.815896	-0.000347
C60	C	0.201857	1.315896	0.499653
C61	C	-0.343071	0.753132	-0.000317
C62	C	0.156929	1.253132	0.499683
C63	C	-0.415895	0.754198	-0.000301
C64	C	0.084105	1.254198	0.499699
C65	C	-0.443787	0.818032	-0.000298
C66	C	0.056213	1.318032	0.499702
C67	C	-0.398848	0.880805	-0.000332
C68	C	0.101152	1.380805	0.499668
C69	C	-0.326026	0.879737	-0.000357
C70	C	0.173974	1.379737	0.499643
N71	N	-0.551750	0.866819	0.042342
N72	N	-0.051750	1.366819	0.542342
N73	N	-0.620928	0.867829	0.042367
N74	N	-0.120928	1.367829	0.542367
C75	C	-0.663195	0.821254	-0.000227
C76	C	-0.163195	1.321254	0.499773
N77	N	-0.633672	0.773619	-0.042837
N78	N	-0.133672	1.273619	0.457163
N79	N	-0.564487	0.772607	-0.042858
N80	N	-0.064487	1.272607	0.457142
C81	C	-0.522749	0.819197	-0.000273
C82	C	-0.022749	1.319197	0.499727
C83	C	-0.787088	0.759641	-0.000180
C84	C	-0.287088	1.259641	0.499820
C85	C	-0.859913	0.760709	-0.000168
C86	C	-0.359913	1.260709	0.499832
C87	C	-0.842865	0.887318	-0.000192
C88	C	-0.342865	1.387318	0.499808
C89	C	-0.770042	0.886248	-0.000212
C90	C	-0.270042	1.386248	0.499788
C91	C	-0.742158	0.822407	-0.000202
C92	C	-0.242158	1.322407	0.499798
C93	C	0.034696	0.825679	-0.000198
C94	C	0.534696	1.325679	0.499802
C95	C	0.112200	0.824544	-0.000167
C96	C	0.612200	1.324544	0.499833
C97	C	-0.087475	0.947227	-0.000286
C98	C	0.412525	1.447227	0.499714
C99	C	-0.088609	1.024330	-0.000311
C100	C	0.411391	1.524330	0.499689
N101	N	-0.092963	0.820199	0.177902
N102	N	0.407037	1.320199	0.677902
N103	N	-0.092974	0.820247	-0.178409
N104	N	0.407026	1.320247	0.321591
C105	C	-0.045372	0.867579	0.217298
C106	C	0.454628	1.367579	0.717298
C107	C	-0.045368	0.867583	0.296100
C108	C	0.454632	1.367583	0.796100
C109	C	-0.092969	0.820213	0.335502
C110	C	0.407031	1.320213	0.835502
C111	C	-0.140564	0.772824	0.296096
C112	C	0.359436	1.272824	0.796096
C113	C	-0.140561	0.772817	0.217296
C114	C	0.359439	1.272817	0.717296
C115	C	-0.156585	0.810919	0.460313
C116	C	0.343415	1.310919	0.960313
C117	C	-0.156589	0.810931	0.539112
C118	C	0.343411	1.310931	1.039112
C119	C	-0.092977	0.820232	0.578548
C120	C	0.407023	1.320232	1.078548
C121	C	-0.029359	0.829535	0.539176
C122	C	0.470641	1.329535	1.039176
C123	C	-0.029356	0.829528	0.460376
C124	C	0.470644	1.329528	0.960376
C125	C	-0.092977	0.820216	0.420948
C126	C	0.407023	1.320216	0.920948
C127	C	-0.045378	0.867619	0.703391
C128	C	0.454622	1.367619	1.203391
C129	C	-0.045374	0.867618	0.782194
C130	C	0.454626	1.367618	1.282194
C131	C	-0.140575	0.772863	0.782189
C132	C	0.359425	1.272863	1.282189
C133	C	-0.140573	0.772861	0.703387
C134	C	0.359427	1.272861	1.203387
C135	C	-0.092976	0.820242	0.663993
C136	C	0.407024	1.320242	1.163993
H137	H	-0.212680	0.594003	-0.000268
H138	H	0.287320	1.094003	0.499732
O139	O	-0.721575	0.953944	-0.000226
O140	O	-0.221575	1.453944	0.499774
H141	H	-0.753202	0.998512	-0.000214
H142	H	-0.253202	1.498512	0.499786
O143	O	0.037113	0.485995	-0.000172
O144	O	0.537113	0.985995	0.499828
H145	H	0.027257	0.428110	-0.000197
H146	H	0.527257	0.928110	0.499803
H147	H	0.022440	0.837108	0.571284
H148	H	0.522440	1.337108	1.071284
O149	O	-0.227413	0.450752	-0.000296
O150	O	0.272587	0.950752	0.499704
H151	H	-0.258126	0.460615	-0.051338
H152	H	0.241874	0.960615	0.448662
O153	O	-0.191926	0.721790	0.824690
O154	O	0.308074	1.221790	1.324690
H155	H	-0.246327	0.730484	0.809522
H156	H	0.253673	1.230484	1.309522
H157	H	-0.006613	0.906158	0.185226
H158	H	0.493387	1.406158	0.685226
H159	H	-0.179319	0.734254	0.328181
H160	H	0.320681	1.234254	0.828181
O161	O	-0.195393	0.381987	0.090879
O162	O	0.304607	0.881987	0.590879
H163	H	-0.167612	0.418736	0.132071
H164	H	0.332388	0.918736	0.632071
H165	H	-0.179316	0.734234	0.185218
H166	H	0.320684	1.234234	0.685218
H167	H	-0.006619	0.906198	0.671315
H168	H	0.493381	1.406198	1.171315
O169	O	-0.193182	0.231396	0.090863
O170	O	0.306818	0.731396	0.590863
H171	H	-0.184156	0.176030	0.083496
H172	H	0.315844	0.676030	0.583496
H173	H	-0.206094	0.147116	-0.000338
H174	H	0.293906	0.647116	0.499662
O175	O	-0.220829	0.003868	-0.000369
O176	O	0.279171	0.503868	0.499631
H177	H	-0.265626	0.035335	-0.000393
H178	H	0.234374	0.535335	0.499607
O179	O	0.034895	0.636572	-0.000136
O180	O	0.534895	1.136572	0.499864
H181	H	0.037454	0.669952	0.050899
H182	H	0.537454	1.169952	0.550899
O183	O	-0.191908	0.721756	0.660893
O184	O	0.308092	1.221756	1.160893
H185	H	-0.183904	0.729703	0.599479
H186	H	0.316096	1.229703	1.099479
H187	H	-0.208389	0.803334	0.428211
H188	H	0.291611	1.303334	0.928211
O189	O	-0.225201	0.800912	0.581577
O190	O	0.274799	1.300912	1.081577
H191	H	-0.269434	0.794434	0.540918
H192	H	0.230566	1.294434	1.040918
O193	O	0.005957	0.918694	0.338607
O194	O	0.505957	1.418694	0.838607
H195	H	0.039050	0.951644	0.297975
H196	H	0.539050	1.451644	0.797975
H197	H	0.022444	0.837101	0.428322
H198	H	0.522444	1.337101	0.928322
O199	O	-0.277562	0.947437	-0.000384
O200	O	0.222438	1.447437	0.499616
H201	H	-0.243940	0.949965	0.050629
H202	H	0.256060	1.449965	0.550629
H203	H	-0.006616	0.906199	0.814271
H204	H	0.493384	1.406199	1.314271
O205	O	0.043703	0.039108	-0.000257
O206	O	0.543703	0.539108	0.499743
H207	H	0.033847	-0.018777	-0.000278
H208	H	0.533847	0.481223	0.499722
H209	H	-0.764384	0.707658	-0.000168
H210	H	-0.264384	1.207658	0.499832
H211	H	0.024802	0.177864	-0.000236
H212	H	0.524802	0.677864	0.499764
H213	H	-0.003566	0.266331	-0.079823
H214	H	0.496434	0.766331	0.420177
O215	O	-0.464363	0.686497	-0.000261
O216	O	0.035637	1.186497	0.499739
H217	H	-0.519685	0.697966	-0.000248
H218	H	-0.019685	1.197966	0.499752
O219	O	-0.312995	0.684279	-0.000312
O220	O	0.187005	1.184279	0.499688
H221	H	-0.356476	0.640813	-0.000294
H222	H	0.143524	1.140813	0.499706
O223	O	-0.872945	0.956167	-0.000195
O224	O	-0.372945	1.456167	0.499805
H225	H	-0.854921	0.986318	-0.051235
H226	H	-0.354921	1.486318	0.448765
O227	O	-0.428925	0.949657	-0.000328
O228	O	0.071075	1.449657	0.499672
H229	H	-0.487111	0.939856	-0.000298
H230	H	0.012889	1.439856	0.499702
O231	O	0.007237	0.409063	-0.091379
O232	O	0.507237	0.909063	0.408621
H233	H	0.000227	0.394238	-0.151508
H234	H	0.500227	0.894238	0.348492
O235	O	-0.908378	0.693010	-0.000128
O236	O	-0.408378	1.193010	0.499872
H237	H	-0.876751	0.648442	-0.000116
H238	H	-0.376751	1.148442	0.499884
