data_functionalizedCrystal
_audit_creation_method	'MofGen! by Chris Wilmer'
_symmetry_space_group_name_H-M	'P1'
_symmetry_Int_Tables_number	1
_symmetry_cell_setting	triclinic
loop_
_symmetry_equiv_pos_as_xyz
  x,y,z
_cell_length_a	19.077236
_cell_length_b	19.121063
_cell_length_c	19.076919
_cell_angle_alpha	94.606347
_cell_angle_beta	89.887323
_cell_angle_gamma	94.855924
loop_
_atom_site_label
_atom_site_type_symbol
_atom_site_fract_x
_atom_site_fract_y
_atom_site_fract_z
Zn1	Zn	1.046920	-0.255828	-0.451002
Zn2	Zn	1.546920	0.244172	0.048998
Zn3	Zn	1.046539	-0.368770	-0.338113
Zn4	Zn	1.546539	0.131230	0.161887
Zn5	Zn	0.934152	-0.255459	-0.328767
Zn6	Zn	1.434152	0.244541	0.171233
Zn7	Zn	0.923941	-0.378172	-0.451236
Zn8	Zn	1.423941	0.121828	0.048764
O9	O	0.987888	-0.314557	-0.392279
O10	O	1.487888	0.185443	0.107721
O11	O	1.145371	-0.267030	-0.439841
O12	O	1.645371	0.232970	0.060159
O13	O	1.035745	-0.349650	-0.238375
O14	O	1.535745	0.150350	0.261625
O15	O	0.953543	-0.156885	-0.340972
O16	O	1.453543	0.343115	0.159028
O17	O	1.145091	-0.350008	-0.356902
O18	O	1.645091	0.149992	0.143098
O19	O	1.036393	-0.157156	-0.430778
O20	O	1.536393	0.342844	0.069222
O21	O	0.953174	-0.266400	-0.231509
O22	O	1.453174	0.233600	0.268491
O23	O	0.834295	-0.275517	-0.341199
O24	O	1.334295	0.224483	0.158801
O25	O	0.936140	-0.366033	-0.549703
O26	O	1.436140	0.133967	-0.049703
O27	O	0.826793	-0.365674	-0.431176
O28	O	1.326793	0.134326	0.068824
O29	O	1.026492	-0.276147	-0.549531
O30	O	1.526492	0.223853	-0.049531
O31	O	1.025844	-0.468640	-0.357129
O32	O	1.525844	0.031360	0.142871
O33	O	0.935771	-0.475548	-0.440239
O34	O	1.435771	0.024452	0.059761
C35	C	0.805004	-0.321576	-0.385199
C36	C	1.305004	0.178424	0.114801
C37	C	0.726764	-0.324597	-0.382188
C38	C	1.226764	0.175403	0.117812
C39	C	0.690147	-0.282888	-0.424026
C40	C	1.190147	0.217112	0.075974
C41	C	0.616632	-0.285723	-0.421191
C42	C	1.116632	0.214277	0.078809
C43	C	0.579736	-0.330270	-0.376519
C44	C	1.079736	0.169730	0.123481
C45	C	0.616359	-0.371980	-0.334676
C46	C	1.116359	0.128020	0.165324
C47	C	0.689872	-0.369142	-0.337509
C48	C	1.189872	0.130858	0.162491
C49	C	0.359860	-0.343381	-0.363406
C50	C	0.859860	0.156619	0.136594
C51	C	0.286341	-0.346218	-0.360578
C52	C	0.786341	0.153782	0.139422
C53	C	0.286620	-0.259959	-0.447092
C54	C	0.786620	0.240041	0.052908
C55	C	0.360135	-0.257127	-0.449924
C56	C	0.860135	0.242873	0.050076
C57	C	0.396751	-0.298835	-0.408078
C58	C	0.896751	0.201165	0.091922
N59	N	0.504593	-0.333170	-0.373621
N60	N	1.004593	0.166830	0.126379
N61	N	0.471894	-0.295931	-0.410973
N62	N	0.971894	0.204069	0.089027
C63	C	0.979677	-0.497666	-0.399740
C64	C	1.479677	0.002334	0.100260
C65	C	0.976227	-0.575999	-0.402957
C66	C	1.476227	-0.075999	0.097043
C67	C	1.021536	-0.609180	-0.361236
C68	C	1.521536	-0.109180	0.138764
C69	C	1.018296	-0.682783	-0.364266
C70	C	1.518296	-0.182783	0.135734
C71	C	0.969743	-0.723203	-0.409014
C72	C	1.469743	-0.223203	0.090986
C73	C	0.924432	-0.690016	-0.450740
C74	C	1.424432	-0.190016	0.049260
C75	C	0.927676	-0.616415	-0.447713
C76	C	1.427676	-0.116415	0.052287
C77	C	0.957603	-0.945612	-0.420321
C78	C	1.457603	-0.445612	0.079679
C79	C	0.954361	-1.019218	-0.423343
C80	C	1.454361	-0.519218	0.076657
C81	C	1.048226	-1.011979	-0.336870
C82	C	1.548226	-0.511979	0.163130
C83	C	1.051463	-0.938377	-0.333843
C84	C	1.551463	-0.438377	0.166157
C85	C	1.006155	-0.905197	-0.375572
C86	C	1.506155	-0.405197	0.124428
C87	C	0.966428	-0.798436	-0.412111
C88	C	1.466428	-0.298436	0.087889
C89	C	1.009473	-0.829965	-0.372478
C90	C	1.509473	-0.329965	0.127522
C91	C	1.171486	-0.307511	-0.399388
C92	C	1.671486	0.192489	0.100612
C93	C	1.249724	-0.304509	-0.402417
C94	C	1.749724	0.195491	0.097583
C95	C	0.980219	-0.322180	-0.575870
C96	C	1.480219	0.177820	-0.075870
C97	C	0.976952	-0.325428	-0.654106
C98	C	1.476952	0.174572	-0.154106
C99	C	0.996150	-0.130734	-0.384806
C100	C	1.496150	0.369266	0.115194
C101	C	0.999670	-0.052399	-0.381622
C102	C	1.499670	0.447601	0.118378
C103	C	1.022455	-0.280158	-0.690773
C104	C	1.522455	0.219842	-0.190773
C105	C	1.019376	-0.283207	-0.764283
C106	C	1.519376	0.216793	-0.264283
C107	C	0.970797	-0.331531	-0.801125
C108	C	1.470797	0.168469	-0.301125
C109	C	0.925288	-0.376804	-0.764453
C110	C	1.425288	0.123196	-0.264453
C111	C	0.928364	-0.373750	-0.690944
C112	C	1.428364	0.126250	-0.190944
C113	C	0.956549	-0.345679	-1.020983
C114	C	1.456549	0.154321	-0.520983
C115	C	0.953478	-0.348731	-1.094497
C116	C	1.453478	0.151269	-0.594497
C117	C	1.047566	-0.255133	-1.094322
C118	C	1.547566	0.244867	-0.594322
C119	C	1.050641	-0.252086	-1.020812
C120	C	1.550641	0.247914	-0.520812
C121	C	1.005130	-0.297356	-0.984146
C122	C	1.505130	0.202644	-0.484146
N123	N	0.967650	-0.334651	-0.876264
N124	N	1.467650	0.165349	-0.376264
N125	N	1.008274	-0.294232	-0.909008
N126	N	1.508274	0.205768	-0.409008
C127	C	0.995569	-0.306912	-0.209402
C128	C	1.495569	0.193088	0.290598
C129	C	0.998982	-0.303460	-0.131164
C130	C	1.498982	0.196540	0.368836
H131	H	0.586312	-0.408248	-0.298300
H132	H	1.086312	0.091752	0.201700
H133	H	0.913916	-0.388084	-1.124492
H134	H	1.413916	0.111916	-0.624492
H135	H	1.056432	-0.246345	-0.794134
H136	H	1.556432	0.253655	-0.294134
H137	H	1.090999	-0.905468	-0.297406
H138	H	1.590999	-0.405468	0.202594
H139	H	0.586822	-0.251760	-0.455262
H140	H	1.086822	0.248240	0.044738
Br141	Br	0.410203	-0.196675	-0.510559
Br142	Br	0.910203	0.303325	-0.010559
Br143	Br	0.236923	-0.203358	-0.503880
Br144	Br	0.736923	0.296642	-0.003880
H145	H	0.389664	-0.377343	-0.329333
H146	H	0.889664	0.122657	0.170667
H147	H	1.055191	-0.709796	-0.330292
H148	H	1.555191	-0.209796	0.169708
H149	H	1.061070	-0.576275	-0.324794
H150	H	1.561070	-0.076275	0.175206
H151	H	0.719685	-0.403105	-0.303439
H152	H	1.219685	0.096895	0.196561
Br153	Br	0.858544	-0.744871	-0.511477
Br154	Br	1.358544	-0.244871	-0.011477
H155	H	0.890782	-0.589400	-0.481688
H156	H	1.390782	-0.089400	0.018312
Br157	Br	0.236266	-0.406700	-0.299970
Br158	Br	0.736266	0.093300	0.200030
Br159	Br	1.109716	-1.057013	-0.280245
Br160	Br	1.609716	-0.557013	0.219755
H161	H	0.885731	-0.416148	-0.794456
H162	H	1.385731	0.083852	-0.294456
Br163	Br	0.888452	-1.074073	-0.484064
Br164	Br	1.388452	-0.574073	0.015936
Br165	Br	0.896113	-0.900591	-0.476953
Br166	Br	1.396113	-0.400591	0.023047
Br167	Br	1.088394	-0.214577	-0.640780
Br168	Br	1.588394	0.285423	-0.140780
Br169	Br	0.866602	-0.435187	-0.641180
Br170	Br	1.366602	0.064813	-0.141180
H171	H	0.919501	-0.382551	-0.991139
H172	H	1.419501	0.117449	-0.491139
Br173	Br	1.075369	-0.775109	-0.311755
Br174	Br	1.575369	-0.275109	0.188245
Br175	Br	0.740212	-0.222433	-0.484660
Br176	Br	1.240212	0.277567	0.015340
Br177	Br	1.116576	-0.186503	-0.970817
Br178	Br	1.616576	0.313497	-0.470817
H179	H	0.926895	-0.831354	-0.448544
H180	H	1.426895	-0.331354	0.051456
H181	H	1.084618	-0.218276	-1.124183
H182	H	1.584618	0.281724	-0.624183
