data_functionalizedCrystal
_audit_creation_method	'MofGen! by Chris Wilmer'
_symmetry_space_group_name_H-M	'P1'
_symmetry_Int_Tables_number	1
_symmetry_cell_setting	triclinic
loop_
_symmetry_equiv_pos_as_xyz
  x,y,z
_cell_length_a	16.120530
_cell_length_b	14.908520
_cell_length_c	14.908308
_cell_angle_alpha	83.639235
_cell_angle_beta	90.548374
_cell_angle_gamma	89.416769
loop_
_atom_site_label
_atom_site_type_symbol
_atom_site_fract_x
_atom_site_fract_y
_atom_site_fract_z
Zn1	Zn	1.217782	0.460872	-0.603406
Zn2	Zn	1.717782	0.960872	-0.103406
Zn3	Zn	1.217688	0.603512	-0.460771
Zn4	Zn	1.717688	1.103512	0.039229
Zn5	Zn	1.087711	0.444591	-0.444498
Zn6	Zn	1.587711	0.944591	0.055502
Zn7	Zn	1.070713	0.603616	-0.603530
Zn8	Zn	1.570713	1.103616	-0.103530
O9	O	1.148474	0.528147	-0.528051
O10	O	1.648474	1.028147	-0.028051
O11	O	1.333714	0.486563	-0.591244
O12	O	1.833714	0.986563	-0.091244
O13	O	1.207521	0.575573	-0.332363
O14	O	1.707521	1.075573	0.167637
O15	O	1.112119	0.320503	-0.458715
O16	O	1.612119	0.820503	0.041285
O17	O	1.333644	0.591360	-0.486450
O18	O	1.833644	1.091360	0.013550
O19	O	1.207681	0.332464	-0.575464
O20	O	1.707681	0.832464	-0.075464
O21	O	1.112028	0.458815	-0.320407
O22	O	1.612028	0.958815	0.179593
O23	O	0.969512	0.458916	-0.458835
O24	O	1.469512	0.958916	0.041165
O25	O	1.083148	0.591538	-0.729763
O26	O	1.583148	1.091538	-0.229763
O27	O	0.957024	0.575751	-0.575676
O28	O	1.457024	1.075751	-0.075676
O29	O	1.191198	0.486664	-0.729672
O30	O	1.691198	0.986664	-0.229672
O31	O	1.191038	0.729773	-0.486571
O32	O	1.691038	1.229773	0.013429
O33	O	1.083056	0.729850	-0.591456
O34	O	1.583056	1.229850	-0.091456
C35	C	1.135214	0.762548	-0.540813
C36	C	1.635214	1.262548	-0.040813
C37	C	1.129615	0.862832	-0.546308
C38	C	1.629615	1.362832	-0.046308
C39	C	0.933205	0.515579	-0.515504
C40	C	1.433205	1.015579	-0.015504
C41	C	0.841110	0.510225	-0.510159
C42	C	1.341110	1.010225	-0.010159
C43	C	1.135287	0.540929	-0.763368
C44	C	1.635287	1.040929	-0.263368
C45	C	1.129668	0.546375	-0.863645
C46	C	1.629668	1.046375	-0.363645
C47	C	0.672491	0.500429	-0.500406
C48	C	1.172491	1.000429	-0.000406
C49	C	0.625289	0.555936	-0.555766
C50	C	1.125289	1.055936	-0.055766
C51	C	0.531464	0.550486	-0.550340
C52	C	1.031464	1.050486	-0.050340
C53	C	0.766325	0.505878	-0.505831
C54	C	1.266325	1.005878	-0.005831
C55	C	1.364583	0.540766	-0.540648
C56	C	1.864583	1.040766	-0.040648
C57	C	1.456675	0.546143	-0.546016
C58	C	1.956675	1.046143	-0.046016
C59	C	1.161806	0.292834	-0.515260
C60	C	1.661806	0.792834	-0.015260
C61	C	1.167488	0.192557	-0.509810
C62	C	1.667488	0.692557	-0.009810
C63	C	1.231640	1.051146	-0.447515
C64	C	1.731640	1.551146	0.052485
C65	C	1.226383	1.145372	-0.452675
C66	C	1.726383	1.645372	0.047325
C67	C	1.113848	1.145511	-0.561791
C68	C	1.613848	1.645511	-0.061791
C69	C	1.119105	1.051285	-0.556631
C70	C	1.619105	1.551285	-0.056631
C71	C	1.178003	1.004106	-0.499490
C72	C	1.678003	1.504106	0.000510
C73	C	1.183255	0.909878	-0.494327
C74	C	1.683255	1.409878	0.005673
C75	C	1.070725	0.910020	-0.603447
C76	C	1.570725	1.410020	-0.103447
C77	C	1.065468	1.004245	-0.608607
C78	C	1.565468	1.504245	-0.108607
C79	C	1.231621	0.447384	-1.051983
C80	C	1.731621	0.947384	-0.551983
C81	C	1.226344	0.452499	-1.146203
C82	C	1.726344	0.952499	-0.646203
C83	C	1.113834	0.561714	-1.146306
C84	C	1.613834	1.061714	-0.646306
C85	C	1.119111	0.556599	-1.052086
C86	C	1.619111	1.056599	-0.552086
C87	C	1.178007	0.499433	-1.004928
C88	C	1.678007	0.999433	-0.504928
C89	C	1.183288	0.494324	-0.910707
C90	C	1.683288	0.994324	-0.410707
C91	C	1.070774	0.603534	-0.910811
C92	C	1.570774	1.103534	-0.410811
C93	C	1.065497	0.608648	-1.005031
C94	C	1.565497	1.108648	-0.505031
C95	C	1.161660	0.515354	-0.293650
C96	C	1.661660	1.015354	0.206350
C97	C	1.167454	0.509662	-0.193368
C98	C	1.667454	1.009662	0.306632
H99	H	0.655345	0.607550	-0.607238
H100	H	1.155345	1.107550	-0.107238
H101	H	1.065902	1.183941	-0.608318
H102	H	1.565902	1.683941	-0.108318
H103	H	1.279581	0.400842	-1.013587
H104	H	1.779581	0.900842	-0.513587
H105	H	1.017517	1.042671	-0.655131
H106	H	1.517517	1.542671	-0.155131
N107	N	0.632681	0.432079	-0.432218
N108	N	1.132681	0.932079	0.067782
H109	H	0.650534	0.369253	-0.443660
H110	H	1.150534	0.869253	0.056340
H111	H	0.570336	0.437922	-0.437997
H112	H	1.070336	0.937922	0.062003
H113	H	1.231210	0.871466	-0.447797
H114	H	1.731210	1.371466	0.052203
H115	H	1.279591	1.012732	-0.400982
H116	H	1.779591	1.512732	0.099018
N117	N	1.284236	1.196110	-0.396619
N118	N	1.784236	1.696110	0.103381
H119	H	1.322343	1.151922	-0.359640
H120	H	1.822343	1.651922	0.140360
H121	H	1.250701	1.231018	-0.355014
H122	H	1.750701	1.731018	0.144986
H123	H	1.027120	0.645919	-0.872489
H124	H	1.527120	1.145919	-0.372489
H125	H	1.027047	0.871708	-0.645766
H126	H	1.527047	1.371708	-0.145766
H127	H	1.231245	0.447778	-0.872313
H128	H	1.731245	0.947778	-0.372313
H129	H	1.270000	0.410112	-1.184512
H130	H	1.770000	0.910112	-0.684512
N131	N	1.050283	0.623327	-1.197173
N132	N	1.550283	1.123327	-0.697173
H133	H	1.055068	0.618653	-1.263999
H134	H	1.555068	1.118653	-0.763999
H135	H	1.060423	0.687631	-1.184983
H136	H	1.560423	1.187631	-0.684983
H137	H	1.017544	0.655189	-1.043440
H138	H	1.517544	1.155189	-0.543440
