data_functionalizedCrystal
_audit_creation_method	'MofGen! by Chris Wilmer'
_symmetry_space_group_name_H-M	'P1'
_symmetry_Int_Tables_number	1
_symmetry_cell_setting	triclinic
loop_
_symmetry_equiv_pos_as_xyz
  x,y,z
_cell_length_a	12.827893
_cell_length_b	18.050590
_cell_length_c	12.827885
_cell_angle_alpha	89.965317
_cell_angle_beta	89.980538
_cell_angle_gamma	90.018523
loop_
_atom_site_label
_atom_site_type_symbol
_atom_site_fract_x
_atom_site_fract_y
_atom_site_fract_z
Zn1	Zn	1.597649	-0.295624	-0.590813
Zn2	Zn	1.597532	-0.419832	-0.416058
Zn3	Zn	1.422889	-0.295660	-0.416087
Zn4	Zn	1.422866	-0.419777	-0.590758
O5	O	1.510234	-0.357723	-0.503429
O6	O	1.743869	-0.312108	-0.567643
O7	O	1.574327	-0.403399	-0.269826
O8	O	1.446130	-0.191731	-0.439299
O9	O	1.743784	-0.403363	-0.439251
O10	O	1.574525	-0.191704	-0.567670
O11	O	1.446018	-0.312170	-0.269847
O12	O	1.276650	-0.312117	-0.439246
O13	O	1.446090	-0.403269	-0.737002
O14	O	1.276633	-0.403304	-0.567577
O15	O	1.574502	-0.312055	-0.737042
O16	O	1.574304	-0.523749	-0.439198
O17	O	1.445977	-0.523709	-0.567549
C18	C	1.238724	-0.357709	-0.503409
C19	C	1.122571	-0.357721	-0.503426
C20	C	1.070805	-0.402914	-0.566830
C21	C	0.950755	-0.402927	-0.566848
C22	C	1.510154	-0.550675	-0.503388
C23	C	1.510215	-0.633221	-0.503405
C24	C	1.580144	-0.832667	-0.433705
C25	C	1.605674	-0.881992	-0.529080
C26	C	1.510274	-0.784351	-0.503446
C27	C	1.484851	-0.882108	-0.408114
C28	C	1.510334	-0.930337	-0.503478
C29	C	1.535853	-0.832589	-0.598872
C30	C	1.414985	-0.832701	-0.477842
C31	C	1.440479	-0.882004	-0.573282
C32	C	1.510243	-0.700253	-0.503427
C33	C	1.510365	-1.014433	-0.503509
C34	C	1.782804	-0.357738	-0.503450
C35	C	1.898957	-0.357744	-0.503459
C36	C	1.510306	-0.357652	-0.775999
C37	C	1.510337	-0.357622	-0.892153
C38	C	1.510343	-0.164018	-0.503494
C39	C	1.510390	-0.081472	-0.503521
C40	C	1.573866	-0.402713	-1.063972
C41	C	1.573835	-0.402746	-0.943921
C42	C	1.510222	-0.357741	-0.231919
C43	C	1.510394	-0.357562	-0.115767
H44	H	0.906237	-0.441621	-0.621127
N45	N	0.957898	-0.306485	-0.431543
H46	H	1.003153	-0.336647	-0.383071
H47	H	1.003153	-0.272138	-0.474204
N48	N	1.645885	-0.453883	-1.122951
H49	H	1.688240	-0.484019	-1.071892
H50	H	1.603300	-0.488209	-1.168223
H51	H	1.456029	-0.318932	-1.071233
N52	N	1.362242	-0.910508	-0.651515
H53	H	1.399084	-0.941973	-0.705170
H54	H	1.307951	-0.941325	-0.614426
N55	N	1.063559	-0.306484	-0.431531
H56	H	1.082465	-0.317945	-0.356819
H57	H	1.082543	-0.253440	-0.447959
N58	N	1.645826	-0.453948	-0.884930
H59	H	1.635570	-0.446732	-0.807532
H60	H	1.629582	-0.506993	-0.903963
H61	H	1.639251	-0.811003	-0.374787
N62	N	1.438342	-0.306417	-0.951136
H63	H	1.480875	-0.272020	-0.996441
H64	H	1.389968	-0.336672	-0.996344
H65	H	1.557301	-0.810931	-0.679575
N66	N	1.712442	-0.910687	-0.557795
H67	H	1.732215	-0.891900	-0.629300
H68	H	1.765079	-0.892741	-0.504998
H69	H	1.115363	-0.441593	-0.621102
H70	H	1.334399	-0.811031	-0.456136
N71	N	1.456328	-0.910923	-0.301311
H72	H	1.509136	-0.892976	-0.248680
H73	H	1.384824	-0.892217	-0.281508
