data_functionalizedCrystal
_audit_creation_method	'MofGen! by Chris Wilmer'
_symmetry_space_group_name_H-M	'P1'
_symmetry_Int_Tables_number	1
_symmetry_cell_setting	triclinic
loop_
_symmetry_equiv_pos_as_xyz
  x,y,z
_cell_length_a	14.044220
_cell_length_b	13.101039
_cell_length_c	14.044190
_cell_angle_alpha	86.336293
_cell_angle_beta	93.190328
_cell_angle_gamma	93.659868
loop_
_atom_site_label
_atom_site_type_symbol
_atom_site_fract_x
_atom_site_fract_y
_atom_site_fract_z
O1	O	1.281975	0.085126	0.225348
O2	O	1.005305	0.085151	0.217041
O3	O	1.139483	0.085118	0.082859
O4	O	1.147797	0.085158	0.359530
O5	O	1.129857	-0.085309	0.092504
O6	O	0.995679	-0.085277	0.226686
O7	O	1.272349	-0.085302	0.234993
Zn8	Zn	1.132486	-0.112348	0.232371
Zn9	Zn	1.145168	0.112197	0.219663
O10	O	1.138172	-0.085270	0.369174
C11	C	0.964870	-0.000060	0.218228
C12	C	0.858728	-0.000051	0.207382
N13	N	1.123838	-0.265595	0.241043
C14	C	0.664388	-0.000075	0.187557
C15	C	0.613261	-0.000068	0.264472
C16	C	0.505123	-0.000081	0.253441
C17	C	0.772535	-0.000062	0.198587
C18	C	1.112072	-0.474635	0.252851
C19	C	1.165586	-0.525523	0.199179
C20	C	1.159040	-0.641840	0.205749
C21	C	1.118618	-0.358307	0.246282
C22	C	1.312784	-0.000089	0.233806
C23	C	1.418927	-0.000091	0.244651
C24	C	1.131033	-0.000098	0.052060
C25	C	1.120185	-0.000106	-0.054083
N26	N	1.153824	0.265444	0.210984
C27	C	1.177288	-0.000071	-0.299543
C28	C	1.100371	-0.000071	-0.248418
C29	C	1.111398	-0.000091	-0.140280
C30	C	1.166262	-0.000052	-0.407691
C31	C	1.146621	-0.000051	0.399974
C32	C	1.157470	-0.000036	0.506116
H33	H	0.626948	-0.000091	0.113431
H34	H	1.251413	-0.000088	-0.262101
H35	H	0.650703	-0.000052	0.338605
H36	H	1.216319	-0.481733	0.148295
C37	C	1.043546	-0.533781	0.321598
C38	C	1.036334	-0.651776	0.327481
C39	C	0.967812	-0.710936	0.396230
C40	C	0.906503	-0.652100	0.459097
C41	C	0.913714	-0.534098	0.453216
C42	C	0.982235	-0.474939	0.384467
H43	H	1.081720	-0.695336	0.280941
H44	H	0.962475	-0.798289	0.400583
H45	H	0.855780	-0.695894	0.509989
H46	H	0.868327	-0.490539	0.499756
H47	H	0.987572	-0.387586	0.380114
C48	C	1.000220	-0.000072	-0.298993
C49	C	0.989182	-0.000068	-0.408701
C50	C	0.889034	-0.000078	-0.459281
C51	C	0.799925	-0.000094	-0.400152
C52	C	0.810960	-0.000098	-0.290437
C53	C	0.911108	-0.000087	-0.239858
H54	H	1.055149	-0.000056	-0.452478
H55	H	0.880866	-0.000075	-0.540499
H56	H	0.725790	-0.000101	-0.437594
H57	H	0.744994	-0.000109	-0.246661
H58	H	0.919276	-0.000091	-0.158640
