data_functionalizedCrystal
_audit_creation_method	'MofGen! by Chris Wilmer'
_symmetry_space_group_name_H-M	'P1'
_symmetry_Int_Tables_number	1
_symmetry_cell_setting	triclinic
loop_
_symmetry_equiv_pos_as_xyz
  x,y,z
_cell_length_a	12.759400
_cell_length_b	17.077404
_cell_length_c	12.759393
_cell_angle_alpha	90.021591
_cell_angle_beta	89.968436
_cell_angle_gamma	89.985090
loop_
_atom_site_label
_atom_site_type_symbol
_atom_site_fract_x
_atom_site_fract_y
_atom_site_fract_z
Zn1	Zn	-0.418198	-1.200116	-0.594068
Zn2	Zn	0.081802	-0.700116	-0.094068
Zn3	Zn	-0.593917	-1.200037	-0.418388
Zn4	Zn	-0.093917	-0.700037	0.081612
Zn5	Zn	-0.418253	-1.068843	-0.418398
Zn6	Zn	0.081747	-0.568843	0.081602
Zn7	Zn	-0.593836	-1.068834	-0.594020
Zn8	Zn	-0.093836	-0.568834	-0.094020
O9	O	-0.506051	-1.134457	-0.506219
O10	O	-0.006051	-0.634457	-0.006219
O11	O	-0.441518	-1.309952	-0.570780
O12	O	0.058482	-0.809952	-0.070780
O13	O	-0.570672	-1.182604	-0.271368
O14	O	-0.070672	-0.682604	0.228632
O15	O	-0.271225	-1.086293	-0.441725
O16	O	0.228775	-0.586293	0.058275
O17	O	-0.570618	-1.309894	-0.441708
O18	O	-0.070618	-0.809894	0.058292
O19	O	-0.271184	-1.182738	-0.570789
O20	O	0.228816	-0.682738	-0.070789
O21	O	-0.441612	-1.086216	-0.271376
O22	O	0.058388	-0.586216	0.228624
O23	O	-0.441534	-0.958995	-0.441679
O24	O	0.058466	-0.458995	0.058321
O25	O	-0.570481	-1.086278	-0.741048
O26	O	-0.070481	-0.586278	-0.241048
O27	O	-0.570534	-0.958988	-0.570708
O28	O	-0.070534	-0.458988	-0.070708
O29	O	-0.441440	-1.182730	-0.741083
O30	O	0.058560	-0.682730	-0.241083
O31	O	-0.740927	-1.182596	-0.441662
O32	O	-0.240927	-0.682596	0.058338
O33	O	-0.740868	-1.086202	-0.570698
O34	O	-0.240868	-0.586202	-0.070698
C35	C	-0.506032	-0.930509	-0.506190
C36	C	-0.006032	-0.430509	-0.006190
C37	C	-0.506049	-0.843260	-0.506202
C38	C	-0.006049	-0.343260	-0.006202
C39	C	-0.779018	-1.134411	-0.506197
C40	C	-0.279018	-0.634411	-0.006197
C41	C	-0.895795	-1.134463	-0.506222
C42	C	-0.395795	-0.634463	-0.006222
C43	C	-0.505945	-1.134512	-0.780252
C44	C	-0.005945	-0.634512	-0.280252
C45	C	-0.505900	-1.134536	-0.897029
C46	C	-0.005900	-0.634536	-0.397029
C47	C	-0.950653	-1.184711	-0.439108
C48	C	-0.450653	-0.684711	0.060892
C49	C	-1.060377	-1.184759	-0.439140
C50	C	-0.560377	-0.684759	0.060860
C51	C	-1.060375	-1.084304	-0.573405
C52	C	-0.560375	-0.584304	-0.073405
C53	C	-0.950653	-1.084261	-0.573377
C54	C	-0.450653	-0.584261	-0.073377
C55	C	-0.895795	-1.234913	-0.371953
C56	C	-0.395795	-0.734913	0.128047
C57	C	-0.950653	-1.285164	-0.304832
C58	C	-0.450653	-0.785164	0.195168
C59	C	-1.060377	-1.285212	-0.304864
C60	C	-0.560377	-0.785212	0.195136
C61	C	-1.115243	-1.235009	-0.372018
C62	C	-0.615243	-0.735009	0.127982
C63	C	-0.232018	-1.134525	-0.506264
C64	C	0.267982	-0.634525	-0.006264
C65	C	-0.115241	-1.134554	-0.506283
C66	C	0.384759	-0.634554	-0.006283
C67	C	-0.506071	-1.339201	-0.506248
C68	C	-0.006071	-0.839201	-0.006248
C69	C	-0.506079	-1.426451	-0.506261
C70	C	-0.006079	-0.926451	-0.006261
C71	C	-0.573321	-0.802287	-0.573280
C72	C	-0.073321	-0.302287	-0.073280
C73	C	-0.573323	-0.720306	-0.573297
C74	C	-0.073323	-0.220306	-0.073297
C75	C	-0.506058	-0.679300	-0.506230
C76	C	-0.006058	-0.179300	-0.006230
C77	C	-0.438779	-0.720279	-0.439149
C78	C	0.061221	-0.220279	0.060851
C79	C	-0.438772	-0.802258	-0.439138
C80	C	0.061228	-0.302258	0.060862
C81	C	-0.438800	-0.549409	-0.439174
C82	C	0.061200	-0.049409	0.060826
C83	C	-0.438808	-0.467424	-0.439183
C84	C	0.061192	0.032576	0.060817
C85	C	-0.573351	-0.467457	-0.573333
C86	C	-0.073351	0.032543	-0.073333
C87	C	-0.573344	-0.549436	-0.573322
C88	C	-0.073344	-0.049436	-0.073322
C89	C	-0.506066	-0.590409	-0.506240
C90	C	-0.006066	-0.090409	-0.006240
C91	C	-0.438702	-1.184765	-0.951911
C92	C	0.061298	-0.684765	-0.451911
C93	C	-0.438664	-1.184784	-1.061635
C94	C	0.061336	-0.684784	-0.561635
C95	C	-0.573031	-1.084341	-1.061585
C96	C	-0.073031	-0.584341	-0.561585
C97	C	-0.573063	-1.084319	-0.951863
C98	C	-0.073063	-0.584319	-0.451863
C99	C	-0.371539	-1.234981	-0.897076
C100	C	0.128461	-0.734981	-0.397076
C101	C	-0.304337	-1.285216	-0.951959
C102	C	0.195663	-0.785216	-0.451959
C103	C	-0.304299	-1.285234	-1.061683
C104	C	0.195701	-0.785234	-0.561683
C105	C	-0.371463	-1.235019	-1.116525
C106	C	0.128537	-0.735019	-0.616525
C107	C	-0.506081	-1.134448	-0.233251
C108	C	-0.006081	-0.634448	0.266749
C109	C	-0.505830	-1.134576	-0.116475
C110	C	-0.005830	-0.634576	0.383525
H111	H	-0.806452	-1.234877	-0.371916
H112	H	-0.306452	-0.734877	0.128084
C113	C	-1.120732	-1.029077	-0.647259
C114	C	-0.620732	-0.529077	-0.147259
N115	N	-1.166193	-0.987476	-0.702882
N116	N	-0.666193	-0.487476	-0.202882
C117	C	-0.646989	-1.029068	-0.891490
C118	C	-0.146989	-0.529068	-0.391490
N119	N	-0.702672	-0.987451	-0.846016
N120	N	-0.202672	-0.487451	-0.346016
H121	H	-1.105039	-1.326135	-0.250219
H122	H	-0.605039	-0.826135	0.249781
C123	C	-0.364809	-0.422319	-0.365410
C124	C	0.135191	0.077681	0.134590
N125	N	-0.309071	-0.388346	-0.309844
N126	N	0.190929	0.111654	0.190156
H127	H	-0.249647	-1.326094	-0.907299
H128	H	0.250353	-0.826094	-0.407299
C129	C	-0.647319	-0.847386	-0.647059
C130	C	-0.147319	-0.347386	-0.147059
N131	N	-0.703054	-0.881352	-0.702636
N132	N	-0.203054	-0.381352	-0.202636
C133	C	-0.890298	-1.340386	-0.230970
C134	C	-0.390298	-0.840386	0.269030
N135	N	-0.844840	-1.381980	-0.175335
N136	N	-0.344840	-0.881980	0.324665
H137	H	-0.383987	-0.835617	-0.384522
H138	H	0.116013	-0.335617	0.115478
H139	H	-0.627712	-1.043458	-1.106246
H140	H	-0.127712	-0.543458	-0.606246
C141	C	-0.647344	-0.594541	-0.647093
C142	C	-0.147344	-0.094541	-0.147093
N143	N	-0.703081	-0.628515	-0.702660
N144	N	-0.203081	-0.128515	-0.202660
C145	C	-1.235943	-1.235068	-0.372053
C146	C	-0.735943	-0.735068	0.127947
N147	N	-1.326853	-1.235110	-0.372075
N148	N	-0.826853	-0.735110	0.127925
C149	C	-0.890306	-1.028973	-0.647191
C150	C	-0.390306	-0.528973	-0.147191
N151	N	-0.844853	-0.987327	-0.702787
N152	N	-0.344853	-0.487327	-0.202787
H153	H	-0.628103	-0.686950	-0.627917
H154	H	-0.128103	-0.186950	-0.127917
C155	C	-0.647352	-0.422386	-0.647129
C156	C	-0.147352	0.077614	-0.147129
N157	N	-0.703090	-0.388434	-0.702708
N158	N	-0.203090	0.111566	-0.202708
H159	H	-0.249572	-1.326131	-1.106365
H160	H	0.250428	-0.826131	-0.606365
H161	H	-0.371415	-1.235029	-1.205870
H162	H	0.128585	-0.735029	-0.705870
C163	C	-0.364784	-0.675169	-0.365377
C164	C	0.135216	-0.175169	0.134623
N165	N	-0.309052	-0.641193	-0.309808
N166	N	0.190948	-0.141193	0.190192
H167	H	-0.384006	-0.582766	-0.384558
H168	H	0.115994	-0.082766	0.115442
C169	C	-0.371571	-1.234963	-0.776378
C170	C	0.128429	-0.734963	-0.276378
N171	N	-0.371596	-1.234948	-0.685468
N172	N	0.128404	-0.734948	-0.185468
