data_functionalizedCrystal
_audit_creation_method	'MofGen! by Chris Wilmer'
_symmetry_space_group_name_H-M	'P1'
_symmetry_Int_Tables_number	1
_symmetry_cell_setting	triclinic
loop_
_symmetry_equiv_pos_as_xyz
  x,y,z
_cell_length_a	21.295418
_cell_length_b	16.994726
_cell_length_c	21.295417
_cell_angle_alpha	89.904865
_cell_angle_beta	89.953681
_cell_angle_gamma	90.068847
loop_
_atom_site_label
_atom_site_type_symbol
_atom_site_fract_x
_atom_site_fract_y
_atom_site_fract_z
Zn1	Zn	0.962512	0.446383	0.249958
Zn2	Zn	0.962368	0.314467	0.355345
Zn3	Zn	0.857189	0.314448	0.250123
Zn4	Zn	0.857205	0.446285	0.355223
O5	O	0.909819	0.380396	0.302662
O6	O	1.050583	0.428933	0.263920
O7	O	0.948349	0.204083	0.341507
O8	O	0.871214	0.331982	0.162012
O9	O	1.050477	0.332015	0.341348
O10	O	0.948595	0.428914	0.161891
O11	O	0.871075	0.204069	0.264201
O12	O	0.769102	0.331887	0.264082
O13	O	0.871241	0.556679	0.341139
O14	O	0.769113	0.428747	0.341299
O15	O	0.948610	0.556751	0.263802
O16	O	0.948365	0.331920	0.443418
O17	O	0.871101	0.428766	0.443328
C18	C	0.746267	0.380305	0.302695
C19	C	0.676299	0.380285	0.302725
C20	C	0.909730	0.175455	0.302835
C21	C	0.909800	0.086134	0.302751
Zn22	Zn	0.857138	-0.185076	0.354902
Zn23	Zn	0.962786	-0.184407	0.249979
Zn24	Zn	0.962300	-0.052942	0.355375
Zn25	Zn	0.857462	-0.052789	0.249812
O26	O	0.909921	-0.118804	0.302517
O27	O	0.871220	-0.295368	0.340857
O28	O	1.050810	-0.166752	0.264228
O29	O	0.948011	-0.070814	0.443401
O30	O	0.948839	-0.294876	0.263770
O31	O	0.870749	-0.167892	0.443054
O32	O	1.050453	-0.070165	0.341662
O33	O	0.948325	0.057459	0.341499
O34	O	0.769331	-0.070554	0.263485
O35	O	0.871302	0.057571	0.263943
O36	O	0.769092	-0.167744	0.340694
O37	O	0.949153	-0.166604	0.161868
O38	O	0.871773	-0.069905	0.161745
C39	C	0.643455	0.430644	0.342985
C40	C	0.577712	0.430680	0.342969
C41	C	0.544816	0.380341	0.302700
C42	C	0.577669	0.329978	0.262432
C43	C	0.643410	0.329950	0.262445
N44	N	0.441516	0.311351	0.297844
N45	N	0.379065	0.311380	0.297836
C46	C	0.346742	0.380425	0.302660
N47	N	0.379229	0.449441	0.307505
N48	N	0.441687	0.449411	0.307516
C49	C	0.473531	0.380367	0.302682
C50	C	0.242612	0.430828	0.342905
C51	C	0.176868	0.430864	0.342885
C52	C	0.176826	0.330156	0.262352
C53	C	0.242568	0.330126	0.262369
C54	C	0.275458	0.380461	0.302649
C55	C	1.074009	0.380487	0.302629
C56	C	1.143977	0.380526	0.302615
C57	C	0.909736	0.380352	0.466214
C58	C	0.909758	0.380360	0.536182
C59	C	0.909946	0.586136	0.302435
C60	C	0.910005	0.675459	0.302343
C61	C	0.909919	0.380457	0.138472
C62	C	0.909961	0.380483	0.068504
C63	C	0.950025	0.329984	0.569074
C64	C	0.950055	0.330001	0.634817
C65	C	0.909806	0.380387	0.667664
C66	C	0.869537	0.430773	0.634764
C67	C	0.869513	0.430759	0.569023
N68	N	0.854741	0.386370	0.770940
N69	N	0.854766	0.386378	0.833392
C70	C	0.909877	0.380432	0.865739
N71	N	0.964964	0.374462	0.833276
N72	N	0.964938	0.374450	0.770819
C73	C	0.909828	0.380408	0.738950
C74	C	0.950179	0.330073	0.969917
C75	C	0.950209	0.330096	1.035661
C76	C	0.869686	0.430863	1.035606
C77	C	0.869661	0.430844	0.969864
C78	C	0.909907	0.380445	0.937023
C79	C	0.910581	-0.118132	0.138966
C80	C	0.910954	-0.117776	0.068999
C81	C	0.745732	-0.119206	0.302018
C82	C	0.675765	-0.119378	0.301805
C83	C	0.909324	-0.119488	0.466707
C84	C	0.909157	-0.119889	0.536675
C85	C	1.073472	-0.118447	0.303059
C86	C	1.143438	-0.118427	0.303447
C87	C	0.951384	-0.168003	0.036224
C88	C	0.951735	-0.167685	-0.029518
C89	C	0.911657	-0.117136	-0.062483
C90	C	0.871223	-0.066907	-0.029704
C91	C	0.870870	-0.067230	0.036037
C92	C	0.642779	-0.170060	0.341909
C93	C	0.577037	-0.170222	0.341722
C94	C	0.544282	-0.119703	0.301427
C95	C	0.577271	-0.069015	0.261322
C96	C	0.643012	-0.068851	0.261512
C97	C	0.949305	-0.069528	0.569716
C98	C	0.949148	-0.069889	0.635459
C99	C	0.908846	-0.120615	0.668158
C100	C	0.868694	-0.170979	0.635111
C101	C	0.868848	-0.170613	0.569370
C102	C	1.176083	-0.067764	0.343657
C103	C	1.241824	-0.067744	0.344034
C104	C	1.274919	-0.118385	0.304198
C105	C	1.242270	-0.169054	0.263987
C106	C	1.176530	-0.169077	0.263613
H107	H	0.670229	0.471632	0.375783
H108	H	1.149956	-0.210331	0.230866
O109	O	0.995360	-0.221848	-0.064864
H110	H	0.967358	-0.261888	-0.095014
O111	O	0.141485	0.485127	0.386393
H112	H	0.154187	0.547074	0.375679
H113	H	0.981846	-0.028875	0.662356
H114	H	0.984023	-0.209166	0.063056
H115	H	0.911950	-0.116882	-0.116013
H116	H	0.269311	0.289114	0.229588
H117	H	0.550965	0.471692	0.375753
O118	O	0.828003	-0.012381	-0.065262
H119	H	0.835052	-0.020594	-0.116481
H120	H	0.837948	-0.026324	0.062717
O121	O	0.678102	-0.224548	0.385376
H122	H	0.644112	-0.259806	0.413233
H123	H	0.550186	-0.211500	0.374381
H124	H	0.550881	0.288994	0.229644
H125	H	0.490751	-0.119845	0.301278
O126	O	0.141357	0.275852	0.218922
H127	H	0.090124	0.284326	0.225681
H128	H	1.149146	-0.026522	0.376096
H129	H	1.268398	-0.026481	0.376779
O130	O	0.993647	0.275758	1.071135
H131	H	1.025692	0.311120	1.100989
H132	H	0.908726	-0.120904	0.721688
H133	H	0.550592	-0.027885	0.228515
H134	H	0.982847	0.288979	0.661603
O135	O	0.993439	0.275638	0.533652
H136	H	1.021450	0.240617	0.567573
O137	O	0.825239	-0.225706	0.670383
H138	H	0.831891	-0.217503	0.721646
H139	H	0.836156	-0.211628	0.542473
O140	O	1.345825	-0.118358	0.304603
H141	H	1.362960	-0.074613	0.339255
O142	O	1.277968	-0.223666	0.221017
H143	H	1.329164	-0.215124	0.228031
O144	O	0.826217	0.485172	0.934390
H145	H	0.854373	0.525351	0.904350
O146	O	0.678588	-0.014197	0.218244
H147	H	0.644761	0.020891	0.190189
O148	O	0.993592	0.275728	0.934488
H149	H	1.021606	0.240710	0.968408
H150	H	0.670151	0.288941	0.229658
O151	O	0.278093	0.485124	0.386339
H152	H	0.244206	0.520160	0.414324
H153	H	0.982126	-0.028219	0.543101
H154	H	0.836767	0.471798	0.661512
H155	H	0.836917	0.471891	1.062350
O156	O	0.826069	0.485080	0.533539
H157	H	0.798081	0.520115	0.567422
