data_functionalizedCrystal
_audit_creation_method	'MofGen! by Chris Wilmer'
_symmetry_space_group_name_H-M	'P1'
_symmetry_Int_Tables_number	1
_symmetry_cell_setting	triclinic
loop_
_symmetry_equiv_pos_as_xyz
  x,y,z
_cell_length_a	17.699083
_cell_length_b	11.026607
_cell_length_c	16.176319
_cell_angle_alpha	89.996049
_cell_angle_beta	89.998611
_cell_angle_gamma	95.934516
loop_
_atom_site_label
_atom_site_type_symbol
_atom_site_fract_x
_atom_site_fract_y
_atom_site_fract_z
O1	O	1.025155	0.153399	-0.068626
O2	O	1.525155	0.653399	0.431374
O3	O	0.807518	0.173357	-0.068652
O4	O	1.307518	0.673357	0.431348
O5	O	0.898299	-0.013222	-0.068638
O6	O	1.398299	0.486778	0.431362
O7	O	0.934374	0.339978	-0.068640
O8	O	1.434374	0.839978	0.431360
O9	O	0.898282	-0.013234	0.068855
O10	O	1.398282	0.486766	0.568855
O11	O	0.807501	0.173345	0.068841
O12	O	1.307501	0.673345	0.568841
O13	O	1.025137	0.153387	0.068867
O14	O	1.525137	0.653387	0.568867
Cu15	Cu	0.916317	0.163365	0.081408
Cu16	Cu	1.416317	0.663365	0.581408
Cu17	Cu	0.916338	0.163379	-0.081193
Cu18	Cu	1.416338	0.663379	0.418807
O19	O	0.934357	0.339966	0.068853
O20	O	1.434357	0.839966	0.568853
C21	C	0.779214	0.172636	0.000091
C22	C	1.279214	0.672636	0.500091
C23	C	0.694902	0.170490	0.000080
C24	C	1.194902	0.670490	0.500080
C25	C	0.661328	0.280008	0.000080
C26	C	1.161328	0.780008	0.500080
C27	C	0.582106	0.277985	0.000091
C28	C	1.082106	0.777985	0.500091
C29	C	0.536460	0.166443	0.000096
C30	C	1.036460	0.666443	0.500096
C31	C	0.570039	0.056917	0.000099
C32	C	1.070039	0.556917	0.500099
C33	C	0.649259	0.058941	0.000094
C34	C	1.149259	0.558941	0.500094
C35	C	0.250554	0.048751	0.000119
C36	C	0.750554	0.548751	0.500119
C37	C	0.171329	0.046735	0.000121
C38	C	0.671329	0.546735	0.500121
C39	C	0.183402	0.267794	0.000116
C40	C	0.683402	0.767794	0.500116
C41	C	0.262621	0.269819	0.000111
C42	C	0.762621	0.769819	0.500111
C43	C	0.296194	0.160293	0.000118
C44	C	0.796194	0.660293	0.500118
C45	C	0.382094	0.162488	0.000108
C46	C	0.882094	0.662488	0.500108
C47	C	0.450561	0.164247	0.000100
C48	C	0.950561	0.664247	0.500100
C49	C	0.891635	-0.058419	0.000106
C50	C	1.391635	0.441581	0.500106
C51	C	0.871796	-0.193075	0.000101
C52	C	1.371796	0.306925	0.500101
C53	C	0.926576	-0.267042	0.000107
C54	C	1.426576	0.232958	0.500107
C55	C	0.906072	-0.406216	0.000101
C56	C	1.406072	0.093784	0.500101
C57	C	1.053441	0.154108	0.000122
C58	C	1.553441	0.654108	0.500122
C59	C	1.137754	0.156254	0.000127
C60	C	1.637754	0.656254	0.500127
C61	C	0.941021	0.385163	0.000107
C62	C	1.441021	0.885163	0.500107
C63	C	0.960860	0.519819	0.000106
C64	C	1.460860	1.019819	0.500106
N65	N	0.916308	0.163354	0.195773
N66	N	1.416308	0.663354	0.695773
N67	N	0.916352	0.163380	-0.195559
N68	N	1.416352	0.663380	0.304441
C69	C	0.956526	0.080771	0.239044
C70	C	1.456526	0.580771	0.739044
C71	C	0.956530	0.080770	0.325591
C72	C	1.456530	0.580770	0.825591
C73	C	0.916320	0.163358	0.368866
C74	C	1.416320	0.663358	0.868866
C75	C	0.876097	0.245946	0.325590
C76	C	1.376097	0.745946	0.825590
C77	C	0.876089	0.245940	0.239044
C78	C	1.376089	0.745940	0.739044
C79	C	0.876126	0.245969	0.674618
C80	C	1.376126	0.745969	1.174618
C81	C	0.876138	0.245970	0.761169
C82	C	1.376138	0.745970	1.261169
C83	C	0.956566	0.080798	0.761165
C84	C	1.456566	0.580798	1.261165
C85	C	0.956559	0.080792	0.674619
C86	C	1.456559	0.580792	1.174619
C87	C	0.916333	0.163375	0.631350
C88	C	1.416333	0.663375	1.131350
C89	C	0.916328	0.163374	0.537506
C90	C	1.416328	0.663374	1.037506
C91	C	0.916328	0.163366	0.462709
C92	C	1.416328	0.663366	0.962709
H93	H	0.532868	-0.033903	0.000115
H94	H	1.032868	0.466097	0.500115
N95	N	1.008808	-0.214459	0.000128
N96	N	1.508808	0.285541	0.500128
H97	H	1.019499	-0.162590	-0.050835
H98	H	1.519499	0.337410	0.449165
H99	H	1.019415	-0.162676	0.051136
H100	H	1.519415	0.337324	0.551136
N101	N	0.823834	-0.458784	0.000098
N102	N	1.323834	0.041216	0.500098
H103	H	0.797786	-0.430405	-0.050872
H104	H	1.297786	0.069595	0.449128
H105	H	0.820904	-0.550744	0.000128
H106	H	1.320904	-0.050744	0.500128
N107	N	0.311859	0.390119	0.000111
N108	N	0.811859	0.890119	0.500111
H109	H	0.344995	0.395889	-0.050859
H110	H	0.844995	0.895889	0.449141
H111	H	0.278521	0.459128	0.000147
H112	H	0.778521	0.959128	0.500147
H113	H	0.809717	-0.232783	0.000088
H114	H	1.309717	0.267217	0.500088
N115	N	0.122089	-0.073572	0.000133
N116	N	0.622089	0.426428	0.500133
H117	H	0.133234	-0.121552	-0.050830
H118	H	0.633234	0.378448	0.449170
H119	H	0.133256	-0.121443	0.051141
H120	H	0.633256	0.378557	0.551141
N121	N	1.043097	-0.427609	0.000110
N122	N	1.543097	0.072391	0.500110
H123	H	1.046090	-0.335640	0.000111
H124	H	1.546090	0.164360	0.500111
H125	H	1.069096	-0.456076	0.051083
H126	H	1.569096	0.043924	0.551083
N127	N	0.999880	-0.008332	0.192375
N128	N	1.499880	0.491668	0.692375
H129	H	0.993771	0.004189	0.130982
H130	H	1.493771	0.504189	0.630982
H131	H	1.055467	0.005555	0.207489
H132	H	1.555467	0.505555	0.707489
H133	H	0.989277	0.013523	0.360821
H134	H	1.489277	0.513523	0.860821
H135	H	0.989305	0.013545	0.639387
H136	H	1.489305	0.513545	1.139387
N137	N	0.286759	-0.069375	0.000132
N138	N	0.786759	0.430625	0.500132
H139	H	0.245819	-0.140339	0.000135
H140	H	0.745819	0.359661	0.500135
H141	H	0.319368	-0.073357	-0.050836
H142	H	0.819368	0.426643	0.449164
H143	H	0.989318	0.013551	0.796403
H144	H	1.489318	0.513551	1.296403
H145	H	0.843392	0.313226	0.796403
H146	H	1.343392	0.813226	1.296403
N147	N	0.832737	0.335029	0.627955
N148	N	1.332737	0.835029	1.127955
H149	H	0.807267	0.387347	0.668505
H150	H	1.307267	0.887347	1.168505
H151	H	0.868997	0.388601	0.592034
H152	H	1.368997	0.888601	1.092034
H153	H	0.843353	0.313187	0.360829
H154	H	1.343353	0.813187	0.860829
N155	N	0.832707	0.335005	0.192369
N156	N	1.332707	0.835005	0.692369
H157	H	0.807235	0.387327	0.232915
H158	H	1.307235	0.887327	0.732915
H159	H	0.868971	0.388574	0.156450
H160	H	1.368971	0.888574	0.656450
H161	H	0.554775	0.367165	0.000090
H162	H	1.054775	0.867165	0.500090
N163	N	0.710558	0.400315	0.000065
N164	N	1.210558	0.900315	0.500065
H165	H	0.677264	0.469386	0.000067
H166	H	1.177264	0.969386	0.500067
H167	H	0.743693	0.405971	0.051032
H168	H	1.243693	0.905971	0.551032
H169	H	0.156058	0.356975	0.000115
H170	H	0.656058	0.856975	0.500115
H171	H	0.676594	-0.030240	0.000094
H172	H	1.176594	0.469760	0.500094
