data_functionalizedCrystal
_audit_creation_method	'MofGen! by Chris Wilmer'
_symmetry_space_group_name_H-M	'P1'
_symmetry_Int_Tables_number	1
_symmetry_cell_setting	triclinic
loop_
_symmetry_equiv_pos_as_xyz
  x,y,z
_cell_length_a	23.532407
_cell_length_b	23.532355
_cell_length_c	13.330367
_cell_angle_alpha	89.998270
_cell_angle_beta	89.997117
_cell_angle_gamma	97.161913
loop_
_atom_site_label
_atom_site_type_symbol
_atom_site_fract_x
_atom_site_fract_y
_atom_site_fract_z
O1	O	-0.068994	0.755281	-0.083271
O2	O	-0.079028	0.589414	-0.083301
O3	O	0.008922	0.677349	-0.083298
O4	O	-0.156943	0.667346	-0.083274
O5	O	0.008924	0.677337	0.083549
O6	O	-0.079026	0.589401	0.083546
O7	O	-0.068992	0.755269	0.083576
Cu8	Cu	-0.074009	0.672334	0.098796
Cu9	Cu	-0.074011	0.672349	-0.098521
O10	O	-0.156942	0.667333	0.083573
C11	C	-0.078776	0.568191	0.000119
C12	C	-0.078022	0.504972	0.000106
C13	C	-0.073283	0.112951	0.091096
C14	C	-0.072565	0.053552	0.091100
O15	O	-0.072174	0.022827	0.168447
N16	N	-0.072211	0.023850	0.000152
C17	C	-0.072568	0.053552	-0.090806
O18	O	-0.072200	0.022834	-0.168164
C19	C	-0.073281	0.112951	-0.090809
C20	C	-0.073641	0.142649	0.000145
C21	C	-0.073643	0.142649	0.182043
C22	C	-0.074361	0.202044	0.182039
C23	C	-0.074720	0.231742	0.091088
C24	C	-0.074360	0.202044	0.000141
C25	C	-0.073634	0.142652	-0.181765
C26	C	-0.074347	0.202055	-0.181760
C27	C	-0.074707	0.231753	-0.090806
C28	C	-0.075437	0.291136	-0.090814
N29	N	-0.075792	0.320838	0.000134
C30	C	-0.075433	0.291141	0.091085
C31	C	-0.071069	-0.071189	-0.090793
C32	C	-0.070359	-0.130588	-0.090792
C33	C	-0.070356	-0.130584	0.091115
C34	C	-0.071069	-0.071185	0.091112
C35	C	-0.071423	-0.041488	0.000155
C36	C	-0.076942	0.415875	0.091069
C37	C	-0.077663	0.475275	0.091057
C38	C	-0.077664	0.475266	-0.090848
C39	C	-0.076946	0.415871	-0.090837
C40	C	-0.076583	0.386177	0.000130
O41	O	-0.075826	0.321899	-0.168121
O42	O	-0.075794	0.321867	0.168430
C43	C	-0.178158	0.667594	0.000153
C44	C	-0.241375	0.668360	0.000162
C45	C	-0.640487	0.621125	0.000102
C46	C	-0.699887	0.621837	0.000095
O47	O	-0.736640	0.578050	0.000051
N48	N	-0.722504	0.674114	0.000106
C49	C	-0.685717	0.725684	0.000113
O50	O	-0.710408	0.770216	0.000121
C51	C	-0.626318	0.724972	0.000113
C52	C	-0.603705	0.672691	0.000113
C53	C	-0.617874	0.568849	0.000101
C54	C	-0.558478	0.568137	0.000110
C55	C	-0.521695	0.619703	0.000120
C56	C	-0.544309	0.671980	0.000121
C57	C	-0.589532	0.776541	0.000113
C58	C	-0.530129	0.775824	0.000112
C59	C	-0.507516	0.723543	0.000112
C60	C	-0.448130	0.722834	0.000141
N61	N	-0.425514	0.670556	0.000130
C62	C	-0.462296	0.618991	0.000120
C63	C	-0.810459	0.727175	0.000112
C64	C	-0.869857	0.727888	0.000120
C65	C	-0.884023	0.624041	0.000100
C66	C	-0.824624	0.623329	0.000100
C67	C	-0.787842	0.674898	0.000102
C68	C	-0.337560	0.617501	0.000139
C69	C	-0.278158	0.616794	0.000152
C70	C	-0.263996	0.720642	0.000166
C71	C	-0.323393	0.721349	0.000159
C72	C	-0.360174	0.669774	0.000142
O73	O	-0.411343	0.766598	0.000181
O74	O	-0.437597	0.574467	0.000099
C75	C	0.030139	0.677088	0.000120
C76	C	0.093356	0.676322	0.000104
C77	C	-0.069244	0.776491	0.000154
C78	C	-0.069998	0.839710	0.000160
N79	N	-0.074007	0.672327	0.237577
N80	N	-0.074008	0.672360	-0.237302
C81	C	-0.112940	0.633409	0.710199
C82	C	-0.035077	0.711303	0.710169
C83	C	-0.035076	0.711297	0.605151
C84	C	-0.074007	0.672347	0.552652
C85	C	-0.112940	0.633403	0.605171
C86	C	0.003853	0.750244	0.552624
C87	C	0.003856	0.750240	0.447599
C88	C	-0.035074	0.711286	0.395098
C89	C	-0.074008	0.672340	0.447623
C90	C	-0.112939	0.633390	0.395124
C91	C	-0.151872	0.594441	0.447648
C92	C	-0.151870	0.594449	0.552669
C93	C	-0.035075	0.711278	0.290076
C94	C	-0.112940	0.633383	0.290096
H95	H	-0.077958	0.499456	-0.164898
N96	N	0.045853	0.792247	0.609230
H97	H	0.039512	0.832631	0.590952
H98	H	0.039935	0.786292	0.683715
N99	N	-0.770788	0.782800	0.000126
H100	H	-0.794133	0.816022	0.000135
H101	H	-0.745838	0.784763	0.061981
N102	N	-0.894245	0.784276	0.000129
H103	H	-0.918577	0.786883	0.061978
H104	H	-0.861894	0.816799	0.000100
N105	N	-0.074738	0.234077	0.280135
H106	H	-0.110342	0.253903	0.284206
H107	H	-0.074377	0.206214	0.337692
N108	N	-0.078049	0.507301	0.189167
H109	H	-0.043038	0.536767	0.193219
H110	H	-0.113680	0.527086	0.193172
N111	N	0.006907	0.753317	0.766787
H112	H	0.000998	0.747413	0.841288
H113	H	0.047276	0.746968	0.748434
N114	N	-0.347787	0.777735	0.000176
H115	H	-0.315470	0.810293	0.000189
H116	H	-0.372116	0.780298	-0.061682
H117	H	0.035557	0.781953	0.404841
H118	H	-0.070075	-0.154764	-0.164856
H119	H	-0.607932	0.819114	0.000113
H120	H	-0.076661	0.391688	-0.164899
N121	N	0.006906	0.753285	0.233425
H122	H	0.031566	0.777963	0.282619
H123	H	0.031972	0.731626	0.189855
H124	H	-0.259750	0.574219	0.000156
H125	H	-0.073349	0.118476	0.256110
N126	N	-0.071453	-0.039161	-0.188903
H127	H	-0.071120	-0.066994	-0.246511
H128	H	-0.107059	-0.019336	-0.192868
N129	N	-0.154927	0.591367	0.233474
H130	H	-0.179586	0.566696	0.282685
H131	H	-0.179994	0.613021	0.189898
N132	N	-0.657539	0.513225	0.000108
H133	H	-0.698603	0.521599	0.000113
H134	H	-0.650247	0.490428	-0.061743
N135	N	-0.074733	0.234087	-0.279864
H136	H	-0.039721	0.263552	-0.283924
H137	H	-0.074418	0.206219	-0.337420
N138	N	-0.076551	0.383854	0.189182
H139	H	-0.076499	0.411741	0.246785
H140	H	-0.111760	0.354653	0.193452
N141	N	-0.071453	-0.039160	0.189216
H142	H	-0.036439	-0.009697	0.193271
H143	H	-0.107081	-0.019370	0.193220
N144	N	-0.069969	-0.162622	0.189214
H145	H	-0.070253	-0.204857	0.175409
H146	H	-0.034385	-0.147961	0.228322
H147	H	-0.500183	0.817819	0.000108
H148	H	-0.234037	0.762625	0.000180
N149	N	-0.073237	0.110631	-0.279866
H150	H	-0.108667	0.116151	-0.319635
H151	H	-0.038025	0.125813	-0.319535
N152	N	-0.377225	0.561876	0.000119
H153	H	-0.353879	0.528655	0.000121
H154	H	-0.402183	0.559902	0.061969
H155	H	-0.540072	0.525565	0.000101
N156	N	-0.193863	0.552430	0.391025
H157	H	-0.218966	0.574048	0.347452
H158	H	-0.172189	0.527350	0.347509
H159	H	-0.183567	0.562739	0.595440
H160	H	-0.144636	0.601696	0.752966
H161	H	-0.806217	0.580757	0.000103
N162	N	-0.923702	0.568421	0.000091
H163	H	-0.964761	0.576810	0.000088
H164	H	-0.916413	0.545627	-0.061765
