data_functionalizedCrystal
_audit_creation_method	'MofGen! by Chris Wilmer'
_symmetry_space_group_name_H-M	'P1'
_symmetry_Int_Tables_number	1
_symmetry_cell_setting	triclinic
loop_
_symmetry_equiv_pos_as_xyz
  x,y,z
_cell_length_a	9.130307
_cell_length_b	12.837943
_cell_length_c	12.837942
_cell_angle_alpha	85.171060
_cell_angle_beta	90.002954
_cell_angle_gamma	89.999550
loop_
_atom_site_label
_atom_site_type_symbol
_atom_site_fract_x
_atom_site_fract_y
_atom_site_fract_z
O1	O	0.121772	-1.402331	0.272138
O2	O	0.121781	-1.099198	0.258695
O3	O	0.121767	-1.244043	0.113850
O4	O	0.121785	-1.257486	0.416983
O5	O	-0.121832	-1.244038	0.113848
O6	O	-0.121818	-1.099192	0.258693
O7	O	-0.121827	-1.402326	0.272136
Cu8	Cu	-0.144065	-1.250759	0.265414
Cu9	Cu	0.144019	-1.250765	0.265417
O10	O	-0.121814	-1.257481	0.416981
C11	C	-0.000018	-1.060126	0.254153
C12	C	-0.000015	-0.943711	0.240608
N13	N	-0.346688	-1.250762	0.265413
C14	C	-0.000031	-1.239499	0.074780
C15	C	-0.000028	-1.225954	-0.041635
C16	C	-0.346690	-1.379084	0.137199
C17	C	-0.423357	-1.443252	0.073096
C18	C	-0.576691	-1.443263	0.073096
C19	C	-0.653360	-1.379095	0.137204
C20	C	-0.576693	-1.314927	0.201307
C21	C	-0.423356	-1.314926	0.201303
C22	C	-0.576691	-1.186601	0.329514
C23	C	-0.423357	-1.186595	0.329521
C24	C	-0.653360	-1.122434	0.393622
C25	C	-0.576693	-1.058270	0.457732
C26	C	-0.423350	-1.058263	0.457730
C27	C	-0.346690	-1.122426	0.393624
N28	N	0.346642	-1.250769	0.265411
C29	C	-0.000025	-1.441398	0.276679
C30	C	-0.000019	-1.557813	0.290223
C31	C	-0.000026	-0.718837	0.403437
C32	C	-0.000024	-0.609454	0.390716
C33	C	-0.000020	-0.615562	0.202445
C34	C	-0.000022	-0.724944	0.215166
C35	C	-0.000023	-0.776578	0.315666
C36	C	-0.000014	-0.885962	0.328386
C37	C	-0.000020	-0.892067	0.140116
C38	C	-0.000018	-0.782685	0.127395
C39	C	-0.000002	-1.388784	-0.266510
C40	C	0.000000	-1.376062	-0.375892
C41	C	-0.000009	-1.187791	-0.369785
C42	C	-0.000012	-1.200513	-0.260402
C43	C	-0.000011	-1.301012	-0.208769
C44	C	-0.000024	-1.313732	-0.099384
C45	C	-0.000024	-1.125462	-0.093279
C46	C	-0.000021	-1.112741	-0.202661
C47	C	-0.000012	-1.262025	0.456052
C48	C	-0.000005	-1.275569	0.572467
H49	H	-0.360920	-1.495495	0.020897
C50	C	0.000014	-1.498551	-0.116412
C51	C	-0.000008	-1.424199	-0.042625
H52	H	0.000039	-1.566748	-0.081371
H53	H	-0.084931	-1.489682	-0.158947
H54	H	0.084967	-1.489655	-0.158947
H55	H	-0.084966	-1.433090	-0.000094
H56	H	0.084946	-1.433072	-0.000072
H57	H	-0.000034	-0.740630	0.045571
C58	C	-0.873025	-1.021733	0.362687
C59	C	-0.821907	-1.122442	0.393620
H60	H	-0.977079	-1.021742	0.362682
H61	H	-0.838343	-0.974345	0.410038
H62	H	-0.838337	-1.000820	0.294351
H63	H	-0.856586	-1.143352	0.461959
H64	H	-0.856604	-1.169846	0.346268
H65	H	-0.000007	-0.939092	0.068646
H66	H	-0.639126	-1.006024	0.509920
C67	C	-0.125212	-1.470977	-0.502454
C68	C	0.000008	-1.472541	-0.439366
H69	H	-0.125197	-1.530539	-0.541644
H70	H	-0.210146	-1.472035	-0.459660
H71	H	-0.125199	-1.409301	-0.548857
H72	H	-0.000011	-1.534213	-0.392957
H73	H	0.084964	-1.471492	-0.482164
H74	H	0.000005	-1.105969	-0.411844
H75	H	-0.000031	-0.562446	0.462189
C76	C	-0.000030	-1.009642	-0.367626
C77	C	-0.000032	-1.002276	-0.259423
H78	H	-0.000050	-0.941444	-0.402665
H79	H	0.084921	-1.046222	-0.386796
H80	H	-0.084977	-1.046245	-0.386801
H81	H	0.084920	-0.965680	-0.240248
H82	H	-0.084992	-0.965681	-0.240246
H83	H	-0.000042	-1.053992	-0.046254
H84	H	-0.000025	-0.760878	0.485268
H85	H	-0.778212	-1.379098	0.137191
H86	H	-0.000016	-1.470614	-0.224469
H87	H	-0.221838	-1.379091	0.137202
H88	H	-0.000017	-0.928000	0.410218
C89	C	-0.561307	-1.570106	-0.053645
C90	C	-0.660973	-1.513790	0.002628
H91	H	-0.613343	-1.613648	-0.097145
H92	H	-0.501511	-1.522814	-0.095632
H93	H	-0.501492	-1.612063	-0.006319
H94	H	-0.720781	-1.471828	-0.044698
H95	H	-0.720794	-1.561088	0.044618
H96	H	-0.360935	-1.006005	0.509927
H97	H	-0.221838	-1.122431	0.393621
H98	H	-0.000140	-0.573502	0.120623
