data_functionalizedCrystal
_audit_creation_method	'MofGen! by Chris Wilmer'
_symmetry_space_group_name_H-M	'P1'
_symmetry_Int_Tables_number	1
_symmetry_cell_setting	triclinic
loop_
_symmetry_equiv_pos_as_xyz
  x,y,z
_cell_length_a	17.077404
_cell_length_b	12.594516
_cell_length_c	17.077396
_cell_angle_alpha	89.975179
_cell_angle_beta	89.980499
_cell_angle_gamma	90.012041
loop_
_atom_site_label
_atom_site_type_symbol
_atom_site_fract_x
_atom_site_fract_y
_atom_site_fract_z
Zn1	Zn	1.200115	-0.423736	-0.443863
Zn2	Zn	1.700115	0.076264	0.056137
Zn3	Zn	1.200047	-0.601736	-0.312605
Zn4	Zn	1.700047	-0.101736	0.187395
Zn5	Zn	1.068847	-0.423773	-0.312611
Zn6	Zn	1.568847	0.076227	0.187389
Zn7	Zn	1.068840	-0.601673	-0.443829
Zn8	Zn	1.568840	-0.101673	0.056171
O9	O	1.134462	-0.512730	-0.378227
O10	O	1.634462	-0.012730	0.121773
O11	O	1.309953	-0.447359	-0.426463
O12	O	1.809953	0.052641	0.073537
O13	O	1.182618	-0.578171	-0.202759
O14	O	1.682618	-0.078171	0.297241
O15	O	1.086291	-0.274822	-0.330038
O16	O	1.586291	0.225178	0.169962
O17	O	1.309903	-0.578135	-0.330029
O18	O	1.809903	-0.078135	0.169971
O19	O	1.182733	-0.274795	-0.426468
O20	O	1.682733	0.225205	0.073532
O21	O	1.086225	-0.447422	-0.202763
O22	O	1.586225	0.052578	0.297237
O23	O	0.958999	-0.447361	-0.330005
O24	O	1.458999	0.052639	0.169995
O25	O	1.086280	-0.578027	-0.553680
O26	O	1.586280	-0.078027	-0.053680
O27	O	0.958994	-0.578064	-0.426410
O28	O	1.458994	-0.078064	0.073590
O29	O	1.182727	-0.447297	-0.553705
O30	O	1.682727	0.052703	-0.053705
O31	O	1.182611	-0.750674	-0.329996
O32	O	1.682611	-0.250674	0.170004
O33	O	1.086214	-0.750627	-0.426405
O34	O	1.586214	-0.250627	0.073595
C35	C	0.930515	-0.512710	-0.378205
C36	C	1.430515	-0.012710	0.121795
C37	C	0.843265	-0.512728	-0.378214
C38	C	1.343265	-0.012728	0.121786
C39	C	0.802293	-0.580887	-0.428332
C40	C	1.302293	-0.080887	0.071668
C41	C	0.720312	-0.580889	-0.428345
C42	C	1.220312	-0.080889	0.071655
C43	C	0.679305	-0.512737	-0.378235
C44	C	1.179305	-0.012737	0.121765
C45	C	0.720283	-0.444570	-0.328115
C46	C	1.220283	0.055430	0.171885
C47	C	0.802262	-0.444563	-0.328107
C48	C	1.302262	0.055437	0.171893
C49	C	0.549413	-0.444591	-0.328134
C50	C	1.049413	0.055409	0.171866
C51	C	0.467429	-0.444599	-0.328141
C52	C	0.967429	0.055401	0.171859
C53	C	0.467463	-0.580917	-0.428372
C54	C	0.967463	-0.080917	0.071628
C55	C	0.549442	-0.580910	-0.428364
C56	C	1.049442	-0.080910	0.071636
C57	C	0.590414	-0.512745	-0.378242
C58	C	1.090414	-0.012745	0.121758
C59	C	1.134426	-0.789271	-0.378213
C60	C	1.634426	-0.289271	0.121787
C61	C	1.134482	-0.907576	-0.378234
C62	C	1.634482	-0.407576	0.121766
C63	C	1.186974	-0.976816	-0.325852
C64	C	1.686974	-0.476816	0.174148
C65	C	1.206155	-1.047517	-0.397500
C66	C	1.706155	-0.547517	0.102500
C67	C	1.115399	-1.047673	-0.306632
C68	C	1.615399	-0.547673	0.193368
C69	C	1.153700	-0.976719	-0.449918
C70	C	1.653700	-0.476719	0.050082
C71	C	1.062911	-0.976869	-0.359002
C72	C	1.562911	-0.476869	0.140998
C73	C	1.082065	-1.047539	-0.430699
C74	C	1.582065	-0.547539	0.069301
C75	C	1.339207	-0.512750	-0.378249
C76	C	1.839207	-0.012750	0.121751
C77	C	1.426456	-0.512758	-0.378258
C78	C	1.926456	-0.012758	0.121742
C79	C	1.134510	-0.512651	-0.582971
C80	C	1.634510	-0.012651	-0.082971
C81	C	1.134530	-0.512618	-0.670221
C82	C	1.634530	-0.012618	-0.170221
C83	C	1.134520	-0.235109	-0.378258
C84	C	1.634520	0.264891	0.121742
C85	C	1.134545	-0.116803	-0.378271
C86	C	1.634545	0.383197	0.121729
C87	C	1.184752	-0.444541	-0.711225
C88	C	1.684752	0.055459	-0.211225
C89	C	1.184761	-0.444506	-0.793206
C90	C	1.684761	0.055494	-0.293206
C91	C	1.134552	-0.512553	-0.834180
C92	C	1.634552	-0.012553	-0.334180
C93	C	1.084325	-0.580633	-0.793170
C94	C	1.584325	-0.080633	-0.293170
C95	C	1.084312	-0.580662	-0.711191
C96	C	1.584312	-0.080662	-0.211191
C97	C	1.084357	-0.580569	-0.964040
C98	C	1.584357	-0.080569	-0.464040
C99	C	1.084370	-0.580541	-1.046025
C100	C	1.584370	-0.080541	-0.546025
C101	C	1.184806	-0.444412	-1.046055
C102	C	1.684806	0.055588	-0.546055
C103	C	1.184793	-0.444442	-0.964076
C104	C	1.684793	0.055558	-0.464076
C105	C	1.134566	-0.512523	-0.923072
C106	C	1.634566	-0.012523	-0.423072
C107	C	1.134460	-0.512731	-0.174279
C108	C	1.634460	-0.012731	0.325721
C109	C	1.134592	-0.512464	-0.087030
C110	C	1.634592	-0.012464	0.412970
H111	H	0.686956	-0.636393	-0.469155
H112	H	1.186956	-0.136393	0.030845
H113	H	1.043484	-0.635949	-1.079384
H114	H	1.543484	-0.135949	-0.579384
H115	H	1.231371	-0.945761	-0.281595
H116	H	1.731371	-0.445761	0.218405
C117	C	1.239986	-0.369681	-0.666161
C118	C	1.739986	0.130319	-0.166161
N119	N	1.281587	-0.313290	-0.632221
N120	N	1.781587	0.186710	-0.132221
C121	C	0.594481	-0.369607	-0.272996
C122	C	1.094481	0.130393	0.227004
N123	N	0.628426	-0.313135	-0.231463
N124	N	1.128426	0.186865	0.268537
H125	H	1.266708	-1.078553	-0.413787
H126	H	1.766708	-0.578553	0.086213
H127	H	0.582828	-0.636412	-0.469163
H128	H	1.082828	-0.136412	0.030837
H129	H	1.043408	-0.636086	-0.677807
H130	H	1.543408	-0.136086	-0.177807
H131	H	1.169806	-0.945685	-0.510538
H132	H	1.669806	-0.445685	-0.010538
C133	C	0.847331	-0.369585	-0.272972
C134	C	1.347331	0.130415	0.227028
N135	N	0.881276	-0.313107	-0.231444
N136	N	1.381276	0.186893	0.268556
H137	H	1.043441	-0.636034	-0.826538
H138	H	1.543441	-0.136034	-0.326538
H139	H	0.434043	-0.389090	-0.287346
H140	H	0.934043	0.110910	0.212654
H141	H	1.099233	-1.078839	-0.246064
H142	H	1.599233	-0.578839	0.253936
C143	C	0.847392	-0.655862	-0.483458
C144	C	1.347392	-0.155862	0.016542
N145	N	0.881360	-0.712333	-0.524982
N146	N	1.381360	-0.212333	-0.024982
H147	H	1.037702	-1.078396	-0.475063
H148	H	1.537702	-0.578396	0.024937
C149	C	0.981134	-0.934896	-0.336966
C150	C	1.481134	-0.434896	0.163034
N151	N	0.919541	-0.903276	-0.320359
N152	N	1.419541	-0.403276	0.179641
H153	H	1.225659	-0.389073	-0.826588
H154	H	1.725659	0.110927	-0.326588
C155	C	1.240024	-0.369584	-0.919006
C156	C	1.740024	0.130416	-0.419006
N157	N	1.281621	-0.313195	-0.885059
N158	N	1.781621	0.186805	-0.385059
C159	C	0.422392	-0.655896	-0.483509
C160	C	0.922392	-0.155896	0.016491
N161	N	0.388441	-0.712369	-0.525036
N162	N	0.888441	-0.212369	-0.025036
C163	C	1.240055	-0.369521	-1.091162
C164	C	1.740055	0.130479	-0.591162
N165	N	1.281670	-0.313119	-1.125139
N166	N	1.781670	0.186881	-0.625139
C167	C	1.029107	-0.655466	-0.918937
C168	C	1.529107	-0.155466	-0.418937
N169	N	0.987498	-0.711883	-0.884966
N170	N	1.487498	-0.211883	-0.384966
H171	H	0.686889	-0.389074	-0.287318
H172	H	1.186889	0.110926	0.212682
