data_functionalizedCrystal
_audit_creation_method	'MofGen! by Chris Wilmer'
_symmetry_space_group_name_H-M	'P1'
_symmetry_Int_Tables_number	1
_symmetry_cell_setting	triclinic
loop_
_symmetry_equiv_pos_as_xyz
  x,y,z
_cell_length_a	19.121063
_cell_length_b	12.759401
_cell_length_c	19.121605
_cell_angle_alpha	87.544739
_cell_angle_beta	89.924837
_cell_angle_gamma	87.534569
loop_
_atom_site_label
_atom_site_type_symbol
_atom_site_fract_x
_atom_site_fract_y
_atom_site_fract_z
Zn1	Zn	-0.262277	-1.615417	0.408298
Zn2	Zn	0.237723	-1.115417	0.908298
Zn3	Zn	-0.384518	-1.600326	0.296055
Zn4	Zn	0.115482	-1.100326	0.796055
Zn5	Zn	-0.267290	-1.431937	0.291074
Zn6	Zn	0.232710	-0.931937	0.791074
Zn7	Zn	-0.379473	-1.432505	0.413251
Zn8	Zn	0.120527	-0.932505	0.913251
O9	O	-0.323389	-1.520046	0.352170
O10	O	0.176611	-1.020046	0.852170
O11	O	-0.278505	-1.760436	0.393420
O12	O	0.221495	-1.260436	0.893420
O13	O	-0.373177	-1.571435	0.197288
O14	O	0.126823	-1.071435	0.697288
O15	O	-0.168518	-1.462354	0.302467
O16	O	0.331482	-0.962354	0.802467
O17	O	-0.368315	-1.749349	0.310955
O18	O	0.131685	-1.249349	0.810955
O19	O	-0.164835	-1.597156	0.388591
O20	O	0.335165	-1.097156	0.888591
O21	O	-0.287050	-1.447720	0.193629
O22	O	0.212950	-0.947720	0.693629
O23	O	-0.282158	-1.284991	0.307270
O24	O	0.217842	-0.784991	0.807270
O25	O	-0.359717	-1.463322	0.510700
O26	O	0.140283	-0.963322	1.010700
O27	O	-0.364578	-1.285409	0.397033
O28	O	0.135422	-0.785409	0.897033
O29	O	-0.273614	-1.597707	0.507061
O30	O	0.226386	-1.097707	1.007061
O31	O	-0.481956	-1.571986	0.315758
O32	O	0.018044	-1.071986	0.815758
O33	O	-0.478249	-1.448689	0.401862
O34	O	0.021751	-0.948689	0.901862
C35	C	-0.323365	-1.247079	0.352149
C36	C	0.176635	-0.747079	0.852149
C37	C	-0.323371	-1.130302	0.352157
C38	C	0.176629	-0.630302	0.852157
C39	C	-0.505540	-1.508791	0.359903
C40	C	-0.005540	-1.008791	0.859903
C41	C	-0.583463	-1.504074	0.363235
C42	C	-0.083463	-1.004074	0.863235
C43	C	-0.280391	-1.075201	0.305496
C44	C	0.219609	-0.575201	0.805496
C45	C	-0.280404	-0.965477	0.305503
C46	C	0.219596	-0.465477	0.805503
C47	C	-0.366379	-0.965965	0.398838
C48	C	0.133621	-0.465965	0.898838
C49	C	-0.366369	-1.075687	0.398827
C50	C	0.133631	-0.575687	0.898827
C51	C	-0.237393	-1.129817	0.258826
C52	C	0.262607	-0.629817	0.758826
C53	C	-0.194408	-1.074716	0.212162
C54	C	0.305592	-0.574716	0.712162
C55	C	-0.194421	-0.964991	0.212169
C56	C	0.305579	-0.464991	0.712169
C57	C	-0.237419	-0.910368	0.258840
C58	C	0.262581	-0.410368	0.758840
C59	C	-0.621977	-1.566107	0.320008
C60	C	-0.121977	-1.066107	0.820008
C61	C	-0.695194	-1.561677	0.323146
C62	C	-0.195194	-1.061677	0.823146
C63	C	-0.729897	-1.495207	0.369508
C64	C	-0.229897	-0.995207	0.869508
C65	C	-0.691378	-1.433172	0.412739
C66	C	-0.191378	-0.933172	0.912739
C67	C	-0.618162	-1.437608	0.409605
C68	C	-0.118162	-0.937608	0.909605
C69	C	-0.950867	-1.478603	0.381217
C70	C	-0.450867	-0.978603	0.881217
C71	C	-1.024088	-1.474169	0.384346
C72	C	-0.524088	-0.974169	0.884346
C73	C	-1.027900	-1.602676	0.294753
C74	C	-0.527900	-1.102676	0.794753
C75	C	-0.954682	-1.607101	0.291620
C76	C	-0.454682	-1.107101	0.791620
C77	C	-0.916169	-1.545070	0.334854
C78	C	-0.416169	-1.045070	0.834854
C79	C	-0.804737	-1.490675	0.372714
C80	C	-0.304737	-0.990675	0.872714
C81	C	-0.841331	-1.549609	0.331650
C82	C	-0.341331	-1.049609	0.831650
C83	C	-0.140527	-1.531375	0.344421
C84	C	0.359473	-1.031375	0.844421
C85	C	-0.062602	-1.536202	0.341119
C86	C	0.437398	-1.036202	0.841119
C87	C	-0.315543	-1.532261	0.535030
C88	C	0.184457	-1.032261	1.035030
C89	C	-0.312200	-1.537467	0.612954
C90	C	0.187800	-1.037467	1.112954
C91	C	-0.323406	-0.794079	0.352185
C92	C	0.176594	-0.294079	0.852185
C93	C	-0.323394	-0.910856	0.352175
C94	C	0.176606	-0.410856	0.852175
C95	C	-0.331154	-1.507942	0.170019
C96	C	0.168846	-1.007942	0.670019
C97	C	-0.334300	-1.502952	0.092087
C98	C	0.165700	-1.002952	0.592087
C99	C	-0.291044	-1.570470	1.053581
C100	C	0.208956	-1.070470	1.553581
C101	C	-0.294189	-1.565572	0.980364
C102	C	0.205811	-1.065572	1.480364
C103	C	-0.340587	-1.493151	0.945653
C104	C	0.159413	-0.993151	1.445653
C105	C	-0.383848	-1.425631	0.984164
C106	C	0.116152	-0.925631	1.484164
C107	C	-0.380706	-1.430534	1.057380
C108	C	0.119294	-0.930534	1.557380
C109	C	-0.352319	-1.474850	0.724681
C110	C	0.147681	-0.974850	1.224681
C111	C	-0.355456	-1.469949	0.651459
C112	C	0.144544	-0.969949	1.151459
C113	C	-0.265798	-1.609892	0.647664
C114	C	0.234202	-1.109892	1.147664
C115	C	-0.262657	-1.614785	0.720882
C116	C	0.237343	-1.114785	1.220882
C117	C	-0.305920	-1.547269	0.759387
C118	C	0.194080	-1.047269	1.259387
C119	C	-0.343801	-1.488141	0.870812
C120	C	0.156199	-0.988141	1.370812
C121	C	-0.302709	-1.552285	0.834226
C122	C	0.197291	-1.052285	1.334226
H123	H	-0.159406	-1.119197	0.174161
H124	H	0.340594	-0.619197	0.674161
H125	H	-0.421629	-1.366669	0.955896
H126	H	0.078371	-0.866669	1.455896
H127	H	-0.264935	-1.611253	0.862491
H128	H	0.235065	-1.111253	1.362491
N129	N	-1.067231	-1.666036	0.250586
N130	N	-0.567231	-1.166036	0.750586
N131	N	-1.061858	-1.655314	0.185542
N132	N	-0.561858	-1.155314	0.685542
H133	H	-1.089635	-1.700065	0.154347
H134	H	-0.589635	-1.200065	0.654347
H135	H	-0.258967	-1.620554	0.949015
H136	H	0.241033	-1.120554	1.449015
H137	H	-0.159426	-0.920130	0.174169
H138	H	0.340574	-0.420130	0.674169
H139	H	-0.224878	-1.673762	0.749139
H140	H	0.275122	-1.173762	1.249139
H141	H	-0.926429	-1.661226	0.253868
H142	H	-0.426429	-1.161226	0.753868
H143	H	-0.401385	-0.921482	0.436837
H144	H	0.098615	-0.421482	0.936837
N145	N	-0.237390	-1.241895	0.258807
N146	N	0.262610	-0.741895	0.758807
N147	N	-0.292680	-1.286517	0.246373
N148	N	0.207320	-0.786517	0.746373
H149	H	-0.292678	-1.365673	0.246360
H150	H	0.207322	-0.865673	0.746360
N151	N	-0.578807	-1.374257	0.453759
N152	N	-0.078807	-0.874257	0.953759
N153	N	-0.535997	-1.416637	0.496703
N154	N	-0.035997	-0.916637	0.996703
H155	H	-0.508202	-1.371898	0.527891
H156	H	-0.008202	-0.871898	1.027891
H157	H	-0.833000	-1.436554	0.410461
H158	H	-0.333000	-0.936554	0.910461
N159	N	-0.410281	-1.131962	0.446490
N160	N	0.089719	-0.631962	0.946490
N161	N	-0.448666	-1.083188	0.488157
N162	N	0.051334	-0.583188	0.988157
H163	H	-0.479683	-1.122932	0.521818
H164	H	0.020317	-0.622932	1.021818
H165	H	-0.593727	-1.620228	0.282252
H166	H	-0.093727	-1.120228	0.782252
N167	N	-0.237418	-0.798288	0.258849
N168	N	0.262582	-0.298288	0.758849
N169	N	-0.182123	-0.753674	0.271278
N170	N	0.317877	-0.253674	0.771278
H171	H	-0.182119	-0.674519	0.271288
H172	H	0.317881	-0.174519	0.771288
H173	H	-0.726549	-1.612190	0.287945
H174	H	-0.226549	-1.112190	0.787945
H175	H	-1.052340	-1.420056	0.422112
H176	H	-0.552340	-0.920056	0.922112
H177	H	-0.719638	-1.379056	0.450491
H178	H	-0.219638	-0.879056	0.950491
N179	N	-0.911544	-1.415235	0.425382
N180	N	-0.411544	-0.915235	0.925382
N181	N	-0.942540	-1.355891	0.466771
N182	N	-0.442540	-0.855891	0.966771
H183	H	-0.914766	-1.311133	0.497966
H184	H	-0.414766	-0.811133	0.997966
N185	N	-0.805876	-1.617487	0.284291
N186	N	-0.305876	-1.117487	0.784291
N187	N	-0.766975	-1.580048	0.237854
N188	N	-0.266975	-1.080048	0.737854
H189	H	-0.741929	-1.627983	0.204403
H190	H	-0.241929	-1.127983	0.704403
N191	N	-0.243638	-1.644443	1.089023
N192	N	0.256362	-1.144443	1.589023
N193	N	-0.205019	-1.704718	1.054631
N194	N	0.294981	-1.204718	1.554631
H195	H	-0.171537	-1.756965	1.079659
H196	H	0.328463	-1.256965	1.579659
N197	N	-0.221612	-1.678845	0.608322
N198	N	0.278388	-1.178845	1.108322
N199	N	-0.224420	-1.674460	0.542951
N200	N	0.275580	-1.174460	1.042951
H201	H	-0.193213	-1.723162	0.515164
H202	H	0.306787	-1.223162	1.015164
H203	H	-0.393225	-1.410951	0.623199
H204	H	0.106775	-0.910951	1.123199
H205	H	-0.387546	-1.419872	0.756023
H206	H	0.112454	-0.919872	1.256023
N207	N	-0.424879	-1.361564	1.096725
N208	N	0.075121	-0.861564	1.596725
N209	N	-0.422068	-1.365951	1.162096
N210	N	0.077932	-0.865951	1.662096
H211	H	-0.453267	-1.317241	1.189885
H212	H	0.046733	-0.817241	1.689885
H213	H	-0.381577	-1.429174	0.842542
H214	H	0.118423	-0.929174	1.342542
