data_functionalizedCrystal
_audit_creation_method	'MofGen! by Chris Wilmer'
_symmetry_space_group_name_H-M	'P1'
_symmetry_Int_Tables_number	1
_symmetry_cell_setting	triclinic
loop_
_symmetry_equiv_pos_as_xyz
  x,y,z
_cell_length_a	17.038272
_cell_length_b	19.288856
_cell_length_c	18.366186
_cell_angle_alpha	90.011039
_cell_angle_beta	89.993834
_cell_angle_gamma	92.877841
loop_
_atom_site_label
_atom_site_type_symbol
_atom_site_fract_x
_atom_site_fract_y
_atom_site_fract_z
O1	O	0.097482	-0.927388	-0.060584
O2	O	0.110643	-0.725941	-0.060578
O3	O	-0.009749	-0.825467	-0.060575
O4	O	0.217874	-0.827861	-0.060587
O5	O	-0.009755	-0.825448	0.060524
O6	O	0.110637	-0.725922	0.060521
O7	O	0.097476	-0.927369	0.060515
Zn8	Zn	0.104056	-0.826643	0.079745
Zn9	Zn	0.104064	-0.826667	-0.079808
O10	O	0.217868	-0.827843	0.060513
C11	C	0.110218	-0.700029	-0.000028
C12	C	0.108950	-0.622846	-0.000025
C13	C	-0.038873	-0.823280	-0.000026
C14	C	-0.125645	-0.816782	-0.000026
C15	C	0.171013	-0.062645	-0.000018
C16	C	0.172212	-0.135166	-0.000023
C17	C	0.101571	-0.175502	-0.000019
C18	C	0.029727	-0.143312	-0.000029
C19	C	0.028531	-0.070792	-0.000030
C20	C	0.048885	-0.293506	0.042410
C21	C	0.050084	-0.366024	0.042416
C22	C	0.105257	-0.399176	-0.000017
C23	C	0.159245	-0.359800	-0.042447
C24	C	0.158049	-0.287281	-0.042449
C25	C	0.102860	-0.254137	-0.000018
C26	C	0.178396	-0.509993	-0.000018
C27	C	0.179591	-0.582515	-0.000028
C28	C	0.037105	-0.590660	-0.000026
C29	C	0.035912	-0.518139	-0.000024
C30	C	0.106560	-0.477810	-0.000016
C31	C	-0.175953	-0.876438	-0.000027
C32	C	-0.257484	-0.870329	-0.000033
C33	C	-0.288704	-0.804563	-0.000034
C34	C	-0.238389	-0.744902	-0.000035
C35	C	-0.156860	-0.751012	-0.000034
C36	C	-0.534392	-0.782977	-0.000043
C37	C	-0.615927	-0.776872	-0.000043
C38	C	-0.635017	-0.902299	-0.000042
C39	C	-0.553485	-0.908403	-0.000036
C40	C	-0.503177	-0.848743	-0.000041
C41	C	-0.372041	-0.798316	-0.000038
C42	C	-0.419842	-0.854990	-0.000042
C43	C	0.246992	-0.830030	-0.000039
C44	C	0.333764	-0.836528	-0.000044
C45	C	0.097904	0.046719	-0.000031
C46	C	0.099179	-0.030463	-0.000023
N47	N	0.104050	-0.826631	0.188637
N48	N	0.104063	-0.826684	-0.188699
C49	C	0.050767	-0.870719	0.226738
C50	C	0.050763	-0.870723	0.302966
C51	C	0.104056	-0.826647	0.341089
C52	C	0.157344	-0.782551	0.302978
C53	C	0.157341	-0.782543	0.226752
C54	C	0.175280	-0.821756	0.461846
C55	C	0.175285	-0.821768	0.538071
C56	C	0.104066	-0.826667	0.576197
C57	C	0.032840	-0.831568	0.538088
C58	C	0.032837	-0.831560	0.461862
C59	C	0.104066	-0.826650	0.423744
C60	C	0.050775	-0.870762	0.696953
C61	C	0.050770	-0.870761	0.773183
C62	C	0.157358	-0.782593	0.773194
C63	C	0.157356	-0.782590	0.696966
C64	C	0.104065	-0.826678	0.658850
H65	H	0.228541	-0.029813	-0.000016
Br66	Br	-0.026045	-0.248525	0.099954
H67	H	-0.022584	-0.491937	-0.000023
H68	H	0.007372	-0.906616	0.195707
H69	H	0.200735	-0.746663	0.334022
H70	H	-0.027789	-0.176158	-0.000027
Br71	Br	-0.063820	-0.838226	0.589820
Br72	Br	-0.023175	-0.419455	0.100008
H73	H	-0.528072	-0.961957	-0.000036
Br74	Br	0.229659	-0.722705	0.175038
H75	H	-0.115899	-0.702434	-0.000033
Br76	Br	-0.280758	-0.655647	-0.000048
H77	H	-0.397470	-0.744769	-0.000037
Br78	Br	0.271945	-0.815176	0.410112
H79	H	-0.493440	-0.734397	-0.000047
H80	H	-0.394418	-0.908536	-0.000058
H81	H	0.007371	-0.906625	0.333994
Br82	Br	-0.068967	-0.027114	-0.000042
Br83	Br	0.231310	-0.233845	-0.100033
Br84	Br	0.269708	-0.178852	-0.000017
Br85	Br	-0.063821	-0.838204	0.410145
H86	H	0.204174	-0.386791	-0.076998
H87	H	0.007376	-0.906660	0.804206
Br88	Br	0.274272	-0.455256	-0.000009
Br89	Br	-0.133592	-0.965697	-0.000015
H90	H	0.238090	-0.608716	-0.000030
H91	H	-0.020412	-0.623501	-0.000028
H92	H	0.007379	-0.906659	0.665919
H93	H	0.200747	-0.746703	0.804233
H94	H	0.200747	-0.746693	0.665941
H95	H	-0.298443	-0.918908	-0.000032
Br96	Br	-0.703295	-0.983262	-0.000035
Br97	Br	-0.658297	-0.687612	-0.000036
H98	H	0.233281	-0.817782	0.569093
