data_functionalizedCrystal
_audit_creation_method	'MofGen! by Chris Wilmer'
_symmetry_space_group_name_H-M	'P1'
_symmetry_Int_Tables_number	1
_symmetry_cell_setting	triclinic
loop_
_symmetry_equiv_pos_as_xyz
  x,y,z
_cell_length_a	23.532407
_cell_length_b	23.532407
_cell_length_c	22.610064
_cell_angle_alpha	90.002854
_cell_angle_beta	89.999803
_cell_angle_gamma	97.151322
loop_
_atom_site_label
_atom_site_type_symbol
_atom_site_fract_x
_atom_site_fract_y
_atom_site_fract_z
O1	O	0.069127	-0.755264	-0.049117
O2	O	0.079130	-0.589400	-0.049135
O3	O	-0.008803	-0.677333	-0.049114
O4	O	0.157060	-0.667330	-0.049137
O5	O	-0.008790	-0.677318	0.049255
O6	O	0.079143	-0.589385	0.049234
O7	O	0.069140	-0.755248	0.049252
Zn8	Zn	0.074144	-0.672314	0.064862
Zn9	Zn	0.074126	-0.672334	-0.064744
O10	O	0.157074	-0.667315	0.049232
C11	C	0.078882	-0.568176	0.000048
C12	C	0.078116	-0.504959	0.000041
C13	C	-0.030013	-0.677071	0.000072
C14	C	-0.093230	-0.676305	0.000076
C15	C	0.069388	-0.776472	0.000069
C16	C	0.070154	-0.839689	0.000071
C17	C	-0.492333	-0.723539	0.000049
C18	C	-0.551733	-0.722827	0.000044
O19	O	-0.588478	-0.766613	0.000027
N20	N	-0.574359	-0.670551	0.000039
C21	C	-0.537582	-0.618983	0.000032
O22	O	-0.562281	-0.574452	0.000027
C23	C	-0.478182	-0.619695	0.000033
C24	C	-0.455560	-0.671974	0.000044
C25	C	-0.469710	-0.775814	0.000060
C26	C	-0.410313	-0.776525	0.000065
C27	C	-0.373540	-0.724961	0.000060
C28	C	-0.396164	-0.672685	0.000050
C29	C	-0.441406	-0.568127	0.000022
C30	C	-0.382004	-0.568844	0.000021
C31	C	-0.359381	-0.621123	0.000033
C32	C	-0.299995	-0.621832	0.000050
N33	N	-0.277368	-0.674109	0.000056
C34	C	-0.314141	-0.725673	0.000061
C35	C	-0.662324	-0.617491	0.000031
C36	C	-0.721722	-0.616778	0.000034
C37	C	-0.735869	-0.720623	0.000045
C38	C	-0.676470	-0.721335	0.000046
C39	C	-0.639698	-0.669767	0.000036
C40	C	-0.189405	-0.727163	0.000073
C41	C	-0.130003	-0.727869	0.000081
C42	C	-0.115860	-0.624025	0.000067
C43	C	-0.175257	-0.623318	0.000062
C44	C	-0.212029	-0.674891	0.000063
O45	O	-0.263215	-0.578070	0.000065
O46	O	-0.289433	-0.770196	0.000058
C47	C	0.178283	-0.667577	0.000045
C48	C	0.241500	-0.668343	0.000036
N49	N	0.074156	-0.672304	0.153314
C50	C	0.125350	-0.105856	0.000061
C51	C	0.124638	-0.046456	0.000065
O52	O	0.168424	-0.009711	0.000081
N53	N	0.072362	-0.023830	0.000071
C54	C	0.020794	-0.060607	0.000080
O55	O	-0.023737	-0.035908	0.000086
C56	C	0.021506	-0.120006	0.000080
C57	C	0.073785	-0.142629	0.000068
C58	C	0.177625	-0.128479	0.000050
C59	C	0.178336	-0.187876	0.000045
C60	C	0.126772	-0.224649	0.000052
C61	C	0.074497	-0.202025	0.000063
C62	C	-0.030062	-0.156783	0.000093
C63	C	-0.029345	-0.216185	0.000094
C64	C	0.022934	-0.238808	0.000082
C65	C	0.023643	-0.298194	0.000065
N66	N	0.075920	-0.320820	0.000059
C67	C	0.127484	-0.284048	0.000052
C68	C	0.019302	0.064135	0.000080
C69	C	0.018589	0.123533	0.000075
C70	C	0.122434	0.137680	0.000061
C71	C	0.123146	0.078281	0.000062
C72	C	0.071578	0.041509	0.000074
C73	C	0.128974	-0.408784	0.000042
C74	C	0.129680	-0.468186	0.000034
C75	C	0.025836	-0.482329	0.000051
C76	C	0.025129	-0.422932	0.000055
C77	C	0.076702	-0.386160	0.000052
O78	O	-0.020119	-0.334974	0.000052
O79	O	0.172007	-0.308755	0.000054
C80	C	0.035200	-0.711272	0.561965
C81	C	0.035196	-0.711275	0.623884
O82	O	0.002080	-0.744383	0.655911
N83	N	0.074119	-0.672333	0.654851
C84	C	0.113045	-0.633382	0.623895
O85	O	0.146152	-0.600259	0.655920
C86	C	0.113046	-0.633377	0.561976
C87	C	0.074124	-0.672325	0.531013
C88	C	-0.003720	-0.750217	0.531001
C89	C	-0.003715	-0.750215	0.469085
C90	C	0.035209	-0.711268	0.438133
C91	C	0.074128	-0.672323	0.469097
C92	C	0.151969	-0.594423	0.531021
C93	C	0.151965	-0.594421	0.469098
C94	C	0.113043	-0.633370	0.438134
C95	C	0.113057	-0.633374	0.376229
N96	N	0.074133	-0.672315	0.345262
C97	C	0.035209	-0.711263	0.376214
C98	C	0.113040	-0.633395	0.753928
C99	C	0.113043	-0.633402	0.815846
C100	C	0.035193	-0.711295	0.815831
C101	C	0.035193	-0.711290	0.753913
C102	C	0.074117	-0.672337	0.722962
C103	C	0.035222	-0.711255	0.246187
C104	C	0.035232	-0.711251	0.184266
C105	C	0.113080	-0.633357	0.184286
C106	C	0.113072	-0.633362	0.246202
C107	C	0.074139	-0.672314	0.277151
O108	O	0.146154	-0.600281	0.344163
O109	O	0.002103	-0.744375	0.344182
N110	N	0.074117	-0.672348	0.846804
H111	H	-0.111587	-0.770443	0.000092
H112	H	-0.085909	-0.582043	0.000065
H113	H	0.003499	-0.743005	0.728706
H114	H	0.172255	-0.486602	0.000024
H115	H	-0.017441	-0.404512	0.000056
H116	H	0.144741	-0.601676	0.728731
O117	O	-0.197142	-0.572485	0.000027
C118	C	-0.151944	-0.527126	0.000041
H119	H	-0.111674	-0.542861	-0.018569
H120	H	-0.143460	-0.511226	0.047232
C121	C	-0.217894	-0.458477	-0.015694
C122	C	-0.168434	-0.477802	-0.038556
H123	H	-0.228066	-0.428050	-0.039500
H124	H	-0.248345	-0.489036	-0.015701
H125	H	-0.210817	-0.445231	0.023631
H126	H	-0.175514	-0.491054	-0.077878
H127	H	-0.137985	-0.447244	-0.038556
H128	H	-0.023982	0.141947	0.000076
O129	O	0.150878	-0.595517	0.845829
C130	C	0.185241	-0.561154	0.805224
H131	H	0.161893	-0.560647	0.761087
H132	H	0.227456	-0.579404	0.798638
C133	C	0.225968	-0.500274	0.883600
C134	C	0.197290	-0.499647	0.829390
H135	H	0.233403	-0.462334	0.898507
H136	H	0.202819	-0.523426	0.910956
H137	H	0.261144	-0.515485	0.878104
H138	H	0.162112	-0.484443	0.834888
H139	H	0.220433	-0.476491	0.802035
H140	H	0.170970	-0.378851	0.000041
H141	H	-0.035411	-0.781928	0.443878
O142	O	-0.030847	0.028497	0.000055
C143	C	-0.077135	0.061211	0.000074
H144	H	-0.062415	0.105625	-0.018548
H145	H	-0.093171	0.065356	0.047268
C146	C	-0.143996	-0.023200	-0.015627
C147	C	-0.125918	0.031349	-0.038505
H148	H	-0.174089	-0.041621	-0.039422
H149	H	-0.112811	-0.045241	-0.015638
H150	H	-0.157355	-0.019738	0.023701
H151	H	-0.112552	0.027886	-0.077829
H152	H	-0.157102	0.053388	-0.038502
H153	H	-0.219337	-0.769159	0.000071
O154	O	0.227771	-0.092844	0.000015
C155	C	0.274056	-0.125562	0.000021
H156	H	0.259328	-0.169979	-0.018596
H157	H	0.290106	-0.129701	0.047210
C158	C	0.340918	-0.041158	-0.015704
C159	C	0.322830	-0.095709	-0.038574
H160	H	0.371006	-0.022742	-0.039509
H161	H	0.309736	-0.019114	-0.015706
H162	H	0.354289	-0.044614	0.023620
H163	H	0.309453	-0.092251	-0.077894
H164	H	0.354011	-0.117751	-0.038580
H165	H	0.164421	0.167632	0.000059
O166	O	-0.002601	-0.749071	0.845996
C167	C	0.005757	-0.740727	0.907286
H168	H	0.027276	-0.695330	0.915741
H169	H	0.034156	-0.772799	0.924856
C170	C	-0.078977	-0.805371	0.928692
C171	C	-0.052550	-0.749611	0.939078
H172	H	-0.114942	-0.810853	0.948305
H173	H	-0.084607	-0.810994	0.887401
H174	H	-0.055304	-0.832091	0.943335
H175	H	-0.076219	-0.722892	0.924429
H176	H	-0.046925	-0.743983	0.980368
O177	O	-0.388437	-0.827360	0.000045
C178	C	-0.433640	-0.872713	0.000062
H179	H	-0.473904	-0.856979	-0.018563
H180	H	-0.442136	-0.888595	0.047256
C181	C	-0.367699	-0.941379	-0.015635
C182	C	-0.417151	-0.922055	-0.038515
H183	H	-0.357527	-0.971816	-0.039429
H184	H	-0.337244	-0.910824	-0.015644
H185	H	-0.374785	-0.954610	0.023693
H186	H	-0.410062	-0.908818	-0.077839
H187	H	-0.447604	-0.952608	-0.038513
O188	O	-0.002636	-0.749108	0.154280
C189	C	-0.036982	-0.783490	0.194882
H190	H	-0.037508	-0.760145	0.239021
H191	H	-0.018704	-0.825690	0.201466
C192	C	-0.097835	-0.824252	0.116503
C193	C	-0.098485	-0.795577	0.170714
H194	H	-0.135773	-0.831710	0.101595
H195	H	-0.074695	-0.801090	0.089149
H196	H	-0.082601	-0.859416	0.121997
H197	H	-0.113712	-0.760411	0.165218
H198	H	-0.121630	-0.818734	0.198067
O199	O	-0.505448	-0.825893	-0.000039
C200	C	-0.540244	-0.828603	-0.050976
H201	H	-0.518337	-0.799357	-0.086591
H202	H	-0.583365	-0.814123	-0.039459
C203	C	-0.576502	-0.926549	-0.030322
C204	C	-0.549593	-0.890633	-0.074067
H205	H	-0.582271	-0.964812	-0.044564
H206	H	-0.553061	-0.924724	0.003997
H207	H	-0.612433	-0.914476	-0.020728
H208	H	-0.513660	-0.902702	-0.083654
H209	H	-0.573028	-0.892462	-0.108388
O210	O	-0.626663	-0.567357	-0.000049
C211	C	-0.636867	-0.535610	-0.051005
H212	H	-0.682005	-0.549865	-0.067991
H213	H	-0.604414	-0.543207	-0.086678
C214	C	-0.575440	-0.453905	-0.014671
C215	C	-0.630880	-0.471410	-0.035530
H216	H	-0.571745	-0.414303	-0.005127
H217	H	-0.568563	-0.475294	0.019659
H218	H	-0.548402	-0.460240	-0.044401
H219	H	-0.657916	-0.465081	-0.005797
H220	H	-0.637762	-0.450019	-0.069854
O221	O	-0.463277	-0.517292	-0.000018
C222	C	-0.418073	-0.471940	-0.000012
H223	H	-0.377809	-0.487683	-0.018628
H224	H	-0.409579	-0.456039	0.047178
C225	C	-0.484010	-0.403278	-0.015738
C226	C	-0.434558	-0.422613	-0.038607
H227	H	-0.494180	-0.372849	-0.039543
H228	H	-0.514466	-0.433832	-0.015740
H229	H	-0.476925	-0.390032	0.023586
H230	H	-0.441646	-0.435866	-0.077928
H231	H	-0.404104	-0.392060	-0.038613
H232	H	-0.035419	-0.781932	0.556197
H233	H	-0.352066	-0.526850	0.000013
O234	O	0.229110	-0.209869	-0.000075
C235	C	0.232620	-0.243812	-0.051019
H236	H	0.202926	-0.229936	-0.086617
H237	H	0.219230	-0.290733	-0.039502
C238	C	0.331128	-0.253291	-0.030415
C239	C	0.294660	-0.236246	-0.074139
H240	H	0.369397	-0.248627	-0.044676
H241	H	0.328762	-0.230425	0.003908
H242	H	0.319962	-0.292391	-0.020822
H243	H	0.305822	-0.197145	-0.083727
H244	H	0.297029	-0.259106	-0.108465
H245	H	0.165717	0.059867	0.000055
O246	O	-0.002519	-0.749117	0.276309
C247	C	0.027799	-0.784091	0.312111
H248	H	0.072477	-0.761155	0.321402
H249	H	0.031462	-0.826153	0.288238
C250	C	-0.059260	-0.824632	0.359507
C251	C	-0.004387	-0.796459	0.370922
H252	H	-0.079115	-0.832263	0.395783
H253	H	-0.079686	-0.801071	0.335385
H254	H	-0.056199	-0.859680	0.339611
H255	H	-0.007449	-0.761408	0.390811
H256	H	0.016038	-0.820014	0.395049
O257	O	-0.080897	-0.134912	0.000137
C258	C	-0.126249	-0.180116	0.000133
H259	H	-0.110505	-0.220380	0.018747
H260	H	-0.142151	-0.188612	-0.047055
C261	C	-0.194910	-0.114178	0.015867
C262	C	-0.175575	-0.163629	0.038733
H263	H	-0.225338	-0.104008	0.039675
H264	H	-0.164357	-0.083722	0.015867
H265	H	-0.208158	-0.121264	-0.023456
H266	H	-0.162320	-0.156540	0.078053
H267	H	-0.206127	-0.194083	0.038741
O268	O	0.189721	-0.556508	0.561061
C269	C	0.180748	-0.500191	0.545915
H270	H	0.135149	-0.500181	0.528899
H271	H	0.212395	-0.483285	0.509969
C272	C	0.245803	-0.461534	0.621814
C273	C	0.189795	-0.461522	0.600919
H274	H	0.251386	-0.437680	0.655742
H275	H	0.251850	-0.499476	0.632017
H276	H	0.272168	-0.447448	0.591853
H277	H	0.163431	-0.475614	0.630877
H278	H	0.183744	-0.423581	0.590723
H279	H	0.183661	-0.562699	0.443901
H280	H	0.144772	-0.601653	0.271413
O281	O	-0.079403	-0.251963	0.000024
C282	C	-0.082116	-0.286736	-0.050932
H283	H	-0.036933	-0.289494	-0.067926
H284	H	-0.108017	-0.267334	-0.086600
C285	C	-0.166620	-0.343815	-0.014583
C286	C	-0.111125	-0.347207	-0.035452
H287	H	-0.184516	-0.381115	-0.005036
H288	H	-0.164794	-0.320387	0.019746
H289	H	-0.188197	-0.327644	-0.044310
H290	H	-0.089547	-0.363371	-0.005723
H291	H	-0.112948	-0.370639	-0.069776
H292	H	0.144773	-0.601648	0.159075
H293	H	-0.658056	-0.763906	0.000054
H294	H	-0.016146	-0.512280	0.000054
H295	H	-0.765821	-0.762610	0.000047
H296	H	-0.740136	-0.574207	0.000035
