data_functionalizedCrystal
_audit_creation_method	'MofGen! by Chris Wilmer'
_symmetry_space_group_name_H-M	'P1'
_symmetry_Int_Tables_number	1
_symmetry_cell_setting	triclinic
loop_
_symmetry_equiv_pos_as_xyz
  x,y,z
_cell_length_a	19.377372
_cell_length_b	17.052862
_cell_length_c	17.052977
_cell_angle_alpha	45.842756
_cell_angle_beta	78.083194
_cell_angle_gamma	81.137717
loop_
_atom_site_label
_atom_site_type_symbol
_atom_site_fract_x
_atom_site_fract_y
_atom_site_fract_z
Zr1	Zr	0.794897	1.205778	-0.455077
O2	O	0.738103	1.349855	-0.593792
O3	O	0.794252	1.038060	-0.389764
O4	O	0.850509	1.228671	-0.598219
O5	O	0.658007	1.149429	-0.246828
O6	O	0.959715	1.273623	-0.627635
O7	O	0.681846	1.159243	-0.385337
O8	O	0.859082	0.932654	-0.254747
O9	O	0.758640	1.490398	-0.619716
O10	O	0.897290	1.149348	-0.411395
O11	O	0.798000	1.108477	-0.286074
O12	O	0.864235	1.332897	-0.531503
O13	O	0.764945	1.292026	-0.406183
Zr14	Zr	0.931047	1.261819	-0.281085
Zr15	Zr	0.969067	1.277471	-0.501992
Zr16	Zr	0.756876	1.190126	-0.234170
Zr17	Zr	0.827652	1.429929	-0.496422
Zr18	Zr	0.898292	1.037668	-0.239740
O19	O	0.931691	1.429537	-0.346398
O20	O	0.985751	1.451793	-0.660499
O21	O	0.684043	1.327599	-0.279691
O22	O	0.987841	1.117742	-0.142370
O23	O	1.041901	1.139998	-0.456471
O24	O	0.740192	1.015804	-0.075664
O25	O	1.067937	1.318168	-0.489335
O26	O	0.875434	1.238926	-0.137943
O27	O	0.766228	1.193974	-0.108527
O28	O	1.044098	1.308354	-0.350825
O29	O	0.897083	1.547385	-0.657007
O30	O	0.828861	0.920212	-0.079156
O31	O	0.967303	0.977198	-0.116447
O32	O	0.997524	0.989640	-0.292038
O33	O	0.728419	1.477957	-0.444124
O34	O	0.866862	1.534943	-0.481415
O35	O	0.861708	1.134699	-0.204659
O36	O	0.960998	1.175571	-0.329980
O37	O	0.927944	1.359120	-0.450088
O38	O	0.828654	1.318249	-0.324767
C39	C	0.822000	0.953420	-0.316365
C40	C	0.808095	0.858262	-0.298813
C41	C	0.976211	0.675374	-0.511017
C42	C	0.989276	0.764784	-0.527515
C43	C	0.943982	0.788158	-0.470341
C44	C	0.885621	0.722113	-0.396666
C45	C	0.872552	0.632700	-0.380173
C46	C	0.840323	0.745483	-0.339497
C47	C	0.781962	0.679438	-0.265822
C48	C	0.768896	0.590034	-0.249331
C49	C	0.814189	0.566660	-0.306505
C50	C	0.853391	0.834897	-0.355990
C51	C	0.749732	0.792222	-0.225146
C52	C	0.736668	0.702812	-0.208648
C53	C	0.645111	1.144121	-0.309398
C54	C	0.571171	1.113686	-0.289482
C55	C	0.241724	1.492631	-0.537454
C56	C	0.172251	1.464006	-0.518722
C57	C	0.206767	1.272395	-0.393338
C58	C	0.276244	1.301003	-0.412056
C59	C	0.293717	1.411122	-0.484116
C60	C	0.328236	1.219495	-0.358718
C61	C	0.397708	1.248101	-0.377438
C62	C	0.415187	1.358215	-0.449497
C63	C	0.363188	1.439729	-0.502837
C64	C	0.310763	1.109376	-0.286664
C65	C	0.362755	1.027868	-0.233326
C66	C	0.432227	1.056473	-0.252040
C67	C	0.449707	1.166588	-0.324099
C68	C	0.484226	0.974960	-0.198701
C69	C	0.553698	1.003566	-0.217421
C70	C	0.519179	1.195194	-0.342820
C71	C	1.080833	1.323475	-0.426764
C72	C	1.154773	1.353911	-0.446681
C73	C	0.910529	1.253377	-0.644402
C74	C	0.926670	1.260022	-0.738182
C75	C	0.903943	1.514177	-0.419797
C76	C	0.917849	1.609334	-0.437349
C77	C	0.994419	1.287914	-0.798444
C78	C	1.009591	1.294152	-0.886553
C79	C	0.957013	1.272509	-0.914414
C80	C	0.889261	1.244625	-0.854157
C81	C	0.874089	1.238377	-0.766035
C82	C	0.836683	1.222972	-0.882005
C83	C	0.768931	1.195088	-0.821748
C84	C	0.753762	1.188842	-0.733635
C85	C	0.806340	1.210485	-0.705773
C86	C	0.851854	1.229220	-0.970128
C87	C	0.731524	1.179683	-0.937719
C88	C	0.716353	1.173444	-0.849610
C89	C	0.815414	1.214219	-0.091761
C90	C	0.799274	1.207575	0.002020
C91	C	1.039861	1.043097	-0.375048
C92	C	1.099896	0.978375	-0.377413
C93	C	0.774442	0.933841	-0.040044
C94	C	0.744396	0.832038	0.071288
C95	C	0.992303	1.023518	-0.098728
C96	C	1.036197	0.952151	-0.007311
C97	C	0.733640	1.444079	-0.637435
C98	C	0.689746	1.515446	-0.728851
C99	C	0.686082	1.424500	-0.361114
C100	C	0.626048	1.489222	-0.358750
C101	C	0.951501	1.533756	-0.696118
C102	C	0.981547	1.635558	-0.807451
C103	C	1.094835	0.934293	-0.421030
C104	C	1.151243	0.873491	-0.423273
C105	C	1.212708	0.856765	-0.381891
C106	C	1.217768	0.900854	-0.338273
C107	C	1.161363	0.961662	-0.336037
C108	C	0.763540	0.797918	0.166079
C109	C	0.735306	0.702274	0.270694
C110	C	0.687932	0.640748	0.280517
C111	C	0.668786	0.674876	0.185716
C112	C	0.697017	0.770522	0.081103
C113	C	1.108646	0.939974	-0.029799
C114	C	1.149899	0.872932	0.056083
C115	C	1.118701	0.818063	0.164454
C116	C	1.046246	0.830246	0.186941
C117	C	1.004995	0.897293	0.101058
C118	C	0.617299	1.527634	-0.706365
C119	C	0.576050	1.594703	-0.792253
C120	C	0.607249	1.649577	-0.900625
C121	C	0.679703	1.637388	-0.923110
C122	C	0.720951	1.570326	-0.837224
C123	C	0.631111	1.533314	-0.315143
C124	C	0.574712	1.594142	-0.312929
C125	C	0.513247	1.610872	-0.354315
C126	C	0.508186	1.566778	-0.397928
C127	C	0.564587	1.505957	-0.400149
C128	C	1.028919	1.697057	-0.817237
C129	C	1.057163	1.792706	-0.921840
C130	C	1.038031	1.826858	-1.016654
C131	C	0.990655	1.765349	-1.006863
C132	C	0.962416	1.669698	-0.902262
H133	H	0.954622	0.860961	-0.483778
H134	H	1.036792	0.818556	-0.587501
H135	H	0.560453	1.470055	-0.435654
H136	H	0.471757	1.381504	-0.464740
H137	H	1.208894	0.863022	0.037755
H138	H	1.152298	0.763473	0.234376
F139	F	1.068090	1.928663	-1.127974
H140	H	0.946002	0.907195	0.119385
F141	F	0.644248	1.143768	-0.785471
F142	F	1.049292	1.660729	-0.716342
H143	H	1.013082	0.656341	-0.557568
H144	H	1.147109	0.837598	-0.458791
F145	F	1.081694	1.323826	-0.950677
H146	H	0.681152	1.519697	-0.281434
F147	F	1.272734	0.792043	-0.384276
F148	F	0.381786	1.556930	-0.579521
F149	F	0.580111	1.641057	-0.266504
H150	H	0.469990	0.885302	-0.140038
H151	H	0.467327	1.660398	-0.352500
F152	F	0.970294	1.801716	-1.107783
F153	F	1.029425	0.952084	-0.465083
F154	F	0.260322	1.609832	-0.614138
F155	F	0.584080	1.469240	-0.591033
F156	F	0.800288	0.471494	-0.288942
H157	H	0.517056	1.604612	-0.773923
F158	F	0.712897	1.695794	-1.038455
H159	H	0.129919	1.530388	-0.562164
H160	H	0.923841	1.619633	-0.894308
F161	F	0.236825	1.078934	-0.266749
F162	F	0.915502	0.905177	-0.434398
H163	H	0.721370	0.536267	-0.189349
F164	F	0.681658	1.159149	-0.669494
H165	H	0.689149	0.649027	-0.148662
H166	H	0.458134	1.580408	-0.431623
H167	H	1.037224	1.305525	-0.775747
H168	H	1.095735	1.842776	-0.929791
H169	H	0.573653	1.704179	-0.970548
F170	F	0.790192	1.203851	-0.612000
F171	F	0.344151	0.910675	-0.156639
H172	H	0.712849	0.811254	-0.178593
H173	H	0.779942	1.560405	-0.855546
H174	H	0.533400	1.284862	-0.401468
F175	F	0.188163	1.155202	-0.316652
H176	H	1.134061	0.984641	-0.118034
H177	H	1.267821	0.887227	-0.304581
H178	H	0.596029	0.937193	-0.173971
F179	F	1.013052	0.771843	0.302285
H180	H	0.907019	1.251923	-1.019181
H181	H	0.969368	1.277590	-0.986157
H182	H	0.688711	1.162056	-0.960400
H183	H	1.165491	0.997546	-0.300512
H184	H	0.802112	0.848004	0.158101
H185	H	0.750905	0.674502	0.347873
F186	F	0.657893	0.538953	0.391865
H187	H	0.630211	0.624767	0.193732
F188	F	0.676639	0.806820	-0.019774
