data_functionalizedCrystal
_audit_creation_method	'MofGen! by Chris Wilmer'
_symmetry_space_group_name_H-M	'P1'
_symmetry_Int_Tables_number	1
_symmetry_cell_setting	triclinic
loop_
_symmetry_equiv_pos_as_xyz
  x,y,z
_cell_length_a	19.077105
_cell_length_b	18.050588
_cell_length_c	19.076919
_cell_angle_alpha	87.727743
_cell_angle_beta	89.923776
_cell_angle_gamma	87.725951
loop_
_atom_site_label
_atom_site_type_symbol
_atom_site_fract_x
_atom_site_fract_y
_atom_site_fract_z
Zn1	Zn	1.058240	-0.359280	0.440421
Zn2	Zn	1.391573	-0.025947	0.773754
Zn3	Zn	1.724907	0.307387	1.107087
Zn4	Zn	1.062870	-0.478688	0.322915
Zn5	Zn	1.396203	-0.145355	0.656248
Zn6	Zn	1.729536	0.187979	0.989581
Zn7	Zn	0.945459	-0.349332	0.318214
Zn8	Zn	1.278792	-0.015998	0.651547
Zn9	Zn	1.612125	0.317335	0.984881
Zn10	Zn	0.940691	-0.478240	0.435667
Zn11	Zn	1.274025	-0.144907	0.769001
Zn12	Zn	1.607358	0.188427	1.102334
O13	O	1.001815	-0.416385	0.379304
O14	O	1.335148	-0.083052	0.712638
O15	O	1.668482	0.250282	1.045971
O16	O	1.157185	-0.379471	0.428790
O17	O	1.490519	-0.046137	0.762123
O18	O	1.823852	0.287196	1.095456
O19	O	1.051227	-0.457552	0.223960
O20	O	1.384561	-0.124219	0.557293
O21	O	1.717894	0.209114	0.890627
O22	O	0.960477	-0.246730	0.334447
O23	O	1.293810	0.086603	0.667780
O24	O	1.627143	0.419937	1.001113
O25	O	1.160587	-0.467199	0.342459
O26	O	1.493920	-0.133866	0.675792
O27	O	1.827254	0.199468	1.009125
O28	O	1.043337	-0.254039	0.424232
O29	O	1.376670	0.079294	0.757565
O30	O	1.710003	0.412628	1.090898
O31	O	0.964966	-0.362515	0.220506
O32	O	1.298299	-0.029181	0.553840
O33	O	1.631633	0.304152	0.887173
O34	O	0.846495	-0.362081	0.329838
O35	O	1.179828	-0.028747	0.663171
O36	O	1.513161	0.304586	0.996504
O37	O	0.952352	-0.466436	0.534629
O38	O	1.285685	-0.133102	0.867963
O39	O	1.619018	0.200231	1.201296
O40	O	0.842992	-0.456789	0.416130
O41	O	1.176326	-0.123456	0.749464
O42	O	1.509659	0.209878	1.082797
O43	O	1.038714	-0.379036	0.538121
O44	O	1.372048	-0.045703	0.871455
O45	O	1.705381	0.287630	1.204788
O46	O	1.046605	-0.582550	0.337850
O47	O	1.379938	-0.249216	0.671183
O48	O	1.713272	0.084117	1.004516
O49	O	0.956841	-0.582221	0.420689
O50	O	1.290174	-0.248887	0.754022
O51	O	1.623508	0.084446	1.087355
C52	C	0.819247	-0.408307	0.371959
C53	C	1.152581	-0.074974	0.705292
C54	C	1.485914	0.258359	1.038625
C55	C	0.741143	-0.404870	0.368833
C56	C	1.074477	-0.071537	0.702166
C57	C	1.407810	0.261797	1.035499
C58	C	0.702648	-0.452634	0.412222
C59	C	1.035981	-0.119300	0.745555
C60	C	1.369314	0.214033	1.078888
C61	C	0.629261	-0.449395	0.409288
C62	C	0.962594	-0.116061	0.742621
C63	C	1.295927	0.217272	1.075955
C64	C	0.594371	-0.398395	0.362961
C65	C	0.927704	-0.065062	0.696295
C66	C	1.261038	0.268272	1.029628
C67	C	0.632872	-0.350626	0.319571
C68	C	0.966205	-0.017293	0.652904
C69	C	1.299538	0.316041	0.986238
C70	C	0.706257	-0.353862	0.322509
C71	C	1.039591	-0.020529	0.655842
C72	C	1.372924	0.312804	0.989175
C73	C	0.375085	-0.383418	0.349369
C74	C	0.708418	-0.050085	0.682702
C75	C	1.041752	0.283249	1.016035
C76	C	0.301694	-0.380187	0.346433
C77	C	0.635027	-0.046854	0.679766
C78	C	0.968361	0.286480	1.013099
C79	C	0.298088	-0.478955	0.436151
C80	C	0.631422	-0.145622	0.769484
C81	C	0.964755	0.187712	1.102818
C82	C	0.371475	-0.482189	0.439082
C83	C	0.704809	-0.148856	0.772415
C84	C	1.038142	0.184477	1.105748
C85	C	0.409970	-0.434418	0.395694
C86	C	0.743303	-0.101085	0.729027
C87	C	1.076636	0.232249	1.062360
N88	N	0.519358	-0.395084	0.359960
N89	N	0.852691	-0.061751	0.693293
N90	N	1.186024	0.271582	1.026627
N91	N	0.484981	-0.437726	0.398699
N92	N	0.818315	-0.104392	0.732032
N93	N	1.151648	0.228941	1.065366
C94	C	1.001727	-0.609332	0.379280
C95	C	1.335060	-0.275999	0.712613
C96	C	1.668393	0.057334	1.045946
C97	C	1.001752	-0.691880	0.379295
C98	C	1.335086	-0.358546	0.712628
C99	C	1.668419	-0.025213	1.045962
C100	C	0.953013	-0.940557	0.424346
C101	C	1.286346	-0.607223	0.757679
C102	C	1.619679	-0.273890	1.091013
C103	C	1.016392	-0.894618	0.444160
C104	C	1.349726	-0.561284	0.777494
C105	C	1.683059	-0.227951	1.110827
C106	C	1.001897	-0.989008	0.379340
C107	C	1.335230	-0.655675	0.712673
C108	C	1.668563	-0.322341	1.046007
C109	C	0.938448	-0.887863	0.359537
C110	C	1.271781	-0.554529	0.692870
C111	C	1.605114	-0.221196	1.026203
C112	C	1.001822	-0.843019	0.379320
C113	C	1.335156	-0.509686	0.712653
C114	C	1.668489	-0.176352	1.045986
C115	C	1.065310	-0.944159	0.399189
C116	C	1.398643	-0.610826	0.732522
C117	C	1.731976	-0.277493	1.065856
C118	C	0.987323	-0.937406	0.314534
C119	C	1.320656	-0.604072	0.647867
C120	C	1.653989	-0.270739	0.981201
C121	C	1.050748	-0.891490	0.334326
C122	C	1.384081	-0.558157	0.667659
C123	C	1.717415	-0.224823	1.000992
C124	C	1.001938	-1.073109	0.379354
C125	C	1.335272	-0.739775	0.712687
C126	C	1.668605	-0.406442	1.046020
C127	C	1.001788	-0.758920	0.379306
C128	C	1.335121	-0.425587	0.712640
C129	C	1.668454	-0.092254	1.045973
C130	C	1.185095	-0.424495	0.386679
C131	C	1.518429	-0.091161	0.720012
C132	C	1.851762	0.242172	1.053346
C133	C	1.263199	-0.427951	0.389822
C134	C	1.596532	-0.094617	0.723155
C135	C	1.929865	0.238716	1.056488
C136	C	0.994485	-0.423796	0.562584
C137	C	1.327818	-0.090463	0.895918
C138	C	1.661151	0.242871	1.229251
C139	C	0.991361	-0.426954	0.640688
C140	C	1.324694	-0.093621	0.974021
C141	C	1.658028	0.239713	1.307354
C142	C	1.001922	-0.222686	0.379345
C143	C	1.335255	0.110648	0.712678
C144	C	1.668589	0.443981	1.046012
C145	C	1.001968	-0.140142	0.379362
C146	C	1.335301	0.193191	0.712696
C147	C	1.668634	0.526524	1.046029
C148	C	1.009157	-0.408951	0.196739
C149	C	1.342490	-0.075618	0.530072
C150	C	1.675824	0.257716	0.863405
C151	C	1.012417	-0.405590	0.118641
C152	C	1.345750	-0.072256	0.451975
C153	C	1.679083	0.261077	0.785308
C154	C	1.034856	-0.382936	0.679200
C155	C	1.368189	-0.049602	1.012533
C156	C	1.701522	0.283731	1.345866
C157	C	1.031912	-0.385900	0.752586
C158	C	1.365245	-0.052567	1.085919
C159	C	1.698579	0.280767	1.419252
C160	C	0.985477	-0.432887	0.787458
C161	C	1.318810	-0.099554	1.120791
C162	C	1.652144	0.233780	1.454125
C163	C	0.941978	-0.476907	0.748940
C164	C	1.275311	-0.143574	1.082274
C165	C	1.608645	0.189760	1.415607
C166	C	0.944918	-0.473938	0.675556
C167	C	1.278252	-0.140605	1.008889
C168	C	1.611585	0.192728	1.342222
C169	C	0.971858	-0.446641	1.006739
C170	C	1.305191	-0.113308	1.340072
C171	C	1.638525	0.220026	1.673406
C172	C	0.968922	-0.449608	1.080129
C173	C	1.302256	-0.116275	1.413462
C174	C	1.635589	0.217059	1.746796
C175	C	1.058856	-0.358599	1.083769
C176	C	1.392189	-0.025266	1.417103
C177	C	1.725522	0.308067	1.750436
C178	C	1.061795	-0.355638	1.010383
C179	C	1.395128	-0.022305	1.343716
C180	C	1.728462	0.311028	1.677050
C181	C	1.018293	-0.399655	0.971872
C182	C	1.351627	-0.066322	1.305205
C183	C	1.684960	0.267011	1.638539
N184	N	0.982469	-0.435920	0.862470
N185	N	1.315802	-0.102586	1.195803
N186	N	1.649135	0.230747	1.529137
N187	N	1.021299	-0.396618	0.896861
N188	N	1.354632	-0.063285	1.230194
N189	N	1.687965	0.270048	1.563528
H190	H	0.406418	-0.344524	0.314034
H191	H	0.739752	-0.011191	0.647367
H192	H	1.073085	0.322142	0.980700
H193	H	0.904167	-0.515162	0.777339
H194	H	1.237500	-0.181829	1.110672
H195	H	1.570834	0.151505	1.444006
Cl196	Cl	0.917170	-0.501978	0.958335
Cl197	Cl	1.250503	-0.168645	1.291668
Cl198	Cl	1.583837	0.164689	1.625001
Cl199	Cl	0.580869	-0.509443	0.463837
Cl200	Cl	0.914202	-0.176110	0.797170
Cl201	Cl	1.247536	0.157223	1.130503
H202	H	0.731050	-0.494166	0.449943
H203	H	1.064383	-0.160832	0.783277
H204	H	1.397716	0.172501	1.116610
Cl205	Cl	0.589010	-0.286507	0.261336
Cl206	Cl	0.922343	0.046826	0.594669
Cl207	Cl	1.255676	0.380160	0.928003
Cl208	Cl	1.114592	-0.858428	0.275553
Cl209	Cl	1.447925	-0.525094	0.608886
Cl210	Cl	1.781258	-0.191761	0.942220
Cl211	Cl	1.120173	-0.296567	0.966549
Cl212	Cl	1.453507	0.036766	1.299882
Cl213	Cl	1.786840	0.370100	1.633216
Cl214	Cl	1.035385	-0.865432	0.528761
Cl215	Cl	1.368718	-0.532098	0.862095
Cl216	Cl	1.702051	-0.198765	1.195428
Cl217	Cl	0.890235	-0.529276	0.627140
Cl218	Cl	1.223568	-0.195943	0.960473
Cl219	Cl	1.556902	0.137391	1.293807
H220	H	0.737600	-0.314964	0.287180
H221	H	1.070933	0.018369	0.620514
H222	H	1.404266	0.351702	0.953847
Cl223	Cl	1.148126	-0.982021	0.425134
Cl224	Cl	1.481460	-0.648687	0.758467
Cl225	Cl	1.814793	-0.315354	1.091800
Cl226	Cl	0.415332	-0.546308	0.497321
Cl227	Cl	0.748665	-0.212975	0.830655
Cl228	Cl	1.081998	0.120359	1.163988
Cl229	Cl	0.249691	-0.539007	0.490691
Cl230	Cl	0.583025	-0.205674	0.824025
Cl231	Cl	0.916358	0.127659	1.157358
Cl232	Cl	1.086625	-0.330594	0.800999
Cl233	Cl	1.419958	0.002739	1.134333
Cl234	Cl	1.753291	0.336073	1.467666
Cl235	Cl	0.257834	-0.316073	0.288184
Cl236	Cl	0.591167	0.017260	0.621517
Cl237	Cl	0.924500	0.350593	0.954851
H238	H	0.911752	-0.962108	0.462447
H239	H	1.245085	-0.628775	0.795781
H240	H	1.578419	-0.295442	1.129114
Cl241	Cl	0.910539	-0.508678	1.123968
Cl242	Cl	1.243872	-0.175344	1.457301
Cl243	Cl	1.577205	0.157989	1.790634
Cl244	Cl	0.968302	-0.966620	0.229954
Cl245	Cl	1.301636	-0.633287	0.563287
Cl246	Cl	1.634969	-0.299953	0.896621
Cl247	Cl	0.855653	-0.849859	0.333689
Cl248	Cl	1.188987	-0.516526	0.667023
Cl249	Cl	1.522320	-0.183193	1.000356
Cl250	Cl	1.093238	-0.323867	0.635368
Cl251	Cl	1.426571	0.009466	0.968701
Cl252	Cl	1.759904	0.342800	1.302034
Cl253	Cl	1.113537	-0.303264	1.132187
Cl254	Cl	1.446871	0.030069	1.465521
Cl255	Cl	1.780204	0.363402	1.798854
