data_functionalizedCrystal
_audit_creation_method	'MofGen! by Chris Wilmer'
_symmetry_space_group_name_H-M	'P1'
_symmetry_Int_Tables_number	1
_symmetry_cell_setting	triclinic
loop_
_symmetry_equiv_pos_as_xyz
  x,y,z
_cell_length_a	25.639239
_cell_length_b	19.805407
_cell_length_c	19.805399
_cell_angle_alpha	90.019573
_cell_angle_beta	89.971274
_cell_angle_gamma	89.961314
loop_
_atom_site_label
_atom_site_type_symbol
_atom_site_fract_x
_atom_site_fract_y
_atom_site_fract_z
Zn1	Zn	-0.208163	-1.034678	-0.382714
Zn2	Zn	-0.295597	-1.034569	-0.269524
Zn3	Zn	-0.208177	-0.921493	-0.269539
Zn4	Zn	-0.295569	-0.921432	-0.382670
O5	O	-0.251877	-0.978043	-0.326112
O6	O	-0.219767	-1.129380	-0.367711
O7	O	-0.284018	-1.019548	-0.174809
O8	O	-0.135010	-0.936578	-0.284576
O9	O	-0.284004	-1.129300	-0.284551
O10	O	-0.135000	-1.019735	-0.367726
O11	O	-0.219791	-0.936472	-0.174820
O12	O	-0.219764	-0.826768	-0.284534
O13	O	-0.283957	-0.936475	-0.477393
O14	O	-0.283971	-0.826723	-0.367651
O15	O	-0.219740	-1.019676	-0.477425
O16	O	-0.368758	-1.019489	-0.284508
O17	O	-0.368738	-0.936368	-0.367637
C18	C	-0.387719	-0.977929	-0.326081
C19	C	-0.445833	-0.977942	-0.326090
C20	C	-0.251867	-0.802187	-0.326090
C21	C	-0.251875	-0.726955	-0.326097
C22	C	-0.251844	-0.978081	-0.502655
C23	C	-0.251830	-0.978097	-0.577887
C24	C	-0.806194	-1.021437	-0.282901
C25	C	-0.860799	-1.021463	-0.282910
O26	O	-0.889034	-1.058326	-0.246154
N27	N	-0.888116	-0.978162	-0.326157
C28	C	-0.860825	-0.934836	-0.369402
O29	O	-0.889075	-0.898008	-0.406189
C30	C	-0.806222	-0.934814	-0.369396
C31	C	-0.778908	-0.978113	-0.326141
C32	C	-0.778880	-1.064733	-0.239650
C33	C	-0.724279	-1.064706	-0.239640
C34	C	-0.696993	-1.021382	-0.282881
C35	C	-0.724307	-0.978086	-0.326132
C36	C	-0.778933	-0.891492	-0.412645
C37	C	-0.724326	-0.891474	-0.412635
C38	C	-0.697012	-0.934773	-0.369381
C39	C	-0.642421	-0.934735	-0.369363
N40	N	-0.615104	-0.978036	-0.326116
C41	C	-0.642390	-1.021360	-0.282875
C42	C	-0.975496	-0.934887	-0.369413
C43	C	-1.030098	-0.934906	-0.369416
C44	C	-1.030068	-1.021533	-0.282924
C45	C	-0.975464	-1.021511	-0.282918
C46	C	-0.948179	-0.978188	-0.326166
C47	C	-0.527725	-1.021299	-0.282857
C48	C	-0.473119	-1.021266	-0.282849
C49	C	-0.473155	-0.934641	-0.369343
C50	C	-0.527756	-0.934671	-0.369349
C51	C	-0.555039	-0.978006	-0.326104
O52	O	-0.614151	-0.897893	-0.406101
O53	O	-0.614134	-1.058188	-0.246101
C54	C	-0.115504	-0.978175	-0.326158
C55	C	-0.057389	-0.978232	-0.326177
C56	C	-0.251887	-1.154585	-0.326134
C57	C	-0.251891	-1.229817	-0.326144
C58	C	-0.285357	-0.691605	-0.369306
C59	C	-0.285358	-0.620917	-0.369315
C60	C	-0.251879	-0.585579	-0.326112
C61	C	-0.218393	-0.620934	-0.282901
C62	C	-0.218390	-0.691621	-0.282895
C63	C	-0.218404	-0.335860	-0.282923
C64	C	-0.218411	-0.265168	-0.282931
C65	C	-0.285373	-0.265156	-0.369343
C66	C	-0.285370	-0.335843	-0.369338
C67	C	-0.251882	-0.371192	-0.326129
C68	C	-0.251881	-0.447840	-0.326121
C69	C	-0.251883	-0.508932	-0.326117
C70	C	-0.218390	-1.021421	-0.613249
C71	C	-0.218375	-1.021428	-0.683937
C72	C	-0.251802	-0.978114	-0.719262
C73	C	-0.285243	-0.934785	-0.683895
C74	C	-0.285255	-0.934775	-0.613208
C75	C	-0.285194	-0.934823	-0.968969
C76	C	-0.285181	-0.934838	-1.039661
C77	C	-0.218314	-1.021476	-1.039698
C78	C	-0.218326	-1.021466	-0.969011
C79	C	-0.251765	-0.978135	-0.933650
C80	C	-0.251780	-0.978127	-0.857001
C81	C	-0.251790	-0.978125	-0.795909
C82	C	-0.251872	-0.978044	-0.150256
C83	C	-0.251738	-0.978159	-0.075024
H84	H	-0.450882	-1.056525	-0.247624
F85	F	-0.321014	-0.227530	-0.415330
F86	F	-0.320760	-0.888734	-1.077255
F87	F	-0.182752	-0.729242	-0.236907
F88	F	-0.182814	-1.067526	-0.575659
F89	F	-0.807912	-1.110849	-0.193624
H90	H	-0.191146	-1.056708	-0.712726
H91	H	-0.191145	-0.236399	-0.247749
F92	F	-0.556754	-1.067420	-0.236831
H93	H	-0.702113	-0.856196	-0.447855
H94	H	-0.450930	-0.899365	-0.404548
H95	H	-0.191140	-0.364633	-0.247735
F96	F	-1.059117	-1.067642	-0.236902
F97	F	-0.946399	-1.067596	-0.236881
H98	H	-0.191131	-0.592156	-0.247727
F99	F	-0.320845	-0.888662	-0.575574
F100	F	-0.182750	-1.067569	-0.931419
H101	H	-0.702043	-1.099966	-0.204421
F102	F	-0.807991	-0.845412	-0.458689
F103	F	-0.182724	-1.067591	-1.077337
H104	H	-0.312430	-0.899550	-0.940187
H105	H	-0.312622	-0.720372	-0.404485
H106	H	-0.312458	-0.899515	-0.712663
F107	F	-0.946462	-0.888769	-0.415442
F108	F	-1.059162	-0.888813	-0.415446
F109	F	-0.320995	-0.583298	-0.415305
F110	F	-0.556826	-0.888575	-0.415373
F111	F	-0.321005	-0.373448	-0.415318
