data_functionalizedCrystal
_audit_creation_method	'MofGen! by Chris Wilmer'
_symmetry_space_group_name_H-M	'P1'
_symmetry_Int_Tables_number	1
_symmetry_cell_setting	triclinic
loop_
_symmetry_equiv_pos_as_xyz
  x,y,z
_cell_length_a	8.559649
_cell_length_b	11.792241
_cell_length_c	7.088929
_cell_angle_alpha	83.733449
_cell_angle_beta	95.325015
_cell_angle_gamma	76.986040
loop_
_atom_site_label
_atom_site_type_symbol
_atom_site_fract_x
_atom_site_fract_y
_atom_site_fract_z
O1	O	2.103509	-0.025390	-0.158956
O2	O	1.638811	0.033181	-0.158967
O3	O	1.882438	-0.162308	-0.158948
O4	O	1.859881	0.170100	-0.158976
O5	O	1.914996	-0.188486	0.159030
O6	O	1.671369	0.007004	0.159010
O7	O	2.136066	-0.051568	0.159022
Cu8	Cu	1.906690	-0.024672	0.188050
Cu9	Cu	1.868187	0.006286	-0.187996
O10	O	1.892439	0.143922	0.159002
C11	C	1.595598	0.024531	0.000020
C12	C	1.418332	0.037744	0.000016
C13	C	1.897300	-0.217558	0.000040
C14	C	1.893059	-0.343184	0.000038
C15	C	1.885259	-0.573179	0.000006
C16	C	1.889593	-0.445192	0.000023
C17	C	2.179279	-0.042917	0.000030
C18	C	2.356543	-0.056129	0.000021
C19	C	1.877577	0.199172	0.000010
C20	C	1.881816	0.324799	-0.000001
N21	N	1.933783	-0.046448	0.452540
N22	N	1.841107	0.028052	-0.452486
H23	H	1.335608	0.128227	-0.000002
O24	O	1.726710	0.120202	0.449905
C25	C	1.801189	0.192123	0.334133
H26	H	1.922629	0.138439	0.304322
H27	H	1.820759	0.268670	0.411154
C28	C	1.542906	0.305736	0.180511
C29	C	1.692056	0.239798	0.143883
H30	H	1.475587	0.335150	0.063159
H31	H	1.492728	0.257285	0.258514
H32	H	1.559237	0.369517	0.244700
H33	H	1.675726	0.176011	0.079717
H34	H	1.742230	0.288240	0.065865
O35	O	2.048504	-0.138593	0.549653
C36	C	2.130250	-0.204356	0.418582
H37	H	2.118026	-0.146367	0.275838
H38	H	2.075345	-0.282293	0.397379
C39	C	2.325242	-0.320471	0.672193
C40	C	2.310239	-0.249244	0.496877
H41	H	2.436267	-0.348165	0.720490
H42	H	2.270166	-0.276168	0.760500
H43	H	2.279478	-0.385410	0.654500
H44	H	2.355985	-0.184301	0.514577
H45	H	2.365328	-0.293538	0.408575
O46	O	1.455446	-0.163992	0.000115
C47	C	1.616352	-0.153614	0.000066
H48	H	1.629517	-0.070014	0.060259
H49	H	1.648856	-0.149510	-0.152484
C50	C	1.714255	-0.363428	0.050841
C51	C	1.730428	-0.260755	0.124787
H52	H	1.784625	-0.429519	0.127767
H53	H	1.605850	-0.370421	0.050867
H54	H	1.741340	-0.359991	-0.076283
H55	H	1.703324	-0.264186	0.251898
H56	H	1.838832	-0.253764	0.124785
