data_functionalizedCrystal
_audit_creation_method	'MofGen! by Chris Wilmer'
_symmetry_space_group_name_H-M	'P1'
_symmetry_Int_Tables_number	1
_symmetry_cell_setting	triclinic
loop_
_symmetry_equiv_pos_as_xyz
  x,y,z
_cell_length_a	19.188933
_cell_length_b	19.188930
_cell_length_c	9.616153
_cell_angle_alpha	89.992615
_cell_angle_beta	89.994560
_cell_angle_gamma	83.145175
loop_
_atom_site_label
_atom_site_type_symbol
_atom_site_fract_x
_atom_site_fract_y
_atom_site_fract_z
O1	O	0.926147	0.087171	-0.115615
O2	O	0.722836	0.098904	-0.115630
O3	O	0.830358	-0.008618	-0.115595
O4	O	0.818624	0.194693	-0.115650
O5	O	0.830344	-0.008616	0.115697
O6	O	0.722821	0.098906	0.115662
O7	O	0.926132	0.087174	0.115677
Zn8	Zn	0.824474	0.093040	0.152392
Zn9	Zn	0.824493	0.093037	-0.152345
O10	O	0.818609	0.194696	0.115641
C11	C	0.696817	0.098525	0.000014
C12	C	0.619313	0.097384	0.000010
C13	C	0.066065	0.089237	-0.126050
C14	C	0.138890	0.090305	-0.126056
C15	C	0.175299	0.090844	0.000021
C16	C	0.138880	0.090296	0.126112
C17	C	0.066058	0.089221	0.126114
N18	N	0.284313	0.132264	0.093854
N19	N	0.353490	0.133286	0.093843
C20	C	0.394707	0.094082	0.000022
N21	N	0.364132	0.053825	-0.093809
N22	N	0.294948	0.052805	-0.093803
C23	C	0.254262	0.092009	0.000032
C24	C	0.510082	0.095783	-0.126067
C25	C	0.582909	0.096846	-0.126068
C26	C	0.582896	0.096845	0.126104
C27	C	0.510073	0.095774	0.126100
C28	C	0.473669	0.095246	0.000011
C29	C	0.829971	-0.034628	0.000055
C30	C	0.828830	-0.112132	0.000067
C31	C	0.891921	-0.157056	0.000078
C32	C	0.890849	-0.229880	0.000056
C33	C	0.826683	-0.257777	0.000050
C34	C	0.763584	-0.212843	0.000031
C35	C	0.764658	-0.140021	0.000039
N36	N	0.777631	-0.365781	0.078759
N37	N	0.776616	-0.434960	0.078754
C38	C	0.823445	-0.477185	0.000022
N39	N	0.871339	-0.447620	-0.078688
N40	N	0.872357	-0.378436	-0.078677
C41	C	0.825512	-0.336739	0.000040
C42	C	0.885378	-0.601073	0.000007
C43	C	0.884304	-0.673898	-0.000024
C44	C	0.757037	-0.656860	-0.000035
C45	C	0.758113	-0.584037	-0.000018
C46	C	0.822286	-0.556148	0.000009
C47	C	0.952150	0.087553	0.000029
C48	C	1.029655	0.088694	0.000025
C49	C	0.818997	0.220705	-0.000011
C50	C	0.820137	0.298210	-0.000032
N51	N	0.824466	0.093042	0.360366
N52	N	0.824507	0.093030	-0.360319
C53	C	0.766777	0.150371	0.580717
C54	C	0.766900	0.150581	0.419550
C55	C	0.897271	0.108733	0.418816
C56	C	0.896955	0.109138	0.580033
C57	C	0.810079	0.019828	0.580296
C58	C	0.808398	0.020324	0.419069
H59	H	0.480442	0.095351	-0.228737
H60	H	0.168540	0.090752	-0.228724
H61	H	0.612540	0.097280	0.228757
H62	H	0.942227	-0.266463	0.000059
O63	O	0.947773	-0.574093	-0.000053
C64	C	1.003231	-0.629364	-0.000033
H65	H	0.983812	-0.678773	-0.043825
H66	H	1.048045	-0.614274	-0.067187
H67	H	1.022682	-0.639738	0.110926
H68	H	0.944175	-0.134354	0.000096
O69	O	0.748063	0.001857	0.628690
C70	C	0.693008	0.053009	0.587622
H71	H	0.709824	0.082024	0.492155
H72	H	0.644606	0.026431	0.561373
H73	H	0.680076	0.091935	0.676126
O74	O	0.777485	0.214818	0.629163
C75	C	0.718178	0.243748	0.705261
H76	H	0.688138	0.199744	0.743924
H77	H	0.735788	0.274309	0.797926
H78	H	0.682652	0.280584	0.635469
O79	O	0.701297	-0.240022	-0.000158
C80	C	0.696871	-0.281614	-0.119966
H81	H	0.751960	-0.299915	-0.159894
H82	H	0.669184	-0.329220	-0.093031
H83	H	0.665890	-0.249340	-0.203849
H84	H	0.847727	-0.024327	0.378789
H85	H	0.910324	0.161504	0.378412
H86	H	0.704792	-0.679573	-0.000047
H87	H	0.754843	0.008411	0.380869
H88	H	0.612554	0.097284	-0.228737
O89	O	0.474802	0.095287	0.248695
C90	C	0.522552	0.095974	0.359976
H91	H	0.571506	0.118839	0.323009
H92	H	0.496971	0.129553	0.448149
H93	H	0.537792	0.040087	0.398756
O94	O	0.703304	-0.096478	0.000097
C95	C	0.646437	-0.136712	0.000044
H96	H	0.664321	-0.191124	0.043823
H97	H	0.602239	-0.109720	0.067193
H98	H	0.626766	-0.141824	-0.110923
O99	O	0.777775	0.215446	0.373666
C100	C	0.723684	0.265509	0.423072
H101	H	0.699211	0.244302	0.519959
H102	H	0.746275	0.316143	0.449990
H103	H	0.681826	0.276563	0.339221
O104	O	0.945576	-0.717567	-0.000266
C105	C	0.948769	-0.760197	-0.120047
H106	H	0.912991	-0.733409	-0.203774
H107	H	1.005039	-0.768550	-0.160243
H108	H	0.930859	-0.813104	-0.092984
H109	H	0.036412	0.088781	0.228783
H110	H	0.909703	0.162517	0.617608
O111	O	0.696762	-0.540494	0.000050
C112	C	0.639895	-0.580729	0.000006
H113	H	0.657781	-0.635140	0.043787
H114	H	0.595699	-0.553737	0.067157
H115	H	0.620222	-0.585843	-0.110959
O116	O	0.860339	-0.030997	0.625961
C117	C	0.908350	-0.000599	0.711105
H118	H	0.882085	0.051140	0.755136
H119	H	0.925732	-0.037884	0.800171
H120	H	0.956054	0.009528	0.646860
H121	H	0.712776	0.141265	0.380034
H122	H	0.712482	0.141210	0.619528
H123	H	0.941243	0.069009	0.619035
O124	O	0.949653	0.060190	0.372903
C125	C	0.921167	0.011163	0.287085
H126	H	0.868800	0.035823	0.243040
H127	H	0.958971	-0.004746	0.198046
H128	H	0.912695	-0.037231	0.350769
H129	H	0.036431	0.088805	-0.228722
H130	H	0.168529	0.090734	0.228764
