data_functionalizedCrystal
_audit_creation_method	'MofGen! by Chris Wilmer'
_symmetry_space_group_name_H-M	'P1'
_symmetry_Int_Tables_number	1
_symmetry_cell_setting	triclinic
loop_
_symmetry_equiv_pos_as_xyz
  x,y,z
_cell_length_a	19.121241
_cell_length_b	19.121063
_cell_length_c	18.215399
_cell_angle_alpha	87.590157
_cell_angle_beta	92.463275
_cell_angle_gamma	95.003121
loop_
_atom_site_label
_atom_site_type_symbol
_atom_site_fract_x
_atom_site_fract_y
_atom_site_fract_z
Zn1	Zn	1.063748	-0.234335	0.474205
Zn2	Zn	1.058635	-0.352008	0.356162
Zn3	Zn	0.946079	-0.239367	0.346108
Zn4	Zn	0.941024	-0.356975	0.474142
O5	O	1.002372	-0.295671	0.412654
O6	O	1.161536	-0.245761	0.462780
O7	O	1.043680	-0.337093	0.251844
O8	O	0.965944	-0.140234	0.358919
O9	O	1.157779	-0.332214	0.376054
O10	O	1.052395	-0.136537	0.453031
O11	O	0.960986	-0.254336	0.244458
O12	O	0.846943	-0.259152	0.358858
O13	O	0.957327	-0.340680	0.577135
O14	O	0.843228	-0.345558	0.452925
O15	O	1.047493	-0.250577	0.577181
O16	O	1.038778	-0.451133	0.375993
O17	O	0.952369	-0.454782	0.462673
C18	C	0.819555	-0.303441	0.404794
C19	C	0.741344	-0.306782	0.401450
C20	C	0.706554	-0.263411	0.445107
C21	C	0.633067	-0.266546	0.441958
C22	C	0.594371	-0.313057	0.395155
C23	C	0.629166	-0.356429	0.351493
C24	C	0.702652	-0.353290	0.354639
C25	C	0.372393	-0.324782	0.383392
C26	C	0.298902	-0.327919	0.380251
C27	C	0.302808	-0.238035	0.470715
C28	C	0.376295	-0.234902	0.473860
C29	C	0.411084	-0.278272	0.430195
C30	C	0.519255	-0.316265	0.391937
C31	C	0.486199	-0.275061	0.433410
C32	C	0.994489	-0.478488	0.420434
C33	C	0.991182	-0.556694	0.423790
C34	C	1.034651	-0.591511	0.380278
C35	C	1.031545	-0.664995	0.383438
C36	C	0.984965	-0.703660	0.430108
C37	C	0.941493	-0.668838	0.473625
C38	C	0.944604	-0.595356	0.470468
C39	C	0.973323	-0.925626	0.441900
C40	C	0.970214	-0.999113	0.445052
C41	C	1.060267	-0.995265	0.354866
C42	C	1.063370	-0.921782	0.351709
C43	C	1.019902	-0.886966	0.395229
C44	C	0.981786	-0.778773	0.433338
C45	C	1.023084	-0.811855	0.392003
C46	C	1.185902	-0.287872	0.420545
C47	C	1.264112	-0.284549	0.423908
C48	C	1.002416	-0.295621	0.604607
C49	C	1.002436	-0.295600	0.686406
C50	C	1.010304	-0.112140	0.404861
C51	C	1.013684	-0.033930	0.401540
C52	C	1.002369	-0.295669	0.221448
C53	C	1.002495	-0.295486	0.139647
C54	C	1.049403	-0.248640	0.874624
C55	C	1.049412	-0.248619	0.951482
C56	C	0.955523	-0.342448	0.951423
C57	C	0.955511	-0.342465	0.874566
C58	C	1.002455	-0.295562	0.836169
C59	C	1.002476	-0.295524	0.989884
C60	C	1.002486	-0.295502	1.073217
C61	C	1.002444	-0.295583	0.752830
H62	H	0.400709	-0.360097	0.347837
H63	H	1.072579	-0.560035	0.342271
H64	H	0.730977	-0.388607	0.319088
H65	H	0.917275	-0.380674	0.843255
H66	H	0.917305	-0.380636	0.982696
C67	C	0.749113	-0.212244	0.496593
N68	N	0.781166	-0.173702	0.535372
H69	H	1.087625	-0.210447	0.843363
H70	H	0.903570	-0.700326	0.511628
H71	H	1.087641	-0.210410	0.982789
H72	H	1.061012	-0.780371	0.354007
C73	C	0.594801	-0.218837	0.489987
N74	N	0.565980	-0.182900	0.526165
H75	H	0.274475	-0.202725	0.506264
C76	C	0.418856	-0.183731	0.525339
N77	N	0.450912	-0.145187	0.564114
H78	H	0.517708	-0.237189	0.471513
H79	H	0.937928	-0.897285	0.477334
H80	H	0.267398	-0.365797	0.342138
C81	C	0.476682	-0.367428	0.340459
N82	N	0.444614	-0.405964	0.301685
C83	C	0.586598	-0.407591	0.300009
N84	N	0.554536	-0.446128	0.261231
H85	H	0.943859	-0.810262	0.471335
H86	H	1.066942	-0.693340	0.348005
C87	C	1.114594	-0.879256	0.300349
N88	N	1.153168	-0.847225	0.261655
H89	H	1.095657	-1.023620	0.319435
H90	H	0.932292	-1.030593	0.483069
H91	H	0.909208	-0.567009	0.505901
