data_functionalizedCrystal
_audit_creation_method	'MofGen! by Chris Wilmer'
_symmetry_space_group_name_H-M	'P1'
_symmetry_Int_Tables_number	1
_symmetry_cell_setting	triclinic
loop_
_symmetry_equiv_pos_as_xyz
  x,y,z
_cell_length_a	25.639242
_cell_length_b	25.639239
_cell_length_c	25.639233
_cell_angle_alpha	90.019301
_cell_angle_beta	90.022166
_cell_angle_gamma	90.034811
loop_
_atom_site_label
_atom_site_type_symbol
_atom_site_fract_x
_atom_site_fract_y
_atom_site_fract_z
Zn1	Zn	0.799223	-0.208277	0.295740
Zn2	Zn	1.299223	0.291723	0.795740
Zn3	Zn	0.799145	-0.295696	0.208304
Zn4	Zn	1.299145	0.204304	0.708304
Zn5	Zn	0.711799	-0.208269	0.208304
Zn6	Zn	1.211799	0.291731	0.708304
Zn7	Zn	0.711743	-0.295676	0.295694
Zn8	Zn	1.211743	0.204324	0.795694
O9	O	0.755478	-0.251979	0.252010
O10	O	1.255478	0.248021	0.752010
O11	O	0.872378	-0.219884	0.284161
O12	O	1.372378	0.280116	0.784161
O13	O	0.787550	-0.284103	0.135139
O14	O	1.287550	0.215897	0.635139
O15	O	0.723452	-0.135105	0.219923
O16	O	1.223452	0.364895	0.719923
O17	O	0.872321	-0.284111	0.219922
O18	O	1.372321	0.215889	0.719922
O19	O	0.787682	-0.135111	0.284161
O20	O	1.287682	0.364889	0.784161
O21	O	0.723377	-0.219871	0.135139
O22	O	1.223377	0.280129	0.635139
O23	O	0.638627	-0.219853	0.219877
O24	O	1.138627	0.280147	0.719877
O25	O	0.723357	-0.284078	0.368865
O26	O	1.223357	0.215922	0.868865
O27	O	0.638586	-0.284070	0.284082
O28	O	1.138586	0.215930	0.784082
O29	O	0.787628	-0.219866	0.368899
O30	O	1.287628	0.280134	0.868899
O31	O	0.787496	-0.368858	0.219876
O32	O	1.287496	0.131142	0.719876
O33	O	0.723282	-0.368844	0.284081
O34	O	1.223282	0.131156	0.784081
C35	C	0.619635	-0.251959	0.251975
C36	C	1.119635	0.248041	0.751975
C37	C	0.561521	-0.251963	0.251972
C38	C	1.061521	0.248037	0.751972
C39	C	0.201146	-0.285473	0.285410
C40	C	0.701146	0.214527	0.785410
C41	C	0.146541	-0.285477	0.285418
C42	C	0.646541	0.214523	0.785418
O43	O	0.118294	-0.313943	0.313818
O44	O	0.618294	0.186057	0.813818
N45	N	0.119239	-0.251994	0.252045
N46	N	0.619239	0.248006	0.752045
C47	C	0.146543	-0.218502	0.218664
C48	C	0.646543	0.281498	0.718664
O49	O	0.118306	-0.190022	0.190278
O50	O	0.618306	0.309978	0.690278
C51	C	0.201146	-0.218496	0.218659
C52	C	0.701146	0.281504	0.718659
C53	C	0.228446	-0.251985	0.252031
C54	C	0.728446	0.248015	0.752031
C55	C	0.228445	-0.318959	0.318780
C56	C	0.728445	0.181041	0.818780
C57	C	0.283046	-0.318956	0.318771
C58	C	0.783046	0.181044	0.818771
C59	C	0.310347	-0.285468	0.285392
C60	C	0.810347	0.214532	0.785392
C61	C	0.283047	-0.251983	0.252022
C62	C	0.783047	0.248017	0.752022
C63	C	0.228450	-0.185002	0.185282
C64	C	0.728450	0.314998	0.685282
C65	C	0.283057	-0.185000	0.185279
C66	C	0.783057	0.315000	0.685279
C67	C	0.310357	-0.218488	0.218652
C68	C	0.810357	0.281512	0.718652
C69	C	0.364948	-0.218492	0.218634
C70	C	0.864948	0.281508	0.718634
N71	N	0.392251	-0.251974	0.252008
N72	N	0.892251	0.248026	0.752008
C73	C	0.364950	-0.285463	0.285387
C74	C	0.864950	0.214537	0.785387
C75	C	0.031873	-0.218515	0.218678
C76	C	0.531873	0.281485	0.718678
C77	C	-0.022730	-0.218523	0.218680
C78	C	0.477270	0.281477	0.718680
C79	C	-0.022728	-0.285497	0.285435
C80	C	0.477272	0.214503	0.785435
C81	C	0.031875	-0.285492	0.285430
C82	C	0.531875	0.214508	0.785430
C83	C	0.059175	-0.251998	0.252052
C84	C	0.559175	0.248002	0.752052
C85	C	0.479615	-0.285455	0.285365
C86	C	0.979615	0.214545	0.785365
C87	C	0.534220	-0.285451	0.285351
C88	C	1.034220	0.214549	0.785351
C89	C	0.534214	-0.218475	0.218598
C90	C	1.034214	0.281525	0.718598
C91	C	0.479613	-0.218481	0.218610
C92	C	0.979613	0.281519	0.718610
C93	C	0.452315	-0.251972	0.251997
C94	C	0.952315	0.248028	0.751997
O95	O	0.393230	-0.190038	0.190250
O96	O	0.893230	0.309962	0.690250
O97	O	0.393194	-0.313933	0.313773
O98	O	0.893194	0.186067	0.813773
C99	C	0.755388	-0.387822	0.251985
C100	C	1.255388	0.112178	0.751985
C101	C	0.755398	-0.445936	0.251992
C102	C	1.255398	0.054064	0.751992
C103	C	0.722035	-0.697134	0.285431
C104	C	1.222035	-0.197134	0.785431
C105	C	0.722016	-0.642530	0.285425
C106	C	1.222016	-0.142530	0.785425
O107	O	0.693564	-0.614298	0.313839
O108	O	1.193564	-0.114298	0.813839
N109	N	0.755464	-0.615210	0.252019
N110	N	1.255464	-0.115210	0.752019
C111	C	0.788937	-0.642497	0.218621
C112	C	1.288937	-0.142497	0.718621
O113	O	0.817386	-0.614245	0.190206
O114	O	1.317386	-0.114245	0.690206
C115	C	0.788959	-0.697100	0.218630
C116	C	1.288959	-0.197100	0.718630
C117	C	0.755505	-0.724418	0.252034
C118	C	1.255505	-0.224418	0.752034
C119	C	0.688584	-0.724452	0.318834
C120	C	1.188584	-0.224452	0.818834
C121	C	0.688603	-0.779053	0.318839
C122	C	1.188603	-0.279053	0.818839
C123	C	0.722073	-0.806336	0.285442
C124	C	1.222073	-0.306336	0.785442
C125	C	0.755524	-0.779018	0.252040
C126	C	1.255524	-0.279018	0.752040
C127	C	0.822434	-0.724386	0.185235
C128	C	1.322434	-0.224386	0.685235
C129	C	0.822453	-0.778993	0.185247
C130	C	1.322453	-0.278993	0.685247
C131	C	0.788999	-0.806310	0.218651
C132	C	1.288999	-0.306310	0.718651
C133	C	0.789012	-0.860902	0.218648
C134	C	1.289012	-0.360902	0.718648
N135	N	0.755564	-0.888222	0.252054
N136	N	1.255564	-0.388222	0.752054
C137	C	0.722094	-0.860939	0.285451
C138	C	1.222094	-0.360939	0.785451
C139	C	0.788890	-0.527826	0.218605
C140	C	1.288890	-0.027826	0.718605
C141	C	0.788866	-0.473224	0.218593
C142	C	1.288866	0.026776	0.718593
C143	C	0.721945	-0.473261	0.285398
C144	C	1.221945	0.026739	0.785398
C145	C	0.721967	-0.527864	0.285407
C146	C	1.221967	-0.027864	0.785407
C147	C	0.755442	-0.555146	0.252011
C148	C	1.255442	-0.055146	0.752011
C149	C	0.722136	-0.975604	0.285459
C150	C	1.222136	-0.475604	0.785459
C151	C	0.722156	-1.030209	0.285460
C152	C	1.222156	-0.530209	0.785460
C153	C	0.789079	-1.030167	0.218657
C154	C	1.289079	-0.530167	0.718657
C155	C	0.789057	-0.975567	0.218654
C156	C	1.289057	-0.475567	0.718654
C157	C	0.755584	-0.948286	0.252059
C158	C	1.255584	-0.448286	0.752059
O159	O	0.817451	-0.889169	0.190250
O160	O	1.317451	-0.389169	0.690250
O161	O	0.693655	-0.889198	0.313866
O162	O	1.193655	-0.389198	0.813866
C163	C	0.891851	-0.252000	0.252046
C164	C	1.391851	0.248000	0.752046
C165	C	0.949965	-0.252009	0.252062
C166	C	1.449965	0.247991	0.752062
C167	C	0.755495	-0.251970	0.388383
C168	C	1.255495	0.248030	0.888383
C169	C	0.755502	-0.251966	0.446498
C170	C	1.255502	0.248034	0.946498
C171	C	0.755582	-0.115606	0.252047
C172	C	1.255582	0.384394	0.752047
C173	C	0.755626	-0.057492	0.252063
C174	C	1.255626	0.442508	0.752063
C175	C	0.755491	-0.251951	0.116168
C176	C	1.255491	0.248049	0.616168
C177	C	0.755585	-0.251807	0.058054
C178	C	1.255585	0.248193	0.558054
C179	C	0.789010	-0.218432	0.806884
C180	C	1.289010	0.281568	1.306884
C181	C	0.789016	-0.218417	0.861489
C182	C	1.289016	0.281583	1.361489
O183	O	0.817464	-0.189967	0.889745
O184	O	1.317464	0.310033	1.389745
N185	N	0.755559	-0.251844	0.888780
N186	N	1.255559	0.248156	1.388780
C187	C	0.722090	-0.285283	0.861465
C188	C	1.222090	0.214717	1.361465
O189	O	0.693632	-0.313713	0.889692
O190	O	1.193632	0.186287	1.389692
C191	C	0.722081	-0.285294	0.806861
C192	C	1.222081	0.214706	1.306861
C193	C	0.755544	-0.251870	0.779573
C194	C	1.255544	0.248130	1.279573
C195	C	0.822470	-0.185009	0.779595
C196	C	1.322470	0.314991	1.279595
C197	C	0.822464	-0.185025	0.724995
C198	C	1.322464	0.314975	1.224995
C199	C	0.788998	-0.218462	0.697683
C200	C	1.288998	0.281538	1.197683
C201	C	0.755538	-0.251885	0.724972
C202	C	1.255538	0.248115	1.224972
C203	C	0.688610	-0.318731	0.779547
C204	C	1.188610	0.181269	1.279547
C205	C	0.688603	-0.318739	0.724940
C206	C	1.188603	0.181261	1.224940
C207	C	0.722066	-0.285314	0.697651
C208	C	1.222066	0.214686	1.197651
C209	C	0.722067	-0.285338	0.643060
C210	C	1.222067	0.214662	1.143060
N211	N	0.755524	-0.251912	0.615768
N212	N	1.255524	0.248088	1.115768
C213	C	0.788990	-0.218474	0.643080
C214	C	1.288990	0.281526	1.143080
C215	C	0.722110	-0.285256	0.976135
C216	C	1.222110	0.214744	1.476135
C217	C	0.722121	-0.285247	1.030738
C218	C	1.222121	0.214753	1.530738
C219	C	0.789047	-0.218381	1.030758
C220	C	1.289047	0.281619	1.530758
C221	C	0.789038	-0.218392	0.976155
C222	C	1.289038	0.281608	1.476155
C223	C	0.755567	-0.251829	0.948844
C224	C	1.255567	0.248171	1.448844
C225	C	0.788975	-0.218509	0.528415
C226	C	1.288975	0.281491	1.028415
C227	C	0.788968	-0.218529	0.473809
C228	C	1.288968	0.281471	0.973809
C229	C	0.722040	-0.285393	0.473794
C230	C	1.222040	0.214607	0.973794
C231	C	0.722049	-0.285375	0.528395
C232	C	1.222049	0.214625	1.028395
C233	C	0.755518	-0.251929	0.555704
C234	C	1.255518	0.248071	1.055704
O235	O	0.693632	-0.313773	0.614768
O236	O	1.193632	0.186227	1.114768
O237	O	0.817437	-0.190044	0.614845
O238	O	1.317437	0.309956	1.114845
H239	H	0.054097	-0.191241	0.191494
H240	H	0.554097	0.308759	0.691494
H241	H	0.816296	-0.191153	1.053005
H242	H	1.316296	0.308847	1.553005
H243	H	0.816227	-0.191272	0.550643
H244	H	1.316227	0.308728	1.050643
H245	H	0.849712	-0.157806	0.702781
H246	H	1.349712	0.342194	1.202781
C247	C	-0.052756	-0.181689	0.181966
C248	C	0.447244	0.318311	0.681966
C249	C	-0.112817	-0.181685	0.181968
C250	C	0.387183	0.318315	0.681968
C251	C	-0.142841	-0.144847	0.145255
C252	C	0.357159	0.355153	0.645255
C253	C	-0.112804	-0.108013	0.108540
C254	C	0.387196	0.391987	0.608540
C255	C	-0.052739	-0.108015	0.108538
C256	C	0.447261	0.391985	0.608538
C257	C	-0.022715	-0.144853	0.145251
C258	C	0.477285	0.355147	0.645251
H259	H	-0.135056	-0.208953	0.209147
H260	H	0.364944	0.291047	0.709147
H261	H	-0.187305	-0.144846	0.145257
H262	H	0.312695	0.355154	0.645257
H263	H	-0.135029	-0.080744	0.081363
H264	H	0.364971	0.419256	0.581363
H265	H	-0.030500	-0.080747	0.081358
H266	H	0.469500	0.419253	0.581358
H267	H	0.021749	-0.144855	0.145248
H268	H	0.521749	0.355145	0.645248
C269	C	0.685357	-1.060258	0.322209
C270	C	1.185357	-0.560258	0.822209
C271	C	0.648545	-1.030243	0.358947
C272	C	1.148545	-0.530243	0.858947
C273	C	0.611747	-1.060289	0.395695
C274	C	1.111747	-0.560289	0.895695
C275	C	0.611762	-1.120350	0.395706
C276	C	1.111762	-0.620350	0.895706
C277	C	0.648576	-1.150369	0.358966
C278	C	1.148576	-0.650369	0.858966
C279	C	0.685373	-1.120323	0.322218
C280	C	1.185373	-0.620323	0.822218
H281	H	0.648532	-0.985778	0.358940
H282	H	1.148532	-0.485778	0.858940
H283	H	0.584495	-1.038067	0.422892
H284	H	1.084495	-0.538067	0.922892
H285	H	0.584523	-1.142592	0.422909
H286	H	1.084523	-0.642592	0.922909
H287	H	0.648588	-1.194833	0.358973
H288	H	1.148588	-0.694833	0.858973
H289	H	0.712625	-1.142545	0.295021
H290	H	1.212625	-0.642545	0.795021
C291	C	0.198434	-0.148164	0.148567
C292	C	0.698434	0.351836	0.648567
C293	C	0.205986	-0.088734	0.152943
C294	C	0.705986	0.411266	0.652943
C295	C	0.175973	-0.051893	0.116224
C296	C	0.675973	0.448107	0.616224
C297	C	0.138408	-0.074483	0.075128
C298	C	0.638408	0.425517	0.575128
C299	C	0.130855	-0.133916	0.070750
C300	C	0.630855	0.366084	0.570750
C301	C	0.160868	-0.170757	0.107470
C302	C	0.660868	0.329243	0.607470
H303	H	0.233795	-0.072009	0.183366
H304	H	0.733795	0.427991	0.683366
H305	H	0.181565	-0.007897	0.119464
H306	H	0.681565	0.492103	0.619464
H307	H	0.116191	-0.047211	0.047946
H308	H	0.616191	0.452789	0.547946
H309	H	0.103046	-0.150641	0.040327
H310	H	0.603046	0.349359	0.540327
H311	H	0.155276	-0.214753	0.104229
H312	H	0.655276	0.285247	0.604229
C313	C	0.313087	-0.148155	0.148562
C314	C	0.813087	0.351845	0.648562
C315	C	0.305611	-0.088726	0.152942
C316	C	0.805611	0.411274	0.652942
C317	C	0.335640	-0.051883	0.116225
C318	C	0.835640	0.448117	0.616225
C319	C	0.373145	-0.074470	0.075128
C320	C	0.873145	0.425530	0.575128
C321	C	0.380623	-0.133903	0.070746
C322	C	0.880623	0.366097	0.570746
C323	C	0.350594	-0.170746	0.107463
C324	C	0.850594	0.329254	0.607463
H325	H	0.277846	-0.072002	0.183366
H326	H	0.777846	0.427998	0.683366
H327	H	0.330105	-0.007886	0.119469
H328	H	0.830105	0.492114	0.619469
H329	H	0.395374	-0.047197	0.047947
H330	H	0.895374	0.452803	0.547947
H331	H	0.408388	-0.150626	0.040322
H332	H	0.908388	0.349374	0.540322
H333	H	0.356129	-0.214742	0.104219
H334	H	0.856129	0.285258	0.604219
C335	C	0.685313	-0.945601	0.322201
C336	C	1.185313	-0.445601	0.822201
C337	C	0.625882	-0.953174	0.317865
C338	C	1.125882	-0.453174	0.817865
C339	C	0.589057	-0.923171	0.354603
C340	C	1.089057	-0.423171	0.854603
C341	C	0.611661	-0.885594	0.395678
C342	C	1.111661	-0.385594	0.895678
C343	C	0.671095	-0.878018	0.400016
C344	C	1.171095	-0.378018	0.900016
C345	C	0.707921	-0.908022	0.363278
C346	C	1.207921	-0.408022	0.863278
H347	H	0.609146	-0.980993	0.287457
H348	H	1.109146	-0.480993	0.787457
H349	H	0.545060	-0.928779	0.351391
H350	H	1.045060	-0.428779	0.851391
H351	H	0.584400	-0.863383	0.422874
H352	H	1.084400	-0.363383	0.922874
H353	H	0.687831	-0.850200	0.430424
H354	H	1.187831	-0.350200	0.930424
H355	H	0.751917	-0.902413	0.366490
H356	H	1.251917	-0.402413	0.866490
H357	H	-0.044966	-0.312763	0.312616
H358	H	0.455034	0.187237	0.812616
H359	H	0.694729	-0.550103	0.312611
H360	H	1.194729	-0.050103	0.812611
H361	H	0.556446	-0.312723	0.312527
H362	H	1.056446	0.187277	0.812527
C363	C	0.651762	-0.694448	0.355573
C364	C	1.151762	-0.194448	0.855573
C365	C	0.592333	-0.702028	0.351238
C366	C	1.092333	-0.202028	0.851238
C367	C	0.555505	-0.672028	0.387978
C368	C	1.055505	-0.172028	0.887978
C369	C	0.578106	-0.634449	0.429052
C370	C	1.078106	-0.134449	0.929052
C371	C	0.637539	-0.626867	0.433389
C372	C	1.137539	-0.126867	0.933389
C373	C	0.674367	-0.656867	0.396650
C374	C	1.174367	-0.156867	0.896650
H375	H	0.575599	-0.729848	0.320831
H376	H	1.075599	-0.229848	0.820831
H377	H	0.511508	-0.677641	0.384767
H378	H	1.011508	-0.177641	0.884767
H379	H	0.550844	-0.612242	0.456249
H380	H	1.050844	-0.112242	0.956249
H381	H	0.654273	-0.599047	0.463797
H382	H	1.154273	-0.099047	0.963797
H383	H	0.718364	-0.651254	0.399860
H384	H	1.218364	-0.151254	0.899860
C385	C	0.825845	-0.181622	0.946140
C386	C	1.325845	0.318378	1.446140
C387	C	0.866873	-0.204287	0.908608
C388	C	1.366873	0.295713	1.408608
C389	C	0.903680	-0.167513	0.878597
C390	C	1.403680	0.332487	1.378597
C391	C	0.899459	-0.108074	0.886117
C392	C	1.399459	0.391926	1.386117
C393	C	0.858429	-0.085406	0.923650
C394	C	1.358429	0.414594	1.423650
C395	C	0.821622	-0.122179	0.953661
C396	C	1.321622	0.377821	1.453661
H397	H	0.869999	-0.248290	0.903040
H398	H	1.369999	0.251710	1.403040
H399	H	0.934053	-0.184294	0.850812
H400	H	1.434053	0.315706	1.350812
H401	H	0.926706	-0.080852	0.863900
H402	H	1.426706	0.419148	1.363900
H403	H	0.855303	-0.041403	0.929218
H404	H	1.355303	0.458597	1.429218
H405	H	0.791249	-0.105398	0.981446
H406	H	1.291249	0.394602	1.481446
H407	H	0.457385	-0.191213	0.191434
H408	H	0.957385	0.308787	0.691434
H409	H	0.816327	-1.052391	0.191464
H410	H	1.316327	-0.552391	0.691464
C411	C	0.061903	-0.322326	0.322143
C412	C	0.561903	0.177674	0.822143
C413	C	0.099409	-0.363340	0.299414
C414	C	0.599409	0.136660	0.799414
C415	C	0.129433	-0.400174	0.336130
C416	C	0.629433	0.099826	0.836130
C417	C	0.121951	-0.395995	0.395575
C418	C	0.621951	0.104005	0.895575
C419	C	0.084443	-0.354980	0.418307
C420	C	0.584443	0.145020	0.918307
C421	C	0.054419	-0.318145	0.381592
C422	C	0.554419	0.181855	0.881592
H423	H	0.104950	-0.366435	0.255407
H424	H	0.604950	0.133565	0.755407
H425	H	0.157199	-0.430537	0.319302
H426	H	0.657199	0.069463	0.819302
H427	H	0.144177	-0.423263	0.422754
H428	H	0.644177	0.076737	0.922754
H429	H	0.078902	-0.351885	0.462315
H430	H	0.578902	0.148115	0.962315
H431	H	0.026653	-0.287783	0.398420
H432	H	0.526653	0.212217	0.898420
C433	C	0.564254	-0.181638	0.181887
C434	C	1.064254	0.318362	0.681887
C435	C	0.601826	-0.140627	0.204626
C436	C	1.101826	0.359373	0.704626
C437	C	0.631869	-0.103786	0.167918
C438	C	1.131869	0.396214	0.667918
C439	C	0.624340	-0.107955	0.108472
C440	C	1.124340	0.392045	0.608472
C441	C	0.586767	-0.148967	0.085730
C442	C	1.086767	0.351033	0.585730
C443	C	0.556724	-0.185808	0.122437
C444	C	1.056724	0.314192	0.622437
H445	H	0.607401	-0.137539	0.248634
H446	H	1.107401	0.362461	0.748634
H447	H	0.659683	-0.073426	0.184754
H448	H	1.159683	0.426574	0.684754
H449	H	0.646580	-0.080683	0.081299
H450	H	1.146580	0.419317	0.581299
H451	H	0.581192	-0.152055	0.041721
H452	H	1.081192	0.347945	0.541721
H453	H	0.528909	-0.216168	0.105602
H454	H	1.028909	0.283832	0.605602
C455	C	0.651787	-0.355526	0.694901
C456	C	1.151787	0.144474	1.194901
C457	C	0.674406	-0.396592	0.657369
C458	C	1.174406	0.103408	1.157369
C459	C	0.637592	-0.433381	0.627332
C460	C	1.137592	0.066619	1.127332
C461	C	0.578159	-0.429106	0.634827
C462	C	1.078159	0.070894	1.134827
C463	C	0.555537	-0.388039	0.672361
C464	C	1.055537	0.111961	1.172361
C465	C	0.592351	-0.351249	0.702398
C466	C	1.092351	0.148751	1.202398
H467	H	0.718405	-0.399758	0.651819
H468	H	1.218405	0.100242	1.151819
H469	H	0.654339	-0.463782	0.599547
H470	H	1.154339	0.036218	1.099547
H471	H	0.550907	-0.456340	0.612592
H472	H	1.050907	0.043660	1.112592
H473	H	0.511538	-0.384872	0.677911
H474	H	1.011538	0.115128	1.177911
H475	H	0.575604	-0.320849	0.730183
H476	H	1.075604	0.179151	1.230183
H477	H	0.694853	-0.312487	0.953902
H478	H	1.194853	0.187513	1.453902
H479	H	0.661361	-0.801290	0.346039
H480	H	1.161361	-0.301290	0.846039
H481	H	0.661360	-0.345949	0.801756
H482	H	1.161360	0.154051	1.301756
H483	H	0.206223	-0.346229	0.345964
H484	H	0.706223	0.153771	0.845964
H485	H	0.694693	-0.451037	0.312592
H486	H	1.194693	0.048963	0.812592
C487	C	0.825662	-0.443179	0.181843
C488	C	1.325662	0.056821	0.681843
C489	C	0.821438	-0.450723	0.122402
C490	C	1.321438	0.049277	0.622402
C491	C	0.858238	-0.420681	0.085653
C492	C	1.358238	0.079319	0.585653
C493	C	0.899261	-0.383094	0.108344
C494	C	1.399261	0.116906	0.608344
C495	C	0.903486	-0.375548	0.167788
C496	C	1.403486	0.124452	0.667788
C497	C	0.866686	-0.405591	0.204537
C498	C	1.366686	0.094409	0.704537
H499	H	0.791069	-0.478549	0.105602
H500	H	1.291069	0.021451	0.605602
H501	H	0.855110	-0.426267	0.041649
H502	H	1.355110	0.073733	0.541649
H503	H	0.926502	-0.360855	0.081140
H504	H	1.426502	0.139145	0.581140
H505	H	0.933855	-0.347723	0.184588
H506	H	1.433855	0.152277	0.684588
H507	H	0.869815	-0.400004	0.248541
H508	H	1.369815	0.099996	0.748541
H509	H	0.849722	-0.157777	0.801827
H510	H	1.349722	0.342223	1.301827
H511	H	0.694806	-0.312597	0.550614
H512	H	1.194806	0.187403	1.050614
C513	C	0.685312	-0.322016	1.060752
C514	C	1.185312	0.177984	1.560752
C515	C	0.648500	-0.358792	1.030702
C516	C	1.148500	0.141208	1.530702
C517	C	0.611685	-0.395558	1.060714
C518	C	1.111685	0.104442	1.560714
C519	C	0.611682	-0.395547	1.120775
C520	C	1.111682	0.104453	1.620775
C521	C	0.648495	-0.358769	1.150829
C522	C	1.148495	0.141231	1.650829
C523	C	0.685310	-0.322004	1.120817
C524	C	1.185310	0.177996	1.620817
H525	H	0.648500	-0.358802	0.986238
H526	H	1.148500	0.141198	1.486238
H527	H	0.584433	-0.422783	1.038466
H528	H	1.084433	0.077217	1.538466
H529	H	0.584429	-0.422763	1.142992
H530	H	1.084429	0.077237	1.642992
H531	H	0.648495	-0.358760	1.195293
H532	H	1.148495	0.141240	1.695293
H533	H	0.712562	-0.294778	1.143064
H534	H	1.212562	0.205222	1.643064
H535	H	0.816148	-0.550036	0.191405
H536	H	1.316148	-0.050036	0.691405
C537	C	0.859239	-0.694349	0.148490
C538	C	1.359239	-0.194349	0.648490
C539	C	0.855024	-0.701898	0.089050
C540	C	1.355024	-0.201898	0.589050
C541	C	0.891832	-0.671863	0.052304
C542	C	1.391832	-0.171863	0.552304
C543	C	0.932856	-0.634279	0.074998
C544	C	1.432856	-0.134279	0.574998
C545	C	0.937073	-0.626728	0.134441
C546	C	1.437073	-0.126728	0.634441
C547	C	0.900264	-0.656763	0.171188
C548	C	1.400264	-0.156763	0.671188
H549	H	0.824654	-0.729722	0.072247
H550	H	1.324654	-0.229722	0.572247
H551	H	0.888711	-0.677453	0.008300
H552	H	1.388711	-0.177453	0.508300
H553	H	0.960104	-0.612045	0.047796
H554	H	1.460104	-0.112045	0.547796
H555	H	0.967443	-0.598904	0.151244
H556	H	1.467443	-0.098904	0.651244
H557	H	0.903386	-0.651173	0.215192
H558	H	1.403386	-0.151173	0.715192
C559	C	0.685236	-0.322177	0.443739
C560	C	1.185236	0.177823	0.943739
C561	C	0.644207	-0.299523	0.406185
C562	C	1.144207	0.200477	0.906185
C563	C	0.607405	-0.336306	0.376126
C564	C	1.107405	0.163694	0.876126
C565	C	0.611631	-0.395743	0.383622
C566	C	1.111631	0.104257	0.883622
C567	C	0.652662	-0.418400	0.421177
C568	C	1.152662	0.081600	0.921177
C569	C	0.689465	-0.381617	0.451236
C570	C	1.189465	0.118383	0.951236
H571	H	0.641077	-0.255521	0.400635
H572	H	1.141077	0.244479	0.900635
H573	H	0.577031	-0.319533	0.348325
H574	H	1.077031	0.180467	0.848325
H575	H	0.584388	-0.422972	0.361370
H576	H	1.084388	0.077028	0.861370
H577	H	0.655792	-0.462401	0.426727
H578	H	1.155792	0.037599	0.926727
H579	H	0.719838	-0.398389	0.479037
H580	H	1.219838	0.101611	0.979037
C581	C	0.449592	-0.322298	0.322088
C582	C	0.949592	0.177702	0.822088
C583	C	0.457072	-0.381728	0.317705
C584	C	0.957072	0.118272	0.817705
C585	C	0.427049	-0.418574	0.354424
C586	C	0.927049	0.081426	0.854424
C587	C	0.389547	-0.395990	0.395526
C588	C	0.889547	0.104010	0.895526
C589	C	0.382066	-0.336558	0.399910
C590	C	0.882066	0.163442	0.899910
C591	C	0.412088	-0.299712	0.363191
C592	C	0.912088	0.200288	0.863191
H593	H	0.484835	-0.398448	0.287277
H594	H	0.984835	0.101552	0.787277
H595	H	0.432588	-0.462569	0.351178
H596	H	0.932588	0.037431	0.851178
H597	H	0.367322	-0.423266	0.422708
H598	H	0.867322	0.076734	0.922708
H599	H	0.354303	-0.319837	0.430338
H600	H	0.854303	0.180163	0.930338
H601	H	0.406550	-0.255716	0.366437
H602	H	0.906550	0.244284	0.866437
H603	H	0.305269	-0.346225	0.345947
H604	H	0.805269	0.153775	0.845947
H605	H	0.849715	-0.801203	0.158053
H606	H	1.349715	-0.301203	0.658053
C607	C	0.825852	-0.945512	0.181908
C608	C	1.325852	-0.445512	0.681908
C609	C	0.821631	-0.953044	0.122466
C610	C	1.321631	-0.453044	0.622466
C611	C	0.858430	-0.922993	0.085724
C612	C	1.358430	-0.422993	0.585724
C613	C	0.899451	-0.885408	0.108424
C614	C	1.399451	-0.385408	0.608424
C615	C	0.903673	-0.877874	0.167870
C616	C	1.403673	-0.377874	0.667870
C617	C	0.866874	-0.907926	0.204611
C618	C	1.366874	-0.407926	0.704611
H619	H	0.791264	-0.980868	0.105659
H620	H	1.291264	-0.480868	0.605659
H621	H	0.855304	-0.928570	0.041719
H622	H	1.355304	-0.428570	0.541719
H623	H	0.926692	-0.863162	0.081226
H624	H	1.426692	-0.363162	0.581226
H625	H	0.934040	-0.850050	0.184676
H626	H	1.434040	-0.350050	0.684676
H627	H	0.870000	-0.902348	0.248617
H628	H	1.370000	-0.402348	0.748617
C629	C	0.825777	-0.181757	0.443793
C630	C	1.325777	0.318243	0.943793
C631	C	0.821555	-0.122318	0.451305
C632	C	1.321555	0.377682	0.951305
C633	C	0.858363	-0.085547	0.421291
C634	C	1.358363	0.414453	0.921291
C635	C	0.899393	-0.108216	0.383764
C636	C	1.399393	0.391784	0.883764
C637	C	0.903618	-0.167659	0.376250
C638	C	1.403618	0.332341	0.876250
C639	C	0.866810	-0.204429	0.406264
C640	C	1.366810	0.295571	0.906264
H641	H	0.791180	-0.105534	0.479086
H642	H	1.291180	0.394466	0.979086
H643	H	0.855235	-0.041543	0.426854
H644	H	1.355235	0.458457	0.926854
H645	H	0.926641	-0.080996	0.361546
H646	H	1.426641	0.419004	0.861546
H647	H	0.933992	-0.184443	0.348469
H648	H	1.433992	0.315557	0.848469
H649	H	0.869937	-0.248433	0.400702
H650	H	1.369937	0.251567	0.900702
