data_functionalizedCrystal
_audit_creation_method	'MofGen! by Chris Wilmer'
_symmetry_space_group_name_H-M	'P1'
_symmetry_Int_Tables_number	1
_symmetry_cell_setting	triclinic
loop_
_symmetry_equiv_pos_as_xyz
  x,y,z
_cell_length_a	29.839134
_cell_length_b	16.994747
_cell_length_c	29.839125
_cell_angle_alpha	89.991363
_cell_angle_beta	90.021980
_cell_angle_gamma	90.005924
loop_
_atom_site_label
_atom_site_type_symbol
_atom_site_fract_x
_atom_site_fract_y
_atom_site_fract_z
Zn1	Zn	0.686814	-0.314247	0.254207
Zn2	Zn	0.686786	-0.446127	0.179112
Zn3	Zn	0.611697	-0.314229	0.179077
Zn4	Zn	0.611685	-0.446101	0.254200
O5	O	0.649246	-0.380176	0.216649
O6	O	0.749678	-0.331759	0.244263
O7	O	0.676819	-0.428635	0.116240
O8	O	0.621679	-0.203850	0.189031
O9	O	0.749657	-0.428651	0.189091
O10	O	0.676867	-0.203863	0.244230
O11	O	0.621651	-0.331730	0.116214
O12	O	0.548828	-0.331704	0.189025
O13	O	0.621657	-0.428606	0.317068
O14	O	0.548819	-0.428589	0.244217
O15	O	0.676855	-0.331734	0.317074
O16	O	0.676807	-0.556505	0.189084
O17	O	0.621630	-0.556486	0.244251
C18	C	0.532523	-0.380143	0.216617
C19	C	0.482589	-0.380147	0.216613
C20	C	0.649220	-0.585116	0.216669
C21	C	0.649223	-0.674438	0.216668
Zn22	Zn	0.611710	-0.945316	0.179064
Zn23	Zn	0.686834	-0.945312	0.254188
Zn24	Zn	0.611700	-0.813493	0.254193
Zn25	Zn	0.686795	-0.813382	0.179097
O26	O	0.649260	-0.879376	0.216635
O27	O	0.621696	-1.055697	0.189014
O28	O	0.676880	-0.927870	0.317055
O29	O	0.548834	-0.831028	0.244215
O30	O	0.676890	-1.055693	0.244206
O31	O	0.548842	-0.927877	0.189019
O32	O	0.621679	-0.831024	0.317059
O33	O	0.621641	-0.703097	0.244247
O34	O	0.676822	-0.830839	0.116226
O35	O	0.676812	-0.703016	0.189075
O36	O	0.621658	-0.927770	0.116202
O37	O	0.749696	-0.927763	0.244238
O38	O	0.749667	-0.830835	0.189070
C39	C	0.172950	-0.430699	0.245353
C40	C	-0.014723	-0.430721	0.245373
O41	O	-0.038984	-0.473665	0.269789
N42	N	-0.038196	-0.380205	0.216683
C43	C	-0.014749	-0.329676	0.187988
O44	O	-0.039020	-0.286704	0.163589
C45	C	0.172924	-0.329650	0.187971
C46	C	0.196395	-0.380176	0.216659
C47	C	0.196421	-0.481219	0.274039
C48	C	0.243337	-0.481216	0.274032
C49	C	0.266781	-0.430693	0.245339
C50	C	0.243310	-0.380172	0.216652
C51	C	0.196371	-0.279118	0.159279
C52	C	0.243292	-0.279115	0.159278
C53	C	0.266762	-0.329640	0.187966
C54	C	0.313670	-0.329646	0.187952
N55	N	0.337143	-0.380162	0.216642
C56	C	0.313699	-0.430686	0.245335
C57	C	-0.113279	-0.329694	0.187999
C58	C	-0.160197	-0.329701	0.188002
C59	C	-0.160168	-0.430746	0.245388
C60	C	-0.113250	-0.430742	0.245381
C61	C	-0.089806	-0.380210	0.216688
C62	C	0.412225	-0.430676	0.245318
C63	C	0.459144	-0.430671	0.245307
C64	C	0.459111	-0.329624	0.187924
C65	C	0.412196	-0.329632	0.187933
C66	C	0.388754	-0.380160	0.216633
O67	O	0.337960	-0.286719	0.163552
O68	O	0.337979	-0.473639	0.269737
C69	C	0.126035	-0.430702	0.245360
C70	C	0.102564	-0.380182	0.216673
C71	C	0.126008	-0.329658	0.187980
C72	C	0.055646	-0.380189	0.216677
C73	C	0.032201	-0.430712	0.245371
C74	C	0.055675	-0.481228	0.274060
C75	C	0.102590	-0.481225	0.274053
C76	C	0.102535	-0.279142	0.159290
C77	C	0.055619	-0.279150	0.159299
C78	C	0.032175	-0.329673	0.187992
C79	C	0.766424	-0.380210	0.216682
C80	C	0.816358	-0.380225	0.216696
C81	C	0.649258	-0.380169	0.333827
C82	C	0.649263	-0.380166	0.383762
C83	C	0.649274	-0.174436	0.216626
C84	C	0.649288	-0.085114	0.216617
C85	C	0.649259	-0.380126	0.099927
C86	C	0.649341	-0.379907	0.049992
C87	C	0.678035	-0.329592	0.693411
C88	C	0.678057	-0.329525	0.881084
O89	O	0.702486	-0.286600	0.905354
N90	N	0.649323	-0.379955	0.904547
C91	C	0.620579	-0.430401	0.881089
O92	O	0.596136	-0.473287	0.905352
C93	C	0.620554	-0.430464	0.693417
C94	C	0.649294	-0.380037	0.669956
C95	C	0.706771	-0.279168	0.669951
C96	C	0.706767	-0.279189	0.623035
C97	C	0.678026	-0.329633	0.599580
C98	C	0.649290	-0.380057	0.623041
C99	C	0.591809	-0.480906	0.669959
C100	C	0.591804	-0.480916	0.623038
C101	C	0.620544	-0.430488	0.599578
C102	C	0.620545	-0.430521	0.552670
N103	N	0.649279	-0.380092	0.529207
C104	C	0.678020	-0.329648	0.552662
C105	C	0.620594	-0.430366	0.979620
C106	C	0.620601	-0.430351	1.026537
C107	C	0.678078	-0.329474	1.026530
C108	C	0.678074	-0.329493	0.979611
C109	C	0.649328	-0.379936	0.956157
C110	C	0.678009	-0.329695	0.454136
C111	C	0.678004	-0.329722	0.407217
C112	C	0.620525	-0.430596	0.407229
C113	C	0.620531	-0.430572	0.454144
C114	C	0.649275	-0.380115	0.477597
O115	O	0.596125	-0.473418	0.528372
O116	O	0.702452	-0.286755	0.528391
C117	C	0.678039	-0.329572	0.740327
C118	C	0.649302	-0.379996	0.763787
C119	C	0.620561	-0.430440	0.740332
C120	C	0.649309	-0.379981	0.810705
C121	C	0.678049	-0.329537	0.834160
C122	C	0.706784	-0.279107	0.810697
C123	C	0.706779	-0.279128	0.763782
C124	C	0.591827	-0.480870	0.763795
C125	C	0.591834	-0.480846	0.810711
C126	C	0.620575	-0.430402	0.834166
C127	C	0.765982	-0.879289	0.216658
C128	C	0.815917	-0.879274	0.216681
C129	C	0.649237	-0.879293	0.099457
C130	C	0.649227	-0.879257	0.049523
C131	C	0.532081	-0.879465	0.216614
C132	C	0.482147	-0.879504	0.216605
C133	C	0.649251	-0.879503	0.333358
C134	C	0.649135	-0.879690	0.383292
C135	C	0.839369	-0.929780	0.245392
C136	C	0.886287	-0.929782	0.245413
C137	C	0.909753	-0.879274	0.216726
C138	C	0.886298	-0.828766	0.188012
C139	C	0.839380	-0.828769	0.187989
C140	C	0.620497	-0.929708	0.026058
C141	C	0.620479	-0.929675	-0.020861
C142	C	0.649193	-0.879194	-0.044314
C143	C	0.677923	-0.828738	-0.020846
C144	C	0.677939	-0.828768	0.026072
C145	C	0.458691	-0.829091	0.245338
C146	C	0.411772	-0.829111	0.245330
C147	C	0.388311	-0.879549	0.216589
C148	C	0.411770	-0.929964	0.187852
C149	C	0.458688	-0.929939	0.187859
C150	C	0.620547	-0.828988	0.406724
C151	C	0.620430	-0.829163	0.453643
C152	C	0.648904	-0.880035	0.477128
C153	C	0.677494	-0.930741	0.453693
C154	C	0.677608	-0.930570	0.406775
H155	H	0.393144	-0.471819	0.268690
N156	N	0.708931	-0.774363	0.051382
H157	H	0.690677	-0.737832	0.070853
H158	H	0.727113	-0.742436	0.029377
N159	N	0.589515	-0.984150	0.051340
H160	H	0.568696	-0.952115	0.070805
H161	H	0.607804	-1.020707	0.070780
H162	H	0.701301	-0.787639	-0.039948
H163	H	0.701414	-0.288605	0.473226
N164	N	0.589594	-0.774465	0.478911
H165	H	0.607946	-0.738204	0.498471
H166	H	0.568603	-0.806393	0.498255
H167	H	0.700891	-0.971855	0.387700
N168	N	0.814090	-0.774281	0.157025
H169	H	0.780806	-0.781939	0.161359
H170	H	0.822296	-0.786487	0.124936
H171	H	-0.179265	-0.471884	0.268751
N172	N	0.560796	-0.535316	0.597742
H173	H	0.542592	-0.567254	0.619726
H174	H	0.579070	-0.571838	0.578287
N175	N	0.814065	-0.984260	0.276335
H176	H	0.836047	-1.016254	0.294523
H177	H	0.794600	-1.020726	0.258015
H178	H	0.700675	-0.972161	0.472822
N179	N	0.589828	-0.774123	0.381401
H180	H	0.594234	-0.781700	0.348122
H181	H	0.597019	-0.717903	0.389686
H182	H	0.947957	-0.879279	0.216750
N183	N	0.484459	-0.485171	0.276249
H184	H	0.462485	-0.517175	0.294427
H185	H	0.503939	-0.453120	0.297062
N186	N	0.268648	-0.535710	0.304976
H187	H	0.246671	-0.567711	0.323152
H188	H	0.288125	-0.503657	0.325791
N189	N	0.649168	-0.879181	-0.094918
H190	H	0.679984	-0.893655	-0.106224
H191	H	0.640875	-0.825063	-0.106184
H192	H	0.568406	-0.521969	0.689053
H193	H	0.350107	-0.879558	0.216587
H194	H	0.177338	-0.522362	0.297407
H195	H	0.730182	-0.238064	0.744684
N196	N	0.589485	-0.984088	-0.046167
H197	H	0.571301	-1.016071	-0.024188
H198	H	0.607767	-1.020567	-0.065641
N199	N	0.483987	-0.774689	0.276343
H200	H	0.503459	-0.806748	0.297164
H201	H	0.461972	-0.742776	0.294510
H202	H	0.392678	-0.788057	0.268732
H203	H	-0.094143	-0.471883	0.268743
H204	H	0.905378	-0.970911	0.268798
H205	H	0.648807	-0.880165	0.515331
N206	N	-0.185510	-0.275219	0.157053
H207	H	-0.163534	-0.243213	0.138878
H208	H	-0.204967	-0.238764	0.175369
N209	N	0.589525	-0.485002	0.381929
H210	H	0.607774	-0.521568	0.362474
H211	H	0.568718	-0.452884	0.362477
N212	N	0.737784	-0.224695	0.835996
H213	H	0.758599	-0.256748	0.855476
H214	H	0.719499	-0.188142	0.855422
N215	N	0.911612	-0.774284	0.157078
H216	H	0.889640	-0.742282	0.138885
H217	H	0.931083	-0.806342	0.136279
N218	N	-0.087997	-0.275181	0.157054
H219	H	-0.109990	-0.243184	0.138883
H220	H	-0.068538	-0.307220	0.136234
H221	H	0.392660	-0.971027	0.164452
H222	H	0.262377	-0.237960	0.135914
N223	N	0.171063	-0.224623	0.128335
H224	H	0.193041	-0.192618	0.110162
H225	H	0.151608	-0.188169	0.146653
N226	N	0.483984	-0.984317	0.156867
H227	H	0.461999	-1.016270	0.138662
H228	H	0.503458	-1.020825	0.175151
H229	H	0.036513	-0.238007	0.135933
N230	N	0.386873	-0.275166	0.156979
H231	H	0.367413	-0.238659	0.175260
H232	H	0.367425	-0.307247	0.136151
N233	N	0.484402	-0.275134	0.156976
H234	H	0.517685	-0.282801	0.161329
H235	H	0.476208	-0.218820	0.164015
H236	H	0.121696	-0.522368	0.297415
N237	N	0.030384	-0.535727	0.305007
H238	H	-0.002899	-0.528057	0.300654
H239	H	0.038599	-0.523535	0.337101
H240	H	0.701409	-0.288657	0.388117
N241	N	0.127818	-0.224637	0.128346
H242	H	0.105824	-0.192637	0.110176
H243	H	0.147274	-0.256680	0.107524
H244	H	0.730176	-0.238086	0.689043
N245	N	0.737763	-0.224797	0.597735
H246	H	0.755968	-0.192840	0.619718
H247	H	0.719480	-0.188292	0.578257
N248	N	0.709069	-0.275051	1.051833
H249	H	0.727270	-0.243096	1.029855
H250	H	0.729858	-0.307148	1.071315
N251	N	0.709071	-0.275105	0.954309
H252	H	0.727278	-0.243151	0.976291
H253	H	0.690788	-0.238598	0.934832
H254	H	0.597186	-0.471448	0.960528
N255	N	0.589610	-0.484751	1.051839
H256	H	0.571402	-0.516706	1.029856
H257	H	0.568825	-0.452633	1.071294
N258	N	0.589541	-0.484969	0.479452
H259	H	0.571335	-0.516931	0.457472
H260	H	0.568755	-0.452847	0.498903
H261	H	0.568423	-0.521949	0.744703
N262	N	0.560837	-0.535244	0.836012
H263	H	0.542630	-0.567199	0.814030
H264	H	0.540052	-0.503119	0.855463
