data_functionalizedCrystal
_audit_creation_method	'MofGen! by Chris Wilmer'
_symmetry_space_group_name_H-M	'P1'
_symmetry_Int_Tables_number	1
_symmetry_cell_setting	triclinic
loop_
_symmetry_equiv_pos_as_xyz
  x,y,z
_cell_length_a	12.759401
_cell_length_b	12.645330
_cell_length_c	12.759401
_cell_angle_alpha	90.006233
_cell_angle_beta	90.002245
_cell_angle_gamma	90.017853
loop_
_atom_site_label
_atom_site_type_symbol
_atom_site_fract_x
_atom_site_fract_y
_atom_site_fract_z
Zn1	Zn	1.606065	-0.422221	0.593992
Zn2	Zn	2.106065	0.077779	1.093992
Zn3	Zn	1.606000	-0.599452	0.418317
Zn4	Zn	2.106000	-0.099452	0.918317
Zn5	Zn	1.430417	-0.422203	0.418331
Zn6	Zn	1.930417	0.077797	0.918331
Zn7	Zn	1.430346	-0.599444	0.593958
Zn8	Zn	1.930346	-0.099444	1.093958
O9	O	1.518207	-0.510830	0.506150
O10	O	2.018207	-0.010830	1.006150
O11	O	1.753077	-0.445742	0.570696
O12	O	2.253077	0.054258	1.070696
O13	O	1.582711	-0.575935	0.271298
O14	O	2.082711	-0.075935	0.771298
O15	O	1.453774	-0.273858	0.441653
O16	O	1.953774	0.226142	0.941653
O17	O	1.753030	-0.575953	0.441629
O18	O	2.253030	-0.075953	0.941629
O19	O	1.582822	-0.273872	0.570710
O20	O	2.082822	0.226128	1.070710
O21	O	1.453711	-0.445711	0.271309
O22	O	1.953711	0.054289	0.771309
O23	O	1.283386	-0.445704	0.441621
O24	O	1.783386	0.054296	0.941621
O25	O	1.453654	-0.575939	0.740984
O26	O	1.953654	-0.075939	1.240984
O27	O	1.283335	-0.575922	0.570653
O28	O	1.783335	-0.075922	1.070653
O29	O	1.582753	-0.445735	0.741008
O30	O	2.082753	0.054265	1.241008
O31	O	1.582643	-0.747798	0.441596
O32	O	2.082643	-0.247798	0.941596
O33	O	1.453591	-0.747792	0.570639
O34	O	1.953591	-0.247792	1.070639
C35	C	1.245240	-0.510811	0.506135
C36	C	1.745240	-0.010811	1.006135
C37	C	1.128463	-0.510828	0.506154
C38	C	1.628463	-0.010828	1.006154
C39	C	1.073602	-0.578741	0.573230
C40	C	1.573602	-0.078741	1.073230
C41	C	0.963878	-0.578754	0.573241
C42	C	1.463878	-0.078754	1.073241
C43	C	0.963886	-0.442939	0.439092
C44	C	1.463886	0.057061	0.939092
C45	C	1.073608	-0.442921	0.439087
C46	C	1.573608	0.057079	0.939087
C47	C	1.128457	-0.646648	0.640298
C48	C	1.628457	-0.146648	1.140298
C49	C	1.073595	-0.714567	0.707378
C50	C	1.573595	-0.214567	1.207378
C51	C	0.963871	-0.714580	0.707390
C52	C	1.463871	-0.214580	1.207390
C53	C	0.909008	-0.646674	0.640320
C54	C	1.409008	-0.146674	1.140320
C55	C	1.518130	-0.786260	0.506135
C56	C	2.018130	-0.286260	1.006135
C57	C	1.518194	-0.904090	0.506164
C58	C	2.018194	-0.404090	1.006164
C59	C	1.437342	-1.071694	0.587595
C60	C	1.937342	-0.571694	1.087595
C61	C	1.436928	-0.949135	0.587333
C62	C	1.936928	-0.449135	1.087333
C63	C	1.488252	-0.948648	0.395442
C64	C	1.988252	-0.448648	0.895442
C65	C	1.487758	-1.071246	0.395937
C66	C	1.987758	-0.571246	0.895937
C67	C	1.629482	-1.071188	0.534556
C68	C	2.129482	-0.571188	1.034556
C69	C	1.628800	-0.948582	0.536977
C70	C	2.128800	-0.448582	1.036977
C71	C	1.792240	-0.510850	0.506165
C72	C	2.292240	-0.010850	1.006165
C73	C	1.909017	-0.510859	0.506171
C74	C	2.409017	-0.010859	1.006171
C75	C	1.518203	-0.510838	0.780183
C76	C	2.018203	-0.010838	1.280183
C77	C	1.518201	-0.510841	0.896959
C78	C	2.018201	-0.010841	1.396959
C79	C	1.518313	-0.234325	0.506187
C80	C	2.018313	0.265675	1.006187
C81	C	1.518358	-0.116495	0.506203
C82	C	2.018358	0.383505	1.006203
C83	C	1.451028	-0.443050	1.061551
C84	C	1.951028	0.056950	1.561551
C85	C	1.451036	-0.443043	0.951827
C86	C	1.951036	0.056957	1.451827
C87	C	1.585371	-0.578644	0.951821
C88	C	2.085371	-0.078644	1.451821
C89	C	1.585367	-0.578645	1.061543
C90	C	2.085367	-0.078645	1.561543
C91	C	1.383850	-0.375254	1.116413
C92	C	1.883850	0.124746	1.616413
C93	C	1.316682	-0.307450	1.061559
C94	C	1.816682	0.192550	1.561559
C95	C	1.316690	-0.307443	0.951835
C96	C	1.816690	0.192557	1.451835
C97	C	1.383866	-0.375241	0.896965
C98	C	1.883866	0.124759	1.396965
C99	C	1.518199	-0.510848	1.233182
C100	C	2.018199	-0.010848	1.733182
C101	C	1.518190	-0.510849	1.116406
C102	C	2.018190	-0.010849	1.616406
H103	H	1.118271	-0.769847	0.761990
H104	H	1.618271	-0.269847	1.261990
H105	H	1.651380	-0.919458	0.618462
H106	H	2.151380	-0.419458	1.118462
H107	H	1.545390	-0.919469	0.333143
H108	H	2.045390	-0.419469	0.833143
H109	H	1.118277	-0.387612	0.384475
H110	H	1.618277	0.112388	0.884475
H111	H	1.355473	-1.102589	0.569052
H112	H	1.855473	-0.602589	1.069052
H113	H	1.354545	-0.919894	0.568550
H114	H	1.854545	-0.419894	1.068550
H115	H	1.217799	-0.646646	0.640294
H116	H	1.717799	-0.146646	1.140294
H117	H	0.919208	-0.387654	0.384487
H118	H	1.419208	0.112346	0.884487
H119	H	0.919206	-0.769876	0.762017
H120	H	1.419206	-0.269876	1.262017
H121	H	1.640061	-0.633842	0.907138
H122	H	2.140061	-0.133842	1.407138
H123	H	1.383874	-0.375223	0.807621
H124	H	1.883874	0.124777	1.307621
H125	H	1.455658	-0.919008	0.669432
H126	H	1.955658	-0.419008	1.169432
H127	H	0.819664	-0.646682	0.640344
H128	H	1.319664	-0.146682	1.140344
H129	H	1.455899	-1.101133	0.669964
H130	H	1.955899	-0.601133	1.169964
H131	H	1.406526	-1.099930	0.371918
H132	H	1.906526	-0.599930	0.871918
H133	H	1.544208	-1.100883	0.333226
H134	H	2.044208	-0.600883	0.833226
H135	H	1.383835	-0.375254	1.205756
H136	H	1.883835	0.124746	1.705756
H137	H	1.262006	-0.252227	0.907176
H138	H	1.762006	0.247773	1.407176
H139	H	1.407867	-0.918029	0.370989
H140	H	1.907867	-0.418029	0.870989
H141	H	1.640058	-0.633851	1.106207
H142	H	2.140058	-0.133851	1.606207
H143	H	1.656802	-1.102058	0.613921
H144	H	2.156802	-0.602058	1.113921
H145	H	1.692337	-0.917913	0.482012
H146	H	2.192337	-0.417913	0.982012
H147	H	1.689841	-1.100157	0.475275
H148	H	2.189841	-0.600157	0.975275
H149	H	1.261996	-0.252246	1.106241
H150	H	1.761996	0.247754	1.606241
