data_functionalizedCrystal
_audit_creation_method	'MofGen! by Chris Wilmer'
_symmetry_space_group_name_H-M	'P1'
_symmetry_Int_Tables_number	1
_symmetry_cell_setting	triclinic
loop_
_symmetry_equiv_pos_as_xyz
  x,y,z
_cell_length_a	10.654545
_cell_length_b	16.109301
_cell_length_c	9.730223
_cell_angle_alpha	89.995590
_cell_angle_beta	89.997167
_cell_angle_gamma	83.972331
loop_
_atom_site_label
_atom_site_type_symbol
_atom_site_fract_x
_atom_site_fract_y
_atom_site_fract_z
O1	O	1.666259	0.116756	-0.114276
O2	O	1.300628	0.127885	-0.114282
O3	O	1.493487	0.001349	-0.114270
O4	O	1.473399	0.243292	-0.114288
O5	O	1.493475	0.001346	0.114310
O6	O	1.300616	0.127882	0.114298
O7	O	1.666246	0.116752	0.114304
Zn8	Zn	1.483429	0.122317	0.150593
Zn9	Zn	1.483445	0.122321	-0.150571
O10	O	1.473387	0.243288	0.114292
C11	C	1.253835	0.127067	0.000007
C12	C	1.114425	0.124625	0.000005
C13	C	1.048929	0.123473	0.124605
C14	C	0.917941	0.121164	0.124605
C15	C	0.917955	0.121162	-0.124605
C16	C	1.048942	0.123465	-0.124604
C17	C	1.492668	-0.029632	0.000019
C18	C	1.490228	-0.121942	0.000018
C19	C	1.596691	-0.430308	-0.000005
C20	C	1.598995	-0.343574	0.000003
C21	C	1.370174	-0.325059	0.000018
C22	C	1.367872	-0.411792	0.000020
C23	C	1.481134	-0.464414	0.000002
C24	C	1.485741	-0.290948	0.000008
C25	C	1.488238	-0.196907	0.000016
C26	C	1.478637	-0.558461	-0.000004
C27	C	1.713039	0.117571	0.000011
C28	C	1.852450	0.120013	0.000004
C29	C	1.474207	0.274270	-0.000001
C30	C	1.476647	0.366580	-0.000008
N31	N	1.483427	0.122313	0.356129
N32	N	1.483457	0.122318	-0.356108
C33	C	1.568854	0.066307	0.428060
C34	C	1.568867	0.066307	0.571943
C35	C	1.398021	0.178327	0.571951
C36	C	1.398004	0.178322	0.428071
H37	H	0.864620	0.120227	0.226067
C38	C	1.662833	0.004702	0.651069
H39	H	1.650604	0.012717	0.747063
H40	H	1.746635	0.014246	0.627474
H41	H	1.649214	-0.050874	0.627498
C42	C	0.845918	0.119898	-0.261664
H43	H	0.758524	0.118371	-0.243821
H44	H	0.876986	0.071880	-0.312861
H45	H	0.857788	0.168681	-0.312859
H46	H	1.102270	0.124401	-0.226074
C47	C	1.721274	-0.488190	-0.000008
H48	H	1.790424	-0.455452	0.000003
H49	H	1.725138	-0.522408	-0.079717
H50	H	1.725128	-0.522410	0.079715
C51	C	1.726108	-0.306061	-0.000012
H52	H	1.793228	-0.349826	-0.000033
H53	H	1.731771	-0.272616	0.079698
H54	H	1.731757	-0.272609	-0.079734
C55	C	1.240756	-0.449315	0.000025
H56	H	1.255609	-0.508506	0.000038
H57	H	1.194120	-0.431297	-0.079682
H58	H	1.194128	-0.431302	0.079750
C59	C	1.245597	-0.267173	0.000020
H60	H	1.263516	-0.210633	0.000003
H61	H	1.198206	-0.277584	0.079732
H62	H	1.198217	-0.277583	-0.079700
C63	C	1.662812	0.004701	0.348922
H64	H	1.650580	0.012724	0.252929
H65	H	1.649215	-0.050873	0.372514
H66	H	1.746620	0.014258	0.372490
C67	C	1.304033	0.239915	0.651085
H68	H	1.253135	0.273257	0.587634
H69	H	1.349156	0.274815	0.707216
H70	H	1.251793	0.209657	0.707208
C71	C	1.120961	0.124724	0.261668
H72	H	1.063192	0.123695	0.335874
H73	H	1.162467	0.174014	0.266865
H74	H	1.181653	0.077213	0.266835
C75	C	1.304033	0.239934	0.348941
H76	H	1.253173	0.273300	0.412391
H77	H	1.251771	0.209701	0.292830
H78	H	1.349191	0.274822	0.292797
