data_functionalizedCrystal
_audit_creation_method	'MofGen! by Chris Wilmer'
_symmetry_space_group_name_H-M	'P1'
_symmetry_Int_Tables_number	1
_symmetry_cell_setting	triclinic
loop_
_symmetry_equiv_pos_as_xyz
  x,y,z
_cell_length_a	21.395362
_cell_length_b	18.050590
_cell_length_c	21.395355
_cell_angle_alpha	90.018036
_cell_angle_beta	90.043940
_cell_angle_gamma	90.034430
loop_
_atom_site_label
_atom_site_type_symbol
_atom_site_fract_x
_atom_site_fract_y
_atom_site_fract_z
Zn1	Zn	0.957912	-0.295431	0.354588
Zn2	Zn	1.291246	0.037903	0.687921
Zn3	Zn	1.624579	0.371236	1.021254
Zn4	Zn	0.957837	-0.419603	0.249811
Zn5	Zn	1.291170	-0.086269	0.583144
Zn6	Zn	1.624504	0.247064	0.916478
Zn7	Zn	0.853127	-0.295465	0.249789
Zn8	Zn	1.186461	0.037868	0.583122
Zn9	Zn	1.519794	0.371201	0.916456
Zn10	Zn	0.853119	-0.419618	0.354516
Zn11	Zn	1.186452	-0.086284	0.687849
Zn12	Zn	1.519785	0.247049	1.021183
O13	O	0.905499	-0.357529	0.302176
O14	O	1.238832	-0.024196	0.635509
O15	O	1.572166	0.309138	0.968843
O16	O	1.045580	-0.311881	0.340728
O17	O	1.378914	0.021452	0.674062
O18	O	1.712247	0.354785	1.007395
O19	O	0.943919	-0.403143	0.162130
O20	O	1.277253	-0.069810	0.495464
O21	O	1.610586	0.263523	0.828797
O22	O	0.867062	-0.191536	0.263712
O23	O	1.200396	0.141797	0.597045
O24	O	1.533729	0.475131	0.930378
O25	O	1.045525	-0.403110	0.263749
O26	O	1.378858	-0.069777	0.597083
O27	O	1.712192	0.263557	0.930416
O28	O	0.944048	-0.191511	0.340707
O29	O	1.277381	0.141823	0.674040
O30	O	1.610714	0.475156	1.007373
O31	O	0.866989	-0.311940	0.162114
O32	O	1.200323	0.021393	0.495447
O33	O	1.533656	0.354726	0.828781
O34	O	0.765448	-0.311955	0.263642
O35	O	1.098782	0.021378	0.596975
O36	O	1.432115	0.354711	0.930309
O37	O	0.867048	-0.403136	0.442203
O38	O	1.200381	-0.069803	0.775537
O39	O	1.533714	0.263531	1.108870
O40	O	0.765442	-0.403170	0.340584
O41	O	1.098775	-0.069836	0.673918
O42	O	1.432109	0.263497	1.007251
O43	O	0.944039	-0.311896	0.442256
O44	O	1.277373	0.021437	0.775589
O45	O	1.610706	0.354770	1.108923
O46	O	0.943911	-0.523529	0.263680
O47	O	1.277244	-0.190196	0.597013
O48	O	1.610578	0.143138	0.930346
O49	O	0.866975	-0.523540	0.340606
O50	O	1.200308	-0.190207	0.673939
O51	O	1.533641	0.143126	1.007272
C52	C	0.742711	-0.357568	0.302103
C53	C	1.076045	-0.024235	0.635437
C54	C	1.409378	0.309098	0.968770
C55	C	0.673070	-0.357603	0.302087
C56	C	1.006403	-0.024270	0.635420
C57	C	1.339737	0.309064	0.968754
C58	C	0.640370	-0.405161	0.342091
C59	C	0.973703	-0.071828	0.675424
C60	C	1.307037	0.261505	1.008758
C61	C	0.574935	-0.405143	0.342119
C62	C	0.908268	-0.071810	0.675452
C63	C	1.241601	0.261524	1.008785
C64	C	0.542202	-0.357574	0.302132
C65	C	0.875535	-0.024241	0.635465
C66	C	1.208868	0.309092	0.968798
C67	C	0.574910	-0.310007	0.262125
C68	C	0.908243	0.023326	0.595458
C69	C	1.241576	0.356660	0.928792
C70	C	0.640344	-0.310021	0.262103
C71	C	0.973677	0.023312	0.595436
C72	C	1.307010	0.356645	0.928769
C73	C	0.438476	-0.351592	0.245726
C74	C	0.771809	-0.018258	0.579060
C75	C	1.105143	0.315075	0.912393
C76	C	0.373043	-0.351583	0.245748
C77	C	0.706376	-0.018249	0.579081
C78	C	1.039710	0.315084	0.912414
C79	C	0.340381	-0.357526	0.302201
C80	C	0.673714	-0.024193	0.635534
C81	C	1.007048	0.309141	0.968867
C82	C	0.373160	-0.363494	0.358634
C83	C	0.706493	-0.030161	0.691968
C84	C	1.039827	0.303173	1.025301
C85	C	0.438594	-0.363508	0.358612
C86	C	0.771927	-0.030175	0.691946
C87	C	1.105261	0.303158	1.025279
C88	C	0.471249	-0.357553	0.302152
C89	C	0.804583	-0.024220	0.635485
C90	C	1.137916	0.309113	0.968818
C91	C	0.236728	-0.405067	0.342238
C92	C	0.570062	-0.071734	0.675572
C93	C	0.903395	0.261600	1.008905
C94	C	0.171292	-0.405044	0.342267
C95	C	0.504625	-0.071710	0.675601
C96	C	0.837959	0.261623	1.008934
C97	C	0.171268	-0.309911	0.262268
C98	C	0.504601	0.023422	0.595601
C99	C	0.837935	0.356755	0.928935
C100	C	0.236703	-0.309931	0.262245
C101	C	0.570037	0.023402	0.595578
C102	C	0.903370	0.356736	0.928911
C103	C	0.269430	-0.357513	0.302229
C104	C	0.602763	-0.024179	0.635562
C105	C	0.936096	0.309154	0.968896
C106	C	0.905451	-0.550481	0.302151
C107	C	1.238784	-0.217148	0.635484
C108	C	1.572117	0.116185	0.968818
C109	C	0.905487	-0.633027	0.302161
C110	C	1.238821	-0.299694	0.635495
C111	C	1.572154	0.033640	0.968828
C112	C	0.947412	-0.832444	0.260387
C113	C	1.280746	-0.499111	0.593721
C114	C	1.614079	-0.165778	0.927054
C115	C	0.962722	-0.881784	0.317576
C116	C	1.296056	-0.548451	0.650910
C117	C	1.629389	-0.215118	0.984243
C118	C	0.905523	-0.784157	0.302186
C119	C	1.238856	-0.450824	0.635520
C120	C	1.572190	-0.117491	0.968853
C121	C	0.890277	-0.881899	0.245023
C122	C	1.223610	-0.548566	0.578356
C123	C	1.556943	-0.215232	0.911689
C124	C	0.905559	-0.930142	0.302205
C125	C	1.238892	-0.596809	0.635539
C126	C	1.572225	-0.263476	0.968872
C127	C	0.920862	-0.832410	0.359405
C128	C	1.254196	-0.499077	0.692739
C129	C	1.587529	-0.165743	1.026072
C130	C	0.848390	-0.832520	0.286813
C131	C	1.181724	-0.499187	0.620147
C132	C	1.515057	-0.165854	0.953480
C133	C	0.863678	-0.881838	0.344042
C134	C	1.197012	-0.548505	0.677375
C135	C	1.530345	-0.215171	1.010708
C136	C	0.905504	-0.700059	0.302174
C137	C	1.238837	-0.366726	0.635508
C138	C	1.572171	-0.033392	0.968841
C139	C	0.905577	-1.014239	0.302224
C140	C	1.238911	-0.680906	0.635557
C141	C	1.572244	-0.347572	0.968890
C142	C	1.068922	-0.357490	0.302249
C143	C	1.402256	-0.024157	0.635583
C144	C	1.735589	0.309177	0.968916
C145	C	1.138563	-0.357474	0.302281
C146	C	1.471897	-0.024140	0.635614
C147	C	1.805230	0.309193	0.968947
C148	C	0.905551	-0.357514	0.465599
C149	C	1.238884	-0.024181	0.798933
C150	C	1.572218	0.309153	1.132266
C151	C	0.905573	-0.357508	0.535241
C152	C	1.238906	-0.024174	0.868574
C153	C	1.572240	0.309159	1.201907
C154	C	0.905564	-0.163823	0.302215
C155	C	1.238898	0.169510	0.635548
C156	C	1.572231	0.502843	0.968881
C157	C	0.905592	-0.081278	0.302231
C158	C	1.238926	0.252056	0.635565
C159	C	1.572259	0.585389	0.968898
C160	C	0.905483	-0.357490	0.139388
C161	C	1.238816	-0.024157	0.472722
C162	C	1.572150	0.309176	0.806055
C163	C	0.905582	-0.357288	0.069747
C164	C	1.238916	-0.023954	0.403081
C165	C	1.572249	0.309379	0.736414
C166	C	0.945661	-0.309997	0.567982
C167	C	1.278994	0.023336	0.901316
C168	C	1.612327	0.356670	1.234649
C169	C	0.945660	-0.309965	0.633418
C170	C	1.278993	0.023368	0.966751
C171	C	1.612327	0.356702	1.300084
C172	C	0.905578	-0.357457	0.666109
C173	C	1.238911	-0.024124	0.999442
C174	C	1.572245	0.309210	1.332776
C175	C	0.865482	-0.404971	0.633359
C176	C	1.198816	-0.071638	0.966693
C177	C	1.532149	0.261696	1.300026
C178	C	0.865480	-0.404996	0.567925
C179	C	1.198813	-0.071663	0.901259
C180	C	1.532147	0.261671	1.234592
C181	C	0.900614	-0.424328	0.769773
C182	C	1.233947	-0.090994	1.103107
C183	C	1.567281	0.242339	1.436440
C184	C	0.900621	-0.424304	0.835206
C185	C	1.233954	-0.090970	1.168540
C186	C	1.567287	0.242363	1.501873
C187	C	0.905582	-0.357379	0.867930
C188	C	1.238915	-0.024045	1.201263
C189	C	1.572248	0.309288	1.534596
C190	C	0.910549	-0.290475	0.835212
C191	C	1.243882	0.042858	1.168546
C192	C	1.577216	0.376191	1.501879
C193	C	0.910547	-0.290501	0.769778
C194	C	1.243880	0.042833	1.103111
C195	C	1.577213	0.376166	1.436445
C196	C	0.905576	-0.357434	0.737061
C197	C	1.238909	-0.024101	1.070395
C198	C	1.572242	0.309232	1.403728
C199	C	0.945671	-0.309829	0.971624
C200	C	1.279004	0.023504	1.304957
C201	C	1.612337	0.356837	1.638291
C202	C	0.945665	-0.309796	1.037061
C203	C	1.278999	0.023537	1.370394
C204	C	1.612332	0.356871	1.703727
C205	C	0.865491	-0.404808	1.037001
C206	C	1.198825	-0.071475	1.370335
C207	C	1.532158	0.261858	1.703668
C208	C	0.865493	-0.404835	0.971566
C209	C	1.198827	-0.071502	1.304899
C210	C	1.532160	0.261832	1.638232
C211	C	0.905586	-0.357346	0.938881
C212	C	1.238920	-0.024013	1.272214
C213	C	1.572253	0.309320	1.605548
H214	H	0.346568	-0.368332	0.404604
H215	H	0.679901	-0.034999	0.737938
H216	H	1.013235	0.298334	1.071271
H217	H	0.828269	-0.903388	0.379439
H218	H	1.161603	-0.570055	0.712772
H219	H	1.494936	-0.236722	1.046106
F220	F	0.873402	-0.910313	0.181826
F221	F	1.206736	-0.576980	0.515160
F222	F	1.540069	-0.243647	0.848493
H223	H	0.896580	-0.478780	0.861840
H224	H	1.229913	-0.145447	1.195173
H225	H	1.563247	0.187886	1.528507
F226	F	0.271560	-0.455703	0.384795
F227	F	0.604894	-0.122370	0.718129
F228	F	0.938227	0.210963	1.051462
F229	F	1.025896	-0.910059	0.334597
F230	F	1.359230	-0.576725	0.667930
F231	F	1.692563	-0.243392	1.001264
H232	H	0.465280	-0.368366	0.404562
H233	H	0.798614	-0.035032	0.737896
H234	H	1.131947	0.298301	1.071229
F235	F	0.785233	-0.804215	0.269782
F236	F	1.118567	-0.470881	0.603115
F237	F	1.451900	-0.137548	0.936449
H238	H	0.263328	-0.271207	0.229666
H239	H	0.596661	0.062126	0.562999
H240	H	0.929995	0.395459	0.896332
F241	F	0.338163	-0.345231	0.185687
F242	F	0.671496	-0.011898	0.519020
F243	F	1.004830	0.321436	0.852353
F244	F	0.915832	-0.219243	0.870034
F245	F	1.249165	0.114090	1.203367
F246	F	1.582498	0.447424	1.536700
F247	F	0.988318	-0.259384	0.668271
F248	F	1.321651	0.073950	1.001604
F249	F	1.654985	0.407283	1.334937
H250	H	0.548305	-0.443870	0.374697
H251	H	0.881638	-0.110537	0.708030
H252	H	1.214972	0.222796	1.041364
F253	F	0.915830	-0.219300	0.734960
F254	F	1.249163	0.114034	1.068293
F255	F	1.582497	0.447367	1.401627
H256	H	0.978307	-0.271327	0.541374
H257	H	1.311640	0.062006	0.874708
H258	H	1.644974	0.395339	1.208041
F259	F	0.993728	-0.804095	0.214232
F260	F	1.327061	-0.470762	0.547565
F261	F	1.660395	-0.137429	0.880898
F262	F	0.895348	-0.495565	0.734953
F263	F	1.228681	-0.162232	1.068286
F264	F	1.562015	0.171102	1.401619
H265	H	0.144669	-0.443770	0.374847
H266	H	0.478002	-0.110436	0.708181
H267	H	0.811335	0.222897	1.041514
H268	H	0.978313	-0.271157	0.945011
H269	H	1.311647	0.062176	1.278344
H270	H	1.644980	0.395509	1.611677
H271	H	0.144618	-0.271177	0.229712
H272	H	0.477951	0.062157	0.563046
H273	H	0.811284	0.395490	0.896379
F274	F	0.473231	-0.345267	0.185637
F275	F	0.806564	-0.011934	0.518970
F276	F	1.139897	0.321399	0.852304
F277	F	0.675146	-0.259401	0.219523
F278	F	1.008480	0.073933	0.552857
F279	F	1.341813	0.407266	0.886190
H280	H	0.978309	-0.271103	1.063718
H281	H	1.311642	0.062230	1.397051
H282	H	1.644975	0.395564	1.730384
F283	F	0.822822	-0.455513	0.668153
F284	F	1.156156	-0.122179	1.001486
F285	F	1.489489	0.211154	1.334819
H286	H	0.832849	-0.443470	1.063618
H287	H	1.166183	-0.110136	1.396951
H288	H	1.499516	0.223197	1.730284
H289	H	0.933724	-0.810764	0.407797
H290	H	1.267058	-0.477431	0.741131
H291	H	1.600391	-0.144097	1.074464
H292	H	0.832833	-0.443684	0.541267
H293	H	1.166166	-0.110351	0.874601
H294	H	1.499500	0.222983	1.207934
F295	F	0.675196	-0.455800	0.384648
F296	F	1.008529	-0.122467	0.717981
F297	F	1.341863	0.210867	1.051315
F298	F	0.540072	-0.259378	0.219570
F299	F	0.873405	0.073955	0.552904
F300	F	1.206739	0.407289	0.886237
F301	F	0.822828	-0.455406	0.936718
F302	F	1.156161	-0.122072	1.270052
F303	F	1.489495	0.211261	1.603385
