data_functionalizedCrystal
_audit_creation_method	'MofGen! by Chris Wilmer'
_symmetry_space_group_name_H-M	'P1'
_symmetry_Int_Tables_number	1
_symmetry_cell_setting	triclinic
loop_
_symmetry_equiv_pos_as_xyz
  x,y,z
_cell_length_a	21.295418
_cell_length_b	21.295417
_cell_length_c	21.395355
_cell_angle_alpha	89.978549
_cell_angle_beta	89.956257
_cell_angle_gamma	90.046319
loop_
_atom_site_label
_atom_site_type_symbol
_atom_site_fract_x
_atom_site_fract_y
_atom_site_fract_z
Zn1	Zn	0.962356	-0.250416	-0.354570
Zn2	Zn	1.295689	0.082917	-0.021236
Zn3	Zn	1.629022	0.416250	0.312097
Zn4	Zn	0.962258	-0.355668	-0.249787
Zn5	Zn	1.295592	-0.022335	0.083547
Zn6	Zn	1.628925	0.310999	0.416880
Zn7	Zn	0.857079	-0.250446	-0.249771
Zn8	Zn	1.190412	0.082888	0.083562
Zn9	Zn	1.523746	0.416221	0.416895
Zn10	Zn	0.857048	-0.355681	-0.354492
Zn11	Zn	1.190382	-0.022347	-0.021158
Zn12	Zn	1.523715	0.310986	0.312175
O13	O	0.909685	-0.303053	-0.302155
O14	O	1.243019	0.030281	0.031179
O15	O	1.576352	0.363614	0.364512
O16	O	1.050432	-0.264361	-0.340709
O17	O	1.383766	0.068973	-0.007376
O18	O	1.717099	0.402306	0.325958
O19	O	0.948278	-0.341717	-0.162107
O20	O	1.281611	-0.008383	0.171227
O21	O	1.614945	0.324950	0.504560
O22	O	0.871098	-0.162352	-0.263699
O23	O	1.204431	0.170981	0.069634
O24	O	1.537765	0.504314	0.402968
O25	O	1.050361	-0.341689	-0.263725
O26	O	1.383694	-0.008355	0.069608
O27	O	1.717027	0.324978	0.402941
O28	O	0.948444	-0.162331	-0.340694
O29	O	1.281778	0.171002	-0.007361
O30	O	1.615111	0.504336	0.325973
O31	O	0.871003	-0.264410	-0.162095
O32	O	1.204337	0.068923	0.171238
O33	O	1.537670	0.402256	0.504571
O34	O	0.768986	-0.264423	-0.263624
O35	O	1.102319	0.068910	0.069710
O36	O	1.435652	0.402244	0.403043
O37	O	0.871046	-0.341710	-0.442180
O38	O	1.204379	-0.008377	-0.108847
O39	O	1.537712	0.324956	0.224487
O40	O	0.768963	-0.341739	-0.340561
O41	O	1.102296	-0.008405	-0.007228
O42	O	1.435630	0.324928	0.326105
O43	O	0.948415	-0.264373	-0.442237
O44	O	1.281748	0.068960	-0.108904
O45	O	1.615081	0.402294	0.224430
O46	O	0.948248	-0.443759	-0.263650
O47	O	1.281582	-0.110426	0.069683
O48	O	1.614915	0.222908	0.403017
O49	O	0.870951	-0.443768	-0.340576
O50	O	1.204284	-0.110435	-0.007243
O51	O	1.537618	0.222898	0.326090
C52	C	0.746134	-0.303086	-0.302083
C53	C	1.079467	0.030248	0.031251
C54	C	1.412800	0.363581	0.364584
C55	C	0.676166	-0.303115	-0.302067
C56	C	1.009499	0.030218	0.031267
C57	C	1.342832	0.363552	0.364600
C58	C	0.909603	-0.466604	-0.302120
C59	C	1.242936	-0.133271	0.031213
C60	C	1.576269	0.200062	0.364547
C61	C	0.909625	-0.536572	-0.302126
C62	C	1.242958	-0.203239	0.031207
C63	C	1.576292	0.130094	0.364540
C64	C	0.643304	-0.343427	-0.342068
C65	C	0.976637	-0.010093	-0.008735
C66	C	1.309970	0.323240	0.324598
C67	C	0.577561	-0.343411	-0.342096
C68	C	0.910895	-0.010078	-0.008763
C69	C	1.244228	0.323255	0.324570
C70	C	0.544683	-0.303091	-0.302112
C71	C	0.878016	0.030243	0.031222
C72	C	1.211350	0.363576	0.364555
C73	C	0.577553	-0.262771	-0.262107
C74	C	0.910886	0.070562	0.071226
C75	C	1.244220	0.403895	0.404559
C76	C	0.643294	-0.262783	-0.262085
C77	C	0.976627	0.070550	0.071249
C78	C	1.309961	0.403883	0.404582
N79	N	0.441407	-0.298163	-0.247311
N80	N	0.774740	0.035170	0.086022
N81	N	1.108074	0.368503	0.419355
N82	N	0.378956	-0.298156	-0.247335
N83	N	0.712289	0.035178	0.085999
N84	N	1.045622	0.368511	0.419332
C85	C	0.346608	-0.303051	-0.302178
C86	C	0.679942	0.030283	0.031155
C87	C	1.013275	0.363616	0.364488
N88	N	0.379072	-0.307966	-0.356999
N89	N	0.712405	0.025367	-0.023666
N90	N	1.045739	0.358701	0.309668
N91	N	0.441529	-0.307977	-0.356975
N92	N	0.774862	0.025356	-0.023642
N93	N	1.108196	0.358689	0.309692
C94	C	0.473398	-0.303073	-0.302132
C95	C	0.806731	0.030261	0.031201
C96	C	1.140064	0.363594	0.364535
C97	C	0.242461	-0.343348	-0.342214
C98	C	0.575794	-0.010014	-0.008880
C99	C	0.909128	0.323319	0.324453
C100	C	0.176717	-0.343328	-0.342243
C101	C	0.510051	-0.009994	-0.008910
C102	C	0.843384	0.323339	0.324424
C103	C	0.176710	-0.262691	-0.262248
C104	C	0.510044	0.070642	0.071085
C105	C	0.843377	0.403976	0.404418
C106	C	0.242453	-0.262708	-0.262225
C107	C	0.575786	0.070626	0.071109
C108	C	0.909119	0.403959	0.404442
C109	C	0.275324	-0.303039	-0.302206
C110	C	0.608658	0.030294	0.031127
C111	C	0.941991	0.363627	0.364460
C112	C	0.949910	-0.569413	-0.262112
C113	C	1.283243	-0.236080	0.071222
C114	C	1.616576	0.097253	0.404555
C115	C	0.949939	-0.635156	-0.262126
C116	C	1.283272	-0.301822	0.071208
C117	C	1.616606	0.031511	0.404541
C118	C	0.909673	-0.668055	-0.302148
C119	C	1.243006	-0.334722	0.031186
C120	C	1.576340	-0.001388	0.364519
C121	C	0.869386	-0.635206	-0.342170
C122	C	1.202719	-0.301873	-0.008837
C123	C	1.536052	0.031461	0.324497
C124	C	0.869362	-0.569465	-0.342159
C125	C	1.202695	-0.236132	-0.008826
C126	C	1.536028	0.097202	0.324507
N127	N	0.854606	-0.771337	-0.306900
N128	N	1.187939	-0.438003	0.026433
N129	N	1.521272	-0.104670	0.359767
N130	N	0.854630	-0.833788	-0.306907
N131	N	1.187964	-0.500455	0.026427
N132	N	1.521297	-0.167122	0.359760
C133	C	0.909743	-0.866130	-0.302184
C134	C	1.243077	-0.532796	0.031150
C135	C	1.576410	-0.199463	0.364483
N136	N	0.964832	-0.833660	-0.297442
N137	N	1.298166	-0.500327	0.035892
N138	N	1.631499	-0.166994	0.369225
N139	N	0.964807	-0.771203	-0.297432
N140	N	1.298140	-0.437870	0.035901
N141	N	1.631474	-0.104536	0.369235
C142	C	0.909695	-0.739340	-0.302164
C143	C	1.243028	-0.406007	0.031169
C144	C	1.576361	-0.072674	0.364502
C145	C	0.950063	-0.970256	-0.262182
C146	C	1.283397	-0.636923	0.071151
C147	C	1.616730	-0.303589	0.404484
C148	C	0.950094	-1.036000	-0.262201
C149	C	1.283427	-0.702666	0.071132
C150	C	1.616760	-0.369333	0.404466
C151	C	0.869535	-1.036049	-0.342242
C152	C	1.202868	-0.702715	-0.008909
C153	C	1.536201	-0.369382	0.324425
C154	C	0.869510	-0.970306	-0.342227
C155	C	1.202843	-0.636973	-0.008893
C156	C	1.536176	-0.303640	0.324440
C157	C	0.909773	-0.937414	-0.302194
C158	C	1.243107	-0.604080	0.031140
C159	C	1.576440	-0.270747	0.364473
C160	C	1.073876	-0.303020	-0.302228
C161	C	1.407209	0.030313	0.031106
C162	C	1.740542	0.363647	0.364439
C163	C	1.143844	-0.303006	-0.302259
C164	C	1.477177	0.030327	0.031075
C165	C	1.810510	0.363661	0.364408
C166	C	0.909738	-0.303040	-0.465578
C167	C	1.243071	0.030293	-0.132245
C168	C	1.576404	0.363627	0.201089
C169	C	0.909760	-0.303034	-0.535219
C170	C	1.243093	0.030299	-0.201886
C171	C	1.576427	0.363632	0.131447
C172	C	0.909785	-0.138862	-0.302203
C173	C	1.243119	0.194471	0.031130
C174	C	1.576452	0.527804	0.364463
C175	C	0.909828	-0.068894	-0.302224
C176	C	1.243161	0.264439	0.031109
C177	C	1.576495	0.597772	0.364443
C178	C	0.950044	-0.262763	-0.567963
C179	C	1.283377	0.070570	-0.234630
C180	C	1.616711	0.403903	0.098703
C181	C	0.950043	-0.262736	-0.633399
C182	C	1.283377	0.070597	-0.300065
C183	C	1.616710	0.403930	0.033268
C184	C	0.909765	-0.302992	-0.666088
C185	C	1.243098	0.030342	-0.332755
C186	C	1.576431	0.363675	0.000579
C187	C	0.869473	-0.343266	-0.633336
C188	C	1.202806	-0.009932	-0.300003
C189	C	1.536139	0.323401	0.033331
C190	C	0.869470	-0.343287	-0.567902
C191	C	1.202804	-0.009954	-0.234569
C192	C	1.536137	0.323380	0.098765
C193	C	0.904766	-0.359673	-0.769749
C194	C	1.238099	-0.026340	-0.436415
C195	C	1.571432	0.306994	-0.103082
C196	C	0.904773	-0.359653	-0.835182
C197	C	1.238106	-0.026319	-0.501848
C198	C	1.571439	0.307014	-0.168515
C199	C	0.909769	-0.302925	-0.867909
C200	C	1.243102	0.030408	-0.534575
C201	C	1.576435	0.363742	-0.201242
C202	C	0.914771	-0.246216	-0.835195
C203	C	1.248104	0.087117	-0.501861
C204	C	1.581438	0.420451	-0.168528
C205	C	0.914769	-0.246238	-0.769760
C206	C	1.248102	0.087096	-0.436427
C207	C	1.581435	0.420429	-0.103094
C208	C	0.909763	-0.302973	-0.737040
C209	C	1.243096	0.030361	-0.403707
C210	C	1.576429	0.363694	-0.070374
C211	C	0.950054	-0.262621	-0.971605
C212	C	1.283388	0.070712	-0.638272
C213	C	1.616721	0.404046	-0.304939
C214	C	0.950049	-0.262593	-1.037042
C215	C	1.283382	0.070740	-0.703708
C216	C	1.616716	0.404074	-0.370375
C217	C	0.869482	-0.343128	-1.036978
C218	C	1.202815	-0.009795	-0.703645
C219	C	1.536148	0.323539	-0.370311
C220	C	0.869484	-0.343151	-0.971542
C221	C	1.202817	-0.009817	-0.638209
C222	C	1.536150	0.323516	-0.304876
C223	C	0.909773	-0.302898	-0.938860
C224	C	1.243107	0.030435	-0.605527
C225	C	1.576440	0.363769	-0.272193
C226	C	0.909670	-0.303020	-0.139367
C227	C	1.243003	0.030313	0.193966
C228	C	1.576336	0.363647	0.527299
C229	C	0.909769	-0.302848	-0.069726
C230	C	1.243103	0.030485	0.263607
C231	C	1.576436	0.363819	0.596940
H232	H	0.670064	-0.376267	-0.374626
H233	H	1.003397	-0.042934	-0.041292
H234	H	1.336730	0.290400	0.292041
H235	H	0.269226	-0.376185	-0.374773
H236	H	0.602560	-0.042851	-0.041439
H237	H	0.935893	0.290482	0.291894
H238	H	0.149962	-0.376153	-0.374821
H239	H	0.483296	-0.042820	-0.041488
H240	H	0.816629	0.290514	0.291846
H241	H	0.982746	-0.661900	-0.229541
H242	H	1.316079	-0.328567	0.103792
H243	H	1.649412	0.004767	0.437125
H244	H	0.836602	-0.661997	-0.374757
H245	H	1.169935	-0.328664	-0.041424
H246	H	1.503268	0.004670	0.291909
H247	H	0.900529	-0.405856	-0.743108
H248	H	1.233862	-0.072522	-0.409775
H249	H	1.567195	0.260811	-0.076441
H250	H	0.900703	-0.405829	-0.861813
H251	H	1.234036	-0.072495	-0.528479
H252	H	1.567370	0.260838	-0.195146
H253	H	0.836557	-0.542725	-0.374745
H254	H	1.169890	-0.209392	-0.041411
H255	H	1.503223	0.123941	0.291922
H256	H	0.149942	-0.229858	-0.229695
H257	H	0.483275	0.103475	0.103638
H258	H	0.816608	0.436808	0.436972
H259	H	0.918840	-0.200063	-0.743127
H260	H	1.252174	0.133270	-0.409794
H261	H	1.585507	0.466603	-0.076460
H262	H	0.982846	-0.229939	-0.660064
H263	H	1.316180	0.103394	-0.326731
H264	H	1.649513	0.436728	0.006603
H265	H	0.550800	-0.376238	-0.374673
H266	H	0.884133	-0.042904	-0.041340
H267	H	1.217466	0.290429	0.291994
H268	H	0.550779	-0.229941	-0.229553
H269	H	0.884113	0.103393	0.103781
H270	H	1.217446	0.436726	0.437114
H271	H	0.836752	-1.062835	-0.374831
H272	H	1.170085	-0.729501	-0.041498
H273	H	1.503419	-0.396168	0.291835
H274	H	0.982850	-0.943474	-0.229587
H275	H	1.316184	-0.610140	0.103746
H276	H	1.649517	-0.276807	0.437080
H277	H	0.982696	-0.542634	-0.229516
H278	H	1.316029	-0.209301	0.103817
H279	H	1.649363	0.124033	0.437151
H280	H	0.918841	-0.200023	-0.861839
H281	H	1.252174	0.133310	-0.528506
H282	H	1.585507	0.466644	-0.195173
H283	H	0.982857	-0.229842	-0.944994
H284	H	1.316190	0.103492	-0.611660
H285	H	1.649524	0.436825	-0.278327
H286	H	0.670050	-0.229955	-0.229511
H287	H	1.003383	0.103378	0.103823
H288	H	1.336717	0.436712	0.437156
H289	H	0.269209	-0.229884	-0.229648
H290	H	0.602543	0.103449	0.103686
H291	H	0.935876	0.436782	0.437019
H292	H	0.836704	-0.943566	-0.374808
H293	H	1.170037	-0.610232	-0.041474
H294	H	1.503370	-0.276899	0.291859
H295	H	0.982852	-0.229796	-1.063701
H296	H	1.316186	0.103538	-0.730367
H297	H	1.649519	0.436871	-0.397034
H298	H	0.982902	-1.062738	-0.229618
H299	H	1.316235	-0.729404	0.103716
H300	H	1.649569	-0.396071	0.437049
H301	H	0.982850	-0.229986	-0.541357
H302	H	1.316184	0.103348	-0.208024
H303	H	1.649517	0.436681	0.125309
H304	H	0.836680	-0.375898	-1.063593
H305	H	1.170013	-0.042565	-0.730259
H306	H	1.503346	0.290768	-0.396926
H307	H	0.836683	-0.375948	-0.944882
H308	H	1.170017	-0.042614	-0.611549
H309	H	1.503350	0.290719	-0.278215
H310	H	0.836676	-0.376040	-0.659956
H311	H	1.170009	-0.042707	-0.326622
H312	H	1.503342	0.290627	0.006711
H313	H	0.836663	-0.376080	-0.541242
H314	H	1.169996	-0.042747	-0.207909
H315	H	1.503330	0.290587	0.125425
