data_functionalizedCrystal
_audit_creation_method	'MofGen! by Chris Wilmer'
_symmetry_space_group_name_H-M	'P1'
_symmetry_Int_Tables_number	1
_symmetry_cell_setting	triclinic
loop_
_symmetry_equiv_pos_as_xyz
  x,y,z
_cell_length_a	11.792241
_cell_length_b	14.971486
_cell_length_c	14.048226
_cell_angle_alpha	90.001501
_cell_angle_beta	89.993434
_cell_angle_gamma	96.096228
loop_
_atom_site_label
_atom_site_type_symbol
_atom_site_fract_x
_atom_site_fract_y
_atom_site_fract_z
O1	O	0.147909	-1.187540	-0.079051
O2	O	0.165622	-0.927210	-0.079077
O3	O	-0.008446	-1.063692	-0.079057
O4	O	0.321977	-1.051058	-0.079072
O5	O	-0.008456	-1.063676	0.079264
O6	O	0.165611	-0.927194	0.079244
O7	O	0.147899	-1.187523	0.079270
Zn8	Zn	0.156753	-1.057356	0.104394
Zn9	Zn	0.156767	-1.057378	-0.104201
O10	O	0.321966	-1.051041	0.079250
C11	C	-0.050737	-1.062891	0.000103
C12	C	-0.176735	-1.060515	0.000102
C13	C	0.164824	-0.893874	0.000080
C14	C	0.162451	-0.794568	0.000070
C15	C	0.148696	-1.220859	0.000110
C16	C	0.151070	-1.320166	0.000114
C17	C	-0.407419	-1.056147	0.000086
C18	C	-0.279050	-1.058574	0.000095
C19	C	0.364257	-1.051843	0.000087
C20	C	0.490256	-1.054218	0.000082
C21	C	0.264710	-0.737752	0.000067
C22	C	0.262473	-0.644444	0.000081
C23	C	0.157975	-0.607953	0.000092
C24	C	0.055707	-0.664776	0.000098
C25	C	0.057946	-0.758082	0.000091
C26	C	0.051049	-0.470294	0.000111
C27	C	0.048810	-0.376981	0.000117
C28	C	0.255577	-0.356656	0.000102
C29	C	0.257815	-0.449963	0.000095
C30	C	0.155547	-0.506779	0.000099
N31	N	0.156744	-1.057347	0.246754
N32	N	0.156768	-1.057393	-0.246562
C33	C	0.079698	-1.117801	0.296582
C34	C	0.079698	-1.117807	0.396239
C35	C	0.156749	-1.057363	0.446068
C36	C	0.233797	-0.996903	0.396234
C37	C	0.233792	-0.996894	0.296578
C38	C	0.233806	-0.996929	0.603948
C39	C	0.233813	-0.996940	0.703611
C40	C	0.079712	-1.117843	0.703609
C41	C	0.079706	-1.117833	0.603953
C42	C	0.156757	-1.057374	0.554126
H43	H	0.349805	-0.767455	0.000058
H44	H	0.016974	-1.167070	0.744184
H45	H	0.016959	-1.167025	0.256017
H46	H	0.296528	-0.947665	0.256010
H47	H	0.345744	-0.598187	0.000078
C48	C	-0.054543	-0.820583	0.000091
C49	C	-0.081434	-0.887524	-0.082122
C50	C	-0.193926	-0.950023	-0.082117
C51	C	-0.279527	-0.945581	0.000101
C52	C	-0.252637	-0.878637	0.082319
C53	C	-0.140145	-0.816138	0.082314
H54	H	-0.018066	-0.890815	-0.142990
H55	H	-0.213831	-0.999579	-0.142981
H56	H	-0.362800	-0.991847	0.000105
H57	H	-0.316006	-0.875346	0.143187
H58	H	-0.120241	-0.766582	0.143178
H59	H	-0.029377	-0.635057	0.000120
H60	H	0.016961	-1.167032	0.436808
H61	H	0.342907	-0.479670	0.000077
H62	H	0.016971	-1.167055	0.563383
C63	C	0.318564	-0.930444	0.758420
C64	C	0.403302	-0.863936	0.703609
C65	C	0.488054	-0.797438	0.758416
C66	C	0.488068	-0.797448	0.868033
C67	C	0.403326	-0.863959	0.922850
C68	C	0.318575	-0.930457	0.868044
H69	H	0.403294	-0.863926	0.622458
H70	H	0.550785	-0.748203	0.717836
H71	H	0.550806	-0.748223	0.908605
H72	H	0.403334	-0.863968	1.004001
H73	H	0.255844	-0.979692	0.908623
H74	H	0.296530	-0.947684	0.436810
C75	C	0.368077	-0.294165	0.000103
C76	C	0.394976	-0.227215	-0.082103
C77	C	0.507472	-0.164722	-0.082108
C78	C	0.593071	-0.169178	0.000092
C79	C	0.566174	-0.236130	0.082304
C80	C	0.453678	-0.298623	0.082309
H81	H	0.331609	-0.223915	-0.142958
H82	H	0.527382	-0.115159	-0.142967
H83	H	0.676347	-0.122916	0.000088
H84	H	0.629541	-0.239431	0.143159
H85	H	0.433768	-0.348186	0.143168
C86	C	-0.061445	-0.532796	0.000114
C87	C	-0.147052	-0.528360	0.082328
C88	C	-0.259541	-0.590863	0.082325
C89	C	-0.286423	-0.657801	0.000109
C90	C	-0.200814	-0.662240	-0.082111
C91	C	-0.088325	-0.599737	-0.082108
H92	H	-0.127154	-0.478806	0.143195
H93	H	-0.322914	-0.587576	0.143190
H94	H	-0.369695	-0.704069	0.000107
H95	H	-0.220712	-0.711794	-0.142977
H96	H	-0.024952	-0.603024	-0.142973
H97	H	-0.036282	-0.347274	0.000127
H98	H	0.296545	-0.947694	0.563382
