data_functionalizedCrystal
_audit_creation_method	'MofGen! by Chris Wilmer'
_symmetry_space_group_name_H-M	'P1'
_symmetry_Int_Tables_number	1
_symmetry_cell_setting	triclinic
loop_
_symmetry_equiv_pos_as_xyz
  x,y,z
_cell_length_a	19.188923
_cell_length_b	17.666332
_cell_length_c	10.654541
_cell_angle_alpha	90.006198
_cell_angle_beta	96.187246
_cell_angle_gamma	89.988569
loop_
_atom_site_label
_atom_site_type_symbol
_atom_site_fract_x
_atom_site_fract_y
_atom_site_fract_z
O1	O	-0.927177	0.062984	0.156735
O2	O	-0.427177	0.562984	0.656735
O3	O	-0.724003	0.062978	0.177851
O4	O	-0.224003	0.562978	0.677851
O5	O	-0.830263	0.062976	-0.015545
O6	O	-0.330263	0.562976	0.484455
O7	O	-0.820918	0.062985	0.350132
O8	O	-0.320918	0.562985	0.850132
O9	O	-0.830244	-0.062920	-0.015556
O10	O	-0.330244	0.437080	0.484444
O11	O	-0.723984	-0.062919	0.177841
O12	O	-0.223984	0.437081	0.677841
O13	O	-0.927158	-0.062913	0.156725
O14	O	-0.427158	0.437087	0.656725
Cu15	Cu	-0.825570	-0.074411	0.167282
Cu16	Cu	-0.325570	0.425589	0.667282
Cu17	Cu	-0.825592	0.074476	0.167294
Cu18	Cu	-0.325592	0.574476	0.667294
O19	O	-0.820899	-0.062911	0.350122
O20	O	-0.320899	0.437089	0.850122
C21	C	-0.697978	0.000028	0.177164
C22	C	-0.197978	0.500028	0.677164
C23	C	-0.620460	0.000026	0.175116
C24	C	-0.120460	0.500026	0.675116
C25	C	-0.059341	0.000018	0.274882
C26	C	0.440659	0.500018	0.774882
C27	C	-0.132177	0.000024	0.276817
C28	C	0.367823	0.500024	0.776817
C29	C	-0.176370	0.000021	0.163339
C30	C	0.323630	0.500021	0.663339
C31	C	-0.147722	0.000031	0.047917
C32	C	0.352278	0.500031	0.547917
C33	C	-0.074887	0.000033	0.045985
C34	C	0.425113	0.500033	0.545985
N35	N	-0.296504	-0.042835	0.081180
N36	N	0.203496	0.457165	0.581180
N37	N	-0.365693	-0.042838	0.083023
N38	N	0.134307	0.457162	0.583023
C39	C	-0.395817	0.000017	0.169152
C40	C	0.104183	0.500017	0.669152
N41	N	-0.354137	0.042866	0.253388
N42	N	0.145863	0.542866	0.753388
N43	N	-0.284941	0.042866	0.251549
N44	N	0.215059	0.542866	0.751549
C45	C	-0.255348	0.000019	0.165421
C46	C	0.244652	0.500019	0.665421
C47	C	-0.503435	0.000018	0.286665
C48	C	-0.003435	0.500018	0.786665
C49	C	-0.576272	0.000028	0.288596
C50	C	-0.076272	0.500028	0.788596
C51	C	-0.591815	0.000028	0.059692
C52	C	-0.091815	0.500028	0.559692
C53	C	-0.518979	0.000025	0.057765
C54	C	-0.018979	0.500025	0.557765
C55	C	-0.474793	0.000016	0.171255
C56	C	0.025207	0.500016	0.671255
N57	N	-0.825559	-0.179131	0.167273
N58	N	-0.325559	0.320869	0.667273
C59	C	-0.872626	-0.218741	0.081679
C60	C	-0.372626	0.281259	0.581679
C61	C	-0.872630	-0.297989	0.081672
C62	C	-0.372630	0.202011	0.581672
C63	C	-0.825574	-0.337623	0.167282
C64	C	-0.325574	0.162377	0.667282
C65	C	-0.778498	-0.298003	0.252883
C66	C	-0.278498	0.201997	0.752883
C67	C	-0.778490	-0.218757	0.252878
C68	C	-0.278490	0.281243	0.752878
N69	N	-0.817224	-0.462039	0.278450
N70	N	-0.317224	0.037961	0.778450
N71	N	-0.817235	-0.537319	0.278450
N72	N	-0.317235	-0.037319	0.778450
C73	C	-0.825592	-0.576387	0.167300
C74	C	-0.325592	-0.076387	0.667300
N75	N	-0.833952	-0.537330	0.056145
N76	N	-0.333952	-0.037330	0.556145
N77	N	-0.833944	-0.462042	0.056146
N78	N	-0.333944	0.037958	0.556146
C79	C	-0.825576	-0.423552	0.167296
C80	C	-0.325576	0.076448	0.667296
C81	C	-0.872667	-0.701926	0.081692
C82	C	-0.372667	-0.201926	0.581692
C83	C	-0.872666	-0.781175	0.081684
C84	C	-0.372666	-0.281175	0.581684
C85	C	-0.778537	-0.781188	0.252906
C86	C	-0.278537	-0.281188	0.752906
C87	C	-0.778534	-0.701941	0.252902
C88	C	-0.278534	-0.201941	0.752902
C89	C	-0.825603	-0.662315	0.167297
C90	C	-0.325603	-0.162315	0.667297
C91	C	0.046817	0.000033	0.157416
C92	C	0.546817	0.500033	0.657416
C93	C	-0.030701	0.000024	0.159475
C94	C	0.469299	0.500024	0.659475
C95	C	-0.829567	0.000029	-0.062334
C96	C	-0.329567	0.500029	0.437666
C97	C	-0.827516	0.000030	-0.201734
C98	C	-0.327516	0.500030	0.298266
N99	N	-0.825608	0.179196	0.167293
N100	N	-0.325608	0.679196	0.667293
C101	C	-0.954577	0.000024	-0.232400
C102	C	-0.454577	0.500024	0.267600
C103	C	-1.017142	0.000020	-0.313221
C104	C	-0.517142	0.500020	0.186779
C105	C	-1.015209	0.000022	-0.444198
C106	C	-0.515209	0.500022	0.055802
C107	C	-0.950706	0.000031	-0.494355
C108	C	-0.450706	0.500031	0.005645
C109	C	-0.888142	0.000035	-0.413534
C110	C	-0.388142	0.500035	0.086466
C111	C	-0.890081	0.000031	-0.282556
C112	C	-0.390081	0.500031	0.217444
C113	C	-0.761082	0.000046	-0.382869
C114	C	-0.261082	0.500046	0.117131
C115	C	-0.763013	0.000039	-0.251891
C116	C	-0.263013	0.500039	0.248109
C117	C	-0.696579	0.000055	-0.433026
C118	C	-0.196579	0.500055	0.066974
C119	C	-0.634013	0.000054	-0.352204
C120	C	-0.134013	0.500054	0.147796
C121	C	-0.635948	0.000051	-0.221220
C122	C	-0.135948	0.500051	0.278780
C123	C	-0.700448	0.000043	-0.171070
C124	C	-0.200448	0.500043	0.328930
C125	C	-0.821594	0.000038	0.396910
C126	C	-0.321594	0.500038	0.896910
C127	C	-0.823646	0.000042	0.536310
C128	C	-0.323646	0.500042	1.036310
H129	H	-0.627797	0.000031	-0.032705
H130	H	-0.127797	0.500031	0.467295
Br131	Br	-1.104677	0.000015	-0.245146
Br132	Br	-0.604677	0.500015	0.254854
H133	H	-0.740162	-0.186505	0.322581
H134	H	-0.240162	0.313495	0.822581
H135	H	-0.956157	0.000012	-0.125753
H136	H	-0.456157	0.500012	0.374247
H137	H	-0.023369	0.000015	0.367295
H138	H	0.476631	0.500015	0.867295
H139	H	-0.155501	0.000012	0.370799
H140	H	0.344499	0.500012	0.870799
Br141	Br	-0.936512	-0.351755	-0.034503
Br142	Br	-0.436512	0.148245	0.465497
Br143	Br	-0.207696	0.000033	-0.106091
Br144	Br	0.292304	0.500033	0.393909
Br145	Br	-0.714666	-0.834971	0.369078
Br146	Br	-0.214666	-0.334971	0.869078
Br147	Br	-0.936542	-0.648146	-0.034490
Br148	Br	-0.436542	-0.148146	0.465510
Br149	Br	-0.443464	0.000006	0.440683
Br150	Br	0.056536	0.500006	0.940683
Br151	Br	-0.615143	0.000031	0.445234
Br152	Br	-0.115143	0.500031	0.945234
Br153	Br	-0.693955	0.000114	-0.610781
Br154	Br	-0.193955	0.500114	-0.110781
H155	H	-0.910951	-0.186480	0.011971
H156	H	-0.410951	0.313520	0.511971
H157	H	-0.495660	0.000025	-0.036212
H158	H	0.004340	0.500025	0.463788
Br159	Br	-0.714630	-0.351789	0.369061
Br160	Br	-0.214630	0.148211	0.869061
Br161	Br	-0.936541	-0.834937	-0.034499
Br162	Br	-0.436541	-0.334937	0.465501
H163	H	-0.051569	0.000038	-0.047996
H164	H	0.448431	0.500038	0.452004
Br165	Br	-0.714657	-0.648178	0.369075
Br166	Br	-0.214657	-0.148178	0.869075
Br167	Br	-1.100118	0.000026	-0.553890
Br168	Br	-0.600118	0.500026	-0.053890
H169	H	-0.702030	0.000036	-0.064423
H170	H	-0.202030	0.500036	0.435577
H171	H	-0.949139	0.000042	-0.601005
H172	H	-0.449139	0.500042	-0.101005
H173	H	-0.581500	0.000066	-0.393053
H174	H	-0.081500	0.500066	0.106947
Br175	Br	-0.551034	0.000066	-0.111543
Br176	Br	-0.051034	0.500066	0.388457
