data_functionalizedCrystal
_audit_creation_method	'MofGen! by Chris Wilmer'
_symmetry_space_group_name_H-M	'P1'
_symmetry_Int_Tables_number	1
_symmetry_cell_setting	triclinic
loop_
_symmetry_equiv_pos_as_xyz
  x,y,z
_cell_length_a	12.759401
_cell_length_b	13.032721
_cell_length_c	12.759393
_cell_angle_alpha	97.147972
_cell_angle_beta	89.980163
_cell_angle_gamma	97.205831
loop_
_atom_site_label
_atom_site_type_symbol
_atom_site_fract_x
_atom_site_fract_y
_atom_site_fract_z
Zn1	Zn	1.553102	-0.415933	-0.647097
Zn2	Zn	2.053102	0.084067	-0.147097
Zn3	Zn	1.530661	-0.590715	-0.493720
Zn4	Zn	2.030661	-0.090715	0.006280
Zn5	Zn	1.377397	-0.415992	-0.471439
Zn6	Zn	1.877397	0.084008	0.028561
Zn7	Zn	1.355067	-0.590639	-0.669348
Zn8	Zn	1.855067	-0.090639	-0.169348
O9	O	1.454056	-0.503320	-0.570401
O10	O	1.954056	-0.003320	-0.070401
O11	O	1.697145	-0.439125	-0.626763
O12	O	2.197145	0.060875	-0.126763
O13	O	1.510283	-0.567594	-0.343751
O14	O	2.010283	-0.067594	0.156249
O15	O	1.419441	-0.269746	-0.476104
O16	O	1.919441	0.230254	0.023896
O17	O	1.680658	-0.567537	-0.514079
O18	O	2.180658	-0.067537	-0.014079
O19	O	1.548531	-0.269703	-0.605158
O20	O	2.048531	0.230297	-0.105158
O21	O	1.397681	-0.439226	-0.327381
O22	O	1.897681	0.060774	0.172619
O23	O	1.227414	-0.439152	-0.497680
O24	O	1.727414	0.060848	0.002320
O25	O	1.381383	-0.567407	-0.813410
O26	O	1.881383	-0.067407	-0.313410
O27	O	1.211009	-0.567464	-0.643082
O28	O	1.711009	-0.067464	-0.143082
O29	O	1.526879	-0.439051	-0.797062
O30	O	2.026879	0.060949	-0.297062
O31	O	1.488631	-0.736943	-0.535655
O32	O	1.988631	-0.236943	-0.035655
O33	O	1.359622	-0.736886	-0.664688
O34	O	1.859622	-0.236886	-0.164688
C35	C	1.181091	-0.503307	-0.570379
C36	C	1.681091	-0.003307	-0.070379
C37	C	1.064312	-0.503326	-0.570397
C38	C	1.564312	-0.003326	-0.070397
C39	C	1.000922	-0.570240	-0.646015
C40	C	1.500922	-0.070240	-0.146015
C41	C	0.891197	-0.570244	-0.646037
C42	C	1.391197	-0.070244	-0.146037
C43	C	0.908262	-0.436418	-0.494812
C44	C	1.408262	0.063582	0.005188
C45	C	1.017985	-0.436409	-0.494796
C46	C	1.517985	0.063591	0.005204
C47	C	1.419297	-0.774832	-0.605026
C48	C	1.919297	-0.274832	-0.105026
C49	C	1.404523	-0.890987	-0.619874
C50	C	1.904523	-0.390987	-0.119874
C51	C	1.461823	-0.942765	-0.562699
C52	C	1.961823	-0.442765	-0.062699
C53	C	1.446555	-1.062817	-0.578044
C54	C	1.946555	-0.562817	-0.078044
C55	C	1.728088	-0.503333	-0.570424
C56	C	2.228088	-0.003333	-0.070424
C57	C	1.844864	-0.503339	-0.570434
C58	C	2.344864	-0.003339	-0.070434
C59	C	1.454143	-0.503214	-0.844421
C60	C	1.954143	-0.003214	-0.344421
C61	C	1.454180	-0.503169	-0.961192
C62	C	1.954180	-0.003169	-0.461192
C63	C	1.488980	-0.230747	-0.535664
C64	C	1.988980	0.269253	-0.035664
C65	C	1.503863	-0.114592	-0.520860
C66	C	2.003863	0.385408	-0.020860
C67	C	1.395574	-0.436315	-1.007528
C68	C	1.895574	0.063685	-0.507528
C69	C	1.395602	-0.436283	-1.117248
C70	C	1.895602	0.063717	-0.617248
C71	C	1.512853	-0.569961	-1.134287
C72	C	2.012853	-0.069961	-0.634287
C73	C	1.512817	-0.569998	-1.024569
C74	C	2.012817	-0.069998	-0.524569
C75	C	1.454040	-0.503349	-0.297438
C76	C	1.954040	-0.003349	0.202562
C77	C	1.454244	-0.503100	-0.180630
C78	C	1.954244	-0.003100	0.319370
H79	H	1.069601	-0.381913	-0.433218
H80	H	1.569601	0.118087	0.066782
H81	H	1.560544	-0.624442	-0.986843
H82	H	2.060544	-0.124442	-0.486843
H83	H	1.347878	-0.381845	-1.154970
H84	H	1.847878	0.118155	-0.654970
C85	C	1.365002	-1.122990	-0.659525
C86	C	1.865002	-0.622990	-0.159525
N87	N	1.303576	-1.168315	-0.720894
N88	N	1.803576	-0.668315	-0.220894
C89	C	1.577090	-0.643697	-1.204040
C90	C	2.077090	-0.143697	-0.704040
N91	N	1.625382	-0.699319	-1.256588
N92	N	2.125382	-0.199319	-0.756588
H93	H	1.564232	-1.070049	-0.460550
H94	H	2.064232	-0.570049	0.039450
C95	C	1.322974	-0.951164	-0.701352
C96	C	1.822974	-0.451164	-0.201352
N97	N	1.261548	-0.996489	-0.762720
N98	N	1.761548	-0.496489	-0.262720
C99	C	1.051877	-0.643844	-0.729185
C100	C	1.551877	-0.143844	-0.229185
N101	N	1.090254	-0.699281	-0.791834
N102	N	1.590254	-0.199281	-0.291834
H103	H	0.839589	-0.624731	-0.707614
H104	H	1.339589	-0.124731	-0.207614
C105	C	0.857292	-0.362818	-0.411651
C106	C	1.357292	0.137182	0.088349
N107	N	0.818903	-0.307384	-0.349009
N108	N	1.318903	0.192616	0.150991
H109	H	1.347828	-0.381899	-0.955929
H110	H	1.847828	0.118101	-0.455929
C111	C	1.543369	-0.882587	-0.481220
C112	C	2.043369	-0.382587	0.018780
N113	N	1.604790	-0.837263	-0.419846
N114	N	2.104790	-0.337263	0.080154
