data_functionalizedCrystal
_audit_creation_method	'MofGen! by Chris Wilmer'
_symmetry_space_group_name_H-M	'P1'
_symmetry_Int_Tables_number	1
_symmetry_cell_setting	triclinic
loop_
_symmetry_equiv_pos_as_xyz
  x,y,z
_cell_length_a	12.759401
_cell_length_b	25.639239
_cell_length_c	12.759393
_cell_angle_alpha	90.035978
_cell_angle_beta	90.020938
_cell_angle_gamma	90.040211
loop_
_atom_site_label
_atom_site_type_symbol
_atom_site_fract_x
_atom_site_fract_y
_atom_site_fract_z
Zn1	Zn	1.606091	-0.208104	0.593980
Zn2	Zn	1.939425	0.125229	0.927313
Zn3	Zn	2.272758	0.458562	1.260647
Zn4	Zn	1.605909	-0.295549	0.418283
Zn5	Zn	1.939242	0.037784	0.751617
Zn6	Zn	2.272575	0.371117	1.084950
Zn7	Zn	1.430390	-0.208132	0.418315
Zn8	Zn	1.763723	0.125201	0.751649
Zn9	Zn	2.097057	0.458535	1.084982
Zn10	Zn	1.430308	-0.295513	0.593921
Zn11	Zn	1.763642	0.037821	0.927254
Zn12	Zn	2.096975	0.371154	1.260587
O13	O	1.518175	-0.251825	0.506125
O14	O	1.851508	0.081509	0.839458
O15	O	2.184841	0.414842	1.172791
O16	O	1.753088	-0.219708	0.570685
O17	O	2.086421	0.113626	0.904018
O18	O	2.419755	0.446959	1.237352
O19	O	1.582584	-0.283980	0.271266
O20	O	1.915917	0.049353	0.604600
O21	O	2.249250	0.382687	0.937933
O22	O	1.453808	-0.134963	0.441656
O23	O	1.787141	0.198370	0.774989
O24	O	2.120474	0.531704	1.108322
O25	O	1.752954	-0.283953	0.441601
O26	O	2.086287	0.049380	0.774935
O27	O	2.419621	0.382713	1.108268
O28	O	1.582895	-0.134943	0.570716
O29	O	1.916228	0.198391	0.904049
O30	O	2.249561	0.531724	1.237383
O31	O	1.453631	-0.219755	0.271290
O32	O	1.786964	0.113578	0.604623
O33	O	2.120297	0.446912	0.937957
O34	O	1.283358	-0.219720	0.441598
O35	O	1.616691	0.113614	0.774931
O36	O	1.950025	0.446947	1.108265
O37	O	1.453669	-0.283891	0.740950
O38	O	1.787002	0.049442	1.074283
O39	O	2.120335	0.382776	1.407616
O40	O	1.283298	-0.283918	0.570615
O41	O	1.616632	0.049415	0.903948
O42	O	1.949965	0.382749	1.237281
O43	O	1.582816	-0.219672	0.740993
O44	O	1.916149	0.113661	1.074327
O45	O	2.249482	0.446994	1.407660
O46	O	1.582505	-0.368710	0.441544
O47	O	1.915838	-0.035376	0.774877
O48	O	2.249171	0.297957	1.108210
O49	O	1.453492	-0.368683	0.570584
O50	O	1.786825	-0.035350	0.903917
O51	O	2.120158	0.297984	1.237250
C52	C	1.245207	-0.251818	0.506104
C53	C	1.578541	0.081515	0.839437
C54	C	1.911874	0.414848	1.172771
C55	C	1.128431	-0.251828	0.506120
C56	C	1.461764	0.081505	0.839453
C57	C	1.795097	0.414839	1.172787
C58	C	1.517998	-0.387667	0.506077
C59	C	1.851331	-0.054334	0.839410
C60	C	2.184665	0.278999	1.172743
C61	C	1.518018	-0.445781	0.506091
C62	C	1.851352	-0.112448	0.839425
C63	C	2.184685	0.220885	1.172758
C64	C	1.073565	-0.285307	0.573193
C65	C	1.406898	0.048026	0.906526
C66	C	1.740232	0.381360	1.239860
C67	C	0.963841	-0.285309	0.573214
C68	C	1.297174	0.048024	0.906547
C69	C	1.630508	0.381358	1.239881
C70	C	0.963858	-0.218352	0.439079
C71	C	1.297191	0.114982	0.772413
C72	C	1.630525	0.448315	1.105746
C73	C	1.073580	-0.218347	0.439065
C74	C	1.406913	0.114986	0.772398
C75	C	1.740247	0.448319	1.105731
C76	C	1.585527	-0.806146	0.439048
C77	C	1.918860	-0.472812	0.772382
C78	C	2.252194	-0.139479	1.105715
C79	C	1.585568	-0.860750	0.439062
C80	C	1.918901	-0.527417	0.772396
C81	C	2.252234	-0.194083	1.105729
O82	O	1.642783	-0.888988	0.382007
O83	O	1.976116	-0.555655	0.715340
O84	O	2.309449	-0.222321	1.048674
N85	N	1.518359	-0.888064	0.506194
N86	N	1.851693	-0.554730	0.839528
N87	N	2.185026	-0.221397	1.172861
C88	C	1.451113	-0.860770	0.573324
C89	C	1.784447	-0.527437	0.906658
C90	C	2.117780	-0.194104	1.239991
O91	O	1.393952	-0.889017	0.630428
O92	O	1.727285	-0.555683	0.963761
O93	O	2.060618	-0.222350	1.297094
C94	C	1.451079	-0.806167	0.573315
C95	C	1.784412	-0.472834	0.906648
C96	C	2.117745	-0.139500	1.239982
C97	C	1.518284	-0.778856	0.506171
C98	C	1.851617	-0.445523	0.839504
C99	C	2.184951	-0.112189	1.172837
C100	C	1.652728	-0.778835	0.371910
C101	C	1.986061	-0.445501	0.705244
C102	C	2.319394	-0.112168	1.038577
C103	C	1.652685	-0.724234	0.371895
C104	C	1.986019	-0.390901	0.705229
C105	C	2.319352	-0.057568	1.038562
C106	C	1.585442	-0.696945	0.439018
C107	C	1.918776	-0.363611	0.772351
C108	C	2.252109	-0.030278	1.105685
C109	C	1.518242	-0.724255	0.506156
C110	C	1.851575	-0.390922	0.839489
C111	C	2.184908	-0.057589	1.172822
C112	C	1.383839	-0.778874	0.640449
C113	C	1.717172	-0.445541	0.973783
C114	C	2.050505	-0.112208	1.307116
C115	C	1.383810	-0.724267	0.640435
C116	C	1.717144	-0.390934	0.973768
C117	C	2.050477	-0.057601	1.307101
C118	C	1.451016	-0.696957	0.573291
C119	C	1.784349	-0.363623	0.906624
C120	C	2.117682	-0.030290	1.239957
C121	C	1.450956	-0.642365	0.573263
C122	C	1.784290	-0.309032	0.906596
C123	C	2.117623	0.024301	1.239930
N124	N	1.518165	-0.615052	0.506131
N125	N	1.851498	-0.281718	0.839464
N126	N	2.184831	0.051615	1.172798
C127	C	1.585408	-0.642341	0.439008
C128	C	1.918741	-0.309008	0.772342
C129	C	2.252074	0.024325	1.105675
C130	C	1.451192	-0.975441	0.573341
C131	C	1.784526	-0.642107	0.906674
C132	C	2.117859	-0.308774	1.240007
C133	C	1.451221	-1.030043	0.573346
C134	C	1.784554	-0.696710	0.906679
C135	C	2.117888	-0.363376	1.240012
C136	C	1.585677	-1.030019	0.439085
C137	C	1.919010	-0.696686	0.772418
C138	C	2.252344	-0.363352	1.105751
C139	C	1.585642	-0.975416	0.439075
C140	C	1.918976	-0.642082	0.772408
C141	C	2.252309	-0.308749	1.105742
C142	C	1.518401	-0.948127	0.506208
C143	C	1.851734	-0.614794	0.839542
C144	C	2.185068	-0.281460	1.172875
C145	C	1.585313	-0.527676	0.438981
C146	C	1.918646	-0.194343	0.772314
C147	C	2.251980	0.138990	1.105648
C148	C	1.585261	-0.473071	0.438969
C149	C	1.918595	-0.139738	0.772302
C150	C	2.251928	0.193596	1.105635
C151	C	1.450810	-0.473100	0.573233
C152	C	1.784143	-0.139766	0.906566
C153	C	2.117476	0.193567	1.239900
C154	C	1.450857	-0.527700	0.573242
C155	C	1.784190	-0.194367	0.906575
C156	C	2.117524	0.138966	1.239909
C157	C	1.518117	-0.554987	0.506112
C158	C	1.851450	-0.221654	0.839446
C159	C	2.184784	0.111679	1.172779
O160	O	1.393774	-0.614093	0.630292
O161	O	1.727107	-0.280759	0.963626
O162	O	2.060440	0.052574	1.296959
O163	O	1.642569	-0.614088	0.381925
O164	O	1.975903	-0.280755	0.715258
O165	O	2.309236	0.052578	1.048591
C166	C	1.792208	-0.251831	0.506146
C167	C	2.125541	0.081502	0.839480
C168	C	2.458875	0.414835	1.172813
C169	C	1.908984	-0.251834	0.506156
C170	C	2.242318	0.081499	0.839489
C171	C	2.575651	0.414832	1.172822
C172	C	1.518253	-0.251774	0.780158
C173	C	1.851587	0.081559	1.113492
C174	C	2.184920	0.414892	1.446825
C175	C	1.518287	-0.251753	0.896935
C176	C	1.851620	0.081580	1.230268
C177	C	2.184953	0.414914	1.563602
C178	C	1.518381	-0.115452	0.506196
C179	C	1.851714	0.217882	0.839529
C180	C	2.185047	0.551215	1.172863
C181	C	1.518468	-0.057337	0.506226
C182	C	1.851802	0.275996	0.839560
C183	C	2.185135	0.609329	1.172893
C184	C	1.518157	-0.251837	0.233157
C185	C	1.851490	0.081496	0.566491
C186	C	2.184823	0.414830	0.899824
C187	C	1.518327	-0.251711	0.116381
C188	C	1.851660	0.081622	0.449715
C189	C	2.184994	0.414956	0.783048
C190	C	1.585539	-0.218309	0.951821
C191	C	1.918872	0.115024	1.285155
C192	C	2.252205	0.448358	1.618488
C193	C	1.585556	-0.218286	1.061546
C194	C	1.918890	0.115047	1.394879
C195	C	2.252223	0.448380	1.728212
C196	C	1.451068	-0.285156	1.061487
C197	C	1.784401	0.048177	1.394821
C198	C	2.117734	0.381510	1.728154
C199	C	1.451045	-0.285176	0.951765
C200	C	1.784379	0.048157	1.285098
C201	C	2.117712	0.381491	1.618432
H202	H	1.118221	-0.312568	0.627796
H203	H	1.451554	0.020766	0.961130
H204	H	1.784888	0.354099	1.294463
H205	H	1.707412	-0.702001	0.317224
H206	H	2.040746	-0.368667	0.650557
H207	H	2.374079	-0.035334	0.983891
H208	H	1.640367	-0.953182	0.384401
H209	H	1.973701	-0.619849	0.717735
H210	H	2.307034	-0.286516	1.051068
F211	F	0.905473	-0.182722	0.367717
F212	F	1.238806	0.150611	0.701051
F213	F	1.572139	0.483945	1.034384
F214	F	1.131976	-0.182710	0.367678
F215	F	1.465309	0.150623	0.701011
F216	F	1.798642	0.483957	1.034345
H217	H	1.640434	-1.052248	0.384433
H218	H	1.973767	-0.718915	0.717767
H219	H	2.307100	-0.385582	1.051100
F220	F	1.379512	-0.320727	1.119850
F221	F	1.712846	0.012606	1.453184
F222	F	2.046179	0.345939	1.786517
F223	F	1.312243	-0.695228	0.711892
F224	F	1.645576	-0.361895	1.045225
F225	F	1.978909	-0.028561	1.378558
H226	H	1.396273	-0.312410	0.907075
H227	H	1.729607	0.020924	1.240409
H228	H	2.062940	0.354257	1.573742
F229	F	1.656793	-0.444008	0.367501
F230	F	1.990126	-0.110674	0.700834
F231	F	2.323460	0.222659	1.034168
F232	F	1.379680	-1.059103	0.644798
F233	F	1.713014	-0.725770	0.978131
F234	F	2.046347	-0.392437	1.311464
H235	H	1.640085	-0.549887	0.384320
H236	H	1.973418	-0.216553	0.717653
H237	H	2.306751	0.116780	1.050987
H238	H	0.919174	-0.312570	0.627833
H239	H	1.252507	0.020763	0.961166
H240	H	1.585841	0.354097	1.294500
H241	H	1.707491	-0.801048	0.317251
H242	H	2.040824	-0.467715	0.650584
H243	H	2.374157	-0.134381	0.983917
H244	H	1.640318	-0.191052	1.106229
H245	H	1.973651	0.142281	1.439563
H246	H	2.306985	0.475615	1.772896
F247	F	1.379613	-0.946403	0.644791
F248	F	1.712946	-0.613069	0.978124
F249	F	2.046279	-0.279736	1.311458
H250	H	1.396136	-0.549938	0.627919
H251	H	1.729469	-0.216605	0.961253
H252	H	2.062803	0.116729	1.294586
F253	F	1.312317	-0.807929	0.711924
F254	F	1.645651	-0.474596	1.045257
F255	F	1.978984	-0.141262	1.378590
F256	F	1.657100	-0.182736	0.893471
F257	F	1.990433	0.150597	1.226804
F258	F	2.323767	0.483931	1.560137
F259	F	1.379251	-0.444046	0.644669
F260	F	1.712585	-0.110713	0.978002
F261	F	2.045918	0.222620	1.311336
