data_functionalizedCrystal
_audit_creation_method	'MofGen! by Chris Wilmer'
_symmetry_space_group_name_H-M	'P1'
_symmetry_Int_Tables_number	1
_symmetry_cell_setting	triclinic
loop_
_symmetry_equiv_pos_as_xyz
  x,y,z
_cell_length_a	10.654545
_cell_length_b	9.130313
_cell_length_c	10.654550
_cell_angle_alpha	90.004369
_cell_angle_beta	84.484005
_cell_angle_gamma	90.003066
loop_
_atom_site_label
_atom_site_type_symbol
_atom_site_fract_x
_atom_site_fract_y
_atom_site_fract_z
O1	O	1.667843	0.121784	0.176372
O2	O	2.167843	0.621784	0.676372
O3	O	1.302364	0.121790	0.193184
O4	O	1.802364	0.621790	0.693184
O5	O	1.493506	0.121778	0.002038
O6	O	1.993506	0.621778	0.502038
O7	O	1.476700	0.121797	0.367517
O8	O	1.976700	0.621797	0.867517
O9	O	1.493493	-0.121821	0.002033
O10	O	1.993493	0.378179	0.502033
O11	O	1.302350	-0.121808	0.193178
O12	O	1.802350	0.378192	0.693178
O13	O	1.667830	-0.121814	0.176366
O14	O	2.167830	0.378186	0.676366
Cu15	Cu	1.485089	-0.144054	0.184772
Cu16	Cu	1.985089	0.355946	0.684772
Cu17	Cu	1.485104	0.144030	0.184778
Cu18	Cu	1.985104	0.644030	0.684778
O19	O	1.476687	-0.121802	0.367511
O20	O	1.976687	0.378198	0.867511
C21	C	1.255559	-0.000008	0.191948
C22	C	1.755559	0.499992	0.691948
C23	C	1.116115	-0.000006	0.188258
C24	C	1.616115	0.499994	0.688258
N25	N	1.485087	-0.346677	0.184766
N26	N	1.985087	0.153323	0.684766
C27	C	1.050604	-0.132793	0.186518
C28	C	1.550604	0.367207	0.686518
C29	C	0.919584	-0.132793	0.183030
C30	C	1.419584	0.367207	0.683030
C31	C	0.919599	0.132792	0.183028
C32	C	1.419599	0.632792	0.683028
C33	C	1.050617	0.132791	0.186507
C34	C	1.550617	0.632791	0.686507
C35	C	1.569754	-0.423334	0.100163
C36	C	2.069754	0.076666	0.600163
C37	C	1.569766	-0.576671	0.100163
C38	C	2.069766	-0.076671	0.600163
C39	C	1.400440	-0.576679	0.269381
C40	C	1.900440	-0.076679	0.769381
C41	C	1.400423	-0.423345	0.269374
C42	C	1.900423	0.076655	0.769374
C43	C	1.714634	-0.000013	0.177602
C44	C	2.214634	0.499987	0.677602
C45	C	1.854078	-0.000005	0.181292
C46	C	2.354078	0.499995	0.681292
C47	C	1.492266	-0.000021	-0.044762
C48	C	1.992266	0.499979	0.455238
C49	C	1.488574	-0.000018	-0.184206
C50	C	1.988574	0.499982	0.315794
N51	N	1.485116	0.346653	0.184774
N52	N	1.985116	0.846653	0.684774
C53	C	1.601115	-0.000020	-0.263693
C54	C	2.101115	0.499980	0.236307
C55	C	1.597639	-0.000002	-0.394714
C56	C	2.097639	0.499998	0.105286
C57	C	1.369069	0.000013	-0.366747
C58	C	1.869069	0.500013	0.133253
C59	C	1.372547	0.000005	-0.235729
C60	C	1.872547	0.500005	0.264271
C61	C	1.477927	-0.000000	0.414312
C62	C	1.977927	0.500000	0.914312
C63	C	1.481619	0.000007	0.553755
C64	C	1.981619	0.500007	1.053755
H65	H	1.103928	-0.240924	0.187944
H66	H	1.603928	0.259076	0.687944
Cl67	Cl	0.837232	-0.299733	0.180845
Cl68	Cl	1.337232	0.200267	0.680845
Cl69	Cl	0.837254	0.299727	0.180796
Cl70	Cl	1.337254	0.799727	0.680796
Cl71	Cl	1.739127	-0.000000	-0.494636
Cl72	Cl	2.239127	0.500000	0.005364
Cl73	Cl	1.231054	0.000020	-0.135794
Cl74	Cl	1.731054	0.500020	0.364206
Cl75	Cl	1.746977	-0.000046	-0.198925
Cl76	Cl	2.246977	0.499954	0.301075
H77	H	1.274604	0.000029	-0.408713
H78	H	1.774604	0.500029	0.091287
Cl79	Cl	1.132983	0.299736	0.188684
Cl80	Cl	1.632983	0.799736	0.688684
H81	H	1.638690	-0.360914	0.031269
H82	H	2.138690	0.139086	0.531269
Cl83	Cl	1.676206	-0.673036	-0.006202
Cl84	Cl	2.176206	-0.173036	0.493798
Cl85	Cl	1.294015	-0.673070	0.375745
Cl86	Cl	1.794015	-0.173070	0.875745
H87	H	1.331471	-0.360927	0.338268
H88	H	1.831471	0.139073	0.838268
