data_functionalizedCrystal
_audit_creation_method	'MofGen! by Chris Wilmer'
_symmetry_space_group_name_H-M	'P1'
_symmetry_Int_Tables_number	1
_symmetry_cell_setting	triclinic
loop_
_symmetry_equiv_pos_as_xyz
  x,y,z
_cell_length_a	21.395364
_cell_length_b	19.805405
_cell_length_c	19.805407
_cell_angle_alpha	90.010665
_cell_angle_beta	90.004597
_cell_angle_gamma	90.041677
loop_
_atom_site_label
_atom_site_type_symbol
_atom_site_fract_x
_atom_site_fract_y
_atom_site_fract_z
Zn1	Zn	0.957753	-0.269315	0.382707
Zn2	Zn	1.457753	0.230685	0.882707
Zn3	Zn	0.957699	-0.382472	0.269521
Zn4	Zn	1.457699	0.117528	0.769521
Zn5	Zn	0.853005	-0.269332	0.269534
Zn6	Zn	1.353005	0.230668	0.769534
Zn7	Zn	0.852945	-0.382497	0.382669
Zn8	Zn	1.352945	0.117503	0.882669
O9	O	0.905350	-0.325904	0.326108
O10	O	1.405350	0.174096	0.826108
O11	O	1.045424	-0.284308	0.367703
O12	O	1.545424	0.215692	0.867703
O13	O	0.943814	-0.367461	0.174806
O14	O	1.443814	0.132539	0.674806
O15	O	0.866947	-0.174613	0.284567
O16	O	1.366947	0.325387	0.784567
O17	O	1.045384	-0.367444	0.284546
O18	O	1.545384	0.132556	0.784546
O19	O	0.943906	-0.174601	0.367716
O20	O	1.443906	0.325399	0.867716
O21	O	0.866895	-0.284337	0.174815
O22	O	1.366895	0.215663	0.674815
O23	O	0.765319	-0.284361	0.284531
O24	O	1.265319	0.215639	0.784531
O25	O	0.866845	-0.367487	0.477391
O26	O	1.366845	0.132513	0.977391
O27	O	0.765275	-0.367503	0.367651
O28	O	1.265275	0.132497	0.867651
O29	O	0.943847	-0.284333	0.477419
O30	O	1.443847	0.215667	0.977419
O31	O	0.943756	-0.477192	0.284509
O32	O	1.443756	0.022808	0.784509
O33	O	0.866793	-0.477211	0.367639
O34	O	1.366793	0.022789	0.867639
C35	C	0.742563	-0.325937	0.326089
C36	C	1.242563	0.174063	0.826089
C37	C	0.672922	-0.325968	0.326097
C38	C	1.172922	0.174032	0.826097
C39	C	0.640251	-0.282750	0.369464
C40	C	1.140251	0.217250	0.869464
C41	C	0.574816	-0.282732	0.369466
C42	C	1.074816	0.217268	0.869466
C43	C	0.542053	-0.325944	0.326109
C44	C	1.042053	0.174056	0.826109
C45	C	0.574731	-0.369165	0.282734
C46	C	1.074731	0.130835	0.782734
C47	C	0.640166	-0.369177	0.282727
C48	C	1.140166	0.130823	0.782727
C49	C	0.438335	-0.386897	0.320668
C50	C	0.938335	0.113103	0.820668
C51	C	0.372902	-0.386887	0.320679
C52	C	0.872902	0.113113	0.820679
C53	C	0.340232	-0.325906	0.326124
C54	C	0.840232	0.174094	0.826124
C55	C	0.373004	-0.264935	0.331572
C56	C	0.873004	0.235065	0.831572
C57	C	0.438439	-0.264947	0.331566
C58	C	0.938439	0.235053	0.831566
C59	C	0.471101	-0.325935	0.326110
C60	C	0.971101	0.174065	0.826110
C61	C	0.236610	-0.282665	0.369496
C62	C	0.736610	0.217335	0.869496
C63	C	0.171173	-0.282646	0.369494
C64	C	0.671173	0.217354	0.869494
C65	C	0.171090	-0.369085	0.282765
C66	C	0.671090	0.130915	0.782765
C67	C	0.236525	-0.369098	0.282763
C68	C	0.736525	0.130902	0.782763
C69	C	0.269281	-0.325889	0.326133
C70	C	0.769281	0.174111	0.826133
C71	C	0.905279	-0.501760	0.326083
C72	C	1.405279	-0.001760	0.826083
C73	C	0.905306	-0.576992	0.326095
C74	C	1.405306	-0.076992	0.826095
C75	C	0.945354	-0.612272	0.369425
C76	C	1.445354	-0.112272	0.869425
C77	C	0.945377	-0.682960	0.369437
C78	C	1.445377	-0.182960	0.869437
C79	C	0.905354	-0.718368	0.326117
C80	C	1.405354	-0.218368	0.826117
C81	C	0.865301	-0.683083	0.282786
C82	C	1.365301	-0.183083	0.782786
C83	C	0.865276	-0.612396	0.282777
C84	C	1.365276	-0.112396	0.782777
C85	C	0.865401	-0.968157	0.282820
C86	C	1.365401	-0.468157	0.782820
C87	C	0.865431	-1.038849	0.282831
C88	C	1.365431	-0.538849	0.782831
C89	C	0.945503	-1.038721	0.369480
C90	C	1.445503	-0.538721	0.869480
C91	C	0.945478	-0.968034	0.369472
C92	C	1.445478	-0.468034	0.869472
C93	C	0.905423	-0.932755	0.326144
C94	C	1.405423	-0.432755	0.826144
C95	C	0.905398	-0.856107	0.326131
C96	C	1.405398	-0.356107	0.826131
C97	C	0.905381	-0.795015	0.326125
C98	C	1.405381	-0.295015	0.826125
C99	C	1.068774	-0.325872	0.326127
C100	C	1.568774	0.174128	0.826127
C101	C	1.138415	-0.325858	0.326135
C102	C	1.638415	0.174142	0.826135
C103	C	0.905346	-0.325911	0.502650
C104	C	1.405346	0.174089	1.002650
C105	C	0.905343	-0.325914	0.577882
C106	C	1.405343	0.174086	1.077882
C107	C	0.905439	-0.149362	0.326147
C108	C	1.405439	0.350638	0.826147
C109	C	0.905477	-0.074130	0.326164
C110	C	1.405477	0.425870	0.826164
C111	C	0.945437	-0.282611	1.039689
C112	C	1.445437	0.217389	1.539689
C113	C	0.945439	-0.282614	0.969000
C114	C	1.445439	0.217386	1.469000
C115	C	0.905348	-0.325908	0.933644
C116	C	1.405348	0.174092	1.433644
C117	C	0.865257	-0.369207	0.968980
C118	C	1.365257	0.130793	1.468980
C119	C	0.865259	-0.369207	1.039667
C120	C	1.365259	0.130793	1.539667
C121	C	0.865251	-0.369210	0.683907
C122	C	1.365251	0.130790	1.183907
C123	C	0.865251	-0.369205	0.613214
C124	C	1.365251	0.130795	1.113214
C125	C	0.945430	-0.282616	0.613240
C126	C	1.445430	0.217384	1.113240
C127	C	0.945432	-0.282616	0.683927
C128	C	1.445432	0.217384	1.183927
C129	C	0.905344	-0.325917	0.719257
C130	C	1.405344	0.174083	1.219257
C131	C	0.905343	-0.325914	0.795905
C132	C	1.405343	0.174086	1.295905
C133	C	0.905345	-0.325908	0.856997
C134	C	1.405345	0.174092	1.356997
C135	C	0.905349	-0.325912	1.150252
C136	C	1.405349	0.174088	1.650252
C137	C	0.905348	-0.325905	1.075020
C138	C	1.405348	0.174095	1.575020
H139	H	0.465119	-0.215302	0.336000
H140	H	0.965119	0.284698	0.836000
F141	F	0.822579	-0.415288	0.575587
F142	F	1.322579	0.084712	1.075587
F143	F	0.988108	-0.236534	0.931402
F144	F	1.488108	0.263466	1.431402
H145	H	0.346224	-0.436533	0.316246
H146	H	0.846224	0.063467	0.816246
H147	H	0.346407	-0.215279	0.336006
H148	H	0.846407	0.284721	0.836006
F149	F	0.822592	-0.415288	1.077268
F150	F	1.322592	0.084712	1.577268
F151	F	0.988077	-0.930354	0.415577
F152	F	1.488077	-0.430354	0.915577
F153	F	0.822587	-0.415297	0.721498
F154	F	1.322587	0.084703	1.221498
H155	H	0.977993	-0.711682	0.404715
H156	H	1.477993	-0.211682	0.904715
H157	H	0.978076	-0.247359	0.712711
H158	H	1.478076	0.252641	1.212711
F159	F	0.136403	-0.236642	0.415651
F160	F	0.636403	0.263358	0.915651
H161	H	0.144415	-0.404269	0.247462
H162	H	0.644415	0.095731	0.747462
F163	F	0.473097	-0.451805	0.314865
F164	F	0.973097	0.048195	0.814865
F165	F	0.539862	-0.415152	0.236587
F166	F	1.039862	0.084848	0.736587
H167	H	0.978115	-1.067453	0.404763
H168	H	1.478115	-0.567453	0.904763
H169	H	0.832837	-1.067676	0.247553
H170	H	1.332837	-0.567676	0.747553
F171	F	0.271473	-0.236675	0.415649
F172	F	0.771473	0.263325	0.915649
F173	F	0.674937	-0.415176	0.236566
F174	F	1.174937	0.084824	0.736566
H175	H	0.977948	-0.583448	0.404698
H176	H	1.477948	-0.083448	0.904698
H177	H	0.832618	-0.404462	0.940187
H178	H	1.332618	0.095538	1.440187
F179	F	0.822767	-0.930620	0.236712
F180	F	1.322767	-0.430620	0.736712
H181	H	0.978079	-0.247351	1.068471
H182	H	1.478079	0.252649	1.568471
H183	H	0.832711	-0.711918	0.247516
H184	H	1.332711	-0.211918	0.747516
F185	F	0.271297	-0.415095	0.236603
F186	F	0.771297	0.084905	0.736603
F187	F	0.988096	-0.236529	0.575634
F188	F	1.488096	0.263471	1.075634
F189	F	0.675109	-0.236762	0.415620
F190	F	1.175109	0.263238	0.915620
F191	F	0.822650	-0.574849	0.236661
F192	F	1.322650	-0.074849	0.736661
H193	H	0.548211	-0.247535	0.404780
H194	H	1.048211	0.252465	0.904780
