data_functionalizedCrystal
_audit_creation_method	'MofGen! by Chris Wilmer'
_symmetry_space_group_name_H-M	'P1'
_symmetry_Int_Tables_number	1
_symmetry_cell_setting	triclinic
loop_
_symmetry_equiv_pos_as_xyz
  x,y,z
_cell_length_a	18.215405
_cell_length_b	18.101398
_cell_length_c	18.215399
_cell_angle_alpha	90.027596
_cell_angle_beta	89.972459
_cell_angle_gamma	89.985297
loop_
_atom_site_label
_atom_site_type_symbol
_atom_site_fract_x
_atom_site_fract_y
_atom_site_fract_z
Zn1	Zn	-0.293149	-1.132169	-0.416270
Zn2	Zn	0.206851	-0.632169	0.083730
Zn3	Zn	-0.416221	-1.132082	-0.293205
Zn4	Zn	0.083779	-0.632082	0.206795
Zn5	Zn	-0.293155	-1.008327	-0.293201
Zn6	Zn	0.206845	-0.508327	0.206799
Zn7	Zn	-0.416161	-1.008297	-0.416213
Zn8	Zn	0.083839	-0.508297	0.083787
O9	O	-0.354672	-1.070219	-0.354722
O10	O	0.145328	-0.570219	0.145278
O11	O	-0.309497	-1.235790	-0.399971
O12	O	0.190503	-0.735790	0.100029
O13	O	-0.399923	-1.115641	-0.190220
O14	O	0.100077	-0.615641	0.309780
O15	O	-0.190170	-1.024804	-0.309549
O16	O	0.309830	-0.524804	0.190451
O17	O	-0.399917	-1.235726	-0.309555
O18	O	0.100083	-0.735726	0.190445
O19	O	-0.190166	-1.115790	-0.399967
O20	O	0.309834	-0.615790	0.100033
O21	O	-0.309507	-1.024719	-0.190217
O22	O	0.190493	-0.524719	0.309783
O23	O	-0.309450	-0.904690	-0.309493
O24	O	0.190550	-0.404690	0.190507
O25	O	-0.399816	-1.024753	-0.519205
O26	O	0.100184	-0.524753	-0.019205
O27	O	-0.399822	-0.904668	-0.399870
O28	O	0.100178	-0.404668	0.100130
O29	O	-0.309440	-1.115761	-0.519247
O30	O	0.190560	-0.615761	-0.019247
O31	O	-0.519197	-1.115612	-0.309500
O32	O	-0.019197	-0.615612	0.190500
O33	O	-0.519154	-1.024668	-0.399874
O34	O	-0.019154	-0.524668	0.100126
C35	C	-0.354631	-0.877808	-0.354675
C36	C	0.145369	-0.377808	0.145325
C37	C	-0.354631	-0.795494	-0.354673
C38	C	0.145369	-0.295494	0.145327
C39	C	-0.354660	-0.496403	-0.354721
C40	C	0.145340	0.003597	0.145279
C41	C	-0.297518	-0.527717	-0.298138
C42	C	0.202482	-0.027717	0.201862
C43	C	-0.297676	-0.613335	-0.297900
C44	C	0.202324	-0.113335	0.202100
C45	C	-0.354645	-0.644785	-0.354697
C46	C	0.145355	-0.144785	0.145303
C47	C	-0.432166	-0.613679	-0.333505
C48	C	0.067834	-0.113679	0.166495
C49	C	-0.431844	-0.528033	-0.333108
C50	C	0.068156	-0.028033	0.166892
C51	C	-0.334956	-0.528016	-0.432631
C52	C	0.165044	-0.028016	0.067369
C53	C	-0.333235	-0.613666	-0.432210
C54	C	0.166765	-0.113666	0.067790
C55	C	-0.354641	-0.728645	-0.354685
C56	C	0.145359	-0.228645	0.145315
C57	C	-0.354669	-0.412543	-0.354732
C58	C	0.145331	0.087457	0.145268
C59	C	-0.545878	-1.070148	-0.354697
C60	C	-0.045878	-0.570148	0.145303
C61	C	-0.627677	-1.070185	-0.354711
C62	C	-0.127677	-0.570185	0.145289
C63	C	-0.815808	-1.117584	-0.401855
C64	C	-0.315808	-0.617584	0.098145
C65	C	-0.892666	-1.117611	-0.401869
C66	C	-0.392666	-0.617611	0.098131
C67	C	-0.892784	-1.022944	-0.307635
C68	C	-0.392784	-0.522944	0.192365
C69	C	-0.815927	-1.022914	-0.307625
C70	C	-0.315927	-0.522914	0.192375
C71	C	-0.777440	-1.070239	-0.354735
C72	C	-0.277440	-0.570239	0.145265
C73	C	-0.931156	-1.070295	-0.354758
C74	C	-0.431156	-0.570295	0.145242
C75	C	-1.014490	-1.070324	-0.354773
C76	C	-0.514490	-0.570324	0.145227
C77	C	-0.694101	-1.070209	-0.354721
C78	C	-0.194101	-0.570209	0.145279
C79	C	-0.162719	-1.070310	-0.354764
C80	C	0.337281	-0.570310	0.145236
C81	C	-0.080920	-1.070349	-0.354782
C82	C	0.419080	-0.570349	0.145218
C83	C	-0.354621	-1.070264	-0.546675
C84	C	0.145379	-0.570264	-0.046675
C85	C	-0.354599	-1.070283	-0.628474
C86	C	0.145401	-0.570283	-0.128474
C87	C	-0.354699	-0.263380	-0.354759
C88	C	0.145301	0.236620	0.145241
C89	C	-0.354674	-0.345695	-0.354746
C90	C	0.145326	0.154305	0.145254
C91	C	-0.307496	-1.117688	-0.816691
C92	C	0.192504	-0.617688	-0.316691
C93	C	-0.307475	-1.117697	-0.893550
C94	C	0.192525	-0.617697	-0.393550
C95	C	-0.401589	-1.022930	-0.893495
C96	C	0.098411	-0.522930	-0.393495
C97	C	-0.401606	-1.022918	-0.816638
C98	C	0.098394	-0.522918	-0.316638
C99	C	-0.354561	-1.070301	-0.778238
C100	C	0.145439	-0.570301	-0.278238
C101	C	-0.354522	-1.070322	-0.931954
C102	C	0.145478	-0.570322	-0.431954
C103	C	-0.354499	-1.070331	-1.015288
C104	C	0.145501	-0.570331	-0.515288
C105	C	-0.354582	-1.070291	-0.694899
C106	C	0.145418	-0.570291	-0.194899
C107	C	-0.354669	-1.070216	-0.163516
C108	C	0.145331	-0.570216	0.336484
C109	C	-0.354483	-1.070341	-0.081718
C110	C	0.145517	-0.570341	0.418282
H111	H	-0.276188	-0.634002	-0.448189
H112	H	0.223812	-0.134002	0.051811
Cl113	Cl	-0.249194	-0.494702	-0.462374
Cl114	Cl	0.250806	0.005298	0.037626
H115	H	-0.439893	-0.984354	-0.924770
H116	H	0.060107	-0.484354	-0.424770
H117	H	-0.376577	-0.507766	-0.474791
H118	H	0.123423	-0.007766	0.025209
H119	H	-0.371824	-0.635078	-0.476630
H120	H	0.128176	-0.135078	0.023370
Cl121	Cl	-0.767427	-1.177074	-0.461081
Cl122	Cl	-0.267427	-0.677074	0.038919
H123	H	-0.784686	-0.984356	-0.269254
H124	H	-0.284686	-0.484356	0.230746
H125	H	-0.240190	-0.634368	-0.311183
H126	H	0.259810	-0.134368	0.188817
H127	H	-0.269149	-1.156283	-0.924856
H128	H	0.230851	-0.656283	-0.424856
H129	H	-0.439931	-0.984325	-0.785328
H130	H	0.060069	-0.484325	-0.285328
H131	H	-0.923901	-1.156163	-0.440241
H132	H	-0.423901	-0.656163	0.059759
H133	H	-0.310396	-0.506169	-0.240743
H134	H	0.189604	-0.006169	0.259257
Cl135	Cl	-0.499666	-0.645119	-0.395150
Cl136	Cl	0.000334	-0.145119	0.104850
Cl137	Cl	-0.458419	-0.646739	-0.246521
Cl138	Cl	0.041581	-0.146739	0.253479
H139	H	-0.924129	-0.984416	-0.269279
H140	H	-0.424129	-0.484416	0.230721
H141	H	-0.239854	-0.507139	-0.311273
H142	H	0.260146	-0.007139	0.188727
Cl143	Cl	-0.317787	-0.644921	-0.208770
Cl144	Cl	0.182213	-0.144921	0.291230
Cl145	Cl	-0.248351	-1.177252	-0.768420
Cl146	Cl	0.251649	-0.677252	-0.268420
H147	H	-0.475861	-0.507318	-0.372524
H148	H	0.024139	-0.007318	0.127476
Cl149	Cl	-0.457640	-0.497136	-0.245172
Cl150	Cl	0.042360	0.002864	0.254828
