data_functionalizedCrystal
_audit_creation_method	'MofGen! by Chris Wilmer'
_symmetry_space_group_name_H-M	'P1'
_symmetry_Int_Tables_number	1
_symmetry_cell_setting	triclinic
loop_
_symmetry_equiv_pos_as_xyz
  x,y,z
_cell_length_a	25.639242
_cell_length_b	25.639239
_cell_length_c	16.120297
_cell_angle_alpha	87.131297
_cell_angle_beta	87.130267
_cell_angle_gamma	90.034213
loop_
_atom_site_label
_atom_site_type_symbol
_atom_site_fract_x
_atom_site_fract_y
_atom_site_fract_z
Zn1	Zn	0.784258	-0.223221	0.471560
Zn2	Zn	1.284258	0.276779	0.971560
Zn3	Zn	0.788606	-0.306221	0.332144
Zn4	Zn	1.288606	0.193779	0.832144
Zn5	Zn	0.701259	-0.218795	0.332144
Zn6	Zn	1.201259	0.281205	0.832144
Zn7	Zn	0.696782	-0.310618	0.471487
Zn8	Zn	1.196782	0.189382	0.971487
O9	O	0.742726	-0.264714	0.401834
O10	O	1.242726	0.235286	0.901834
O11	O	0.857999	-0.234243	0.453097
O12	O	1.357999	0.265757	0.953097
O13	O	0.780713	-0.290932	0.215482
O14	O	1.280713	0.209068	0.715482
O15	O	0.712323	-0.146218	0.350668
O16	O	1.212323	0.353782	0.850668
O17	O	0.861194	-0.295224	0.350669
O18	O	1.361194	0.204776	0.850669
O19	O	0.773302	-0.149470	0.453096
O20	O	1.273302	0.350530	0.953096
O21	O	0.716540	-0.226700	0.215482
O22	O	1.216540	0.273300	0.715482
O23	O	0.627501	-0.230963	0.350597
O24	O	1.127501	0.269037	0.850597
O25	O	0.704692	-0.302717	0.588158
O26	O	1.204692	0.197283	1.088158
O27	O	0.624211	-0.298425	0.452972
O28	O	1.124211	0.201575	0.952972
O29	O	0.768960	-0.238506	0.588212
O30	O	1.268960	0.261494	1.088212
O31	O	0.776372	-0.379969	0.350598
O32	O	1.276372	0.120031	0.850598
O33	O	0.708908	-0.383199	0.452972
O34	O	1.208908	0.116801	0.952972
C35	C	0.606886	-0.264691	0.401777
C36	C	1.106886	0.235309	0.901777
C37	C	0.548772	-0.264695	0.401773
C38	C	1.048772	0.235305	0.901773
C39	C	0.186704	-0.299896	0.455090
C40	C	0.686704	0.200104	0.955090
C41	C	0.132100	-0.299899	0.455103
C42	C	0.632100	0.200101	0.955103
O43	O	0.102415	-0.329801	0.500387
O44	O	0.602415	0.170199	1.000387
N45	N	0.106486	-0.264730	0.401888
N46	N	0.606486	0.235270	0.901888
C47	C	0.135479	-0.229551	0.348662
C48	C	0.635479	0.270449	0.848662
O49	O	0.108678	-0.199637	0.303401
O50	O	0.608678	0.300363	0.803401
C51	C	0.190083	-0.229546	0.348654
C52	C	0.690083	0.270454	0.848654
C53	C	0.215694	-0.264721	0.401867
C54	C	0.715694	0.235279	0.901867
C55	C	0.212316	-0.335067	0.508298
C56	C	0.712316	0.164933	1.008298
C57	C	0.266917	-0.335064	0.508284
C58	C	0.766917	0.164936	1.008284
C59	C	0.295906	-0.299889	0.455061
C60	C	0.795906	0.200111	0.955061
C61	C	0.270295	-0.264718	0.401852
C62	C	0.770295	0.235282	0.901852
C63	C	0.219075	-0.194365	0.295434
C64	C	0.719075	0.305635	0.795434
C65	C	0.273682	-0.194362	0.295430
C66	C	0.773682	0.305638	0.795430
C67	C	0.299293	-0.229537	0.348643
C68	C	0.799293	0.270463	0.848643
C69	C	0.353886	-0.229540	0.348614
C70	C	0.853886	0.270460	0.848614
N71	N	0.379499	-0.264709	0.401829
N72	N	0.879499	0.235291	0.901829
C73	C	0.350510	-0.299884	0.455052
C74	C	0.850510	0.200116	0.955052
C75	C	0.020808	-0.229565	0.348685
C76	C	0.520808	0.270435	0.848685
C77	C	-0.033795	-0.229573	0.348689
C78	C	0.466205	0.270427	0.848689
C79	C	-0.037170	-0.299920	0.455130
C80	C	0.462830	0.200080	0.955130
C81	C	0.017433	-0.299915	0.455122
C82	C	0.517433	0.200085	0.955122
C83	C	0.046422	-0.264735	0.401900
C84	C	0.546422	0.235265	0.901900
C85	C	0.465176	-0.299875	0.455018
C86	C	0.965176	0.200125	0.955018
C87	C	0.519782	-0.299870	0.454996
C88	C	1.019782	0.200130	0.954996
C89	C	0.523153	-0.229521	0.348558
C90	C	1.023153	0.270479	0.848558
C91	C	0.468552	-0.229527	0.348576
C92	C	0.968552	0.270473	0.848576
C93	C	0.439565	-0.264706	0.401813
C94	C	0.939565	0.235294	0.901813
O95	O	0.383604	-0.199652	0.303356
O96	O	0.883604	0.300348	0.803356
O97	O	0.377317	-0.329788	0.500314
O98	O	0.877317	0.170212	1.000314
C99	C	0.742640	-0.400555	0.401795
C100	C	1.242640	0.099445	0.901795
C101	C	0.742650	-0.458670	0.401807
C102	C	1.242650	0.041330	0.901807
C103	C	0.777939	-0.817342	0.348618
C104	C	1.277939	-0.317342	0.848618
C105	C	0.777959	-0.871947	0.348629
C106	C	1.277959	-0.371947	0.848629
O107	O	0.807873	-0.898744	0.303364
O108	O	1.307873	-0.398744	0.803364
N109	N	0.742817	-0.900955	0.401889
N110	N	1.242817	-0.400955	0.901889
C111	C	0.707656	-0.875355	0.455147
C112	C	1.207656	-0.375355	0.955147
O113	O	0.677767	-0.905043	0.500450
O114	O	1.177767	-0.405043	1.000450
C115	C	0.707639	-0.820752	0.455139
C116	C	1.207639	-0.320752	0.955139
C117	C	0.742780	-0.791746	0.401870
C118	C	1.242780	-0.291746	0.901870
C119	C	0.813077	-0.788336	0.295354
C120	C	1.313077	-0.288336	0.795354
C121	C	0.813057	-0.733735	0.295342
C122	C	1.313057	-0.233735	0.795342
C123	C	0.777897	-0.708140	0.348594
C124	C	1.277897	-0.208140	0.848594
C125	C	0.742759	-0.737145	0.401858
C126	C	1.242759	-0.237145	0.901858
C127	C	0.672481	-0.795154	0.508401
C128	C	1.172481	-0.295154	1.008401
C129	C	0.672467	-0.740547	0.508389
C130	C	1.172467	-0.240547	1.008389
C131	C	0.707608	-0.711541	0.455120
C132	C	1.207608	-0.211541	0.955120
C133	C	0.707579	-0.656949	0.455098
C134	C	1.207579	-0.156949	0.955098
N135	N	0.742721	-0.627941	0.401838
N136	N	1.242721	-0.127941	0.901838
C137	C	0.777880	-0.653536	0.348586
C138	C	1.277880	-0.153536	0.848586
C139	C	0.707695	-0.990027	0.455160
C140	C	1.207695	-0.490027	0.955160
C141	C	0.707709	-1.044629	0.455164
C142	C	1.207709	-0.544629	0.955164
C143	C	0.778013	-1.041216	0.348647
C144	C	1.278013	-0.541216	0.848647
C145	C	0.777996	-0.986613	0.348639
C146	C	1.277996	-0.486613	0.848639
C147	C	0.742837	-0.961018	0.401900
C148	C	1.242837	-0.461018	0.901900
C149	C	0.777834	-0.538871	0.348565
C150	C	1.277834	-0.038871	0.848565
C151	C	0.777809	-0.484265	0.348555
C152	C	1.277809	0.015735	0.848555
C153	C	0.707507	-0.487683	0.455074
C154	C	1.207507	0.012317	0.955074
C155	C	0.707530	-0.542283	0.455081
C156	C	1.207530	-0.042283	0.955081
C157	C	0.742698	-0.567876	0.401824
C158	C	1.242698	-0.067876	0.901824
O159	O	0.677681	-0.630116	0.500343
O160	O	1.177681	-0.130116	1.000343
O161	O	0.807769	-0.623843	0.303299
O162	O	1.307769	-0.123843	0.803299
C163	C	0.879098	-0.264737	0.401891
C164	C	1.379098	0.235263	0.901891
C165	C	0.937211	-0.264746	0.401915
C166	C	1.437211	0.235254	0.901915
C167	C	0.735842	-0.271596	0.619280
C168	C	1.235842	0.228404	1.119280
C169	C	0.732908	-0.274528	0.711943
C170	C	1.232908	0.225472	1.211943
C171	C	0.742827	-0.128343	0.401890
C172	C	1.242827	0.371657	0.901890
C173	C	0.742870	-0.070229	0.401914
C174	C	1.242870	0.429771	0.901914
C175	C	0.749614	-0.257821	0.185233
C176	C	1.249614	0.242179	0.685233
C177	C	0.752650	-0.254741	0.092571
C178	C	1.252650	0.245259	0.592571
C179	C	0.727532	-0.279871	0.881598
C180	C	1.227532	0.220129	1.381598
C181	C	0.758024	-0.249400	0.922921
C182	C	1.258024	0.250600	1.422921
C183	C	0.755033	-0.252373	1.017323
C184	C	1.255033	0.247627	1.517323
C185	C	0.730522	-0.276899	0.787188
C186	C	1.230522	0.223101	1.287188
H187	H	0.546766	-0.200884	0.305222
H188	H	1.046766	0.299116	0.805222
F189	F	0.181471	-0.372508	0.564952
F190	F	0.681471	0.127492	1.064952
F191	F	0.850503	-0.815569	0.238672
F192	F	1.350503	-0.315569	0.738672
F193	F	-0.061046	-0.192141	0.292043
F194	F	0.438954	0.307859	0.792043
H195	H	0.806611	-0.962999	0.305264
H196	H	1.306611	-0.462999	0.805264
F197	F	0.815263	-0.566101	0.291882
F198	F	1.315263	-0.066101	0.791882
F199	F	0.051655	-0.192122	0.292030
F200	F	0.551655	0.307878	0.792030
H201	H	0.786374	-0.221080	0.887400
H202	H	1.286374	0.278920	1.387400
H203	H	0.699184	-0.308189	0.917117
H204	H	1.199184	0.191811	1.417117
F205	F	0.044685	-0.337352	0.511758
F206	F	0.544685	0.162648	1.011758
F207	F	0.815432	-1.068466	0.291970
F208	F	1.315432	-0.568466	0.791970
H209	H	0.679089	-1.068241	0.498533
H210	H	1.179089	-0.568241	0.998533
F211	F	-0.068033	-0.337353	0.511782
F212	F	0.431967	0.162647	1.011782
H213	H	0.806425	-0.460650	0.305174
H214	H	1.306425	0.039350	0.805174
F215	F	0.547036	-0.337311	0.511632
F216	F	1.047036	0.162689	1.011632
F217	F	0.850465	-0.702873	0.238655
F218	F	1.350465	-0.202873	0.738655
H219	H	0.198232	-0.165723	0.252100
H220	H	0.698232	0.334277	0.752100
F221	F	0.670268	-0.962792	0.511845
F222	F	1.170268	-0.462792	1.011845
H223	H	0.441581	-0.328519	0.498370
H224	H	0.941581	0.171481	0.998370
F225	F	0.441294	-0.192098	0.291929
F226	F	0.941294	0.307902	0.791929
F227	F	0.294167	-0.372501	0.564924
F228	F	0.794167	0.127499	1.064924
H229	H	0.297282	-0.165710	0.252094
H230	H	0.797282	0.334290	0.752094
F231	F	0.635082	-0.826012	0.565105
F232	F	1.135082	-0.326012	1.065105
F233	F	0.670120	-0.573154	0.511761
F234	F	1.170120	-0.073154	1.011761
F235	F	0.670091	-0.460432	0.511748
F236	F	1.170091	0.039568	1.011748
F237	F	0.635046	-0.713311	0.565080
F238	F	1.135046	-0.213311	1.065080
