data_functionalizedCrystal
_audit_creation_method	'MofGen! by Chris Wilmer'
_symmetry_space_group_name_H-M	'P1'
_symmetry_Int_Tables_number	1
_symmetry_cell_setting	triclinic
loop_
_symmetry_equiv_pos_as_xyz
  x,y,z
_cell_length_a	15.297621
_cell_length_b	15.297510
_cell_length_c	15.296720
_cell_angle_alpha	72.679116
_cell_angle_beta	88.384271
_cell_angle_gamma	91.626469
loop_
_atom_site_label
_atom_site_type_symbol
_atom_site_fract_x
_atom_site_fract_y
_atom_site_fract_z
Zn1	Zn	-1.116302	0.695116	-0.823182
Zn2	Zn	-1.116201	0.823717	-0.694561
Zn3	Zn	-1.005076	0.644939	-0.644450
Zn4	Zn	-0.946161	0.814933	-0.814464
O5	O	-1.045935	0.744676	-0.744164
O6	O	-1.233999	0.736850	-0.830740
O7	O	-1.126074	0.782679	-0.562933
O8	O	-1.044529	0.526632	-0.650837
O9	O	-1.233925	0.831333	-0.736243
O10	O	-1.126246	0.563497	-0.782151
O11	O	-1.044431	0.651332	-0.526118
O12	O	-0.879550	0.642814	-0.642383
O13	O	-0.944116	0.816361	-0.940601
O14	O	-0.836265	0.767708	-0.767291
O15	O	-1.069118	0.728332	-0.947006
O16	O	-1.068947	0.947515	-0.727789
O17	O	-0.944019	0.941061	-0.815881
C18	C	-0.827386	0.698864	-0.698454
C19	C	-0.733882	0.679289	-0.678923
C20	C	-1.000098	0.976697	-0.776351
C21	C	-0.980559	1.075977	-0.790166
C22	C	-0.380257	0.884542	-0.883712
C23	C	-0.468108	0.902939	-0.902061
C24	C	-0.534556	0.847028	-0.846279
C25	C	-0.513144	0.772717	-0.772144
C26	C	-0.425284	0.754322	-0.753789
C27	C	-0.579582	0.716808	-0.716355
C28	C	-0.558170	0.642497	-0.642220
C29	C	-0.470319	0.624105	-0.623869
C30	C	-0.403871	0.680016	-0.679652
C31	C	-0.667442	0.735203	-0.734710
C32	C	-0.712469	0.604983	-0.604786
C33	C	-0.624618	0.586586	-0.586437
C34	C	-1.000057	0.776964	-0.977115
C35	C	-0.980506	0.790723	-1.076385
C36	C	-0.265340	0.790661	-0.790045
C37	C	-0.358844	0.810236	-0.809575
C38	C	-1.185813	1.369205	-0.645843
C39	C	-1.204171	1.275926	-0.632858
C40	C	-1.148270	1.225934	-0.672184
C41	C	-1.074007	1.269230	-0.724497
C42	C	-1.055644	1.362517	-0.737477
C43	C	-1.018101	1.219246	-0.763819
C44	C	-0.943838	1.262542	-0.816132
C45	C	-0.925479	1.355819	-0.829110
C46	C	-0.981380	1.405811	-0.789784
C47	C	-1.036464	1.125959	-0.750838
C48	C	-0.906295	1.119271	-0.842473
C49	C	-0.887937	1.212550	-0.855458
C50	C	-1.091961	1.511757	-0.711885
C51	C	-1.111549	1.412500	-0.698149
C52	C	-1.185729	0.646188	-1.369552
C53	C	-1.204103	0.633263	-1.276285
C54	C	-1.148205	0.672627	-1.226305
C55	C	-1.073930	0.724918	-1.269602
C56	C	-1.055559	0.737850	-1.362881
C57	C	-1.018035	0.764289	-1.219634
C58	C	-0.943760	0.816580	-1.262931
C59	C	-0.925391	0.829509	-1.356200
C60	C	-0.981289	0.790145	-1.406179
C61	C	-1.036407	0.751357	-1.126355
C62	C	-0.906236	0.843019	-1.119684
C63	C	-0.887863	0.855943	-1.212951
C64	C	-1.091696	0.712460	-0.512121
C65	C	-1.111459	0.698483	-0.412851
H66	H	-0.606087	0.862011	-0.861223
H67	H	-0.485535	0.963445	-0.962420
H68	H	-0.860774	1.078567	-0.874494
H69	H	-0.966438	1.481768	-0.800356
H70	H	-1.264579	0.590690	-1.241039
O71	O	-0.315821	0.938955	-0.937966
C72	C	-0.353554	1.008468	-1.007357
H73	H	-0.422777	1.019554	-0.984276
H74	H	-0.312413	1.074831	-1.021237
H75	H	-0.355981	0.987230	-1.072668
O76	O	-1.166069	1.135347	-0.659740
C77	C	-1.176917	1.120515	-0.745514
H78	H	-1.141804	1.178375	-0.801413
H79	H	-1.148119	1.052380	-0.744742
H80	H	-1.249599	1.118794	-0.759745
H81	H	-0.332333	0.665039	-0.664718
H82	H	-0.827387	0.898519	-1.248217
O83	O	-1.108476	0.700417	-1.084307
C84	C	-1.103201	0.610731	-1.090947
H85	H	-1.031841	0.595692	-1.101903
H86	H	-1.131251	0.559624	-1.025013
H87	H	-1.142243	0.604354	-1.151291
H88	H	-1.231236	0.614150	-1.410255
H89	H	-0.966333	0.800666	-1.482126
H90	H	-0.766572	0.559457	-0.559362
O91	O	-0.853282	0.880432	-1.398184
C92	C	-0.858578	0.970130	-1.391585
H93	H	-0.903891	0.969365	-1.330883
H94	H	-0.790587	0.997003	-1.381239
H95	H	-0.885538	1.016555	-1.457294
O96	O	-0.852059	0.881314	-1.071075
C97	C	-0.899173	0.941565	-1.035150
H98	H	-0.971896	0.921496	-1.030149
H99	H	-0.875465	0.937254	-0.964051
H100	H	-0.888254	1.014663	-1.082199
H101	H	-0.865001	1.391064	-0.871694
O102	O	-0.688346	0.807281	-0.806769
C103	C	-0.737799	0.775175	-0.868129
H104	H	-0.770513	0.705854	-0.830094
H105	H	-0.790046	0.826157	-0.897998
H106	H	-0.692828	0.767554	-0.925910
H107	H	-0.607171	0.526081	-0.526076
O108	O	-0.449491	0.552046	-0.551743
C109	C	-0.400015	0.584178	-0.490418
H110	H	-0.413704	0.659276	-0.500117
H111	H	-0.418954	0.542075	-0.417027
H112	H	-0.327380	0.577165	-0.504519
O113	O	-1.108563	1.083981	-0.699910
C114	C	-1.103269	1.090628	-0.610223
H115	H	-1.057964	1.151348	-0.611012
H116	H	-1.171263	1.100970	-0.583368
H117	H	-1.076302	1.024944	-0.563766
H118	H	-1.231316	1.409915	-0.613823
O119	O	-1.276365	1.234024	-0.582060
C120	C	-1.321758	1.298142	-0.550117
H121	H	-1.304350	1.370296	-0.596553
H122	H	-1.395222	1.283715	-0.550754
H123	H	-1.302409	1.292265	-0.477215
O124	O	-0.815887	1.254740	-0.906350
C125	C	-0.841765	1.326647	-0.981591
H126	H	-0.908989	1.349575	-0.965419
H127	H	-0.792229	1.386745	-0.995492
H128	H	-0.845001	1.301767	-1.044702
O129	O	-1.166155	0.659944	-1.135701
C130	C	-1.243707	0.605368	-1.108208
H131	H	-1.255218	0.563121	-1.157196
H132	H	-1.237314	0.557506	-1.035804
H133	H	-1.301300	0.651344	-1.109390
