data_functionalizedCrystal
_audit_creation_method	'MofGen! by Chris Wilmer'
_symmetry_space_group_name_H-M	'P1'
_symmetry_Int_Tables_number	1
_symmetry_cell_setting	triclinic
loop_
_symmetry_equiv_pos_as_xyz
  x,y,z
_cell_length_a	17.019292
_cell_length_b	17.000371
_cell_length_c	16.098538
_cell_angle_alpha	92.504966
_cell_angle_beta	88.859203
_cell_angle_gamma	100.495790
loop_
_atom_site_label
_atom_site_type_symbol
_atom_site_fract_x
_atom_site_fract_y
_atom_site_fract_z
O1	O	-1.039357	0.101646	0.005316
O2	O	-0.539357	0.601646	0.505316
O3	O	-0.809694	0.113739	-0.011164
O4	O	-0.309694	0.613739	0.488836
O5	O	-0.938785	-0.008138	-0.001895
O6	O	-0.438785	0.491862	0.498105
O7	O	-0.910265	0.223523	-0.003953
O8	O	-0.410265	0.723523	0.496047
O9	O	-0.931246	-0.001046	0.136077
O10	O	-0.431246	0.498954	0.636077
O11	O	-0.802155	0.120830	0.126808
O12	O	-0.302155	0.620830	0.626808
O13	O	-1.031818	0.108738	0.143288
O14	O	-0.531818	0.608738	0.643288
Zn15	Zn	-0.915789	0.115910	0.156954
Zn16	Zn	-0.415789	0.615910	0.656954
Zn17	Zn	-0.925722	0.106567	-0.024830
Zn18	Zn	-0.425722	0.606567	0.475170
O19	O	-0.902726	0.230614	0.134019
O20	O	-0.402726	0.730614	0.634019
C21	C	-0.776684	0.116688	0.055724
C22	C	-0.276684	0.616688	0.555724
C23	C	-0.689556	0.114899	0.049472
C24	C	-0.189556	0.614899	0.549472
C25	C	-0.644519	0.117922	0.121745
C26	C	-0.144519	0.617922	0.621745
C27	C	-0.562656	0.116228	0.115874
C28	C	-0.062656	0.616228	0.615874
C29	C	-0.525831	0.111517	0.037728
C30	C	-0.025831	0.611517	0.537728
C31	C	-0.570875	0.108492	-0.034551
C32	C	-0.070875	0.608492	0.465449
C33	C	-0.652737	0.110179	-0.028678
C34	C	-0.152737	0.610179	0.471322
C35	C	-0.278866	0.106223	0.016234
C36	C	0.221134	0.606223	0.516234
C37	C	-0.196997	0.104538	0.010367
C38	C	0.303003	0.604538	0.510367
C39	C	-0.188784	0.112273	0.160792
C40	C	0.311216	0.612273	0.660792
C41	C	-0.270647	0.113965	0.166657
C42	C	0.229353	0.613965	0.666657
C43	C	-0.315685	0.110935	0.094379
C44	C	0.184315	0.610935	0.594379
C45	C	-0.442154	0.109789	0.031724
C46	C	0.057846	0.609789	0.531724
C47	C	-0.399362	0.112658	0.100383
C48	C	0.100638	0.612658	0.600383
C49	C	-0.936548	-0.034242	0.067201
C50	C	-0.436548	0.465758	0.567201
C51	C	-0.941103	-0.122589	0.067527
C52	C	-0.441103	0.377411	0.567527
C53	C	-0.064829	0.105785	0.076397
C54	C	0.435171	0.605785	0.576397
C55	C	-0.151959	0.107561	0.082640
C56	C	0.348041	0.607561	0.582640
C57	C	-0.871004	-0.154791	0.062493
C58	C	-0.371004	0.345209	0.562493
C59	C	-0.875289	-0.237803	0.062803
C60	C	-0.375289	0.262197	0.562803
C61	C	-0.949673	-0.288612	0.068140
C62	C	-0.449673	0.211388	0.568140
C63	C	-1.019778	-0.256405	0.073177
C64	C	-0.519778	0.243595	0.573177
C65	C	-1.015492	-0.173394	0.072873
C66	C	-0.515492	0.326606	0.572873
C67	C	-0.966228	-0.539717	0.069323
C68	C	-0.466228	-0.039717	0.569323
C69	C	-0.970508	-0.622733	0.069624
C70	C	-0.470508	-0.122733	0.569624
C71	C	-0.826019	-0.604125	0.059251
C72	C	-0.326019	-0.104125	0.559251
C73	C	-0.821740	-0.521113	0.058943
C74	C	-0.321740	-0.021113	0.558943
C75	C	-0.891843	-0.488913	0.063984
C76	C	-0.391843	0.011087	0.563984
C77	C	-0.954055	-0.373464	0.068455
C78	C	-0.454055	0.126536	0.568455
C79	C	-0.887461	-0.404062	0.063675
C80	C	-0.387461	0.095938	0.563675
C81	C	-0.904964	0.256718	0.064921
C82	C	-0.404964	0.756718	0.564921
C83	C	-0.900409	0.345065	0.064590
C84	C	-0.400409	0.845065	0.564590
N85	N	-0.909016	0.122286	0.281017
N86	N	-0.409016	0.622286	0.781017
N87	N	-0.932502	0.100184	-0.148892
N88	N	-0.432502	0.600184	0.351108
C89	C	-0.963825	0.070575	0.328537
C90	C	-0.463825	0.570575	0.828537
C91	C	-0.959094	0.075043	0.415386
C92	C	-0.459094	0.575043	0.915386
C93	C	-0.899556	0.131226	0.454714
C94	C	-0.399556	0.631226	0.954714
C95	C	-0.844742	0.182939	0.407187
C96	C	-0.344742	0.682939	0.907187
C97	C	-0.849470	0.178467	0.320339
C98	C	-0.349470	0.678467	0.820339
C99	C	-0.882416	0.147425	0.716733
C100	C	-0.382416	0.647425	1.216733
C101	C	-0.877693	0.151895	0.803587
C102	C	-0.377693	0.651895	1.303587
C103	C	-0.992045	0.043997	0.811781
C104	C	-0.492045	0.543997	1.311781
C105	C	-0.996771	0.039533	0.724931
C106	C	-0.496771	0.539533	1.224931
C107	C	-0.941954	0.091244	0.677412
C108	C	-0.441954	0.591244	1.177412
C109	C	-0.894720	0.135796	0.543488
C110	C	-0.394720	0.635796	1.043488
C111	C	-0.946787	0.086669	0.588639
C112	C	-0.446787	0.586669	1.088639
H113	H	-0.412161	0.105953	-0.031903
H114	H	0.087839	0.605953	0.468097
H115	H	-1.045251	-0.006216	0.692913
H116	H	-0.545251	0.493784	1.192913
Cl117	Cl	-0.132162	0.116078	0.251650
Cl118	Cl	0.367838	0.616078	0.751650
H119	H	-1.012310	0.024828	0.296523
H120	H	-0.512310	0.524828	0.796523
Cl121	Cl	-0.793952	-0.340187	0.056969
Cl122	Cl	-0.293952	0.159813	0.556969
Cl123	Cl	-1.027997	0.010033	0.475128
Cl124	Cl	-0.527997	0.510033	0.975128
H125	H	-0.167016	0.100703	-0.053272
H126	H	0.332984	0.600703	0.446728
Cl127	Cl	-1.047564	-0.437345	0.075168
Cl128	Cl	-0.547564	0.062655	0.575168
H129	H	-0.846245	0.181543	0.575515
H130	H	-0.346245	0.681543	1.075515
H131	H	-0.804838	0.220575	0.281648
H132	H	-0.304838	0.720575	0.781648
H133	H	-0.761168	-0.479749	0.054594
H134	H	-0.261168	0.020251	0.554594
Cl135	Cl	-1.060951	-0.021009	0.871523
Cl136	Cl	-0.560951	0.478991	1.371523
Cl137	Cl	-0.316935	0.119893	0.264902
Cl138	Cl	0.183065	0.619893	0.764902
Cl139	Cl	-0.802840	0.222534	0.853021
Cl140	Cl	-0.302840	0.722534	1.353021
H141	H	-0.837783	0.189531	0.678049
H142	H	-0.337783	0.689531	1.178049
H143	H	-1.031085	-0.664101	0.073965
H144	H	-0.531085	-0.164101	0.573965
H145	H	-0.315526	0.103753	-0.042621
H146	H	0.184474	0.603753	0.457379
Cl147	Cl	-0.690804	0.123850	0.219991
Cl148	Cl	-0.190804	0.623850	0.719991
H149	H	-1.080343	-0.297781	0.077528
H150	H	-0.580343	0.202219	0.577528
Cl151	Cl	-0.506038	0.120044	0.206736
Cl152	Cl	-0.006038	0.620044	0.706736
Cl153	Cl	-1.021629	0.016039	0.539198
Cl154	Cl	-0.521629	0.516039	1.039198
Cl155	Cl	-0.524586	0.102540	-0.132791
Cl156	Cl	-0.024586	0.602540	0.367209
Cl157	Cl	-0.709357	0.106375	-0.119540
Cl158	Cl	-0.209357	0.606375	0.380460
Cl159	Cl	-0.445658	0.118578	0.198620
Cl160	Cl	0.054342	0.618578	0.698620
H161	H	-0.818207	-0.264017	0.058698
H162	H	-0.318207	0.235983	0.558698
Cl163	Cl	-0.777487	-0.090924	0.055778
Cl164	Cl	-0.277487	0.409076	0.555778
Cl165	Cl	-0.737894	-0.644610	0.052916
Cl166	Cl	-0.237894	-0.144610	0.552916
H167	H	-1.023311	-0.513510	0.073425
H168	H	-0.523311	-0.013510	0.573425
H169	H	-1.072574	-0.147177	0.076974
H170	H	-0.572574	0.352823	0.576974
H171	H	-0.796261	0.228682	0.439212
H172	H	-0.296261	0.728682	0.939212
