data_functionalizedCrystal
_audit_creation_method	'MofGen! by Chris Wilmer'
_symmetry_space_group_name_H-M	'P1'
_symmetry_Int_Tables_number	1
_symmetry_cell_setting	triclinic
loop_
_symmetry_equiv_pos_as_xyz
  x,y,z
_cell_length_a	19.288867
_cell_length_b	16.109301
_cell_length_c	15.186229
_cell_angle_alpha	90.013959
_cell_angle_beta	90.001633
_cell_angle_gamma	83.299326
loop_
_atom_site_label
_atom_site_type_symbol
_atom_site_fract_x
_atom_site_fract_y
_atom_site_fract_z
O1	O	0.921593	0.103734	0.073198
O2	O	0.719366	0.117723	0.073206
O3	O	0.826034	-0.010321	0.073196
O4	O	0.814924	0.231779	0.073208
O5	O	0.826030	-0.010348	-0.073261
O6	O	0.719361	0.117697	-0.073251
O7	O	0.921588	0.103707	-0.073259
Zn8	Zn	0.820474	0.110698	-0.096508
Zn9	Zn	0.820480	0.110733	0.096455
O10	O	0.814920	0.231752	-0.073249
C11	C	0.693486	0.117260	-0.000021
C12	C	0.616379	0.115908	-0.000018
C13	C	0.060793	0.106183	0.079805
C14	C	0.133243	0.107449	0.079808
C15	C	0.169471	0.108071	-0.000025
C16	C	0.133245	0.107406	-0.079868
C17	C	0.060797	0.106132	-0.079869
C18	C	0.278918	0.158772	-0.061186
C19	C	0.351364	0.160051	-0.061181
C20	C	0.392926	0.111996	-0.000025
C21	C	0.362032	0.062672	0.061141
C22	C	0.289583	0.061398	0.061140
C23	C	0.248029	0.109451	-0.000033
C24	C	0.507704	0.114027	0.079816
C25	C	0.580156	0.115287	0.079816
C26	C	0.580155	0.115252	-0.079863
C27	C	0.507705	0.113984	-0.079860
C28	C	0.471483	0.113375	-0.000018
C29	C	0.825582	-0.041308	-0.000032
C30	C	0.824233	-0.133599	-0.000031
C31	C	0.883117	-0.442798	-0.000018
C32	C	0.884391	-0.356082	-0.000023
C33	C	0.757832	-0.335777	-0.000030
C34	C	0.756559	-0.422491	-0.000031
C35	C	0.819203	-0.476000	-0.000021
C36	C	0.821751	-0.302570	-0.000025
C37	C	0.823132	-0.208548	-0.000030
C38	C	0.817822	-0.570027	-0.000017
C39	C	0.947468	0.104171	-0.000030
C40	C	1.024575	0.105523	-0.000027
C41	C	0.815372	0.262739	-0.000019
C42	C	0.816721	0.355029	-0.000014
N43	N	0.820484	0.110751	0.228148
N44	N	0.820475	0.110673	-0.228201
C45	C	0.862497	0.161114	0.546096
C46	C	0.862500	0.161126	0.453906
C47	C	0.778461	0.060304	0.453857
C48	C	0.778462	0.060289	0.546045
C49	C	0.820479	0.110698	0.592162
C50	C	0.820481	0.110726	0.407785
C51	C	0.820484	0.110739	0.307828
C52	C	0.820477	0.110684	0.692125
H53	H	0.934126	-0.486363	-0.000010
H54	H	0.896710	0.202160	0.583642
H55	H	0.031308	0.105598	-0.144880
H56	H	0.609645	0.115818	0.144828
C57	C	0.467859	0.113265	-0.167679
C58	C	0.507704	0.113946	-0.255497
C59	C	0.467859	0.113222	-0.343319
C60	C	0.388169	0.111817	-0.343324
C61	C	0.348320	0.111136	-0.255503
C62	C	0.388165	0.111860	-0.167680
H63	H	0.566700	0.114986	-0.255496
H64	H	0.497359	0.113726	-0.408330
H65	H	0.358674	0.111281	-0.408336
H66	H	0.289325	0.110097	-0.255504
H67	H	0.358666	0.111356	-0.102669
C68	C	0.908721	0.216582	0.403231
C69	C	0.875199	0.284351	0.339874
C70	C	0.921424	0.339806	0.289197
C71	C	1.001172	0.327492	0.301877
C72	C	1.034698	0.259720	0.365236
C73	C	0.988473	0.204265	0.415913
H74	H	0.816162	0.293469	0.330485
H75	H	0.896606	0.389975	0.242295
H76	H	1.035390	0.368543	0.264363
H77	H	1.093735	0.250602	0.374625
H78	H	1.013291	0.154096	0.462816
C79	C	0.732239	0.004863	0.403126
C80	C	0.686020	-0.050596	0.453801
C81	C	0.639795	-0.106036	0.403072
C82	C	0.639788	-0.106018	0.301669
C83	C	0.686008	-0.050557	0.250989
C84	C	0.732233	0.004883	0.301717
H85	H	0.686024	-0.050611	0.528870
H86	H	0.605580	-0.147092	0.440589
H87	H	0.605569	-0.147059	0.264116
H88	H	0.686004	-0.050542	0.175919
H89	H	0.766448	0.045939	0.264200
H90	H	0.376510	0.200234	-0.110968
H91	H	0.744245	0.019230	0.583553
H92	H	0.706829	-0.292200	-0.000036
C93	C	0.020953	0.105507	0.167631
C94	C	0.038823	0.033520	0.233497
C95	C	-0.001018	0.032844	0.321324
C96	C	-0.058727	0.104153	0.343284
C97	C	-0.076600	0.176145	0.277417
C98	C	-0.036760	0.176822	0.189590
H99	H	0.081546	-0.019272	0.217242
H100	H	0.012213	-0.020450	0.370084
H101	H	-0.088220	0.103652	0.408299
H102	H	-0.119323	0.228938	0.293671
H103	H	-0.049990	0.230116	0.140830
C104	C	0.686248	-0.459018	-0.000034
C105	C	0.634221	-0.438735	-0.076087
C106	C	0.563913	-0.475262	-0.076094
C107	C	0.545633	-0.532071	-0.000048
C108	C	0.597661	-0.552356	0.076012
C109	C	0.667968	-0.515830	0.076019
H110	H	0.647752	-0.396679	-0.132386
H111	H	0.525399	-0.460245	-0.132398
H112	H	0.493587	-0.559110	-0.000053
H113	H	0.584130	-0.594413	0.132311
H114	H	0.706483	-0.530847	0.132323
C115	C	0.173096	0.108182	0.167627
C116	C	0.171047	0.035853	0.233505
C117	C	0.210898	0.036589	0.321323
C118	C	0.252798	0.109654	0.343262
C119	C	0.254849	0.181989	0.277382
C120	C	0.214998	0.181253	0.189565
H121	H	0.140029	-0.018239	0.217266
H122	H	0.209380	-0.016958	0.370091
H123	H	0.282299	0.110199	0.408269
H124	H	0.285868	0.236081	0.293621
H125	H	0.216516	0.234800	0.140796
C126	C	0.407741	0.009798	0.128413
C127	C	0.487433	0.011183	0.128410
C128	C	0.533145	-0.041689	0.195679
C129	C	0.499165	-0.095946	0.262950
C130	C	0.419469	-0.097334	0.262956
C131	C	0.373757	-0.044462	0.195687
H132	H	0.512591	0.051350	0.078609
H133	H	0.592142	-0.040662	0.195674
H134	H	0.533004	-0.135085	0.312747
H135	H	0.394311	-0.137500	0.312757
H136	H	0.314760	-0.045489	0.195692
C137	C	0.467856	0.113341	0.167638
C138	C	0.507701	0.114050	0.255457
C139	C	0.467855	0.113361	0.343279
C140	C	0.388165	0.111964	0.343282
C141	C	0.348315	0.111256	0.255460
C142	C	0.388160	0.111944	0.167638
H143	H	0.566697	0.115084	0.255457
H144	H	0.497355	0.113886	0.408290
H145	H	0.358669	0.111455	0.408293
H146	H	0.289319	0.110221	0.255460
H147	H	0.358661	0.111419	0.102627
C148	C	0.173093	0.108097	-0.167685
C149	C	0.155224	0.180088	-0.233546
C150	C	0.195073	0.180778	-0.321366
C151	C	0.252791	0.109477	-0.343324
C152	C	0.270664	0.037481	-0.277461
C153	C	0.230815	0.036791	-0.189641
H154	H	0.112495	0.232874	-0.217293
H155	H	0.181843	0.234074	-0.370122
H156	H	0.282290	0.109988	-0.408333
H157	H	0.313393	-0.015305	-0.293714
H158	H	0.244045	-0.016505	-0.140885
H159	H	0.609652	0.115756	-0.144865
C160	C	0.954698	-0.319560	-0.000015
C161	C	1.023601	-0.378420	-0.000003
C162	C	1.093910	-0.341899	0.000006
C163	C	1.095317	-0.246517	0.000002
C164	C	1.026412	-0.187651	-0.000010
C165	C	0.956102	-0.224173	-0.000018
H166	H	1.022561	-0.449032	-0.000000
H167	H	1.144919	-0.385476	0.000015
H168	H	1.147365	-0.219482	0.000009
H169	H	1.027451	-0.117039	-0.000012
H170	H	0.905094	-0.180595	-0.000027
H171	H	0.245084	0.197901	-0.110996
H172	H	0.264432	0.021236	0.110942
