data_functionalizedCrystal
_audit_creation_method	'MofGen! by Chris Wilmer'
_symmetry_space_group_name_H-M	'P1'
_symmetry_Int_Tables_number	1
_symmetry_cell_setting	triclinic
loop_
_symmetry_equiv_pos_as_xyz
  x,y,z
_cell_length_a	12.759401
_cell_length_b	21.295417
_cell_length_c	12.759393
_cell_angle_alpha	89.961905
_cell_angle_beta	89.979062
_cell_angle_gamma	90.032032
loop_
_atom_site_label
_atom_site_type_symbol
_atom_site_fract_x
_atom_site_fract_y
_atom_site_fract_z
Zn1	Zn	1.606151	-0.250553	-0.593965
Zn2	Zn	2.106151	0.249447	-0.093965
Zn3	Zn	1.605994	-0.355835	-0.418261
Zn4	Zn	2.105994	0.144165	0.081739
Zn5	Zn	1.430450	-0.250587	-0.418300
Zn6	Zn	1.930450	0.249413	0.081700
Zn7	Zn	1.430393	-0.355791	-0.593899
Zn8	Zn	1.930393	0.144209	-0.093899
O9	O	1.518247	-0.303192	-0.506106
O10	O	2.018247	0.196808	-0.006106
O11	O	1.753151	-0.264523	-0.570669
O12	O	2.253151	0.235477	-0.070669
O13	O	1.582665	-0.341906	-0.271245
O14	O	2.082665	0.158094	0.228755
O15	O	1.453846	-0.162493	-0.441646
O16	O	1.953846	0.337507	0.058354
O17	O	1.753035	-0.341874	-0.441580
O18	O	2.253035	0.158126	0.058420
O19	O	1.582933	-0.162468	-0.570706
O20	O	2.082933	0.337532	-0.070706
O21	O	1.453694	-0.264581	-0.271274
O22	O	1.953694	0.235419	0.228726
O23	O	1.283421	-0.264538	-0.441582
O24	O	1.783421	0.235462	0.058418
O25	O	1.453750	-0.341799	-0.740929
O26	O	1.953750	0.158201	-0.240929
O27	O	1.283380	-0.341831	-0.570594
O28	O	1.783380	0.158169	-0.070594
O29	O	1.582879	-0.264481	-0.740977
O30	O	2.082879	0.235519	-0.240977
O31	O	1.582610	-0.443919	-0.441516
O32	O	2.082610	0.056081	0.058484
O33	O	1.453597	-0.443886	-0.570556
O34	O	1.953597	0.056114	-0.070556
C35	C	1.245279	-0.303184	-0.506085
C36	C	1.745279	0.196816	-0.006085
C37	C	1.128503	-0.303196	-0.506101
C38	C	1.628503	0.196804	-0.006101
C39	C	1.518109	-0.466743	-0.506048
C40	C	2.018109	0.033257	-0.006048
C41	C	1.518146	-0.536711	-0.506058
C42	C	2.018146	-0.036711	-0.006058
C43	C	1.073647	-0.343504	-0.573172
C44	C	1.573647	0.156496	-0.073172
C45	C	0.963923	-0.343506	-0.573193
C46	C	1.463923	0.156494	-0.073193
C47	C	0.963921	-0.262891	-0.439063
C48	C	1.463921	0.237109	0.060937
C49	C	1.073643	-0.262886	-0.439048
C50	C	1.573643	0.237114	0.060952
C51	C	1.585383	-0.569574	-0.438936
C52	C	2.085383	-0.069574	0.061064
C53	C	1.585432	-0.635316	-0.438960
C54	C	2.085432	-0.135316	0.061040
C55	C	1.518226	-0.668194	-0.506094
C56	C	2.018226	-0.168194	-0.006094
C57	C	1.450985	-0.635323	-0.573230
C58	C	1.950985	-0.135323	-0.073230
C59	C	1.450945	-0.569582	-0.573212
C60	C	1.950945	-0.069582	-0.073212
N61	N	1.426319	-0.771460	-0.514097
N62	N	1.926319	-0.271460	-0.014097
N63	N	1.426360	-0.833912	-0.514108
N64	N	1.926360	-0.333912	-0.014108
C65	C	1.518344	-0.866268	-0.506155
C66	C	2.018344	-0.366268	-0.006155
N67	N	1.610287	-0.833814	-0.498169
N68	N	2.110287	-0.333814	0.001831
N69	N	1.610245	-0.771357	-0.498153
N70	N	2.110245	-0.271357	0.001847
C71	C	1.518262	-0.739479	-0.506122
C72	C	2.018262	-0.239479	-0.006122
C73	C	1.585640	-0.970417	-0.439054
C74	C	2.085640	-0.470417	0.060946
C75	C	1.585691	-1.036160	-0.439085
C76	C	2.085691	-0.536160	0.060915
C77	C	1.451233	-1.036166	-0.573350
C78	C	1.951233	-0.536166	-0.073350
C79	C	1.451192	-0.970423	-0.573325
C80	C	1.951192	-0.470423	-0.073325
C81	C	1.518393	-0.937553	-0.506171
C82	C	2.018393	-0.437553	-0.006171
C83	C	1.792280	-0.303200	-0.506128
C84	C	2.292280	0.196800	-0.006128
C85	C	1.909057	-0.303203	-0.506137
C86	C	2.409057	0.196797	-0.006137
C87	C	1.518325	-0.303131	-0.780140
C88	C	2.018325	0.196869	-0.280140
C89	C	1.518359	-0.303105	-0.896916
C90	C	2.018359	0.196895	-0.396916
C91	C	1.518414	-0.139001	-0.506188
C92	C	2.018414	0.360999	-0.006188
C93	C	1.518485	-0.069033	-0.506222
C94	C	2.018485	0.430967	-0.006222
C95	C	1.585601	-0.262839	-0.951805
C96	C	2.085601	0.237161	-0.451805
C97	C	1.585619	-0.262812	-1.061529
C98	C	2.085619	0.237188	-0.561529
C99	C	1.451149	-0.343322	-1.061466
C100	C	1.951149	0.156678	-0.561466
C101	C	1.451127	-0.343346	-0.951744
C102	C	1.951127	0.156654	-0.451744
C103	C	1.518229	-0.303206	-0.233139
C104	C	2.018229	0.196794	0.266861
C105	C	1.518399	-0.303055	-0.116363
C106	C	2.018399	0.196945	0.383637
H107	H	1.118311	-0.376325	-0.627773
H108	H	1.618311	0.123675	-0.127773
C109	C	1.377207	-0.387589	-1.121775
C110	C	1.877207	0.112411	-0.621775
H111	H	1.337150	-0.411570	-1.073367
H112	H	1.837150	0.088430	-0.573367
H113	H	1.417377	-0.415010	-1.164569
H114	H	1.917377	0.084990	-0.664569
H115	H	1.331460	-0.363495	-1.164582
H116	H	1.831460	0.136505	-0.664582
C117	C	1.659543	-0.218574	-0.891493
C118	C	2.159543	0.281426	-0.391493
H119	H	1.649909	-0.224357	-0.818285
H120	H	2.149909	0.275643	-0.318285
H121	H	1.644215	-0.176275	-0.909494
H122	H	2.144215	0.323725	-0.409494
H123	H	1.730131	-0.227789	-0.909484
H124	H	2.230131	0.272211	-0.409484
H125	H	1.640449	-1.062916	-0.384429
H126	H	2.140449	-0.562916	0.115571
H127	H	0.919264	-0.376328	-0.627810
H128	H	1.419264	0.123672	-0.127810
H129	H	1.396363	-0.376135	-0.907052
H130	H	1.896363	0.123865	-0.407052
H131	H	1.640373	-0.230023	-1.106215
H132	H	2.140373	0.269977	-0.606215
H133	H	1.396437	-0.943665	-0.627977
H134	H	1.896437	-0.443665	-0.127977
C135	C	0.903571	-0.218561	-0.365300
C136	C	1.403571	0.281439	0.134700
H137	H	0.830367	-0.224341	-0.374905
H138	H	1.330367	0.275659	0.125095
H139	H	0.921591	-0.176275	-0.380799
H140	H	1.421591	0.323725	0.119201
H141	H	0.921514	-0.227729	-0.294676
H142	H	1.421514	0.272271	0.205324
H143	H	1.118308	-0.230058	-0.384431
H144	H	1.618308	0.269942	0.115569
H145	H	1.640188	-0.662078	-0.384301
H146	H	2.140188	-0.162078	0.115699
C147	C	1.659313	-0.533419	-0.365082
C148	C	2.159313	-0.033419	0.134918
H149	H	1.699372	-0.562411	-0.325117
H150	H	2.199372	-0.062411	0.174883
H151	H	1.619138	-0.507816	-0.319262
H152	H	2.119138	-0.007816	0.180738
H153	H	1.705059	-0.507732	-0.405315
H154	H	2.205059	-0.007732	0.094685
C155	C	1.377059	-0.671483	-0.647079
C156	C	1.877059	-0.171483	-0.147079
H157	H	1.337014	-0.642492	-0.687060
H158	H	1.837014	-0.142492	-0.187060
H159	H	1.331317	-0.697174	-0.606860
H160	H	1.831317	-0.197174	-0.106860
H161	H	1.417250	-0.697082	-0.692900
H162	H	1.917250	-0.197082	-0.192900
C163	C	1.376980	-0.533429	-0.647044
C164	C	1.876980	-0.033429	-0.147044
H165	H	1.386585	-0.489568	-0.637420
H166	H	1.886585	0.010432	-0.137420
H167	H	1.306403	-0.544250	-0.631614
H168	H	1.806403	-0.044250	-0.131614
H169	H	1.392336	-0.544157	-0.717655
H170	H	1.892336	-0.044157	-0.217655
C171	C	1.659568	-0.934256	-0.365202
C172	C	2.159568	-0.434256	0.134798
H173	H	1.699632	-0.963246	-0.325240
H174	H	2.199632	-0.463246	0.174760
H175	H	1.619389	-0.908656	-0.319379
H176	H	2.119389	-0.408656	0.180621
H177	H	1.705308	-0.908565	-0.405434
H178	H	2.205308	-0.408565	0.094566
C179	C	1.377313	-1.072323	-0.647202
C180	C	1.877313	-0.572323	-0.147202
H181	H	1.386963	-1.116183	-0.637598
H182	H	1.886963	-0.616183	-0.137598
H183	H	1.392646	-1.061503	-0.717802
H184	H	1.892646	-0.561503	-0.217802
H185	H	1.306718	-1.061598	-0.631756
H186	H	1.806718	-0.561598	-0.131756
