data_functionalizedCrystal
_audit_creation_method	'MofGen! by Chris Wilmer'
_symmetry_space_group_name_H-M	'P1'
_symmetry_Int_Tables_number	1
_symmetry_cell_setting	triclinic
loop_
_symmetry_equiv_pos_as_xyz
  x,y,z
_cell_length_a	18.215407
_cell_length_b	25.639240
_cell_length_c	18.215399
_cell_angle_alpha	90.037217
_cell_angle_beta	90.019833
_cell_angle_gamma	90.033205
loop_
_atom_site_label
_atom_site_type_symbol
_atom_site_fract_x
_atom_site_fract_y
_atom_site_fract_z
Zn1	Zn	1.125032	-0.208150	0.416068
Zn2	Zn	1.124923	-0.295586	0.292982
Zn3	Zn	1.001964	-0.208167	0.293016
Zn4	Zn	1.001913	-0.295557	0.416007
O5	O	1.063458	-0.251865	0.354518
O6	O	1.228002	-0.219754	0.399752
O7	O	1.108588	-0.284009	0.190002
O8	O	1.018356	-0.135000	0.309379
O9	O	1.227922	-0.283992	0.309322
O10	O	1.108773	-0.134987	0.399785
O11	O	1.018251	-0.219783	0.190027
O12	O	0.898973	-0.219754	0.309319
O13	O	1.018269	-0.283943	0.519000
O14	O	0.898936	-0.283959	0.399681
O15	O	1.108724	-0.219725	0.519045
O16	O	1.108539	-0.368747	0.309262
O17	O	1.018164	-0.368726	0.399648
C18	C	0.872252	-0.251856	0.354497
C19	C	0.790453	-0.251865	0.354506
C20	C	0.602259	-0.285349	0.401498
C21	C	0.525400	-0.285350	0.401507
C22	C	0.525409	-0.218391	0.307555
C23	C	0.602267	-0.218387	0.307550
C24	C	0.640689	-0.251869	0.354520
C25	C	0.486973	-0.251874	0.354535
C26	C	0.403640	-0.251876	0.354544
C27	C	0.724028	-0.251867	0.354512
C28	C	1.063354	-0.387708	0.354461
C29	C	1.063377	-0.445822	0.354461
C30	C	1.110562	-0.806140	0.401678
C31	C	1.110583	-0.860744	0.401693
O32	O	1.150578	-0.888942	0.441779
N33	N	1.063560	-0.888104	0.354590
C34	C	1.016507	-0.860857	0.307474
O35	O	0.976512	-0.889143	0.267410
C36	C	1.016482	-0.806254	0.307463
C37	C	1.063514	-0.778896	0.354564
C38	C	1.157589	-0.778782	0.448776
C39	C	1.157568	-0.724182	0.448760
C40	C	1.110520	-0.696938	0.401646
C41	C	1.063493	-0.724296	0.354548
C42	C	0.969426	-0.779008	0.260351
C43	C	0.969405	-0.724401	0.260345
C44	C	1.016436	-0.697043	0.307446
C45	C	1.016424	-0.642452	0.307418
N46	N	1.063447	-0.615092	0.354521
C47	C	1.110495	-0.642335	0.401635
C48	C	1.016562	-0.975528	0.307500
C49	C	1.016590	-1.030130	0.307507
C50	C	1.110666	-1.030013	0.401727
C51	C	1.110641	-0.975410	0.401717
C52	C	1.063585	-0.948167	0.354604
C53	C	1.110448	-0.527670	0.401597
C54	C	1.110425	-0.473065	0.401575
C55	C	1.016347	-0.473186	0.307357
C56	C	1.016372	-0.527787	0.307377
C57	C	1.063425	-0.555027	0.354503
O58	O	0.976448	-0.614219	0.267354
O59	O	1.150477	-0.614043	0.441698
C60	C	1.255411	-0.251874	0.354540
C61	C	1.337210	-0.251878	0.354549
C62	C	1.063503	-0.251829	0.546471
C63	C	1.063522	-0.251814	0.628270
C64	C	1.063583	-0.115492	0.354592
C65	C	1.063636	-0.057378	0.354624
C66	C	1.063456	-0.251863	0.163312
C67	C	1.063579	-0.251731	0.081514
C68	C	1.110639	-0.218344	0.816489
C69	C	1.110647	-0.218329	0.893348
C70	C	1.016457	-0.285202	0.893290
C71	C	1.016446	-0.285214	0.816432
C72	C	1.063540	-0.251786	0.778034
C73	C	1.063561	-0.251759	0.931750
C74	C	1.063570	-0.251742	1.015084
C75	C	1.063530	-0.251801	0.694695
H76	H	0.494113	-0.312613	0.439762
N77	N	0.641517	-0.184178	0.259562
N78	N	0.607204	-0.154289	0.217626
H79	H	0.634924	-0.130128	0.183738
H80	H	0.633540	-0.312611	0.439746
N81	N	0.486149	-0.184194	0.259584
N82	N	0.417527	-0.184202	0.259593
H83	H	0.389799	-0.160051	0.225711
H84	H	0.978081	-0.550062	0.269017
H85	H	1.148726	-0.450792	0.439930
H86	H	1.148999	-0.191096	0.924655
N87	N	0.968278	-0.445360	0.259237
N88	N	0.926284	-0.469788	0.217189
H89	H	0.892330	-0.450136	0.183207
N90	N	1.158513	-0.555482	0.449740
N91	N	1.200495	-0.531041	0.491785
H92	H	1.234445	-0.550682	0.525784
H93	H	1.195863	-0.701911	0.487115
N94	N	0.968321	-0.319369	0.777147
N95	N	0.900418	-0.315894	0.785720
H96	H	0.866428	-0.340013	0.757975
H97	H	0.978116	-0.312419	0.924563
N98	N	1.205653	-0.806597	0.496914
N99	N	1.247631	-0.782154	0.538960
H100	H	1.281583	-0.801794	0.572958
N101	N	1.158688	-0.947475	0.449832
N102	N	1.200693	-0.971813	0.491888
H103	H	1.234629	-0.952087	0.525873
H104	H	1.148973	-1.052204	0.440092
H105	H	0.978246	-0.953350	0.269129
N106	N	0.968557	-1.058063	0.259377
N107	N	0.926559	-1.033726	0.217313
H108	H	0.892632	-1.053451	0.183320
H109	H	0.931128	-0.801273	0.221996
N110	N	0.921328	-0.696582	0.212218
N111	N	0.879342	-0.721019	0.170173
H112	H	0.845387	-0.701374	0.136183
H113	H	1.148984	-0.191123	0.785227
