data_functionalizedCrystal
_audit_creation_method	'MofGen! by Chris Wilmer'
_symmetry_space_group_name_H-M	'P1'
_symmetry_Int_Tables_number	1
_symmetry_cell_setting	triclinic
loop_
_symmetry_equiv_pos_as_xyz
  x,y,z
_cell_length_a	15.995350
_cell_length_b	15.995350
_cell_length_c	14.472310
_cell_angle_alpha	89.998838
_cell_angle_beta	89.990621
_cell_angle_gamma	96.507625
loop_
_atom_site_label
_atom_site_type_symbol
_atom_site_fract_x
_atom_site_fract_y
_atom_site_fract_z
O1	O	1.110997	-0.107921	-0.076758
O2	O	1.610997	0.392079	0.423242
O3	O	0.867221	-0.121248	-0.076776
O4	O	1.367221	0.378752	0.423224
O5	O	0.995773	0.007303	-0.076766
O6	O	1.495773	0.507303	0.423234
O7	O	0.982445	-0.236472	-0.076769
O8	O	1.482445	0.263528	0.423231
O9	O	0.995740	0.007296	0.076916
O10	O	1.495740	0.507296	0.576916
O11	O	0.867188	-0.121256	0.076906
O12	O	1.367188	0.378744	0.576906
O13	O	1.110963	-0.107928	0.076924
O14	O	1.610963	0.392072	0.576924
Cu15	Cu	0.989073	-0.114593	0.090947
Cu16	Cu	1.489073	0.385407	0.590947
Cu17	Cu	0.989112	-0.114584	-0.090800
Cu18	Cu	1.489112	0.385416	0.409200
O19	O	0.982412	-0.236480	0.076913
O20	O	1.482412	0.263520	0.576913
C21	C	0.836010	-0.120701	0.000062
C22	C	1.336010	0.379299	0.500062
C23	C	0.743060	-0.119049	0.000055
C24	C	1.243060	0.380951	0.500055
C25	C	0.995205	0.038494	0.000073
C26	C	1.495205	0.538494	0.500073
C27	C	0.993553	0.131444	0.000068
C28	C	1.493553	0.631444	0.500068
C29	C	0.405312	-0.113117	0.000074
C30	C	0.905312	0.386883	0.500074
C31	C	0.452746	-0.021565	0.000418
C32	C	0.952746	0.478435	0.500418
C33	C	0.549436	-0.023217	0.000065
C34	C	1.049436	0.476783	0.500065
C35	C	0.572873	-0.116060	0.000065
C36	C	1.072873	0.383940	0.500065
C37	C	0.531804	-0.161212	-0.087692
C38	C	1.031804	0.338788	0.412308
C39	C	0.435169	-0.158912	-0.087759
C40	C	0.935169	0.341088	0.412241
C41	C	0.434792	-0.160812	0.087007
C42	C	0.934792	0.339188	0.587007
C43	C	0.531737	-0.160790	0.088160
C44	C	1.031737	0.339210	0.588160
C45	C	0.667570	-0.117727	0.000057
C46	C	1.167570	0.382273	0.500057
C47	C	0.310614	-0.111452	0.000076
C48	C	0.810614	0.388548	0.500076
C49	C	1.142175	-0.108476	0.000083
C50	C	1.642175	0.391524	0.500083
C51	C	1.235125	-0.110127	0.000084
C52	C	1.735125	0.389873	0.500084
C53	C	0.982980	-0.267671	0.000072
C54	C	1.482980	0.232329	0.500072
C55	C	0.984631	-0.360621	0.000071
C56	C	1.484631	0.139379	0.500071
N57	N	0.989051	-0.114598	0.218778
N58	N	1.489051	0.385402	0.718778
C59	C	0.987621	0.469192	0.000071
C60	C	1.487621	0.969192	0.500071
C61	C	0.896069	0.421758	-0.000281
C62	C	1.396069	0.921758	0.499719
C63	C	0.897721	0.325068	0.000066
C64	C	1.397721	0.825068	0.500066
C65	C	0.990564	0.301631	0.000069
C66	C	1.490564	0.801631	0.500069
C67	C	1.035701	0.342705	0.087831
C68	C	1.535701	0.842705	0.587831
C69	C	1.033401	0.439340	0.087904
C70	C	1.533401	0.939340	0.587904
C71	C	1.035330	0.439707	-0.086861
C72	C	1.535330	0.939707	0.413139
C73	C	1.035309	0.342762	-0.088021
C74	C	1.535309	0.842762	0.411979
C75	C	0.992231	0.206934	0.000071
C76	C	1.492231	0.706934	0.500071
C77	C	0.985956	0.563890	0.000075
C78	C	1.485956	1.063890	0.500075
N79	N	0.989140	-0.114572	-0.218631
N80	N	1.489140	0.385428	0.281369
C81	C	0.989111	-0.114581	0.592869
C82	C	1.489111	0.385419	1.092869
C83	C	0.920095	-0.183135	0.553698
C84	C	1.420095	0.316865	1.053698
C85	C	0.920254	-0.183385	0.446610
C86	C	1.420254	0.316615	0.946610
C87	C	0.989081	-0.114590	0.407278
C88	C	1.489081	0.385410	0.907278
C89	C	1.076445	-0.133671	0.446122
C90	C	1.576445	0.366329	0.946122
C91	C	1.076057	-0.134159	0.553243
C92	C	1.576057	0.365841	1.053243
C93	C	0.971542	-0.026741	0.553398
C94	C	1.471542	0.473259	1.053398
C95	C	0.969538	-0.027327	0.446270
C96	C	1.469538	0.472673	0.946270
C97	C	0.989069	-0.114593	0.302390
C98	C	1.489069	0.385407	0.802390
C99	C	0.989128	-0.114579	0.697757
C100	C	1.489128	0.385421	1.197757
H101	H	0.577852	0.012275	0.062973
H102	H	1.077852	0.512275	0.562973
H103	H	0.909219	-0.008392	0.580461
H104	H	1.409219	0.491608	1.080461
Br105	Br	0.838133	0.278611	0.105088
Br106	Br	1.338133	0.778611	0.605088
Br107	Br	0.980766	0.296812	-0.196251
Br108	Br	1.480766	0.796812	0.303749
Br109	Br	0.421849	0.039427	0.105314
Br110	Br	0.921849	0.539427	0.605314
H111	H	1.021872	0.024275	0.578728
H112	H	1.521872	0.524275	1.078728
Br113	Br	0.381416	-0.270939	-0.094396
Br114	Br	0.881416	0.229061	0.405604
H115	H	0.560193	-0.129845	-0.153002
H116	H	1.060193	0.370155	0.346998
H117	H	1.129029	-0.085068	0.420643
H118	H	1.629029	0.414932	0.920643
Br119	Br	1.148156	0.317153	-0.096859
Br120	Br	1.648156	0.817153	0.403141
Br121	Br	1.147835	0.492643	-0.087843
Br122	Br	1.647835	0.992643	0.412157
Br123	Br	0.978493	0.469843	0.197240
Br124	Br	1.478493	0.969843	0.697240
H125	H	0.433166	0.014865	-0.062168
H126	H	0.933166	0.514865	0.437832
H127	H	1.092297	-0.197002	0.419285
H128	H	1.592297	0.302998	0.919285
H129	H	0.577308	0.012521	-0.062951
H130	H	1.077308	0.512521	0.437049
H131	H	0.559040	-0.127830	0.153082
H132	H	1.059040	0.372170	0.653082
H133	H	0.414242	-0.130885	0.153524
H134	H	0.914242	0.369115	0.653524
H135	H	1.091540	-0.198219	0.578220
H136	H	1.591540	0.301781	1.078220
H137	H	0.862239	0.296649	-0.062846
H138	H	1.362239	0.796649	0.437154
H139	H	1.100617	0.471588	0.091888
H140	H	1.600617	0.971588	0.591888
Br141	Br	0.555372	-0.274890	-0.093156
Br142	Br	1.055372	0.225110	0.406844
H143	H	1.103909	0.328579	0.091097
H144	H	1.603909	0.828579	0.591097
H145	H	0.547101	-0.228494	0.093461
H146	H	1.047101	0.271506	0.593461
Br147	Br	0.835096	0.452645	-0.105181
Br148	Br	1.335096	0.952645	0.394819
H149	H	0.931473	-0.248569	0.420976
H150	H	1.431473	0.251431	0.920976
H151	H	1.129018	-0.086196	0.579154
H152	H	1.629018	0.413804	1.079154
Br153	Br	0.938543	-0.291174	0.598527
Br154	Br	1.438543	0.208826	1.098527
H155	H	0.403031	-0.228313	0.087600
H156	H	0.903031	0.271687	0.587600
H157	H	0.905272	-0.012845	0.420883
H158	H	1.405272	0.487155	0.920883
H159	H	0.855314	-0.172016	0.420349
H160	H	1.355314	0.327984	0.920349
Br161	Br	0.835151	0.454809	0.103703
Br162	Br	1.335151	0.954809	0.603703
H163	H	1.004324	0.314320	0.153137
H164	H	1.504324	0.814320	0.653137
H165	H	1.005412	0.460250	-0.153379
H166	H	1.505412	0.960250	0.346621
Br167	Br	0.404672	-0.104022	-0.197096
Br168	Br	0.904672	0.395978	0.302904
Br169	Br	0.811498	-0.164485	0.596643
Br170	Br	1.311498	0.335515	1.096643
Br171	Br	1.047887	0.061689	0.401667
Br172	Br	1.547887	0.561689	0.901667
