data_functionalizedCrystal
_audit_creation_method	'MofGen! by Chris Wilmer'
_symmetry_space_group_name_H-M	'P1'
_symmetry_Int_Tables_number	1
_symmetry_cell_setting	triclinic
loop_
_symmetry_equiv_pos_as_xyz
  x,y,z
_cell_length_a	16.109301
_cell_length_b	16.109301
_cell_length_c	8.140239
_cell_angle_alpha	90.004566
_cell_angle_beta	89.998749
_cell_angle_gamma	83.461481
loop_
_atom_site_label
_atom_site_type_symbol
_atom_site_fract_x
_atom_site_fract_y
_atom_site_fract_z
O1	O	1.103128	0.106866	0.136515
O2	O	0.861066	0.120165	0.136542
O3	O	0.988747	-0.007516	0.136511
O4	O	0.975448	0.234546	0.136546
O5	O	0.988743	-0.007517	-0.136716
O6	O	0.861062	0.120164	-0.136686
O7	O	1.103124	0.106865	-0.136712
Zn8	Zn	0.982093	0.113514	-0.180080
Zn9	Zn	0.982098	0.113515	0.179909
O10	O	0.975444	0.234545	-0.136681
C11	C	0.830090	0.119626	-0.000069
C12	C	0.737794	0.118011	-0.000059
C13	C	0.515522	0.190018	-0.000068
C14	C	0.428801	0.188494	-0.000078
C15	C	0.448676	0.037006	-0.000094
C16	C	0.535394	0.038530	-0.000094
C17	C	0.568815	0.115039	-0.000073
C18	C	0.395376	0.111990	-0.000083
C19	C	0.301350	0.110337	-0.000095
C20	C	0.662847	0.116693	-0.000065
C21	C	0.988206	-0.038491	-0.000104
C22	C	0.986591	-0.130786	-0.000106
C23	C	1.058599	-0.353059	-0.000088
C24	C	1.057075	-0.439779	-0.000074
C25	C	0.905586	-0.419905	-0.000064
C26	C	0.907111	-0.333186	-0.000066
C27	C	0.983620	-0.299766	-0.000086
C28	C	0.980571	-0.473205	-0.000070
C29	C	0.978918	-0.567231	-0.000056
C30	C	0.985273	-0.205734	-0.000098
C31	C	1.134101	0.107404	-0.000098
C32	C	1.226397	0.109019	-0.000097
C33	C	0.975984	0.265521	-0.000064
C34	C	0.977600	0.357816	-0.000051
N35	N	0.982095	0.113513	-0.425762
N36	N	0.982102	0.113510	0.425591
H37	H	0.542730	0.252317	-0.000063
F38	F	0.372086	0.268298	-0.000075
H39	H	0.421454	-0.025285	-0.000121
F40	F	0.827304	-0.276464	-0.000052
H41	H	0.578788	-0.022530	-0.000104
H42	H	1.120897	-0.325851	-0.000101
H43	H	0.843295	-0.447127	-0.000050
H44	H	1.118130	-0.483168	-0.000072
