data_functionalizedCrystal
_audit_creation_method	'MofGen! by Chris Wilmer'
_symmetry_space_group_name_H-M	'P1'
_symmetry_Int_Tables_number	1
_symmetry_cell_setting	triclinic
loop_
_symmetry_equiv_pos_as_xyz
  x,y,z
_cell_length_a	19.188930
_cell_length_b	17.666332
_cell_length_c	12.837942
_cell_angle_alpha	90.004116
_cell_angle_beta	88.986860
_cell_angle_gamma	90.023133
loop_
_atom_site_label
_atom_site_type_symbol
_atom_site_fract_x
_atom_site_fract_y
_atom_site_fract_z
O1	O	0.935024	0.063194	0.129378
O2	O	0.732907	0.063142	0.146795
O3	O	0.829484	0.063162	-0.012796
O4	O	0.838447	0.063174	0.288969
O5	O	0.829464	-0.062735	-0.012800
O6	O	0.732888	-0.062755	0.146790
O7	O	0.935004	-0.062703	0.129374
Cu8	Cu	0.833944	-0.074224	0.138082
Cu9	Cu	0.833967	0.074663	0.138087
O10	O	0.838428	-0.062723	0.288965
C11	C	0.706848	0.000187	0.146229
C12	C	0.629227	0.000167	0.144536
C13	C	0.590726	0.000183	0.238178
C14	C	0.517793	0.000191	0.236588
C15	C	0.483364	0.000199	0.141349
C16	C	0.521874	0.000179	0.047694
C17	C	0.594806	0.000163	0.049287
N18	N	0.370397	0.043075	0.068553
N19	N	0.301115	0.043091	0.067046
C20	C	0.263626	0.000245	0.136543
N21	N	0.298035	-0.042609	0.207620
N22	N	0.367323	-0.042623	0.209130
C23	C	0.404282	0.000215	0.139611
C24	C	0.146042	0.000268	0.228467
C25	C	0.073108	0.000272	0.226873
C26	C	0.077191	0.000268	0.037976
C27	C	0.150124	0.000256	0.039574
C28	C	0.184545	0.000260	0.134822
N29	N	0.833933	-0.178944	0.138077
C30	C	0.880443	-0.218533	0.200780
C31	C	0.880454	-0.297781	0.200777
C32	C	0.833943	-0.337436	0.138083
C33	C	0.787430	-0.297837	0.075368
C34	C	0.787425	-0.218591	0.075365
N35	N	0.772620	-0.461891	0.135530
N36	N	0.772626	-0.537172	0.135539
C37	C	0.833956	-0.576200	0.138087
N38	N	0.895281	-0.537104	0.140646
N39	N	0.895273	-0.461816	0.140643
C40	C	0.833944	-0.423365	0.138079
C41	C	0.880481	-0.701719	0.200790
C42	C	0.880493	-0.780968	0.200779
C43	C	0.787463	-0.781022	0.075376
C44	C	0.787457	-0.701775	0.075380
C45	C	0.833966	-0.662128	0.138093
C46	C	0.961064	0.000254	0.129940
C47	C	1.038684	0.000279	0.131633
C48	C	0.826446	0.000213	-0.051405
C49	C	0.817415	0.000212	-0.166441
N50	N	0.833983	0.179383	0.138083
C51	C	0.925983	0.000256	-0.407892
C52	C	0.917501	0.000255	-0.515979
C53	C	0.791969	0.000215	-0.490705
C54	C	0.800451	0.000216	-0.382618
C55	C	0.867460	0.000235	-0.341215
C56	C	0.875942	0.000231	-0.233126
C57	C	0.750411	0.000196	-0.207854
C58	C	0.741929	0.000195	-0.315942
C59	C	0.841465	0.000227	0.327574
C60	C	0.850496	0.000233	0.442610
H61	H	0.174070	0.000260	0.306024
H62	H	0.687372	0.000182	-0.349667
N63	N	0.191655	0.000240	-0.061427
H64	H	0.158780	0.000245	-0.122004
H65	H	0.222032	0.046903	-0.064882
H66	H	0.980544	0.000264	-0.374181
H67	H	0.702758	0.000173	-0.153554
N68	N	0.930610	-0.175771	0.268405
H69	H	0.960079	-0.212881	0.308123
H70	H	0.961725	-0.142884	0.223086
H71	H	0.918328	-0.330021	0.251840
N72	N	0.484739	0.000181	-0.055024
H73	H	0.454597	0.046858	-0.059896
H74	H	0.520239	0.000139	-0.114050
H75	H	0.749561	-0.330129	0.024321
N76	N	0.636340	0.000156	-0.051714
H77	H	0.666667	-0.046519	-0.055262
H78	H	0.603424	0.000189	-0.112236
N79	N	0.476260	0.000216	0.337596
H80	H	0.445938	0.046894	0.341133
H81	H	0.445923	-0.046476	0.341092
H82	H	0.965156	0.000274	-0.570264
N83	N	0.719701	0.000202	-0.535370
H84	H	0.723211	0.000208	-0.613961
H85	H	0.693768	-0.046478	-0.510973
N86	N	0.930683	-0.823672	0.268373
H87	H	0.960148	-0.786528	0.308089
H88	H	0.903640	-0.856578	0.319151
H89	H	0.618747	0.000187	0.315737
N90	N	0.737260	-0.175885	0.007731
H91	H	0.707798	-0.213028	-0.031991
H92	H	0.706140	-0.143020	0.053040
H93	H	0.918352	-0.669436	0.251853
H94	H	0.041761	0.000280	0.303131
N95	N	0.737303	-0.823781	0.007743
H96	H	0.706137	-0.856675	0.052978
H97	H	0.707886	-0.786621	-0.031968
N98	N	0.040068	0.000268	-0.064748
H99	H	-0.011977	0.000277	-0.051550
H100	H	0.053731	0.046935	-0.105713
N101	N	0.737292	-0.659068	0.007753
H102	H	0.707828	-0.696212	-0.031966
H103	H	0.706172	-0.626201	0.053061
N104	N	0.948211	0.000247	-0.188465
H105	H	0.983997	0.000262	-0.247110
H106	H	0.954470	0.046919	-0.144162
