data_functionalizedCrystal
_audit_creation_method	'MofGen! by Chris Wilmer'
_symmetry_space_group_name_H-M	'P1'
_symmetry_Int_Tables_number	1
_symmetry_cell_setting	triclinic
loop_
_symmetry_equiv_pos_as_xyz
  x,y,z
_cell_length_a	16.625546
_cell_length_b	14.908571
_cell_length_c	14.908308
_cell_angle_alpha	90.175053
_cell_angle_beta	86.735930
_cell_angle_gamma	93.281505
loop_
_atom_site_label
_atom_site_type_symbol
_atom_site_fract_x
_atom_site_fract_y
_atom_site_fract_z
Zn1	Zn	-0.420778	-1.345280	0.587557
Zn2	Zn	-0.548312	-1.353856	0.437189
Zn3	Zn	-0.405291	-1.203596	0.428555
Zn4	Zn	-0.547354	-1.194884	0.578841
O5	O	-0.480434	-1.274404	0.508036
O6	O	-0.444578	-1.472243	0.574871
O7	O	-0.523260	-1.341159	0.310220
O8	O	-0.294517	-1.222448	0.449681
O9	O	-0.538277	-1.478544	0.464397
O10	O	-0.305896	-1.326543	0.566499
O11	O	-0.418182	-1.230763	0.303876
O12	O	-0.417254	-1.076615	0.441230
O13	O	-0.536644	-1.207599	0.705821
O14	O	-0.521627	-1.070214	0.551644
O15	O	-0.443649	-1.318095	0.712225
O16	O	-0.661013	-1.332711	0.455945
O17	O	-0.660309	-1.215914	0.560016
C18	C	-0.689918	-1.274321	0.507993
C19	C	-0.779542	-1.274366	0.508010
C20	C	-0.467656	-1.040789	0.494555
C21	C	-0.462211	-0.940846	0.488810
C22	C	-0.491767	-1.260918	0.742560
C23	C	-0.496597	-1.255172	0.842501
C24	C	-1.107731	-1.274517	0.508112
C25	C	-1.016419	-1.274472	0.508086
C26	C	-0.943640	-1.274441	0.508060
C27	C	-0.852322	-1.274397	0.508035
C28	C	-0.270134	-1.274511	0.508099
C29	C	-0.180516	-1.274556	0.508127
C30	C	-0.493262	-1.508931	0.521569
C31	C	-0.498728	-1.608873	0.527336
C32	C	-0.560814	-0.746435	0.592833
C33	C	-0.555700	-0.652530	0.587437
C34	C	-0.446865	-0.659128	0.472629
C35	C	-0.451979	-0.753033	0.478024
C36	C	-0.508956	-0.796683	0.538127
C37	C	-0.514074	-0.890591	0.543517
C38	C	-0.405236	-0.897187	0.428714
C39	C	-0.400121	-0.803282	0.423318
C40	C	-0.469089	-1.287889	0.274426
C41	C	-0.464042	-1.293810	0.174497
C42	C	-0.408817	-1.359429	1.036969
C43	C	-0.413353	-1.354033	1.130872
C44	C	-0.510198	-1.238977	1.124211
C45	C	-0.505662	-1.244374	1.030308
C46	C	-0.454971	-1.304603	0.986690
C47	C	-0.450441	-1.310004	0.892786
C48	C	-0.547281	-1.194945	0.886127
C49	C	-0.551817	-1.189548	0.980030
H50	H	-0.560469	-0.926129	0.592455
H51	H	-0.353730	-0.767729	0.374387
O52	O	-0.592194	-1.141638	0.837423
C53	C	-0.637886	-1.087306	0.896061
H54	H	-0.645927	-1.120287	0.965121
H55	H	-0.699576	-1.079237	0.868359
H56	H	-0.605105	-1.018459	0.902118
O57	O	-0.616182	-0.788698	0.651287
C58	C	-0.660876	-0.724211	0.698396
H59	H	-0.624364	-0.657097	0.697731
H60	H	-0.674476	-0.747287	0.770781
H61	H	-0.719925	-0.716103	0.664772
H62	H	-0.409167	-1.359047	0.857274
O63	O	-0.368493	-1.407385	1.179578
C64	C	-0.322765	-1.461681	1.120938
H65	H	-0.352728	-1.468627	1.054172
H66	H	-0.319345	-1.530970	1.152157
H67	H	-0.259249	-1.429354	1.109069
O68	O	-0.559407	-1.180539	1.166733
C69	C	-0.553484	-1.187510	1.260394
H70	H	-0.531502	-1.256182	1.277228
H71	H	-0.615260	-1.179313	1.295727
H72	H	-0.508903	-1.132674	1.283962
O73	O	-0.605962	-0.603671	0.640669
C74	C	-0.559986	-0.546017	0.695696
H75	H	-0.498306	-0.574007	0.702999
H76	H	-0.592524	-0.540985	0.764775
H77	H	-0.551952	-0.476440	0.663810
H78	H	-0.363011	-0.938110	0.384166
O79	O	-0.391615	-0.616667	0.414181
C80	C	-0.431646	-0.565620	0.352911
H81	H	-0.496404	-0.594231	0.348810
H82	H	-0.398960	-0.568483	0.283723
H83	H	-0.431945	-0.492871	0.376654
H84	H	-0.367547	-1.408475	1.001455
O85	O	-0.601150	-1.131172	1.022453
C86	C	-0.658630	-1.179219	1.079729
H87	H	-0.666112	-1.251661	1.055515
H88	H	-0.718956	-1.146613	1.078905
H89	H	-0.637305	-1.178235	1.151080
