data_functionalizedCrystal
_audit_creation_method	'MofGen! by Chris Wilmer'
_symmetry_space_group_name_H-M	'P1'
_symmetry_Int_Tables_number	1
_symmetry_cell_setting	triclinic
loop_
_symmetry_equiv_pos_as_xyz
  x,y,z
_cell_length_a	16.120530
_cell_length_b	16.120484
_cell_length_c	16.120297
_cell_angle_alpha	95.614431
_cell_angle_beta	89.871860
_cell_angle_gamma	89.832673
loop_
_atom_site_label
_atom_site_type_symbol
_atom_site_fract_x
_atom_site_fract_y
_atom_site_fract_z
Zn1	Zn	1.224987	0.422264	0.554813
Zn2	Zn	1.224883	0.554948	0.422118
Zn3	Zn	1.093726	0.408180	0.408056
Zn4	Zn	1.078880	0.554181	0.554051
O5	O	1.155619	0.484893	0.484760
O6	O	1.341009	0.446081	0.543415
O7	O	1.213654	0.529906	0.303620
O8	O	1.117395	0.293418	0.421958
O9	O	1.340932	0.543563	0.445925
O10	O	1.213832	0.303765	0.529780
O11	O	1.117294	0.422076	0.293289
O12	O	0.975721	0.421332	0.421218
O13	O	1.092092	0.542255	0.670785
O14	O	0.964814	0.528598	0.528480
O15	O	1.199436	0.445336	0.671345
O16	O	1.199258	0.671477	0.445185
O17	O	1.091990	0.670913	0.542116
C18	C	0.940181	0.473354	0.473241
C19	C	0.848013	0.468438	0.468334
C20	C	1.144023	0.701438	0.495113
C21	C	1.139137	0.794083	0.499574
C22	C	0.679262	0.459445	0.459381
C23	C	0.632810	0.510407	0.510202
C24	C	0.538911	0.505403	0.505220
C25	C	0.773169	0.464448	0.464361
C26	C	1.144119	0.495281	0.702152
C27	C	1.139219	0.499708	0.794791
C28	C	1.371899	0.496479	0.496324
C29	C	1.464064	0.501416	0.501252
C30	C	1.167282	0.267505	0.474385
C31	C	1.172251	0.174867	0.469964
C32	C	1.130220	0.963706	0.507736
C33	C	1.181166	1.005249	0.461804
C34	C	1.176204	1.099633	0.466346
C35	C	1.135180	0.869313	0.503196
C36	C	1.167125	0.474489	0.268213
C37	C	1.172198	0.469836	0.175571
C38	C	1.130243	0.507770	0.964403
C39	C	1.181172	0.461776	1.005965
C40	C	1.176177	0.466262	1.100342
C41	C	1.135236	0.503285	0.870017
H42	H	0.648511	0.412060	0.412135
H43	H	1.228508	0.969931	0.419069
C44	C	1.066263	1.011411	0.565463
C45	C	1.061330	1.107160	0.569974
C46	C	0.997373	1.154877	0.627697
C47	C	0.938347	1.106843	0.680909
C48	C	0.943277	1.011088	0.676400
C49	C	1.007235	0.963372	0.618676
H50	H	1.105026	1.142722	0.530582
H51	H	0.993723	1.225761	0.631035
H52	H	0.891002	1.142166	0.723640
H53	H	0.899581	0.975526	0.715792
H54	H	1.010884	0.892487	0.615338
H55	H	0.663563	0.557794	0.557453
H56	H	1.228524	0.419031	0.970668
C57	C	1.066280	0.565519	1.012080
C58	C	1.061321	0.569981	1.107824
C59	C	0.997362	0.627732	1.155513
C60	C	0.938362	0.681022	1.107459
C61	C	0.943320	0.676562	1.011710
C62	C	1.007278	0.618811	0.964021
H63	H	1.104998	0.530531	1.143401
H64	H	0.993693	0.631033	1.226393
H65	H	0.891016	0.723773	1.142762
H66	H	0.899643	0.716012	0.976133
H67	H	1.010948	0.615509	0.893141
