data_functionalizedCrystal
_audit_creation_method	'MofGen! by Chris Wilmer'
_symmetry_space_group_name_H-M	'P1'
_symmetry_Int_Tables_number	1
_symmetry_cell_setting	triclinic
loop_
_symmetry_equiv_pos_as_xyz
  x,y,z
_cell_length_a	19.077105
_cell_length_b	16.625546
_cell_length_c	19.076919
_cell_angle_alpha	92.269917
_cell_angle_beta	90.076224
_cell_angle_gamma	87.718759
loop_
_atom_site_label
_atom_site_type_symbol
_atom_site_fract_x
_atom_site_fract_y
_atom_site_fract_z
Zn1	Zn	1.058283	-0.390077	-0.440407
Zn2	Zn	1.062927	-0.519720	-0.322896
Zn3	Zn	0.945500	-0.379275	-0.318200
Zn4	Zn	0.940748	-0.519234	-0.435649
O5	O	1.001864	-0.452076	-0.379288
O6	O	1.157231	-0.411998	-0.428775
O7	O	1.051282	-0.496773	-0.223942
O8	O	0.960506	-0.267879	-0.334437
O9	O	1.160642	-0.507246	-0.342441
O10	O	1.043367	-0.275815	-0.424222
O11	O	0.965009	-0.393589	-0.220492
O12	O	0.846538	-0.393117	-0.329824
O13	O	0.952407	-0.506418	-0.534611
O14	O	0.843047	-0.495944	-0.416113
O15	O	1.038759	-0.411527	-0.538107
O16	O	1.046674	-0.632485	-0.337827
O17	O	0.956910	-0.632127	-0.420666
C18	C	0.819296	-0.443306	-0.371943
C19	C	0.741192	-0.439575	-0.368817
C20	C	0.702702	-0.491432	-0.412204
C21	C	0.629314	-0.487916	-0.409270
C22	C	0.594418	-0.432544	-0.362946
C23	C	0.632913	-0.380681	-0.319557
C24	C	0.706299	-0.384194	-0.322495
C25	C	0.375130	-0.416284	-0.349354
C26	C	0.301739	-0.412776	-0.346418
C27	C	0.298145	-0.520010	-0.436133
C28	C	0.371533	-0.523522	-0.439063
C29	C	0.410021	-0.471655	-0.395677
N30	N	0.519405	-0.428950	-0.359945
N31	N	0.485034	-0.475247	-0.398682
C32	C	1.001799	-0.661563	-0.379256
C33	C	1.001834	-0.751186	-0.379268
C34	C	1.001954	-1.079371	-0.379346
C35	C	1.001918	-0.988060	-0.379327
C36	C	1.001894	-0.915281	-0.379307
C37	C	1.001859	-0.823965	-0.379288
C38	C	1.185146	-0.460881	-0.386662
C39	C	1.263249	-0.464634	-0.389805
C40	C	0.994535	-0.460123	-0.562568
C41	C	0.991412	-0.463552	-0.640671
C42	C	1.001948	-0.241774	-0.379336
C43	C	1.001984	-0.152155	-0.379357
C44	C	1.034901	-0.415760	-0.679185
C45	C	1.031958	-0.418978	-0.752571
C46	C	0.985529	-0.469993	-0.787441
C47	C	0.942035	-0.517786	-0.748922
C48	C	0.944975	-0.514563	-0.675537
C49	C	0.971911	-0.484926	-1.006722
C50	C	0.968976	-0.488147	-1.080112
C51	C	1.058898	-0.389338	-1.083755
C52	C	1.061837	-0.386123	-1.010369
C53	C	1.018341	-0.433913	-0.971856
N54	N	0.982521	-0.473286	-0.862453
N55	N	1.021346	-0.430616	-0.896846
C56	C	1.009205	-0.444005	-0.196723
C57	C	1.012465	-0.440356	-0.118626
H58	H	0.399940	-0.568613	-0.476784
C59	C	1.065396	-0.284972	-1.166694
C60	C	1.106701	-0.336800	-1.126089
H61	H	1.094909	-0.252531	-1.192825
H62	H	1.037334	-0.315816	-1.197962
H63	H	1.035941	-0.251408	-1.136831
H64	H	1.136153	-0.370368	-1.155952
H65	H	1.134776	-0.305952	-1.094817
C66	C	1.121147	-0.321000	-0.748802
C67	C	1.079768	-0.366450	-0.794905
H68	H	1.150666	-0.288574	-0.774939
H69	H	1.091693	-0.287429	-0.718954
H70	H	1.149153	-0.356177	-0.721253
H71	H	1.051758	-0.331273	-0.822451
H72	H	1.109225	-0.400024	-0.824765
H73	H	0.266800	-0.562235	-0.471456
H74	H	0.273329	-0.367677	-0.308699
H75	H	0.597979	-0.530145	-0.444600
H76	H	0.936503	-0.523853	-0.975374
C77	C	0.371301	-0.309936	-0.260382
C78	C	0.417431	-0.359274	-0.301663
H79	H	0.397420	-0.274742	-0.230937
H80	H	0.341466	-0.279133	-0.289903
H81	H	0.343742	-0.342475	-0.232302
H82	H	0.444987	-0.326735	-0.329748
H83	H	0.447279	-0.390080	-0.272140
C84	C	0.522015	-0.327680	-0.275219
C85	C	0.594557	-0.319812	-0.268639
H86	H	0.498339	-0.290104	-0.243780
H87	H	0.508118	-0.317464	-0.321965
H88	H	0.510393	-0.380806	-0.264364
H89	H	0.606181	-0.266687	-0.279499
H90	H	0.608460	-0.330022	-0.221883
H91	H	0.731109	-0.536524	-0.449924
C92	C	0.880373	-0.585488	-1.069143
C93	C	0.917934	-0.544223	-1.118443
H94	H	0.848863	-0.620101	-1.092808
H95	H	0.912118	-0.616544	-1.041746
H96	H	0.854656	-0.547800	-1.039446
H97	H	0.943655	-0.581911	-1.148137
H98	H	0.886184	-0.513165	-1.145852
C99	C	1.150420	-0.288769	-1.021345
C100	C	1.112870	-0.330041	-0.972042
H101	H	1.181924	-0.254145	-0.997681
H102	H	1.176138	-0.326445	-1.051041
H103	H	1.118663	-0.257715	-1.048742
H104	H	1.144628	-0.361100	-0.944648
H105	H	1.087152	-0.292359	-0.942334
H106	H	0.904228	-0.559320	-0.777319
C107	C	0.911616	-0.648461	-0.651521
C108	C	0.897183	-0.567105	-0.633194
H109	H	0.882114	-0.680897	-0.625375
H110	H	0.903212	-0.657678	-0.700209
H111	H	0.959311	-0.661983	-0.641397
H112	H	0.849489	-0.553582	-0.643323
H113	H	0.905581	-0.557883	-0.584495
C114	C	0.702486	-0.277859	-0.233511
C115	C	0.748611	-0.327198	-0.274796
H116	H	0.728608	-0.242674	-0.204061
H117	H	0.672655	-0.247046	-0.263028
H118	H	0.674921	-0.310398	-0.205435
H119	H	0.776172	-0.294659	-0.302876
H120	H	0.778454	-0.358013	-0.245276
C121	C	1.048011	-0.304150	-0.597079
C122	C	1.085936	-0.359680	-0.640858
H123	H	1.079519	-0.269529	-0.573417
H124	H	1.016266	-0.273101	-0.624482
H125	H	1.022537	-0.332162	-0.563638
H126	H	1.111406	-0.331668	-0.674302
H127	H	1.117694	-0.390732	-0.613453
