data_functionalizedCrystal
_audit_creation_method	'MofGen! by Chris Wilmer'
_symmetry_space_group_name_H-M	'P1'
_symmetry_Int_Tables_number	1
_symmetry_cell_setting	triclinic
loop_
_symmetry_equiv_pos_as_xyz
  x,y,z
_cell_length_a	9.065218
_cell_length_b	16.109304
_cell_length_c	8.140239
_cell_angle_alpha	89.999293
_cell_angle_beta	89.997198
_cell_angle_gamma	84.239262
loop_
_atom_site_label
_atom_site_type_symbol
_atom_site_fract_x
_atom_site_fract_y
_atom_site_fract_z
O1	O	1.957451	0.121905	-0.136606
O2	O	1.527924	0.131904	-0.136607
O3	O	1.754485	0.005964	-0.136608
O4	O	1.730890	0.247845	-0.136606
O5	O	1.754472	0.005963	0.136619
O6	O	1.527912	0.131903	0.136620
O7	O	1.957438	0.121903	0.136621
Zn8	Zn	1.742673	0.126903	0.180001
Zn9	Zn	1.742689	0.126905	-0.179987
O10	O	1.730877	0.247843	0.136621
C11	C	1.472954	0.130942	0.000006
C12	C	1.309181	0.128069	0.000005
C13	C	1.753522	-0.025019	0.000002
C14	C	1.750654	-0.117336	-0.000009
C15	C	1.744036	-0.329723	-0.148939
C16	C	1.741328	-0.416464	-0.148937
C17	C	1.741322	-0.416463	0.148950
C18	C	1.744019	-0.329723	0.148946
C19	C	1.745384	-0.286356	-0.000003
C20	C	1.739978	-0.459837	0.000002
C21	C	1.737042	-0.553885	0.000005
C22	C	1.748317	-0.192301	-0.000006
C23	C	2.012408	0.122865	0.000004
C24	C	2.176181	0.125739	-0.000006
C25	C	1.731840	0.278826	0.000008
C26	C	1.734708	0.371143	0.000008
N27	N	1.742672	0.126901	0.425684
N28	N	1.742701	0.126900	-0.425670
H29	H	1.745143	-0.294416	-0.270223
H30	H	1.745108	-0.294411	0.270236
C31	C	1.739853	-0.464168	-0.312772
C32	C	1.868263	-0.460721	-0.435643
C33	C	1.866786	-0.508423	-0.599486
C34	C	1.736898	-0.559572	-0.640458
C35	C	1.608478	-0.563021	-0.517584
C36	C	1.609956	-0.515319	-0.353741
H37	H	1.964422	-0.422856	-0.405315
H38	H	1.961852	-0.505870	-0.690445
H39	H	1.735805	-0.594884	-0.761744
H40	H	1.512319	-0.600886	-0.547912
H41	H	1.514890	-0.517872	-0.262782
H42	H	1.740214	-0.451783	0.270219
