data_functionalizedCrystal
_audit_creation_method	'MofGen! by Chris Wilmer'
_symmetry_space_group_name_H-M	'P1'
_symmetry_Int_Tables_number	1
_symmetry_cell_setting	triclinic
loop_
_symmetry_equiv_pos_as_xyz
  x,y,z
_cell_length_a	10.540539
_cell_length_b	15.944551
_cell_length_c	9.016244
_cell_angle_alpha	89.996810
_cell_angle_beta	89.994699
_cell_angle_gamma	84.012115
loop_
_atom_site_label
_atom_site_type_symbol
_atom_site_fract_x
_atom_site_fract_y
_atom_site_fract_z
O1	O	1.684281	0.118370	-0.123274
O2	O	1.314716	0.129523	-0.123293
O3	O	1.509591	0.001731	-0.123269
O4	O	1.489407	0.246161	-0.123297
O5	O	1.509562	0.001734	0.123411
O6	O	1.314688	0.129525	0.123388
O7	O	1.684253	0.118372	0.123407
Cu8	Cu	1.499468	0.123949	0.145921
Cu9	Cu	1.499502	0.123946	-0.145807
O10	O	1.489378	0.246164	0.123384
C11	C	1.267411	0.128688	0.000046
C12	C	1.126497	0.126185	0.000039
C13	C	0.944375	0.030298	0.000626
C14	C	1.090959	0.032835	0.000054
C15	C	1.064229	0.171108	-0.140828
C16	C	0.917728	0.167922	-0.140930
C17	C	0.917181	0.169824	0.139592
C18	C	1.064151	0.170684	0.141438
C19	C	1.508739	-0.029566	0.000071
C20	C	1.506227	-0.122827	0.000072
C21	C	1.379430	-0.338440	0.000045
C22	C	1.438296	-0.399105	0.121677
C23	C	1.501682	-0.293580	0.000060
C24	C	1.438353	-0.399091	-0.121531
C25	C	1.497283	-0.458519	0.000043
C26	C	1.560582	-0.353017	0.121792
C27	C	1.560622	-0.352996	-0.121525
C28	C	1.619577	-0.413643	0.000136
C29	C	1.504213	-0.198563	0.000072
C30	C	1.494762	-0.553535	0.000042
C31	C	1.731559	0.119207	0.000065
C32	C	1.872473	0.121710	0.000062
C33	C	1.490231	0.277461	0.000040
C34	C	1.492743	0.370722	0.000029
N35	N	1.499453	0.123951	0.351108
N36	N	1.499526	0.123937	-0.350993
C37	C	1.394894	0.192082	0.586128
C38	C	1.395120	0.192337	0.414237
C39	C	1.631905	0.143889	0.413450
C40	C	1.631333	0.144372	0.585395
C41	C	1.472882	0.035659	0.585659
C42	C	1.469829	0.036231	0.413705
H43	H	0.868845	0.235058	-0.147331
N44	N	1.245022	-0.295115	0.000193
H45	H	1.231012	-0.259113	-0.091702
H46	H	1.182435	-0.338951	0.001257
H47	H	1.721141	-0.446196	0.000210
H48	H	1.612297	-0.332559	-0.224355
H49	H	1.386641	-0.419477	-0.224368
N50	N	0.880975	0.123930	-0.280390
H51	H	0.838627	0.072089	-0.253073
H52	H	0.819820	0.163496	-0.340253
H53	H	1.655936	0.207567	0.370366
H54	H	1.378403	0.016683	0.629105
H55	H	1.133201	-0.002764	-0.101092
H56	H	1.541079	-0.016915	0.370738
H57	H	1.087450	0.238743	0.149936
H58	H	1.711623	0.096739	0.626986
N59	N	1.369788	-0.426139	0.257883
H60	H	1.293925	-0.455789	0.226858
H61	H	1.429971	-0.465804	0.318761
N62	N	1.092610	0.261912	-0.147809
H63	H	1.146233	0.274834	-0.059512
H64	H	1.140601	0.271506	-0.242226
N65	N	1.264711	0.176450	0.358392
H66	H	1.206560	0.169218	0.445473
H67	H	1.228234	0.225927	0.296330
N68	N	1.264063	0.176445	0.640950
H69	H	1.271342	0.125038	0.707083
H70	H	1.225790	0.227096	0.698902
N71	N	0.853417	0.259139	0.140852
H72	H	0.795845	0.268426	0.051531
H73	H	0.801200	0.268860	0.234369
N74	N	1.417152	0.278355	0.643255
H75	H	1.494712	0.273489	0.709698
H76	H	1.431458	0.316516	0.556774
N77	N	1.628999	-0.326149	0.258166
H78	H	1.705396	-0.296981	0.227338
H79	H	1.569030	-0.286096	0.318596
H80	H	1.412128	0.257831	0.373084
N81	N	1.121210	0.129775	-0.279694
H82	H	1.187345	0.081961	-0.251677
H83	H	1.051669	0.107063	-0.340046
N84	N	0.905016	-0.018365	-0.132400
H85	H	0.840814	0.018547	-0.193030
H86	H	0.982484	-0.036228	-0.195212
H87	H	0.886034	0.139615	0.246368
N88	N	1.662431	0.229680	0.638505
H89	H	1.676379	0.266619	0.550222
H90	H	1.589285	0.256849	0.700025
H91	H	0.916281	-0.006580	0.101649
H92	H	1.711617	0.095612	0.372555
H93	H	1.372396	0.021118	0.372960
N94	N	1.573933	-0.031538	0.639515
H95	H	1.660526	-0.017909	0.604715
H96	H	1.572548	-0.033580	0.751455
N97	N	1.148024	-0.013986	0.133815
H98	H	1.127902	-0.074512	0.130165
H99	H	1.243553	-0.012365	0.133630
N100	N	1.118976	0.127219	0.279489
H101	H	1.183929	0.078905	0.250574
H102	H	1.161423	0.168848	0.341959
