data_functionalizedCrystal
_audit_creation_method	'MofGen! by Chris Wilmer'
_symmetry_space_group_name_H-M	'P1'
_symmetry_Int_Tables_number	1
_symmetry_cell_setting	triclinic
loop_
_symmetry_equiv_pos_as_xyz
  x,y,z
_cell_length_a	16.956984
_cell_length_b	8.597304
_cell_length_c	16.053802
_cell_angle_alpha	84.919063
_cell_angle_beta	87.610701
_cell_angle_gamma	80.732613
loop_
_atom_site_label
_atom_site_type_symbol
_atom_site_fract_x
_atom_site_fract_y
_atom_site_fract_z
O1	O	1.062052	0.057504	-0.073569
O2	O	0.830511	0.112152	-0.077500
O3	O	0.950062	-0.142573	-0.059175
O4	O	0.942502	0.312228	-0.091893
O5	O	0.943481	-0.128606	0.078680
O6	O	0.823930	0.126118	0.060355
O7	O	1.055471	0.071470	0.064286
Zn8	Zn	0.938656	0.101012	0.084207
Zn9	Zn	0.947327	0.082610	-0.097421
O10	O	0.935921	0.326195	0.045961
C11	C	0.797544	0.121933	-0.008774
C12	C	0.709118	0.130253	-0.009372
C13	C	0.675464	-0.008850	0.000636
C14	C	0.592377	-0.001024	0.000067
C15	C	0.542945	0.145907	-0.010504
C16	C	0.576605	0.285020	-0.020516
C17	C	0.659690	0.277192	-0.019953
C18	C	0.293610	0.184654	-0.013298
C19	C	0.210520	0.192471	-0.013858
C20	C	0.226298	-0.093574	0.006725
C21	C	0.309384	-0.101388	0.007292
C22	C	0.343036	0.037724	-0.002724
N23	N	0.458017	0.153910	-0.011084
N24	N	0.427963	0.029719	-0.002151
C25	C	0.945593	-0.193512	0.013918
C26	C	0.942073	-0.366101	0.026329
C27	C	1.088439	0.061689	-0.004442
C28	C	1.176866	0.053369	-0.003849
C29	C	0.940390	0.377134	-0.027133
C30	C	0.943910	0.549723	-0.039550
N31	N	0.932744	0.113569	0.208164
N32	N	0.953245	0.070040	-0.221377
C33	C	0.983633	0.005217	0.259653
C34	C	0.979505	0.014014	0.346427
C35	C	0.924492	0.131172	0.381710
C36	C	0.873598	0.239529	0.330215
C37	C	0.877723	0.230723	0.243443
C38	C	0.906475	0.169592	0.640356
C39	C	0.902356	0.178392	0.727134
C40	C	1.008262	-0.047125	0.743340
C41	C	1.012385	-0.055915	0.656566
C42	C	0.961489	0.052437	0.605079
N43	N	0.920273	0.140170	0.470406
N44	N	0.965704	0.043431	0.516384
H45	H	0.198889	-0.206832	0.014870
H46	H	0.836283	0.318953	0.201521
C47	C	1.072895	-0.184797	0.617761
H48	H	1.102607	-0.248078	0.660856
H49	H	1.108278	-0.136476	0.580175
H50	H	1.045124	-0.249370	0.588324
C51	C	0.729831	-0.170476	0.012260
H52	H	0.697886	-0.252199	0.018130
H53	H	0.760279	-0.174617	0.060979
H54	H	0.764862	-0.184338	-0.035174
C55	C	1.064238	-0.166318	0.799974
H56	H	1.097594	-0.237348	0.766532
H57	H	1.033256	-0.224017	0.838233
H58	H	1.096409	-0.111122	0.830088
C59	C	0.555360	-0.154037	0.011086
H60	H	0.596699	-0.242662	0.017475
H61	H	0.525572	-0.161815	-0.036776
H62	H	0.520982	-0.152044	0.059373
H63	H	0.948174	-0.390308	-0.105451
C64	C	0.696710	0.430204	-0.030961
H65	H	0.655372	0.518834	-0.037332
H66	H	0.731088	0.428223	-0.079243
H67	H	0.726498	0.437969	0.016909
H68	H	0.349626	-0.221035	0.015904
H69	H	0.865035	0.257819	0.598441
C70	C	0.936302	-0.447107	0.115362
H71	H	0.934614	-0.556371	0.112312
H72	H	0.889101	-0.399616	0.143066
H73	H	0.981645	-0.435331	0.145632
C74	C	0.156146	0.354101	-0.025500
H75	H	0.188088	0.435830	-0.031395
H76	H	0.121109	0.367985	0.021922
H77	H	0.125706	0.358203	-0.074227
H78	H	1.028433	-0.090179	0.230932
C79	C	0.841796	0.307194	0.765949
H80	H	0.812057	0.370433	0.722860
H81	H	0.869517	0.371807	0.795408
H82	H	0.806432	0.258768	0.803519
C83	C	0.813087	0.368402	0.369023
H84	H	0.817924	0.358141	0.428075
H85	H	0.760432	0.356847	0.355547
H86	H	0.823586	0.469740	0.347397
C87	C	1.035490	-0.105160	0.403060
H88	H	1.068852	-0.176179	0.369618
H89	H	1.004518	-0.162873	0.441322
H90	H	1.067654	-0.049943	0.433170
H91	H	0.536351	0.404653	-0.029130
C92	C	0.330617	0.337672	-0.024299
H93	H	0.289276	0.426296	-0.030664
H94	H	0.364997	0.335712	-0.072579
H95	H	0.360403	0.345428	0.023574
