data_functionalizedCrystal
_audit_creation_method	'MofGen! by Chris Wilmer'
_symmetry_space_group_name_H-M	'P1'
_symmetry_Int_Tables_number	1
_symmetry_cell_setting	triclinic
loop_
_symmetry_equiv_pos_as_xyz
  x,y,z
_cell_length_a	14.853569
_cell_length_b	13.330367
_cell_length_c	14.853567
_cell_angle_alpha	90.002150
_cell_angle_beta	83.635248
_cell_angle_gamma	89.996941
loop_
_atom_site_label
_atom_site_type_symbol
_atom_site_fract_x
_atom_site_fract_y
_atom_site_fract_z
O1	O	1.196365	-0.083369	0.117707
O2	O	1.696365	0.416631	0.617707
O3	O	0.933906	-0.083380	0.131727
O4	O	1.433906	0.416620	0.631727
O5	O	1.072146	-0.083377	-0.006513
O6	O	1.572146	0.416623	0.493487
O7	O	1.058125	-0.083372	0.255946
O8	O	1.558125	0.416628	0.755946
O9	O	1.072132	0.083470	-0.006509
O10	O	1.572132	0.583470	0.493491
O11	O	0.933891	0.083467	0.131731
O12	O	1.433891	0.583467	0.631731
O13	O	1.196351	0.083478	0.117711
O14	O	1.696351	0.583478	0.617711
Cu15	Cu	1.065120	0.098707	0.124721
Cu16	Cu	1.565120	0.598707	0.624721
Cu17	Cu	1.065137	-0.098609	0.124716
Cu18	Cu	1.565137	0.401391	0.624716
O19	O	1.058110	0.083475	0.255950
O20	O	1.558110	0.583475	0.755950
C21	C	1.071504	0.000043	-0.040100
C22	C	1.571504	0.500043	0.459900
C23	C	1.069600	0.000035	-0.140183
C24	C	1.569600	0.500035	0.359817
C25	C	0.900310	0.000042	0.131093
C26	C	1.400310	0.500042	0.631093
C27	C	0.800226	0.000037	0.129189
C28	C	1.300226	0.500037	0.629189
C29	C	0.763850	0.000032	0.046178
C30	C	1.263850	0.500032	0.546178
C31	C	0.742560	0.000047	0.210410
C32	C	1.242560	0.500047	0.710410
C33	C	0.648526	0.000048	0.208624
C34	C	1.148526	0.500048	0.708624
C35	C	0.612150	0.000043	0.125613
C36	C	1.112150	0.500043	0.625613
C37	C	0.669807	0.000036	0.044389
C38	C	1.169807	0.500036	0.544389
C39	C	0.590862	0.000065	0.289847
C40	C	1.090862	0.500065	0.789847
C41	C	0.496821	0.000067	0.288064
C42	C	0.996821	0.500067	0.788064
C43	C	0.460443	0.000054	0.205052
C44	C	0.960443	0.500054	0.705052
C45	C	0.518107	0.000047	0.123824
C46	C	1.018107	0.500047	0.623824
C47	C	0.481730	0.000042	0.040813
C48	C	0.981730	0.500042	0.540813
C49	C	0.539393	0.000027	-0.040415
C50	C	1.039393	0.500027	0.459585
C51	C	0.633429	0.000024	-0.038623
C52	C	1.133429	0.500024	0.461377
C53	C	0.366407	0.000057	0.203259
C54	C	0.866407	0.500057	0.703259
C55	C	0.387688	0.000046	0.039024
C56	C	0.887688	0.500046	0.539024
C57	C	1.229947	0.000054	0.118344
C58	C	1.729947	0.500054	0.618344
C59	C	1.330030	0.000052	0.120249
C60	C	1.830030	0.500052	0.620249
N61	N	1.065115	0.237489	0.124724
N62	N	1.565115	0.737489	0.624724
N63	N	1.065149	-0.237390	0.124706
N64	N	1.565149	0.262610	0.624706
C65	C	1.003893	0.290013	0.185918
C66	C	1.503893	0.790013	0.685918
C67	C	1.126341	0.289993	0.063527
C68	C	1.626341	0.789993	0.563527
C69	C	1.126350	0.395011	0.063523
C70	C	1.626350	0.895011	0.563523
C71	C	1.065129	0.447535	0.124717
C72	C	1.565129	0.947535	0.624717
C73	C	1.003899	0.395041	0.185914
C74	C	1.503899	0.895041	0.685914
C75	C	1.187574	0.447513	0.002321
C76	C	1.687574	0.947513	0.502321
C77	C	1.187584	0.552538	0.002314
C78	C	1.687584	1.052538	0.502314
C79	C	1.126367	0.605064	0.063513
C80	C	1.626367	1.105064	0.563513
C81	C	1.065135	0.552563	0.124713
C82	C	1.565135	1.052563	0.624713
C83	C	1.003913	0.605087	0.185907
C84	C	1.503913	1.105087	0.685907
C85	C	0.942685	0.552588	0.247113
C86	C	1.442685	1.052588	0.747113
C87	C	0.942681	0.447567	0.247113
C88	C	1.442681	0.947567	0.747113
C89	C	1.126370	0.710086	0.063512
C90	C	1.626370	1.210086	0.563512
C91	C	1.003919	0.710115	0.185904
C92	C	1.503919	1.210115	0.685904
C93	C	0.979434	0.000050	-0.552718
C94	C	1.479434	0.500050	-0.052718
C95	C	1.143667	0.000057	-0.573998
C96	C	1.643667	0.500057	-0.073998
C97	C	1.145457	0.000051	-0.479964
C98	C	1.645457	0.500051	0.020036
C99	C	1.064234	0.000046	-0.422303
C100	C	1.564234	0.500046	0.077697
C101	C	0.981222	0.000047	-0.458675
C102	C	1.481222	0.500047	0.041325
C103	C	1.228468	0.000060	-0.443585
C104	C	1.728468	0.500060	0.056415
C105	C	1.230262	0.000055	-0.349545
C106	C	1.730262	0.500055	0.150455
C107	C	1.149038	0.000043	-0.291882
C108	C	1.649038	0.500043	0.208118
C109	C	1.066022	0.000043	-0.328260
C110	C	1.566022	0.500043	0.171740
C111	C	0.984800	0.000038	-0.270599
C112	C	1.484800	0.500038	0.229401
C113	C	0.901783	0.000031	-0.306974
C114	C	1.401783	0.500031	0.193026
C115	C	0.899998	0.000035	-0.401012
C116	C	1.399998	0.500035	0.098988
C117	C	1.150822	0.000039	-0.197845
C118	C	1.650822	0.500039	0.302155
C119	C	0.986587	0.000036	-0.176556
C120	C	1.486587	0.500036	0.323444
C121	C	1.058753	0.000053	0.289537
C122	C	1.558753	0.500053	0.789537
C123	C	1.060657	0.000055	0.389621
C124	C	1.560657	0.500055	0.889621
H125	H	0.358078	0.000036	-0.028574
H126	H	0.858078	0.500036	0.471426
H127	H	1.297859	0.000060	-0.319937
H128	H	1.797859	0.500060	0.180063
H129	H	0.509763	0.000016	-0.108003
H130	H	1.009763	0.500016	0.391997
H131	H	0.772184	0.000058	0.277994
H132	H	1.272184	0.500058	0.777994
Br133	Br	0.640234	0.000070	0.402497
Br134	Br	1.140234	0.500070	0.902497
Br135	Br	1.338692	0.000094	-0.521841
Br136	Br	1.838692	0.500094	-0.021841
H137	H	0.449880	0.000077	0.354205
H138	H	0.949880	0.500077	0.854205
Br139	Br	0.920835	0.781390	0.268964
Br140	Br	1.420835	1.281390	0.768964
Br141	Br	0.859593	0.623882	0.330150
Br142	Br	1.359593	1.123882	0.830150
H143	H	1.176182	0.247224	0.013700
H144	H	1.676182	0.747224	0.513700
H145	H	0.832410	0.000030	-0.430638
H146	H	1.332410	0.500030	0.069362
Br147	Br	0.288156	0.000093	0.313488
Br148	Br	0.788156	0.500093	0.813488
H149	H	0.892830	0.404816	0.296944
H150	H	1.392830	0.904816	0.796944
H151	H	1.218413	0.000052	-0.168232
H152	H	1.718413	0.500052	0.331768
H153	H	1.209794	0.000069	-0.620951
H154	H	1.709794	0.500069	-0.120951
Br155	Br	1.270678	0.623780	-0.080746
Br156	Br	1.770678	1.123780	0.419254
Br157	Br	0.920806	0.218772	0.268985
Br158	Br	1.420806	0.718772	0.768985
H159	H	1.237414	0.404745	-0.047506
H160	H	1.737414	0.904745	0.452494
Br161	Br	1.209452	0.781328	-0.019554
Br162	Br	1.709452	1.281328	0.480446
Br163	Br	0.842100	0.000007	-0.064056
Br164	Br	1.342100	0.500007	0.435944
Br165	Br	0.791556	0.000037	-0.228709
Br166	Br	1.291556	0.500037	0.271291
Br167	Br	0.711688	0.000014	-0.148851
Br168	Br	1.211688	0.500014	0.351149
Br169	Br	0.866774	0.000026	-0.602081
Br170	Br	1.366774	0.500026	-0.102081
H171	H	0.920445	0.000027	-0.129613
H172	H	1.420445	0.500027	0.370387
