data_functionalizedCrystal
_audit_creation_method	'MofGen! by Chris Wilmer'
_symmetry_space_group_name_H-M	'P1'
_symmetry_Int_Tables_number	1
_symmetry_cell_setting	triclinic
loop_
_symmetry_equiv_pos_as_xyz
  x,y,z
_cell_length_a	12.645331
_cell_length_b	16.625546
_cell_length_c	16.625539
_cell_angle_alpha	90.030397
_cell_angle_beta	89.979221
_cell_angle_gamma	89.978553
loop_
_atom_site_label
_atom_site_type_symbol
_atom_site_fract_x
_atom_site_fract_y
_atom_site_fract_z
Zn1	Zn	1.620676	0.321022	-0.455902
Zn2	Zn	2.120676	0.821022	0.044098
Zn3	Zn	1.620549	0.455865	-0.321064
Zn4	Zn	2.120549	0.955865	0.178936
Zn5	Zn	1.443397	0.321048	-0.321082
Zn6	Zn	1.943397	0.821048	0.178918
Zn7	Zn	1.443358	0.455814	-0.455854
Zn8	Zn	1.943358	0.955814	0.044146
O9	O	1.531995	0.388437	-0.388476
O10	O	2.031995	0.888437	0.111524
O11	O	1.769007	0.338920	-0.438028
O12	O	2.269007	0.838920	0.061972
O13	O	1.597012	0.438014	-0.208234
O14	O	2.097012	0.938014	0.291766
O15	O	1.466983	0.208212	-0.338994
O16	O	1.966983	0.708212	0.161006
O17	O	1.768913	0.437989	-0.338964
O18	O	2.268913	0.937989	0.161036
O19	O	1.597229	0.208193	-0.438046
O20	O	2.097229	0.708193	0.061954
O21	O	1.466859	0.338964	-0.208247
O22	O	1.966859	0.838964	0.291753
O23	O	1.295044	0.338914	-0.338947
O24	O	1.795044	0.838914	0.161053
O25	O	1.466916	0.437901	-0.568693
O26	O	1.966916	0.937901	-0.068693
O27	O	1.295016	0.437926	-0.437963
O28	O	1.795016	0.937926	0.062037
O29	O	1.597192	0.338870	-0.568728
O30	O	2.097192	0.838870	-0.068728
O31	O	1.596975	0.568691	-0.338917
O32	O	2.096975	1.068691	0.161083
O33	O	1.466793	0.568653	-0.437946
O34	O	1.966793	1.068653	0.062054
C35	C	1.256565	0.388418	-0.388452
C36	C	1.756565	0.888418	0.111548
C37	C	1.138735	0.388429	-0.388461
C38	C	1.638735	0.888429	0.111539
C39	C	1.532064	0.388377	-0.598785
C40	C	2.032064	0.888377	-0.098785
C41	C	1.532093	0.388352	-0.688406
C42	C	2.032093	0.888352	-0.188406
C43	C	1.531895	0.597928	-0.388442
C44	C	2.031895	1.097928	0.111558
C45	C	1.531949	0.687549	-0.388454
C46	C	2.031949	1.187549	0.111546
C47	C	0.971154	0.325854	-0.326514
C48	C	1.471154	0.825854	0.173486
C49	C	1.093713	0.326016	-0.326241
C50	C	1.593713	0.826016	0.173759
C51	C	1.094207	0.473368	-0.365243
C52	C	1.594207	0.973368	0.134757
C53	C	0.971608	0.473026	-0.364820
C54	C	1.471608	0.973026	0.135180
C55	C	0.971584	0.366874	-0.473867
C56	C	1.471584	0.866874	0.026133
C57	C	1.094190	0.364977	-0.473392
C58	C	1.594190	0.864977	0.026608
C59	C	1.808500	0.388457	-0.388499
C60	C	2.308500	0.888457	0.111501
C61	C	1.926330	0.388466	-0.388510
C62	C	2.426330	0.888466	0.111490
C63	C	1.532124	0.178128	-0.388527
C64	C	2.032124	0.678128	0.111473
C65	C	1.532180	0.088507	-0.388549
C66	C	2.032180	0.588507	0.111451
C67	C	1.532134	1.015725	-0.388538
C68	C	2.032134	1.515725	0.111462
C69	C	1.532079	0.924416	-0.388517
C70	C	2.032079	1.424416	0.111483
C71	C	1.532040	0.851640	-0.388496
C72	C	2.032040	1.351640	0.111504
C73	C	1.531987	0.760326	-0.388476
C74	C	2.031987	1.260326	0.111524
C75	C	1.532142	0.388261	-1.016582
C76	C	2.032142	0.888261	-0.516582
C77	C	1.532126	0.388289	-0.925273
C78	C	2.032126	0.888289	-0.425273
C79	C	1.532118	0.388307	-0.852497
C80	C	2.032118	0.888307	-0.352497
C81	C	1.532101	0.388334	-0.761182
C82	C	2.032101	0.888334	-0.261182
C83	C	1.531987	0.388439	-0.178985
C84	C	2.031987	0.888439	0.321015
C85	C	1.532163	0.388237	-0.089364
C86	C	2.032163	0.888237	0.410636
H87	H	0.941696	0.262680	-0.340912
H88	H	1.441696	0.762680	0.159088
O89	O	0.934621	0.294342	-0.499157
O90	O	1.434621	0.794342	0.000843
C91	C	0.878057	0.304350	-0.571533
C92	C	1.378057	0.804350	-0.071533
H93	H	0.849223	0.369148	-0.576285
H94	H	1.349223	0.869148	-0.076285
H95	H	0.931934	0.290086	-0.624657
H96	H	1.431934	0.790086	-0.124657
C97	C	0.817856	0.167437	-0.566572
C98	C	1.317856	0.667437	-0.066572
C99	C	0.782434	0.247020	-0.572406
C100	C	1.282434	0.747020	-0.072406
H101	H	0.758874	0.132071	-0.567114
H102	H	1.258874	0.632071	-0.067114
H103	H	0.855967	0.160692	-0.517813
H104	H	1.355967	0.660692	-0.017813
H105	H	0.862753	0.155561	-0.610844
H106	H	1.362753	0.655561	-0.110844
H107	H	0.737549	0.258898	-0.528130
H108	H	1.237549	0.758898	-0.028130
H109	H	0.744313	0.253766	-0.621158
H110	H	1.244313	0.753766	-0.121158
H111	H	1.123301	0.302472	-0.490900
H112	H	1.623301	0.802472	0.009100
H113	H	0.942963	0.491337	-0.302420
H114	H	1.442963	0.991337	0.197580
H115	H	0.940307	0.339967	-0.263633
H116	H	1.440307	0.839967	0.236367
O117	O	1.130806	0.415507	-0.531346
O118	O	1.630806	0.915507	-0.031346
C119	C	1.197870	0.473422	-0.496208
C120	C	1.697870	0.973422	0.003792
H121	H	1.178161	0.479688	-0.429583
H122	H	1.678161	0.979688	0.070417
H123	H	1.283703	0.453617	-0.503220
H124	H	1.783703	0.953617	-0.003220
C125	C	1.206006	0.547277	-0.620181
C126	C	1.706006	1.047277	-0.120181
C127	C	1.181794	0.554978	-0.538353
C128	C	1.681794	1.054978	-0.038353
H129	H	1.196095	0.597584	-0.646180
H130	H	1.696095	1.097584	-0.146180
H131	H	1.160828	0.508258	-0.643856
H132	H	1.660828	1.008258	-0.143856
H133	H	1.277534	0.530770	-0.626014
H134	H	1.777534	1.030770	-0.126014
H135	H	1.110265	0.571474	-0.532521
H136	H	1.610265	1.071474	-0.032521
H137	H	1.226961	0.594002	-0.514678
H138	H	1.726961	1.094002	-0.014678
H139	H	1.122993	0.340287	-0.262988
H140	H	1.622993	0.840287	0.237012
O141	O	0.936046	0.530510	-0.416323
O142	O	1.436046	1.030510	0.083677
C143	C	0.824548	0.530768	-0.416415
C144	C	1.324548	1.030768	0.083585
H145	H	0.794248	0.469637	-0.395645
H146	H	1.294248	0.969637	0.104355
H147	H	0.794577	0.579476	-0.373828
H148	H	1.294577	1.079476	0.126172
C149	C	0.821385	0.622914	-0.527610
C150	C	1.321385	1.122914	-0.027610
C151	C	0.784170	0.547829	-0.502107
C152	C	1.284170	1.047829	-0.002107
H153	H	0.796477	0.633442	-0.580467
H154	H	1.296477	1.133442	-0.080467
H155	H	0.896503	0.622743	-0.527547
H156	H	1.396503	1.122743	-0.027547
H157	H	0.796406	0.663496	-0.492113
H158	H	1.296406	1.163496	0.007887
H159	H	0.809160	0.507248	-0.537597
H160	H	1.309160	1.007248	-0.037597
H161	H	0.709055	0.547994	-0.502178
H162	H	1.209055	1.047994	-0.002178
O163	O	1.129498	0.250858	-0.343687
O164	O	1.629498	0.750858	0.156313
C165	C	1.092559	0.227632	-0.420257
C166	C	1.592559	0.727632	0.079743
H167	H	1.018579	0.263609	-0.435793
H168	H	1.518579	0.763609	0.064207
H169	H	1.156436	0.239765	-0.467108
H170	H	1.656436	0.739765	0.032892
C171	C	1.156717	0.093084	-0.400541
C172	C	1.656717	0.593084	0.099459
C173	C	1.065849	0.137267	-0.419620
C174	C	1.565849	0.637267	0.080380
H175	H	1.140246	0.037342	-0.400151
H176	H	1.640246	0.537342	0.099849
H177	H	1.181608	0.108731	-0.348956
H178	H	1.681608	0.608731	0.151044
H179	H	1.209940	0.103204	-0.439587
H180	H	1.709940	0.603204	0.060413
H181	H	1.012634	0.127154	-0.380570
H182	H	1.512634	0.627154	0.119430
H183	H	1.040949	0.121615	-0.471200
H184	H	1.540949	0.621615	0.028800
O185	O	1.129042	0.530603	-0.417299
O186	O	1.629042	1.030603	0.082701
C187	C	1.187072	0.589220	-0.374788
C188	C	1.687072	1.089220	0.125212
H189	H	1.162263	0.588709	-0.308863
H190	H	1.662263	1.088709	0.191137
H191	H	1.275130	0.575263	-0.379533
H192	H	1.775130	1.075263	0.120467
C193	C	1.195495	0.673421	-0.491966
C194	C	1.695495	1.173421	0.008034
C195	C	1.165018	0.672798	-0.410997
C196	C	1.665018	1.172798	0.089003
H197	H	1.181896	0.724976	-0.514303
H198	H	1.681896	1.224976	-0.014303
H199	H	1.156403	0.633929	-0.520608
H200	H	1.656403	1.133929	-0.020608
H201	H	1.268875	0.661787	-0.495909
H202	H	1.768875	1.161787	0.004091
H203	H	1.091637	0.684422	-0.407055
H204	H	1.591637	1.184422	0.092945
H205	H	1.204098	0.712294	-0.382355
H206	H	1.704098	1.212294	0.117645
O207	O	1.130971	0.495537	-0.291640
O208	O	1.630971	0.995537	0.208360
C209	C	1.242362	0.498797	-0.293436
C210	C	1.742362	0.998797	0.206564
H211	H	1.273076	0.459022	-0.344205
H212	H	1.773076	0.959022	0.155795
H213	H	1.268859	0.563480	-0.303940
H214	H	1.768859	1.063480	0.196060
C215	C	1.249030	0.517560	-0.150270
C216	C	1.749030	1.017560	0.349730
C217	C	1.286755	0.468703	-0.212622
C218	C	1.786755	0.968703	0.287378
H219	H	1.276415	0.499001	-0.100420
H220	H	1.776415	0.999001	0.399580
H221	H	1.173984	0.515367	-0.149060
H222	H	1.673984	1.015367	0.350940
H223	H	1.271114	0.571460	-0.159035
H224	H	1.771114	1.071460	0.340965
H225	H	1.264659	0.414807	-0.203862
H226	H	1.764659	0.914807	0.296138
H227	H	1.361798	0.470886	-0.213829
H228	H	1.861798	0.970886	0.286171
O229	O	0.937134	0.421221	-0.529076
O230	O	1.437134	0.921221	-0.029076
C231	C	0.978165	0.401268	-0.605389
C232	C	1.478165	0.901268	-0.105389
H233	H	1.052722	0.363471	-0.597762
H234	H	1.552722	0.863471	-0.097762
H235	H	0.916729	0.365490	-0.640565
H236	H	1.416729	0.865490	-0.140565
C237	C	0.913689	0.525286	-0.660903
C238	C	1.413689	1.025286	-0.160903
C239	C	1.005266	0.478868	-0.651535
C240	C	1.505266	0.978868	-0.151535
H241	H	0.930402	0.573152	-0.689371
H242	H	1.430402	1.073152	-0.189371
H243	H	0.886041	0.538728	-0.609491
H244	H	1.386041	1.038728	-0.109491
H245	H	0.862501	0.495461	-0.690215
H246	H	1.362501	0.995461	-0.190215
H247	H	1.056446	0.508689	-0.622216
H248	H	1.556446	1.008689	-0.122216
H249	H	1.032923	0.465433	-0.702944
H250	H	1.532923	0.965433	-0.202944
