data_functionalizedCrystal
_audit_creation_method	'MofGen! by Chris Wilmer'
_symmetry_space_group_name_H-M	'P1'
_symmetry_Int_Tables_number	1
_symmetry_cell_setting	triclinic
loop_
_symmetry_equiv_pos_as_xyz
  x,y,z
_cell_length_a	16.109301
_cell_length_b	14.519709
_cell_length_c	14.586319
_cell_angle_alpha	89.995260
_cell_angle_beta	89.999213
_cell_angle_gamma	83.570813
loop_
_atom_site_label
_atom_site_type_symbol
_atom_site_fract_x
_atom_site_fract_y
_atom_site_fract_z
O1	O	1.103336	0.118540	-0.076184
O2	O	0.861300	0.133292	-0.076199
O3	O	0.988735	-0.008336	-0.076183
O4	O	0.975901	0.260168	-0.076200
O5	O	0.988726	-0.008338	0.076298
O6	O	0.861291	0.133290	0.076282
O7	O	1.103327	0.118538	0.076296
Cu8	Cu	0.982308	0.125914	0.090212
Cu9	Cu	0.982319	0.125916	-0.090114
O10	O	0.975892	0.260166	0.076280
C11	C	0.830319	0.132693	0.000039
C12	C	0.738021	0.130902	0.000034
C13	C	0.515887	0.210775	0.000040
C14	C	0.429163	0.209085	0.000046
C15	C	0.448747	0.041048	0.000053
C16	C	0.535468	0.042739	0.000053
C17	C	0.569036	0.127606	0.000042
C18	C	0.395591	0.124224	0.000047
C19	C	0.301562	0.122390	0.000054
C20	C	0.663071	0.129440	0.000037
C21	C	0.988132	-0.042696	0.000057
C22	C	0.986340	-0.145073	0.000058
C23	C	0.979741	-0.519955	0.000034
C24	C	0.981574	-0.415651	0.000041
C25	C	0.983041	-0.332517	0.000047
C26	C	0.984873	-0.228207	0.000052
C27	C	1.134307	0.119136	0.000056
C28	C	1.226606	0.120928	0.000055
C29	C	0.976494	0.294526	0.000038
C30	C	0.978287	0.396903	0.000031
N31	N	0.982307	0.125911	0.217044
N32	N	0.982326	0.125911	-0.216946
C33	C	1.038754	0.063219	0.452057
C34	C	1.038756	0.063217	0.548038
C35	C	0.925873	0.188606	0.548034
C36	C	0.925868	0.188603	0.452054
C37	C	0.982313	0.125911	0.404068
C38	C	0.982321	0.125912	0.596029
C39	C	0.982323	0.125910	0.700096
C40	C	0.982310	0.125911	0.299995
H41	H	0.578745	-0.024991	0.000058
H42	H	0.543214	0.279879	0.000037
O43	O	1.093608	0.002228	0.405585
C44	C	1.143437	-0.053090	0.468528
H45	H	1.109353	-0.054138	0.536948
H46	H	1.205242	-0.023128	0.478727
C47	C	1.202285	-0.151289	0.347047
C48	C	1.160419	-0.152582	0.431079
H49	H	1.212763	-0.212660	0.323946
H50	H	1.168716	-0.114018	0.304640
H51	H	1.253784	-0.126316	0.355558
H52	H	1.108916	-0.177544	0.422565
H53	H	1.193979	-0.189860	0.473484
H54	H	0.879918	0.239650	0.587113
O55	O	0.377653	0.289961	-0.000001
C56	C	0.425881	0.365224	0.000014
H57	H	0.490569	0.341797	-0.028854
H58	H	0.432096	0.391236	0.073165
C59	C	0.303335	0.472716	-0.024330
C60	C	0.382783	0.443945	-0.059794
H61	H	0.276749	0.521277	-0.061219
H62	H	0.270842	0.422011	-0.024337
H63	H	0.308525	0.494386	0.036628
H64	H	0.377592	0.422264	-0.120747
H65	H	0.415275	0.494648	-0.059799
O66	O	1.093471	0.002229	0.594695
C67	C	1.048870	-0.054669	0.650238
H68	H	0.983302	-0.056249	0.621319
H69	H	1.044558	-0.025809	0.722978
C70	C	1.175077	-0.151732	0.687235
C71	C	1.094548	-0.153679	0.651711
H72	H	1.203254	-0.212805	0.688148
H73	H	1.205127	-0.113397	0.649817
H74	H	1.171472	-0.127677	0.747848
H75	H	1.098153	-0.177721	0.591096
H76	H	1.064499	-0.192020	0.689119
H77	H	0.879902	0.239655	0.412979
H78	H	0.421405	-0.028048	0.000067
