data_functionalizedCrystal
_audit_creation_method	'MofGen! by Chris Wilmer'
_symmetry_space_group_name_H-M	'P1'
_symmetry_Int_Tables_number	1
_symmetry_cell_setting	triclinic
loop_
_symmetry_equiv_pos_as_xyz
  x,y,z
_cell_length_a	14.853567
_cell_length_b	23.532407
_cell_length_c	13.930277
_cell_angle_alpha	89.990782
_cell_angle_beta	89.995755
_cell_angle_gamma	83.241804
loop_
_atom_site_label
_atom_site_type_symbol
_atom_site_fract_x
_atom_site_fract_y
_atom_site_fract_z
O1	O	1.195555	0.074353	-0.079775
O2	O	0.932999	0.083210	-0.079793
O3	O	1.072194	-0.004116	-0.079766
O4	O	1.056360	0.161678	-0.079802
O5	O	1.072175	-0.004118	0.079896
O6	O	0.932980	0.083208	0.079869
O7	O	1.195536	0.074351	0.079887
Zn8	Zn	1.064255	0.078779	0.105228
Zn9	Zn	1.064280	0.078782	-0.105133
O10	O	1.056340	0.161677	0.079860
C11	C	0.899405	0.082808	0.000036
C12	C	0.799334	0.081605	0.000030
C13	C	0.387423	0.024648	0.000064
C14	C	0.365008	0.128393	0.000041
C15	C	0.459029	0.129524	0.000037
C16	C	0.517252	0.078216	0.000046
C17	C	0.481454	0.025777	0.000058
C18	C	0.494835	0.181961	0.000016
C19	C	0.588861	0.183094	0.000011
C20	C	0.647086	0.131786	0.000027
C21	C	0.611283	0.079345	0.000040
C22	C	0.669506	0.028037	0.000049
C23	C	0.633704	-0.024404	0.000069
C24	C	0.539679	-0.025531	0.000074
C25	C	0.741111	0.132913	0.000022
C26	C	0.763536	0.029166	0.000042
C27	C	1.071782	-0.025335	0.000068
C28	C	1.070569	-0.088557	0.000075
C29	C	1.145338	-0.487334	0.000027
C30	C	1.144212	-0.546739	0.000020
O31	O	1.213524	-0.583181	-0.000011
N32	N	1.061460	-0.569726	0.000015
C33	C	0.979829	-0.533305	0.000008
O34	O	0.909339	-0.558312	0.000002
C35	C	0.980957	-0.473901	0.000008
C36	C	1.063714	-0.450917	0.000023
C37	C	1.228089	-0.464349	0.000041
C38	C	1.229214	-0.404948	0.000050
C39	C	1.147590	-0.368531	0.000046
C40	C	1.064839	-0.391516	0.000032
C41	C	0.899327	-0.437481	-0.000006
C42	C	0.900461	-0.378073	-0.000006
C43	C	0.983218	-0.355089	0.000009
C44	C	0.984341	-0.295698	0.000037
N45	N	1.067092	-0.272711	0.000042
C46	C	1.148717	-0.309128	0.000046
C47	C	0.977469	-0.658058	0.000005
C48	C	0.976340	-0.717461	0.000012
C49	C	1.140723	-0.730890	0.000022
C50	C	1.141851	-0.671486	0.000022
C51	C	1.060220	-0.635070	0.000010
C52	C	1.151075	-0.184380	0.000066
C53	C	1.152194	-0.124974	0.000079
C54	C	0.987811	-0.111549	0.000064
C55	C	0.986692	-0.170951	0.000056
C56	C	1.068331	-0.207365	0.000054
O57	O	0.915065	-0.259221	0.000064
O58	O	1.219196	-0.284112	0.000039
C59	C	1.229130	0.074753	0.000056
C60	C	1.329200	0.075956	0.000056
C61	C	1.056753	0.182895	0.000025
C62	C	1.057966	0.246118	0.000011
N63	N	1.064244	0.078777	0.248794
N64	N	1.064298	0.078779	-0.248700
C65	C	1.002642	0.117434	0.701051
C66	C	1.125943	0.040125	0.701045
C67	C	1.125932	0.040123	0.600549
C68	C	1.064276	0.078778	0.550300
C69	C	1.002631	0.117435	0.600546
C70	C	1.187582	0.001470	0.550295
C71	C	1.187575	0.001467	0.449793
C72	C	1.125914	0.040120	0.399542
C73	C	1.064266	0.078778	0.449795
C74	C	1.002610	0.117433	0.399546
C75	C	0.940956	0.156089	0.449797
C76	C	0.940970	0.156088	0.550295
C77	C	1.125900	0.040122	0.299043
C78	C	1.002599	0.117434	0.299041
H79	H	1.219587	-0.106264	0.000094
H80	H	1.237785	-0.029999	0.591211
H81	H	0.890759	0.187565	0.408872
N82	N	1.254067	-0.040223	0.395597
H83	H	1.293126	-0.064710	0.442681
H84	H	1.219775	-0.065441	0.353917
H85	H	0.618003	0.225795	-0.000005
H86	H	0.447423	0.223733	-0.000001
N87	N	1.192394	-0.001561	0.244843
H88	H	1.231458	-0.026046	0.291925
H89	H	1.158109	-0.026781	0.203160
H90	H	0.810936	-0.012615	0.000053
H91	H	0.921355	-0.081888	0.000064
N92	N	0.696504	-0.079742	0.000071
H93	H	0.761499	-0.071066	0.000060
H94	H	0.684973	-0.102592	0.059268
N95	N	0.874487	0.197786	0.604487
H96	H	0.810561	0.191156	0.587018
H97	H	0.883931	0.191904	0.675760
N98	N	0.936142	0.159123	0.755241
H99	H	0.945498	0.153258	0.826533
H100	H	0.946187	0.199537	0.737663
H101	H	0.358269	-0.018049	0.000084
H102	H	0.317597	0.170165	0.000026
N103	N	0.501065	-0.082089	0.000102
H104	H	0.432666	-0.075017	0.000103
H105	H	0.522395	-0.104546	-0.059079
H106	H	1.176146	0.008655	0.741961
N107	N	1.228766	-0.770173	0.000015
H108	H	1.264891	-0.762782	0.059204
H109	H	1.215414	-0.811275	-0.000028
N110	N	0.779729	0.189467	-0.000010
H111	H	0.728577	0.221798	-0.000021
H112	H	0.818250	0.192198	0.059176
N113	N	1.239123	-0.223655	0.000071
H114	H	1.275262	-0.216243	-0.059108
H115	H	1.275164	-0.216238	0.059304
N116	N	1.318474	-0.380163	0.000062
H117	H	1.370004	-0.412253	0.000062
H118	H	1.322533	-0.355803	-0.059125
H119	H	1.209239	-0.652777	0.000034
N120	N	1.316134	-0.503622	0.000047
H121	H	1.368718	-0.480038	0.000056
H122	H	1.319241	-0.528564	0.059239
N123	N	0.887082	-0.742247	0.000022
H124	H	0.835549	-0.710158	0.000024
H125	H	0.883030	-0.766595	-0.059167
H126	H	0.910991	-0.628410	0.000003
N127	N	0.936089	0.159126	0.244853
H128	H	0.946103	0.199558	0.262333
H129	H	0.945466	0.153214	0.173579
N130	N	0.810060	-0.462253	-0.000015
H131	H	0.774339	-0.448966	-0.059206
H132	H	0.821783	-0.505408	0.000022
N133	N	0.812415	-0.338796	-0.000024
H134	H	0.759824	-0.362374	-0.000034
H135	H	0.809288	-0.313863	0.059167
N136	N	0.897437	-0.195746	0.000044
H137	H	0.893295	-0.220103	0.059223
H138	H	0.845952	-0.163628	0.000009
