data_functionalizedCrystal
_audit_creation_method	'MofGen! by Chris Wilmer'
_symmetry_space_group_name_H-M	'P1'
_symmetry_Int_Tables_number	1
_symmetry_cell_setting	triclinic
loop_
_symmetry_equiv_pos_as_xyz
  x,y,z
_cell_length_a	19.288864
_cell_length_b	23.532407
_cell_length_c	18.366186
_cell_angle_alpha	89.989089
_cell_angle_beta	89.977106
_cell_angle_gamma	82.992461
loop_
_atom_site_label
_atom_site_type_symbol
_atom_site_fract_x
_atom_site_fract_y
_atom_site_fract_z
O1	O	0.921134	0.071045	-0.060790
O2	O	0.718843	0.080629	-0.060742
O3	O	0.826089	-0.007082	-0.060754
O4	O	0.813889	0.158756	-0.060778
O5	O	0.826071	-0.007086	0.060345
O6	O	0.718825	0.080625	0.060358
O7	O	0.921116	0.071041	0.060309
Zn8	Zn	0.819968	0.075832	0.079560
Zn9	Zn	0.819991	0.075838	-0.079993
O10	O	0.813870	0.158752	0.060321
C11	C	0.692959	0.080319	-0.000186
C12	C	0.615858	0.079393	-0.000166
C13	C	0.825769	-0.028301	-0.000203
C14	C	0.824835	-0.091520	-0.000197
C15	C	0.571003	0.130858	-0.000185
C16	C	0.498559	0.129988	-0.000193
C17	C	0.470973	0.077651	-0.000197
C18	C	0.515838	0.026179	-0.000174
C19	C	0.588280	0.027050	-0.000159
C20	C	0.362844	0.036509	-0.042642
C21	C	0.290402	0.035640	-0.042662
C22	C	0.247535	0.074961	-0.000240
C23	C	0.277118	0.115162	0.042191
C24	C	0.349561	0.116033	0.042206
C25	C	0.392422	0.076700	-0.000213
C26	C	0.124127	0.125487	-0.000267
C27	C	0.051682	0.124615	-0.000270
C28	C	0.068962	0.020805	-0.000258
C29	C	0.141406	0.021678	-0.000248
C30	C	0.168984	0.074021	-0.000255
C31	C	0.882442	-0.490503	-0.000251
C32	C	0.881574	-0.549905	-0.000256
O33	O	0.934976	-0.586539	-0.000296
N34	N	0.817817	-0.572664	-0.000240
C35	C	0.754923	-0.536017	-0.000226
O36	O	0.700613	-0.560829	-0.000214
C37	C	0.755792	-0.476616	-0.000226
C38	C	0.819553	-0.453861	-0.000235
C39	C	0.946198	-0.467748	-0.000260
C40	C	0.947065	-0.408350	-0.000253
C41	C	0.884177	-0.371707	-0.000237
C42	C	0.820420	-0.394463	-0.000228
C43	C	0.692899	-0.439970	-0.000217
C44	C	0.693773	-0.380565	-0.000218
C45	C	0.757534	-0.357810	-0.000226
C46	C	0.758399	-0.298422	-0.000205
N47	N	0.822156	-0.275664	-0.000221
C48	C	0.885045	-0.312307	-0.000237
C49	C	0.753104	-0.660763	-0.000228
C50	C	0.752235	-0.720163	-0.000223
C51	C	0.878886	-0.734047	-0.000254
C52	C	0.879755	-0.674647	-0.000254
C53	C	0.816861	-0.638005	-0.000244
C54	C	0.886862	-0.187566	-0.000222
C55	C	0.887724	-0.128162	-0.000213
C56	C	0.761073	-0.114283	-0.000185
C57	C	0.760211	-0.173681	-0.000191
C58	C	0.823111	-0.210322	-0.000212
O59	O	0.705025	-0.261754	-0.000168
O60	O	0.939346	-0.287486	-0.000259
C61	C	0.947000	0.071351	-0.000249
C62	C	1.024101	0.072277	-0.000273
C63	C	0.814190	0.179971	-0.000232
C64	C	0.815124	0.243190	-0.000242
N65	N	0.819956	0.075828	0.188452
N66	N	0.820008	0.075837	-0.188884
C67	C	0.867460	0.037009	0.226546
C68	C	0.867464	0.037006	0.302774
C69	C	0.819972	0.075833	0.340904
C70	C	0.772459	0.114655	0.302800
C71	C	0.772452	0.114653	0.226574
C72	C	0.810514	0.127724	0.461659
C73	C	0.810526	0.127727	0.537884
C74	C	0.819991	0.075840	0.576012
C75	C	0.829459	0.023947	0.537906
C76	C	0.829451	0.023945	0.461679
C77	C	0.819975	0.075839	0.423559
C78	C	0.867502	0.037014	0.696762
C79	C	0.867502	0.037011	0.772991
C80	C	0.772500	0.114665	0.773015
C81	C	0.772497	0.114663	0.696788
C82	C	0.820002	0.075839	0.658665
H83	H	0.593452	0.173479	-0.000193
C84	C	0.839876	-0.033133	0.579833
H85	H	0.845519	-0.064036	0.546222
H86	H	0.800216	-0.036214	0.609591
H87	H	0.880335	-0.034366	0.609547
C88	C	0.691899	-0.073971	-0.000173
H89	H	0.653799	-0.096027	-0.000164
H90	H	0.689621	-0.050505	-0.042402
H91	H	0.689598	-0.050517	0.042064
H92	H	0.642556	-0.350733	-0.000211
H93	H	0.906139	0.005394	0.195509
C94	C	0.449210	0.186601	-0.000225
H95	H	0.476010	0.217899	-0.000233
H96	H	0.420560	0.188424	0.041995
H97	H	0.420621	0.188411	-0.042471
H98	H	0.373644	0.148763	0.076758
C99	C	0.948065	-0.774359	-0.000277
H100	H	0.986166	-0.752303	-0.000279
H101	H	0.950360	-0.797813	-0.042509
H102	H	0.950350	-0.797827	0.041957
H103	H	0.802821	0.169981	0.568904
H104	H	0.708291	-0.192209	-0.000164
C105	C	0.622760	-0.464987	-0.000214
H106	H	0.585437	-0.434649	-0.000214
H107	H	0.619770	-0.487878	0.042013
H108	H	0.619797	-0.487860	-0.042453
C109	C	0.919744	-0.005696	0.654821
H110	H	0.912941	-0.000134	0.603966
H111	H	0.912463	-0.043689	0.667328
H112	H	0.966060	0.000393	0.667287
C113	C	0.409990	-0.006743	-0.089315
H114	H	0.381997	-0.030801	-0.114596
H115	H	0.442064	-0.029402	-0.058726
H116	H	0.434986	0.013296	-0.123427
H117	H	0.938081	-0.217393	-0.000242
H118	H	0.733789	0.146267	0.333850
H119	H	0.733828	0.146276	0.804060
C120	C	0.800097	0.184802	0.419721
H121	H	0.801440	0.177369	0.368867
H122	H	0.836265	0.207045	0.432185
H123	H	0.756146	0.205199	0.432233
H124	H	0.998986	-0.389829	-0.000263
C125	C	0.720257	0.157375	0.654878
H126	H	0.727053	0.151812	0.604020
H127	H	0.727542	0.195367	0.667359
H128	H	0.673941	0.151288	0.667392
H129	H	0.837158	-0.018308	0.430657
H130	H	0.997412	-0.497577	-0.000276
H131	H	0.939648	-0.109639	-0.000218
C132	C	0.949891	-0.649621	-0.000270
H133	H	0.987217	-0.679957	-0.000283
H134	H	0.952860	-0.626742	0.041958
H135	H	0.952871	-0.626735	-0.042508
H136	H	0.906183	0.005397	0.804008
C137	C	0.720200	0.157360	0.184668
H138	H	0.691917	0.180486	0.218291
H139	H	0.691430	0.136934	0.154949
H140	H	0.745025	0.181017	0.154916
H141	H	0.242217	0.147181	0.076735
C142	C	0.682098	-0.745187	-0.000207
H143	H	0.644772	-0.714851	-0.000202
H144	H	0.679115	-0.768079	0.042020
H145	H	0.679132	-0.768059	-0.042446
H146	H	0.701886	-0.630931	-0.000213
C147	C	0.190752	-0.034933	-0.000238
H148	H	0.237846	-0.026918	-0.000223
H149	H	0.182452	-0.056400	-0.042467
H150	H	0.182406	-0.056403	0.041998
C151	C	0.154467	0.183060	-0.000268
H152	H	0.117374	0.213587	-0.000270
H153	H	0.182389	0.185560	-0.042494
H154	H	0.182345	0.185555	0.041971
C155	C	0.002338	0.181228	-0.000292
H156	H	-0.044757	0.173214	-0.000291
H157	H	0.010683	0.202695	-0.042525
H158	H	0.010638	0.202698	0.041940
H159	H	0.906149	0.005393	0.333797
H160	H	0.046503	-0.021810	-0.000307
H161	H	0.266322	0.002909	-0.077215
H162	H	0.493372	-0.016435	-0.000187
H163	H	0.624802	-0.014860	-0.000144
