data_functionalizedCrystal
_audit_creation_method	'MofGen! by Chris Wilmer'
_symmetry_space_group_name_H-M	'P1'
_symmetry_Int_Tables_number	1
_symmetry_cell_setting	triclinic
loop_
_symmetry_equiv_pos_as_xyz
  x,y,z
_cell_length_a	12.759401
_cell_length_b	29.839131
_cell_length_c	12.759393
_cell_angle_alpha	90.045545
_cell_angle_beta	90.018496
_cell_angle_gamma	90.035390
loop_
_atom_site_label
_atom_site_type_symbol
_atom_site_fract_x
_atom_site_fract_y
_atom_site_fract_z
Zn1	Zn	1.606106	-0.178825	0.593879
Zn2	Zn	1.605937	-0.253963	0.418157
Zn3	Zn	1.430407	-0.178848	0.418219
Zn4	Zn	1.430333	-0.253929	0.593798
O5	O	1.518196	-0.216391	0.506013
O6	O	1.753104	-0.188797	0.570577
O7	O	1.582613	-0.244024	0.271144
O8	O	1.453816	-0.115978	0.441580
O9	O	1.752980	-0.244001	0.441475
O10	O	1.582900	-0.115961	0.570638
O11	O	1.453652	-0.188837	0.271189
O12	O	1.283377	-0.188803	0.441502
O13	O	1.453689	-0.243942	0.740830
O14	O	1.283322	-0.243965	0.570499
O15	O	1.582828	-0.188763	0.740890
O16	O	1.582541	-0.316826	0.441396
O17	O	1.453526	-0.316801	0.570439
C18	C	1.245228	-0.216383	0.505999
C19	C	1.128452	-0.216390	0.506018
C20	C	1.073589	-0.245159	0.573075
C21	C	0.963865	-0.245165	0.573087
C22	C	0.963876	-0.187632	0.438974
C23	C	1.073598	-0.187624	0.438968
C24	C	1.128442	-0.273925	0.640125
C25	C	1.073579	-0.302696	0.707187
C26	C	0.963855	-0.302702	0.707199
C27	C	0.908994	-0.273936	0.640148
C28	C	1.518036	-0.333114	0.505925
C29	C	1.518063	-0.383048	0.505922
C30	C	1.585395	-0.692648	0.573309
C31	C	1.585509	-0.880321	0.573372
O32	O	1.642601	-0.904548	0.630601
N33	N	1.518374	-0.903833	0.506130
C34	C	1.451201	-0.880425	0.438872
O35	O	1.394093	-0.904730	0.381687
C36	C	1.451082	-0.692753	0.438815
C37	C	1.518229	-0.669243	0.506054
C38	C	1.652536	-0.669138	0.640543
C39	C	1.652511	-0.622222	0.640523
C40	C	1.585345	-0.598817	0.573268
C41	C	1.518204	-0.622327	0.506033
C42	C	1.383904	-0.669345	0.371563
C43	C	1.383879	-0.622424	0.371556
C44	C	1.451026	-0.598914	0.438795
C45	C	1.451013	-0.552006	0.438758
N46	N	1.518148	-0.528494	0.506000
C47	C	1.585314	-0.551899	0.573255
C48	C	1.451269	-0.978955	0.438905
C49	C	1.451300	-1.025873	0.438918
C50	C	1.585608	-1.025766	0.573420
C51	C	1.585581	-0.978847	0.573401
C52	C	1.518404	-0.955443	0.506147
C53	C	1.585257	-0.453373	0.573206
C54	C	1.585229	-0.406454	0.573177
C55	C	1.450918	-0.406565	0.438679
C56	C	1.450950	-0.453480	0.438704
C57	C	1.518123	-0.476884	0.505976
O58	O	1.393943	-0.527750	0.381567
O59	O	1.642397	-0.527586	0.630448
C60	C	1.585421	-0.739563	0.573329
C61	C	1.518280	-0.763073	0.506095
C62	C	1.451114	-0.739668	0.438840
C63	C	1.518310	-0.809991	0.506108
C64	C	1.585477	-0.833397	0.573363
C65	C	1.652612	-0.809884	0.640605
C66	C	1.652587	-0.762969	0.640584
C67	C	1.383978	-0.763181	0.371597
C68	C	1.384010	-0.810096	0.371623
C69	C	1.451176	-0.833501	0.438878
C70	C	1.792229	-0.216400	0.506028
C71	C	1.909006	-0.216404	0.506034
C72	C	1.518269	-0.216346	0.780047
C73	C	1.518301	-0.216327	0.896823
C74	C	1.518385	-0.099213	0.506125
C75	C	1.518466	-0.049279	0.506173
C76	C	1.518183	-0.216404	0.233046
C77	C	1.518355	-0.216297	0.116270
C78	C	1.585553	-0.187593	0.951718
C79	C	1.585578	-0.187576	1.061442
C80	C	1.451096	-0.245032	1.061367
C81	C	1.451066	-0.245046	0.951645
C82	C	1.652787	-0.158873	0.896897
C83	C	1.720046	-0.130137	0.951791
C84	C	1.720071	-0.130121	1.061516
C85	C	1.652837	-0.158841	1.116345
H86	H	1.118254	-0.326113	0.761784
O87	O	1.318816	-0.692197	0.306148
C88	C	1.304725	-0.745251	0.164355
C89	C	1.378568	-0.719390	0.238350
H90	H	1.353003	-0.767250	0.109536
H91	H	1.256728	-0.720479	0.116219
H92	H	1.249760	-0.767194	0.212588
H93	H	1.433596	-0.697447	0.190198
H94	H	1.426491	-0.744187	0.286489
H95	H	1.774828	-0.106719	1.106208
H96	H	1.652851	-0.158820	1.205690
H97	H	1.329282	-0.744128	0.316831
O98	O	1.650833	-0.956081	0.638823
C99	C	1.784090	-0.960940	0.772190
C100	C	1.710230	-0.986775	0.698163
H101	H	1.832148	-0.985744	0.820170
H102	H	1.735860	-0.938986	0.827153
H103	H	1.838996	-0.938957	0.723989
H104	H	1.655310	-1.008781	0.746280
H105	H	1.758526	-1.008700	0.643197
O106	O	1.385982	-1.048639	0.373559
C107	C	1.252806	-1.043780	0.240112
C108	C	1.326714	-1.017945	0.314090
H109	H	1.204884	-1.018976	0.191996
H110	H	1.197784	-1.065735	0.288253
H111	H	1.301096	-1.065762	0.185265
H112	H	1.278508	-0.995939	0.368952
H113	H	1.381739	-0.996019	0.265884
H114	H	1.396357	-0.268415	1.106018
O115	O	1.385902	-0.956204	0.373714
C116	C	1.244055	-0.903281	0.359408
C117	C	1.317996	-0.929023	0.433361
H118	H	1.189150	-0.881292	0.407602
H119	H	1.196011	-0.928131	0.311374
H120	H	1.292326	-0.881339	0.304483
H121	H	1.269807	-0.950966	0.488350
H122	H	1.366045	-0.904150	0.481321
H123	H	1.396288	-0.268437	0.906949
O124	O	0.910513	-0.330582	0.772454
C125	C	0.786639	-0.336711	0.914242
C126	C	0.846999	-0.305082	0.840424
H127	H	0.735257	-0.316106	0.969200
H128	H	0.844648	-0.357259	0.962237
H129	H	0.735270	-0.360188	0.865878
H130	H	0.898369	-0.281577	0.888708
H131	H	0.788933	-0.284564	0.792426
H132	H	0.819649	-0.273939	0.640171
O133	O	1.318586	-0.599759	0.306126
C134	C	1.185313	-0.604821	0.172783
C135	C	1.259219	-0.630543	0.246809
H136	H	1.137280	-0.629699	0.124822
H137	H	1.233505	-0.582872	0.117803
H138	H	1.130386	-0.582845	0.220984
H139	H	1.314161	-0.652544	0.198693
H140	H	1.210961	-0.652464	0.301792
H141	H	1.217785	-0.273924	0.640121
O142	O	1.650603	-0.476033	0.638591
C143	C	1.783762	-0.470963	0.772045
C144	C	1.709830	-0.445245	0.698037
H145	H	1.831650	-0.446082	0.820143
H146	H	1.838814	-0.492917	0.723930
H147	H	1.735493	-0.492934	0.826908
H148	H	1.758014	-0.423250	0.643160
H149	H	1.654775	-0.423319	0.746218
O150	O	1.126856	-0.159731	0.373673
C151	C	1.160355	-0.137821	0.195061
C152	C	1.099991	-0.169444	0.268887
H153	H	1.138640	-0.145656	0.110327
H154	H	1.248209	-0.142761	0.206490
H155	H	1.138849	-0.101607	0.213726
H156	H	1.121410	-0.205670	0.250268
H157	H	1.012152	-0.164466	0.257444
H158	H	1.652777	-0.158884	0.807554
O159	O	1.785312	-0.102280	0.898373
C160	C	1.844822	-0.076816	0.729374
C161	C	1.770874	-0.108397	0.789736
H162	H	1.833159	-0.081744	0.641531
H163	H	1.929555	-0.084704	0.750867
H164	H	1.826444	-0.040593	0.751051
H165	H	1.789157	-0.144631	0.768092
H166	H	1.686163	-0.100470	0.768238
O167	O	1.650422	-0.383547	0.638401
C168	C	1.709868	-0.311224	0.698037
C169	C	1.636008	-0.337107	0.624102
H170	H	1.698224	-0.273673	0.686518
H171	H	1.794622	-0.320393	0.679666
H172	H	1.691384	-0.320449	0.782728
H173	H	1.654397	-0.327896	0.539387
H174	H	1.551275	-0.327936	0.642564
H175	H	0.919200	-0.164213	0.384383
O176	O	1.385631	-0.476252	0.373351
C177	C	1.252453	-0.471400	0.239904
C178	C	1.326366	-0.445561	0.313870
H179	H	1.204533	-0.446598	0.191778
H180	H	1.197429	-0.493350	0.288054
H181	H	1.300740	-0.493387	0.185065
H182	H	1.278163	-0.423550	0.368723
H183	H	1.381393	-0.423640	0.265654
H184	H	1.707185	-0.603083	0.695278
H185	H	1.707231	-0.688189	0.695317
O186	O	1.385708	-0.383755	0.373451
C187	C	1.326192	-0.311517	0.313798
C188	C	1.400085	-0.337294	0.387731
H189	H	1.337806	-0.273949	0.325302
H190	H	1.241448	-0.320730	0.332186
H191	H	1.344670	-0.320793	0.229108
H192	H	1.381701	-0.328033	0.472446
H193	H	1.484807	-0.328079	0.369253
H194	H	1.640298	-1.044831	0.628180
O195	O	1.717842	-0.740204	0.706006
C196	C	1.851101	-0.745067	0.839370
C197	C	1.777233	-0.770899	0.765346
H198	H	1.899153	-0.769873	0.887351
H199	H	1.802877	-0.723110	0.894333
H200	H	1.906011	-0.723088	0.791167
H201	H	1.722308	-0.792903	0.813465
H202	H	1.825522	-0.792828	0.710381
O203	O	1.717703	-0.832646	0.706051
C204	C	1.731756	-0.885584	0.847872
C205	C	1.657934	-0.859823	0.773838
H206	H	1.683463	-0.907570	0.902682
H207	H	1.779727	-0.860747	0.896015
H208	H	1.786746	-0.907531	0.799669
H209	H	1.602881	-0.837875	0.821959
H210	H	1.610037	-0.884684	0.725691
H211	H	1.329332	-0.829234	0.316858
