data_functionalizedCrystal
_audit_creation_method	'MofGen! by Chris Wilmer'
_symmetry_space_group_name_H-M	'P1'
_symmetry_Int_Tables_number	1
_symmetry_cell_setting	triclinic
loop_
_symmetry_equiv_pos_as_xyz
  x,y,z
_cell_length_a	10.489741
_cell_length_b	27.732048
_cell_length_c	8.965430
_cell_angle_alpha	89.995481
_cell_angle_beta	89.998843
_cell_angle_gamma	83.590915
loop_
_atom_site_label
_atom_site_type_symbol
_atom_site_fract_x
_atom_site_fract_y
_atom_site_fract_z
O1	O	1.691056	0.068187	-0.123965
O2	O	1.319579	0.074588	-0.123990
O3	O	1.516855	0.001064	-0.123949
O4	O	1.493781	0.141711	-0.124007
O5	O	1.516839	0.001068	0.124130
O6	O	1.319563	0.074593	0.124089
O7	O	1.691040	0.068192	0.124113
Cu8	Cu	1.505300	0.071393	0.146753
Cu9	Cu	1.505319	0.071387	-0.146629
O10	O	1.493764	0.141716	0.124072
C11	C	1.272061	0.074107	0.000046
C12	C	1.130495	0.072661	0.000038
C13	C	1.516363	-0.016944	0.000095
C14	C	1.514904	-0.070608	0.000107
C15	C	1.064411	0.025879	0.000072
C16	C	0.971321	0.047976	-0.122250
C17	C	0.971338	0.047992	0.122336
C18	C	1.039269	0.094776	-0.122385
C19	C	1.039296	0.094786	0.122311
C20	C	0.946232	0.116916	-0.000040
C21	C	1.622299	-0.408745	0.000038
C22	C	1.616888	-0.610439	0.000016
O23	O	1.715093	-0.641075	-0.000042
N24	N	1.499911	-0.630301	0.000010
C25	C	1.384279	-0.599736	-0.000001
O26	O	1.284660	-0.621258	-0.000022
C27	C	1.389692	-0.398044	0.000010
C28	C	1.506676	-0.378184	0.000031
C29	C	1.739274	-0.388886	0.000058
C30	C	1.740625	-0.338465	0.000071
C31	C	1.625002	-0.307904	0.000064
C32	C	1.508028	-0.327764	0.000045
C33	C	1.274062	-0.367480	-0.000012
C34	C	1.275425	-0.317054	-0.000013
C35	C	1.392409	-0.297195	0.000008
C36	C	1.393757	-0.246783	0.000052
N37	N	1.510733	-0.226920	0.000058
C38	C	1.626356	-0.257481	0.000064
C39	C	1.381446	-0.705628	-0.000003
C40	C	1.380092	-0.756051	-0.000003
C41	C	1.612701	-0.766751	0.000011
C42	C	1.614053	-0.716327	0.000022
C43	C	1.498422	-0.685766	0.000003
C44	C	1.629186	-0.151594	0.000094
C45	C	1.630527	-0.101169	0.000113
C46	C	1.397919	-0.090474	0.000091
C47	C	1.396577	-0.140895	0.000079
C48	C	1.512221	-0.171454	0.000076
O49	O	1.295604	-0.216118	0.000093
O50	O	1.725961	-0.235950	0.000053
C51	C	1.620947	-0.459166	0.000024
C52	C	1.503973	-0.479025	0.000004
C53	C	1.388350	-0.448464	-0.000002
C54	C	1.502619	-0.529448	0.000004
C55	C	1.618242	-0.560009	0.000011
C56	C	1.735219	-0.540147	0.000017
C57	C	1.736570	-0.489727	0.000031
C58	C	1.271374	-0.468327	-0.000009
C59	C	1.270032	-0.518748	-0.000020
C60	C	1.385654	-0.549308	-0.000014
C61	C	1.738559	0.068673	0.000074
C62	C	1.880124	0.070119	0.000072
C63	C	1.494257	0.159724	0.000025
C64	C	1.495715	0.213388	0.000003
N65	N	1.505295	0.071397	0.353102
N66	N	1.505334	0.071379	-0.352979
C67	C	1.414034	0.105388	0.450388
C68	C	1.529101	0.115168	0.549805
C69	C	1.390277	0.061621	0.549812
C70	C	1.620420	0.081198	0.450330
C71	C	1.481520	0.027633	0.450328
C72	C	1.596671	0.037394	0.549700
H73	H	0.941184	0.028180	-0.225651
H74	H	1.069235	0.114553	-0.225916
H75	H	1.673947	0.008640	0.593031
H76	H	1.461348	-0.009359	0.406599
H77	H	1.115791	-0.012578	-0.000065
O78	O	1.741437	-0.181324	0.000296
C79	C	1.747627	-0.210808	0.128793
H80	H	1.646445	-0.213724	0.171611
H81	H	1.795920	-0.248526	0.099899
H82	H	1.805521	-0.194014	0.218774
O83	O	1.744284	-0.081959	0.000062
C84	C	1.846041	-0.119749	0.000097
H85	H	1.810977	-0.154120	-0.046880
H86	H	1.927778	-0.108921	-0.071920
H87	H	1.881651	-0.126763	0.119113
O88	O	1.851716	-0.418499	0.000135
C89	C	1.955234	-0.390147	0.000113
H90	H	1.922074	-0.352637	0.047067
H91	H	2.036182	-0.408452	0.072155
H92	H	1.991153	-0.386427	-0.118897
H93	H	1.549237	0.152170	0.593500
O94	O	1.274113	0.051819	0.601762
C95	C	1.178178	0.087763	0.551190
H96	H	1.213031	0.105596	0.446494
H97	H	1.087353	0.070402	0.524399
H98	H	1.156572	0.116356	0.641778
H99	H	1.709312	-0.700161	0.000038
O100	O	0.885297	0.162851	-0.000395
C101	C	0.919940	0.187328	-0.129520
H102	H	0.953754	0.159693	-0.219241
H103	H	0.833368	0.211969	-0.172216
H104	H	1.000709	0.210114	-0.101519
O105	O	1.075516	0.118390	0.245552
C106	C	1.209445	0.119795	0.243089
H107	H	1.245627	0.115592	0.123382
H108	H	1.233022	0.155994	0.289779
H109	H	1.257986	0.088937	0.314113
H110	H	1.706846	-0.791642	0.000017
H111	H	1.181262	-0.292173	-0.000031
O112	O	0.935583	0.024308	0.245668
C113	C	0.996353	-0.023678	0.245193
H114	H	1.086597	-0.025684	0.173588
H115	H	1.023462	-0.035171	0.364151
H116	H	0.928144	-0.048983	0.197458
H117	H	1.717725	0.089503	0.406815
H118	H	1.835885	-0.322301	0.000082
O119	O	1.282911	-0.160168	-0.000198
C120	C	1.212491	-0.144571	-0.128664
H121	H	1.280922	-0.133832	-0.218448
H122	H	1.158853	-0.175301	-0.171820
H123	H	1.140753	-0.111969	-0.099609
O124	O	1.266342	-0.775260	-0.000074
C125	C	1.164590	-0.737467	-0.000046
H126	H	1.199665	-0.703093	-0.047005
H127	H	1.082860	-0.748287	-0.072080
H128	H	1.128964	-0.730461	0.118967
O129	O	1.160500	-0.386818	-0.000247
C130	C	1.152754	-0.415647	-0.128761
H131	H	1.253533	-0.427854	-0.171568
H132	H	1.102548	-0.448835	-0.099892
H133	H	1.095917	-0.393564	-0.218740
O134	O	1.269198	-0.675895	0.000186
C135	C	1.262990	-0.646420	0.128687
H136	H	1.364166	-0.643507	0.171525
H137	H	1.214706	-0.608699	0.099789
H138	H	1.205080	-0.663217	0.218653
H139	H	1.303782	-0.065582	0.000091
H140	H	1.829363	-0.565039	0.000029
O141	O	1.850322	-0.470519	-0.000025
C142	C	1.952069	-0.508313	0.000015
H143	H	1.916994	-0.542683	-0.046956
H144	H	2.033811	-0.497490	-0.072004
H145	H	1.987678	-0.515327	0.119032
H146	H	1.174762	-0.534912	-0.000025
H147	H	1.177217	-0.443448	-0.000017
O148	O	1.322183	0.139773	0.398419
C149	C	1.347751	0.185848	0.449140
H150	H	1.454044	0.184853	0.477016
H151	H	1.321607	0.213955	0.358206
H152	H	1.288278	0.195992	0.553208
