data_functionalizedCrystal
_audit_creation_method	'MofGen! by Chris Wilmer'
_symmetry_space_group_name_H-M	'P1'
_symmetry_Int_Tables_number	1
_symmetry_cell_setting	triclinic
loop_
_symmetry_equiv_pos_as_xyz
  x,y,z
_cell_length_a	29.999520
_cell_length_b	29.998686
_cell_length_c	29.995014
_cell_angle_alpha	60.005185
_cell_angle_beta	60.010401
_cell_angle_gamma	59.993433
loop_
_atom_site_label
_atom_site_type_symbol
_atom_site_fract_x
_atom_site_fract_y
_atom_site_fract_z
O1	O	0.061772	-0.651300	0.544623
O2	O	0.561772	-0.151300	1.044623
O3	O	0.023267	-0.507084	0.438819
O4	O	0.523267	-0.007084	0.938819
O5	O	0.114589	-0.598332	0.438743
O6	O	0.614589	-0.098332	0.938743
O7	O	-0.029550	-0.560051	0.544699
O8	O	0.470450	-0.060051	1.044699
O9	O	0.144886	-0.568039	0.468961
O10	O	0.644886	-0.068039	0.968961
O11	O	0.053564	-0.476791	0.469038
O12	O	0.553564	0.023209	0.969038
O13	O	0.092069	-0.621007	0.574841
O14	O	0.592069	-0.121007	1.074841
Zn15	Zn	0.077627	-0.544089	0.526737
Zn16	Zn	0.577627	-0.044089	1.026737
Zn17	Zn	0.037709	-0.584002	0.486923
Zn18	Zn	0.537709	-0.084002	0.986923
O19	O	0.000748	-0.529758	0.574918
O20	O	0.500748	-0.029758	1.074918
N21	N	0.104871	-0.516854	0.553912
N22	N	0.604871	-0.016854	1.053912
N23	N	0.010470	-0.611242	0.459748
N24	N	0.510470	-0.111242	0.959748
C25	C	0.143162	-0.478782	0.827124
C26	C	0.643162	0.021218	1.327124
C27	C	0.378203	-0.478734	0.591892
C28	C	0.878203	0.021266	1.091892
C29	C	0.143005	-0.478752	0.591997
C30	C	0.643005	0.021248	1.091997
C31	C	0.142986	-0.243586	0.592008
C32	C	0.642986	0.256414	1.092008
C33	C	0.180857	-0.357087	0.629814
C34	C	0.680857	0.142913	1.129814
C35	C	0.180866	-0.440920	0.629807
C36	C	0.680866	0.059080	1.129807
C37	C	0.201840	-0.419964	0.650755
C38	C	0.701840	0.080036	1.150755
C39	C	0.293272	-0.404201	0.602606
C40	C	0.793272	0.095799	1.102606
C41	C	0.350426	-0.423248	0.583534
C42	C	0.850426	0.076752	1.083534
C43	C	0.350451	-0.515727	0.618798
C44	C	0.850451	-0.015727	1.118798
C45	C	0.293297	-0.496678	0.637872
C46	C	0.793297	0.003322	1.137872
C47	C	0.194628	-0.328499	0.573626
C48	C	0.694628	0.171501	1.073626
C49	C	0.175551	-0.271340	0.554591
C50	C	0.675551	0.228660	1.054591
C51	C	0.128936	-0.271362	0.647935
C52	C	0.628936	0.228638	1.147935
C53	C	0.148014	-0.328521	0.666970
C54	C	0.648014	0.171479	1.166970
C55	C	0.124672	-0.427119	0.643641
C56	C	0.624672	0.072881	1.143641
C57	C	0.105611	-0.446170	0.624592
C58	C	0.605611	0.053830	1.124592
C59	C	0.198934	-0.492820	0.577889
C60	C	0.698934	0.007180	1.077889
C61	C	0.217998	-0.473770	0.596931
C62	C	0.717998	0.026230	1.096931
C63	C	0.124740	-0.427136	0.742229
C64	C	0.624740	0.072864	1.242229
C65	C	0.105728	-0.446202	0.799386
C66	C	0.605728	0.053798	1.299386
C67	C	0.199085	-0.492863	0.799337
C68	C	0.699085	0.007137	1.299337
C69	C	0.218096	-0.473798	0.742178
C70	C	0.718096	0.026202	1.242178
C71	C	0.180923	-0.440933	0.713626
C72	C	0.680923	0.059067	1.213626
C73	C	0.264710	-0.440915	0.629773
C74	C	0.764710	0.059085	1.129773
C75	C	0.121509	-0.499370	0.889991
C76	C	0.621509	0.000630	1.389991
C77	C	0.441068	-0.498953	0.570621
C78	C	0.941068	0.001047	1.070621
C79	C	0.121297	-0.499349	0.571429
C80	C	0.621297	0.000651	1.071429
C81	C	0.121653	-0.180715	0.571802
C82	C	0.621653	0.319285	1.071802
C83	C	-0.111071	-0.648912	0.421584
C84	C	0.388929	-0.148912	0.921584
C85	C	-0.027286	-0.649018	0.421777
C86	C	0.472714	-0.149018	0.921777
C87	C	-0.048200	-0.669944	0.400740
C88	C	0.451800	-0.169944	0.900740
C89	C	-0.064036	-0.761340	0.448814
C90	C	0.435964	-0.261340	0.948814
C91	C	-0.045033	-0.818500	0.467893
C92	C	0.454967	-0.318500	0.967893
C93	C	0.047447	-0.818609	0.432797
C94	C	0.547447	-0.318609	0.932797
C95	C	0.028444	-0.761451	0.413717
C96	C	0.528444	-0.261451	0.913717
C97	C	-0.139731	-0.662677	0.477755
C98	C	0.360269	-0.162677	0.977755
C99	C	-0.196885	-0.643554	0.496701
C100	C	0.303115	-0.143554	0.996701
C101	C	-0.196717	-0.596907	0.403303
C102	C	0.303283	-0.096907	0.903303
C103	C	-0.139562	-0.616030	0.384357
C104	C	0.360438	-0.116030	0.884357
C105	C	-0.041053	-0.592827	0.407952
C106	C	0.458947	-0.092827	0.907952
C107	C	-0.022041	-0.573809	0.427083
C108	C	0.477959	-0.073809	0.927083
C109	C	0.024504	-0.667167	0.473848
C110	C	0.524504	-0.167167	0.973848
C111	C	0.005492	-0.686188	0.454725
C112	C	0.505492	-0.186188	0.954725
C113	C	-0.040886	-0.592836	0.309259
C114	C	0.459114	-0.092836	0.809259
C115	C	-0.021740	-0.573821	0.252102
C116	C	0.478260	-0.073821	0.752102
C117	C	0.024886	-0.667185	0.252163
C118	C	0.524886	-0.167185	0.752163
C119	C	0.005743	-0.686199	0.309322
C120	C	0.505743	-0.186199	0.809322
C121	C	-0.027145	-0.649023	0.337868
C122	C	0.472855	-0.149023	0.837868
C123	C	-0.027299	-0.732818	0.421728
C124	C	0.472701	-0.232818	0.921728
N125	N	0.492511	-0.516826	0.553742
N126	N	0.992511	-0.016826	1.053742
O127	O	0.679283	-0.525926	0.419277
O128	O	1.179283	-0.025926	0.919277
O129	O	0.679465	-0.632059	0.563349
O130	O	1.179465	-0.132059	1.063349
O131	O	0.679393	-0.631817	0.471975
O132	O	1.179393	-0.131817	0.971975
O133	O	0.679355	-0.526168	0.510650
O134	O	1.179355	-0.026168	1.010650
O135	O	0.588593	-0.601610	0.502313
O136	O	1.088593	-0.101610	1.002313
O137	O	0.588665	-0.601852	0.593686
O138	O	1.088665	-0.101852	1.093686
O139	O	0.588483	-0.495720	0.449614
O140	O	1.088483	0.004280	0.949614
Zn141	Zn	0.574158	-0.543990	0.526467
Zn142	Zn	1.074158	-0.043990	1.026467
Zn143	Zn	0.693790	-0.583788	0.486496
Zn144	Zn	1.193790	-0.083788	0.986496
O145	O	0.588555	-0.495962	0.540987
O146	O	1.088555	0.004038	1.040987
N147	N	0.775436	-0.610952	0.459215
N148	N	1.275436	-0.110952	0.959215
N149	N	0.104844	-0.129269	0.553931
N150	N	0.604844	0.370731	1.053931
O151	O	-0.029548	0.057600	0.544709
O152	O	0.470452	0.557600	1.044709
O153	O	0.114530	0.057617	0.438578
O154	O	0.614530	0.557617	0.938578
O155	O	0.023130	0.057594	0.438850
O156	O	0.523130	0.557594	0.938850
O157	O	0.061852	0.057623	0.544437
O158	O	0.561852	0.557623	1.044437
O159	O	0.053431	-0.033213	0.469115
O160	O	0.553431	0.466787	0.969115
O161	O	0.144831	-0.033190	0.468843
O162	O	0.644831	0.466810	0.968843
O163	O	0.000753	-0.033207	0.574974
O164	O	0.500753	0.466793	1.074974
Zn165	Zn	0.077603	-0.047616	0.526714
Zn166	Zn	0.577603	0.452384	1.026714
Zn167	Zn	0.037680	0.072026	0.486838
Zn168	Zn	0.537680	0.572026	0.986838
O169	O	0.092153	-0.033184	0.574702
O170	O	0.592153	0.466816	1.074702
N171	N	0.010432	0.153679	0.459622
N172	N	0.510432	0.653679	0.959622
N173	N	0.105130	-0.516904	0.941437
N174	N	0.605130	-0.016904	1.441437
O175	O	0.095923	-0.651280	1.128292
O176	O	0.595923	-0.151280	1.628292
O177	O	-0.010184	-0.507155	1.128318
O178	O	0.489816	-0.007155	1.628318
O179	O	-0.009938	-0.598539	1.128284
O180	O	0.490062	-0.098539	1.628284
O181	O	0.095677	-0.559897	1.128326
O182	O	0.595677	-0.059897	1.628326
O183	O	0.020315	-0.568257	1.037481
O184	O	0.520315	-0.068257	1.537481
O185	O	0.020068	-0.476874	1.037515
O186	O	0.520068	0.023126	1.537515
O187	O	0.126176	-0.620999	1.037489
O188	O	0.626176	-0.120999	1.537489
Zn189	Zn	0.077925	-0.544128	1.023085
Zn190	Zn	0.577925	-0.044128	1.523085
Zn191	Zn	0.038066	-0.584026	1.142722
Zn192	Zn	0.538066	-0.084026	1.642722
O193	O	0.125929	-0.529616	1.037523
O194	O	0.625929	-0.029616	1.537523
N195	N	0.010860	-0.611256	1.224371
N196	N	0.510860	-0.111256	1.724371
C197	C	0.034807	-0.473765	0.439352
C198	C	0.534807	0.026235	0.939352
C199	C	0.147897	-0.586765	0.439257
C200	C	0.647897	-0.086765	0.939257
C201	C	0.080529	-0.654326	0.574308
C202	C	0.580529	-0.154326	1.074308
C203	C	-0.032561	-0.541326	0.574403
C204	C	0.467439	-0.041326	1.074403
C205	C	0.634087	-0.631571	0.596668
C206	C	1.134087	-0.131571	1.096668
C207	C	0.633999	-0.631272	0.483513
C208	C	1.133999	-0.131272	0.983513
C209	C	0.633858	-0.496206	0.416295
C210	C	1.133858	0.003794	0.916295
C211	C	0.633949	-0.496507	0.529449
C212	C	1.133949	0.003493	1.029449
C213	C	0.147793	0.012327	0.439058
C214	C	0.647793	0.512327	0.939058
C215	C	0.034644	0.012187	0.439432
C216	C	0.534644	0.512187	0.939432
C217	C	-0.032548	0.012195	0.574457
C218	C	0.467452	0.512195	1.074457
C219	C	0.080639	0.012222	0.574120
C220	C	0.580639	0.512222	1.074120
C221	C	-0.009670	-0.473857	1.082920
C222	C	0.490330	0.026143	1.582920
C223	C	-0.009359	-0.587018	1.082860
C224	C	0.490641	-0.087018	1.582860
C225	C	0.125662	-0.654297	1.082887
C226	C	0.625662	-0.154297	1.582887
C227	C	0.125358	-0.541129	1.082927
C228	C	0.625358	-0.041129	1.582927
H229	H	0.094465	-0.400370	0.718985
H230	H	0.594465	0.099630	1.218985
O231	O	0.633941	-0.452550	0.540412
O232	O	1.133941	0.047450	1.040412
H233	H	0.670927	-0.440938	0.510950
H234	H	1.170927	0.059062	1.010950
H235	H	0.189085	0.012584	0.405656
H236	H	0.689085	0.512584	0.905656
O237	O	-0.053803	-0.419031	1.082933
O238	O	0.446197	0.080969	1.582933
H239	H	-0.038370	-0.392259	1.082952
H240	H	0.461630	0.107741	1.582952
H241	H	-0.042525	-0.595273	1.082811
H242	H	0.457475	-0.095273	1.582811
H243	H	0.158977	-0.695688	1.082873
H244	H	0.658977	-0.195688	1.582873
O245	O	0.634025	-0.675238	0.472550
O246	O	1.134025	-0.175238	0.972550
H247	H	0.634084	-0.712360	0.509426
H248	H	1.134084	-0.212360	1.009426
O249	O	0.169313	-0.530186	1.082939
O250	O	0.669313	-0.030186	1.582939
H251	H	0.179207	-0.495386	1.045934
H252	H	0.679207	0.004614	1.545934
O253	O	0.045127	-0.431306	0.830234
O254	O	0.545127	0.068694	1.330234
H255	H	0.022476	-0.405244	0.800774
H256	H	0.522476	0.094756	1.300774
H257	H	-0.073925	0.012190	0.607776
H258	H	0.426075	0.512190	1.107776
O259	O	0.239179	-0.528349	0.830131
O260	O	0.739179	-0.028349	1.330131
H261	H	0.281440	-0.534757	0.800636
H262	H	0.781440	-0.034757	1.300636
O263	O	0.023918	-0.418893	0.395329
O264	O	0.523918	0.081107	0.895329
H265	H	-0.018317	-0.392204	0.410887
H266	H	0.481683	0.107796	0.910887
H267	H	0.026351	0.012184	0.406260
H268	H	0.526351	0.512184	0.906260
O269	O	0.091423	-0.709199	0.618329
O270	O	0.591423	-0.209199	1.118329
H271	H	0.061950	-0.728323	0.629938
H272	H	0.561950	-0.228323	1.129938
H273	H	0.016700	-0.731943	0.465981
H274	H	0.516700	-0.231943	0.965981
O275	O	0.091615	0.012231	0.618064
O276	O	0.591615	0.512231	1.118064
H277	H	0.086864	-0.024780	0.654328
H278	H	0.586864	0.475220	1.154328
O279	O	0.278697	-0.488677	0.711327
O280	O	0.778697	0.011323	1.211327
H281	H	0.301349	-0.514726	0.740786
H282	H	0.801349	-0.014726	1.240786
H283	H	-0.073962	-0.533167	0.607674
H284	H	0.426038	-0.033167	1.107674
O285	O	0.084625	-0.391696	0.679107
O286	O	0.584625	0.108304	1.179107
H287	H	0.042348	-0.385300	0.685522
H288	H	0.542348	0.114700	1.185522
O289	O	0.230056	-0.359315	0.533555
O290	O	0.730056	0.140685	1.033555
H291	H	0.209644	-0.385367	0.540013
H292	H	0.709644	0.114633	1.040013
O293	O	0.634152	-0.675707	0.651478
O294	O	1.134152	-0.175707	1.151478
H295	H	0.597160	-0.687295	0.670550
H296	H	1.097160	-0.187295	1.170550
H297	H	0.059853	-0.434921	0.635844
H298	H	0.559853	0.065079	1.135844
O299	O	0.633793	-0.452071	0.361485
O300	O	1.133793	0.047929	0.861485
H301	H	0.596774	-0.442087	0.353758
H302	H	1.096774	0.057913	0.853758
O303	O	0.238973	-0.528244	0.542422
O304	O	0.738973	-0.028244	1.042422
H305	H	0.265039	-0.566002	0.565079
H306	H	0.765039	-0.066002	1.065079
O307	O	0.278607	-0.488653	0.582018
O308	O	0.778607	0.011347	1.082018
H309	H	0.301226	-0.514700	0.555962
H310	H	0.801226	-0.014700	1.055962
H311	H	0.373728	-0.561133	0.625383
H312	H	0.873728	-0.061133	1.125383
O313	O	0.262487	-0.536276	0.667168
O314	O	0.762487	-0.036276	1.167168
H315	H	0.291970	-0.578251	0.669585
H316	H	0.791970	-0.078251	1.169585
H317	H	0.373680	-0.393351	0.561411
H318	H	0.873680	0.106649	1.061411
O319	O	0.068067	-0.730684	0.384506
O320	O	0.568067	-0.230684	0.884506
H321	H	0.110019	-0.760199	0.382150
H322	H	0.610019	-0.260199	0.882150
H323	H	0.186762	-0.248063	0.508836
H324	H	0.686762	0.251937	1.008836
O325	O	0.262439	-0.344057	0.593878
O326	O	0.762439	0.155943	1.093878
H327	H	0.273384	-0.320800	0.549462
H328	H	0.773384	0.179200	1.049462
O329	O	0.093515	-0.240543	0.688007
O330	O	0.593515	0.259457	1.188007
H331	H	0.087147	-0.270026	0.730278
H332	H	0.587147	0.229974	1.230278
H333	H	-0.032937	-0.528066	0.228816
H334	H	0.467063	-0.028066	0.728816
O335	O	0.133138	-0.359362	0.727576
O336	O	0.633138	0.140638	1.227576
H337	H	0.107087	-0.329894	0.750215
H338	H	0.607087	0.170106	1.250215
H339	H	-0.067667	-0.562559	0.332499
H340	H	0.432333	-0.062559	0.832499
H341	H	0.051655	-0.697459	0.228927
H342	H	0.551655	-0.197459	0.728927
H343	H	0.189295	-0.594927	0.405983
H344	H	0.689295	-0.094927	0.905983
O345	O	0.020564	-0.746804	0.340180
O346	O	0.520564	-0.246804	0.840180
H347	H	0.046642	-0.769458	0.310725
H348	H	0.546642	-0.269458	0.810725
H349	H	-0.067739	-0.562558	0.381123
H350	H	0.432261	-0.062558	0.881123
H351	H	-0.033252	-0.528055	0.415829
H352	H	0.466748	-0.028055	0.915829
H353	H	0.092838	-0.841923	0.426277
H354	H	0.592838	-0.341923	0.926277
O355	O	0.059856	-0.707258	0.509385
O356	O	0.559856	-0.207258	1.009385
H357	H	0.066228	-0.749525	0.515784
H358	H	0.566228	-0.249525	1.015784
H359	H	-0.109425	-0.738032	0.455342
H360	H	0.390575	-0.238032	0.955342
O361	O	-0.084654	-0.849267	0.497110
O362	O	0.415346	-0.349267	0.997110
H363	H	-0.115254	-0.838268	0.534192
H364	H	0.384746	-0.338268	1.034192
O365	O	-0.108987	-0.698146	0.517894
O366	O	0.391013	-0.198146	1.017894
H367	H	-0.119977	-0.675457	0.543937
H368	H	0.380023	-0.175457	1.043937
O369	O	-0.227803	-0.658400	0.557289
O370	O	0.272197	-0.158400	1.057289
H371	H	-0.198389	-0.684482	0.579992
H372	H	0.301611	-0.184482	1.079992
H373	H	-0.116227	-0.604815	0.338615
H374	H	0.383773	-0.104815	0.838615
O375	O	-0.227453	-0.561445	0.363155
O376	O	0.272547	-0.061445	0.863155
H377	H	-0.197922	-0.555089	0.320911
H378	H	0.302078	-0.055089	0.820911
