data_functionalizedCrystal
_audit_creation_method	'MofGen! by Chris Wilmer'
_symmetry_space_group_name_H-M	'P1'
_symmetry_Int_Tables_number	1
_symmetry_cell_setting	triclinic
loop_
_symmetry_equiv_pos_as_xyz
  x,y,z
_cell_length_a	13.897448
_cell_length_b	13.897449
_cell_length_c	13.897441
_cell_angle_alpha	90.022859
_cell_angle_beta	90.028012
_cell_angle_gamma	90.019402
loop_
_atom_site_label
_atom_site_type_symbol
_atom_site_fract_x
_atom_site_fract_y
_atom_site_fract_z
Zn1	Zn	0.383988	-1.474690	-0.545453
Zn2	Zn	0.633988	-1.224690	-0.295453
Zn3	Zn	0.883988	-0.974690	-0.045453
Zn4	Zn	1.133988	-0.724690	0.204547
Zn5	Zn	0.545310	-1.474579	-0.384162
Zn6	Zn	0.795310	-1.224579	-0.134162
Zn7	Zn	1.045310	-0.974579	0.115838
Zn8	Zn	1.295310	-0.724579	0.365838
Zn9	Zn	0.384030	-1.313379	-0.384166
Zn10	Zn	0.634030	-1.063379	-0.134166
Zn11	Zn	0.884030	-0.813379	0.115834
Zn12	Zn	1.134030	-0.563379	0.365834
Zn13	Zn	0.545243	-1.313356	-0.545408
Zn14	Zn	0.795243	-1.063356	-0.295408
Zn15	Zn	1.045243	-0.813356	-0.045408
Zn16	Zn	1.295243	-0.563356	0.204592
O17	O	0.464643	-1.394001	-0.464797
O18	O	0.714643	-1.144001	-0.214797
O19	O	0.964643	-0.894001	0.035203
O20	O	1.214643	-0.644001	0.285203
O21	O	0.405399	-1.609657	-0.524075
O22	O	0.655399	-1.359657	-0.274075
O23	O	0.905399	-1.109657	-0.024075
O24	O	1.155399	-0.859657	0.225925
O25	O	0.523962	-1.453159	-0.249181
O26	O	0.773962	-1.203159	0.000819
O27	O	1.023962	-0.953159	0.250819
O28	O	1.273962	-0.703159	0.500819
O29	O	0.249043	-1.334834	-0.405581
O30	O	0.499043	-1.084834	-0.155581
O31	O	0.749043	-0.834834	0.094419
O32	O	0.999043	-0.584834	0.344419
O33	O	0.523921	-1.609575	-0.405575
O34	O	0.773921	-1.359575	-0.155575
O35	O	1.023921	-1.109575	0.094425
O36	O	1.273921	-0.859575	0.344425
O37	O	0.249012	-1.453348	-0.524078
O38	O	0.499012	-1.203348	-0.274078
O39	O	0.749012	-0.953348	-0.024078
O40	O	0.999012	-0.703348	0.225922
O41	O	0.405470	-1.334726	-0.249183
O42	O	0.655470	-1.084726	0.000817
O43	O	0.905470	-0.834726	0.250817
O44	O	1.155470	-0.584726	0.500817
O45	O	0.405405	-1.178394	-0.405538
O46	O	0.655405	-0.928394	-0.155538
O47	O	0.905405	-0.678394	0.094462
O48	O	1.155405	-0.428394	0.344462
O49	O	0.523806	-1.334794	-0.680396
O50	O	0.773806	-1.084794	-0.430396
O51	O	1.023806	-0.834794	-0.180396
O52	O	1.273806	-0.584794	0.069604
O53	O	0.523847	-1.178377	-0.524002
O54	O	0.773847	-0.928377	-0.274002
O55	O	1.023847	-0.678377	-0.024002
O56	O	1.273847	-0.428377	0.225998
O57	O	0.405333	-1.453325	-0.680429
O58	O	0.655333	-1.203325	-0.430429
O59	O	0.905333	-0.953325	-0.180429
O60	O	1.155333	-0.703325	0.069571
O61	O	0.680283	-1.453136	-0.405531
O62	O	0.930283	-1.203136	-0.155531
O63	O	1.180283	-0.953136	0.094469
O64	O	1.430283	-0.703136	0.344469
O65	O	0.680233	-1.334686	-0.523999
O66	O	0.930233	-1.084686	-0.273999
O67	O	1.180233	-0.834686	-0.023999
O68	O	1.430233	-0.584686	0.226001
C69	C	0.464624	-1.143387	-0.464766
C70	C	0.714624	-0.893387	-0.214766
C71	C	0.964624	-0.643387	0.035234
C72	C	1.214624	-0.393387	0.285234
C73	C	0.464639	-1.036173	-0.464775
C74	C	0.714639	-0.786173	-0.214775
C75	C	0.964639	-0.536173	0.035225
C76	C	1.214639	-0.286173	0.285225
C77	C	0.464637	-0.839878	-0.464794
C78	C	0.714637	-0.589878	-0.214794
C79	C	0.964637	-0.339878	0.035206
C80	C	1.214637	-0.089878	0.285206
C81	C	0.464635	-0.949110	-0.464781
C82	C	0.714635	-0.699110	-0.214781
C83	C	0.964635	-0.449110	0.035219
C84	C	1.214635	-0.199110	0.285219
C85	C	0.715257	-1.393922	-0.464781
C86	C	0.965257	-1.143922	-0.214781
C87	C	1.215257	-0.893922	0.035219
C88	C	1.465257	-0.643922	0.285219
C89	C	0.822471	-1.393977	-0.464806
C90	C	1.072471	-1.143977	-0.214806
C91	C	1.322471	-0.893977	0.035194
C92	C	1.572471	-0.643977	0.285194
C93	C	1.018766	-1.394072	-0.464875
C94	C	1.268766	-1.144072	-0.214875
C95	C	1.518766	-0.894072	0.035125
C96	C	1.768766	-0.644072	0.285125
C97	C	0.909534	-1.394016	-0.464840
C98	C	1.159534	-1.144016	-0.214840
C99	C	1.409534	-0.894016	0.035160
C100	C	1.659534	-0.644016	0.285160
C101	C	1.213050	-1.394098	-0.464846
C102	C	1.463050	-1.144098	-0.214846
C103	C	1.713050	-0.894098	0.035154
C104	C	1.963050	-0.644098	0.285154
C105	C	1.105836	-1.394118	-0.464896
C106	C	1.355836	-1.144118	-0.214896
C107	C	1.605836	-0.894118	0.035104
C108	C	1.855836	-0.644118	0.285104
C109	C	0.464558	-1.394069	-0.716390
C110	C	0.714558	-1.144069	-0.466390
C111	C	0.964558	-0.894069	-0.216390
C112	C	1.214558	-0.644069	0.033610
C113	C	0.464521	-1.394098	-0.823604
C114	C	0.714521	-1.144098	-0.573604
C115	C	0.964521	-0.894098	-0.323604
C116	C	1.214521	-0.644098	-0.073604
C117	C	0.464656	-0.645594	-0.464820
C118	C	0.714656	-0.395594	-0.214820
C119	C	0.964656	-0.145594	0.035180
C120	C	1.214656	0.104406	0.285180
C121	C	0.464646	-0.752808	-0.464806
C122	C	0.714646	-0.502808	-0.214806
C123	C	0.964646	-0.252808	0.035194
C124	C	1.214646	-0.002808	0.285194
C125	C	0.464456	-1.394125	-1.019900
C126	C	0.714456	-1.144125	-0.769900
C127	C	0.964456	-0.894125	-0.519900
C128	C	1.214456	-0.644125	-0.269900
C129	C	0.464495	-1.394107	-0.910667
C130	C	0.714495	-1.144107	-0.660667
C131	C	0.964495	-0.894107	-0.410667
C132	C	1.214495	-0.644107	-0.160667
C133	C	0.464658	-1.393988	-0.214183
C134	C	0.714658	-1.143988	0.035817
C135	C	0.964658	-0.893988	0.285817
C136	C	1.214658	-0.643988	0.535817
C137	C	0.464423	-1.394146	-0.106970
C138	C	0.714423	-1.144146	0.143030
C139	C	0.964423	-0.894146	0.393030
C140	C	1.214423	-0.644146	0.643030
