data_functionalizedCrystal
_audit_creation_method	'MofGen! by Chris Wilmer'
_symmetry_space_group_name_H-M	'P1'
_symmetry_Int_Tables_number	1
_symmetry_cell_setting	triclinic
loop_
_symmetry_equiv_pos_as_xyz
  x,y,z
_cell_length_a	13.897447
_cell_length_b	12.759401
_cell_length_c	12.759393
_cell_angle_alpha	90.017571
_cell_angle_beta	90.031252
_cell_angle_gamma	90.022474
loop_
_atom_site_label
_atom_site_type_symbol
_atom_site_fract_x
_atom_site_fract_y
_atom_site_fract_z
Zn1	Zn	-0.383890	1.606217	0.593961
Zn2	Zn	-0.545217	1.606097	0.418279
Zn3	Zn	-0.383946	1.430520	0.418302
Zn4	Zn	-0.545153	1.430493	0.593923
O5	O	-0.464552	1.518332	0.506116
O6	O	-0.405294	1.753222	0.570663
O7	O	-0.523875	1.582768	0.271261
O8	O	-0.248957	1.453888	0.441629
O9	O	-0.523820	1.753134	0.441590
O10	O	-0.248916	1.582972	0.570685
O11	O	-0.405389	1.453772	0.271278
O12	O	-0.405327	1.283495	0.441592
O13	O	-0.523711	1.453841	0.740949
O14	O	-0.523765	1.283475	0.570620
O15	O	-0.405232	1.582945	0.740977
O16	O	-0.680190	1.582742	0.441553
O17	O	-0.680143	1.453726	0.570598
C18	C	-0.464546	1.245364	0.506105
C19	C	-0.464567	1.128588	0.506125
C20	C	-0.715166	1.518246	0.506092
C21	C	-0.822380	1.518306	0.506117
C22	C	-0.464458	1.518404	0.780150
C23	C	-0.464418	1.518434	0.896926
C24	C	-0.909450	1.518357	0.506141
C25	C	-1.018682	1.518430	0.506168
C26	C	-0.212959	1.518446	0.506164
C27	C	-0.105745	1.518495	0.506184
C28	C	-0.464558	1.792365	0.506128
C29	C	-0.464561	1.909141	0.506133
C30	C	-0.402850	1.964051	0.573328
C31	C	-0.402855	2.073775	0.573327
C32	C	-0.526285	2.073671	0.438927
C33	C	-0.526284	1.963948	0.438934
C34	C	-0.341126	1.909244	0.640527
C35	C	-0.279409	1.964153	0.707727
C36	C	-0.279415	2.073877	0.707725
C37	C	-0.341137	2.128692	0.640525
C38	C	-0.464575	1.518320	0.233149
C39	C	-0.464344	1.518493	0.116373
C40	C	-0.526049	1.451264	1.061501
C41	C	-0.526084	1.451232	0.951776
C42	C	-0.402705	1.585666	0.951806
C43	C	-0.402666	1.585693	1.061528
C44	C	-0.587727	1.384064	1.116345
C45	C	-0.649438	1.316831	1.061472
C46	C	-0.649473	1.316798	0.951748
C47	C	-0.587797	1.383999	0.896896
H48	H	-0.341111	1.819901	0.640531
O49	O	-0.336196	1.658149	0.892644
H50	H	-0.293275	1.704899	0.949234
H51	H	-0.341129	2.218037	0.640522
H52	H	-0.587707	1.384085	1.205688
O53	O	-0.587835	1.383974	0.778550
H54	H	-0.641109	1.325939	0.749605
H55	H	-0.229168	2.118582	0.762449
O56	O	-0.592842	2.132784	0.366436
H57	H	-0.582466	2.218306	0.377710
H58	H	-0.576536	1.919240	0.384221
O59	O	-0.715952	1.244344	1.120624
H60	H	-0.705568	1.255663	1.206140
H61	H	-0.699714	1.262045	0.907074
O62	O	-0.336120	1.658208	1.120725
H63	H	-0.293250	1.704944	1.064157
O64	O	-0.212842	1.905031	0.780200
H65	H	-0.229359	1.926099	0.862656
