data_functionalizedCrystal
_audit_creation_method	'MofGen! by Chris Wilmer'
_symmetry_space_group_name_H-M	'P1'
_symmetry_Int_Tables_number	1
_symmetry_cell_setting	triclinic
loop_
_symmetry_equiv_pos_as_xyz
  x,y,z
_cell_length_a	10.685980
_cell_length_b	21.295417
_cell_length_c	10.685986
_cell_angle_alpha	85.582048
_cell_angle_beta	90.307287
_cell_angle_gamma	94.396638
loop_
_atom_site_label
_atom_site_type_symbol
_atom_site_fract_x
_atom_site_fract_y
_atom_site_fract_z
Zn1	Zn	1.863549	-0.146533	-0.856505
Zn2	Zn	2.363549	0.353467	-0.356505
Zn3	Zn	1.879436	-0.259244	-0.646694
Zn4	Zn	2.379436	0.240756	-0.146694
Zn5	Zn	1.669817	-0.162621	-0.630642
Zn6	Zn	2.169817	0.337379	-0.130642
Zn7	Zn	1.653685	-0.260412	-0.840309
Zn8	Zn	2.153685	0.239588	-0.340309
O9	O	1.766622	-0.207202	-0.743538
O10	O	2.266622	0.292798	-0.243538
O11	O	2.041212	-0.154263	-0.842169
O12	O	2.541212	0.345737	-0.342169
O13	O	1.865029	-0.252671	-0.469012
O14	O	2.365029	0.247329	0.030988
O15	O	1.695619	-0.072391	-0.660664
O16	O	2.195619	0.427609	-0.160664
O17	O	2.052884	-0.237072	-0.688022
O18	O	2.552884	0.262928	-0.188022
O19	O	1.837953	-0.060572	-0.826604
O20	O	2.337953	0.439428	-0.326604
O21	O	1.711023	-0.181682	-0.457219
O22	O	2.211023	0.318318	0.042781
O23	O	1.492122	-0.182814	-0.644959
O24	O	1.992122	0.317186	-0.144959
O25	O	1.668124	-0.239061	-1.018010
O26	O	2.168124	0.260939	-0.518010
O27	O	1.480269	-0.254661	-0.799000
O28	O	1.980269	0.245339	-0.299000
O29	O	1.822310	-0.155395	-1.029909
O30	O	2.322310	0.344605	-0.529909
O31	O	1.849386	-0.347495	-0.672317
O32	O	2.349386	0.152505	-0.172317
O33	O	1.683528	-0.348352	-0.814565
O34	O	2.183528	0.151648	-0.314565
C35	C	1.440676	-0.220610	-0.718481
C36	C	1.940676	0.279390	-0.218481
C37	C	1.301233	-0.226360	-0.707791
C38	C	1.801233	0.273640	-0.207791
C39	C	1.766463	-0.370763	-0.743455
C40	C	2.266463	0.129237	-0.243455
C41	C	1.766506	-0.440729	-0.743471
C42	C	2.266506	0.059271	-0.243471
C43	C	1.852933	-0.473122	-0.669490
C44	C	2.352933	0.026878	-0.169490
C45	C	1.852990	-0.538862	-0.669523
C46	C	2.352990	-0.038862	-0.169523
C47	C	1.766598	-0.572206	-0.743522
C48	C	2.266598	-0.072206	-0.243522
C49	C	1.680164	-0.539805	-0.817518
C50	C	2.180164	-0.039805	-0.317518
C51	C	1.680118	-0.474066	-0.817492
C52	C	2.180118	0.025934	-0.317492
N53	N	1.656121	-0.679652	-0.744649
N54	N	2.156121	-0.179652	-0.244649
N55	N	1.656168	-0.742101	-0.744666
N56	N	2.156168	-0.242101	-0.244666
C57	C	1.766733	-0.770273	-0.743604
C58	C	2.266733	-0.270273	-0.243604
N59	N	1.877252	-0.733637	-0.742501
N60	N	2.377252	-0.233637	-0.242501
N61	N	1.877204	-0.671183	-0.742478
N62	N	2.377204	-0.171183	-0.242478
C63	C	1.766639	-0.643489	-0.743558
C64	C	2.266639	-0.143489	-0.243558
C65	C	1.853229	-0.873948	-0.669655
C66	C	2.353229	-0.373948	-0.169655
C67	C	1.853287	-0.939687	-0.669697
C68	C	2.353287	-0.439687	-0.169697
C69	C	1.680450	-0.940630	-0.817684
C70	C	2.180450	-0.440630	-0.317684
C71	C	1.680402	-0.874891	-0.817650
C72	C	2.180402	-0.374891	-0.317650
C73	C	1.766791	-0.841554	-0.743629
C74	C	2.266791	-0.341554	-0.243629
C75	C	2.093840	-0.193743	-0.768693
C76	C	2.593840	0.306257	-0.268693
C77	C	2.233281	-0.188007	-0.779413
C78	C	2.733281	0.311993	-0.279413
C79	C	1.741645	-0.195564	-1.070751
C80	C	2.241645	0.304436	-0.570751
C81	C	1.731002	-0.190604	-1.210191
C82	C	2.231002	0.309396	-0.710191
C83	C	1.766814	-0.043000	-0.743650
C84	C	2.266814	0.457000	-0.243650
C85	C	1.766895	0.026973	-0.743698
C86	C	2.266895	0.526973	-0.243698
C87	C	1.791573	-0.218747	-0.417602
C88	C	2.291573	0.281253	0.082398
C89	C	1.802459	-0.223520	-0.278183
C90	C	2.302459	0.276480	0.221817
H91	H	1.281783	-0.150768	-0.848906
H92	H	1.781783	0.349232	-0.348906
H93	H	1.610020	-0.848515	-0.877886
H94	H	2.110020	-0.348515	-0.377886
H95	H	1.871783	-0.255489	-1.229719
H96	H	2.371783	0.244511	-0.729719
H97	H	1.609737	-0.447691	-0.877738
H98	H	2.109737	0.052309	-0.377738
H99	H	1.252725	-0.263598	-0.638285
H100	H	1.752725	0.236402	-0.138285
H101	H	1.923279	-0.445981	-0.609221
H102	H	2.423279	0.054019	-0.109221
Cl103	Cl	1.623977	-0.141234	-1.285016
Cl104	Cl	2.123977	0.358766	-0.785016
H105	H	1.609825	-0.566958	-0.877770
H106	H	2.109825	-0.066958	-0.377770
Cl107	Cl	1.961648	-0.579593	-0.576509
Cl108	Cl	2.461648	-0.079593	-0.076509
H109	H	1.923575	-0.846803	-0.609387
H110	H	2.423575	-0.346803	-0.109387
Cl111	Cl	1.571849	-0.982542	-0.910722
Cl112	Cl	2.071849	-0.482542	-0.410722
H113	H	1.923674	-0.966060	-0.609456
H114	H	2.423674	-0.466060	-0.109456
