data_functionalizedCrystal
_audit_creation_method	'MofGen! by Chris Wilmer'
_symmetry_space_group_name_H-M	'P1'
_symmetry_Int_Tables_number	1
_symmetry_cell_setting	triclinic
loop_
_symmetry_equiv_pos_as_xyz
  x,y,z
_cell_length_a	18.101395
_cell_length_b	18.101398
_cell_length_c	18.215399
_cell_angle_alpha	90.027113
_cell_angle_beta	89.973154
_cell_angle_gamma	89.976925
loop_
_atom_site_label
_atom_site_type_symbol
_atom_site_fract_x
_atom_site_fract_y
_atom_site_fract_z
Zn1	Zn	-0.294993	-1.132123	-0.416276
Zn2	Zn	0.205007	-0.632123	0.083724
Zn3	Zn	-0.418840	-1.132018	-0.293213
Zn4	Zn	0.081160	-0.632018	0.206787
Zn5	Zn	-0.295000	-1.008281	-0.293207
Zn6	Zn	0.205000	-0.508281	0.206793
Zn7	Zn	-0.418780	-1.008232	-0.416221
Zn8	Zn	0.081220	-0.508232	0.083779
O9	O	-0.356903	-1.070163	-0.354729
O10	O	0.143097	-0.570163	0.145271
O11	O	-0.311444	-1.235742	-0.399977
O12	O	0.188556	-0.735742	0.100023
O13	O	-0.402440	-1.115581	-0.190228
O14	O	0.097560	-0.615581	0.309772
O15	O	-0.191366	-1.024773	-0.309552
O16	O	0.308634	-0.524773	0.190448
O17	O	-0.402434	-1.235665	-0.309563
O18	O	0.097566	-0.735665	0.190437
O19	O	-0.191361	-1.115759	-0.399971
O20	O	0.308639	-0.615759	0.100029
O21	O	-0.311455	-1.024672	-0.190223
O22	O	0.188545	-0.524672	0.309777
O23	O	-0.311397	-0.904642	-0.309499
O24	O	0.188603	-0.404642	0.190501
O25	O	-0.402331	-1.024690	-0.519213
O26	O	0.097669	-0.524690	-0.019213
O27	O	-0.402337	-0.904606	-0.399878
O28	O	0.097663	-0.404606	0.100122
O29	O	-0.311385	-1.115712	-0.519253
O30	O	0.188615	-0.615712	-0.019253
O31	O	-0.522465	-1.115533	-0.309510
O32	O	-0.022465	-0.615533	0.190490
O33	O	-0.522421	-1.024588	-0.399884
O34	O	-0.022421	-0.524588	0.100116
C35	C	-0.356862	-0.877753	-0.354682
C36	C	0.143138	-0.377753	0.145318
C37	C	-0.356862	-0.795439	-0.354680
C38	C	0.143138	-0.295439	0.145320
C39	C	-0.549314	-1.070064	-0.354708
C40	C	-0.049314	-0.570064	0.145292
C41	C	-0.631628	-1.070090	-0.354723
C42	C	-0.131628	-0.570090	0.145277
C43	C	-0.356891	-0.496348	-0.354728
C44	C	0.143109	0.003652	0.145272
C45	C	-0.299389	-0.527671	-0.298143
C46	C	0.200611	-0.027671	0.201857
C47	C	-0.299549	-0.613289	-0.297906
C48	C	0.200451	-0.113289	0.202094
C49	C	-0.356876	-0.644730	-0.354704
C50	C	0.143124	-0.144730	0.145296
C51	C	-0.434886	-0.613612	-0.333514
C52	C	0.065114	-0.113612	0.166486
C53	C	-0.434561	-0.527967	-0.333116
C54	C	0.065439	-0.027967	0.166884
C55	C	-0.337063	-0.527963	-0.432638
C56	C	0.162937	-0.027963	0.067362
C57	C	-0.335331	-0.613614	-0.432216
C58	C	0.164669	-0.113614	0.067784
C59	C	-0.356872	-0.728590	-0.354692
C60	C	0.143128	-0.228590	0.145308
C61	C	-0.356900	-0.412488	-0.354739
C62	C	0.143100	0.087512	0.145261
C63	C	-0.930719	-1.070252	-0.354763
C64	C	-0.430719	-0.570252	0.145237
C65	C	-0.899396	-1.013165	-0.411764
C66	C	-0.399396	-0.513165	0.088236
C67	C	-0.813778	-1.012894	-0.411586
C68	C	-0.313778	-0.512894	0.088414
C69	C	-0.782336	-1.070172	-0.354744
C70	C	-0.282336	-0.570172	0.145256
C71	C	-0.813484	-1.049042	-0.277180
C72	C	-0.313484	-0.549042	0.222820
C73	C	-0.899129	-1.048674	-0.277521
C74	C	-0.399129	-0.548674	0.222479
C75	C	-0.899073	-1.148594	-0.374642
C76	C	-0.399073	-0.648594	0.125358
C77	C	-0.813422	-1.148133	-0.376343
C78	C	-0.313422	-0.648133	0.123657
C79	C	-0.698477	-1.070127	-0.354728
C80	C	-0.198477	-0.570127	0.145272
C81	C	-1.014578	-1.070295	-0.354773
C82	C	-0.514578	-0.570295	0.145227
C83	C	-0.163741	-1.070283	-0.354767
C84	C	0.336259	-0.570283	0.145233
C85	C	-0.081427	-1.070334	-0.354783
C86	C	0.418573	-0.570334	0.145217
C87	C	-0.356851	-1.070207	-0.546682
C88	C	0.143149	-0.570207	-0.046682
C89	C	-0.356828	-1.070225	-0.628481
C90	C	0.143172	-0.570225	-0.128481
C91	C	-0.356930	-0.263325	-0.354766
C92	C	0.143070	0.236675	0.145234
C93	C	-0.356905	-0.345639	-0.354752
C94	C	0.143095	0.154361	0.145248
C95	C	-0.309409	-1.117648	-0.893561
C96	C	0.190591	-0.617648	-0.393561
C97	C	-0.309429	-1.117639	-0.816702
C98	C	0.190571	-0.617639	-0.316702
C99	C	-0.404140	-1.022863	-0.816650
C100	C	0.095860	-0.522863	-0.316650
C101	C	-0.404123	-1.022876	-0.893507
C102	C	0.095877	-0.522876	-0.393507
C103	C	-0.356753	-1.070267	-0.931961
C104	C	0.143247	-0.570267	-0.431961
C105	C	-0.356790	-1.070246	-0.778245
C106	C	0.143210	-0.570246	-0.278245
C107	C	-0.356812	-1.070236	-0.694911
C108	C	0.143188	-0.570236	-0.194911
C109	C	-0.356732	-1.070278	-1.015300
C110	C	0.143268	-0.570278	-0.515300
C111	C	-0.356902	-1.070163	-0.163523
C112	C	0.143098	-0.570163	0.336477
C113	C	-0.356716	-1.070288	-0.081725
C114	C	0.143284	-0.570288	0.418275
H115	H	-0.241363	-0.507101	-0.311277
H116	H	0.258637	-0.007101	0.188723
O117	O	-0.927607	-1.174115	-0.448289
O118	O	-0.427607	-0.674115	0.051711
H119	H	-0.964667	-1.131240	-0.471547
H120	H	-0.464667	-0.631240	0.028453
O121	O	-0.785151	-0.973987	-0.254474
O122	O	-0.285151	-0.473987	0.245526
H123	H	-0.807552	-0.959663	-0.199547
H124	H	-0.307552	-0.459663	0.300453
H125	H	-0.312349	-0.506121	-0.240749
H126	H	0.187651	-0.006121	0.259251
O127	O	-0.926592	-1.101361	-0.219351
O128	O	-0.426592	-0.601361	0.280649
H129	H	-0.960619	-1.070638	-0.178844
H130	H	-0.460619	-0.570638	0.321156
H131	H	-0.793062	-1.164067	-0.433426
H132	H	-0.293062	-0.664067	0.066574
H133	H	-0.792016	-1.192916	-0.337853
H134	H	-0.292016	-0.692916	0.162147
O135	O	-0.927972	-0.936710	-0.394548
O136	O	-0.427972	-0.436710	0.105452
H137	H	-0.880693	-0.899365	-0.383288
H138	H	-0.380693	-0.399365	0.116712
O139	O	-0.455191	-0.971767	-0.934927
O140	O	0.044809	-0.471767	-0.434927
H141	H	-0.447226	-0.979745	-0.994831
H142	H	0.052774	-0.479745	-0.494831
H143	H	-0.442706	-0.984278	-0.785332
H144	H	0.057294	-0.484278	-0.285332
O145	O	-0.316907	-0.640372	-0.221431
O146	O	0.183093	-0.140372	0.278569
H147	H	-0.367969	-0.674275	-0.222765
H148	H	0.132031	-0.174275	0.277235
O149	O	-0.258364	-1.168741	-0.775282
O150	O	0.241636	-0.668741	-0.275282
H151	H	-0.225422	-1.201692	-0.814936
H152	H	0.274578	-0.701692	-0.314936
O153	O	-0.925668	-0.972816	-0.255219
O154	O	-0.425668	-0.472816	0.244781
H155	H	-0.959833	-0.977303	-0.204803
H156	H	-0.459833	-0.477303	0.295197
H157	H	-0.792716	-1.026113	-0.469099
H158	H	-0.292716	-0.526113	0.030901
H159	H	-0.241701	-0.634330	-0.311188
H160	H	0.258299	-0.134330	0.188812
H161	H	-0.270837	-1.156236	-0.924868
H162	H	0.229163	-0.656236	-0.424868
O163	O	-0.456824	-0.501449	-0.257672
O164	O	0.043176	-0.001449	0.242328
H165	H	-0.467717	-0.549797	-0.221814
H166	H	0.032283	-0.049797	0.278186
O167	O	-0.926075	-1.204901	-0.319701
O168	O	-0.426075	-0.704901	0.180299
H169	H	-0.907152	-1.189099	-0.263912
H170	H	-0.407152	-0.689099	0.236088
O171	O	-0.493230	-0.500504	-0.385324
O172	O	0.006770	-0.000504	0.114676
H173	H	-0.481213	-0.521083	-0.441485
H174	H	0.018787	-0.021083	0.058515
O175	O	-0.493169	-0.640584	-0.386392
O176	O	0.006831	-0.140584	0.113608
H177	H	-0.467091	-0.676544	-0.428435
H178	H	0.032909	-0.176544	0.071565
O179	O	-0.386768	-0.641964	-0.491059
O180	O	0.113232	-0.141964	0.008941
H181	H	-0.370007	-0.618956	-0.545024
H182	H	0.129993	-0.118956	-0.045024
O183	O	-0.457555	-0.641980	-0.258889
O184	O	0.042445	-0.141980	0.241111
H185	H	-0.512801	-0.619602	-0.244519
H186	H	-0.012801	-0.119602	0.255481
O187	O	-0.263018	-0.499399	-0.458160
O188	O	0.236982	0.000601	0.041840
H189	H	-0.239522	-0.462345	-0.415594
H190	H	0.260478	0.037655	0.084406
H191	H	-0.378945	-0.507706	-0.474799
H192	H	0.121055	-0.007706	0.025201
O193	O	-0.259291	-0.640560	-0.453392
O194	O	0.240709	-0.140560	0.046608
H195	H	-0.236931	-0.675971	-0.408904
H196	H	0.263069	-0.175971	0.091096
H197	H	-0.919946	-1.026253	-0.469463
H198	H	-0.419946	-0.526253	0.030537
H199	H	-0.793119	-1.089314	-0.233550
H200	H	-0.293119	-0.589314	0.266450
O201	O	-0.786712	-0.935979	-0.394124
O202	O	-0.286712	-0.435979	0.105876
H203	H	-0.807364	-0.896894	-0.436333
H204	H	-0.307364	-0.396894	0.063667
