data_functionalizedCrystal
_audit_creation_method	'MofGen! by Chris Wilmer'
_symmetry_space_group_name_H-M	'P1'
_symmetry_Int_Tables_number	1
_symmetry_cell_setting	triclinic
loop_
_symmetry_equiv_pos_as_xyz
  x,y,z
_cell_length_a	14.519731
_cell_length_b	14.519709
_cell_length_c	7.088929
_cell_angle_alpha	83.763835
_cell_angle_beta	96.215673
_cell_angle_gamma	83.684499
loop_
_atom_site_label
_atom_site_type_symbol
_atom_site_fract_x
_atom_site_fract_y
_atom_site_fract_z
O1	O	1.214403	0.130449	-0.158997
O2	O	1.714403	0.630449	0.341003
O3	O	0.945929	0.144666	-0.159000
O4	O	1.445929	0.644666	0.341000
O5	O	1.087285	0.003318	-0.158981
O6	O	1.587285	0.503318	0.341019
O7	O	1.073047	0.271796	-0.159016
O8	O	1.573047	0.771796	0.340984
O9	O	1.106176	-0.015614	0.158996
O10	O	1.606176	0.484386	0.658996
O11	O	0.964820	0.125733	0.158977
O12	O	1.464820	0.625733	0.658977
O13	O	1.233294	0.111517	0.158981
O14	O	1.733294	0.611517	0.658981
Cu15	Cu	1.100782	0.116896	0.188013
Cu16	Cu	1.600782	0.616896	0.688013
Cu17	Cu	1.078441	0.139286	-0.188033
Cu18	Cu	1.578441	0.639286	0.311967
O19	O	1.091938	0.252864	0.158962
O20	O	1.591938	0.752864	0.658962
C21	C	0.921015	0.134533	-0.000012
C22	C	1.421015	0.634533	0.499988
C23	C	0.818635	0.132537	-0.000013
C24	C	1.318635	0.632537	0.499987
C25	C	0.735490	0.130916	-0.000020
C26	C	1.235490	0.630916	0.499980
C27	C	0.631181	0.128889	-0.000021
C28	C	1.131181	0.628889	0.499979
C29	C	0.548042	0.127281	-0.000020
C30	C	1.048042	0.627281	0.499980
C31	C	0.443727	0.125255	-0.000024
C32	C	0.943727	0.625255	0.499976
C33	C	1.096067	-0.040508	0.000008
C34	C	1.596067	0.459492	0.500008
C35	C	1.094079	-0.142889	0.000009
C36	C	1.594079	0.357111	0.500009
C37	C	1.086757	-0.517782	-0.000041
C38	C	1.586757	-0.017782	0.499959
C39	C	1.088790	-0.413475	-0.000027
C40	C	1.588790	0.086525	0.499973
C41	C	1.090418	-0.330339	-0.000014
C42	C	1.590418	0.169661	0.499986
C43	C	1.092452	-0.226025	-0.000003
C44	C	1.592452	0.273975	0.499997
C45	C	1.258208	0.121649	-0.000012
C46	C	1.758208	0.621649	0.499988
C47	C	1.360588	0.123646	-0.000024
C48	C	1.860588	0.623646	0.499976
C49	C	1.083156	0.296690	-0.000032
C50	C	1.583156	0.796690	0.499968
C51	C	1.085143	0.399072	-0.000045
C52	C	1.585143	0.899072	0.499955
N53	N	1.116502	0.101148	0.452503
N54	N	1.616502	0.601148	0.952503
N55	N	1.062729	0.155027	-0.452523
N56	N	1.562729	0.655027	0.047477
H57	H	1.172242	0.045317	0.534166
H58	H	1.672242	0.545317	1.034166
H59	H	1.006999	0.210861	0.465824
H60	H	1.506999	0.710861	0.965824
