data_functionalizedCrystal
_audit_creation_method	'MofGen! by Chris Wilmer'
_symmetry_space_group_name_H-M	'P1'
_symmetry_Int_Tables_number	1
_symmetry_cell_setting	triclinic
loop_
_symmetry_equiv_pos_as_xyz
  x,y,z
_cell_length_a	9.065215
_cell_length_b	9.065215
_cell_length_c	7.540329
_cell_angle_alpha	89.997549
_cell_angle_beta	89.997574
_cell_angle_gamma	85.014697
loop_
_atom_site_label
_atom_site_type_symbol
_atom_site_fract_x
_atom_site_fract_y
_atom_site_fract_z
O1	O	1.960399	0.216335	-0.147457
O2	O	2.293732	0.549668	0.185876
O3	O	2.627065	0.883001	0.519210
O4	O	1.531113	0.234085	-0.147465
O5	O	1.864446	0.567419	0.185869
O6	O	2.197780	0.900752	0.519202
O7	O	1.754631	0.010567	-0.147454
O8	O	2.087965	0.343901	0.185879
O9	O	2.421298	0.677234	0.519213
O10	O	1.736880	0.439853	-0.147468
O11	O	2.070214	0.773186	0.185866
O12	O	2.403547	1.106519	0.519199
O13	O	1.754618	0.010564	0.147511
O14	O	2.087951	0.343898	0.480844
O15	O	2.421284	0.677231	0.814178
O16	O	1.531100	0.234083	0.147500
O17	O	1.864433	0.567416	0.480834
O18	O	2.197766	0.900749	0.814167
O19	O	1.960385	0.216332	0.147508
O20	O	2.293718	0.549665	0.480841
O21	O	2.627052	0.882998	0.814175
Cu22	Cu	1.745741	0.225207	0.174437
Cu23	Cu	2.079074	0.558540	0.507770
Cu24	Cu	2.412408	0.891873	0.841104
Cu25	Cu	1.745757	0.225210	-0.174394
Cu26	Cu	2.079090	0.558544	0.158940
Cu27	Cu	2.412424	0.891877	0.492273
O28	O	1.736867	0.439850	0.147497
O29	O	2.070200	0.773183	0.480831
O30	O	2.403534	1.106517	0.814164
C31	C	1.476120	0.232379	0.000017
C32	C	1.809453	0.565712	0.333350
C33	C	2.142786	0.899046	0.666684
C34	C	1.312277	0.227281	0.000014
C35	C	1.645610	0.560614	0.333347
C36	C	1.978943	0.893948	0.666681
C37	C	1.752920	-0.044421	0.000026
C38	C	2.086253	0.288912	0.333360
C39	C	2.419586	0.622246	0.666693
C40	C	1.747822	-0.208264	0.000020
C41	C	2.081155	0.125069	0.333354
C42	C	2.414488	0.458403	0.666687
C43	C	2.015379	0.218038	0.000023
C44	C	2.348712	0.551371	0.333356
C45	C	2.682045	0.884705	0.666689
C46	C	2.179222	0.223136	0.000014
C47	C	2.512555	0.556469	0.333347
C48	C	2.845888	0.889803	0.666681
N49	N	1.745741	0.225204	0.419785
N50	N	2.079074	0.558537	0.753119
N51	N	2.412407	0.891870	1.086452
C52	C	1.738579	0.494838	0.000013
C53	C	2.071912	0.828171	0.333346
C54	C	2.405245	1.161505	0.666680
C55	C	1.743677	0.658681	0.000008
C56	C	2.077010	0.992014	0.333341
C57	C	2.410343	1.325348	0.666674
N58	N	1.745769	0.225202	-0.419742
N59	N	2.079102	0.558535	-0.086409
N60	N	2.412436	0.891869	0.246925
