data_functionalizedCrystal
_audit_creation_method	'MofGen! by Chris Wilmer'
_symmetry_space_group_name_H-M	'P1'
_symmetry_Int_Tables_number	1
_symmetry_cell_setting	triclinic
loop_
_symmetry_equiv_pos_as_xyz
  x,y,z
_cell_length_a	29.839125
_cell_length_b	19.805407
_cell_length_c	19.805405
_cell_angle_alpha	89.974605
_cell_angle_beta	89.982556
_cell_angle_gamma	90.014690
loop_
_atom_site_label
_atom_site_type_symbol
_atom_site_fract_x
_atom_site_fract_y
_atom_site_fract_z
Zn1	Zn	-0.254039	-1.034693	-0.269576
Zn2	Zn	-0.004039	-0.784693	-0.019576
Zn3	Zn	0.245961	-0.534693	0.230424
Zn4	Zn	0.495961	-0.284693	0.480424
Zn5	Zn	-0.178909	-1.034620	-0.382741
Zn6	Zn	0.071091	-0.784620	-0.132741
Zn7	Zn	0.321091	-0.534620	0.117259
Zn8	Zn	0.571091	-0.284620	0.367259
Zn9	Zn	-0.178918	-0.921520	-0.269570
Zn10	Zn	0.071082	-0.671520	-0.019570
Zn11	Zn	0.321082	-0.421520	0.230430
Zn12	Zn	0.571082	-0.171520	0.480430
Zn13	Zn	-0.254007	-0.921471	-0.382727
Zn14	Zn	-0.004007	-0.671471	-0.132727
Zn15	Zn	0.245993	-0.421471	0.117273
Zn16	Zn	0.495993	-0.171471	0.367273
O17	O	-0.216468	-0.978076	-0.326154
O18	O	0.033532	-0.728076	-0.076154
O19	O	0.283532	-0.478076	0.173846
O20	O	0.533532	-0.228076	0.423846
O21	O	-0.244082	-1.129400	-0.284597
O22	O	0.005918	-0.879400	-0.034597
O23	O	0.255918	-0.629400	0.215403
O24	O	0.505918	-0.379400	0.465403
O25	O	-0.116043	-1.019608	-0.367732
O26	O	0.133957	-0.769608	-0.117732
O27	O	0.383957	-0.519608	0.132268
O28	O	0.633957	-0.269608	0.382268
O29	O	-0.188900	-0.936584	-0.174854
O30	O	0.061100	-0.686584	0.075146
O31	O	0.311100	-0.436584	0.325146
O32	O	0.561100	-0.186584	0.575146
O33	O	-0.188885	-1.129347	-0.367739
O34	O	0.061115	-0.879347	-0.117739
O35	O	0.311115	-0.629347	0.132261
O36	O	0.561115	-0.379347	0.382261
O37	O	-0.244091	-1.019731	-0.174859
O38	O	0.005909	-0.769731	0.075141
O39	O	0.255909	-0.519731	0.325141
O40	O	0.505909	-0.269731	0.575141
O41	O	-0.116049	-0.936513	-0.284585
O42	O	0.133951	-0.686513	-0.034585
O43	O	0.383951	-0.436513	0.215415
O44	O	0.633951	-0.186513	0.465415
O45	O	-0.188869	-0.826797	-0.284571
O46	O	0.061131	-0.576797	-0.034571
O47	O	0.311131	-0.326797	0.215429
O48	O	0.561131	-0.076797	0.465429
O49	O	-0.316878	-0.936500	-0.367714
O50	O	-0.066878	-0.686500	-0.117714
O51	O	0.183122	-0.436500	0.132286
O52	O	0.433122	-0.186500	0.382286
O53	O	-0.244036	-0.826761	-0.367707
O54	O	0.005964	-0.576761	-0.117707
O55	O	0.255964	-0.326761	0.132293
O56	O	0.505964	-0.076761	0.382293
O57	O	-0.316901	-1.019684	-0.284583
O58	O	-0.066901	-0.769684	-0.034583
O59	O	0.183099	-0.519684	0.215417
O60	O	0.433099	-0.269684	0.465417
O61	O	-0.188854	-1.019560	-0.477456
O62	O	0.061146	-0.769560	-0.227456
O63	O	0.311146	-0.519560	0.022544
O64	O	0.561146	-0.269560	0.272544
O65	O	-0.244028	-0.936430	-0.477445
O66	O	0.005972	-0.686430	-0.227445
O67	O	0.255972	-0.436430	0.022555
O68	O	0.505972	-0.186430	0.272555
C69	C	-0.216450	-0.802220	-0.326137
C70	C	0.033550	-0.552220	-0.076137
C71	C	0.283550	-0.302220	0.173863
C72	C	0.533550	-0.052220	0.423863
C73	C	-0.216454	-0.726988	-0.326147
C74	C	0.033546	-0.476988	-0.076147
C75	C	0.283546	-0.226988	0.173853
C76	C	0.533546	0.023012	0.423853
C77	C	-0.245132	-0.691643	-0.369500
C78	C	0.004868	-0.441643	-0.119500
C79	C	0.254868	-0.191643	0.130500
C80	C	0.504868	0.058357	0.380500
C81	C	-0.245137	-0.620955	-0.369500
C82	C	0.004863	-0.370955	-0.119500
C83	C	0.254863	-0.120955	0.130500
C84	C	0.504863	0.129045	0.380500
C85	C	-0.216461	-0.585613	-0.326150
C86	C	0.033539	-0.335613	-0.076150
C87	C	0.283539	-0.085613	0.173850
C88	C	0.533539	0.164387	0.423850
C89	C	-0.187781	-0.620963	-0.282791
C90	C	0.062219	-0.370963	-0.032791
C91	C	0.312219	-0.120963	0.217209
C92	C	0.562219	0.129037	0.467209
C93	C	-0.187779	-0.691650	-0.282789
C94	C	0.062221	-0.441650	-0.032789
C95	C	0.312221	-0.191650	0.217211
C96	C	0.562221	0.058350	0.467211
C97	C	-0.187791	-0.335890	-0.282801
C98	C	0.062209	-0.085890	-0.032801
C99	C	0.312209	0.164110	0.217199
C100	C	0.562209	0.414110	0.467199
C101	C	-0.187795	-0.265197	-0.282809
C102	C	0.062205	-0.015197	-0.032809
C103	C	0.312205	0.234803	0.217191
C104	C	0.562205	0.484803	0.467191
C105	C	-0.245150	-0.265194	-0.369513
C106	C	0.004850	-0.015194	-0.119513
C107	C	0.254850	0.234806	0.130487
C108	C	0.504850	0.484806	0.380487
C109	C	-0.245147	-0.335881	-0.369510
C110	C	0.004853	-0.085881	-0.119510
C111	C	0.254853	0.164119	0.130490
C112	C	0.504853	0.414119	0.380490
C113	C	-0.216469	-0.371225	-0.326150
C114	C	0.033531	-0.121225	-0.076150
C115	C	0.283531	0.128775	0.173850
C116	C	0.533531	0.378775	0.423850
C117	C	-0.216465	-0.447874	-0.326149
C118	C	0.033535	-0.197874	-0.076149
C119	C	0.283535	0.052126	0.173851
C120	C	0.533535	0.302126	0.423851
C121	C	-0.216463	-0.508966	-0.326153
C122	C	0.033537	-0.258966	-0.076153
C123	C	0.283537	-0.008966	0.173847
C124	C	0.533537	0.241034	0.423847
C125	C	-0.333646	-0.978095	-0.326147
C126	C	-0.083646	-0.728095	-0.076147
C127	C	0.166354	-0.478095	0.173853
C128	C	0.416354	-0.228095	0.423853
C129	C	-0.383581	-0.978102	-0.326145
C130	C	-0.133581	-0.728102	-0.076145
C131	C	0.116419	-0.478102	0.173855
C132	C	0.366419	-0.228102	0.423855
C133	C	-0.693239	-1.021462	-0.282745
C134	C	-0.443239	-0.771462	-0.032745
C135	C	-0.193239	-0.521462	0.217255
C136	C	0.056761	-0.271462	0.467255
C137	C	-0.880913	-1.021495	-0.282687
C138	C	-0.630913	-0.771495	-0.032687
C139	C	-0.380913	-0.521495	0.217313
C140	C	-0.130913	-0.271495	0.467313
O141	O	-0.905190	-1.058310	-0.245852
O142	O	-0.655190	-0.808310	0.004148
O143	O	-0.405190	-0.558310	0.254148
O144	O	-0.155190	-0.308310	0.504148
N145	N	-0.904366	-0.978192	-0.325964
N146	N	-0.654366	-0.728192	-0.075964
N147	N	-0.404366	-0.478192	0.174036
N148	N	-0.154366	-0.228192	0.424036
C149	C	-0.880898	-0.934874	-0.369254
C150	C	-0.630898	-0.684874	-0.119254
C151	C	-0.380898	-0.434874	0.130746
C152	C	-0.130898	-0.184874	0.380746
O153	O	-0.905153	-0.898038	-0.406057
O154	O	-0.655153	-0.648038	-0.156057
O155	O	-0.405153	-0.398038	0.093943
O156	O	-0.155153	-0.148038	0.343943
C157	C	-0.693226	-0.934838	-0.369308
C158	C	-0.443226	-0.684838	-0.119308
C159	C	-0.193226	-0.434838	0.130692
C160	C	0.056774	-0.184838	0.380692
C161	C	-0.669775	-0.978149	-0.326034
C162	C	-0.419775	-0.728149	-0.076034
C163	C	-0.169775	-0.478149	0.173966
C164	C	0.080225	-0.228149	0.423966
C165	C	-0.669788	-1.064768	-0.239474
C166	C	-0.419788	-0.814768	0.010526
C167	C	-0.169788	-0.564768	0.260526
C168	C	0.080212	-0.314768	0.510526
C169	C	-0.622873	-1.064762	-0.239491
C170	C	-0.372873	-0.814762	0.010509
C171	C	-0.122873	-0.564762	0.260509
C172	C	0.127127	-0.314762	0.510509
C173	C	-0.599408	-1.021449	-0.282780
C174	C	-0.349408	-0.771449	-0.032780
C175	C	-0.099408	-0.521449	0.217220
C176	C	0.150592	-0.271449	0.467220
C177	C	-0.622860	-0.978142	-0.326051
C178	C	-0.372860	-0.728142	-0.076051
C179	C	-0.122860	-0.478142	0.173949
C180	C	0.127140	-0.228142	0.423949
C181	C	-0.669759	-0.891517	-0.412595
C182	C	-0.419759	-0.641517	-0.162595
C183	C	-0.169759	-0.391517	0.087405
C184	C	0.080241	-0.141517	0.337405
C185	C	-0.622838	-0.891511	-0.412603
C186	C	-0.372838	-0.641511	-0.162603
C187	C	-0.122838	-0.391511	0.087397
C188	C	0.127162	-0.141511	0.337397
C189	C	-0.599387	-0.934822	-0.369329
C190	C	-0.349387	-0.684822	-0.119329
C191	C	-0.099387	-0.434822	0.130671
C192	C	0.150613	-0.184822	0.380671
C193	C	-0.552480	-0.934823	-0.369357
C194	C	-0.302480	-0.684823	-0.119357
C195	C	-0.052480	-0.434823	0.130643
C196	C	0.197520	-0.184823	0.380643
N197	N	-0.529026	-0.978126	-0.326081
N198	N	-0.279026	-0.728126	-0.076081
N199	N	-0.029026	-0.478126	0.173919
N200	N	0.220974	-0.228126	0.423919
C201	C	-0.552491	-1.021439	-0.282793
C202	C	-0.302491	-0.771439	-0.032793
C203	C	-0.052491	-0.521439	0.217207
C204	C	0.197509	-0.271439	0.467207
C205	C	-0.979429	-0.934898	-0.369224
C206	C	-0.729429	-0.684898	-0.119224
C207	C	-0.479429	-0.434898	0.130776
C208	C	-0.229429	-0.184898	0.380776
C209	C	-1.026347	-0.934907	-0.369211
C210	C	-0.776347	-0.684907	-0.119211
C211	C	-0.526347	-0.434907	0.130789
C212	C	-0.276347	-0.184907	0.380789
C213	C	-1.026358	-1.021527	-0.282644
C214	C	-0.776358	-0.771527	-0.032644
C215	C	-0.526358	-0.521527	0.217356
C216	C	-0.276358	-0.271527	0.467356
C217	C	-0.979439	-1.021521	-0.282660
C218	C	-0.729439	-0.771521	-0.032660
C219	C	-0.479439	-0.521521	0.217340
C220	C	-0.229439	-0.271521	0.467340
C221	C	-0.955976	-0.978201	-0.325948
C222	C	-0.705976	-0.728201	-0.075948
C223	C	-0.455976	-0.478201	0.174052
C224	C	-0.205976	-0.228201	0.424052
C225	C	-0.453965	-1.021423	-0.282833
C226	C	-0.203965	-0.771423	-0.032833
C227	C	0.046035	-0.521423	0.217167
C228	C	0.296035	-0.271423	0.467167
C229	C	-0.407045	-1.021415	-0.282856
C230	C	-0.157045	-0.771415	-0.032856
C231	C	0.092955	-0.521415	0.217144
C232	C	0.342955	-0.271415	0.467144
C233	C	-0.407038	-0.934793	-0.369421
C234	C	-0.157038	-0.684793	-0.119421
C235	C	0.092962	-0.434793	0.130579
C236	C	0.342962	-0.184793	0.380579
C237	C	-0.453954	-0.934803	-0.369401
C238	C	-0.203954	-0.684803	-0.119401
C239	C	0.046046	-0.434803	0.130599
C240	C	0.296046	-0.184803	0.380599
C241	C	-0.477416	-0.978121	-0.326101
C242	C	-0.227416	-0.728121	-0.076101
C243	C	0.022584	-0.478121	0.173899
C244	C	0.272584	-0.228121	0.423899
O245	O	-0.528173	-0.898022	-0.406169
O246	O	-0.278173	-0.648022	-0.156169
O247	O	-0.028173	-0.398022	0.093831
O248	O	0.221827	-0.148022	0.343831
O249	O	-0.528228	-1.058259	-0.245985
O250	O	-0.278228	-0.808259	0.004015
O251	O	-0.028228	-0.558259	0.254015
O252	O	0.221772	-0.308259	0.504015
C253	C	-0.740155	-1.021468	-0.282728
C254	C	-0.490155	-0.771468	-0.032728
C255	C	-0.240155	-0.521468	0.217272
C256	C	0.009845	-0.271468	0.467272
C257	C	-0.763606	-0.978161	-0.325999
C258	C	-0.513606	-0.728161	-0.075999
C259	C	-0.263606	-0.478161	0.174001
C260	C	-0.013606	-0.228161	0.424001
C261	C	-0.740142	-0.934848	-0.369287
C262	C	-0.490142	-0.684848	-0.119287
C263	C	-0.240142	-0.434848	0.130713
C264	C	0.009858	-0.184848	0.380713
C265	C	-0.810524	-0.978171	-0.325986
C266	C	-0.560524	-0.728171	-0.075986
C267	C	-0.310524	-0.478171	0.174014
C268	C	-0.060524	-0.228171	0.424014
C269	C	-0.833988	-1.021484	-0.282698
C270	C	-0.583988	-0.771484	-0.032698
C271	C	-0.333988	-0.521484	0.217302
C272	C	-0.083988	-0.271484	0.467302
C273	C	-0.810535	-1.064787	-0.239422
C274	C	-0.560535	-0.814787	0.010578
C275	C	-0.310535	-0.564787	0.260578
C276	C	-0.060535	-0.314787	0.510578
C277	C	-0.763619	-1.064781	-0.239439
C278	C	-0.513619	-0.814781	0.010561
C279	C	-0.263619	-0.564781	0.260561
C280	C	-0.013619	-0.314781	0.510561
C281	C	-0.763595	-0.891545	-0.412564
C282	C	-0.513595	-0.641545	-0.162564
C283	C	-0.263595	-0.391545	0.087436
C284	C	-0.013595	-0.141545	0.337436
C285	C	-0.810511	-0.891555	-0.412543
C286	C	-0.560511	-0.641555	-0.162543
C287	C	-0.310511	-0.391555	0.087457
C288	C	-0.060511	-0.141555	0.337457
C289	C	-0.833975	-0.934868	-0.369255
C290	C	-0.583975	-0.684868	-0.119255
C291	C	-0.333975	-0.434868	0.130745
C292	C	-0.083975	-0.184868	0.380745
C293	C	-0.099745	-0.978097	-0.326111
C294	C	0.150255	-0.728097	-0.076111
C295	C	0.400255	-0.478097	0.173889
C296	C	0.650255	-0.228097	0.423889
C297	C	-0.049811	-0.978220	-0.325923
C298	C	0.200189	-0.728220	-0.075923
C299	C	0.450189	-0.478220	0.174077
C300	C	0.700189	-0.228220	0.424077
C301	C	-0.216446	-0.978000	-0.502010
C302	C	0.033554	-0.728000	-0.252010
C303	C	0.283554	-0.478000	-0.002010
C304	C	0.533554	-0.228000	0.247990
C305	C	-0.216452	-0.978029	-0.577242
C306	C	0.033548	-0.728029	-0.327242
C307	C	0.283548	-0.478029	-0.077242
C308	C	0.533548	-0.228029	0.172758
C309	C	-0.216481	-0.154619	-0.326166
C310	C	0.033519	0.095381	-0.076166
C311	C	0.283519	0.345381	0.173834
C312	C	0.533519	0.595381	0.423834
C313	C	-0.216476	-0.229851	-0.326160
C314	C	0.033524	0.020149	-0.076160
C315	C	0.283524	0.270149	0.173840
C316	C	0.533524	0.520149	0.423840
C317	C	-0.187753	-1.021357	-0.612569
C318	C	0.062247	-0.771357	-0.362569
C319	C	0.312247	-0.521357	-0.112569
C320	C	0.562247	-0.271357	0.137431
C321	C	-0.187763	-1.021386	-0.683257
C322	C	0.062237	-0.771386	-0.433257
C323	C	0.312237	-0.521386	-0.183257
C324	C	0.562237	-0.271386	0.066743
C325	C	-0.216470	-0.978083	-0.718617
C326	C	0.033530	-0.728083	-0.468617
C327	C	0.283530	-0.478083	-0.218617
C328	C	0.533530	-0.228083	0.031383
C329	C	-0.245172	-0.934753	-0.683285
C330	C	0.004828	-0.684753	-0.433285
C331	C	0.254828	-0.434753	-0.183285
C332	C	0.504828	-0.184753	0.066715
C333	C	-0.245164	-0.934728	-0.612598
C334	C	0.004836	-0.684728	-0.362598
C335	C	0.254836	-0.434728	-0.112598
C336	C	0.504836	-0.184728	0.137402
C337	C	-0.245205	-0.934853	-0.968358
C338	C	0.004795	-0.684853	-0.718358
C339	C	0.254795	-0.434853	-0.468358
C340	C	0.504795	-0.184853	-0.218358
C341	C	-0.245210	-0.934880	-1.039050
C342	C	0.004790	-0.684880	-0.789050
C343	C	0.254790	-0.434880	-0.539050
C344	C	0.504790	-0.184880	-0.289050
C345	C	-0.187804	-1.021511	-1.039018
C346	C	0.062196	-0.771511	-0.789018
C347	C	0.312196	-0.521511	-0.539018
C348	C	0.562196	-0.271511	-0.289018
C349	C	-0.187796	-1.021486	-0.968330
C350	C	0.062204	-0.771486	-0.718330
C351	C	0.312204	-0.521486	-0.468330
C352	C	0.562204	-0.271486	-0.218330
C353	C	-0.216500	-0.978159	-0.933004
C354	C	0.033500	-0.728159	-0.683004
C355	C	0.283500	-0.478159	-0.433004
C356	C	0.533500	-0.228159	-0.183004
C357	C	-0.216489	-0.978129	-0.856356
C358	C	0.033511	-0.728129	-0.606356
C359	C	0.283511	-0.478129	-0.356356
C360	C	0.533511	-0.228129	-0.106356
C361	C	-0.216478	-0.978109	-0.795264
C362	C	0.033522	-0.728109	-0.545264
C363	C	0.283522	-0.478109	-0.295264
C364	C	0.533522	-0.228109	-0.045264
C365	C	-0.216500	-0.978171	-0.149611
C366	C	0.033500	-0.728171	0.100389
C367	C	0.283500	-0.478171	0.350389
C368	C	0.533500	-0.228171	0.600389
C369	C	-0.216513	-0.978212	-0.074379
C370	C	0.033487	-0.728212	0.175621
C371	C	0.283487	-0.478212	0.425621
C372	C	0.533487	-0.228212	0.675621
H373	H	-0.268482	-0.720413	-0.404804
H374	H	-0.018482	-0.470413	-0.154804
H375	H	0.231518	-0.220413	0.095196
H376	H	0.481518	0.029587	0.345196
Br377	Br	-1.058211	-1.080309	-0.223895
Br378	Br	-0.808211	-0.830309	0.026105
Br379	Br	-0.558211	-0.580309	0.276105
Br380	Br	-0.308211	-0.330309	0.526105
Br381	Br	-0.284061	-0.572988	-0.428338
Br382	Br	-0.034061	-0.322988	-0.178338
Br383	Br	0.215939	-0.072988	0.071662
Br384	Br	0.465939	0.177012	0.321662
H385	H	-0.960329	-0.899622	-0.404478
H386	H	-0.710329	-0.649622	-0.154478
H387	H	-0.460329	-0.399622	0.095522
H388	H	-0.210329	-0.149622	0.345522
Br389	Br	-0.148850	-1.080315	-1.086964
Br390	Br	0.101150	-0.830315	-0.836964
Br391	Br	0.351150	-0.580315	-0.586964
Br392	Br	0.601150	-0.330315	-0.336964
Br393	Br	-0.148874	-0.217233	-0.223972
Br394	Br	0.101126	0.032767	0.026028
Br395	Br	0.351126	0.282767	0.276028
Br396	Br	0.601126	0.532767	0.526028
H397	H	-0.268548	-0.899498	-0.712081
H398	H	-0.018548	-0.649498	-0.462081
H399	H	0.231452	-0.399498	-0.212081
H400	H	0.481452	-0.149498	0.037919
H401	H	-0.164374	-1.056617	-0.583783
H402	H	0.085626	-0.806617	-0.333783
H403	H	0.335626	-0.556617	-0.083783
H404	H	0.585626	-0.306617	0.166217
Br405	Br	-0.148815	-1.080195	-0.731199
Br406	Br	0.101185	-0.830195	-0.481199
Br407	Br	0.351185	-0.580195	-0.231199
Br408	Br	0.601185	-0.330195	0.018801
H409	H	-0.164436	-0.364658	-0.247500
H410	H	0.085564	-0.114658	0.002500
H411	H	0.335564	0.135342	0.252500
H412	H	0.585564	0.385342	0.502500
Br413	Br	-0.284117	-0.875928	-0.564653
Br414	Br	-0.034117	-0.625928	-0.314653
Br415	Br	0.215883	-0.375928	-0.064653
Br416	Br	0.465883	-0.125928	0.185347
Br417	Br	-0.284070	-0.217224	-0.428362
Br418	Br	-0.034070	0.032776	-0.178362
Br419	Br	0.215930	0.282776	0.071638
Br420	Br	0.465930	0.532776	0.321638
H421	H	-0.688845	-0.856249	-0.447833
H422	H	-0.438845	-0.606249	-0.197833
H423	H	-0.188845	-0.356249	0.052167
H424	H	0.061155	-0.106249	0.302167
Br425	Br	-0.842389	-1.123572	-0.180677
Br426	Br	-0.592389	-0.873572	0.069323
Br427	Br	-0.342389	-0.623572	0.319323
Br428	Br	-0.092389	-0.373572	0.569323
H429	H	-1.045437	-0.899647	-0.404457
H430	H	-0.795437	-0.649647	-0.154457
H431	H	-0.545437	-0.399647	0.095543
H432	H	-0.295437	-0.149647	0.345543
H433	H	-0.268497	-0.364653	-0.404813
H434	H	-0.018497	-0.114653	-0.154813
H435	H	0.231503	0.135347	0.095187
H436	H	0.481503	0.385347	0.345187
H437	H	-0.164434	-0.592182	-0.247492
H438	H	0.085566	-0.342182	0.002508
H439	H	0.335566	-0.092182	0.252508
H440	H	0.585566	0.157818	0.502508
Br441	Br	-0.485781	-0.876029	-0.428135
Br442	Br	-0.235781	-0.626029	-0.178135
Br443	Br	0.014219	-0.376029	0.071865
Br444	Br	0.264219	-0.126029	0.321865
H445	H	-0.829601	-0.856288	-0.447789
H446	H	-0.579601	-0.606288	-0.197789
H447	H	-0.329601	-0.356288	0.052211
H448	H	-0.079601	-0.106288	0.302211
H449	H	-0.164428	-0.720427	-0.247482
H450	H	0.085572	-0.470427	0.002518
H451	H	0.335572	-0.220427	0.252518
H452	H	0.585572	0.029573	0.502518
H453	H	-0.387953	-1.056687	-0.247617
H454	H	-0.137953	-0.806687	0.002383
H455	H	0.112047	-0.556687	0.252383
H456	H	0.362047	-0.306687	0.502383
Br457	Br	-0.590998	-0.832714	-0.471352
Br458	Br	-0.340998	-0.582714	-0.221352
Br459	Br	-0.090998	-0.332714	0.028648
Br460	Br	0.159002	-0.082714	0.278648
Br461	Br	-0.284172	-0.876107	-1.087039
Br462	Br	-0.034172	-0.626107	-0.837039
Br463	Br	0.215828	-0.376107	-0.587039
Br464	Br	0.465828	-0.126107	-0.337039
H465	H	-0.473062	-1.056694	-0.247572
H466	H	-0.223062	-0.806694	0.002428
H467	H	0.026938	-0.556694	0.252428
H468	H	0.276938	-0.306694	0.502428
H469	H	-0.960348	-1.056787	-0.247421
H470	H	-0.710348	-0.806787	0.002579
H471	H	-0.460348	-0.556787	0.252579
H472	H	-0.210348	-0.306787	0.502579
Br473	Br	-0.148834	-1.080255	-0.920345
Br474	Br	0.101166	-0.830255	-0.670345
Br475	Br	0.351166	-0.580255	-0.420345
Br476	Br	0.601166	-0.330255	-0.170345
H477	H	-0.603783	-1.100029	-0.204252
H478	H	-0.353783	-0.850029	0.045748
H479	H	-0.103783	-0.600029	0.295748
H480	H	0.146217	-0.350029	0.545748
H481	H	-0.688888	-1.100039	-0.204219
H482	H	-0.438888	-0.850039	0.045781
H483	H	-0.188888	-0.600039	0.295781
H484	H	0.061112	-0.350039	0.545781
H485	H	-0.744495	-0.856275	-0.447816
H486	H	-0.494495	-0.606275	-0.197816
H487	H	-0.244495	-0.356275	0.052184
H488	H	0.005505	-0.106275	0.302184
H489	H	-0.268576	-0.899573	-0.939601
H490	H	-0.018576	-0.649573	-0.689601
H491	H	0.231424	-0.399573	-0.439601
H492	H	0.481424	-0.149573	-0.189601
H493	H	-0.387925	-0.899531	-0.404668
H494	H	-0.137925	-0.649531	-0.154668
H495	H	0.112075	-0.399531	0.095332
H496	H	0.362075	-0.149531	0.345332
H497	H	-0.744530	-1.100049	-0.204200
H498	H	-0.494530	-0.850049	0.045800
H499	H	-0.244530	-0.600049	0.295800
H500	H	0.005470	-0.350049	0.545800
