data_functionalizedCrystal
_audit_creation_method	'MofGen! by Chris Wilmer'
_symmetry_space_group_name_H-M	'P1'
_symmetry_Int_Tables_number	1
_symmetry_cell_setting	triclinic
loop_
_symmetry_equiv_pos_as_xyz
  x,y,z
_cell_length_a	25.639243
_cell_length_b	25.639240
_cell_length_c	25.639234
_cell_angle_alpha	89.967912
_cell_angle_beta	89.976852
_cell_angle_gamma	90.035481
loop_
_atom_site_label
_atom_site_type_symbol
_atom_site_fract_x
_atom_site_fract_y
_atom_site_fract_z
Zn1	Zn	0.799284	-0.208145	-0.295630
Zn2	Zn	0.799205	-0.295573	-0.208183
Zn3	Zn	0.711849	-0.208157	-0.208203
Zn4	Zn	0.711814	-0.295555	-0.295582
O5	O	0.755538	-0.251857	-0.251900
O6	O	0.872438	-0.219744	-0.284041
O7	O	0.787599	-0.283990	-0.135020
O8	O	0.723495	-0.134990	-0.219829
O9	O	0.872381	-0.283977	-0.219794
O10	O	0.787733	-0.134981	-0.284061
O11	O	0.723419	-0.219766	-0.135035
O12	O	0.638679	-0.219749	-0.219783
O13	O	0.723435	-0.283947	-0.368754
O14	O	0.638654	-0.283959	-0.283980
O15	O	0.787699	-0.219727	-0.368789
O16	O	0.787565	-0.368736	-0.219749
O17	O	0.723359	-0.368723	-0.283960
C18	C	0.619695	-0.251854	-0.251879
C19	C	0.561581	-0.251865	-0.251882
C20	C	0.201243	-0.218464	-0.285409
C21	C	0.146638	-0.218463	-0.285412
O22	O	0.118423	-0.190055	-0.313891
N23	N	0.119299	-0.251856	-0.251914
C24	C	0.146567	-0.285247	-0.218407
O25	O	0.118298	-0.313650	-0.189914
C26	C	0.201170	-0.285245	-0.218401
C27	C	0.228507	-0.251854	-0.251905
C28	C	0.228580	-0.185075	-0.318909
C29	C	0.283180	-0.185076	-0.318907
C30	C	0.310444	-0.218466	-0.285403
C31	C	0.283107	-0.251855	-0.251903
C32	C	0.228437	-0.318633	-0.184892
C33	C	0.283044	-0.318627	-0.184889
C34	C	0.310380	-0.285236	-0.218393
C35	C	0.364971	-0.285246	-0.218396
N36	N	0.392311	-0.251854	-0.251894
C37	C	0.365047	-0.218464	-0.285398
C38	C	0.031896	-0.285250	-0.218420
C39	C	-0.022706	-0.285255	-0.218428
C40	C	-0.022631	-0.218470	-0.285432
C41	C	0.031973	-0.218468	-0.285427
C42	C	0.059235	-0.251857	-0.251918
C43	C	0.479712	-0.218469	-0.285390
C44	C	0.534318	-0.218475	-0.285386
C45	C	0.534237	-0.285258	-0.218380
C46	C	0.479637	-0.285254	-0.218386
C47	C	0.452375	-0.251856	-0.251892
O48	O	0.393222	-0.313639	-0.189930
O49	O	0.393322	-0.190061	-0.313881
C50	C	0.755464	-0.387700	-0.251859
C51	C	0.755480	-0.445814	-0.251859
C52	C	0.789003	-0.806134	-0.285405
C53	C	0.789019	-0.860738	-0.285416
O54	O	0.817433	-0.888938	-0.313897
N55	N	0.755611	-0.888096	-0.251950
C56	C	0.722181	-0.860848	-0.218475
O57	O	0.693766	-0.889132	-0.190011
C58	C	0.722163	-0.806244	-0.218468
C59	C	0.755578	-0.778889	-0.251932
C60	C	0.822414	-0.778778	-0.318868
C61	C	0.822399	-0.724178	-0.318856
C62	C	0.788974	-0.696933	-0.285383
C63	C	0.755563	-0.724288	-0.251920
C64	C	0.688732	-0.778997	-0.184996
C65	C	0.688717	-0.724390	-0.184991
C66	C	0.722131	-0.697034	-0.218455
C67	C	0.722122	-0.642443	-0.218435
N68	N	0.755530	-0.615084	-0.251901
C69	C	0.788956	-0.642329	-0.285375
C70	C	0.722220	-0.975518	-0.218494
C71	C	0.722240	-1.030121	-0.218499
C72	C	0.789077	-1.030007	-0.285441
C73	C	0.789059	-0.975404	-0.285433
C74	C	0.755628	-0.948160	-0.251960
C75	C	0.788922	-0.527664	-0.285348
C76	C	0.788906	-0.473059	-0.285332
C77	C	0.722067	-0.473177	-0.218393
C78	C	0.722085	-0.527778	-0.218406
C79	C	0.755515	-0.555020	-0.251888
O80	O	0.693720	-0.614208	-0.189971
O81	O	0.817361	-0.614038	-0.313839
C82	C	0.891911	-0.251861	-0.251921
C83	C	0.950025	-0.251863	-0.251930
C84	C	0.755572	-0.251834	-0.388273
C85	C	0.755587	-0.251823	-0.446387
C86	C	0.755626	-0.115484	-0.251952
C87	C	0.755664	-0.057370	-0.251975
C88	C	0.722183	-0.218320	-0.806763
C89	C	0.722185	-0.218310	-0.861367
O90	O	0.693758	-0.189882	-0.889615
N91	N	0.755604	-0.251741	-0.888669
C92	C	0.789018	-0.285188	-0.861364
O93	O	0.817443	-0.313623	-0.889601
C94	C	0.789012	-0.285200	-0.806761
C95	C	0.755595	-0.251763	-0.779462
C96	C	0.688768	-0.184886	-0.779464
C97	C	0.688766	-0.184895	-0.724863
C98	C	0.722179	-0.218338	-0.697562
C99	C	0.755593	-0.251772	-0.724861
C100	C	0.822423	-0.318648	-0.779457
C101	C	0.822414	-0.318657	-0.724849
C102	C	0.788997	-0.285220	-0.697550
C103	C	0.789004	-0.285223	-0.642959
N104	N	0.755585	-0.251792	-0.615657
C105	C	0.722173	-0.218349	-0.642959
C106	C	0.789027	-0.285161	-0.976035
C107	C	0.789036	-0.285147	-1.030637
C108	C	0.722202	-0.218270	-1.030637
C109	C	0.722197	-0.218282	-0.976033
C110	C	0.755609	-0.251730	-0.948733
C111	C	0.722171	-0.218370	-0.528294
C112	C	0.722174	-0.218381	-0.473688
C113	C	0.789005	-0.285259	-0.473693
C114	C	0.789005	-0.285247	-0.528294
C115	C	0.755584	-0.251801	-0.555593
O116	O	0.817415	-0.313639	-0.614676
O117	O	0.693748	-0.189924	-0.614716
C118	C	0.755534	-0.251843	-0.116057
C119	C	0.755621	-0.251706	-0.057943
H120	H	0.457378	-0.312450	-0.191110
O121	O	0.689651	-0.446731	-0.185806
C122	C	0.701091	-0.460105	-0.133706
H123	H	0.742865	-0.475079	-0.131099
H124	H	0.696586	-0.424216	-0.107870
H125	H	0.673074	-0.491834	-0.120020
O126	O	0.309584	-0.351090	-0.152412
C127	C	0.341150	-0.384912	-0.182110
H128	H	0.349363	-0.366528	-0.221769
H129	H	0.379532	-0.391891	-0.160797
H130	H	0.320083	-0.423665	-0.187780
H131	H	0.849606	-0.701908	-0.346107
H132	H	0.305433	-0.157885	-0.346188
H133	H	0.661522	-0.801260	-0.157745
H134	H	0.849633	-0.800955	-0.346129
O135	O	0.689660	-0.185883	-0.447251
C136	C	0.660179	-0.156357	-0.483062
H137	H	0.658359	-0.177768	-0.521975
H138	H	0.618986	-0.150782	-0.467275
H139	H	0.679351	-0.116648	-0.488892
O140	O	-0.049177	-0.186104	-0.318002
C141	C	-0.080755	-0.215919	-0.351723
H142	H	-0.088963	-0.255518	-0.333208
H143	H	-0.119138	-0.194635	-0.358770
H144	H	-0.059699	-0.221713	-0.390459
O145	O	0.689781	-0.185854	-0.554864
C146	C	0.719570	-0.152069	-0.586462
H147	H	0.759180	-0.170510	-0.594656
H148	H	0.698277	-0.145049	-0.624851
H149	H	0.725344	-0.113330	-0.565431
H150	H	0.556573	-0.191283	-0.312670
H151	H	0.816118	-0.450788	-0.312583
H152	H	0.694986	-0.191054	-0.953810
H153	H	0.661552	-0.157669	-0.702641
H154	H	0.661491	-0.702210	-0.157734
H155	H	0.694881	-0.550052	-0.191153
H156	H	0.816268	-0.953134	-0.312683
O157	O	0.656293	-0.152346	-0.805899
C158	C	0.626794	-0.122854	-0.770084
H159	H	0.648211	-0.121063	-0.731170
H160	H	0.621247	-0.081653	-0.785864
H161	H	0.587071	-0.141998	-0.764257
O162	O	0.689681	-0.185863	-1.057184
C163	C	0.655908	-0.215632	-1.088753
H164	H	0.652658	-0.256813	-1.072277
H165	H	0.615681	-0.196728	-1.089367
H166	H	0.672076	-0.217427	-1.130140
O167	O	0.821518	-0.317673	-1.057071
C168	C	0.851016	-0.347179	-1.021259
H169	H	0.829594	-0.348992	-0.982329
H170	H	0.856569	-0.388373	-1.037017
H171	H	0.890736	-0.328034	-1.015471
O172	O	0.821595	-1.056397	-0.317978
C173	C	0.851072	-1.020548	-0.347526
H174	H	0.852889	-0.981637	-0.326109
H175	H	0.892266	-1.036288	-0.353148
H176	H	0.831900	-1.014731	-0.387215
O177	O	0.821517	-0.317577	-0.949460
C178	C	0.855314	-0.287819	-0.917907
H179	H	0.836897	-0.248199	-0.909729
H180	H	0.862309	-0.309127	-0.879507
H181	H	0.894063	-0.282067	-0.938969
H182	H	0.849635	-0.345877	-0.801674
O183	O	0.202181	-0.152622	-0.351508
C184	C	0.238029	-0.123147	-0.381060
H185	H	0.276939	-0.144568	-0.382815
H186	H	0.222285	-0.117629	-0.422271
H187	H	0.243851	-0.083410	-0.361993
H188	H	0.816140	-0.549838	-0.312616
H189	H	0.849626	-0.345892	-0.702624
O190	O	0.689736	-1.056610	-0.185971
C191	C	0.660244	-1.020847	-0.156416
H192	H	0.658414	-0.981911	-0.177825
H193	H	0.619055	-1.036661	-0.150800
H194	H	0.679412	-1.015051	-0.116725
O195	O	0.821486	-0.317772	-0.554735
C196	C	0.850988	-0.347279	-0.518926
H197	H	0.829571	-0.349092	-0.479993
H198	H	0.856539	-0.388472	-0.534685
H199	H	0.890709	-0.328134	-0.513143
O200	O	0.560808	-0.317641	-0.185852
C201	C	0.614863	-0.310484	-0.193045
H202	H	0.622347	-0.270160	-0.210252
H203	H	0.635597	-0.313969	-0.153874
H204	H	0.630354	-0.341537	-0.220823
O205	O	0.453317	-0.186013	-0.317990
C206	C	0.489163	-0.156539	-0.347546
H207	H	0.528072	-0.177961	-0.349304
H208	H	0.473416	-0.151021	-0.388755
H209	H	0.494987	-0.116802	-0.328479
H210	H	0.054227	-0.191277	-0.312708
O211	O	-0.049177	-0.317712	-0.185837
C212	C	-0.013398	-0.347191	-0.156279
H213	H	0.025537	-0.325770	-0.154511
H214	H	-0.029192	-0.352713	-0.115073
H215	H	-0.007605	-0.386925	-0.175349
O216	O	0.689821	-0.948998	-0.185945
C217	C	0.719596	-0.917421	-0.152189
H218	H	0.759204	-0.909184	-0.170668
H219	H	0.698288	-0.879051	-0.145150
H220	H	0.725373	-0.938491	-0.113455
O221	O	0.821383	-0.317801	-0.447142
C222	C	0.791582	-0.351559	-0.415526
H223	H	0.750405	-0.354780	-0.431973
H224	H	0.810460	-0.391799	-0.414890
H225	H	0.789784	-0.335396	-0.374151
O226	O	0.058435	-0.317718	-0.185946
C227	C	0.090003	-0.351538	-0.215646
H228	H	0.098219	-0.333150	-0.255301
H229	H	0.128382	-0.358521	-0.194329
H230	H	0.068934	-0.390289	-0.221322
H231	H	0.206188	-0.345823	-0.157609
