data_functionalizedCrystal
_audit_creation_method	'MofGen! by Chris Wilmer'
_symmetry_space_group_name_H-M	'P1'
_symmetry_Int_Tables_number	1
_symmetry_cell_setting	triclinic
loop_
_symmetry_equiv_pos_as_xyz
  x,y,z
_cell_length_a	12.594517
_cell_length_b	12.594516
_cell_length_c	12.827885
_cell_angle_alpha	89.971946
_cell_angle_beta	89.977546
_cell_angle_gamma	90.015485
loop_
_atom_site_label
_atom_site_type_symbol
_atom_site_fract_x
_atom_site_fract_y
_atom_site_fract_z
Zn1	Zn	1.627270	-0.423707	-0.590950
Zn2	Zn	2.127270	0.076293	-0.090950
Zn3	Zn	1.627160	-0.601723	-0.416216
Zn4	Zn	2.127160	-0.101723	0.083784
Zn5	Zn	1.449273	-0.423757	-0.416214
Zn6	Zn	1.949273	0.076243	0.083786
Zn7	Zn	1.449256	-0.601642	-0.590906
Zn8	Zn	1.949256	-0.101642	-0.090906
O9	O	1.538239	-0.512707	-0.503571
O10	O	2.038239	-0.012707	-0.003571
O11	O	1.776201	-0.447334	-0.567790
O12	O	2.276201	0.052666	-0.067790
O13	O	1.603524	-0.578170	-0.269979
O14	O	2.103524	-0.078170	0.230021
O15	O	1.472937	-0.274804	-0.439411
O16	O	1.972937	0.225196	0.060589
O17	O	1.776120	-0.578121	-0.439414
O18	O	2.276120	-0.078121	0.060586
O19	O	1.603711	-0.274767	-0.567789
O20	O	2.103711	0.225233	-0.067789
O21	O	1.472831	-0.447419	-0.269978
O22	O	1.972831	0.052581	0.230022
O23	O	1.300325	-0.447341	-0.439368
O24	O	1.800325	0.052659	0.060632
O25	O	1.472908	-0.577983	-0.737148
O26	O	1.972908	-0.077983	-0.237148
O27	O	1.300312	-0.578032	-0.567713
O28	O	1.800312	-0.078032	-0.067713
O29	O	1.603694	-0.447255	-0.737180
O30	O	2.103694	0.052745	-0.237180
O31	O	1.603507	-0.750658	-0.439371
O32	O	2.103507	-0.250658	0.060629
O33	O	1.472802	-0.750598	-0.567715
O34	O	1.972802	-0.250598	-0.067715
C35	C	1.261698	-0.512684	-0.503536
C36	C	1.761698	-0.012684	-0.003536
C37	C	1.143393	-0.512700	-0.503546
C38	C	1.643393	-0.012700	-0.003546
C39	C	1.003352	-0.441539	-0.433899
C40	C	1.503352	0.058461	0.066101
C41	C	1.074211	-0.415602	-0.529257
C42	C	1.574211	0.084398	-0.029257
C43	C	1.074105	-0.538588	-0.408198
C44	C	1.574105	-0.038588	0.091802
C45	C	1.003466	-0.486755	-0.599031
C46	C	1.503466	0.013245	-0.099031
C47	C	1.003354	-0.609786	-0.477908
C48	C	1.503354	-0.109786	0.022092
C49	C	1.074182	-0.583887	-0.573332
C50	C	1.574182	-0.083887	-0.073332
C51	C	1.538170	-0.789248	-0.503561
C52	C	2.038170	-0.289248	-0.003561
C53	C	1.538237	-0.907553	-0.503592
C54	C	2.038237	-0.407553	-0.003592
C55	C	1.467140	-0.976813	-0.573349
C56	C	1.967140	-0.476813	-0.073349
C57	C	1.441206	-1.047681	-0.477992
C58	C	1.941206	-0.547681	0.022008
C59	C	1.564268	-1.047484	-0.598965
C60	C	2.064268	-0.547484	-0.098965
C61	C	1.512252	-0.976863	-0.408185
C62	C	2.012252	-0.476863	0.091815
C63	C	1.635359	-0.976660	-0.529221
C64	C	2.135359	-0.476660	-0.029221
C65	C	1.609462	-1.047496	-0.433799
C66	C	2.109462	-0.547496	0.066201
C67	C	1.815860	-0.512731	-0.503607
C68	C	2.315860	-0.012731	-0.003607
C69	C	1.934166	-0.512741	-0.503622
C70	C	2.434166	-0.012741	-0.003622
C71	C	1.538312	-0.512605	-0.776142
C72	C	2.038312	-0.012605	-0.276142
C73	C	1.538343	-0.512561	-0.892295
C74	C	2.038343	-0.012561	-0.392295
C75	C	1.538338	-0.235086	-0.503604
C76	C	2.038338	0.264914	-0.003604
C77	C	1.538381	-0.116781	-0.503619
C78	C	2.038381	0.383219	-0.003619
C79	C	1.603067	-0.447860	-0.944096
C80	C	2.103067	0.052140	-0.444096
C81	C	1.603100	-0.447814	-1.064146
C82	C	2.103100	0.052186	-0.564146
C83	C	1.538228	-0.512732	-0.232061
C84	C	2.038228	-0.012732	0.267939
C85	C	1.538404	-0.512476	-0.115909
C86	C	2.038404	-0.012476	0.384091
H87	H	1.105083	-0.644083	-0.632331
H88	H	1.605083	-0.144083	-0.132331
N89	N	0.964344	-0.365961	-0.360069
N90	N	1.464344	0.134039	0.139931
N91	N	0.987071	-0.269850	-0.369823
N92	N	1.487071	0.230150	0.130177
H93	H	0.959521	-0.216470	-0.317686
H94	H	1.459521	0.283530	0.182314
N95	N	1.113248	-0.312622	-0.556502
N96	N	1.613248	0.187378	-0.056502
N97	N	1.090544	-0.234152	-0.501199
N98	N	1.590544	0.265848	-0.001199
H99	H	1.118110	-0.161419	-0.520434
H100	H	1.618110	0.338581	-0.020434
N101	N	1.672538	-0.378393	-0.888245
N102	N	2.172538	0.121607	-0.388245
N103	N	1.635035	-0.310643	-0.827327
N104	N	2.135035	0.189357	-0.327327
H105	H	1.684099	-0.261578	-0.787883
H106	H	2.184099	0.238422	-0.287883
H107	H	1.717408	-0.945444	-0.550922
H108	H	2.217408	-0.445444	-0.050922
N109	N	1.591842	-1.086405	-0.700123
N110	N	2.091842	-0.586405	-0.200123
N111	N	1.672455	-1.143081	-0.711617
N112	N	2.172455	-0.643081	-0.211617
H113	H	1.691923	-1.170568	-0.783061
H114	H	2.191923	-0.670568	-0.283061
H115	H	1.658516	-0.392424	-1.108693
H116	H	2.158516	0.107576	-0.608693
N117	N	1.468838	-0.581993	-0.948148
N118	N	1.968838	-0.081993	-0.448148
N119	N	1.401100	-0.544449	-1.009065
N120	N	1.901100	-0.044449	-0.509065
H121	H	1.352008	-0.593484	-1.048510
H122	H	1.852008	-0.093484	-0.548510
H123	H	1.482992	-0.567876	-1.071368
H124	H	1.982992	-0.067876	-0.571368
N125	N	1.684961	-1.086180	-0.359718
N126	N	2.184961	-0.586180	0.140282
N127	N	1.675254	-1.063341	-0.265380
N128	N	2.175254	-0.563341	0.234620
H129	H	1.728571	-1.090662	-0.213057
H130	H	2.228571	-0.590662	0.286943
H131	H	0.972566	-0.464780	-0.679721
H132	H	1.472566	0.035220	-0.179721
N133	N	0.964270	-0.712724	-0.450604
N134	N	1.464270	-0.212724	0.049396
N135	N	0.906140	-0.723926	-0.372364
N136	N	1.406140	-0.223926	0.127636
H137	H	0.878534	-0.796627	-0.353068
H138	H	1.378534	-0.296627	0.146932
N139	N	1.113066	-0.566032	-0.307015
N140	N	1.613066	-0.066032	0.192985
N141	N	1.171091	-0.502607	-0.258347
N142	N	1.671091	-0.002607	0.241653
H143	H	1.198611	-0.521981	-0.186886
H144	H	1.698611	-0.021981	0.313114
N145	N	1.391574	-0.937884	-0.647243
N146	N	1.891574	-0.437884	-0.147243
N147	N	1.295478	-0.960697	-0.637551
N148	N	1.795478	-0.460697	-0.137551
H149	H	1.242107	-0.933203	-0.689734
H150	H	1.742107	-0.433203	-0.189734
N151	N	1.338256	-1.086839	-0.450811
N152	N	1.838256	-0.586839	0.049189
N153	N	1.322059	-1.184626	-0.445723
N154	N	1.822059	-0.684626	0.054277
H155	H	1.249349	-1.212279	-0.426531
H156	H	1.749349	-0.712279	0.073469
H157	H	1.490198	-0.945970	-0.327518
H158	H	1.990198	-0.445970	0.172482
