data_functionalizedCrystal
_audit_creation_method	'MofGen! by Chris Wilmer'
_symmetry_space_group_name_H-M	'P1'
_symmetry_Int_Tables_number	1
_symmetry_cell_setting	triclinic
loop_
_symmetry_equiv_pos_as_xyz
  x,y,z
_cell_length_a	16.109295
_cell_length_b	10.868271
_cell_length_c	16.109301
_cell_angle_alpha	90.006364
_cell_angle_beta	83.460334
_cell_angle_gamma	90.002028
loop_
_atom_site_label
_atom_site_type_symbol
_atom_site_fract_x
_atom_site_fract_y
_atom_site_fract_z
O1	O	-1.103135	-0.102242	-0.106845
O2	O	-0.853135	0.147758	0.143155
O3	O	-0.603135	0.397758	0.393155
O4	O	-0.353135	0.647758	0.643155
O5	O	-0.861073	-0.102264	-0.120149
O6	O	-0.611073	0.147736	0.129851
O7	O	-0.361073	0.397736	0.379851
O8	O	-0.111073	0.647736	0.629851
O9	O	-0.988754	-0.102240	0.007534
O10	O	-0.738754	0.147760	0.257534
O11	O	-0.488754	0.397760	0.507534
O12	O	-0.238754	0.647760	0.757534
O13	O	-0.975454	-0.102266	-0.234528
O14	O	-0.725454	0.147734	0.015472
O15	O	-0.475454	0.397734	0.265472
O16	O	-0.225454	0.647734	0.515472
O17	O	-0.988742	0.102405	0.007538
O18	O	-0.738742	0.352405	0.257538
O19	O	-0.488742	0.602405	0.507538
O20	O	-0.238742	0.852405	0.757538
O21	O	-0.861061	0.102381	-0.120145
O22	O	-0.611061	0.352381	0.129855
O23	O	-0.361061	0.602381	0.379855
O24	O	-0.111061	0.852381	0.629855
O25	O	-1.103123	0.102402	-0.106841
O26	O	-0.853123	0.352402	0.143159
O27	O	-0.603123	0.602402	0.393159
O28	O	-0.353123	0.852402	0.643159
Zn29	Zn	-0.982090	0.134883	-0.113492
Zn30	Zn	-0.732090	0.384883	0.136508
Zn31	Zn	-0.482090	0.634883	0.386508
Zn32	Zn	-0.232090	0.884883	0.636508
Zn33	Zn	-0.982106	-0.134745	-0.113498
Zn34	Zn	-0.732106	0.115255	0.136502
Zn35	Zn	-0.482106	0.365255	0.386502
Zn36	Zn	-0.232106	0.615255	0.636502
O37	O	-0.975442	0.102378	-0.234524
O38	O	-0.725442	0.352378	0.015476
O39	O	-0.475442	0.602378	0.265476
O40	O	-0.225442	0.852378	0.515476
C41	C	-0.830092	0.000056	-0.119609
C42	C	-0.580092	0.250056	0.130391
C43	C	-0.330092	0.500056	0.380391
C44	C	-0.080092	0.750056	0.630391
C45	C	-0.737796	0.000048	-0.117996
C46	C	-0.487796	0.250048	0.132004
C47	C	-0.237796	0.500048	0.382004
C48	C	0.012204	0.750048	0.632004
N49	N	-0.982085	0.318897	-0.113488
N50	N	-0.732085	0.568897	0.136512
N51	N	-0.482085	0.818897	0.386512
N52	N	-0.232085	1.068897	0.636512
C53	C	-0.515523	0.000054	-0.190008
C54	C	-0.265523	0.250054	0.059992
C55	C	-0.015523	0.500054	0.309992
C56	C	0.234477	0.750054	0.559992
C57	C	-0.428803	0.000061	-0.188486
C58	C	-0.178803	0.250061	0.061514
C59	C	0.071197	0.500061	0.311514
C60	C	0.321197	0.750061	0.561514
C61	C	-0.448677	0.000072	-0.036996
C62	C	-0.198677	0.250072	0.213004
C63	C	0.051323	0.500072	0.463004
C64	C	0.301323	0.750072	0.713004
C65	C	-0.535396	0.000074	-0.038520
C66	C	-0.285396	0.250074	0.211480
C67	C	-0.035396	0.500074	0.461480
C68	C	0.214604	0.750074	0.711480
C69	C	-0.568816	0.000058	-0.115028
C70	C	-0.318816	0.250058	0.134972
C71	C	-0.068816	0.500058	0.384972
C72	C	0.181184	0.750058	0.634972
C73	C	-0.395377	0.000064	-0.111982
C74	C	-0.145377	0.250064	0.138018
C75	C	0.104623	0.500064	0.388018
C76	C	0.354623	0.750064	0.638018
C77	C	-0.301351	0.000073	-0.110331
C78	C	-0.051351	0.250073	0.139669
C79	C	0.198649	0.500073	0.389669
C80	C	0.448649	0.750073	0.639669
C81	C	-0.662849	0.000052	-0.116679
C82	C	-0.412849	0.250052	0.133321
C83	C	-0.162849	0.500052	0.383321
C84	C	0.087151	0.750052	0.633321
C85	C	-0.982096	0.569903	-0.113498
C86	C	-0.732096	0.819903	0.136502
C87	C	-0.482096	1.069903	0.386502
C88	C	-0.232096	1.319903	0.636502
C89	C	-0.982087	0.430226	-0.113495
C90	C	-0.732087	0.680226	0.136505
C91	C	-0.482087	0.930226	0.386505
C92	C	-0.232087	1.180226	0.636505
C93	C	-0.134104	0.000078	-0.107386
C94	C	0.115896	0.250078	0.142614
C95	C	0.365896	0.500078	0.392614
C96	C	0.615896	0.750078	0.642614
C97	C	-0.226397	0.000074	-0.109014
C98	C	0.023603	0.250074	0.140986
C99	C	0.273603	0.500074	0.390986
C100	C	0.523603	0.750074	0.640986
C101	C	-0.988209	0.000083	0.038511
C102	C	-0.738209	0.250083	0.288511
C103	C	-0.488209	0.500083	0.538511
C104	C	-0.238209	0.750083	0.788511
C105	C	-0.986594	0.000085	0.130806
C106	C	-0.736594	0.250085	0.380806
C107	C	-0.486594	0.500085	0.630806
C108	C	-0.236594	0.750085	0.880806
N109	N	-0.982109	0.681241	-0.113499
N110	N	-0.732109	0.931241	0.136501
N111	N	-0.482109	1.181241	0.386501
N112	N	-0.232109	1.431241	0.636501
C113	C	-0.975987	0.000053	-0.265501
C114	C	-0.725987	0.250053	-0.015501
C115	C	-0.475987	0.500053	0.234499
C116	C	-0.225987	0.750053	0.484499
C117	C	-0.977602	0.000043	-0.357796
C118	C	-0.727602	0.250043	-0.107796
C119	C	-0.477602	0.500043	0.142204
C120	C	-0.227602	0.750043	0.392204
C121	C	-1.058602	0.000071	0.353080
C122	C	-0.808602	0.250071	0.603080
C123	C	-0.558602	0.500071	0.853080
C124	C	-0.308602	0.750071	1.103080
C125	C	-1.057078	0.000061	0.439800
C126	C	-0.807078	0.250061	0.689800
C127	C	-0.557078	0.500061	0.939800
C128	C	-0.307078	0.750061	1.189800
C129	C	-0.905588	0.000053	0.419923
C130	C	-0.655588	0.250053	0.669923
C131	C	-0.405588	0.500053	0.919923
C132	C	-0.155588	0.750053	1.169923
C133	C	-0.907113	0.000054	0.333204
C134	C	-0.657113	0.250054	0.583204
C135	C	-0.407113	0.500054	0.833204
C136	C	-0.157113	0.750054	1.083204
C137	C	-0.983622	0.000070	0.299785
C138	C	-0.733622	0.250070	0.549785
C139	C	-0.483622	0.500070	0.799785
C140	C	-0.233622	0.750070	1.049785
C141	C	-0.980573	0.000058	0.473225
C142	C	-0.730573	0.250058	0.723225
C143	C	-0.480573	0.500058	0.973225
C144	C	-0.230573	0.750058	1.223225
C145	C	-0.978920	0.000047	0.567251
C146	C	-0.728920	0.250047	0.817251
C147	C	-0.478920	0.500047	1.067251
C148	C	-0.228920	0.750047	1.317251
C149	C	-0.985276	0.000079	0.205754
C150	C	-0.735276	0.250079	0.455754
C151	C	-0.485276	0.500079	0.705754
C152	C	-0.235276	0.750079	0.955754
H153	H	-0.542731	0.000050	-0.252306
H154	H	-0.292731	0.250050	-0.002306
H155	H	-0.042731	0.500050	0.247694
H156	H	0.207269	0.750050	0.497694
H157	H	-1.120900	0.000082	0.325874
H158	H	-0.870900	0.250082	0.575874
H159	H	-0.620900	0.500082	0.825874
H160	H	-0.370900	0.750082	1.075874
C161	C	-0.411906	0.000078	0.047158
C162	C	-0.161906	0.250078	0.297158
C163	C	0.088094	0.500078	0.547158
C164	C	0.338094	0.750078	0.797158
N165	N	-0.384211	0.000078	0.110545
N166	N	-0.134211	0.250078	0.360545
N167	N	0.115789	0.500078	0.610545
N168	N	0.365789	0.750078	0.860545
C169	C	-1.139561	0.000074	0.498421
C170	C	-0.889561	0.250074	0.748421
C171	C	-0.639561	0.500074	0.998421
C172	C	-0.389561	0.750074	1.248421
N173	N	-1.201691	0.000086	0.542575
N174	N	-0.951691	0.250086	0.792575
N175	N	-0.701691	0.500086	1.042575
N176	N	-0.451691	0.750086	1.292575
C177	C	-0.594023	0.000079	0.043969
C178	C	-0.344023	0.250079	0.293969
C179	C	-0.094023	0.500079	0.543969
C180	C	0.155977	0.750079	0.793969
N181	N	-0.638180	0.000086	0.106096
N182	N	-0.388180	0.250086	0.356096
N183	N	-0.138180	0.500086	0.606096
N184	N	0.111820	0.750086	0.856096
C185	C	-0.821433	0.000059	0.456693
C186	C	-0.571433	0.250059	0.706693
C187	C	-0.321433	0.500059	0.956693
C188	C	-0.071433	0.750059	1.206693
N189	N	-0.758045	0.000074	0.484386
N190	N	-0.508045	0.250074	0.734386
N191	N	-0.258045	0.500074	0.984386
N192	N	-0.008045	0.750074	1.234386
H193	H	-0.846052	0.000049	0.289809
H194	H	-0.596052	0.250049	0.539809
H195	H	-0.346052	0.500049	0.789809
H196	H	-0.096052	0.750049	1.039809
C197	C	-0.370183	0.000062	-0.270970
C198	C	-0.120183	0.250062	-0.020970
C199	C	0.129817	0.500062	0.229030
C200	C	0.379817	0.750062	0.479030
N201	N	-0.326031	0.000066	-0.333101
N202	N	-0.076031	0.250066	-0.083101
N203	N	0.173969	0.500066	0.166899
N204	N	0.423969	0.750066	0.416899
