data_functionalizedCrystal
_audit_creation_method	'MofGen! by Chris Wilmer'
_symmetry_space_group_name_H-M	'P1'
_symmetry_Int_Tables_number	1
_symmetry_cell_setting	triclinic
loop_
_symmetry_equiv_pos_as_xyz
  x,y,z
_cell_length_a	14.395555
_cell_length_b	21.606444
_cell_length_c	21.606444
_cell_angle_alpha	59.999490
_cell_angle_beta	90.003431
_cell_angle_gamma	60.010363
loop_
_atom_site_label
_atom_site_type_symbol
_atom_site_fract_x
_atom_site_fract_y
_atom_site_fract_z
Zr1	Zr	0.895158	0.677321	-0.081136
O2	O	0.746867	0.806429	-0.179958
O3	O	0.940584	0.548220	-0.050849
O4	O	0.940621	0.677324	-0.179962
O5	O	0.746837	0.677320	0.051008
O6	O	1.093495	0.677319	-0.179956
O7	O	0.746829	0.677324	-0.050846
O8	O	1.093428	0.446375	0.051002
O9	O	0.746905	0.908264	-0.179950
O10	O	1.074085	0.601315	-0.037920
O11	O	0.960003	0.601315	0.038089
O12	O	0.960047	0.753319	-0.113924
O13	O	0.845965	0.753319	-0.037916
Zr14	Zr	1.138986	0.677307	0.081318
Zr15	Zr	1.138974	0.677314	-0.081128
Zr16	Zr	0.895170	0.677314	0.081309
Zr17	Zr	0.895217	0.839737	-0.081123
Zr18	Zr	1.138927	0.514891	0.081305
O19	O	1.093560	0.806408	0.051031
O20	O	1.093543	0.806418	-0.179946
O21	O	0.746885	0.806419	0.051019
O22	O	1.287277	0.548199	0.180139
O23	O	1.287259	0.548209	-0.050837
O24	O	0.940601	0.548210	0.180127
O25	O	1.287307	0.677308	-0.050827
O26	O	1.093523	0.677304	0.180143
O27	O	0.940649	0.677309	0.180138
O28	O	1.287315	0.677304	0.051027
O29	O	0.940706	0.908258	-0.179943
O30	O	1.093438	0.446370	0.180124
O31	O	1.287239	0.446364	0.180131
O32	O	1.287229	0.446370	0.051009
O33	O	0.746915	0.908258	-0.050827
O34	O	0.940716	0.908252	-0.050820
O35	O	1.074097	0.601309	0.114105
O36	O	1.188179	0.601309	0.038097
O37	O	1.074141	0.753312	-0.037907
O38	O	0.960059	0.753313	0.038101
C39	C	1.016997	0.474157	0.000074
C40	C	1.016972	0.405207	0.000069
C41	C	1.101361	-0.074266	0.056223
C42	C	1.101337	-0.009458	0.056215
C43	C	1.017118	0.079036	0.000100
C44	C	0.932924	0.102723	-0.056016
C45	C	0.932954	0.037915	-0.056011
C46	C	0.932803	0.364085	-0.056039
C47	C	0.932777	0.428893	-0.056039
C48	C	1.101185	0.316713	0.056187
C49	C	1.101215	0.251905	0.056192
C50	C	1.017026	0.275597	0.000074
C51	C	1.017054	0.205324	0.000082
C52	C	1.017084	0.149309	0.000094
C53	C	0.712095	0.677323	0.000080
C54	C	0.608588	0.677326	0.000076
C55	C	0.485821	0.760205	-0.041358
C56	C	0.454968	0.718776	-0.071394
C57	C	0.455018	0.718752	0.030107
C58	C	0.579099	0.635896	-0.030002
C59	C	0.579146	0.635885	0.071539
C60	C	0.548366	0.594395	0.041521
C61	C	1.322049	0.677305	0.000101
C62	C	1.425556	0.677302	0.000105
C63	C	1.017057	0.677323	-0.203104
C64	C	1.017051	0.677326	-0.272066
C65	C	1.017147	0.880471	0.000107
C66	C	1.017172	0.949421	0.000113
C67	C	0.957524	0.756669	-0.344138
C68	C	0.957534	0.756667	-0.408933
C69	C	1.017065	0.677320	-0.401654
C70	C	1.076600	0.597970	-0.329575
C71	C	1.076596	0.597973	-0.264781
C72	C	1.076618	0.597955	-0.590878
C73	C	1.076614	0.597958	-0.655678
C74	C	0.957556	0.756648	-0.735030
C75	C	0.957552	0.756652	-0.670236
C76	C	1.017091	0.677302	-0.598163
C77	C	1.017081	0.677306	-0.527905
C78	C	1.017069	0.677315	-0.471910
C79	C	1.017087	0.677305	0.203285
C80	C	1.017093	0.677302	0.272248
C81	C	1.321974	0.474148	0.000085
C82	C	1.425456	0.405195	0.000083
C83	C	1.017013	0.474148	0.203269
C84	C	1.016992	0.405195	0.272226
C85	C	1.321990	0.474139	0.203280
C86	C	1.425476	0.405183	0.272240
C87	C	0.712154	0.880489	-0.203098
C88	C	0.608668	0.949445	-0.272059
C89	C	0.712170	0.880480	0.000096
C90	C	0.608688	0.949433	0.000098
C91	C	1.017131	0.880480	-0.203088
C92	C	1.017152	0.949432	-0.272044
C93	C	1.414496	0.372817	-0.039604
C94	C	1.511718	0.308038	-0.039621
C95	C	1.619899	0.275633	0.000054
C96	C	1.630857	0.308017	0.039743
C97	C	1.533636	0.372799	0.039755
C98	C	1.076539	0.372811	0.344295
C99	C	1.076516	0.308032	0.409094
C100	C	1.016952	0.275634	0.401821
C101	C	0.957398	0.308024	0.329744
C102	C	0.957415	0.372807	0.264947
C103	C	1.533635	0.372801	0.264949
C104	C	1.630880	0.308019	0.329739
C105	C	1.619965	0.275615	0.401818
C106	C	1.511796	0.308004	0.409108
C107	C	1.414552	0.372790	0.344319
C108	C	0.500509	0.981835	-0.264768
C109	C	0.403264	1.046637	-0.329557
C110	C	0.414179	1.079044	-0.401637
C111	C	0.522348	1.046651	-0.408927
C112	C	0.619592	0.981854	-0.344138
C113	C	0.619648	0.981817	0.039779
C114	C	0.522426	1.046615	0.039778
C115	C	0.414245	1.079022	0.000100
C116	C	0.403287	1.046635	-0.039585
C117	C	0.500508	0.981844	-0.039589
C118	C	1.076727	0.981810	-0.264747
C119	C	1.076768	1.046590	-0.329533
C120	C	1.017227	1.078995	-0.401616
C121	C	0.957649	1.046611	-0.408911
C122	C	0.957616	0.981828	-0.344126
H123	H	1.169895	-0.028752	0.101904
H124	H	1.699053	0.222882	0.000039
N125	N	0.893431	1.081573	-0.486661
H126	H	0.810125	1.108463	-0.492740
H127	H	0.924731	1.032114	-0.492697
H128	H	1.542575	0.399153	0.072078
N129	N	0.893316	0.842257	-0.352000
H130	H	0.947937	0.845792	-0.326882
H131	H	0.833382	0.845751	-0.326903
H132	H	1.125095	0.533340	-0.649743
H133	H	1.017263	1.131746	-0.454362
N134	N	0.842151	0.063466	-0.116534
H135	H	0.764832	0.099256	-0.114088
H136	H	0.855050	0.008946	-0.107986
N137	N	0.649738	0.589537	-0.063727
H138	H	0.727697	0.537769	-0.024975
H139	H	0.657386	0.631330	-0.109844
H140	H	1.125212	0.955436	-0.206060
N141	N	0.309393	1.148891	0.000123
H142	H	0.239191	1.164509	-0.031031
H143	H	0.309476	1.202600	-0.022431
N144	N	0.841950	0.524345	-0.116575
H145	H	0.764634	0.537590	-0.114140
H146	H	0.845761	0.537525	-0.168051
H147	H	1.542544	0.399174	0.206264
H148	H	1.125098	0.533344	-0.532200
H149	H	0.315197	1.073001	-0.323607
H150	H	0.315193	1.073031	-0.071890
H151	H	0.707726	0.955436	0.072094
N152	N	0.893391	0.842245	-0.486669
H153	H	0.855692	0.892511	-0.481448
H154	H	0.833516	0.845738	-0.515320
H155	H	1.718948	0.281654	0.323790
H156	H	0.334988	1.131805	-0.454386
N157	N	0.893354	0.946911	-0.352002
H158	H	0.855642	0.977276	-0.407498
H159	H	0.833479	0.958194	-0.326855
N160	N	1.140819	0.512386	-0.321719
H161	H	1.131788	0.524422	-0.373701
H162	H	1.109540	0.477737	-0.293068
N163	N	0.452170	0.853030	-0.087832
H164	H	0.366499	0.895138	-0.109306
H165	H	0.484440	0.862774	-0.130677
N166	N	0.841996	0.389631	-0.116552
H167	H	0.878751	0.365256	-0.146035
H168	H	0.788661	0.455528	-0.152049
N169	N	0.736245	0.946906	-0.352011
H170	H	0.796202	0.900936	-0.300035
H171	H	0.745277	0.996381	-0.380662
H172	H	0.491569	0.955478	-0.071899
N173	N	1.724854	0.205740	0.471695
H174	H	1.795025	0.190145	0.456131
H175	H	1.724790	0.152022	0.502850
N176	N	1.192194	-0.169712	0.116751
H177	H	1.245525	-0.174880	0.152294
H178	H	1.236374	-0.199034	0.092215
H179	H	1.169792	0.179850	0.101889
H180	H	1.502925	0.281612	0.467804
H181	H	0.401527	0.753795	0.055493
H182	H	0.909071	0.821264	-0.676170
H183	H	0.401458	0.753806	-0.131818
H184	H	1.169739	0.297428	0.101879
H185	H	0.909079	0.821259	-0.793722
N186	N	0.842092	0.198168	-0.116547
H187	H	0.854845	0.235631	-0.108036
H188	H	0.764826	0.211323	-0.114069
H189	H	0.632652	0.600885	0.131950
N190	N	0.582314	0.501490	0.087946
H191	H	0.628357	0.470306	0.065185
H192	H	0.511737	0.502056	0.088054
N193	N	1.297823	0.407757	-0.082398
H194	H	1.288715	0.434645	-0.137904
H195	H	1.237959	0.453675	-0.076312
N196	N	0.534117	1.081602	-0.486671
H197	H	0.496439	1.146637	-0.515317
H198	H	0.496414	1.070271	-0.515257
N199	N	1.140806	0.512396	-0.187043
H200	H	1.178519	0.462129	-0.192262
H201	H	1.086125	0.508939	-0.158432
H202	H	0.531371	1.072973	0.072098
H203	H	1.502773	0.281679	-0.071941
H204	H	1.125043	0.399182	0.350231
H205	H	1.718951	0.281623	0.072045
N206	N	1.140755	0.273101	0.486827
H207	H	1.178498	0.303452	0.481596
H208	H	1.200603	0.208064	0.515441
N209	N	1.016940	0.205760	0.471712
H210	H	1.063708	0.190163	0.518470
H211	H	1.050792	0.152043	0.471677
H212	H	1.326488	0.399147	0.350266
N213	N	0.893165	0.273072	0.321906
H214	H	0.902204	0.227115	0.373894
H215	H	0.924434	0.246232	0.293260
H216	H	0.908929	0.399166	0.206267
N217	N	1.141031	1.081508	-0.321655
H218	H	1.178733	1.051151	-0.266159
H219	H	1.086381	1.146546	-0.346809
N220	N	0.488720	0.946887	-0.187030
H221	H	0.405439	0.977249	-0.192253
H222	H	0.526490	0.958153	-0.158412
