data_functionalizedCrystal
_audit_creation_method	'MofGen! by Chris Wilmer'
_symmetry_space_group_name_H-M	'P1'
_symmetry_Int_Tables_number	1
_symmetry_cell_setting	triclinic
loop_
_symmetry_equiv_pos_as_xyz
  x,y,z
_cell_length_a	11.169417
_cell_length_b	17.640280
_cell_length_c	17.640968
_cell_angle_alpha	65.682561
_cell_angle_beta	78.778703
_cell_angle_gamma	78.801822
loop_
_atom_site_label
_atom_site_type_symbol
_atom_site_fract_x
_atom_site_fract_y
_atom_site_fract_z
Zn1	Zn	2.029377	-0.233843	-0.399654
Zn2	Zn	2.029279	-0.399511	-0.234016
Zn3	Zn	1.794935	-0.261731	-0.261861
Zn4	Zn	1.862403	-0.371609	-0.371799
O5	O	1.928998	-0.316673	-0.316832
O6	O	2.197317	-0.255825	-0.377687
O7	O	1.969916	-0.404583	-0.122380
O8	O	1.797840	-0.142714	-0.303450
O9	O	2.197245	-0.377541	-0.255993
O10	O	1.970083	-0.122225	-0.404687
O11	O	1.797745	-0.303356	-0.142837
O12	O	1.635932	-0.276301	-0.276440
O13	O	1.912829	-0.329986	-0.490824
O14	O	1.685500	-0.357028	-0.357211
O15	O	2.035504	-0.228769	-0.511289
O16	O	2.035337	-0.511127	-0.228982
O17	O	1.912734	-0.490628	-0.330210
C18	C	1.617168	-0.316663	-0.316824
C19	C	1.483775	-0.316675	-0.316836
C20	C	1.981383	-0.530774	-0.273570
C21	C	2.003909	-0.622362	-0.255090
C22	C	1.758431	-0.870417	-0.457525
C23	C	1.779594	-0.956482	-0.440134
C24	C	1.907382	-0.977742	-0.334831
C25	C	1.886235	-0.891675	-0.352216
C26	C	1.811757	-0.838019	-0.413563
C27	C	1.939560	-0.859278	-0.308255
C28	C	1.918409	-0.773220	-0.325636
C29	C	1.843932	-0.719559	-0.386978
C30	C	1.790605	-0.751961	-0.430945
C31	C	2.014031	-0.912936	-0.246904
C32	C	2.067356	-0.880539	-0.202942
C33	C	2.046212	-0.794479	-0.220327
C34	C	1.971735	-0.740818	-0.281670
C35	C	2.099539	-0.762076	-0.176361
C36	C	2.078387	-0.676018	-0.193742
C37	C	1.950584	-0.654759	-0.299051
C38	C	2.242047	-0.316684	-0.316841
C39	C	2.375449	-0.316689	-0.316844
C40	C	1.981703	-0.273154	-0.531796
C41	C	2.004163	-0.254609	-0.623401
C42	C	1.876447	-0.101733	-0.360282
C43	C	1.854053	-0.010138	-0.378797
C44	C	1.758726	-0.457112	-0.871399
C45	C	1.779853	-0.439676	-0.957478
C46	C	1.907583	-0.334288	-0.978777
C47	C	1.886462	-0.351713	-0.892699
C48	C	1.812033	-0.413127	-0.839016
C49	C	1.939770	-0.307727	-0.860315
C50	C	1.918655	-0.325154	-0.774244
C51	C	1.844233	-0.386567	-0.720556
C52	C	1.790919	-0.430554	-0.752945
C53	C	2.014206	-0.246318	-0.913999
C54	C	2.067513	-0.202332	-0.881615
C55	C	2.046392	-0.219755	-0.795543
C56	C	1.971970	-0.281167	-0.741855
C57	C	2.099706	-0.175768	-0.763155
C58	C	2.078592	-0.193195	-0.677083
C59	C	1.950855	-0.298594	-0.655784
C60	C	1.876553	-0.359964	-0.102717
C61	C	1.854269	-0.378277	-0.011159
H62	H	1.889947	-0.611068	-0.349012
O63	O	1.722065	-0.991433	-0.487543
H64	H	1.795639	-1.022120	-0.521589
O65	O	1.678442	-0.523348	-0.813488
H66	H	1.644918	-0.551010	-0.850464
O67	O	1.710282	-0.694083	-0.497118
H68	H	1.704543	-0.628799	-0.501820
O69	O	2.135933	-0.641077	-0.146337
H70	H	2.196349	-0.594355	-0.191202
H71	H	1.890214	-0.348584	-0.612076
H72	H	1.827049	-0.400758	-0.650471
O73	O	1.710636	-0.496789	-0.695034
H74	H	1.677112	-0.524452	-0.732009
O75	O	1.987716	-1.035606	-0.268666
H76	H	2.081292	-1.016147	-0.286215
O77	O	2.147722	-0.938406	-0.136799
H78	H	2.153491	-1.003690	-0.132108
H79	H	2.160316	-0.125771	-0.806874
H80	H	1.736437	-0.475499	-0.983840
O81	O	1.821089	-0.626736	-0.405736
H82	H	1.910087	-0.600593	-0.427053
H83	H	1.968187	-0.284287	-1.022496
H84	H	2.160168	-0.805777	-0.126407
O85	O	2.036973	-0.227513	-1.006835
H86	H	2.081978	-0.285074	-1.016971
O87	O	2.036839	-1.005760	-0.228145
H88	H	2.137006	-1.025021	-0.240269
H89	H	2.128117	-0.152332	-0.925334
O90	O	2.136082	-0.145759	-0.642143
H91	H	2.103727	-0.077738	-0.671725
O92	O	1.678102	-0.812533	-0.523692
H93	H	1.644567	-0.849517	-0.551343
