data_functionalizedCrystal
_audit_creation_method	'MofGen! by Chris Wilmer'
_symmetry_space_group_name_H-M	'P1'
_symmetry_Int_Tables_number	1
_symmetry_cell_setting	triclinic
loop_
_symmetry_equiv_pos_as_xyz
  x,y,z
_cell_length_a	10.654556
_cell_length_b	14.519709
_cell_length_c	9.130313
_cell_angle_alpha	90.012940
_cell_angle_beta	89.998135
_cell_angle_gamma	95.916159
loop_
_atom_site_label
_atom_site_type_symbol
_atom_site_fract_x
_atom_site_fract_y
_atom_site_fract_z
O1	O	1.666589	-0.129560	-0.121774
O2	O	2.166589	0.370440	0.378226
O3	O	1.300993	-0.141895	-0.121792
O4	O	1.800993	0.358105	0.378208
O5	O	1.493484	-0.001540	-0.121742
O6	O	1.993484	0.498460	0.378258
O7	O	1.474098	-0.269916	-0.121825
O8	O	1.974098	0.230084	0.378175
O9	O	1.493471	-0.001536	0.121857
O10	O	1.993471	0.498464	0.621857
O11	O	1.300980	-0.141891	0.121807
O12	O	1.800980	0.358109	0.621807
O13	O	1.666576	-0.129556	0.121824
O14	O	2.166576	0.370444	0.621824
Cu15	Cu	1.483777	-0.135723	0.144058
Cu16	Cu	1.983777	0.364277	0.644058
Cu17	Cu	1.483792	-0.135728	-0.144026
Cu18	Cu	1.983792	0.364272	0.355974
O19	O	1.474085	-0.269912	0.121774
O20	O	1.974085	0.230088	0.621774
C21	C	1.254197	-0.140986	0.000005
C22	C	1.754197	0.359014	0.500005
C23	C	1.114781	-0.138273	0.000001
C24	C	1.614781	0.361727	0.500001
C25	C	0.918279	-0.134455	-0.132773
C26	C	1.418279	0.365545	0.367227
C27	C	1.049277	-0.136998	-0.132783
C28	C	1.549277	0.363002	0.367217
C29	C	1.049281	-0.136994	0.132802
C30	C	1.549281	0.363006	0.632802
C31	C	0.918287	-0.134443	0.132811
C32	C	1.418287	0.365557	0.632811
C33	C	1.492574	0.032827	0.000065
C34	C	1.992574	0.532827	0.500065
C35	C	1.489867	0.135222	0.000087
C36	C	1.989867	0.635222	0.500087
C37	C	1.479900	0.510170	0.000126
C38	C	1.979900	1.010170	0.500126
C39	C	1.482667	0.405848	0.000116
C40	C	1.982667	0.905848	0.500116
C41	C	1.484883	0.322699	0.000108
C42	C	1.984883	0.822699	0.500108
C43	C	1.487651	0.218370	0.000095
C44	C	1.987651	0.718370	0.500095
C45	C	1.713372	-0.130465	0.000023
C46	C	2.213372	0.369535	0.500023
C47	C	1.852788	-0.133179	0.000019
C48	C	2.352788	0.366821	0.500019
C49	C	1.474995	0.695722	0.000016
C50	C	1.974995	1.195722	0.500016
C51	C	1.477702	0.593327	0.000140
C52	C	1.977702	1.093327	0.500140
N53	N	1.483775	-0.135719	0.346681
N54	N	1.983775	0.364281	0.846681
N55	N	1.483804	-0.135725	-0.346648
N56	N	1.983804	0.364275	0.153352
C57	C	1.569039	-0.073596	0.423355
C58	C	2.069039	0.426404	0.923355
C59	C	1.569051	-0.073596	0.576692
C60	C	2.069051	0.426404	1.076692
C61	C	1.398531	-0.197851	0.576667
C62	C	1.898531	0.302149	1.076667
C63	C	1.398514	-0.197845	0.423333
C64	C	1.898514	0.302155	0.923333
H65	H	1.102594	-0.138036	-0.240915
H66	H	1.602594	0.361964	0.259085
H67	H	1.638461	-0.023008	0.360948
H68	H	2.138461	0.476992	0.860948
C69	C	1.304747	-0.266184	0.660998
C70	C	1.804747	0.233816	1.160998
N71	N	1.234106	-0.317654	0.724515
N72	N	1.734106	0.182346	1.224515
H73	H	1.638478	-0.023009	0.639116
H74	H	2.138478	0.476991	1.139116
H75	H	1.329076	-0.248434	0.360900
H76	H	1.829076	0.251566	0.860900
H77	H	0.864954	-0.133424	-0.240900
H78	H	1.364954	0.366576	0.259100
C79	C	1.121333	-0.138434	0.278865
C80	C	1.621333	0.361566	0.778865
N81	N	1.175598	-0.139537	0.388883
N82	N	1.675598	0.360463	0.888883
C83	C	0.846242	-0.133047	0.278899
C84	C	1.346242	0.366953	0.778899
N85	N	0.791977	-0.131996	0.388929
N86	N	1.291977	0.368004	0.888929
