data_functionalizedCrystal
_audit_creation_method	'MofGen! by Chris Wilmer'
_symmetry_space_group_name_H-M	'P1'
_symmetry_Int_Tables_number	1
_symmetry_cell_setting	triclinic
loop_
_symmetry_equiv_pos_as_xyz
  x,y,z
_cell_length_a	12.827893
_cell_length_b	12.827892
_cell_length_c	12.827885
_cell_angle_alpha	89.970214
_cell_angle_beta	89.980728
_cell_angle_gamma	90.015362
loop_
_atom_site_label
_atom_site_type_symbol
_atom_site_fract_x
_atom_site_fract_y
_atom_site_fract_z
Zn1	Zn	1.597670	-0.415983	-0.590849
Zn2	Zn	1.597564	-0.590761	-0.416109
Zn3	Zn	1.422911	-0.416034	-0.416122
Zn4	Zn	1.422896	-0.590683	-0.590809
O5	O	1.510260	-0.503365	-0.503472
O6	O	1.743892	-0.439179	-0.567680
O7	O	1.574357	-0.567637	-0.269875
O8	O	1.446144	-0.269791	-0.439322
O9	O	1.743814	-0.567587	-0.439300
O10	O	1.574538	-0.269754	-0.567693
O11	O	1.446041	-0.439266	-0.269884
O12	O	1.276673	-0.439190	-0.439284
O13	O	1.446118	-0.567455	-0.737050
O14	O	1.276662	-0.567504	-0.567625
O15	O	1.574524	-0.439104	-0.737080
O16	O	1.574343	-0.736986	-0.439261
O17	O	1.446016	-0.736929	-0.567612
C18	C	1.238750	-0.503345	-0.503452
C19	C	1.122597	-0.503362	-0.503469
C20	C	1.070835	-0.566954	-0.566878
C21	C	0.950784	-0.566973	-0.566896
C22	C	1.510195	-0.774875	-0.503454
C23	C	1.510262	-0.891028	-0.503481
C24	C	1.573838	-0.942807	-0.440039
C25	C	1.573910	-1.062857	-0.440066
C26	C	1.782830	-0.503386	-0.503493
C27	C	1.898983	-0.503395	-0.503502
C28	C	1.510331	-0.503265	-0.776043
C29	C	1.510362	-0.503222	-0.892196
C30	C	1.510354	-0.230795	-0.503514
C31	C	1.510394	-0.114642	-0.503531
C32	C	1.573907	-0.439697	-0.943995
C33	C	1.573940	-0.439652	-1.064045
C34	C	1.510249	-0.503390	-0.231962
C35	C	1.510422	-0.503138	-0.115810
H36	H	1.628220	-0.898262	-0.385708
C37	C	1.437923	-0.950549	-0.575996
C38	C	1.497150	-1.013128	-0.642969
C39	C	1.430544	-1.067980	-0.709778
H40	H	1.398002	-0.902616	-0.615895
H41	H	1.392494	-0.993259	-0.535980
H42	H	1.542560	-0.970422	-0.682981
H43	H	1.537068	-1.061080	-0.603099
H44	H	1.385115	-1.110690	-0.669762
H45	H	1.390627	-1.020040	-0.749669
H46	H	1.470719	-1.110454	-0.755220
C47	C	1.437840	-0.575785	-1.056617
C48	C	1.379268	-0.634367	-1.127648
C49	C	1.312409	-0.701313	-1.073150
H50	H	1.392254	-0.535909	-1.014031
H51	H	1.477811	-0.621353	-1.014062
H52	H	1.339300	-0.588805	-1.170184
H53	H	1.424826	-0.674265	-1.170236
H54	H	1.352380	-0.746881	-1.030595
H55	H	1.266830	-0.661428	-1.030566
H56	H	1.272667	-0.741075	-1.121335
H57	H	1.628283	-0.385342	-0.899465
C58	C	1.646363	-1.122186	-0.367481
C59	C	1.623676	-1.095850	-0.264024
C60	C	1.690392	-1.150505	-0.197136
H61	H	1.716612	-1.104330	-0.382685
H62	H	1.636743	-1.194989	-0.377071
H63	H	1.633304	-1.023064	-0.254439
H64	H	1.553439	-1.113709	-0.248788
H65	H	1.680772	-1.223308	-0.206726
H66	H	1.760637	-1.132645	-0.212349
H67	H	1.675002	-1.132651	-0.126933
H68	H	1.455957	-1.070121	-0.557845
H69	H	1.115396	-0.621381	-0.621155
H70	H	1.455975	-0.557567	-0.936725
H71	H	1.628348	-0.385270	-1.108591
H72	H	0.906270	-0.621420	-0.621181
H73	H	1.078036	-0.448927	-0.449199
C74	C	0.958457	-0.430963	-0.431047
C75	C	1.021098	-0.490101	-0.364031
C76	C	1.075918	-0.423413	-0.297281
H77	H	0.910505	-0.391053	-0.391176
H78	H	1.001123	-0.385527	-0.471103
H79	H	0.978435	-0.535518	-0.323979
H80	H	1.069069	-0.530009	-0.403872
H81	H	1.118584	-0.377978	-0.337337
H82	H	1.027959	-0.383506	-0.257418
H83	H	1.118433	-0.463528	-0.251810
