data_functionalizedCrystal
_audit_creation_method	'MofGen! by Chris Wilmer'
_symmetry_space_group_name_H-M	'P1'
_symmetry_Int_Tables_number	1
_symmetry_cell_setting	triclinic
loop_
_symmetry_equiv_pos_as_xyz
  x,y,z
_cell_length_a	16.120542
_cell_length_b	16.120297
_cell_length_c	16.120484
_cell_angle_alpha	95.614431
_cell_angle_beta	90.163235
_cell_angle_gamma	90.127087
loop_
_atom_site_label
_atom_site_type_symbol
_atom_site_fract_x
_atom_site_fract_y
_atom_site_fract_z
Zn1	Zn	-1.224986	0.554845	0.422355
Zn2	Zn	-0.724986	1.054845	0.922355
Zn3	Zn	-1.224881	0.422150	0.555039
Zn4	Zn	-0.724881	0.922150	1.055039
Zn5	Zn	-1.093725	0.408084	0.408261
Zn6	Zn	-0.593725	0.908084	0.908261
Zn7	Zn	-1.078879	0.554078	0.554261
Zn8	Zn	-0.578879	1.054078	1.054261
O9	O	-1.155618	0.484789	0.484979
O10	O	-0.655618	0.984789	0.984979
O11	O	-1.341008	0.543450	0.446180
O12	O	-0.841008	1.043450	0.946180
O13	O	-1.213653	0.303651	0.529996
O14	O	-0.713653	0.803651	1.029996
O15	O	-1.117394	0.421986	0.293500
O16	O	-0.617394	0.921986	0.793500
O17	O	-1.340931	0.445959	0.543662
O18	O	-0.840931	0.945959	1.043662
O19	O	-1.213831	0.529811	0.303855
O20	O	-0.713831	1.029811	0.803855
O21	O	-1.117293	0.293317	0.422159
O22	O	-0.617293	0.793317	0.922159
O23	O	-0.975720	0.421243	0.421404
O24	O	-0.475720	0.921243	0.921404
O25	O	-1.092091	0.670813	0.542336
O26	O	-0.592091	1.170813	1.042336
O27	O	-0.964813	0.528505	0.528669
O28	O	-0.464813	1.028505	1.028669
O29	O	-1.199435	0.671376	0.445425
O30	O	-0.699435	1.171376	0.945425
O31	O	-1.199257	0.445216	0.671566
O32	O	-0.699257	0.945216	1.171566
O33	O	-1.091989	0.542144	0.670994
O34	O	-0.591989	1.042144	1.170994
C35	C	-0.940180	0.473265	0.473423
C36	C	-0.440180	0.973265	0.973423
C37	C	-0.848012	0.468356	0.468501
C38	C	-0.348012	0.968356	0.968501
C39	C	-0.632818	0.510209	0.510486
C40	C	-0.132818	1.010209	1.010486
C41	C	-0.679265	0.459392	0.459521
C42	C	-0.179265	0.959392	0.959521
C43	C	-0.773165	0.464381	0.464519
C44	C	-0.273165	0.964381	0.964519
C45	C	-0.538910	0.505221	0.505490
C46	C	-0.038910	1.005221	1.005490
C47	C	-1.144022	0.495142	0.701523
C48	C	-0.644022	0.995142	1.201523
C49	C	-1.139136	0.499603	0.794167
C50	C	-0.639136	0.999603	1.294167
C51	C	-1.144118	0.702181	0.495366
C52	C	-0.644118	1.202181	0.995366
C53	C	-1.139218	0.794821	0.499792
C54	C	-0.639218	1.294821	0.999792
C55	C	-0.371898	0.496347	0.496575
C56	C	0.128102	0.996347	0.996575
C57	C	-0.464066	0.501242	0.501504
C58	C	0.035934	1.001242	1.001504
C59	C	-1.167124	0.268243	0.474575
C60	C	-0.667124	0.768243	0.974575
C61	C	-1.172197	0.175601	0.469922
C62	C	-0.672197	0.675601	0.969922
C63	C	-1.130242	0.964432	0.507853
C64	C	-0.630242	1.464432	1.007853
C65	C	-1.181171	1.005995	0.461864
C66	C	-0.681171	1.505995	0.961864
C67	C	-1.176176	1.100373	0.466349
C68	C	-0.676176	1.600373	0.966349
C69	C	-1.135235	0.870046	0.503369
C70	C	-0.635235	1.370046	1.003369
C71	C	-1.167280	0.474415	0.267591
C72	C	-0.667280	0.974415	0.767591
C73	C	-1.172250	0.469994	0.174954
C74	C	-0.672250	0.969994	0.674954
C75	C	-1.130219	0.507765	0.963789
C76	C	-0.630219	1.007765	1.463789
C77	C	-1.181165	0.461834	1.005337
C78	C	-0.681165	0.961834	1.505337
C79	C	-1.176203	0.466376	1.099720
C80	C	-0.676203	0.966376	1.599720
C81	C	-1.135179	0.503225	0.869397
C82	C	-0.635179	1.003225	1.369397
H83	H	-0.663572	0.557457	0.557869
H84	H	-0.163572	1.057457	1.057869
H85	H	-1.228523	0.970699	0.419122
H86	H	-0.728523	1.470699	0.919122
Br87	Br	-1.051323	1.023258	0.579090
Br88	Br	-0.551323	1.523258	1.079090
H89	H	-1.082880	0.550495	0.999102
H90	H	-0.582880	1.050495	1.499102
Br91	Br	-0.628008	0.380630	0.380543
Br92	Br	-0.128008	0.880630	0.880543
Br93	Br	-1.260071	0.390606	0.946481
Br94	Br	-0.760071	0.890606	1.446481
