data_functionalizedCrystal
_audit_creation_method	'MofGen! by Chris Wilmer'
_symmetry_space_group_name_H-M	'P1'
_symmetry_Int_Tables_number	1
_symmetry_cell_setting	triclinic
loop_
_symmetry_equiv_pos_as_xyz
  x,y,z
_cell_length_a	19.188933
_cell_length_b	17.666332
_cell_length_c	15.995350
_cell_angle_alpha	90.004241
_cell_angle_beta	83.318972
_cell_angle_gamma	90.007939
loop_
_atom_site_label
_atom_site_type_symbol
_atom_site_fract_x
_atom_site_fract_y
_atom_site_fract_z
O1	O	0.926415	0.062919	0.104543
O2	O	1.426415	0.562919	0.604543
O3	O	0.723140	0.062926	0.118613
O4	O	1.223140	0.562926	0.618613
O5	O	0.830334	0.062922	-0.010330
O6	O	1.330334	0.562922	0.489670
O7	O	0.819221	0.062924	0.233486
O8	O	1.319221	0.562924	0.733486
O9	O	0.830315	-0.062975	-0.010337
O10	O	1.330315	0.437025	0.489663
O11	O	0.723121	-0.062971	0.118606
O12	O	1.223121	0.437029	0.618606
O13	O	0.926396	-0.062977	0.104536
O14	O	1.426396	0.437023	0.604536
Cu15	Cu	0.824757	-0.074469	0.111570
Cu16	Cu	1.324757	0.425531	0.611570
Cu17	Cu	0.824779	0.074418	0.111578
Cu18	Cu	1.324779	0.574418	0.611578
O19	O	0.819202	-0.062973	0.233479
O20	O	1.319202	0.437027	0.733479
C21	C	0.697118	-0.000021	0.118154
C22	C	1.197118	0.499979	0.618154
C23	C	0.619610	-0.000019	0.116785
C24	C	1.119610	0.499981	0.616785
C25	C	0.066340	0.068599	0.107021
C26	C	0.566340	0.568599	0.607021
C27	C	0.139168	0.068602	0.108302
C28	C	0.639168	0.568602	0.608302
C29	C	0.175576	-0.000024	0.108942
C30	C	0.675576	0.499976	0.608942
C31	C	0.139153	-0.068658	0.108281
C32	C	0.639153	0.431342	0.608281
C33	C	0.066328	-0.068659	0.106991
C34	C	0.566328	0.431341	0.606991
N35	N	0.284715	-0.051105	0.158610
N36	N	0.784715	0.448895	0.658610
N37	N	0.353896	-0.051099	0.159836
N38	N	0.853896	0.448901	0.659836
C39	C	0.394995	-0.000025	0.112825
C40	C	0.894995	0.499975	0.612825
N41	N	0.364298	0.051055	0.064552
N42	N	0.864298	0.551055	0.564552
N43	N	0.295111	0.051052	0.063329
N44	N	0.795111	0.551052	0.563329
C45	C	0.254543	-0.000030	0.110340
C46	C	0.754543	0.499970	0.610340
C47	C	0.510377	0.068608	0.114870
C48	C	1.010377	0.568608	0.614870
C49	C	0.583207	0.068608	0.116146
C50	C	1.083207	0.568608	0.616146
C51	C	0.583190	-0.068654	0.116133
C52	C	1.083190	0.431346	0.616133
C53	C	0.510363	-0.068652	0.114849
C54	C	1.010363	0.431348	0.614849
C55	C	0.473960	-0.000019	0.114222
C56	C	0.973960	0.499981	0.614222
N57	N	0.824746	-0.179189	0.111564
N58	N	1.324746	0.320811	0.611564
C59	C	0.872227	-0.218800	0.054496
C60	C	1.372227	0.281200	0.554496
C61	C	0.872231	-0.298048	0.054492
C62	C	1.372231	0.201952	0.554492
C63	C	0.824761	-0.337681	0.111571
C64	C	1.324761	0.162319	0.611571
C65	C	0.777271	-0.298060	0.168643
C66	C	1.277271	0.201940	0.668643
C67	C	0.777264	-0.218814	0.168640
C68	C	1.277264	0.281186	0.668640
N69	N	0.815874	-0.462099	0.185691
N70	N	1.315874	0.037901	0.685691
N71	N	0.815885	-0.537379	0.185692
N72	N	1.315885	-0.037379	0.685692
C73	C	0.824779	-0.576445	0.111582
C74	C	1.324779	-0.076445	0.611582
N75	N	0.833676	-0.537386	0.037470
N76	N	1.333676	-0.037386	0.537470
N77	N	0.833669	-0.462099	0.037470
N78	N	1.333669	0.037901	0.537470
C79	C	0.824763	-0.423610	0.111580
C80	C	1.324763	0.076390	0.611580
C81	C	0.872267	-0.701986	0.054505
C82	C	1.372267	-0.201986	0.554505
C83	C	0.872267	-0.781235	0.054500
C84	C	1.372267	-0.281235	0.554500
C85	C	0.777310	-0.781245	0.168658
C86	C	1.277310	-0.281245	0.668658
C87	C	0.777307	-0.701998	0.168656
C88	C	1.277307	-0.201998	0.668656
C89	C	0.824790	-0.662373	0.111580
C90	C	1.324790	-0.162373	0.611580
C91	C	0.952418	-0.000028	0.104995
C92	C	1.452418	0.499972	0.604995
C93	C	1.029926	-0.000026	0.106364
C94	C	1.529926	0.499974	0.606364
C95	C	0.829865	-0.000025	-0.041527
C96	C	1.329865	0.499975	0.458473
C97	C	0.828488	-0.000021	-0.134472
C98	C	1.328488	0.499979	0.365528
N99	N	0.824795	0.179138	0.111578
N100	N	1.324795	0.679138	0.611578
C101	C	0.823541	-0.000023	-0.472201
C102	C	1.323541	0.499977	0.027799
C103	C	0.747199	0.000262	-0.424488
C104	C	1.247199	0.500262	0.075512
C105	C	0.748577	-0.000022	-0.327803
C106	C	1.248577	0.499978	0.172197
C107	C	0.825995	-0.000022	-0.304650
C108	C	1.325995	0.499978	0.195350
C109	C	0.863638	-0.071915	-0.345869
C110	C	1.363638	0.428085	0.154131
C111	C	0.861721	-0.071975	-0.442497
C112	C	1.361721	0.428025	0.057503
C113	C	0.863319	0.071193	-0.442854
C114	C	1.363319	0.571193	0.057146
C115	C	0.863301	0.072143	-0.345908
C116	C	1.363301	0.572143	0.154092
C117	C	0.827385	-0.000023	-0.209957
C118	C	1.327385	0.499977	0.290043
C119	C	0.822153	-0.000027	-0.566894
C120	C	1.322153	0.499973	-0.066894
C121	C	0.819671	-0.000025	0.264675
C122	C	1.319671	0.499975	0.764675
C123	C	0.821048	-0.000024	0.357621
C124	C	1.321048	0.499976	0.857621
H125	H	0.612855	0.124493	0.116674
H126	H	1.112855	0.624493	0.616674
Cl127	Cl	0.628955	-0.154928	0.116925
Cl128	Cl	1.128955	0.345072	0.616925
H129	H	0.168822	0.124487	0.108841
H130	H	0.668822	0.624487	0.608841
Cl131	Cl	0.184923	-0.154931	0.109082
Cl132	Cl	0.684923	0.345069	0.609082
Cl133	Cl	0.464580	-0.154929	0.114037
Cl134	Cl	0.964580	0.345071	0.614037
Cl135	Cl	0.020547	-0.154938	0.106169
Cl136	Cl	0.520547	0.345062	0.606169
Cl137	Cl	0.700097	0.079861	-0.452921
Cl138	Cl	1.200097	0.579861	0.047079
H139	H	0.910889	-0.186540	0.008020
H140	H	1.410889	0.313460	0.508020
Cl141	Cl	0.464612	0.154887	0.114075
Cl142	Cl	0.964612	0.654887	0.614075
Cl143	Cl	0.951452	-0.076047	-0.324383
Cl144	Cl	1.451452	0.423953	0.175617
Cl145	Cl	0.948252	-0.077021	-0.492606
Cl146	Cl	1.448252	0.422979	0.007394
Cl147	Cl	0.931928	-0.347854	-0.017257
Cl148	Cl	1.431928	0.152146	0.482743
Cl149	Cl	0.717591	-0.347882	0.240396
Cl150	Cl	1.217591	0.152118	0.740396
H151	H	0.738598	-0.186561	0.215113
H152	H	1.238598	0.313439	0.715113
H153	H	0.738646	-0.669744	0.215130
H154	H	1.238646	-0.169744	0.715130
Cl155	Cl	0.823249	-0.154518	-0.301912
Cl156	Cl	1.323249	0.345482	0.198088
Cl157	Cl	0.950467	0.078852	-0.322506
Cl158	Cl	1.450467	0.578852	0.177494
Cl159	Cl	0.931956	-0.652170	-0.017251
Cl160	Cl	1.431956	-0.152170	0.482749
H161	H	0.835779	0.125328	-0.318556
H162	H	1.335779	0.625328	0.181444
Cl163	Cl	0.931958	-0.831036	-0.017254
Cl164	Cl	1.431958	-0.331036	0.482746
Cl165	Cl	0.717627	-0.831064	0.240408
Cl166	Cl	1.217627	-0.331064	0.740408
H167	H	0.718986	0.051514	-0.299270
H168	H	1.218986	0.551514	0.200730
Cl169	Cl	0.700155	-0.078656	-0.454929
Cl170	Cl	1.200155	0.421344	0.045071
Cl171	Cl	0.950220	0.071943	-0.492209
Cl172	Cl	1.450220	0.571943	0.007791
H173	H	0.718771	-0.051644	-0.299832
H174	H	1.218771	0.448356	0.200168
H175	H	0.834255	-0.125716	-0.460701
H176	H	1.334255	0.374284	0.039299
H177	H	0.838367	0.125684	-0.463299
H178	H	1.338367	0.625684	0.036701
H179	H	0.036706	0.124486	0.106507
H180	H	0.536706	0.624486	0.606507
