data_functionalizedCrystal
_audit_creation_method	'MofGen! by Chris Wilmer'
_symmetry_space_group_name_H-M	'P1'
_symmetry_Int_Tables_number	1
_symmetry_cell_setting	triclinic
loop_
_symmetry_equiv_pos_as_xyz
  x,y,z
_cell_length_a	17.766277
_cell_length_b	10.654550
_cell_length_c	10.654550
_cell_angle_alpha	84.484931
_cell_angle_beta	89.993836
_cell_angle_gamma	89.993898
loop_
_atom_site_label
_atom_site_type_symbol
_atom_site_fract_x
_atom_site_fract_y
_atom_site_fract_z
O1	O	0.062538	-1.667850	-0.176401
O2	O	0.562538	-1.167850	0.323599
O3	O	0.062552	-1.302371	-0.193207
O4	O	0.562552	-0.802371	0.306793
O5	O	0.062540	-1.493514	-0.002065
O6	O	0.562540	-0.993514	0.497935
O7	O	0.062550	-1.476708	-0.367543
O8	O	0.562550	-0.976708	0.132457
O9	O	-0.062649	-1.493480	-0.002055
O10	O	0.437351	-0.993480	0.497945
O11	O	-0.062637	-1.302337	-0.193197
O12	O	0.437363	-0.802337	0.306803
O13	O	-0.062651	-1.667816	-0.176391
O14	O	0.437349	-1.167816	0.323609
Cu15	Cu	-0.074074	-1.485074	-0.184793
Cu16	Cu	0.425926	-0.985074	0.315207
Cu17	Cu	0.073975	-1.485114	-0.184805
Cu18	Cu	0.573975	-0.985114	0.315195
O19	O	-0.062639	-1.476674	-0.367533
O20	O	0.437361	-0.976674	0.132467
C21	C	-0.000041	-1.255556	-0.191968
C22	C	0.499959	-0.755556	0.308032
C23	C	-0.000036	-1.116113	-0.188276
C24	C	0.499964	-0.616113	0.311724
N25	N	-0.178205	-1.485054	-0.184784
N26	N	0.321795	-0.985054	0.315216
C27	C	-0.000057	-1.714631	-0.177630
C28	C	0.499943	-1.214631	0.322370
C29	C	-0.000057	-1.854074	-0.181322
C30	C	0.499943	-1.354074	0.318678
C31	C	-0.217597	-1.569720	-0.100188
C32	C	0.282403	-1.069720	0.399812
C33	C	-0.296399	-1.569727	-0.100182
C34	C	0.203601	-1.069727	0.399818
C35	C	-0.335805	-1.485081	-0.184794
C36	C	0.164195	-0.985081	0.315206
C37	C	-0.296404	-1.400399	-0.269396
C38	C	0.203596	-0.900399	0.230604
C39	C	-0.217603	-1.400386	-0.269391
C40	C	0.282397	-0.900386	0.230609
C41	C	-0.460640	-1.469622	-0.299032
C42	C	0.039360	-0.969622	0.200968
C43	C	-0.539439	-1.469644	-0.299039
C44	C	-0.039439	-0.969644	0.200961
C45	C	-0.578852	-1.485115	-0.184810
C46	C	-0.078852	-0.985115	0.315190
C47	C	-0.539456	-1.500590	-0.070569
C48	C	-0.039456	-1.000590	0.429431
C49	C	-0.460656	-1.500577	-0.070563
C50	C	0.039344	-1.000577	0.429437
C51	C	-0.421251	-1.485085	-0.184809
C52	C	0.078749	-0.985085	0.315191
C53	C	-0.703690	-1.569793	-0.100201
C54	C	-0.203690	-1.069793	0.399799
C55	C	-0.782493	-1.569791	-0.100193
C56	C	-0.282493	-1.069791	0.399807
C57	C	-0.782496	-1.400469	-0.269418
C58	C	-0.282496	-0.900469	0.230582
C59	C	-0.703695	-1.400465	-0.269414
C60	C	-0.203695	-0.900465	0.230586
C61	C	-0.664296	-1.485133	-0.184807
C62	C	-0.164296	-0.985133	0.315193
N63	N	0.178106	-1.485143	-0.184804
N64	N	0.678106	-0.985143	0.315196
C65	C	-0.000054	-1.492263	0.044738
C66	C	0.499946	-0.992263	0.544738
C67	C	-0.000053	-1.488571	0.184181
C68	C	0.499947	-0.988571	0.684181
C69	C	-0.000035	-1.036628	-0.300818
C70	C	0.499965	-0.536628	0.199182
C71	C	-0.000048	-0.905607	-0.297341
C72	C	0.499952	-0.405607	0.202659
C73	C	-0.000060	-0.933570	-0.068772
C74	C	0.499940	-0.433570	0.431228
C75	C	-0.000052	-1.064588	-0.072250
C76	C	0.499948	-0.564588	0.427750
C77	C	-0.000043	-1.477925	-0.414336
C78	C	0.499957	-0.977925	0.085664
C79	C	-0.000040	-1.481616	-0.553779
C80	C	0.499960	-0.981616	-0.053779
C81	C	-0.000057	-1.601112	0.263667
C82	C	0.499943	-1.101112	0.763667
C83	C	-0.000048	-1.597636	0.394688
C84	C	0.499952	-1.097636	0.894688
C85	C	-0.000033	-1.369066	0.366725
C86	C	0.499967	-0.869066	0.866725
C87	C	-0.000037	-1.372544	0.235706
C88	C	0.499963	-0.872544	0.735706
H89	H	-0.185521	-1.638659	-0.031293
H90	H	0.314479	-1.138659	0.468707
H91	H	-0.000049	-0.840894	-0.388984
H92	H	0.499951	-0.340894	0.111016
H93	H	-0.000068	-1.695588	0.221720
H94	H	0.499932	-1.195588	0.721720
F95	F	-0.338330	-1.659845	-0.010140
F96	F	0.161670	-1.159845	0.489860
F97	F	-0.000028	-1.252755	0.151106
F98	F	0.499972	-0.752755	0.651106
F99	F	-0.661767	-1.310357	-0.359458
F100	F	-0.161767	-0.810357	0.140542
H101	H	-0.428583	-1.513174	0.022455
H102	H	0.071417	-1.013174	0.522455
F103	F	-0.000050	-1.717418	0.479278
F104	F	0.499950	-1.217418	0.979278
F105	F	-0.418701	-1.453246	-0.420623
F106	F	0.081299	-0.953246	0.079377
F107	F	-0.581359	-1.453182	-0.420623
F108	F	-0.081359	-0.953182	0.079377
F109	F	-0.000020	-1.091460	-0.424303
F110	F	0.499980	-0.591460	0.075697
F111	F	-0.000017	-1.245589	0.421573
F112	F	0.499983	-0.745589	0.921573
F113	F	-0.661758	-1.659899	-0.010149
F114	F	-0.161758	-1.159899	0.489851
H115	H	-0.814567	-1.638733	-0.031299
H116	H	-0.314567	-1.138733	0.468701
F117	F	-0.824432	-1.310374	-0.359460
F118	F	-0.324432	-0.810374	0.140540
F119	F	-0.338343	-1.310308	-0.359442
F120	F	0.161657	-0.810308	0.140558
F121	F	-0.581396	-1.517065	0.051012
F122	F	-0.081396	-1.017065	0.551012
H123	H	-0.185530	-1.331439	-0.338280
H124	H	0.314470	-0.831439	0.161720
F125	F	-0.000074	-0.878722	0.054705
F126	F	0.499926	-0.378722	0.554705
H127	H	-0.000055	-1.129309	0.019401
H128	H	0.499945	-0.629309	0.519401
