data_functionalizedCrystal
_audit_creation_method	'MofGen! by Chris Wilmer'
_symmetry_space_group_name_H-M	'P1'
_symmetry_Int_Tables_number	1
_symmetry_cell_setting	triclinic
loop_
_symmetry_equiv_pos_as_xyz
  x,y,z
_cell_length_a	16.109301
_cell_length_b	16.109295
_cell_length_c	15.186229
_cell_angle_alpha	90.000428
_cell_angle_beta	89.994833
_cell_angle_gamma	96.539666
loop_
_atom_site_label
_atom_site_type_symbol
_atom_site_fract_x
_atom_site_fract_y
_atom_site_fract_z
O1	O	0.106844	-1.103134	-0.073171
O2	O	0.440177	-0.769800	0.260162
O3	O	0.773510	-0.436467	0.593495
O4	O	0.120148	-0.861071	-0.073187
O5	O	0.453481	-0.527738	0.260147
O6	O	0.786815	-0.194404	0.593480
O7	O	-0.007535	-0.988752	-0.073170
O8	O	0.325798	-0.655419	0.260164
O9	O	0.659131	-0.322085	0.593497
O10	O	0.234527	-0.975453	-0.073188
O11	O	0.567860	-0.642119	0.260145
O12	O	0.901194	-0.308786	0.593478
O13	O	-0.007537	-0.988743	0.073288
O14	O	0.325796	-0.655410	0.406621
O15	O	0.659130	-0.322077	0.739954
O16	O	0.120146	-0.861062	0.073271
O17	O	0.453480	-0.527729	0.406604
O18	O	0.786813	-0.194396	0.739937
O19	O	0.106842	-1.103125	0.073286
O20	O	0.440175	-0.769792	0.406619
O21	O	0.773509	-0.436458	0.739953
Zn22	Zn	0.113494	-0.982092	0.096531
Zn23	Zn	0.446827	-0.648759	0.429865
Zn24	Zn	0.780160	-0.315426	0.763198
Zn25	Zn	0.113496	-0.982104	-0.096432
Zn26	Zn	0.446830	-0.648770	0.236901
Zn27	Zn	0.780163	-0.315437	0.570234
O28	O	0.234525	-0.975444	0.073269
O29	O	0.567859	-0.642111	0.406602
O30	O	0.901192	-0.308777	0.739935
C31	C	0.119609	-0.830092	0.000040
C32	C	0.452942	-0.496758	0.333373
C33	C	0.786276	-0.163425	0.666707
C34	C	0.117996	-0.737796	0.000035
C35	C	0.451329	-0.404463	0.333368
C36	C	0.784662	-0.071129	0.666701
C37	C	0.190008	-0.515523	0.000038
C38	C	0.523341	-0.182190	0.333372
C39	C	0.856675	0.151143	0.666705
C40	C	0.188486	-0.428803	0.000044
C41	C	0.521819	-0.095469	0.333377
C42	C	0.855152	0.237864	0.666710
C43	C	0.036996	-0.448677	0.000052
C44	C	0.370330	-0.115344	0.333385
C45	C	0.703663	0.217990	0.666719
C46	C	0.038520	-0.535396	0.000053
C47	C	0.371853	-0.202063	0.333386
C48	C	0.705186	0.131271	0.666719
C49	C	0.115028	-0.568816	0.000041
C50	C	0.448361	-0.235483	0.333375
C51	C	0.781695	0.097850	0.666708
C52	C	0.111982	-0.395377	0.000046
C53	C	0.445316	-0.062044	0.333379
C54	C	0.778649	0.271290	0.666713
C55	C	0.110331	-0.301351	0.000052
C56	C	0.443665	0.031983	0.333385
C57	C	0.776998	0.365316	0.666719
C58	C	0.116679	-0.662849	0.000037
C59	C	0.450013	-0.329515	0.333371
C60	C	0.783346	0.003818	0.666704
C61	C	-0.038511	-0.988209	0.000059
C62	C	0.294822	-0.654876	0.333393
C63	C	0.628156	-0.321542	0.666726
C64	C	-0.130806	-0.986594	0.000061
C65	C	0.202527	-0.653260	0.333394
C66	C	0.535860	-0.319927	0.666727
C67	C	-0.353080	-1.058602	0.000051
C68	C	-0.019747	-0.725268	0.333384
C69	C	0.313587	-0.391935	0.666718
C70	C	-0.439800	-1.057078	0.000044
C71	C	-0.106467	-0.723744	0.333377
C72	C	0.226866	-0.390411	0.666710
C73	C	-0.419923	-0.905588	0.000038
C74	C	-0.086590	-0.572255	0.333371
C75	C	0.246744	-0.238922	0.666704
C76	C	-0.333204	-0.907113	0.000039
C77	C	0.000129	-0.573780	0.333372
C78	C	0.333462	-0.240447	0.666705
C79	C	-0.299785	-0.983622	0.000050
C80	C	0.033548	-0.650289	0.333383
C81	C	0.366881	-0.316956	0.666717
C82	C	-0.473225	-0.980573	0.000042
C83	C	-0.139891	-0.647240	0.333375
C84	C	0.193442	-0.313907	0.666708
C85	C	-0.567251	-0.978920	0.000034
C86	C	-0.233917	-0.645587	0.333367
C87	C	0.099416	-0.312254	0.666700
C88	C	-0.205754	-0.985276	0.000056
C89	C	0.127580	-0.651943	0.333390
C90	C	0.460913	-0.318609	0.666723
C91	C	0.265501	-0.975987	0.000038
C92	C	0.598834	-0.642654	0.333371
C93	C	0.932168	-0.309320	0.666705
C94	C	0.357796	-0.977602	0.000031
C95	C	0.691130	-0.644269	0.333364
C96	C	1.024463	-0.310935	0.666698
N97	N	0.113492	-0.982091	0.228224
N98	N	0.446825	-0.648757	0.561557
N99	N	0.780158	-0.315424	0.894891
C100	C	0.107386	-0.134104	0.000056
C101	C	0.440719	0.199230	0.333389
C102	C	0.774053	0.532563	0.666723
C103	C	0.109014	-0.226397	0.000053
C104	C	0.442348	0.106936	0.333386
C105	C	0.775681	0.440270	0.666720
N106	N	0.113492	-0.982112	-0.228125
N107	N	0.446825	-0.648778	0.105208
N108	N	0.780158	-0.315445	0.438542
C109	C	0.056973	-1.038647	0.453955
C110	C	0.390306	-0.705314	0.787288
C111	C	0.723639	-0.371980	1.120621
C112	C	0.056971	-1.038650	0.546144
C113	C	0.390304	-0.705316	0.879478
C114	C	0.723637	-0.371983	1.212811
C115	C	0.170014	-0.925549	0.546138
C116	C	0.503347	-0.592216	0.879472
C117	C	0.836680	-0.258883	1.212805
C118	C	0.170011	-0.925543	0.453950
C119	C	0.503344	-0.592210	0.787284
C120	C	0.836678	-0.258877	1.120617
C121	C	0.113491	-0.982097	0.407861
C122	C	0.446825	-0.648764	0.741194
C123	C	0.780158	-0.315430	1.074527
C124	C	0.113492	-0.982106	0.592238
C125	C	0.446825	-0.648772	0.925572
C126	C	0.780159	-0.315439	1.258905
C127	C	0.113490	-0.982108	0.692195
C128	C	0.446824	-0.648775	1.025528
C129	C	0.780157	-0.315441	1.358861
C130	C	0.113492	-0.982094	0.307898
C131	C	0.446825	-0.648760	0.641232
C132	C	0.780158	-0.315427	0.974565
H133	H	-0.025294	-0.421455	0.000066
H134	H	0.308039	-0.088122	0.333400
H135	H	0.641373	0.245212	0.666733
Br136	Br	0.246717	-0.848803	0.608691
Br137	Br	0.580051	-0.515469	0.942024
Br138	Br	0.913384	-0.182136	1.275358
Br139	Br	-0.307728	-1.162435	0.000067
Br140	Br	0.025605	-0.829101	0.333400
Br141	Br	0.358939	-0.495768	0.666734
Br142	Br	-0.063247	-0.607729	0.000068
Br143	Br	0.270087	-0.274396	0.333402
Br144	Br	0.603420	0.058938	0.666735
H145	H	-0.483190	-1.118133	0.000043
H146	H	-0.149857	-0.784800	0.333376
H147	H	0.183477	-0.451467	0.666710
H148	H	0.216036	-0.879489	0.416418
H149	H	0.549369	-0.546156	0.749751
H150	H	0.882702	-0.212823	1.083085
Br151	Br	0.293840	-0.560877	0.000026
Br152	Br	0.627173	-0.227544	0.333359
Br153	Br	0.960506	0.105789	0.666693
H154	H	0.010950	-1.084695	0.416431
H155	H	0.344283	-0.751362	0.749764
H156	H	0.677617	-0.418029	1.083097
H157	H	0.249542	-0.385414	0.000043
H158	H	0.582875	-0.052081	0.333376
H159	H	0.916209	0.281253	0.666710
Br160	Br	-0.465283	-0.801760	0.000020
Br161	Br	-0.131950	-0.468426	0.333353
Br162	Br	0.201384	-0.135093	0.666686
Br163	Br	-0.260869	-0.805348	0.000025
Br164	Br	0.072464	-0.472015	0.333358
Br165	Br	0.405797	-0.138682	0.666692
Br166	Br	-0.019740	-1.115395	0.608698
Br167	Br	0.313593	-0.782062	0.942032
Br168	Br	0.646926	-0.448729	1.275365
