data_functionalizedCrystal
_audit_creation_method	'MofGen! by Chris Wilmer'
_symmetry_space_group_name_H-M	'P1'
_symmetry_Int_Tables_number	1
_symmetry_cell_setting	triclinic
loop_
_symmetry_equiv_pos_as_xyz
  x,y,z
_cell_length_a	15.944545
_cell_length_b	15.021413
_cell_length_c	19.288865
_cell_angle_alpha	90.001222
_cell_angle_beta	83.316210
_cell_angle_gamma	90.004532
loop_
_atom_site_label
_atom_site_type_symbol
_atom_site_fract_x
_atom_site_fract_y
_atom_site_fract_z
O1	O	1.114187	0.073985	0.089552
O2	O	1.614187	0.573985	0.589552
O3	O	0.869594	0.074001	0.100601
O4	O	1.369594	0.574001	0.600601
O5	O	0.998958	0.073975	-0.006035
O6	O	1.498958	0.573975	0.493965
O7	O	0.984823	0.074011	0.196188
O8	O	1.484823	0.574011	0.696188
O9	O	0.998938	-0.074090	-0.006020
O10	O	1.498938	0.425910	0.493980
O11	O	0.869574	-0.074064	0.100616
O12	O	1.369574	0.425936	0.600616
O13	O	1.114167	-0.074079	0.089567
O14	O	1.614167	0.425921	0.589567
Zn15	Zn	0.991867	-0.097580	0.095094
Zn16	Zn	1.491867	0.402420	0.595094
Zn17	Zn	0.991894	0.097501	0.095074
Zn18	Zn	1.491894	0.597501	0.595074
O19	O	0.984803	-0.074053	0.196204
O20	O	1.484803	0.425947	0.696204
C21	C	0.838292	-0.000030	0.100151
C22	C	1.338292	0.499970	0.600151
C23	C	0.745051	-0.000024	0.098778
C24	C	1.245051	0.499976	0.598778
C25	C	0.474688	-0.000046	0.028578
C26	C	0.974688	0.499954	0.528578
C27	C	0.525129	-0.073046	0.062430
C28	C	1.025129	0.426954	0.562430
C29	C	0.409426	-0.000041	0.093882
C30	C	0.909426	0.499959	0.593882
C31	C	0.525130	0.072934	0.062433
C32	C	1.025130	0.572934	0.562433
C33	C	0.574330	-0.000031	0.096284
C34	C	1.074330	0.499969	0.596284
C35	C	0.458639	-0.073100	0.127717
C36	C	0.958639	0.426900	0.627717
C37	C	0.458636	0.072945	0.127710
C38	C	0.958636	0.572945	0.627710
C39	C	0.509044	-0.000072	0.161611
C40	C	1.009044	0.499928	0.661611
C41	C	0.314429	-0.000047	0.092497
C42	C	0.814429	0.499953	0.592497
C43	C	0.669324	-0.000031	0.097675
C44	C	1.169324	0.499969	0.597675
N45	N	0.991855	-0.230717	0.095108
N46	N	1.491855	0.269283	0.595108
C47	C	0.932028	-0.470389	0.144393
C48	C	1.432028	0.029611	0.644393
C49	C	1.007876	-0.529725	0.157876
C50	C	1.507876	-0.029725	0.657876
C51	C	0.991876	-0.412324	0.095090
C52	C	1.491876	0.087676	0.595090
C53	C	0.916048	-0.529730	0.081622
C54	C	1.416048	-0.029730	0.581622
C55	C	0.991890	-0.587748	0.095075
C56	C	1.491890	-0.087748	0.595075
C57	C	1.067763	-0.470354	0.108605
C58	C	1.567763	0.029646	0.608605
C59	C	0.975885	-0.470354	0.032324
C60	C	1.475885	0.029646	0.532324
C61	C	1.051788	-0.529663	0.045780
C62	C	1.551788	-0.029663	0.545780
C63	C	0.991867	-0.311267	0.095101
C64	C	1.491867	0.188733	0.595101
C65	C	0.991908	-0.688804	0.095064
C66	C	1.491908	-0.188804	0.595064
C67	C	1.145469	-0.000047	0.090018
C68	C	1.645469	0.499953	0.590018
C69	C	1.238710	-0.000046	0.091390
C70	C	1.738710	0.499954	0.591390
C71	C	0.998493	-0.000060	-0.031905
C72	C	1.498493	0.499940	0.468095
C73	C	0.997128	-0.000068	-0.109012
C74	C	1.497128	0.499932	0.390988
N75	N	0.991913	0.230639	0.095055
N76	N	1.491913	0.730639	0.595055
C77	C	1.073033	-0.000077	-0.153510
C78	C	1.573033	0.499923	0.346490
C79	C	1.071750	-0.000063	-0.225961
C80	C	1.571750	0.499937	0.274039
C81	C	0.994558	-0.000057	-0.253910
C82	C	1.494558	0.499943	0.246090
C83	C	0.918643	-0.000043	-0.209402
C84	C	1.418643	0.499957	0.290598
C85	C	0.919928	-0.000048	-0.136954
C86	C	1.419928	0.499952	0.363046
C87	C	0.933869	-0.051917	-0.362351
C88	C	1.433869	0.448083	0.137649
C89	C	0.932587	-0.051917	-0.434799
C90	C	1.432587	0.448083	0.065201
C91	C	0.990592	-0.000037	-0.477366
C92	C	1.490592	0.499963	0.022634
C93	C	1.049893	0.051832	-0.447478
C94	C	1.549893	0.551832	0.052522
C95	C	1.051178	0.051827	-0.375029
C96	C	1.551178	0.551827	0.124971
C97	C	0.993156	-0.000051	-0.332468
C98	C	1.493156	0.499949	0.167532
C99	C	1.065112	-0.000030	-0.600423
C100	C	1.565112	0.499970	-0.100423
C101	C	1.063826	-0.000010	-0.672875
C102	C	1.563826	0.499990	-0.172875
C103	C	0.910717	0.000001	-0.656315
C104	C	1.410717	0.500001	-0.156315
C105	C	0.912005	-0.000010	-0.583865
C106	C	1.412005	0.499990	-0.083865
C107	C	0.989204	-0.000029	-0.555924
C108	C	1.489204	0.499971	-0.055924
C109	C	0.985268	-0.000017	0.222074
C110	C	1.485268	0.499983	0.722074
C111	C	0.986633	-0.000003	0.299181
C112	C	1.486633	0.499997	0.799181
H113	H	0.429714	-0.134882	0.155283
H114	H	0.929714	0.365118	0.655283
H115	H	0.524319	-0.000105	0.217895
H116	H	1.024319	0.499895	0.717895
H117	H	1.099461	0.094062	-0.350698
H118	H	1.599461	0.594062	0.149302
F119	F	1.118020	-0.563473	-0.008728
F120	F	1.618020	-0.063473	0.491272
F121	F	0.872129	-0.107140	-0.317054
F122	F	1.372129	0.392860	0.182946
H123	H	0.855793	-0.000037	-0.232163
H124	H	1.355793	0.499963	0.267837
F125	F	1.111630	0.107052	-0.492776
F126	F	1.611630	0.607052	0.007224
F127	F	0.839136	-0.000038	-0.089594
F128	F	1.339136	0.499962	0.410406
H129	H	0.847865	0.000010	-0.679070
H130	H	1.347865	0.500010	-0.179070
F131	F	0.454509	-0.000150	-0.044932
F132	F	0.954509	0.499850	0.455068
F133	F	1.147273	-0.000055	-0.570684
F134	F	1.647273	0.499945	-0.070684
H135	H	0.429592	0.134672	0.155259
H136	H	0.929592	0.634672	0.655259
F137	F	0.563079	0.153595	0.026362
F138	F	1.063079	0.653595	0.526362
H139	H	0.850194	-0.000007	-0.547634
H140	H	1.350194	0.499993	-0.047634
F141	F	0.865941	-0.436367	0.198932
F142	F	1.365941	0.063633	0.698932
F143	F	1.152542	-0.000071	-0.273327
F144	F	1.652542	0.499929	0.226673
F145	F	1.025573	-0.563813	0.227246
F146	F	1.525573	-0.063813	0.727246
H147	H	0.884298	-0.094147	-0.459127
H148	H	1.384298	0.405853	0.040873
F149	F	1.151608	-0.436411	0.123566
F150	F	1.651608	0.063589	0.623566
F151	F	0.958159	-0.436238	-0.037026
F152	F	1.458159	0.063762	0.462974
F153	F	0.832223	-0.563822	0.066741
F154	F	1.332223	-0.063822	0.566741
F155	F	1.155196	-0.000079	-0.123777
F156	F	1.655196	0.499921	0.376223
H157	H	1.125639	-0.000013	-0.709105
H158	H	1.625639	0.499987	-0.209105
H159	H	0.554158	-0.134771	0.034857
H160	H	1.054158	0.365229	0.534857
