data_functionalizedCrystal
_audit_creation_method	'MofGen! by Chris Wilmer'
_symmetry_space_group_name_H-M	'P1'
_symmetry_Int_Tables_number	1
_symmetry_cell_setting	triclinic
loop_
_symmetry_equiv_pos_as_xyz
  x,y,z
_cell_length_a	6.817900
_cell_length_b	14.125465
_cell_length_c	12.000057
_cell_angle_alpha	92.857879
_cell_angle_beta	119.141479
_cell_angle_gamma	100.398878
loop_
_atom_site_label
_atom_site_type_symbol
_atom_site_fract_x
_atom_site_fract_y
_atom_site_fract_z
V1	V	-4.077726	-0.301589	-0.175760
O2	O	-3.974800	-0.294178	0.009576
O3	O	-4.114942	-0.301133	-0.349590
O4	O	-4.012295	-0.432390	-0.172561
O5	O	-4.078158	-0.162013	-0.168679
V6	V	-4.552467	-0.284700	-0.153651
O7	O	-4.358248	-0.338638	-0.224260
O8	O	-4.722141	-0.247651	-0.105151
O9	O	-4.292044	-0.285156	0.020179
O10	O	-4.772789	-0.292111	-0.338987
O11	O	-4.669432	-0.424277	-0.160732
O12	O	-4.394691	-0.153899	-0.156850
C13	C	-3.981322	-0.296790	-0.391981
C14	C	-4.092923	-0.297289	-0.534086
C15	C	-4.082447	-0.293402	-0.738144
C16	C	-3.967099	-0.292890	-0.591271
C17	C	-3.850384	-0.464220	-0.166162
C18	C	-3.878737	-0.571161	-0.164696
C19	C	-3.930706	-0.766959	-0.162008
C20	C	-4.118854	-0.819330	-0.167400
C21	C	-4.147772	-0.928279	-0.165904
C22	C	-3.901780	-0.658000	-0.163504
C23	C	-4.089010	-0.289497	0.062564
C24	C	-3.956646	-0.289004	0.204667
C25	C	-4.219947	-0.122064	-0.163253
C26	C	-4.170829	-0.015122	-0.164713
H27	H	-3.773989	-0.288740	-0.531503
H28	H	-3.791358	-0.803944	-0.156271
H29	H	-4.275545	-0.297544	-0.797915
F30	F	-4.345328	-0.302705	-0.612199
F31	F	-4.301004	-0.770987	-0.174892
H32	H	-3.763546	-0.284855	-0.735560
