data_functionalizedCrystal
_audit_creation_method	'MofGen! by Chris Wilmer'
_symmetry_space_group_name_H-M	'P1'
_symmetry_Int_Tables_number	1
_symmetry_cell_setting	triclinic
loop_
_symmetry_equiv_pos_as_xyz
  x,y,z
_cell_length_a	12.837943
_cell_length_b	12.837942
_cell_length_c	11.295483
_cell_angle_alpha	85.469583
_cell_angle_beta	85.461227
_cell_angle_gamma	85.171060
loop_
_atom_site_label
_atom_site_type_symbol
_atom_site_fract_x
_atom_site_fract_y
_atom_site_fract_z
O1	O	1.408689	-0.265788	-0.099003
O2	O	1.908689	0.234212	0.400997
O3	O	1.105556	-0.252345	-0.099010
O4	O	1.605556	0.247655	0.400990
O5	O	1.250401	-0.107500	-0.098999
O6	O	1.750401	0.392500	0.401001
O7	O	1.263845	-0.410633	-0.099013
O8	O	1.763845	0.089367	0.400987
O9	O	1.237676	-0.120201	0.099051
O10	O	1.737676	0.379799	0.599051
O11	O	1.092832	-0.265045	0.099040
O12	O	1.592832	0.234955	0.599040
O13	O	1.395965	-0.278489	0.099047
O14	O	1.895965	0.221511	0.599047
Cu15	Cu	1.243237	-0.272927	0.117127
Cu16	Cu	1.743237	0.227073	0.617127
Cu17	Cu	1.258285	-0.257907	-0.117090
Cu18	Cu	1.758285	0.242093	0.382910
O19	O	1.251121	-0.423333	0.099037
O20	O	1.751121	0.076667	0.599037
C21	C	1.060125	-0.254153	0.000014
C22	C	1.560125	0.245847	0.500014
C23	C	0.943710	-0.240609	0.000012
C24	C	1.443710	0.259391	0.500012
C25	C	0.718835	-0.403439	0.000021
C26	C	1.218835	0.096561	0.500021
C27	C	0.609453	-0.390717	0.000020
C28	C	1.109453	0.109283	0.500020
C29	C	0.615561	-0.202446	0.000016
C30	C	1.115561	0.297554	0.500016
C31	C	0.724943	-0.215167	0.000017
C32	C	1.224943	0.284833	0.500017
C33	C	0.776576	-0.315667	0.000018
C34	C	1.276576	0.184333	0.500018
C35	C	0.885961	-0.328387	0.000011
C36	C	1.385961	0.171613	0.500011
C37	C	0.892066	-0.140117	0.000016
C38	C	1.392066	0.359883	0.500016
C39	C	0.782684	-0.127396	0.000015
C40	C	1.282684	0.372604	0.500015
C41	C	1.239497	-0.074781	0.000025
C42	C	1.739497	0.425219	0.500025
C43	C	1.225953	0.041634	0.000023
C44	C	1.725953	0.541634	0.500023
C45	C	1.441396	-0.276680	0.000021
C46	C	1.941396	0.223320	0.500021
C47	C	1.557812	-0.290224	0.000015
C48	C	2.057812	0.209776	0.500015
C49	C	1.262024	-0.456052	0.000010
C50	C	1.762024	0.043948	0.500010
C51	C	1.275569	-0.572467	0.000004
C52	C	1.775569	-0.072467	0.500004
N53	N	1.232661	-0.283491	0.281863
N54	N	1.732661	0.216509	0.781863
C55	C	1.388784	0.266509	0.000002
C56	C	1.888784	0.766509	0.500002
C57	C	1.376062	0.375892	-0.000000
C58	C	1.876062	0.875892	0.500000
C59	C	1.187791	0.369784	0.000008
C60	C	1.687791	0.869784	0.500008
C61	C	1.200512	0.260402	0.000010
C62	C	1.700512	0.760402	0.500010
C63	C	1.301011	0.208768	0.000009
C64	C	1.801011	0.708768	0.500009
C65	C	1.313731	0.099383	0.000020
C66	C	1.813731	0.599383	0.500020
C67	C	1.125461	0.093278	0.000019
C68	C	1.625461	0.593278	0.500019
C69	C	1.112740	0.202660	0.000017
C70	C	1.612740	0.702660	0.500017
N71	N	1.268868	-0.247335	-0.281825
N72	N	1.768868	0.252665	0.218175
C73	C	1.344996	-0.171231	0.531161
C74	C	1.844996	0.328769	1.031161
C75	C	1.337012	-0.179223	0.655824
C76	C	1.837012	0.320777	1.155824
C77	C	1.208702	-0.307459	0.655854
C78	C	1.708702	0.192541	1.155854
C79	C	1.216687	-0.299467	0.531191
C80	C	1.716687	0.200533	1.031191
C81	C	1.284837	-0.231353	0.468849
C82	C	1.784837	0.268647	0.968849
C83	C	1.292826	-0.223367	0.344183
C84	C	1.792826	0.276633	0.844183
C85	C	1.164512	-0.351597	0.344216
C86	C	1.664512	0.148403	0.844216
C87	C	1.156528	-0.359589	0.468879
C88	C	1.656528	0.140411	0.968879
H89	H	0.928000	-0.410219	0.000014
H90	H	1.428000	0.089781	0.500014
H91	H	0.573495	-0.120630	0.000114
H92	H	1.073495	0.379370	0.500114
Br93	Br	0.788916	-0.539825	0.000000
Br94	Br	1.288916	-0.039825	0.500000
Br95	Br	1.495187	0.454254	-0.000018
Br96	Br	1.995187	0.954254	0.499982
Br97	Br	1.418654	-0.097621	0.740388
Br98	Br	1.918654	0.402379	1.240388
H99	H	1.105969	0.411844	-0.000004
H100	H	1.605969	0.911844	0.499996
Br101	Br	1.437498	-0.078808	0.446550
Br102	Br	1.937498	0.421192	0.946550
H103	H	0.562444	-0.462191	0.000025
H104	H	1.062444	0.037809	0.500025
Br105	Br	1.116202	-0.399880	0.740473
Br106	Br	1.616202	0.100120	1.240473
Br107	Br	0.712600	0.008989	0.000020
Br108	Br	1.212600	0.508989	0.500020
Br109	Br	1.525168	0.196427	0.000037
Br110	Br	2.025168	0.696427	0.500037
Br111	Br	0.970436	-0.020989	-0.000013
Br112	Br	1.470436	0.479011	0.499987
H113	H	1.395563	0.057344	0.000023
H114	H	1.895563	0.557344	0.500023
H115	H	1.101038	-0.415044	0.519653
H116	H	1.601038	0.084956	1.019653
H117	H	1.030916	0.244716	0.000013
H118	H	1.530916	0.744716	0.500013
Br119	Br	1.385320	-0.130932	0.259577
Br120	Br	1.885320	0.369068	0.759577
H121	H	1.053990	0.046252	0.000034
H122	H	1.553990	0.546252	0.500034
H123	H	1.115530	-0.400555	0.293468
H124	H	1.615530	0.099445	0.793468
