data_functionalizedCrystal
_audit_creation_method	'MofGen! by Chris Wilmer'
_symmetry_space_group_name_H-M	'P1'
_symmetry_Int_Tables_number	1
_symmetry_cell_setting	triclinic
loop_
_symmetry_equiv_pos_as_xyz
  x,y,z
_cell_length_a	12.827893
_cell_length_b	12.827892
_cell_length_c	12.827885
_cell_angle_alpha	89.968088
_cell_angle_beta	90.019272
_cell_angle_gamma	89.974721
loop_
_atom_site_label
_atom_site_type_symbol
_atom_site_fract_x
_atom_site_fract_y
_atom_site_fract_z
Zn1	Zn	1.597599	0.415978	0.590833
Zn2	Zn	1.930932	0.749311	0.924167
Zn3	Zn	2.264266	1.082645	1.257500
Zn4	Zn	1.597463	0.590755	0.416087
Zn5	Zn	1.930797	0.924089	0.749420
Zn6	Zn	2.264130	1.257422	1.082754
Zn7	Zn	1.422840	0.416029	0.416107
Zn8	Zn	1.756174	0.749363	0.749440
Zn9	Zn	2.089507	1.082696	1.082774
Zn10	Zn	1.422796	0.590678	0.590787
Zn11	Zn	1.756129	0.924012	0.924120
Zn12	Zn	2.089463	1.257345	1.257454
O13	O	1.510175	0.503360	0.503454
O14	O	1.843508	0.836694	0.836787
O15	O	2.176841	1.170027	1.170120
O16	O	1.743817	0.439173	0.567664
O17	O	2.077150	0.772507	0.900997
O18	O	2.410484	1.105840	1.234330
O19	O	1.574261	0.567631	0.269854
O20	O	1.907594	0.900965	0.603187
O21	O	2.240928	1.234298	0.936520
O22	O	1.446098	0.269787	0.439312
O23	O	1.779431	0.603120	0.772646
O24	O	2.112764	0.936453	1.105979
O25	O	1.743717	0.567582	0.439279
O26	O	2.077051	0.900915	0.772612
O27	O	2.410384	1.234248	1.105945
O28	O	1.574492	0.269749	0.567683
O29	O	1.907826	0.603082	0.901016
O30	O	2.241159	0.936415	1.234350
O31	O	1.445966	0.439261	0.269868
O32	O	1.779300	0.772594	0.603201
O33	O	2.112633	1.105928	0.936535
O34	O	1.276598	0.439186	0.439268
O35	O	1.609932	0.772520	0.772601
O36	O	1.943265	1.105853	1.105934
O37	O	1.446022	0.567450	0.737029
O38	O	1.779355	0.900783	1.070363
O39	O	2.112689	1.234117	1.403696
O40	O	1.276566	0.567500	0.567604
O41	O	1.609899	0.900833	0.900938
O42	O	1.943233	1.234167	1.234271
O43	O	1.574449	0.439099	0.737063
O44	O	1.907782	0.772432	1.070397
O45	O	2.241116	1.105765	1.403730
O46	O	1.574218	0.736981	0.439234
O47	O	1.907551	1.070315	0.772567
O48	O	2.240885	1.403648	1.105900
O49	O	1.445891	0.736924	0.567585
O50	O	1.779224	1.070258	0.900918
O51	O	2.112557	1.403591	1.234252
C52	C	1.238665	0.503341	0.503434
C53	C	1.571998	0.836674	0.836767
C54	C	1.905331	1.170008	1.170100
C55	C	1.122512	0.503358	0.503450
C56	C	1.455845	0.836691	0.836783
C57	C	1.789178	1.170025	1.170117
C58	C	1.070776	0.439930	0.567078
C59	C	1.404109	0.773263	0.900411
C60	C	1.737443	1.106597	1.233745
C61	C	0.950726	0.439946	0.567096
C62	C	1.284059	0.773280	0.900430
C63	C	1.617392	1.106613	1.233763
C64	C	1.510063	0.774870	0.503425
C65	C	1.843397	1.108204	0.836758
C66	C	2.176730	1.441537	1.170092
C67	C	1.510111	0.891023	0.503448
C68	C	1.843445	1.224357	0.836781
C69	C	2.176778	1.557690	1.170114
C70	C	1.573608	0.942706	0.567025
C71	C	1.906941	1.276039	0.900358
C72	C	2.240274	1.609373	1.233692
C73	C	1.573659	1.062756	0.567050
C74	C	1.906992	1.396090	0.900383
C75	C	2.240325	1.729423	1.233717
C76	C	1.782745	0.503380	0.503474
C77	C	2.116078	0.836714	0.836807
C78	C	2.449411	1.170047	1.170141
C79	C	1.898898	0.503389	0.503483
C80	C	2.232231	0.836722	0.836816
C81	C	2.565565	1.170056	1.170150
C82	C	1.510246	0.503260	0.776024
C83	C	1.843579	0.836593	1.109357
C84	C	2.176912	1.169927	1.442690
C85	C	1.510276	0.503217	0.892177
C86	C	1.843609	0.836550	1.225510
C87	C	2.176943	1.169884	1.558844
C88	C	1.510272	1.230790	0.503497
C89	C	1.843606	1.564123	0.836830
C90	C	2.176939	1.897457	1.170163
C91	C	1.510205	1.114637	0.503493
C92	C	1.843538	1.447970	0.836826
C93	C	2.176872	1.781304	1.170160
C94	C	1.510164	0.503385	0.231944
C95	C	1.843497	0.836718	0.565277
C96	C	2.176831	1.170051	0.898610
C97	C	1.510336	0.503133	0.115791
C98	C	1.843669	0.836467	0.449124
C99	C	2.177003	1.169800	0.782458
C100	C	1.573833	0.439692	0.943979
C101	C	1.907166	0.773026	1.277312
C102	C	2.240499	1.106359	1.610645
C103	C	1.573866	0.439647	1.064029
C104	C	1.907199	0.772980	1.397362
C105	C	2.240532	1.106313	1.730696
H106	H	0.906234	0.385647	0.621574
H107	H	1.239567	0.718980	0.954907
H108	H	1.572901	1.052313	1.288241
Br109	Br	0.973039	0.593915	0.412689
Br110	Br	1.306373	0.927248	0.746022
Br111	Br	1.639706	1.260581	1.079355
H112	H	1.455844	1.070199	0.449055
H113	H	1.789177	1.403532	0.782388
H114	H	2.122511	1.736865	1.115722
Br115	Br	1.664142	0.868332	0.657736
Br116	Br	1.997475	1.201665	0.991070
Br117	Br	2.330809	1.534999	1.324403
Br118	Br	1.664280	1.136829	0.657769
Br119	Br	1.997613	1.470162	0.991102
Br120	Br	2.330947	1.803495	1.324435
Br121	Br	1.419553	0.965397	0.412760
Br122	Br	1.752886	1.298731	0.746093
Br123	Br	2.086220	1.632064	1.079427
H124	H	1.628282	0.385264	1.108577
H125	H	1.961616	0.718597	1.441910
H126	H	2.294949	1.051931	1.775244
Br127	Br	1.664459	0.349065	0.869774
Br128	Br	1.997792	0.682398	1.203108
Br129	Br	2.331126	1.015731	1.536441
Br130	Br	1.419644	0.593798	1.041556
Br131	Br	1.752977	0.927131	1.374889
Br132	Br	2.086311	1.260464	1.708222
H133	H	1.115360	0.385612	0.621535
H134	H	1.448693	0.718945	0.954868
H135	H	1.782027	1.052278	1.288202
H136	H	1.077928	0.557670	0.448987
H137	H	1.411261	0.891004	0.782320
H138	H	1.744594	1.224337	1.115654
H139	H	1.455881	0.557562	0.936705
H140	H	1.789214	0.890896	1.270038
H141	H	2.122547	1.224229	1.603371
