data_functionalizedCrystal
_audit_creation_method	'MofGen! by Chris Wilmer'
_symmetry_space_group_name_H-M	'P1'
_symmetry_Int_Tables_number	1
_symmetry_cell_setting	triclinic
loop_
_symmetry_equiv_pos_as_xyz
  x,y,z
_cell_length_a	14.971491
_cell_length_b	14.044190
_cell_length_c	13.448316
_cell_angle_alpha	89.988796
_cell_angle_beta	89.991393
_cell_angle_gamma	88.404006
loop_
_atom_site_label
_atom_site_type_symbol
_atom_site_fract_x
_atom_site_fract_y
_atom_site_fract_z
O1	O	1.196681	0.123562	-0.082746
O2	O	1.696681	0.623562	0.417254
O3	O	0.937447	0.138350	-0.082740
O4	O	1.437447	0.638350	0.417260
O5	O	1.063170	-0.007033	-0.082724
O6	O	1.563170	0.492967	0.417276
O7	O	1.070959	0.268945	-0.082763
O8	O	1.570959	0.768945	0.417237
O9	O	1.063152	-0.007042	0.082660
O10	O	1.563152	0.492958	0.582660
O11	O	0.937429	0.138341	0.082643
O12	O	1.437429	0.638341	0.582643
O13	O	1.196663	0.123553	0.082637
O14	O	1.696663	0.623553	0.582637
Cu15	Cu	1.067045	0.130946	0.097741
Cu16	Cu	1.567045	0.630946	0.597741
Cu17	Cu	1.067066	0.130957	-0.097844
Cu18	Cu	1.567066	0.630957	0.402156
O19	O	1.070941	0.268936	0.082621
O20	O	1.570941	0.768936	0.582621
C21	C	0.904061	0.137684	-0.000047
C22	C	1.404061	0.637684	0.499953
C23	C	0.804608	0.135699	-0.000044
C24	C	1.304608	0.635699	0.499956
C25	C	0.376238	0.127140	-0.090217
C26	C	0.876238	0.627140	0.409783
C27	C	0.469685	0.129002	-0.090213
C28	C	0.969685	0.629002	0.409787
C29	C	0.516394	0.129934	-0.000059
C30	C	1.016394	0.629934	0.499941
C31	C	0.469653	0.128995	0.090097
C32	C	0.969653	0.628995	0.590097
C33	C	0.376208	0.127127	0.090093
C34	C	0.876208	0.627127	0.590093
C35	C	0.664422	0.132892	0.090100
C36	C	1.164422	0.632892	0.590100
C37	C	0.757873	0.134763	0.090105
C38	C	1.257873	0.634763	0.590105
C39	C	0.757898	0.134768	-0.090206
C40	C	1.257898	0.634768	0.409794
C41	C	0.664453	0.132899	-0.090210
C42	C	1.164453	0.632899	0.409790
C43	C	0.617718	0.131962	-0.000053
C44	C	1.117718	0.631962	0.499947
C45	C	1.059754	-0.042356	-0.000029
C46	C	1.559754	0.457644	0.499971
C47	C	1.049590	-0.147594	-0.000020
C48	C	1.549590	0.352406	0.499980
C49	C	1.103092	-0.397819	-0.000060
C50	C	1.603092	0.102181	0.499940
C51	C	1.031023	-0.340273	-0.000052
C52	C	1.531023	0.159727	0.499948
C53	C	1.041356	-0.233056	-0.000034
C54	C	1.541356	0.266944	0.499966
C55	C	1.092760	-0.505045	-0.000078
C56	C	1.592760	-0.005045	0.499922
C57	C	1.230049	0.124219	-0.000058
C58	C	1.730049	0.624219	0.499942
C59	C	1.329502	0.126204	-0.000067
C60	C	1.829502	0.626204	0.499933
C61	C	1.074357	0.304259	-0.000076
C62	C	1.574357	0.804259	0.499924
C63	C	1.084521	0.409497	-0.000092
C64	C	1.584521	0.909497	0.499908
N65	N	1.067036	0.130938	0.235306
N66	N	1.567036	0.630938	0.735306
N67	N	1.067081	0.130957	-0.235409
N68	N	1.567081	0.630957	0.264591
C69	C	1.122727	0.066589	0.287353
C70	C	1.622727	0.566589	0.787353
C71	C	1.122733	0.066588	0.391457
C72	C	1.622733	0.566588	0.891457
C73	C	1.067051	0.130942	0.443510
C74	C	1.567051	0.630942	0.943510
C75	C	1.011354	0.195294	0.391455
C76	C	1.511354	0.695294	0.891455
C77	C	1.011345	0.195290	0.287354
C78	C	1.511345	0.695290	0.787354
C79	C	1.011379	0.195301	0.608435
C80	C	1.511379	0.695301	1.108435
C81	C	1.011390	0.195307	0.712544
C82	C	1.511390	0.695307	1.212544
C83	C	1.122768	0.066599	0.712538
C84	C	1.622768	0.566599	1.212538
C85	C	1.122758	0.066594	0.608437
C86	C	1.622758	0.566594	1.108437
C87	C	1.067062	0.130948	0.556389
C88	C	1.567062	0.630948	1.056389
H89	H	0.507733	0.129759	-0.163622
H90	H	1.007733	0.629759	0.336378
C91	C	1.196923	-0.355595	-0.000037
C92	C	1.696923	0.144405	0.499963
N93	N	1.267597	-0.323782	-0.000013
N94	N	1.767597	0.176218	0.499987
C95	C	0.937185	-0.382495	-0.000051
C96	C	1.437185	0.117505	0.499949
N97	N	0.866508	-0.414302	-0.000045
N98	N	1.366508	0.085698	0.499955
H99	H	1.168073	0.014188	0.244978
H100	H	1.668073	0.514188	0.744978
H101	H	1.168080	0.014189	0.433833
H102	H	1.668080	0.514189	0.933833
C103	C	1.184011	-0.004198	0.551180
C104	C	1.684011	0.495802	1.051180
N105	N	1.230144	-0.057523	0.508054
N106	N	1.730144	0.442477	1.008054
H107	H	1.168117	0.014200	0.754921
H108	H	1.668117	0.514200	1.254921
C109	C	0.950132	0.266094	0.769801
C110	C	1.450132	0.766094	1.269801
N111	N	0.903990	0.319410	0.812927
N112	N	1.403990	0.819410	1.312927
C113	C	0.809309	0.135794	-0.189379
C114	C	1.309309	0.635794	0.310621
N115	N	0.848036	0.136570	-0.264074
N116	N	1.348036	0.636570	0.235926
C117	C	0.950088	0.266087	0.230102
C118	C	1.450088	0.766087	0.730102
N119	N	0.903948	0.319414	0.186981
N120	N	1.403948	0.819414	0.686981
H121	H	0.966022	0.247702	0.566061
H122	H	1.466022	0.747702	1.066061
H123	H	0.338213	0.126388	-0.163631
H124	H	0.838213	0.626388	0.336369
C125	C	0.613075	0.131870	-0.189384
C126	C	1.113075	0.631870	0.310616
N127	N	0.574376	0.131089	-0.264084
N128	N	1.074376	0.631089	0.235916
C129	C	0.950095	0.266076	0.448718
C130	C	1.450095	0.766076	0.948718
N131	N	0.903952	0.319389	0.491847
N132	N	1.403952	0.819389	0.991847
H133	H	0.626372	0.132140	0.163516
H134	H	1.126372	0.632140	0.663516
C135	C	0.809253	0.135778	0.189279
C136	C	1.309253	0.635778	0.689279
N137	N	0.847952	0.136540	0.263979
N138	N	1.347952	0.636540	0.763979
H139	H	0.338157	0.126374	0.163502
H140	H	0.838157	0.626374	0.663502
C141	C	0.521035	0.130060	0.189268
C142	C	1.021035	0.630060	0.689268
N143	N	0.559735	0.130882	0.263965
N144	N	1.059735	0.630882	0.763965
