data_functionalizedCrystal
_audit_creation_method	'MofGen! by Chris Wilmer'
_symmetry_space_group_name_H-M	'P1'
_symmetry_Int_Tables_number	1
_symmetry_cell_setting	triclinic
loop_
_symmetry_equiv_pos_as_xyz
  x,y,z
_cell_length_a	19.077105
_cell_length_b	21.295411
_cell_length_c	21.295417
_cell_angle_alpha	89.979403
_cell_angle_beta	87.725910
_cell_angle_gamma	87.678773
loop_
_atom_site_label
_atom_site_type_symbol
_atom_site_fract_x
_atom_site_fract_y
_atom_site_fract_z
Zn1	Zn	1.075994	-0.394530	-0.289414
Zn2	Zn	1.575994	0.105470	0.210586
Zn3	Zn	1.075886	-0.289253	-0.394662
Zn4	Zn	1.575886	0.210747	0.105338
Zn5	Zn	0.958286	-0.285051	-0.285177
Zn6	Zn	1.458286	0.214949	0.214823
Zn7	Zn	0.958253	-0.390263	-0.390411
Zn8	Zn	1.458253	0.109737	0.109589
O9	O	1.017105	-0.339774	-0.339916
O10	O	1.517105	0.160226	0.160084
O11	O	1.174470	-0.384109	-0.306927
O12	O	1.674470	0.115891	0.193073
O13	O	1.060255	-0.200605	-0.380144
O14	O	1.560255	0.299395	0.119856
O15	O	0.973959	-0.299600	-0.197652
O16	O	1.473959	0.200400	0.302348
O17	O	1.174391	-0.306763	-0.384253
O18	O	1.674391	0.193237	0.115747
O19	O	1.060438	-0.380034	-0.200764
O20	O	1.560438	0.119966	0.299236
O21	O	0.973854	-0.197518	-0.299706
O22	O	1.473854	0.302482	0.200294
O23	O	0.859791	-0.295463	-0.295584
O24	O	1.359791	0.204537	0.204416
O25	O	0.973903	-0.478920	-0.377007
O26	O	1.473903	0.021080	0.122993
O27	O	0.859767	-0.372763	-0.372899
O28	O	1.359767	0.127237	0.127101
O29	O	1.060406	-0.482054	-0.302805
O30	O	1.560406	0.017946	0.197195
O31	O	1.060223	-0.302626	-0.482185
O32	O	1.560223	0.197374	0.017815
O33	O	0.973799	-0.376838	-0.479062
O34	O	1.473799	0.123162	0.020938
C35	C	0.834241	-0.333194	-0.333321
C36	C	1.334241	0.166806	0.166679
C37	C	0.756011	-0.330394	-0.330515
C38	C	1.256011	0.169606	0.169485
C39	C	0.719264	-0.369261	-0.369511
C40	C	1.219264	0.130739	0.130489
C41	C	0.645759	-0.366633	-0.366866
C42	C	1.145759	0.133367	0.133134
C43	C	0.609002	-0.325135	-0.325228
C44	C	1.109002	0.174865	0.174772
C45	C	0.645754	-0.286266	-0.286228
C46	C	1.145754	0.213734	0.213772
C47	C	0.719258	-0.288898	-0.288870
C48	C	1.219258	0.211102	0.211130
C49	C	0.389168	-0.312959	-0.313000
C50	C	0.889168	0.187041	0.187000
C51	C	0.315659	-0.310329	-0.310362
C52	C	0.815659	0.189671	0.189638
C53	C	0.315669	-0.390697	-0.391000
C54	C	0.815669	0.109303	0.109000
C55	C	0.389175	-0.393322	-0.393641
C56	C	0.889175	0.106678	0.106359
C57	C	0.425920	-0.354456	-0.354639
C58	C	0.925920	0.145544	0.145361
N59	N	0.533868	-0.322446	-0.322525
N60	N	1.033868	0.177554	0.177475
N61	N	0.501053	-0.357148	-0.357339
N62	N	1.001053	0.142852	0.142661
C63	C	1.017163	-0.503967	-0.339905
C64	C	1.517163	-0.003967	0.160095
C65	C	1.017188	-0.573936	-0.339900
C66	C	1.517188	-0.073936	0.160100
C67	C	1.062228	-0.608435	-0.301261
C68	C	1.562228	-0.108435	0.198739
C69	C	1.062227	-0.674178	-0.301234
C70	C	1.562227	-0.174178	0.198766
C71	C	1.017193	-0.705419	-0.339857
C72	C	1.517193	-0.205419	0.160143
C73	C	0.972144	-0.670911	-0.378498
C74	C	1.472144	-0.170911	0.121502
C75	C	0.972142	-0.605169	-0.378520
C76	C	1.472142	-0.105169	0.121480
N77	N	1.011764	-0.808440	-0.394729
N78	N	1.511764	-0.308440	0.105271
N79	N	1.011771	-0.870892	-0.394707
N80	N	1.511771	-0.370892	0.105293
C81	C	1.017198	-0.903493	-0.339793
C82	C	1.517198	-0.403493	0.160207
N83	N	1.022632	-0.871285	-0.284901
N84	N	1.522632	-0.371285	0.215099
N85	N	1.022629	-0.808827	-0.284924
N86	N	1.522629	-0.308827	0.215076
C87	C	1.017191	-0.776704	-0.339837
C88	C	1.517191	-0.276704	0.160163
C89	C	1.062240	-1.009279	-0.301121
C90	C	1.562240	-0.509279	0.198879
C91	C	1.062234	-1.075022	-0.301093
C92	C	1.562234	-0.575022	0.198907
C93	C	0.972154	-1.071754	-0.378363
C94	C	1.472154	-0.571754	0.121637
C95	C	0.972157	-1.006011	-0.378386
C96	C	1.472157	-0.506011	0.121614
C97	C	1.017203	-0.974778	-0.339766
C98	C	1.517203	-0.474778	0.160234
C99	C	1.200682	-0.346380	-0.346537
C100	C	1.700682	0.153620	0.153463
C101	C	1.278912	-0.349196	-0.349358
C102	C	1.778912	0.150804	0.150642
C103	C	1.017015	-0.339739	-0.503464
C104	C	1.517015	0.160261	-0.003464
C105	C	1.017041	-0.339748	-0.573433
C106	C	1.517041	0.160252	-0.073433
C107	C	1.017087	-0.176222	-0.339883
C108	C	1.517087	0.323778	0.160117
C109	C	1.017198	-0.106258	-0.339715
C110	C	1.517198	0.393742	0.160285
C111	C	1.062045	-0.381657	-0.607863
C112	C	1.562045	0.118343	-0.107863
C113	C	1.062070	-0.381674	-0.673606
C114	C	1.562070	0.118326	-0.173606
C115	C	1.017098	-0.339769	-0.704918
C116	C	1.517098	0.160231	-0.204918
C117	C	0.972085	-0.297857	-0.670480
C118	C	1.472085	0.202143	-0.170480
C119	C	0.972057	-0.297846	-0.604738
C120	C	1.472057	0.202154	-0.104738
N121	N	1.011777	-0.284487	-0.807979
N122	N	1.511777	0.215513	-0.307979
N123	N	1.011808	-0.284500	-0.870431
N124	N	1.511808	0.215500	-0.370431
C125	C	1.017180	-0.339801	-0.902995
C126	C	1.517180	0.160199	-0.402995
N127	N	1.022534	-0.395091	-0.870748
N128	N	1.522534	0.104909	-0.370748
N129	N	1.022506	-0.395078	-0.808290
N130	N	1.522506	0.104922	-0.308290
C131	C	1.017124	-0.339777	-0.776204
C132	C	1.517124	0.160223	-0.276204
C133	C	1.062214	-0.381732	-1.008711
C134	C	1.562214	0.118268	-0.508711
C135	C	1.062234	-0.381749	-1.074456
C136	C	1.562234	0.118251	-0.574456
C137	C	0.972253	-0.297926	-1.071329
C138	C	1.472253	0.202074	-0.571329
C139	C	0.972229	-0.297915	-1.005586
C140	C	1.472229	0.202085	-0.505586
C141	C	1.017213	-0.339817	-0.974281
C142	C	1.517213	0.160183	-0.474281
C143	C	1.017214	-0.339824	-0.175729
C144	C	1.517214	0.160176	0.324271
C145	C	1.017260	-0.339845	-0.105763
C146	C	1.517260	0.160155	0.394237
H147	H	0.285733	-0.276539	-0.276448
H148	H	0.785733	0.223461	0.223552
H149	H	0.749176	-0.257251	-0.257112
H150	H	1.249176	0.242749	0.242888
H151	H	0.419098	-0.427113	-0.427549
H152	H	0.919098	0.072887	0.072451
H153	H	0.419077	-0.281306	-0.281246
H154	H	0.919077	0.218694	0.218754
H155	H	0.285743	-0.422340	-0.422753
H156	H	0.785743	0.077660	0.077247
H157	H	1.098881	-0.415880	-1.102487
H158	H	1.598881	0.084120	-0.602487
H159	H	1.098908	-0.583009	-0.269813
H160	H	1.598908	-0.083009	0.230187
H161	H	0.935475	-0.696351	-0.409943
H162	H	1.435475	-0.196351	0.090057
H163	H	1.098903	-0.702273	-0.269766
H164	H	1.598903	-0.202273	0.230234
H165	H	0.615820	-0.252480	-0.252322
H166	H	1.115820	0.247520	0.247678
H167	H	0.615843	-0.398282	-0.398622
H168	H	1.115843	0.101718	0.101378
H169	H	1.098712	-0.415809	-0.701644
H170	H	1.598712	0.084191	-0.201644
H171	H	0.935461	-0.577080	-0.409983
H172	H	1.435461	-0.077080	0.090017
H173	H	1.098915	-0.983847	-0.269671
H174	H	1.598915	-0.483847	0.230329
H175	H	1.098910	-1.103111	-0.269625
H176	H	1.598910	-0.603111	0.230375
H177	H	0.935467	-0.263739	-0.695978
H178	H	1.435467	0.236261	-0.195978
H179	H	0.935408	-0.263717	-0.576705
H180	H	1.435408	0.236283	-0.076705
H181	H	0.935585	-0.263785	-0.977551
H182	H	1.435585	0.236215	-0.477551
H183	H	0.935631	-0.263811	-1.096822
H184	H	1.435631	0.236189	-0.596822
H185	H	1.098840	-0.415853	-0.983222
H186	H	1.598840	0.084147	-0.483222
H187	H	0.935480	-1.097189	-0.409804
H188	H	1.435480	-0.597189	0.090196
H189	H	0.935484	-0.977921	-0.409854
H190	H	1.435484	-0.477921	0.090146
H191	H	1.098672	-0.415778	-0.582376
H192	H	1.598672	0.084222	-0.082376
H193	H	0.749187	-0.403052	-0.403420
H194	H	1.249187	0.096948	0.096580
