data_functionalizedCrystal
_audit_creation_method	'MofGen! by Chris Wilmer'
_symmetry_space_group_name_H-M	'P1'
_symmetry_Int_Tables_number	1
_symmetry_cell_setting	triclinic
loop_
_symmetry_equiv_pos_as_xyz
  x,y,z
_cell_length_a	16.625548
_cell_length_b	18.101395
_cell_length_c	16.625539
_cell_angle_alpha	89.974216
_cell_angle_beta	89.982945
_cell_angle_gamma	90.032172
loop_
_atom_site_label
_atom_site_type_symbol
_atom_site_fract_x
_atom_site_fract_y
_atom_site_fract_z
Zn1	Zn	1.232604	-0.294821	-0.455913
Zn2	Zn	1.482604	-0.044821	-0.205913
Zn3	Zn	1.732604	0.205179	0.044087
Zn4	Zn	1.982604	0.455179	0.294087
Zn5	Zn	1.232495	-0.418666	-0.321082
Zn6	Zn	1.482495	-0.168666	-0.071082
Zn7	Zn	1.732495	0.081334	0.178918
Zn8	Zn	1.982495	0.331334	0.428918
Zn9	Zn	1.097774	-0.294845	-0.321094
Zn10	Zn	1.347774	-0.044845	-0.071094
Zn11	Zn	1.597774	0.205155	0.178906
Zn12	Zn	1.847774	0.455155	0.428906
Zn13	Zn	1.097716	-0.418627	-0.455872
Zn14	Zn	1.347716	-0.168627	-0.205872
Zn15	Zn	1.597716	0.081373	0.044128
Zn16	Zn	1.847716	0.331373	0.294128
O17	O	1.165147	-0.356740	-0.388490
O18	O	1.415147	-0.106740	-0.138490
O19	O	1.665147	0.143260	0.111510
O20	O	1.915147	0.393260	0.361510
O21	O	1.345422	-0.311255	-0.438040
O22	O	1.595422	-0.061255	-0.188040
O23	O	1.845422	0.188745	0.061960
O24	O	2.095422	0.438745	0.311960
O25	O	1.214603	-0.402267	-0.208251
O26	O	1.464603	-0.152267	0.041749
O27	O	1.714603	0.097733	0.291749
O28	O	1.964603	0.347733	0.541749
O29	O	1.115730	-0.191209	-0.339000
O30	O	1.365730	0.058791	-0.089000
O31	O	1.615730	0.308791	0.161000
O32	O	1.865730	0.558791	0.411000
O33	O	1.345342	-0.402244	-0.338980
O34	O	1.595342	-0.152244	-0.088980
O35	O	1.845342	0.097756	0.161020
O36	O	2.095342	0.347756	0.411020
O37	O	1.214789	-0.191191	-0.438051
O38	O	1.464789	0.058809	-0.188051
O39	O	1.714789	0.308809	0.061949
O40	O	1.964789	0.558809	0.311949
O41	O	1.115624	-0.311296	-0.208260
O42	O	1.365624	-0.061296	0.041740
O43	O	1.615624	0.188704	0.291740
O44	O	1.865624	0.438704	0.541740
O45	O	0.984934	-0.311259	-0.338960
O46	O	1.234934	-0.061259	-0.088960
O47	O	1.484934	0.188741	0.161040
O48	O	1.734934	0.438741	0.411040
O49	O	1.115630	-0.402178	-0.568710
O50	O	1.365630	-0.152178	-0.318710
O51	O	1.615630	0.097822	-0.068710
O52	O	1.865630	0.347822	0.181290
O53	O	0.984891	-0.402201	-0.437981
O54	O	1.234891	-0.152201	-0.187981
O55	O	1.484891	0.097799	0.062019
O56	O	1.734891	0.347799	0.312019
O57	O	1.214732	-0.311218	-0.568740
O58	O	1.464732	-0.061218	-0.318740
O59	O	1.714732	0.188782	-0.068740
O60	O	1.964732	0.438782	0.181260
O61	O	1.214547	-0.522294	-0.338940
O62	O	1.464547	-0.272294	-0.088940
O63	O	1.714547	-0.022294	0.161060
O64	O	1.964547	0.227706	0.411060
O65	O	1.115525	-0.522265	-0.437969
O66	O	1.365525	-0.272265	-0.187969
O67	O	1.615525	-0.022265	0.062031
O68	O	1.865525	0.227735	0.312031
C69	C	0.955657	-0.356729	-0.388467
C70	C	1.205657	-0.106729	-0.138467
C71	C	1.455657	0.143271	0.111533
C72	C	1.705657	0.393271	0.361533
C73	C	0.866035	-0.356742	-0.388477
C74	C	1.116035	-0.106742	-0.138477
C75	C	1.366035	0.143258	0.111523
C76	C	1.616035	0.393258	0.361523
C77	C	0.537860	-0.356747	-0.388511
C78	C	0.787860	-0.106747	-0.138511
C79	C	1.037860	0.143253	0.111489
C80	C	1.287860	0.393253	0.361489
C81	C	0.629168	-0.356744	-0.388499
C82	C	0.879168	-0.106744	-0.138499
C83	C	1.129168	0.143256	0.111501
C84	C	1.379168	0.393256	0.361501
C85	C	0.701945	-0.356745	-0.388494
C86	C	0.951945	-0.106745	-0.138494
C87	C	1.201945	0.143255	0.111506
C88	C	1.451945	0.393255	0.361506
C89	C	0.793259	-0.356741	-0.388483
C90	C	1.043259	-0.106741	-0.138483
C91	C	1.293259	0.143259	0.111517
C92	C	1.543259	0.393259	0.361517
C93	C	1.165040	-0.549150	-0.388466
C94	C	1.415040	-0.299150	-0.138466
C95	C	1.665040	-0.049150	0.111534
C96	C	1.915040	0.200850	0.361534
C97	C	1.165067	-0.631464	-0.388483
C98	C	1.415067	-0.381464	-0.138483
C99	C	1.665067	-0.131464	0.111517
C100	C	1.915067	0.118536	0.361517
C101	C	1.165244	-0.930555	-0.388527
C102	C	1.415244	-0.680555	-0.138527
C103	C	1.665244	-0.430555	0.111473
C104	C	1.915244	-0.180555	0.361473
C105	C	1.103087	-0.899243	-0.450988
C106	C	1.353087	-0.649243	-0.200988
C107	C	1.603087	-0.399243	0.049012
C108	C	1.853087	-0.149243	0.299012
C109	C	1.102791	-0.813625	-0.450793
C110	C	1.352791	-0.563625	-0.200793
C111	C	1.602791	-0.313625	0.049207
C112	C	1.852791	-0.063625	0.299207
C113	C	1.165156	-0.782173	-0.388506
C114	C	1.415156	-0.532173	-0.138506
C115	C	1.665156	-0.282173	0.111494
C116	C	1.915156	-0.032173	0.361494
C117	C	1.142154	-0.813322	-0.303528
C118	C	1.392154	-0.563322	-0.053528
C119	C	1.642154	-0.313322	0.196472
C120	C	1.892154	-0.063322	0.446472
C121	C	1.141754	-0.898968	-0.303901
C122	C	1.391754	-0.648968	-0.053901
C123	C	1.641754	-0.398968	0.196099
C124	C	1.891754	-0.148968	0.446099
C125	C	1.250539	-0.898898	-0.410295
C126	C	1.500539	-0.648898	-0.160295
C127	C	1.750539	-0.398898	0.089705
C128	C	2.000539	-0.148898	0.339705
C129	C	1.250038	-0.813247	-0.412159
C130	C	1.500038	-0.563247	-0.162159
C131	C	1.750038	-0.313247	0.087841
C132	C	2.000038	-0.063247	0.337841
C133	C	1.165108	-0.698313	-0.388489
C134	C	1.415108	-0.448313	-0.138489
C135	C	1.665108	-0.198313	0.111511
C136	C	1.915108	0.051687	0.361511
C137	C	1.165290	-1.014415	-0.388538
C138	C	1.415290	-0.764415	-0.138538
C139	C	1.665290	-0.514415	0.111462
C140	C	1.915290	-0.264415	0.361462
C141	C	1.375456	-0.356751	-0.388513
C142	C	1.625456	-0.106751	-0.138513
C143	C	1.875456	0.143249	0.111487
C144	C	2.125456	0.393249	0.361487
C145	C	1.465077	-0.356756	-0.388523
C146	C	1.715077	-0.106756	-0.138523
C147	C	1.965077	0.143244	0.111477
C148	C	2.215077	0.393244	0.361477
C149	C	1.165187	-0.356691	-0.598799
C150	C	1.415187	-0.106691	-0.348799
C151	C	1.665187	0.143309	-0.098799
C152	C	1.915187	0.393309	0.151201
C153	C	1.165204	-0.356670	-0.688420
C154	C	1.415204	-0.106670	-0.438420
C155	C	1.665204	0.143330	-0.188420
C156	C	1.915204	0.393330	0.061580
C157	C	1.165278	-0.163578	-0.388531
C158	C	1.415278	0.086422	-0.138531
C159	C	1.665278	0.336422	0.111469
C160	C	1.915278	0.586422	0.361469
C161	C	1.165333	-0.081264	-0.388549
C162	C	1.415333	0.168736	-0.138549
C163	C	1.665333	0.418736	0.111451
C164	C	1.915333	0.668736	0.361451
C165	C	1.165217	-0.356654	-0.761203
C166	C	1.415217	-0.106654	-0.511203
C167	C	1.665217	0.143346	-0.261203
C168	C	1.915217	0.393346	-0.011203
C169	C	1.165236	-0.356626	-0.852511
C170	C	1.415236	-0.106626	-0.602511
C171	C	1.665236	0.143374	-0.352511
C172	C	1.915236	0.393374	-0.102511
C173	C	1.165255	-0.356600	-0.925288
C174	C	1.415255	-0.106600	-0.675288
C175	C	1.665255	0.143400	-0.425288
C176	C	1.915255	0.393400	-0.175288
C177	C	1.165275	-0.356573	-1.016602
C178	C	1.415275	-0.106573	-0.766602
C179	C	1.665275	0.143427	-0.516602
C180	C	1.915275	0.393427	-0.266602
C181	C	1.165154	-0.356735	-0.178999
C182	C	1.415154	-0.106735	0.071001
C183	C	1.665154	0.143265	0.321001
C184	C	1.915154	0.393265	0.571001
C185	C	1.165294	-0.356547	-0.089378
C186	C	1.415294	-0.106547	0.160622
C187	C	1.665294	0.143453	0.410622
C188	C	1.915294	0.393453	0.660622
H189	H	1.117182	-0.792562	-0.513803
H190	H	1.367182	-0.542562	-0.263803
H191	H	1.617182	-0.292562	-0.013803
H192	H	1.867182	-0.042562	0.236197
H193	H	1.117335	-0.919792	-0.514202
H194	H	1.367335	-0.669792	-0.264202
H195	H	1.617335	-0.419792	-0.014202
H196	H	1.867335	-0.169792	0.235798
C197	C	1.018195	-0.928395	-0.431753
C198	C	1.268195	-0.678395	-0.181753
C199	C	1.518195	-0.428395	0.068247
C200	C	1.768195	-0.178395	0.318247
H201	H	1.020467	-0.959564	-0.385821
H202	H	1.270467	-0.709564	-0.135821
H203	H	1.520467	-0.459564	0.114179
H204	H	1.770467	-0.209564	0.364179
H205	H	0.998383	-0.955641	-0.476375
H206	H	1.248383	-0.705641	-0.226375
H207	H	1.498383	-0.455641	0.023625
H208	H	1.748383	-0.205641	0.273625
H209	H	0.983363	-0.887961	-0.421179
H210	H	1.233363	-0.637961	-0.171179
H211	H	1.483363	-0.387961	0.078821
H212	H	1.733363	-0.137961	0.328821
C213	C	1.273476	-0.785750	-0.496645
C214	C	1.523476	-0.535750	-0.246645
C215	C	1.773476	-0.285750	0.003355
C216	C	2.023476	-0.035750	0.253355
H217	H	1.324873	-0.804741	-0.510614
H218	H	1.574873	-0.554741	-0.260614
H219	H	1.824873	-0.304741	-0.010614
H220	H	2.074873	-0.054741	0.239386
H221	H	1.275258	-0.733297	-0.496836
H222	H	1.525258	-0.483297	-0.246836
H223	H	1.775258	-0.233297	0.003164
H224	H	2.025258	0.016703	0.253164
H225	H	1.234754	-0.802265	-0.534615
H226	H	1.484754	-0.552265	-0.284615
H227	H	1.734754	-0.302265	-0.034615
H228	H	1.984754	-0.052265	0.215385
C229	C	1.200243	-0.926957	-0.238879
C230	C	1.450243	-0.676957	0.011121
C231	C	1.700243	-0.426957	0.261121
C232	C	1.950243	-0.176957	0.511121
H233	H	1.224140	-0.885982	-0.212349
H234	H	1.474140	-0.635982	0.037651
H235	H	1.724140	-0.385982	0.287651
H236	H	1.974140	-0.135982	0.537651
H237	H	1.241019	-0.956068	-0.263289
H238	H	1.491019	-0.706068	-0.013289
H239	H	1.741019	-0.456068	0.236711
H240	H	1.991019	-0.206068	0.486711
H241	H	1.171643	-0.956077	-0.200870
H242	H	1.421643	-0.706077	0.049130
H243	H	1.671643	-0.456077	0.299130
H244	H	1.921643	-0.206077	0.549130
H245	H	1.039568	-0.793203	-0.436373
H246	H	1.289568	-0.543203	-0.186373
H247	H	1.539568	-0.293203	0.063627
H248	H	1.789568	-0.043203	0.313627
H249	H	1.079403	-0.919011	-0.285461
H250	H	1.329403	-0.669011	-0.035461
H251	H	1.579403	-0.419011	0.214539
H252	H	1.829403	-0.169011	0.464539
H253	H	1.186003	-0.792950	-0.255720
H254	H	1.436003	-0.542950	-0.005720
H255	H	1.686003	-0.292950	0.244280
H256	H	1.936003	-0.042950	0.494280
C257	C	1.058812	-0.784448	-0.278172
C258	C	1.308812	-0.534448	-0.028172
C259	C	1.558812	-0.284448	0.221828
C260	C	1.808812	-0.034448	0.471828
H261	H	1.037923	-0.753419	-0.319252
H262	H	1.287923	-0.503419	-0.069252
H263	H	1.537923	-0.253419	0.180748
H264	H	1.787923	-0.003419	0.430748
H265	H	1.063637	-0.757114	-0.229651
H266	H	1.313637	-0.507114	0.020349
H267	H	1.563637	-0.257114	0.270349
H268	H	1.813637	-0.007114	0.520349
H269	H	1.023451	-0.825006	-0.269988
H270	H	1.273451	-0.575006	-0.019988
H271	H	1.523451	-0.325006	0.230012
H272	H	1.773451	-0.075006	0.480012
H273	H	1.271511	-0.920447	-0.471205
H274	H	1.521511	-0.670447	-0.221205
H275	H	1.771511	-0.420447	0.028795
H276	H	2.021511	-0.170447	0.278795
C277	C	1.315909	-0.784334	-0.355172
C278	C	1.565909	-0.534334	-0.105172
C279	C	1.815909	-0.284334	0.144828
C280	C	2.065909	-0.034334	0.394828
H281	H	1.292401	-0.752795	-0.316032
H282	H	1.542401	-0.502795	-0.066032
H283	H	1.792401	-0.252795	0.183968
H284	H	2.042401	-0.002795	0.433968
H285	H	1.354793	-0.757533	-0.385238
H286	H	1.604793	-0.507533	-0.135238
H287	H	1.854793	-0.257533	0.114762
H288	H	2.104793	-0.007533	0.364762
H289	H	1.341161	-0.824846	-0.329070
H290	H	1.591161	-0.574846	-0.079070
H291	H	1.841161	-0.324846	0.170930
H292	H	2.091161	-0.074846	0.420930
C293	C	1.313083	-0.926177	-0.348786
C294	C	1.563083	-0.676177	-0.098786
C295	C	1.813083	-0.426177	0.151214
C296	C	2.063083	-0.176177	0.401214
H297	H	1.287386	-0.956720	-0.310032
H298	H	1.537386	-0.706720	-0.060032
H299	H	1.787386	-0.456720	0.189968
H300	H	2.037386	-0.206720	0.439968
H301	H	1.336852	-0.884944	-0.322632
H302	H	1.586852	-0.634944	-0.072632
H303	H	1.836852	-0.384944	0.177368
H304	H	2.086852	-0.134944	0.427368
H305	H	1.353582	-0.953691	-0.375732
H306	H	1.603582	-0.703691	-0.125732
H307	H	1.853582	-0.453691	0.124268
H308	H	2.103582	-0.203691	0.374268
