data_functionalizedCrystal
_audit_creation_method	'MofGen! by Chris Wilmer'
_symmetry_space_group_name_H-M	'P1'
_symmetry_Int_Tables_number	1
_symmetry_cell_setting	triclinic
loop_
_symmetry_equiv_pos_as_xyz
  x,y,z
_cell_length_a	34.571875
_cell_length_b	34.571051
_cell_length_c	34.567439
_cell_angle_alpha	60.004367
_cell_angle_beta	60.008842
_cell_angle_gamma	59.994195
loop_
_atom_site_label
_atom_site_type_symbol
_atom_site_fract_x
_atom_site_fract_y
_atom_site_fract_z
O1	O	0.053721	-0.565181	0.472559
O2	O	0.020283	-0.440038	0.380761
O3	O	0.099534	-0.519209	0.380676
O4	O	-0.025530	-0.486010	0.472643
O5	O	0.125831	-0.492917	0.406885
O6	O	0.046580	-0.413746	0.406969
O7	O	0.080018	-0.538889	0.498767
Zn8	Zn	0.067475	-0.472143	0.457030
Zn9	Zn	0.032827	-0.506784	0.422498
O10	O	0.000767	-0.459718	0.498852
N11	N	0.091122	-0.448505	0.480598
N12	N	0.009184	-0.530426	0.398930
C13	C	0.124402	-0.415465	0.717633
C14	C	0.328327	-0.415388	0.513477
C15	C	0.124221	-0.415437	0.513630
C16	C	0.124201	-0.211364	0.513624
C17	C	0.157075	-0.309853	0.546423
C18	C	0.157084	-0.382601	0.546423
C19	C	0.175289	-0.364414	0.564591
C20	C	0.254624	-0.350722	0.522790
C21	C	0.304220	-0.367243	0.506229
C22	C	0.304249	-0.447494	0.536832
C23	C	0.254655	-0.430972	0.553394
C24	C	0.169014	-0.285043	0.497667
C25	C	0.152454	-0.235444	0.481153
C26	C	0.112020	-0.235469	0.562154
C27	C	0.128580	-0.285068	0.578668
C28	C	0.108321	-0.370634	0.558439
C29	C	0.091776	-0.387168	0.541918
C30	C	0.172754	-0.427637	0.501375
C31	C	0.189301	-0.411103	0.517891
C32	C	0.108399	-0.370649	0.643978
C33	C	0.091911	-0.387197	0.693575
C34	C	0.172928	-0.427676	0.693511
C35	C	0.189415	-0.411128	0.643912
C36	C	0.157149	-0.382613	0.619147
C37	C	0.229844	-0.382585	0.546371
C38	C	0.105624	-0.433333	0.772186
C39	C	0.382878	-0.432925	0.495007
C40	C	0.105380	-0.433313	0.495792
C41	C	0.105683	-0.156808	0.496094
C42	C	-0.023527	-0.563458	0.161535
C43	C	-0.023851	-0.767445	0.365663
C44	C	-0.023821	-0.563448	0.365756
C45	C	-0.227785	-0.563229	0.365355
C46	C	-0.129302	-0.596153	0.332678
C47	C	-0.056593	-0.596234	0.332823
C48	C	-0.074746	-0.614396	0.314578
C49	C	-0.088477	-0.693710	0.356299
C50	C	-0.071982	-0.743310	0.372851
C51	C	0.008266	-0.743392	0.342376
C52	C	-0.008230	-0.693794	0.325823
C53	C	-0.154162	-0.608103	0.381422
C54	C	-0.203757	-0.591517	0.397874
C55	C	-0.203630	-0.551037	0.316836
C56	C	-0.154034	-0.567623	0.300384
C57	C	-0.068543	-0.547475	0.320829
C58	C	-0.052041	-0.530969	0.337421
C59	C	-0.011639	-0.611977	0.377990
C60	C	-0.028141	-0.628485	0.361404
C61	C	-0.068417	-0.547482	0.235199
C62	C	-0.051814	-0.530977	0.185602
C63	C	-0.011349	-0.611990	0.185649
C64	C	-0.027951	-0.628493	0.235248
C65	C	-0.056486	-0.596238	0.260022
C66	C	-0.056602	-0.668955	0.332787
C67	C	-0.005599	-0.544662	0.106983
C68	C	-0.006342	-0.821999	0.384121
C69	C	-0.005979	-0.544649	0.383673
C70	C	-0.282336	-0.544682	0.382817
N71	N	0.427518	-0.448428	0.480350
O72	O	0.589573	-0.456297	0.363634
O73	O	0.589761	-0.548399	0.488643
O74	O	0.589681	-0.548188	0.409364
O75	O	0.589654	-0.456508	0.442913
O76	O	0.510890	-0.521988	0.435708
O77	O	0.510970	-0.522199	0.514987
O78	O	0.510782	-0.430098	0.389978
Zn79	Zn	0.498366	-0.471989	0.456665
Zn80	Zn	0.602177	-0.506508	0.421956
O81	O	0.510862	-0.430308	0.469257
N82	N	0.673025	-0.530068	0.398267
N83	N	0.091092	-0.112167	0.480590
O84	O	-0.025539	0.049976	0.472612
O85	O	0.099472	0.050011	0.380491
O86	O	0.020155	0.049979	0.380751
O87	O	0.053778	0.050009	0.472352
O88	O	0.046458	-0.028818	0.407008
O89	O	0.125775	-0.028785	0.406748
O90	O	0.000764	-0.028821	0.498869
Zn91	Zn	0.067445	-0.041314	0.456977
Zn92	Zn	0.032791	0.062504	0.422382
O93	O	0.080081	-0.028788	0.498609
N94	N	0.009138	0.133358	0.398771
N95	N	0.091421	-0.448552	0.816827
O96	O	0.083469	-0.565164	0.978960
O97	O	-0.008614	-0.440110	0.979002
O98	O	-0.008399	-0.519410	0.978978
O99	O	0.083253	-0.485863	0.978984
O100	O	0.017837	-0.493128	0.900185
O101	O	0.017621	-0.413827	0.900208
O102	O	0.109704	-0.538881	0.900167
Zn103	Zn	0.067828	-0.472181	0.887677
Zn104	Zn	0.033262	-0.506810	0.991491
O105	O	0.109489	-0.459581	0.900191
N106	N	0.009668	-0.530444	1.062341
C107	C	0.030297	-0.411123	0.381218
C108	C	0.128439	-0.509167	0.381113
C109	C	0.070004	-0.567805	0.498310
C110	C	-0.028138	-0.469761	0.498415
C111	C	0.550388	-0.547982	0.517564
C112	C	0.550290	-0.547721	0.419387
C113	C	0.550153	-0.430514	0.361058
C114	C	0.550253	-0.430775	0.459234
C115	C	0.128339	0.010714	0.380902
C116	C	0.030148	0.010577	0.381256
C117	C	-0.028136	0.010574	0.498426
C118	C	0.070089	0.010613	0.498104
C119	C	-0.008178	-0.411214	0.939610
C120	C	-0.007906	-0.509413	0.939566
C121	C	0.109268	-0.567777	0.939558
C122	C	0.109002	-0.469572	0.939586
H123	H	0.052212	-0.377448	0.713786
H124	H	0.022945	0.010574	0.352477
O125	O	0.021861	-0.368258	0.346773
C126	C	0.052905	-0.319549	0.266905
C127	C	0.062525	-0.368110	0.305875
H128	H	0.085772	-0.319417	0.233826
H129	H	0.043928	-0.290632	0.279952
H130	H	0.021875	-0.312657	0.258077
H131	H	0.093561	-0.375048	0.314720
H132	H	0.071474	-0.397001	0.292807
H133	H	0.164358	-0.516243	0.352233
H134	H	0.077150	-0.603753	0.527142
H135	H	-0.064060	-0.462687	0.527292
O136	O	0.550327	-0.396429	0.467744
C137	C	0.591086	-0.344681	0.444909
C138	C	0.591066	-0.383584	0.435228
H139	H	0.624015	-0.334277	0.418620
H140	H	0.591166	-0.358563	0.482530
H141	H	0.558069	-0.312376	0.440727
H142	H	0.624078	-0.415901	0.439385
H143	H	0.590962	-0.369663	0.397612
O144	O	-0.042184	-0.518030	0.939502
C145	C	-0.063839	-0.574305	0.939456
C146	C	-0.024973	-0.564606	0.939516
H147	H	-0.049941	-0.611965	0.939477
H148	H	-0.074180	-0.548093	0.906467
H149	H	-0.096185	-0.570045	0.972417
H150	H	0.007398	-0.568873	0.906578
H151	H	-0.014672	-0.590817	0.972527
O152	O	0.550470	-0.582433	0.560414
C153	C	0.550527	-0.604452	0.638450
C154	C	0.550445	-0.565398	0.589940
H155	H	0.550496	-0.590691	0.662338
H156	H	0.583528	-0.636749	0.633471
H157	H	0.517580	-0.614821	0.655464
H158	H	0.583369	-0.554989	0.572900
H159	H	0.517422	-0.533127	0.594950
H160	H	0.550303	-0.576522	0.412207
O161	O	0.143701	-0.610655	0.939562
C162	C	0.165742	-0.688691	0.939502
C163	C	0.126702	-0.640158	0.939510
H164	H	0.152016	-0.712554	0.939450
H165	H	0.176085	-0.705744	0.972481
H166	H	0.198045	-0.683690	0.906531
H167	H	0.094373	-0.645117	0.972459
H168	H	0.116399	-0.623121	0.906509
H169	H	0.199204	-0.450885	0.713670
O170	O	-0.071000	0.010592	0.532867
C171	C	-0.149043	0.010553	0.554936
C172	C	-0.100524	0.010539	0.515888
H173	H	-0.172923	0.010501	0.541227
H174	H	-0.166082	0.043543	0.565255
H175	H	-0.144032	-0.022410	0.587251
H176	H	-0.105494	0.043480	0.483548
H177	H	-0.083502	-0.022472	0.505609
H178	H	0.550093	-0.401597	0.325157
H179	H	0.137795	-0.462392	0.939581
O180	O	0.171098	0.011011	0.346356
C181	C	0.249024	0.011399	0.324171
C182	C	0.200618	0.011074	0.363331
H183	H	0.272907	0.011440	0.337884
H184	H	0.243862	0.044456	0.291967
H185	H	0.266148	-0.021496	0.313679
H186	H	0.183467	0.043947	0.373863
H187	H	0.205810	-0.022004	0.395510
O188	O	0.078764	0.010592	0.532396
C189	C	0.135074	0.010629	0.554018
C190	C	0.125315	0.010646	0.515143
H191	H	0.172706	0.010683	0.540080
H192	H	0.130895	-0.022361	0.586352
H193	H	0.108827	0.043591	0.564394
H194	H	0.151553	-0.022294	0.504727
H195	H	0.129477	0.043658	0.482834
O196	O	-0.042610	-0.368328	0.939561
C197	C	-0.065520	-0.284044	0.898748
C198	C	-0.026481	-0.332580	0.898750
H199	H	-0.052497	-0.255129	0.865751
H200	H	-0.074454	-0.277072	0.931705
H201	H	-0.098527	-0.284005	0.898773
H202	H	0.006551	-0.332654	0.898709
H203	H	-0.017588	-0.339532	0.865796
O204	O	0.076990	-0.342971	0.619994
C205	C	-0.005108	-0.304543	0.625293
C206	C	0.030407	-0.335898	0.652513
H207	H	-0.042778	-0.298806	0.651573
H208	H	0.000551	-0.322705	0.602089
H209	H	0.000613	-0.268873	0.602060
H210	H	0.024707	-0.371572	0.675771
H211	H	0.024739	-0.317698	0.675687
H212	H	0.011532	-0.638242	0.401256
O213	O	0.236789	-0.422780	0.619866
C214	C	0.315405	-0.464701	0.625039
C215	C	0.261769	-0.451531	0.652329
H216	H	0.335617	-0.487956	0.651274
H217	H	0.325175	-0.431054	0.601830
H218	H	0.325132	-0.484869	0.601806
H219	H	0.252003	-0.431374	0.675588
H220	H	0.252028	-0.485195	0.675508
H221	H	0.082085	-0.347427	0.581670
H222	H	0.198991	-0.450848	0.478149
O223	O	0.044392	-0.375521	0.553653
C224	C	-0.034186	-0.333626	0.595599
C225	C	0.019463	-0.346786	0.582352
H226	H	-0.054356	-0.310383	0.618795
H227	H	-0.043949	-0.367277	0.615820
H228	H	-0.043968	-0.313447	0.561954
H229	H	0.029284	-0.366953	0.615971
H230	H	0.029197	-0.313118	0.562112
H231	H	0.229008	-0.420842	0.508101
H232	H	0.234479	-0.456922	0.572596
H233	H	0.324452	-0.486894	0.542541
H234	H	0.324395	-0.341295	0.487026
H235	H	0.192214	-0.305222	0.471410
O236	O	0.230598	-0.303707	0.515947
C237	C	0.235807	-0.225849	0.483816
C238	C	0.263076	-0.279083	0.491545
H239	H	0.262053	-0.205924	0.464078
H240	H	0.212625	-0.220302	0.519572
H241	H	0.212549	-0.211908	0.462049
H242	H	0.286360	-0.293060	0.513296
H243	H	0.286228	-0.284599	0.455773
H244	H	0.088825	-0.215289	0.588411
O245	O	0.164028	-0.211391	0.433778
C246	C	0.160156	-0.196175	0.359521
C247	C	0.147027	-0.223452	0.413163
H248	H	0.146407	-0.205908	0.342840
H249	H	0.200310	-0.205921	0.342747
H250	H	0.143440	-0.156470	0.353269
H251	H	0.163710	-0.263162	0.419457
H252	H	0.106868	-0.213666	0.429910
O253	O	0.117039	-0.309152	0.626036
C254	C	0.120856	-0.324323	0.700305
C255	C	0.133967	-0.297028	0.646666
H256	H	0.134528	-0.314523	0.717002
H257	H	0.137600	-0.364035	0.706597
H258	H	0.080701	-0.314591	0.717032
H259	H	0.174116	-0.306720	0.629904
H260	H	0.117190	-0.257322	0.640408
O261	O	-0.063473	-0.483597	0.161568
C262	C	-0.105347	-0.404987	0.166760
C263	C	-0.092189	-0.458631	0.194039
H264	H	-0.128557	-0.384786	0.193002
H265	H	-0.125524	-0.395182	0.143500
H266	H	-0.071668	-0.395278	0.143579
H267	H	-0.125843	-0.468378	0.217247
H268	H	-0.071994	-0.468406	0.217270
O269	O	-0.063663	-0.483589	0.325700
C270	C	-0.105471	-0.404977	0.283703
C271	C	-0.092343	-0.458621	0.296939
H272	H	-0.128669	-0.384776	0.260457
H273	H	-0.071806	-0.395245	0.263538
H274	H	-0.125682	-0.395198	0.317349
H275	H	-0.072143	-0.468439	0.263318
H276	H	-0.126025	-0.468324	0.317123
O277	O	-0.096204	-0.516161	0.259281
C278	C	-0.171735	-0.487751	0.315199
C279	C	-0.140323	-0.523238	0.287950
H280	H	-0.207408	-0.493467	0.338392
H281	H	-0.177449	-0.450059	0.288954
H282	H	-0.153586	-0.493475	0.338448
H283	H	-0.158445	-0.517557	0.264701
H284	H	-0.134608	-0.560917	0.314221
H285	H	0.011877	-0.638258	0.165483
H286	H	-0.018232	-0.668197	0.255455
H287	H	-0.091707	-0.521211	0.297556
H288	H	-0.018411	-0.668189	0.371171
H289	H	0.047655	-0.763617	0.336709
O290	O	0.022796	-0.669818	0.303011
C291	C	0.104137	-0.675136	0.274506
C292	C	0.069050	-0.702346	0.300360
H293	H	0.141542	-0.701423	0.272346
H294	H	0.094197	-0.651923	0.294792
H295	H	0.102648	-0.651911	0.237207
H296	H	0.070521	-0.725597	0.337660
H297	H	0.079002	-0.725529	0.280038
H298	H	-0.097938	-0.763465	0.391989
H299	H	-0.127865	-0.673490	0.361973
H300	H	-0.223999	-0.601245	0.437568
O301	O	-0.130209	-0.635795	0.412855
C302	C	-0.135571	-0.674213	0.494972
C303	C	-0.162755	-0.642839	0.459425
H304	H	-0.161872	-0.679927	0.532631
H305	H	-0.112361	-0.656080	0.489340
H306	H	-0.112348	-0.709892	0.489255
H307	H	-0.186003	-0.607156	0.465120
H308	H	-0.185935	-0.661010	0.465065
H309	H	-0.133793	-0.557888	0.260690
O310	O	-0.227585	-0.523315	0.285403
C311	C	-0.222227	-0.484953	0.203287
C312	C	-0.195040	-0.516342	0.238833
H313	H	-0.195926	-0.479314	0.165627
H314	H	-0.245422	-0.449241	0.208935
H315	H	-0.245463	-0.503095	0.208989
H316	H	-0.171778	-0.498242	0.233153
H317	H	-0.171875	-0.552053	0.233175
