data_functionalizedCrystal
_audit_creation_method	'MofGen! by Chris Wilmer'
_symmetry_space_group_name_H-M	'P1'
_symmetry_Int_Tables_number	1
_symmetry_cell_setting	triclinic
loop_
_symmetry_equiv_pos_as_xyz
  x,y,z
_cell_length_a	6.817900
_cell_length_b	12.908943
_cell_length_c	11.353959
_cell_angle_alpha	105.957120
_cell_angle_beta	107.526623
_cell_angle_gamma	100.860631
loop_
_atom_site_label
_atom_site_type_symbol
_atom_site_fract_x
_atom_site_fract_y
_atom_site_fract_z
V1	V	-4.033109	-0.361558	-0.179109
O2	O	-3.982191	-0.320537	0.010285
O3	O	-4.021429	-0.391917	-0.356757
O4	O	-3.970667	-0.504266	-0.175618
O5	O	-4.033304	-0.207410	-0.172108
V6	V	-4.513799	-0.339132	-0.156542
O7	O	-4.300583	-0.410750	-0.228611
O8	O	-4.696522	-0.289939	-0.107040
O9	O	-4.302273	-0.308772	0.021105
O10	O	-4.682114	-0.380152	-0.345936
O11	O	-4.631001	-0.493279	-0.163543
O12	O	-4.353035	-0.196423	-0.160034
C13	C	-3.875817	-0.394685	-0.400087
C14	C	-3.947460	-0.420459	-0.545311
C15	C	-3.946121	-0.337035	-0.592784
C16	C	-4.020167	-0.363672	-0.742881
C17	C	-3.811064	-0.537996	-0.169024
C18	C	-3.841537	-0.654877	-0.167345
C19	C	-4.264729	-0.887624	-0.177153
C20	C	-4.293371	-0.997444	-0.175576
C21	C	-3.927460	-0.984337	-0.162605
C22	C	-3.898818	-0.874517	-0.164182
C23	C	-4.067462	-0.826165	-0.171458
C24	C	-4.038823	-0.716345	-0.173044
C25	C	-3.672909	-0.703238	-0.160063
C26	C	-3.701551	-0.813058	-0.158486
C27	C	-4.111229	-0.306003	0.064428
C28	C	-4.018823	-0.280236	0.209652
C29	C	-4.175981	-0.162689	-0.166632
C30	C	-4.124746	-0.045806	-0.168304
H31	H	-3.962868	-0.189088	-0.719876
H32	H	-3.890169	-0.245894	-0.522307
H33	H	-4.076138	-0.454820	-0.813355
H34	H	-4.003430	-0.511601	-0.615789
H35	H	-4.176146	-0.676981	-0.178975
H36	H	-4.402054	-0.848260	-0.183092
H37	H	-3.790163	-1.023722	-0.156672
H38	H	-4.454003	-1.047481	-0.180214
H39	H	-3.564251	-0.852440	-0.152557
H40	H	-3.512278	-0.653187	-0.155431
