data_functionalizedCrystal
_audit_creation_method	'MofGen! by Chris Wilmer'
_symmetry_space_group_name_H-M	'P1'
_symmetry_Int_Tables_number	1
_symmetry_cell_setting	triclinic
loop_
_symmetry_equiv_pos_as_xyz
  x,y,z
_cell_length_a	6.817900
_cell_length_b	11.168130
_cell_length_c	11.168136
_cell_angle_alpha	92.019983
_cell_angle_beta	108.508683
_cell_angle_gamma	108.508653
loop_
_atom_site_label
_atom_site_type_symbol
_atom_site_fract_x
_atom_site_fract_y
_atom_site_fract_z
V1	V	-4.109882	-0.174724	-0.393709
O2	O	-4.069466	0.008377	-0.386204
O3	O	-4.086170	-0.346429	-0.391026
O4	O	-4.086173	-0.172044	-0.565415
O5	O	-4.069464	-0.167215	-0.210609
V6	V	-4.587112	-0.152822	-0.371808
O7	O	-4.384946	-0.222767	-0.441752
O8	O	-4.762246	-0.104778	-0.323765
O9	O	-4.387617	0.018883	-0.374490
O10	O	-4.744925	-0.335922	-0.379313
O11	O	-4.744927	-0.160330	-0.554908
O12	O	-4.387615	-0.155501	-0.200102
C13	C	-3.936378	-0.388286	-0.384818
C14	C	-3.998442	-0.528658	-0.383769
C15	C	-4.033444	-0.719172	-0.272327
C16	C	-3.969296	-0.574091	-0.273409
C17	C	-3.936380	-0.165840	-0.607266
C18	C	-3.998442	-0.164786	-0.747637
C19	C	-4.200950	-0.170305	-0.816329
C20	C	-4.265098	-0.169216	-0.961409
C21	C	-4.200752	0.060735	-0.380695
C22	C	-4.117927	0.201105	-0.381753
C23	C	-4.200750	-0.161709	-0.158244
C24	C	-4.117925	-0.162757	-0.017872
H25	H	-4.070883	-0.597145	-0.477456
Br26	Br	-3.848589	-0.459938	-0.117257
Br27	Br	-4.554264	-0.177104	-1.059824
Br28	Br	-4.159314	-0.733651	-0.539241
Br29	Br	-3.788597	-0.155551	-0.828618
Br30	Br	-4.410788	-0.179528	-0.735345
H31	H	-4.008595	-0.758326	-0.177843
H32	H	-3.944444	-0.158040	-0.958831
