data_functionalizedCrystal
_audit_creation_method	'MofGen! by Chris Wilmer'
_symmetry_space_group_name_H-M	'P1'
_symmetry_Int_Tables_number	1
_symmetry_cell_setting	triclinic
loop_
_symmetry_equiv_pos_as_xyz
  x,y,z
_cell_length_a	13.033293
_cell_length_b	13.897447
_cell_length_c	13.033109
_cell_angle_alpha	97.154634
_cell_angle_beta	74.800007
_cell_angle_gamma	97.189355
loop_
_atom_site_label
_atom_site_type_symbol
_atom_site_fract_x
_atom_site_fract_y
_atom_site_fract_z
Zn1	Zn	1.700275	-0.279490	-0.807182
Zn2	Zn	2.200275	0.220510	-0.307182
Zn3	Zn	1.677599	-0.422643	-0.629556
Zn4	Zn	2.177599	0.077357	-0.129556
Zn5	Zn	1.500079	-0.279508	-0.606985
Zn6	Zn	2.000079	0.220492	-0.106985
Zn7	Zn	1.522598	-0.458897	-0.784530
Zn8	Zn	2.022598	0.041103	-0.284530
O9	O	1.600138	-0.360135	-0.707063
O10	O	2.100138	0.139865	-0.207063
O11	O	1.845918	-0.283300	-0.802546
O12	O	2.345918	0.216700	-0.302546
O13	O	1.635137	-0.388491	-0.477921
O14	O	2.135137	0.111509	0.022079
O15	O	1.526700	-0.144520	-0.633575
O16	O	2.026700	0.355480	-0.133575
O17	O	1.829259	-0.388474	-0.672045
O18	O	2.329259	0.111526	-0.172045
O19	O	1.673783	-0.144507	-0.780659
O20	O	2.173783	0.355493	-0.280659
O21	O	1.504713	-0.283330	-0.461338
O22	O	2.004713	0.216670	0.038662
O23	O	1.354414	-0.318484	-0.611610
O24	O	1.854414	0.181516	-0.111610
O25	O	1.565081	-0.450263	-0.936176
O26	O	2.065081	0.049737	-0.436176
O27	O	1.370959	-0.450281	-0.742052
O28	O	1.870959	0.049719	-0.242052
O29	O	1.695619	-0.318454	-0.952818
O30	O	2.195619	0.181546	-0.452818
O31	O	1.656973	-0.562438	-0.650080
O32	O	2.156973	-0.062438	-0.150080
O33	O	1.543094	-0.589073	-0.763939
O34	O	2.043094	-0.089073	-0.263939
C35	C	1.324143	-0.388319	-0.671924
C36	C	1.824143	0.111681	-0.171924
C37	C	1.206075	-0.400402	-0.656917
C38	C	1.706075	0.099598	-0.156917
C39	C	1.161691	-0.353852	-0.714896
C40	C	1.661691	0.146148	-0.214896
C41	C	1.039661	-0.366340	-0.699386
C42	C	1.539661	0.133660	-0.199386
C43	C	1.600048	-0.610755	-0.707028
C44	C	2.100048	-0.110755	-0.207028
C45	C	1.600111	-0.717965	-0.707060
C46	C	2.100111	-0.217965	-0.207060
C47	C	1.600166	-0.805032	-0.707091
C48	C	2.100166	-0.305032	-0.207091
C49	C	1.600244	-0.914260	-0.707128
C50	C	2.100244	-0.414260	-0.207128
C51	C	1.877210	-0.331841	-0.742340
C52	C	2.377210	0.168159	-0.242340
C53	C	1.995282	-0.319784	-0.757373
C54	C	2.495282	0.180216	-0.257373
C55	C	1.635391	-0.388401	-0.984115
C56	C	2.135391	0.111599	-0.484115
C57	C	1.650414	-0.400446	-1.102178
C58	C	2.150414	0.099554	-0.602178
C59	C	1.600259	-0.108535	-0.707126
C60	C	2.100259	0.391465	-0.207126
C61	C	1.600311	-0.001318	-0.707153
C62	C	2.100311	0.498682	-0.207153
C63	C	1.592581	-0.353784	-1.146609
C64	C	2.092581	0.146216	-0.646609
C65	C	1.608106	-0.366233	-1.268633
C66	C	2.108106	0.133767	-0.768633
C67	C	1.565082	-0.331903	-0.431097
C68	C	2.065082	0.168097	0.068903
C69	C	1.550265	-0.319565	-0.313061
C70	C	2.050265	0.180435	0.186939
H71	H	1.047620	-0.270677	-0.818492
H72	H	1.547620	0.229323	-0.318492
N73	N	1.511770	-0.288652	-1.077351
N74	N	2.011770	0.211348	-0.577351
H75	H	1.438296	-0.313332	-1.086933
H76	H	1.938296	0.186668	-0.586933
H77	H	1.512226	-0.289012	-1.000029
H78	H	2.012226	0.210988	-0.500029
H79	H	1.153730	-0.449498	-0.595795
H80	H	1.653730	0.050502	-0.095795
H81	H	0.987321	-0.415439	-0.638260
H82	H	1.487321	0.084561	-0.138260
N83	N	1.688916	-0.431372	-1.337891
N84	N	2.188916	0.068628	-0.837891
H85	H	1.688549	-0.431035	-1.415243
H86	H	2.188549	0.068965	-0.915243
H87	H	1.762349	-0.406657	-1.328225
H88	H	2.262349	0.093343	-0.828225
H89	H	1.489251	-0.270399	-1.260766
H90	H	1.989251	0.229601	-0.760766
N91	N	1.731219	-0.465578	-1.171448
N92	N	2.231219	0.034422	-0.671448
H93	H	1.786280	-0.426014	-1.223753
H94	H	2.286280	0.073986	-0.723753
H95	H	1.767603	-0.494998	-1.124961
H96	H	2.267603	0.005002	-0.624961
H97	H	1.214034	-0.304751	-0.776011
H98	H	1.714034	0.195249	-0.276011
