data_functionalizedCrystal
_audit_creation_method	'MofGen! by Chris Wilmer'
_symmetry_space_group_name_H-M	'P1'
_symmetry_Int_Tables_number	1
_symmetry_cell_setting	triclinic
loop_
_symmetry_equiv_pos_as_xyz
  x,y,z
_cell_length_a	10.686220
_cell_length_b	29.839131
_cell_length_c	10.685880
_cell_angle_alpha	94.334932
_cell_angle_beta	89.641569
_cell_angle_gamma	94.423467
loop_
_atom_site_label
_atom_site_type_symbol
_atom_site_fract_x
_atom_site_fract_y
_atom_site_fract_z
Zn1	Zn	1.972071	-0.140242	-0.562341
Zn2	Zn	2.472071	0.359758	-0.062341
Zn3	Zn	1.955762	-0.210103	-0.352573
Zn4	Zn	2.455762	0.289897	0.147427
Zn5	Zn	1.746200	-0.141157	-0.368663
Zn6	Zn	2.246200	0.358843	0.131337
Zn7	Zn	1.762165	-0.221522	-0.578342
Zn8	Zn	2.262165	0.278478	-0.078342
O9	O	1.859049	-0.178256	-0.465480
O10	O	2.359049	0.321744	0.034520
O11	O	2.145457	-0.144347	-0.521085
O12	O	2.645457	0.355653	-0.021085
O13	O	1.914457	-0.196561	-0.179167
O14	O	2.414457	0.303439	0.320833
O15	O	1.776306	-0.078166	-0.394393
O16	O	2.276306	0.421834	0.105607
O17	O	2.133475	-0.195673	-0.366969
O18	O	2.633475	0.304327	0.133031
O19	O	1.942253	-0.077493	-0.536687
O20	O	2.442253	0.422507	-0.036687
O21	O	1.760492	-0.145907	-0.190989
O22	O	2.260492	0.354093	0.309011
O23	O	1.572768	-0.156980	-0.409908
O24	O	2.072768	0.343020	0.090092
O25	O	1.803516	-0.215136	-0.751760
O26	O	2.303516	0.284864	-0.251760
O27	O	1.584497	-0.216024	-0.563958
O28	O	2.084497	0.283976	-0.063958
O29	O	1.957734	-0.155420	-0.740004
O30	O	2.457734	0.344580	-0.240004
O31	O	1.929937	-0.274488	-0.382484
O32	O	2.429937	0.225512	0.117516
O33	O	1.787702	-0.282877	-0.548356
O34	O	2.287702	0.217123	-0.048356
C35	C	1.533115	-0.187841	-0.490416
C36	C	2.033115	0.312159	0.009584
C37	C	1.393681	-0.191953	-0.501114
C38	C	1.893681	0.308047	-0.001114
C39	C	1.858818	-0.294984	-0.465435
C40	C	2.358818	0.205016	0.034565
C41	C	1.858837	-0.344918	-0.465449
C42	C	2.358837	0.155082	0.034551
C43	C	1.933266	-0.650174	-0.379217
C44	C	2.433266	-0.150174	0.120783
C45	C	1.933425	-0.837844	-0.379253
C46	C	2.433425	-0.337844	0.120747
O47	O	1.996524	-0.858382	-0.305901
O48	O	2.496524	-0.358382	0.194099
N49	N	1.859317	-0.865693	-0.465555
N50	N	2.359317	-0.365693	0.034445
C51	C	1.785170	-0.846622	-0.551858
C52	C	2.285170	-0.346622	-0.051858
O53	O	1.722150	-0.874616	-0.625272
O54	O	2.222150	-0.374616	-0.125272
C55	C	1.785019	-0.658953	-0.551826
C56	C	2.285019	-0.158953	-0.051826
C57	C	1.859122	-0.631106	-0.465511
C58	C	2.359122	-0.131106	0.034489
C59	C	2.007365	-0.622327	-0.292909
C60	C	2.507365	-0.122327	0.207091
C61	C	2.007319	-0.575413	-0.292897
C62	C	2.507319	-0.075413	0.207103
C63	C	1.933175	-0.556345	-0.379191
C64	C	2.433175	-0.056345	0.120809
C65	C	1.859077	-0.584191	-0.465498
C66	C	2.359077	-0.084191	0.034502
C67	C	1.710880	-0.639883	-0.638135
C68	C	2.210880	-0.139883	-0.138135
C69	C	1.710852	-0.592962	-0.638121
C70	C	2.210852	-0.092962	-0.138121
C71	C	1.784955	-0.565115	-0.551806
C72	C	2.284955	-0.065115	-0.051806
C73	C	1.784887	-0.518209	-0.551780
C74	C	2.284887	-0.018209	-0.051780
N75	N	1.858996	-0.490360	-0.465479
N76	N	2.358996	0.009640	0.034521
C77	C	1.933139	-0.509428	-0.379184
C78	C	2.433139	-0.009428	0.120816
C79	C	1.785253	-0.945151	-0.551867
C80	C	2.285253	-0.445151	-0.051867
C81	C	1.785289	-0.992068	-0.551874
C82	C	2.285289	-0.492068	-0.051874
C83	C	1.933545	-0.983286	-0.379270
C84	C	2.433545	-0.483286	0.120730
C85	C	1.933502	-0.936368	-0.379259
C86	C	2.433502	-0.436368	0.120741
C87	C	1.859361	-0.917301	-0.465566
C88	C	2.359361	-0.417301	0.034434
C89	C	1.933037	-0.410904	-0.379163
C90	C	2.433037	0.089096	0.120837
C91	C	1.932981	-0.363986	-0.379155
C92	C	2.432981	0.136014	0.120845
C93	C	1.784730	-0.372772	-0.551762
C94	C	2.284730	0.127228	-0.051762
C95	C	1.784780	-0.419686	-0.551767
C96	C	2.284780	0.080314	-0.051767
C97	C	1.858944	-0.438750	-0.465462
C98	C	2.358944	0.061250	0.034538
O99	O	1.721832	-0.497640	-0.625103
O100	O	2.221832	0.002360	-0.125103
O101	O	1.996171	-0.481426	-0.305800
O102	O	2.496171	0.018574	0.194200
C103	C	1.933312	-0.697088	-0.379229
C104	C	2.433312	-0.197088	0.120771
C105	C	1.859214	-0.724935	-0.465537
C106	C	2.359214	-0.224935	0.034463
C107	C	1.785070	-0.705867	-0.551831
C108	C	2.285070	-0.205867	-0.051831
C109	C	1.859249	-0.771852	-0.465543
C110	C	2.359249	-0.271852	0.034457
C111	C	1.933393	-0.790920	-0.379249
C112	C	2.433393	-0.290920	0.120751
C113	C	2.007501	-0.763071	-0.292948
C114	C	2.507501	-0.263071	0.207052
C115	C	2.007456	-0.716156	-0.292935
C116	C	2.507456	-0.216156	0.207065
C117	C	1.710962	-0.733716	-0.638132
C118	C	2.210962	-0.233716	-0.138132
C119	C	1.711012	-0.780631	-0.638137
C120	C	2.211012	-0.280631	-0.138137
C121	C	1.785156	-0.799699	-0.551843
C122	C	2.285156	-0.299699	-0.051843
C123	C	2.186257	-0.168634	-0.440447
C124	C	2.686257	0.331366	0.059553
C125	C	2.325693	-0.164534	-0.429779
C126	C	2.825693	0.335466	0.070221
C127	C	1.884225	-0.186449	-0.792670
C128	C	2.384225	0.313551	-0.292670
C129	C	1.894953	-0.189941	-0.932099
C130	C	2.394953	0.310059	-0.432099
C131	C	1.859318	-0.061072	-0.465550
C132	C	2.359318	0.438928	0.034450
C133	C	1.859432	-0.011135	-0.465580
C134	C	2.359432	0.488865	0.034420
C135	C	1.834044	-0.170060	-0.139557
C136	C	2.334044	0.329940	0.360443
C137	C	1.823559	-0.166435	-0.000111
C138	C	2.323559	0.333565	0.499889
H139	H	1.374157	-0.137914	-0.360521
H140	H	1.874157	0.362086	0.139479
H141	H	1.993324	-0.341314	-0.308862
H142	H	2.493324	0.158686	0.191138
F143	F	1.330331	-0.226754	-0.591635
F144	F	1.830331	0.273246	-0.091635
F145	F	2.011970	-0.431187	-0.287308
F146	F	2.511970	0.068813	0.212692
F147	F	1.985583	-0.219742	-0.995415
F148	F	2.485583	0.280258	-0.495415
F149	F	2.086288	-0.642613	-0.201057
F150	F	2.586288	-0.142613	0.298943
F151	F	2.086206	-0.545781	-0.201041
F152	F	2.586206	-0.045781	0.298959
H153	H	1.724359	-0.357239	-0.622019
H154	H	2.224359	0.142761	-0.122019
H155	H	1.993844	-0.913697	-0.308974
H156	H	2.493844	-0.413697	0.191026
H157	H	1.993917	-0.998819	-0.309006
H158	H	2.493917	-0.498819	0.190994
F159	F	1.706403	-1.021700	-0.643729
F160	F	2.206403	-0.521700	-0.143729
F161	F	1.706335	-0.924865	-0.643732
F162	F	2.206335	-0.424865	-0.143732
H163	H	1.754218	-0.143640	-0.951672
H164	H	2.254218	0.356360	-0.451672
F165	F	1.632020	-0.669510	-0.730015
F166	F	2.132020	-0.169510	-0.230015
H167	H	1.724444	-0.442360	-0.622055
H168	H	2.224444	0.057640	-0.122055
F169	F	1.631941	-0.572673	-0.729986
F170	F	2.131941	-0.072673	-0.229986
F171	F	2.086331	-0.686525	-0.201069
F172	F	2.586331	-0.186525	0.298931
F173	F	2.086407	-0.783372	-0.201103
F174	F	2.586407	-0.283372	0.298897
F175	F	1.632132	-0.810263	-0.730009
F176	F	2.132132	-0.310263	-0.230009
H177	H	1.650587	-0.718196	-0.708405
H178	H	2.150587	-0.218196	-0.208405
