data_functionalizedCrystal
_audit_creation_method	'MofGen! by Chris Wilmer'
_symmetry_space_group_name_H-M	'P1'
_symmetry_Int_Tables_number	1
_symmetry_cell_setting	triclinic
loop_
_symmetry_equiv_pos_as_xyz
  x,y,z
_cell_length_a	7.190334
_cell_length_b	13.635800
_cell_length_c	7.190339
_cell_angle_alpha	60.611724
_cell_angle_beta	82.319600
_cell_angle_gamma	60.611776
loop_
_atom_site_label
_atom_site_type_symbol
_atom_site_fract_x
_atom_site_fract_y
_atom_site_fract_z
V1	V	0.663510	-2.154325	0.291701
V2	V	1.163510	-1.654325	0.791701
O3	O	0.652431	-2.100792	-0.017518
O4	O	1.152431	-1.600792	0.482482
O5	O	0.657480	-2.172020	0.581760
O6	O	1.157480	-1.672020	1.081760
O7	O	0.953571	-2.172022	0.285678
O8	O	1.453571	-1.672022	0.785678
O9	O	0.354291	-2.100790	0.280614
O10	O	0.854291	-1.600790	0.780614
V11	V	0.626707	-2.385281	0.254896
V12	V	1.126707	-1.885281	0.754896
O13	O	0.744243	-2.308656	0.372435
O14	O	1.244243	-1.808656	0.872435
O15	O	0.545974	-2.456048	0.174162
O16	O	1.045974	-1.956048	0.674162
O17	O	0.632737	-2.255982	-0.035163
O18	O	1.132737	-1.755982	0.464837
O19	O	0.637786	-2.497512	0.564115
O20	O	1.137786	-1.997512	1.064115
O21	O	0.935926	-2.497514	0.265983
O22	O	1.435926	-1.997514	0.765983
O23	O	0.336646	-2.255980	0.260919
O24	O	0.836646	-1.755980	0.760919
V25	V	0.626707	-1.885274	0.254896
V26	V	1.126707	-1.385274	0.754896
O27	O	0.935926	-1.938809	0.265983
O28	O	1.435926	-1.438809	0.765983
O29	O	0.336646	-1.867576	0.260919
O30	O	0.836646	-1.367576	0.760919
O31	O	0.632737	-1.867578	-0.035163
O32	O	1.132737	-1.367578	0.464837
O33	O	0.637786	-1.938807	0.564115
O34	O	1.137786	-1.438807	1.064115
V35	V	0.663510	-1.654317	0.291701
V36	V	1.163510	-1.154317	0.791701
O37	O	0.545974	-1.730942	0.174162
O38	O	1.045974	-1.230942	0.674162
O39	O	0.744243	-1.583550	0.372435
O40	O	1.244243	-1.083550	0.872435
O41	O	0.953571	-1.783618	0.285678
O42	O	1.453571	-1.283618	0.785678
O43	O	0.354291	-1.542084	0.280614
O44	O	0.854291	-1.042084	0.780614
O45	O	0.652431	-1.542086	-0.017518
O46	O	1.152431	-1.042086	0.482482
O47	O	0.657480	-1.783616	0.581760
O48	O	1.157480	-1.283616	1.081760
C49	C	1.024318	-2.103363	0.274825
C50	C	1.524318	-1.603363	0.774825
C51	C	1.265891	-2.159792	0.271761
C52	C	1.765891	-1.659792	0.771761
C53	C	0.646638	-2.103367	0.652521
C54	C	1.146638	-1.603367	1.152521
C55	C	0.643590	-2.159800	0.894096
C56	C	1.143590	-1.659800	1.394096
C57	C	0.265885	-1.936230	0.271764
C58	C	0.765885	-1.436230	0.771764
C59	C	0.024311	-1.879799	0.274818
C60	C	0.524311	-1.379799	0.774818
C61	C	0.643592	-1.936238	-0.105910
C62	C	1.143592	-1.436238	0.394090
C63	C	0.646667	-1.879812	-0.347481
C64	C	1.146667	-1.379812	0.152519
