data_functionalizedCrystal
_audit_creation_method	'MofGen! by Chris Wilmer'
_symmetry_space_group_name_H-M	'P1'
_symmetry_Int_Tables_number	1
_symmetry_cell_setting	triclinic
loop_
_symmetry_equiv_pos_as_xyz
  x,y,z
_cell_length_a	6.817900
_cell_length_b	16.306198
_cell_length_c	10.943624
_cell_angle_alpha	93.793008
_cell_angle_beta	108.838799
_cell_angle_gamma	103.467075
loop_
_atom_site_label
_atom_site_type_symbol
_atom_site_fract_x
_atom_site_fract_y
_atom_site_fract_z
V1	V	-4.088178	-0.116697	-0.403008
O2	O	-4.074522	0.005630	-0.394866
O3	O	-4.039276	-0.231412	-0.400703
O4	O	-4.066563	-0.114892	-0.578567
O5	O	-4.047045	-0.111696	-0.215771
V6	V	-4.568401	-0.102066	-0.380558
O7	O	-4.356677	-0.148790	-0.452253
O8	O	-4.750099	-0.069973	-0.331312
O9	O	-4.394097	0.012649	-0.382862
O10	O	-4.699454	-0.224393	-0.388699
O11	O	-4.726930	-0.107067	-0.567794
O12	O	-4.366809	-0.103871	-0.204998
C13	C	-3.883288	-0.259377	-0.394462
C14	C	-3.924769	-0.353158	-0.393749
C15	C	-4.075322	-0.693909	-0.391138
C16	C	-4.280573	-0.663362	-0.398732
C17	C	-4.237827	-0.565871	-0.399973
C18	C	-4.000632	-0.524859	-0.392432
C19	C	-3.967455	-0.570296	-0.512194
C20	C	-4.012060	-0.667915	-0.511600
C21	C	-3.885969	-0.642798	-0.264680
C22	C	-3.846179	-0.545148	-0.263937
C23	C	-3.958411	-0.429319	-0.393168
C24	C	-4.117540	-0.789450	-0.390411
C25	C	-3.918095	-0.110743	-0.621344
C26	C	-3.981702	-0.110026	-0.764867
C27	C	-3.827662	-0.105200	-0.841996
C28	C	-4.000250	-0.176842	-0.948266
C29	C	-3.922477	-0.037115	-0.914333
C30	C	-4.153485	-0.181736	-0.869261
C31	C	-4.075646	-0.041945	-0.835304
C32	C	-4.248366	-0.113608	-0.941545
C33	C	-4.213426	0.040610	-0.389100
C34	C	-4.151184	0.134390	-0.389822
C35	C	-4.178619	-0.108022	-0.162215
C36	C	-4.094250	-0.108735	-0.018690
H37	H	-3.870903	-0.514559	-0.175273
H38	H	-3.732755	-0.661967	-0.257917
C39	C	-4.280813	-0.524047	-0.284311
N40	N	-4.313178	-0.492548	-0.197184
H41	H	-4.426844	-0.117180	-0.984803
C42	C	-3.586668	-0.100529	-0.783267
N43	N	-3.405158	-0.097016	-0.739029
H44	H	-4.078408	-0.557038	-0.607287
C45	C	-4.352764	-0.685596	-0.282576
N46	N	-4.407133	-0.702344	-0.195080
C47	C	-3.958083	-0.253881	-1.014710
N48	N	-3.926307	-0.311902	-1.064752
H49	H	-3.670216	-0.516206	-0.250930
H50	H	-3.825432	0.023992	-0.934856
H51	H	-4.421370	-0.698903	-0.489960
H52	H	-4.358101	-0.553623	-0.492195
C53	C	-4.284604	-0.264401	-0.841835
N54	N	-4.383351	-0.326666	-0.821174
C55	C	-3.933825	-0.665379	-0.140922
N56	N	-3.969896	-0.682388	-0.047715
C57	C	-3.810605	-0.695442	-0.511241
N58	N	-3.658878	-0.716172	-0.510983
C59	C	-4.192824	-0.713878	-0.640217
N60	N	-4.328983	-0.748493	-0.737093
C61	C	-3.736789	-0.534425	-0.510904
N62	N	-3.563050	-0.507405	-0.509931
H63	H	-4.106774	0.015087	-0.786097
