data_functionalizedCrystal
_audit_creation_method	'MofGen! by Chris Wilmer'
_symmetry_space_group_name_H-M	'P1'
_symmetry_Int_Tables_number	1
_symmetry_cell_setting	triclinic
loop_
_symmetry_equiv_pos_as_xyz
  x,y,z
_cell_length_a	15.995350
_cell_length_b	15.995350
_cell_length_c	15.072220
_cell_angle_alpha	90.001101
_cell_angle_beta	89.991149
_cell_angle_gamma	83.492375
loop_
_atom_site_label
_atom_site_type_symbol
_atom_site_fract_x
_atom_site_fract_y
_atom_site_fract_z
O1	O	1.110996	0.107921	-0.073703
O2	O	1.610996	0.607921	0.426297
O3	O	0.867221	0.121249	-0.073721
O4	O	1.367221	0.621249	0.426279
O5	O	0.995772	-0.007303	-0.073710
O6	O	1.495772	0.492697	0.426290
O7	O	0.982444	0.236472	-0.073713
O8	O	1.482444	0.736472	0.426287
O9	O	0.995740	-0.007296	0.073855
O10	O	1.495740	0.492704	0.573855
O11	O	0.867189	0.121256	0.073844
O12	O	1.367189	0.621256	0.573844
O13	O	1.110964	0.107928	0.073862
O14	O	1.610964	0.607928	0.573862
Zn15	Zn	0.989071	0.114593	0.097283
Zn16	Zn	1.489071	0.614593	0.597283
Zn17	Zn	0.989113	0.114584	-0.097141
Zn18	Zn	1.489113	0.614584	0.402859
O19	O	0.982413	0.236480	0.073852
O20	O	1.482413	0.736480	0.573852
C21	C	0.836010	0.120701	0.000060
C22	C	1.336010	0.620701	0.500060
C23	C	0.743060	0.119049	0.000053
C24	C	1.243060	0.619049	0.500053
C25	C	0.405312	0.113117	0.000071
C26	C	0.905312	0.613117	0.500071
C27	C	0.452746	0.021565	0.000401
C28	C	0.952746	0.521565	0.500401
C29	C	0.549436	0.023217	0.000063
C30	C	1.049436	0.523217	0.500063
C31	C	0.572873	0.116060	0.000063
C32	C	1.072873	0.616060	0.500063
C33	C	0.531804	0.161212	-0.084201
C34	C	1.031804	0.661212	0.415799
C35	C	0.435168	0.158912	-0.084266
C36	C	0.935168	0.658912	0.415734
C37	C	0.434793	0.160812	0.083543
C38	C	0.934793	0.660812	0.583543
C39	C	0.531738	0.160790	0.084651
C40	C	1.031738	0.660790	0.584651
C41	C	0.667570	0.117727	0.000055
C42	C	1.167570	0.617727	0.500055
C43	C	0.310614	0.111452	0.000073
C44	C	0.810614	0.611452	0.500073
C45	C	0.995205	-0.038494	0.000070
C46	C	1.495205	0.461506	0.500070
C47	C	0.993553	-0.131444	0.000065
C48	C	1.493553	0.368556	0.500065
C49	C	0.987621	-0.469192	0.000068
C50	C	1.487621	0.030808	0.500068
C51	C	0.896069	-0.421758	-0.000270
C52	C	1.396069	0.078242	0.499730
C53	C	0.897721	-0.325068	0.000063
C54	C	1.397721	0.174932	0.500063
C55	C	0.990564	-0.301631	0.000066
C56	C	1.490564	0.198369	0.500066
C57	C	1.035702	-0.342705	0.084335
C58	C	1.535702	0.157295	0.584335
C59	C	1.033402	-0.439341	0.084405
C60	C	1.533402	0.060659	0.584405
C61	C	1.035330	-0.439707	-0.083404
C62	C	1.535330	0.060293	0.416596
C63	C	1.035308	-0.342761	-0.084518
C64	C	1.535308	0.157239	0.415482
C65	C	0.992231	-0.206934	0.000068
C66	C	1.492231	0.293066	0.500068
C67	C	0.985956	-0.563890	0.000072
C68	C	1.485956	-0.063890	0.500072
C69	C	1.142175	0.108476	0.000080
C70	C	1.642175	0.608476	0.500080
C71	C	1.235125	0.110127	0.000081
C72	C	1.735125	0.610127	0.500081
C73	C	0.982980	0.267671	0.000069
C74	C	1.482980	0.767671	0.500069
C75	C	0.984631	0.360621	0.000069
C76	C	1.484631	0.860621	0.500069
N77	N	0.989049	0.114599	0.229971
N78	N	1.489049	0.614599	0.729971
N79	N	0.989142	0.114571	-0.229830
N80	N	1.489142	0.614571	0.270170
C81	C	0.989112	0.114580	0.589173
C82	C	1.489112	0.614580	1.089173
C83	C	0.920095	0.183135	0.551560
C84	C	1.420095	0.683135	1.051560
C85	C	0.920254	0.183385	0.448735
C86	C	1.420254	0.683385	0.948735
C87	C	0.989080	0.114590	0.410969
C88	C	1.489080	0.614590	0.910969
C89	C	1.076445	0.133671	0.448266
C90	C	1.576445	0.633671	0.948266
C91	C	1.076058	0.134159	0.551124
C92	C	1.576058	0.634159	1.051124
C93	C	0.971542	0.026741	0.551272
C94	C	1.471542	0.526741	1.051272
C95	C	0.969537	0.027327	0.448409
C96	C	1.469537	0.527327	0.948409
C97	C	0.989067	0.114593	0.310255
C98	C	1.489067	0.614593	0.810255
C99	C	0.989130	0.114579	0.689886
C100	C	1.489130	0.614579	1.189886
H101	H	0.414244	0.130885	0.147414
H102	H	0.914244	0.630885	0.647414
H103	H	0.545929	0.229421	-0.087335
H104	H	1.045929	0.729421	0.412665
Br105	Br	0.811499	0.164485	0.592797
Br106	Br	1.311499	0.664485	1.092797
Br107	Br	0.938544	0.291174	0.594606
Br108	Br	1.438544	0.791174	1.094606
Br109	Br	1.149389	-0.319166	0.089567
Br110	Br	1.649389	0.180834	0.589567
H111	H	0.433165	-0.014865	-0.059694
H112	H	0.933165	0.485135	0.440306
Br113	Br	0.985455	-0.473933	-0.189860
Br114	Br	1.485455	0.026067	0.310140
H115	H	0.862238	-0.296649	-0.060344
H116	H	1.362238	0.203351	0.439656
Br117	Br	1.055428	-0.058290	0.591809
Br118	Br	1.555428	0.441710	1.091809
H119	H	0.559041	0.127829	0.146989
H120	H	1.059041	0.627829	0.646989
H121	H	0.434211	-0.015027	0.060830
H122	H	0.934211	0.484973	0.560830
Br123	Br	0.557338	0.273639	0.093135
Br124	Br	1.057338	0.773639	0.593135
Br125	Br	0.595862	-0.036083	-0.100965
Br126	Br	1.095862	0.463917	0.399035
H127	H	0.931473	0.248570	0.424121
H128	H	1.431473	0.748570	0.924121
Br129	Br	0.978494	-0.469844	0.189390
Br130	Br	1.478494	0.030156	0.689390
Br131	Br	0.811999	0.164495	0.406702
Br132	Br	1.311999	0.664495	0.906702
H133	H	1.129019	0.086195	0.576003
H134	H	1.629019	0.586195	1.076003
H135	H	0.859490	-0.440293	-0.060701
H136	H	1.359490	0.059707	0.439299
Br137	Br	1.047886	-0.061689	0.405580
Br138	Br	1.547886	0.438311	0.905580
H139	H	0.416873	0.125979	-0.147255
H140	H	0.916873	0.625979	0.352745
Br141	Br	0.838134	-0.278611	0.100906
Br142	Br	1.338134	0.221389	0.600906
Br143	Br	1.145428	-0.493094	0.090793
Br144	Br	1.645428	0.006906	0.590793
H145	H	1.092297	0.197002	0.422498
H146	H	1.592297	0.697002	0.922498
Br147	Br	1.101863	0.240930	0.591101
Br148	Br	1.601863	0.740930	1.091101
Br149	Br	0.983408	-0.295400	0.188855
Br150	Br	1.483408	0.204600	0.688855
Br151	Br	0.381415	0.270939	-0.090639
Br152	Br	0.881415	0.770939	0.409361
H153	H	1.129029	0.085068	0.423801
H154	H	1.629029	0.585068	0.923801
H155	H	0.909219	0.008392	0.577258
H156	H	1.409219	0.508392	1.077258
Br157	Br	0.862421	0.003187	0.407783
Br158	Br	1.362421	0.503187	0.907783
Br159	Br	0.596803	-0.035940	0.100740
Br160	Br	1.096803	0.464060	0.600740
Br161	Br	0.381858	0.273317	0.084494
Br162	Br	0.881858	0.773317	0.584494
Br163	Br	0.579114	0.108935	-0.188727
Br164	Br	1.079114	0.608935	0.311273
H165	H	0.859626	-0.441349	0.059819
H166	H	1.359626	0.058651	0.559819
H167	H	1.002306	-0.315516	-0.146857
H168	H	1.502306	0.184484	0.353143
H169	H	1.103014	-0.327400	-0.089603
H170	H	1.603014	0.172600	0.410397
Br171	Br	1.147835	-0.492642	-0.084346
Br172	Br	1.647835	0.007358	0.415654
