data_functionalizedCrystal
_audit_creation_method	'MofGen! by Chris Wilmer'
_symmetry_space_group_name_H-M	'P1'
_symmetry_Int_Tables_number	1
_symmetry_cell_setting	triclinic
loop_
_symmetry_equiv_pos_as_xyz
  x,y,z
_cell_length_a	9.065215
_cell_length_b	19.188930
_cell_length_c	8.140239
_cell_angle_alpha	89.991371
_cell_angle_beta	89.997810
_cell_angle_gamma	84.079739
loop_
_atom_site_label
_atom_site_type_symbol
_atom_site_fract_x
_atom_site_fract_y
_atom_site_fract_z
O1	O	1.956849	0.102360	-0.136616
O2	O	1.527272	0.110759	-0.136625
O3	O	1.754457	0.005000	-0.136588
O4	O	1.729664	0.208119	-0.136653
O5	O	1.754445	0.004999	0.136639
O6	O	1.527260	0.110757	0.136602
O7	O	1.956837	0.102359	0.136611
Zn8	Zn	1.742046	0.106558	0.179987
Zn9	Zn	1.742063	0.106559	-0.180001
O10	O	1.729652	0.208117	0.136574
C11	C	1.472308	0.109951	-0.000012
C12	C	1.308548	0.107539	-0.000015
C13	C	1.753648	-0.021018	0.000030
C14	C	1.751238	-0.098541	0.000044
C15	C	1.884543	-0.142430	0.000055
C16	C	1.882279	-0.215272	0.000028
C17	C	1.746702	-0.244221	0.000024
C18	C	1.613380	-0.200322	0.000004
C19	C	1.615648	-0.127482	0.000014
N20	N	1.643065	-0.353031	0.093006
N21	N	1.640920	-0.422226	0.093000
C22	C	1.739860	-0.463683	-0.000009
N23	N	1.841049	-0.433331	-0.092992
N24	N	1.843199	-0.364130	-0.092979
C25	C	1.744228	-0.323202	0.000012
C26	C	1.870719	-0.586555	-0.000029
C27	C	1.868449	-0.659397	-0.000066
C28	C	1.599546	-0.644446	-0.000073
C29	C	1.601820	-0.571605	-0.000053
C30	C	1.737410	-0.542664	-0.000024
C31	C	2.011802	0.103166	-0.000005
C32	C	2.175561	0.105578	-0.000014
C33	C	1.730461	0.234135	-0.000048
C34	C	1.732871	0.311659	-0.000073
N35	N	1.742046	0.106556	0.425670
N36	N	1.742075	0.106556	-0.425684
H37	H	1.994951	-0.118871	0.000073
O38	O	2.011681	-0.257986	0.000269
C39	C	2.018403	-0.300563	0.141797
H40	H	1.901322	-0.304986	0.188951
H41	H	2.085609	-0.276186	0.240898
C42	C	2.236916	-0.368592	0.040909
C43	C	2.093115	-0.374030	0.098817
H44	H	2.283007	-0.413910	0.014402
H45	H	2.232391	-0.339906	-0.054439
H46	H	2.292902	-0.348276	0.123504
H47	H	2.037126	-0.394338	0.016216
H48	H	2.097631	-0.402721	0.194151
O49	O	1.486013	-0.084945	0.000085
C50	C	1.365858	-0.126112	0.000025
H51	H	1.403649	-0.180232	0.051740
H52	H	1.324286	-0.131545	-0.131061
C53	C	1.193300	-0.024161	0.043657
C54	C	1.239712	-0.090631	0.107188
H55	H	1.115484	-0.002274	0.109754
H56	H	1.274249	0.003574	0.043692
H57	H	1.158667	-0.028698	-0.065580
H58	H	1.274362	-0.086092	0.216415
H59	H	1.158765	-0.118364	0.107174
H60	H	1.493268	-0.535870	-0.000053
H61	H	1.502992	-0.223897	-0.000003
O62	O	2.002553	-0.558551	-0.000103
C63	C	2.119731	-0.612913	-0.000081
H64	H	2.078696	-0.662640	-0.051813
H65	H	2.160837	-0.622970	0.130994
C66	C	2.298031	-0.530461	-0.043702
C67	C	2.247635	-0.591535	-0.107253
H68	H	2.376932	-0.517274	-0.109803
H69	H	2.219087	-0.493836	-0.043710
H70	H	2.332275	-0.538850	0.065527
H71	H	2.213374	-0.583143	-0.216471
H72	H	2.326576	-0.628159	-0.107265
O73	O	1.997912	-0.702061	-0.000354
C74	C	2.004647	-0.744638	-0.141853
H75	H	1.929045	-0.718435	-0.240759
H76	H	1.966809	-0.797838	-0.109882
C77	C	2.258101	-0.786858	-0.084523
C78	C	2.165254	-0.754673	-0.206006
H79	H	2.357171	-0.793052	-0.124093
H80	H	2.253563	-0.758176	0.010812
H81	H	2.226551	-0.831189	-0.057891
H82	H	2.196793	-0.710340	-0.232620
H83	H	2.169802	-0.783348	-0.301347
H84	H	1.489157	-0.668016	-0.000085
