data_functionalizedCrystal
_audit_creation_method	'MofGen! by Chris Wilmer'
_symmetry_space_group_name_H-M	'P1'
_symmetry_Int_Tables_number	1
_symmetry_cell_setting	triclinic
loop_
_symmetry_equiv_pos_as_xyz
  x,y,z
_cell_length_a	17.077404
_cell_length_b	12.759400
_cell_length_c	12.759393
_cell_angle_alpha	89.969241
_cell_angle_beta	89.979867
_cell_angle_gamma	90.013391
loop_
_atom_site_label
_atom_site_type_symbol
_atom_site_fract_x
_atom_site_fract_y
_atom_site_fract_z
Zn1	Zn	1.200113	-0.418195	-0.594076
Zn2	Zn	1.200040	-0.593915	-0.418400
Zn3	Zn	1.068843	-0.418251	-0.418406
Zn4	Zn	1.068835	-0.593833	-0.594032
O5	O	1.134458	-0.506048	-0.506229
O6	O	1.309950	-0.441515	-0.570788
O7	O	1.182610	-0.570670	-0.271380
O8	O	1.086290	-0.271222	-0.441730
O9	O	1.309897	-0.570616	-0.441720
O10	O	1.182733	-0.271181	-0.570795
O11	O	1.086220	-0.441611	-0.271384
O12	O	0.958995	-0.441532	-0.441687
O13	O	1.086276	-0.570476	-0.741059
O14	O	0.958989	-0.570531	-0.570719
O15	O	1.182725	-0.441436	-0.741091
O16	O	1.182602	-0.740925	-0.441676
O17	O	1.086206	-0.740865	-0.570713
C18	C	0.930510	-0.506029	-0.506200
C19	C	0.843260	-0.506046	-0.506212
C20	C	1.134416	-0.779016	-0.506212
C21	C	1.134471	-0.895792	-0.506240
C22	C	0.802287	-0.573318	-0.573291
C23	C	0.720307	-0.573320	-0.573308
C24	C	0.679301	-0.506055	-0.506240
C25	C	0.720279	-0.438777	-0.439158
C26	C	0.802258	-0.438770	-0.439147
C27	C	0.549409	-0.438797	-0.439183
C28	C	0.467424	-0.438805	-0.439192
C29	C	0.467458	-0.573347	-0.573344
C30	C	0.549437	-0.573341	-0.573333
C31	C	0.590410	-0.506063	-0.506249
C32	C	1.184664	-0.950553	-0.573499
C33	C	1.184700	-1.060277	-0.573524
C34	C	1.084349	-1.060470	-0.439023
C35	C	1.084309	-0.950748	-0.439004
C36	C	1.242603	-0.950443	-0.651149
C37	C	1.242640	-1.060167	-0.651174
C38	C	1.339202	-0.506068	-0.506258
C39	C	1.426452	-0.506077	-0.506271
C40	C	1.134507	-0.505941	-0.780262
C41	C	1.134529	-0.505895	-0.897039
C42	C	1.134520	-0.232015	-0.506268
C43	C	1.134547	-0.115238	-0.506285
C44	C	1.084356	-0.573032	-1.061610
C45	C	1.084326	-0.573062	-0.951886
C46	C	1.184758	-0.438685	-0.951921
C47	C	1.184784	-0.438650	-1.061643
C48	C	1.026375	-0.650617	-1.061589
C49	C	1.026345	-0.650647	-0.951865
C50	C	1.134453	-0.506080	-0.233261
C51	C	1.134584	-0.505829	-0.116485
H52	H	0.686950	-0.628100	-0.627929
H53	H	1.303456	-1.089903	-0.629464
H54	H	1.226278	-0.920624	-0.732494
C55	C	1.223020	-0.260792	-0.918183
C56	C	1.239938	-0.364846	-0.891636
H57	H	1.257084	-0.215208	-0.880961
H58	H	1.230228	-0.251165	-0.991374
H59	H	1.170274	-0.245432	-0.900198
H60	H	1.292682	-0.380208	-0.909627
H61	H	1.232736	-0.374478	-0.818428
H62	H	0.686885	-0.384004	-0.384554
C63	C	0.894462	-0.714658	-0.587641
C64	C	0.847356	-0.647259	-0.647016
H65	H	0.922279	-0.760309	-0.633161
H66	H	0.930596	-0.674596	-0.547700
H67	H	0.862452	-0.754792	-0.541805
H68	H	0.879367	-0.607120	-0.692846
H69	H	0.811218	-0.687326	-0.686975
H70	H	0.582767	-0.384003	-0.384566
C71	C	0.951395	-0.917144	-0.387671
C72	C	1.029130	-0.890558	-0.365075
H73	H	0.917330	-0.879990	-0.342022
H74	H	0.939880	-0.899114	-0.458235
H75	H	0.944253	-0.990358	-0.378062
H76	H	1.036273	-0.817345	-0.374692
H77	H	1.040648	-0.908581	-0.294493
C78	C	0.793996	-0.305799	-0.306529
C79	C	0.847298	-0.364833	-0.365402
H80	H	0.821803	-0.260157	-0.260998
H81	H	0.762045	-0.265665	-0.352374
H82	H	0.761999	-0.351543	-0.266275
H83	H	0.879292	-0.319088	-0.405663
H84	H	0.879263	-0.404970	-0.319551
H85	H	1.042645	-0.732013	-0.922069
C86	C	1.039849	-1.228753	-0.379335
C87	C	1.029217	-1.120881	-0.365115
H88	H	1.005815	-1.266044	-0.333699
H89	H	1.028336	-1.246686	-0.449907
H90	H	1.092605	-1.246687	-0.364023
H91	H	0.976461	-1.102946	-0.380434
H92	H	1.040723	-1.102941	-0.294526
C93	C	1.261721	-1.072067	-0.837237
C94	C	1.213225	-1.106069	-0.755495
H95	H	1.243562	-1.100412	-0.901636
H96	H	1.260689	-0.997721	-0.840768
H97	H	1.313802	-1.095025	-0.824750
H98	H	1.161145	-1.083104	-0.767978
H99	H	1.214249	-1.180430	-0.751966
C100	C	1.334414	-0.938408	-0.509190
C101	C	1.320562	-0.904446	-0.611895
H102	H	1.382545	-0.910016	-0.484960
H103	H	1.293014	-0.915482	-0.465083
H104	H	1.337090	-1.012761	-0.507881
H105	H	1.317880	-0.830094	-0.613204
H106	H	1.361974	-0.927366	-0.656014
H107	H	1.225678	-0.383920	-1.106318
H108	H	0.965591	-0.628811	-1.091367
H109	H	1.048144	-0.727900	-1.095606
C110	C	0.897207	-0.585454	-0.987655
C111	C	0.948381	-0.611316	-0.905920
H112	H	0.849077	-0.561176	-0.959287
H113	H	0.919948	-0.531950	-1.029565
H114	H	0.887880	-0.645707	-1.029537
H115	H	0.957712	-0.551061	-0.864043
H116	H	0.925635	-0.664824	-0.863993
H117	H	0.434094	-0.628124	-0.627969
C118	C	0.641680	-0.588086	-0.714610
C119	C	0.594513	-0.647276	-0.647056
H120	H	0.669511	-0.633732	-0.760120
H121	H	0.609716	-0.542372	-0.754876
H122	H	0.677810	-0.548024	-0.674643
H123	H	0.558379	-0.687333	-0.687022
H124	H	0.626479	-0.693008	-0.606786
C125	C	0.475621	-0.305796	-0.306605
C126	C	0.422348	-0.364859	-0.365479
H127	H	0.447791	-0.260140	-0.261104
H128	H	0.507576	-0.351512	-0.266329
H129	H	0.507618	-0.265664	-0.352460
H130	H	0.390356	-0.404996	-0.319625
H131	H	0.390381	-0.319137	-0.405759
