data_functionalizedCrystal
_audit_creation_method	'MofGen! by Chris Wilmer'
_symmetry_space_group_name_H-M	'P1'
_symmetry_Int_Tables_number	1
_symmetry_cell_setting	triclinic
loop_
_symmetry_equiv_pos_as_xyz
  x,y,z
_cell_length_a	12.594517
_cell_length_b	12.594516
_cell_length_c	16.120297
_cell_angle_alpha	92.877768
_cell_angle_beta	92.884965
_cell_angle_gamma	90.016010
loop_
_atom_site_label
_atom_site_type_symbol
_atom_site_fract_x
_atom_site_fract_y
_atom_site_fract_z
Zn1	Zn	1.596748	-0.454279	-0.471271
Zn2	Zn	1.930082	-0.120946	-0.137938
Zn3	Zn	2.263415	0.212388	0.195395
Zn4	Zn	1.605666	-0.623247	-0.331872
Zn5	Zn	1.939000	-0.289914	0.001461
Zn6	Zn	2.272333	0.043419	0.334795
Zn7	Zn	1.427778	-0.445284	-0.331890
Zn8	Zn	1.761112	-0.111951	0.001443
Zn9	Zn	2.094445	0.221382	0.334777
Zn10	Zn	1.418736	-0.632215	-0.471255
Zn11	Zn	1.752069	-0.298881	-0.137922
Zn12	Zn	2.085402	0.034452	0.195411
O13	O	1.512232	-0.538756	-0.401572
O14	O	1.845566	-0.205423	-0.068239
O15	O	2.178899	0.127910	0.265094
O16	O	1.746877	-0.476704	-0.452779
O17	O	2.080211	-0.143371	-0.119446
O18	O	2.413544	0.189962	0.213888
O19	O	1.589586	-0.592123	-0.215210
O20	O	1.922919	-0.258790	0.118123
O21	O	2.256253	0.074543	0.451456
O22	O	1.450245	-0.297533	-0.350393
O23	O	1.783578	0.035801	-0.017060
O24	O	2.116911	0.369134	0.316273
O25	O	1.753429	-0.600845	-0.350363
O26	O	2.086763	-0.267512	-0.017030
O27	O	2.420096	0.065822	0.316304
O28	O	1.574386	-0.304141	-0.452796
O29	O	1.907720	0.029192	-0.119463
O30	O	2.241053	0.362526	0.213870
O31	O	1.458892	-0.461375	-0.215223
O32	O	1.792226	-0.128041	0.118110
O33	O	2.125559	0.205292	0.451443
O34	O	1.277633	-0.470070	-0.350378
O35	O	1.610966	-0.136736	-0.017045
O36	O	1.944300	0.196597	0.316289
O37	O	1.434833	-0.616128	-0.587922
O38	O	1.768166	-0.282795	-0.254588
O39	O	2.101499	0.050538	0.078745
O40	O	1.270989	-0.607407	-0.452769
O41	O	1.604323	-0.274073	-0.119436
O42	O	1.937656	0.059260	0.213898
O43	O	1.565618	-0.485400	-0.587933
O44	O	1.898951	-0.152066	-0.254600
O45	O	2.232285	0.181267	0.078733
O46	O	1.580817	-0.773382	-0.350347
O47	O	1.914151	-0.440049	-0.017014
O48	O	2.247484	-0.106715	0.316319
O49	O	1.443480	-0.779970	-0.452752
O50	O	1.776813	-0.446637	-0.119418
O51	O	2.110147	-0.113303	0.213915
C52	C	1.235691	-0.538736	-0.401574
C53	C	1.569024	-0.205403	-0.068241
C54	C	1.902358	0.127931	0.265092
C55	C	1.117384	-0.538754	-0.401595
C56	C	1.450718	-0.205421	-0.068261
C57	C	1.784051	0.127913	0.265072
C58	C	0.973792	-0.613574	-0.457182
C59	C	1.307125	-0.280240	-0.123849
C60	C	1.640458	0.053093	0.209485
C61	C	1.049489	-0.634546	-0.381095
C62	C	1.382823	-0.301213	-0.047762
C63	C	1.716156	0.032120	0.285571
C64	C	1.043259	-0.517828	-0.477673
C65	C	1.376592	-0.184495	-0.144340
C66	C	1.709925	0.148838	0.188993
C67	C	0.982301	-0.559807	-0.325443
C68	C	1.315634	-0.226474	0.007891
C69	C	1.648967	0.106860	0.341224
C70	C	0.976060	-0.443048	-0.422072
C71	C	1.309394	-0.109714	-0.088739
C72	C	1.642727	0.223619	0.244595
C73	C	1.051730	-0.463980	-0.345933
C74	C	1.385063	-0.130646	-0.012599
C75	C	1.718396	0.202687	0.320734
C76	C	1.512163	-0.815297	-0.401564
C77	C	1.845496	-0.481964	-0.068231
C78	C	2.178830	-0.148630	0.265103
C79	C	1.512229	-0.933604	-0.401588
C80	C	1.845562	-0.600270	-0.068255
C81	C	2.178896	-0.266937	0.265078
C82	C	1.437527	-1.006476	-0.457247
C83	C	1.770860	-0.673143	-0.123914
C84	C	2.104193	-0.339810	0.209420
C85	C	1.416520	-1.072408	-0.381176
C86	C	1.749853	-0.739074	-0.047843
C87	C	2.083186	-0.405741	0.285490
C88	C	1.533332	-1.078472	-0.477672
C89	C	1.866666	-0.745139	-0.144339
C90	C	2.199999	-0.411806	0.188995
C91	C	1.491173	-0.997974	-0.325477
C92	C	1.824506	-0.664641	0.007856
C93	C	2.157840	-0.331308	0.341189
C94	C	1.608028	-1.004036	-0.422025
C95	C	1.941361	-0.670703	-0.088691
C96	C	2.274694	-0.337369	0.244642
C97	C	1.587061	-1.069932	-0.345901
C98	C	1.920394	-0.736599	-0.012568
C99	C	2.253727	-0.403265	0.320765
C100	C	1.789853	-0.538778	-0.401571
C101	C	2.123186	-0.205444	-0.068237
C102	C	2.456520	0.127889	0.265096
C103	C	1.908159	-0.538787	-0.401570
C104	C	2.241492	-0.205453	-0.068237
C105	C	2.574825	0.127880	0.265097
C106	C	1.498222	-0.552767	-0.619023
C107	C	1.831555	-0.219434	-0.285690
C108	C	2.164889	0.113899	0.047644
C109	C	1.492252	-0.558738	-0.711688
C110	C	1.825585	-0.225405	-0.378354
C111	C	2.158918	0.107928	-0.045021
C112	C	1.512330	-0.261137	-0.401599
C113	C	1.845663	0.072196	-0.068265
C114	C	2.178996	0.405529	0.265068
C115	C	1.512371	-0.142832	-0.401610
C116	C	1.845704	0.190501	-0.068277
C117	C	2.179038	0.523834	0.265057
C118	C	1.481312	-0.569615	-0.881347
C119	C	1.814645	-0.236282	-0.548013
C120	C	2.147979	0.097051	-0.214680
C121	C	1.543362	-0.507578	-0.922649
C122	C	1.876695	-0.174245	-0.589316
C123	C	2.210029	0.159088	-0.255983
C124	C	1.537275	-0.513631	-1.017054
C125	C	1.870609	-0.180297	-0.683720
C126	C	2.203942	0.153036	-0.350387
C127	C	1.487397	-0.563565	-0.786934
C128	C	1.820731	-0.230231	-0.453601
C129	C	2.154064	0.103102	-0.120267
C130	C	1.526249	-0.524723	-0.184967
C131	C	1.859583	-0.191390	0.148366
C132	C	2.192916	0.141944	0.481699
C133	C	1.532426	-0.518452	-0.092303
C134	C	1.865759	-0.185119	0.241030
C135	C	2.199092	0.148214	0.574363
H136	H	0.939693	-0.676875	-0.504142
H137	H	1.273026	-0.343541	-0.170809
H138	H	1.606360	-0.010208	0.162525
H139	H	0.943825	-0.362122	-0.439430
H140	H	1.277158	-0.028789	-0.106097
H141	H	1.610491	0.304544	0.227237
F142	F	1.467797	-0.952140	-0.241363
F143	F	1.801131	-0.618807	0.091970
F144	F	2.134464	-0.285473	0.425303
F145	F	1.078473	-0.494674	-0.561781
F146	F	1.411806	-0.161341	-0.228448
F147	F	1.745139	0.171992	0.104886
H148	H	1.374251	-0.978490	-0.504247
H149	H	1.707584	-0.645157	-0.170914
H150	H	2.040917	-0.311824	0.162419
F151	F	1.405909	-0.644976	-0.927797
F152	F	1.739243	-0.311642	-0.594463
F153	F	2.072576	0.021691	-0.261130
F154	F	1.091596	-0.740352	-0.358436
F155	F	1.424930	-0.407019	-0.025103
F156	F	1.758263	-0.073685	0.308230
F157	F	1.310709	-1.111715	-0.358587
F158	F	1.644042	-0.778382	-0.025254
F159	F	1.977376	-0.445048	0.308080
F160	F	1.713807	-0.964698	-0.444641
F161	F	2.047141	-0.631365	-0.111308
F162	F	2.380474	-0.298032	0.222025
F163	F	1.618791	-0.432234	-0.876199
F164	F	1.952125	-0.098901	-0.542866
F165	F	2.285458	0.234433	-0.209532
F166	F	1.556588	-1.124481	-0.561760
F167	F	1.889921	-0.791148	-0.228427
F168	F	2.223254	-0.457815	0.104906
F169	F	0.947266	-0.583084	-0.241309
F170	F	1.280599	-0.249750	0.092024
F171	F	1.613933	0.083583	0.425358
H172	H	1.650298	-1.097714	-0.298788
H173	H	1.983631	-0.764381	0.034546
H174	H	2.316965	-0.431047	0.367879
H175	H	1.085640	-0.400717	-0.298860
H176	H	1.418973	-0.067384	0.034474
H177	H	1.752306	0.265949	0.367807
