data_functionalizedCrystal
_audit_creation_method	'MofGen! by Chris Wilmer'
_symmetry_space_group_name_H-M	'P1'
_symmetry_Int_Tables_number	1
_symmetry_cell_setting	triclinic
loop_
_symmetry_equiv_pos_as_xyz
  x,y,z
_cell_length_a	15.995363
_cell_length_b	15.072220
_cell_length_c	12.837942
_cell_angle_alpha	89.999686
_cell_angle_beta	90.836832
_cell_angle_gamma	89.990650
loop_
_atom_site_label
_atom_site_type_symbol
_atom_site_fract_x
_atom_site_fract_y
_atom_site_fract_z
O1	O	-1.121655	0.073717	0.133673
O2	O	-0.879196	0.073732	0.150160
O3	O	-0.995049	0.073719	-0.008987
O4	O	-1.005802	0.073730	0.292819
O5	O	-0.995018	-0.073846	-0.008978
O6	O	-0.879165	-0.073833	0.150168
O7	O	-1.121624	-0.073849	0.133682
Zn8	Zn	-1.000389	-0.097270	0.141926
Zn9	Zn	-1.000430	0.097154	0.141915
O10	O	-1.005771	-0.073835	0.292828
C11	C	-0.847932	-0.000048	0.149480
C12	C	-0.754818	-0.000042	0.147430
C13	C	-0.416485	-0.000064	0.140067
C14	C	-0.454876	-0.000397	0.026724
C15	C	-0.551729	-0.000057	0.028774
C16	C	-0.584336	-0.000054	0.143719
C17	C	-0.547727	0.084211	0.199618
C18	C	-0.450865	0.084275	0.196766
C19	C	-0.450677	-0.083534	0.199117
C20	C	-0.547620	-0.084641	0.199096
C21	C	-0.679198	-0.000045	0.145789
C22	C	-0.321623	-0.000067	0.138001
N23	N	-1.000368	-0.229959	0.141934
C24	C	-1.000428	-0.589160	0.141911
C25	C	-0.938184	-0.551546	0.226781
C26	C	-0.938367	-0.448720	0.227091
C27	C	-1.000397	-0.410956	0.141922
C28	C	-1.089647	-0.448252	0.165551
C29	C	-1.089308	-0.551110	0.166154
C30	C	-0.974182	-0.551263	0.033160
C31	C	-0.972235	-0.448399	0.033885
C32	C	-1.000385	-0.310243	0.141927
C33	C	-1.000446	-0.689873	0.141909
C34	C	-0.152889	-0.000068	0.134347
C35	C	-0.246003	-0.000075	0.136356
C36	C	-0.991401	-0.000062	-0.047603
C37	C	-0.980568	-0.000060	-0.162681
N38	N	-1.000458	0.229842	0.141899
C39	C	-1.110805	-0.000050	-0.403632
C40	C	-1.100630	-0.000048	-0.511759
C41	C	-0.950043	-0.000047	-0.487062
C42	C	-0.960219	-0.000050	-0.378936
C43	C	-1.040602	-0.000052	-0.337225
C44	C	-1.050776	-0.000061	-0.229097
C45	C	-0.900190	-0.000054	-0.204402
C46	C	-0.890015	-0.000052	-0.312529
C47	C	-1.009419	-0.000052	0.331444
C48	C	-1.020252	-0.000048	0.446522
H49	H	-0.429317	0.147263	0.155991
C50	C	-1.028609	-0.413689	-0.055435
H51	H	-1.070248	-0.375743	-0.027883
H52	H	-0.995717	-0.381578	-0.103561
H53	H	-1.054663	-0.462343	-0.089952
H54	H	-1.111755	-0.422481	0.243959
H55	H	-0.571667	-0.146980	0.158290
H56	H	-0.872304	-0.423506	0.213012
C57	C	-0.416265	0.089467	0.309174
H58	H	-0.461416	0.091534	0.356379
H59	H	-0.382881	0.038658	0.323485
H60	H	-0.383167	0.141435	0.317008
H61	H	-0.568591	0.087347	0.284065
H62	H	-0.573017	0.146921	0.160786
H63	H	-1.176257	-0.000061	-0.369671
H64	H	-0.906538	-0.424023	0.015953
H65	H	-1.019473	-0.575586	-0.029998
H66	H	-1.137532	-0.575990	0.106776
C67	C	-1.118761	-0.583510	0.273298
H68	H	-1.130816	-0.533810	0.316048
H69	H	-1.167691	-0.618597	0.264566
H70	H	-1.075931	-0.618098	0.305393
C71	C	-1.139193	-0.000061	-0.183215
H72	H	-1.179545	-0.000050	-0.238255
H73	H	-1.146289	-0.051520	-0.141549
H74	H	-1.146298	0.051405	-0.141549
H75	H	-1.157798	-0.000044	-0.565824
C76	C	-0.822961	-0.000059	-0.131357
H77	H	-0.773633	-0.000066	-0.171688
H78	H	-0.823804	0.051395	-0.088655
H79	H	-0.823795	-0.051530	-0.088672
H80	H	-0.427172	-0.147406	0.162065
H81	H	-1.137430	-0.423788	0.105380
H82	H	-0.569672	-0.089728	0.282918
H83	H	-0.955651	-0.577383	0.307029
H84	H	-0.910047	-0.577250	0.010440
C85	C	-0.861632	-0.000044	-0.532958
H86	H	-0.865630	-0.000046	-0.606865
H87	H	-0.832367	0.051413	-0.510163
H88	H	-0.832356	-0.051512	-0.510171
H89	H	-0.824569	-0.000046	-0.346505
C90	C	-0.584617	0.081688	-0.030983
H91	H	-0.538768	0.114822	-0.056599
H92	H	-0.619060	0.062901	-0.087709
H93	H	-0.616304	0.117785	0.014507
C94	C	-0.848680	-0.585000	0.208091
H95	H	-0.848468	-0.622211	0.148365
H96	H	-0.812729	-0.535802	0.197255
H97	H	-0.829631	-0.617648	0.267122
H98	H	-0.576639	-0.060462	-0.015166
H99	H	-0.432726	-0.060827	-0.018581
H100	H	-0.956025	-0.424105	0.307793
H101	H	-0.425583	-0.084102	0.282685
C102	C	-0.423561	0.080778	-0.034215
H103	H	-0.387195	0.114872	0.009119
H104	H	-0.394254	0.061397	-0.093886
H105	H	-0.469921	0.116154	-0.055455
