data_functionalizedCrystal
_audit_creation_method	'MofGen! by Chris Wilmer'
_symmetry_space_group_name_H-M	'P1'
_symmetry_Int_Tables_number	1
_symmetry_cell_setting	triclinic
loop_
_symmetry_equiv_pos_as_xyz
  x,y,z
_cell_length_a	14.971506
_cell_length_b	14.971494
_cell_length_c	13.448316
_cell_angle_alpha	89.995115
_cell_angle_beta	89.992937
_cell_angle_gamma	83.619973
loop_
_atom_site_label
_atom_site_type_symbol
_atom_site_fract_x
_atom_site_fract_y
_atom_site_fract_z
O1	O	1.186940	0.116650	-0.082695
O2	O	0.926542	0.130590	-0.082695
O3	O	1.063716	-0.006579	-0.082693
O4	O	1.049766	0.253819	-0.082697
O5	O	1.063699	-0.006587	0.082691
O6	O	0.926525	0.130582	0.082689
O7	O	1.186922	0.116642	0.082689
Cu8	Cu	1.056722	0.123611	0.097790
Cu9	Cu	1.056743	0.123621	-0.097796
O10	O	1.049748	0.253811	0.082687
C11	C	0.893209	0.129959	-0.000003
C12	C	0.793913	0.128081	-0.000003
C13	C	1.063083	-0.039908	-0.000002
C14	C	1.061209	-0.139204	-0.000007
C15	C	0.355633	0.201499	-0.000015
C16	C	0.448933	0.203257	-0.000019
C17	C	0.506151	0.122665	-0.000013
C18	C	0.470064	0.040310	-0.000013
C19	C	0.376765	0.038553	-0.000016
C20	C	0.664527	0.043977	-0.000005
C21	C	0.757832	0.045733	-0.000000
C22	C	0.736695	0.208680	-0.000008
C23	C	0.643396	0.206924	-0.000011
C24	C	0.607316	0.124568	-0.000009
C25	C	1.060340	-0.185845	-0.090159
C26	C	1.058574	-0.279144	-0.090160
C27	C	1.057683	-0.325802	-0.000008
C28	C	1.058549	-0.279155	0.090150
C29	C	1.060309	-0.185857	0.090151
C30	C	1.054883	-0.473618	0.090144
C31	C	1.053125	-0.566923	0.090144
C32	C	1.053148	-0.566905	-0.090167
C33	C	1.054908	-0.473607	-0.090167
C34	C	1.055776	-0.426967	-0.000008
C35	C	1.220256	0.117273	-0.000005
C36	C	1.319552	0.119151	-0.000012
C37	C	1.050382	0.287140	-0.000006
C38	C	1.052256	0.386437	-0.000008
N39	N	1.056714	0.123604	0.235354
N40	N	1.056758	0.123622	-0.235360
C41	C	1.117474	0.062890	0.287395
C42	C	1.117480	0.062889	0.391499
C43	C	1.056729	0.123607	0.443559
C44	C	0.995963	0.184323	0.391510
C45	C	0.995954	0.184319	0.287409
C46	C	0.995988	0.184329	0.608490
C47	C	0.995998	0.184335	0.712599
C48	C	1.117514	0.062900	0.712580
C49	C	1.117504	0.062895	0.608479
C50	C	1.056739	0.123613	0.556437
H51	H	0.478305	0.270313	-0.000031
C52	C	1.055837	-0.422310	0.189317
C53	C	0.977980	-0.425075	0.263696
C54	C	0.978938	-0.373765	0.362866
C55	C	1.057753	-0.319690	0.387657
C56	C	1.135616	-0.316923	0.313277
C57	C	1.134658	-0.368233	0.214107
H58	H	0.919631	-0.465106	0.245346
H59	H	0.921298	-0.375814	0.417927
H60	H	1.058462	-0.281708	0.461068
H61	H	1.193965	-0.276892	0.331627
H62	H	1.192298	-0.366184	0.159046
H63	H	0.516658	-0.025309	-0.000014
C64	C	0.624834	-0.046613	0.000003
C65	C	0.646364	-0.113579	0.085894
C66	C	0.606670	-0.204165	0.085910
C67	C	0.545445	-0.227785	0.000034
C68	C	0.523912	-0.160817	-0.085864
C69	C	0.563606	-0.070231	-0.085880
H70	H	0.691689	-0.096096	0.149471
H71	H	0.622611	-0.253739	0.149497
H72	H	0.516061	-0.294842	0.000045
H73	H	0.478587	-0.178301	-0.149441
H74	H	0.547666	-0.020657	-0.149467
C75	C	0.929119	0.251107	0.230160
C76	C	0.862325	0.317927	0.287420
C77	C	0.795484	0.384714	0.230173
C78	C	0.795437	0.384681	0.115666
C79	C	0.862233	0.317858	0.058399
C80	C	0.929074	0.251071	0.115646
H81	H	0.862358	0.317954	0.372191
H82	H	0.746038	0.434181	0.272567
H83	H	0.745958	0.434120	0.073288
H84	H	0.862200	0.317831	-0.026372
H85	H	0.978521	0.201605	0.073253
C86	C	0.337071	-0.052031	-0.000008
C87	C	0.358599	-0.119004	0.085877
C88	C	0.318906	-0.209591	0.085880
C89	C	0.257685	-0.233205	-0.000003
C90	C	0.236154	-0.166230	-0.085894
C91	C	0.275847	-0.075643	-0.085897
H92	H	0.403921	-0.101526	0.149458
H93	H	0.334845	-0.259170	0.149463
H94	H	0.228302	-0.300262	-0.000001
H95	H	0.190832	-0.183708	-0.149475
H96	H	0.259908	-0.026064	-0.149480
H97	H	0.596811	0.272549	-0.000009
C98	C	1.061321	-0.134524	-0.189329
C99	C	1.138694	-0.157417	-0.263707
C100	C	1.139671	-0.106099	-0.362880
C101	C	1.063276	-0.031889	-0.387674
C102	C	0.985897	-0.008992	-0.313295
C103	C	0.984920	-0.060310	-0.214122
H104	H	1.195251	-0.212356	-0.245354
H105	H	1.196953	-0.123049	-0.417940
H106	H	1.064000	0.006100	-0.461088
H107	H	0.929340	0.045946	-0.331648
H108	H	0.927638	-0.043360	-0.159061
H109	H	0.804417	-0.019892	-0.000004
C110	C	0.292697	0.290153	-0.000022
C111	C	0.296821	0.357606	-0.085909
C112	C	0.233887	0.446262	-0.085921
C113	C	0.166830	0.467467	-0.000045
C114	C	0.162704	0.400013	0.085849
C115	C	0.225638	0.311356	0.085860
H116	H	0.346463	0.341911	-0.149486
H117	H	0.236942	0.496196	-0.149505
H118	H	0.120243	0.533096	-0.000053
H119	H	0.113062	0.415708	0.149425
H120	H	0.222583	0.261422	0.149445
H121	H	1.061004	-0.147882	0.163562
C122	C	1.184329	-0.003892	0.551207
C123	C	1.149299	-0.072355	0.479655
C124	C	1.216121	-0.139144	0.422382
C125	C	1.317975	-0.137469	0.436661
C126	C	1.353010	-0.069003	0.508216
C127	C	1.286187	-0.002214	0.565489
H128	H	1.073896	-0.073598	0.469082
H129	H	1.190185	-0.189828	0.369413
H130	H	1.367441	-0.186911	0.394264
H131	H	1.428413	-0.067761	0.518789
H132	H	1.312124	0.048469	0.618459
H133	H	1.057870	-0.317115	-0.163571
C134	C	1.055886	-0.422283	-0.189334
C135	C	1.133258	-0.445168	-0.263715
C136	C	1.134232	-0.393844	-0.362884
C137	C	1.057834	-0.319635	-0.387672
C138	C	0.980456	-0.296745	-0.313290
C139	C	0.979482	-0.348070	-0.214121
H140	H	1.189818	-0.500106	-0.245367
H141	H	1.191513	-0.410789	-0.417947
H142	H	1.058555	-0.281642	-0.461083
H143	H	0.923897	-0.241808	-0.331638
H144	H	0.922202	-0.331125	-0.159058
C145	C	0.929165	0.251120	0.769862
C146	C	0.827315	0.249428	0.755578
C147	C	0.760480	0.316214	0.812839
C148	C	0.795495	0.384693	0.884383
C149	C	0.897351	0.386388	0.898670
C150	C	0.964186	0.319602	0.841409
H151	H	0.801389	0.198733	0.702614
H152	H	0.685079	0.314959	0.802263
H153	H	0.746020	0.434132	0.926771
H154	H	0.923276	0.437082	0.951634
H155	H	1.039586	0.320857	0.851986
H156	H	1.052440	-0.604884	-0.163578
H157	H	0.946503	0.233769	0.566121
C158	C	1.052121	-0.618269	0.189295
C159	C	0.973288	-0.672348	0.214029
C160	C	0.972276	-0.723704	0.313175
C161	C	1.050097	-0.720981	0.387586
C162	C	1.128936	-0.666900	0.362854
C163	C	1.129948	-0.615544	0.263709
H164	H	0.915675	-0.674366	0.158944
H165	H	0.913914	-0.763739	0.331482
H166	H	1.049348	-0.758998	0.460979
H167	H	1.186549	-0.664882	0.417940
H168	H	1.188310	-0.575510	0.245401
H169	H	0.766076	0.275737	-0.000009
H170	H	1.057818	-0.317151	0.163554
H171	H	1.166948	0.013451	0.245015
H172	H	1.166954	0.013451	0.433870
H173	H	1.166990	0.013461	0.754958
H174	H	0.946495	0.233758	0.433903
