data_functionalizedCrystal
_audit_creation_method	'MofGen! by Chris Wilmer'
_symmetry_space_group_name_H-M	'P1'
_symmetry_Int_Tables_number	1
_symmetry_cell_setting	triclinic
loop_
_symmetry_equiv_pos_as_xyz
  x,y,z
_cell_length_a	16.959455
_cell_length_b	16.959453
_cell_length_c	16.959447
_cell_angle_alpha	90.031064
_cell_angle_beta	90.020374
_cell_angle_gamma	90.017008
loop_
_atom_site_label
_atom_site_type_symbol
_atom_site_fract_x
_atom_site_fract_y
_atom_site_fract_z
Zn1	Zn	1.208384	-0.314729	0.447032
Zn2	Zn	1.208307	-0.446921	0.314852
Zn3	Zn	1.076213	-0.314754	0.314856
Zn4	Zn	1.076178	-0.446862	0.446977
O5	O	1.142270	-0.380816	0.380929
O6	O	1.318985	-0.332279	0.429520
O7	O	1.190767	-0.429424	0.204242
O8	O	1.093793	-0.204140	0.332414
O9	O	1.318928	-0.429400	0.332408
O10	O	1.190899	-0.204121	0.429524
O11	O	1.093718	-0.332321	0.204244
O12	O	0.965597	-0.332264	0.332360
O13	O	1.093733	-0.429299	0.557595
O14	O	0.965571	-0.429324	0.429429
O15	O	1.190864	-0.332221	0.557636
O16	O	1.190733	-0.557524	0.332354
O17	O	1.093658	-0.557481	0.429425
C18	C	0.936904	-0.380791	0.380889
C19	C	0.849048	-0.380799	0.380891
C20	C	0.477532	-0.431337	0.330337
C21	C	0.477612	-0.330361	0.431617
C22	C	0.560158	-0.330348	0.431598
C23	C	0.601395	-0.380831	0.380948
C24	C	0.560085	-0.431328	0.330318
C25	C	0.601474	-0.279859	0.482234
C26	C	0.684025	-0.279844	0.482217
C27	C	0.725263	-0.330324	0.431563
C28	C	0.683948	-0.380822	0.380929
C29	C	0.725185	-0.431305	0.330280
C30	C	0.683872	-0.481799	0.279642
C31	C	0.601323	-0.481807	0.279663
C32	C	0.807811	-0.330315	0.431541
C33	C	0.807738	-0.431295	0.330260
C34	C	1.142205	-0.586183	0.380900
C35	C	1.142249	-0.674039	0.380914
C36	C	1.192898	-1.045447	0.431589
C37	C	1.091863	-1.045583	0.330386
C38	C	1.091834	-0.963037	0.330368
C39	C	1.142337	-0.921692	0.380962
C40	C	1.192869	-0.962893	0.431575
C41	C	1.041297	-0.921830	0.279762
C42	C	1.041265	-0.839279	0.279743
C43	C	1.091773	-0.797933	0.330334
C44	C	1.142307	-0.839139	0.380947
C45	C	1.192810	-0.797794	0.431541
C46	C	1.243349	-0.838999	0.482152
C47	C	1.243376	-0.921547	0.482165
C48	C	1.091746	-0.715384	0.330320
C49	C	1.192781	-0.715240	0.431527
C50	C	1.348439	-0.380843	0.380970
C51	C	1.436295	-0.380854	0.380987
C52	C	1.142303	-0.380751	0.587097
C53	C	1.142317	-0.380723	0.674954
C54	C	1.142358	-0.174648	0.380976
C55	C	1.142395	-0.086792	0.380995
C56	C	1.142283	-0.380825	0.175563
C57	C	1.142422	-0.380630	0.087707
C58	C	1.091840	-0.431184	1.046411
C59	C	1.192984	-0.330096	1.046449
C60	C	1.192963	-0.330113	0.963903
C61	C	1.142380	-0.380667	0.922607
C62	C	1.091819	-0.431204	0.963858
C63	C	1.243529	-0.279582	0.922646
C64	C	1.243511	-0.279597	0.840095
C65	C	1.192923	-0.330148	0.798798
C66	C	1.142359	-0.380686	0.840054
C67	C	1.091777	-0.431240	0.798758
C68	C	1.041208	-0.481776	0.840012
C69	C	1.041232	-0.481754	0.922560
C70	C	1.192900	-0.330169	0.716250
C71	C	1.091756	-0.431260	0.716204
H72	H	0.717457	-0.522907	0.238407
C73	C	1.298206	-0.794248	0.537172
C74	C	1.342459	-0.847994	0.581513
C75	C	1.392989	-0.806795	0.632213
H76	H	1.332719	-0.762035	0.507054
H77	H	1.267945	-0.762063	0.571617
H78	H	1.372717	-0.880165	0.547072
H79	H	1.307966	-0.880208	0.611647
H80	H	1.362728	-0.774610	0.666658
H81	H	1.427498	-0.774584	0.602089
H82	H	1.423015	-0.843256	0.662309
H83	H	1.233909	-0.681582	0.472724
C84	C	1.037071	-0.486147	1.091237
C85	C	1.081814	-0.536818	1.138607
C86	C	1.031388	-0.587468	1.179904
H87	H	1.002634	-0.455990	1.123508
H88	H	1.006959	-0.516304	1.054843
H89	H	1.111912	-0.506665	1.174996
H90	H	1.116248	-0.566993	1.106356
H91	H	1.001276	-0.617624	1.143510
H92	H	0.996954	-0.557304	1.212170
H93	H	1.061739	-0.621859	1.212043
C94	C	1.298269	-0.224666	0.795217
C95	C	1.253508	-0.174022	0.747837
C96	C	1.303918	-0.123406	0.706479
H97	H	1.328406	-0.194481	0.831551
H98	H	1.332683	-0.254874	0.762954
H99	H	1.219107	-0.143816	0.780097
H100	H	1.223372	-0.204185	0.711488
H101	H	1.338333	-0.153615	0.674215
H102	H	1.334053	-0.093227	0.742818
H103	H	1.273556	-0.089043	0.674321
C104	C	1.248033	-0.275309	1.091237
C105	C	1.326228	-0.292546	1.071172
C106	C	1.376963	-0.242096	1.112425
H107	H	1.236587	-0.222174	1.077760
H108	H	1.240861	-0.282542	1.146317
H109	H	1.333397	-0.285307	1.016105
H110	H	1.337698	-0.345672	1.084652
H111	H	1.369791	-0.249329	1.167505
H112	H	1.365510	-0.188964	1.098944
H113	H	1.430024	-0.253789	1.098822
H114	H	1.234074	-0.289026	0.682664
H115	H	1.000027	-0.522940	0.806378
C116	C	0.986468	-0.536717	0.967395
C117	C	1.031219	-0.587386	1.014758
C118	C	0.980802	-0.638034	1.056066
H119	H	0.952037	-0.506559	0.999670
H120	H	0.956350	-0.566875	0.931007
H121	H	1.061324	-0.557231	1.051141
H122	H	1.065649	-0.617561	0.982502
H123	H	0.950683	-0.668192	1.019678
H124	H	0.946373	-0.607869	1.088336
H125	H	1.011158	-0.672424	1.088201
C126	C	0.432641	-0.486257	0.275494
C127	C	0.385279	-0.536994	0.320168
C128	C	0.343922	-0.587603	0.269674
H129	H	0.400361	-0.456074	0.241097
H130	H	0.469000	-0.516367	0.245342
H131	H	0.348925	-0.506887	0.350306
H132	H	0.417539	-0.567194	0.354563
H133	H	0.380281	-0.617714	0.239522
H134	H	0.311647	-0.557413	0.235280
H135	H	0.311788	-0.622039	0.299978
H136	H	1.000179	-0.955499	0.238574
H137	H	1.000115	-0.805735	0.238533
H138	H	0.444032	-0.289265	0.472859
C139	C	1.298398	-0.224574	0.967384
C140	C	1.281236	-0.146368	0.947314
C141	C	1.331772	-0.095672	0.988509
H142	H	1.291212	-0.231694	1.022466
H143	H	1.351513	-0.236107	0.953847
H144	H	1.228133	-0.134839	0.960856
H145	H	1.288427	-0.139223	0.892239
H146	H	1.384887	-0.107205	0.974972
H147	H	1.324582	-0.102799	1.043589
H148	H	1.320139	-0.042605	0.974891
H149	H	0.841307	-0.472402	0.289012
H150	H	0.567679	-0.522917	0.238437
C151	C	0.556561	-0.225080	0.537134
C152	C	0.475427	-0.235879	0.526292
C153	C	0.434025	-0.185419	0.576845
H154	H	0.570017	-0.236661	0.590253
H155	H	0.570049	-0.171939	0.525649
H156	H	0.461944	-0.289008	0.537782
H157	H	0.461947	-0.224292	0.473184
H158	H	0.447513	-0.132278	0.565361
H159	H	0.447488	-0.197004	0.629961
H160	H	0.378971	-0.192734	0.569491
C161	C	1.298151	-0.966426	0.537085
C162	C	1.287348	-1.047567	0.526286
C163	C	1.337782	-1.088937	0.576872
H164	H	1.351297	-0.952972	0.525621
H165	H	1.286534	-0.952911	0.590196
H166	H	1.298970	-1.061077	0.473187
H167	H	1.234213	-1.061045	0.537755
H168	H	1.326165	-1.075422	0.629983
H169	H	1.390924	-1.075477	0.565404
H170	H	1.330454	-1.143996	0.569557
C171	C	1.037122	-1.090611	0.275487
C172	C	1.047977	-1.171723	0.286320
C173	C	0.997570	-1.213230	0.235748
H174	H	0.983968	-1.077205	0.286943
H175	H	1.048733	-1.077161	0.222370
H176	H	1.036360	-1.185168	0.339424
H177	H	1.101120	-1.185153	0.274858
H178	H	1.009181	-1.199780	0.182632
H179	H	0.944419	-1.199817	0.247208
H180	H	1.004933	-1.268268	0.243086
C181	C	0.728732	-0.224931	0.537216
C182	C	0.674949	-0.180710	0.581562
C183	C	0.716106	-0.130107	0.632225
H184	H	0.760957	-0.255114	0.571666
H185	H	0.760902	-0.190407	0.507047
H186	H	0.642794	-0.215230	0.611730
H187	H	0.642723	-0.150512	0.547134
H188	H	0.748275	-0.095582	0.602056
H189	H	0.748329	-0.160295	0.666669
H190	H	0.679621	-0.100091	0.662315
C191	C	1.036751	-0.670747	0.275429
C192	C	0.958543	-0.690878	0.292561
C193	C	0.907857	-0.649781	0.242003
H194	H	1.043860	-0.615651	0.282615
H195	H	1.048303	-0.684322	0.222319
H196	H	0.946994	-0.677297	0.345659
H197	H	0.951408	-0.745967	0.285370
H198	H	0.919410	-0.663357	0.188893
H199	H	0.914973	-0.594688	0.249194
H200	H	0.854788	-0.663440	0.253616
H201	H	1.234048	-1.078999	0.472793
C202	C	1.036939	-0.486285	0.671411
C203	C	1.054138	-0.564488	0.691459
C204	C	1.003667	-0.615199	0.650202
H205	H	0.983808	-0.474814	0.684897
H206	H	1.044179	-0.479115	0.616332
H207	H	1.046891	-0.571654	0.746525
H208	H	1.107259	-0.575983	0.677970
H209	H	1.010907	-0.608029	0.595123
H210	H	0.950539	-0.603721	0.663691
H211	H	1.015334	-0.668265	0.663793
C212	C	0.852708	-0.275634	0.486611
C213	C	0.900108	-0.320452	0.537190
C214	C	0.941471	-0.270104	0.587940
H215	H	0.884963	-0.241134	0.456522
H216	H	0.816353	-0.245586	0.516829
H217	H	0.936460	-0.350486	0.506975
H218	H	0.867874	-0.354949	0.567296
H219	H	0.905116	-0.240056	0.618158
H220	H	0.973721	-0.235607	0.557844
H221	H	0.973631	-0.300505	0.622268
