data_functionalizedCrystal
_audit_creation_method	'MofGen! by Chris Wilmer'
_symmetry_space_group_name_H-M	'P1'
_symmetry_Int_Tables_number	1
_symmetry_cell_setting	triclinic
loop_
_symmetry_equiv_pos_as_xyz
  x,y,z
_cell_length_a	19.288864
_cell_length_b	14.044220
_cell_length_c	17.766277
_cell_angle_alpha	89.993125
_cell_angle_beta	89.976791
_cell_angle_gamma	88.162561
loop_
_atom_site_label
_atom_site_type_symbol
_atom_site_fract_x
_atom_site_fract_y
_atom_site_fract_z
O1	O	0.928949	0.118215	-0.062840
O2	O	1.428949	0.618215	0.437160
O3	O	0.727713	0.134161	-0.062789
O4	O	1.227713	0.634161	0.437211
O5	O	0.825310	-0.011784	-0.062806
O6	O	1.325310	0.488216	0.437194
O7	O	0.831351	0.264160	-0.062822
O8	O	1.331351	0.764160	0.437178
O9	O	0.825291	-0.011791	0.062383
O10	O	1.325291	0.488209	0.562383
O11	O	0.727693	0.134154	0.062400
O12	O	1.227693	0.634154	0.562400
O13	O	0.928929	0.118207	0.062349
O14	O	1.428929	0.618207	0.562349
Cu15	Cu	0.828310	0.126180	0.073805
Cu16	Cu	1.328310	0.626180	0.573805
Cu17	Cu	0.828332	0.126189	-0.074245
Cu18	Cu	1.328332	0.626189	0.425755
O19	O	0.831332	0.264152	0.062366
O20	O	1.331332	0.764152	0.562366
C21	C	0.701794	0.133645	-0.000188
C22	C	1.201794	0.633645	0.499812
C23	C	0.624591	0.132104	-0.000168
C24	C	1.124591	0.632104	0.499832
C25	C	0.585397	0.217738	-0.000185
C26	C	1.085397	0.717738	0.499815
C27	C	0.512857	0.216291	-0.000193
C28	C	1.012857	0.716291	0.499807
C29	C	0.479514	0.129205	-0.000200
C30	C	0.979514	0.629205	0.499800
C31	C	0.518717	0.043560	-0.000178
C32	C	1.018717	0.543560	0.499822
C33	C	0.591256	0.045010	-0.000163
C34	C	1.091256	0.545010	0.499837
C35	C	0.366860	0.060749	-0.044080
C36	C	0.866860	0.560749	0.455920
C37	C	0.294323	0.059303	-0.044100
C38	C	0.794323	0.559303	0.455900
C39	C	0.255781	0.124731	-0.000245
C40	C	0.755781	0.624731	0.499755
C41	C	0.289785	0.191621	0.043621
C42	C	0.789785	0.691621	0.543621
C43	C	0.362323	0.193071	0.043637
C44	C	0.862323	0.693071	0.543637
C45	C	0.400858	0.127624	-0.000216
C46	C	0.900858	0.627624	0.499784
C47	C	0.137930	0.208802	-0.000270
C48	C	0.637930	0.708802	0.499730
C49	C	0.065389	0.207351	-0.000273
C50	C	0.565389	0.707351	0.499727
C51	C	0.071251	0.034617	-0.000266
C52	C	0.571251	0.534617	0.499734
C53	C	0.143790	0.036071	-0.000255
C54	C	0.643790	0.536071	0.499745
C55	C	0.177126	0.123165	-0.000260
C56	C	0.677126	0.623165	0.499740
C57	C	0.822656	-0.047091	-0.000211
C58	C	1.322656	0.452909	0.499789
C59	C	0.814768	-0.152283	-0.000208
C60	C	1.314768	0.347717	0.499792
C61	C	0.800348	-0.344882	-0.000215
C62	C	1.300348	0.155118	0.499785
C63	C	0.856291	-0.402755	-0.000231
C64	C	1.356291	0.097245	0.499769
C65	C	0.848267	-0.509924	-0.000235
C66	C	1.348267	-0.009924	0.499765
C67	C	0.808370	-0.237703	-0.000211
C68	C	1.308370	0.262297	0.499789
C69	C	0.954848	0.118724	-0.000254
C70	C	1.454848	0.618724	0.499746
C71	C	1.032051	0.120264	-0.000278
C72	C	1.532051	0.620264	0.499722
C73	C	0.833986	0.299459	-0.000231
C74	C	1.333986	0.799459	0.499769
C75	C	0.841874	0.404651	-0.000239
C76	C	1.341874	0.904651	0.499761
N77	N	0.828299	0.126173	0.177935
N78	N	1.328299	0.626173	0.677935
N79	N	0.828348	0.126188	-0.178375
N80	N	1.328348	0.626188	0.321625
C81	C	0.871532	0.061580	0.217315
C82	C	1.371532	0.561580	0.717315
C83	C	0.871536	0.061576	0.296116
C84	C	1.371536	0.561576	0.796116
C85	C	0.828314	0.126181	0.335536
C86	C	1.328314	0.626181	0.835536
C87	C	0.785072	0.190779	0.296147
C88	C	1.285072	0.690779	0.796147
C89	C	0.785064	0.190775	0.217347
C90	C	1.285064	0.690775	0.717347
C91	C	0.824563	0.212524	0.460370
C92	C	1.324563	0.712524	0.960370
C93	C	0.824575	0.212529	0.539169
C94	C	1.324575	0.712529	1.039169
C95	C	0.828333	0.126192	0.578582
C96	C	1.328333	0.626192	1.078582
C97	C	0.832093	0.039847	0.539187
C98	C	1.332093	0.539847	1.039187
C99	C	0.832085	0.039843	0.460387
C100	C	1.332085	0.539843	0.960387
C101	C	0.828317	0.126192	0.420982
C102	C	1.328317	0.626192	0.920982
C103	C	0.871573	0.061589	0.703407
C104	C	1.371573	0.561589	1.203407
C105	C	0.871572	0.061583	0.782211
C106	C	1.371572	0.561583	1.282211
C107	C	0.785111	0.190794	0.782240
C108	C	1.285111	0.690794	1.282240
C109	C	0.785109	0.190792	0.703438
C110	C	1.285109	0.690792	1.203438
C111	C	0.828343	0.126190	0.664027
C112	C	1.328343	0.626190	1.164027
H113	H	0.480939	0.286027	-0.000205
H114	H	0.980939	0.786027	0.499795
H115	H	0.749916	0.243393	0.814335
H116	H	1.249916	0.743393	1.314335
H117	H	0.266642	0.004841	-0.079822
H118	H	0.766642	0.504841	0.420178
H119	H	0.906734	0.008976	0.185228
H120	H	1.406734	0.508976	0.685228
H121	H	0.746431	-0.375822	-0.000203
H122	H	1.246431	0.124178	0.499797
Br123	Br	0.473468	-0.074629	-0.000179
Br124	Br	0.973468	0.425371	0.499821
Br125	Br	0.726385	0.278442	0.163899
Br126	Br	1.226385	0.778442	0.663899
Br127	Br	0.644452	-0.071217	-0.000138
Br128	Br	1.144452	0.428783	0.499862
Br129	Br	0.026008	-0.083573	-0.000262
Br130	Br	0.526008	0.416427	0.499738
Br131	Br	0.946164	-0.351190	-0.000248
Br132	Br	1.446164	0.148810	0.499752
H133	H	0.258405	0.244899	0.079333
H134	H	0.758405	0.744899	0.579333
H135	H	0.906743	0.008975	0.328185
H136	H	1.406743	0.508975	0.828185
Br137	Br	0.837181	-0.077334	0.406923
Br138	Br	1.337181	0.422666	0.906923
H139	H	0.835153	-0.030457	0.571275
H140	H	1.335153	0.469543	1.071275
Br141	Br	0.726435	0.278460	0.649989
Br142	Br	1.226435	0.778460	1.149989
H143	H	0.906775	0.008983	0.671317
H144	H	1.406775	0.508983	1.171317
Br145	Br	0.419160	-0.028057	-0.103601
Br146	Br	0.919160	0.471943	0.396399
H147	H	0.906775	0.008979	0.814274
H148	H	1.406775	0.508979	1.314274
H149	H	0.165073	0.279719	-0.000263
H150	H	0.665073	0.779719	0.499737
Br151	Br	0.408470	0.283843	0.103168
Br152	Br	0.908470	0.783843	0.603168
H153	H	0.821518	0.282836	0.571239
H154	H	1.321518	0.782836	1.071239
H155	H	0.821491	0.282834	0.428286
H156	H	1.321491	0.782834	0.928286
Br157	Br	0.012195	0.323579	-0.000290
Br158	Br	0.512195	0.823579	0.499710
H159	H	0.749878	0.243379	0.328246
H160	H	1.249878	0.743379	0.828246
H161	H	0.175703	-0.033662	-0.000245
H162	H	0.675703	0.466338	0.499755
H163	H	0.612534	0.288658	-0.000191
H164	H	1.112534	0.788658	0.499809
