data_functionalizedCrystal
_audit_creation_method	'MofGen! by Chris Wilmer'
_symmetry_space_group_name_H-M	'P1'
_symmetry_Int_Tables_number	1
_symmetry_cell_setting	triclinic
loop_
_symmetry_equiv_pos_as_xyz
  x,y,z
_cell_length_a	16.120530
_cell_length_b	16.120297
_cell_length_c	11.169416
_cell_angle_alpha	92.878536
_cell_angle_beta	87.106171
_cell_angle_gamma	90.128140
loop_
_atom_site_label
_atom_site_type_symbol
_atom_site_fract_x
_atom_site_fract_y
_atom_site_fract_z
Zn1	Zn	1.247535	-0.534608	-0.608055
Zn2	Zn	1.254516	-0.395564	-0.799118
Zn3	Zn	1.115522	-0.388525	-0.587774
Zn4	Zn	1.108472	-0.527534	-0.798013
O5	O	1.181511	-0.461558	-0.698240
O6	O	1.364829	-0.522071	-0.642350
O7	O	1.241950	-0.278265	-0.763058
O8	O	1.133063	-0.407918	-0.422518
O9	O	1.369957	-0.419916	-0.782724
O10	O	1.230053	-0.515245	-0.437418
O11	O	1.139832	-0.273093	-0.607784
O12	O	0.998219	-0.401058	-0.606712
O13	O	1.121047	-0.644838	-0.780840
O14	O	0.993039	-0.503187	-0.761174
O15	O	1.223216	-0.650036	-0.641279
O16	O	1.235113	-0.413056	-0.966918
O17	O	1.127816	-0.510013	-0.966106
C18	C	0.965457	-0.450591	-0.681623
C19	C	0.873026	-0.445920	-0.674545
C20	C	0.703795	-0.437397	-0.661594
C21	C	0.660065	-0.485779	-0.734979
C22	C	0.565899	-0.481037	-0.727773
C23	C	0.797970	-0.442138	-0.668798
C24	C	1.170566	-0.678453	-0.713198
C25	C	1.165902	-0.770881	-0.719573
C26	C	1.157356	-0.940106	-0.731181
C27	C	1.205830	-0.983869	-0.664952
C28	C	1.201075	-1.078032	-0.671411
C29	C	1.162110	-0.845935	-0.724724
C30	C	1.398410	-0.472568	-0.714923
C31	C	1.490839	-0.477259	-0.722032
C32	C	1.181479	-0.461550	-1.010062
C33	C	1.181539	-0.461578	-1.143468
C34	C	1.192461	-0.245509	-0.683257
C35	C	1.197286	-0.153090	-0.676557
C36	C	1.181566	-0.461585	-0.385204
C37	C	1.181589	-0.461597	-0.251806
H38	H	0.670514	-0.392418	-0.593362
C39	C	1.115491	-0.964981	-0.933109
C40	C	1.096521	-0.984987	-0.814281
H41	H	1.077932	-0.992692	-0.984409
H42	H	1.170653	-0.982009	-0.955905
H43	H	1.110738	-0.906671	-0.939601
H44	H	1.101279	-1.043296	-0.807786
H45	H	1.041344	-0.967963	-0.791478
C46	C	1.222250	-0.886668	-0.497807
C47	C	1.266671	-0.938995	-0.581843
H48	H	1.259810	-0.858961	-0.446503
H49	H	1.184354	-0.918713	-0.451408
H50	H	1.192471	-0.846832	-0.538522
H51	H	1.296446	-0.978835	-0.541128
H52	H	1.304583	-0.906947	-0.628247
C53	C	0.679940	-0.627854	-0.805510
C54	C	0.704988	-0.546502	-0.827108
H55	H	0.707681	-0.665337	-0.862383
H56	H	0.621642	-0.632588	-0.812694
H57	H	0.693524	-0.640813	-0.726809
H58	H	0.691399	-0.533540	-0.905806
H59	H	0.763300	-0.541765	-0.819935
