data_functionalizedCrystal
_audit_creation_method	'MofGen! by Chris Wilmer'
_symmetry_space_group_name_H-M	'P1'
_symmetry_Int_Tables_number	1
_symmetry_cell_setting	triclinic
loop_
_symmetry_equiv_pos_as_xyz
  x,y,z
_cell_length_a	18.101398
_cell_length_b	18.100771
_cell_length_c	18.101389
_cell_angle_alpha	89.705900
_cell_angle_beta	90.024327
_cell_angle_gamma	90.306223
loop_
_atom_site_label
_atom_site_type_symbol
_atom_site_fract_x
_atom_site_fract_y
_atom_site_fract_z
Zn1	Zn	1.130681	-0.295019	0.420447
Zn2	Zn	1.630681	0.204981	0.920447
Zn3	Zn	1.129972	-0.418852	0.297281
Zn4	Zn	1.629972	0.081148	0.797281
Zn5	Zn	1.006840	-0.295011	0.296608
Zn6	Zn	1.506840	0.204989	0.796608
Zn7	Zn	1.006186	-0.418821	0.421069
Zn8	Zn	1.506186	0.081179	0.921069
O9	O	1.068420	-0.356926	0.358851
O10	O	1.568420	0.143074	0.858851
O11	O	1.234220	-0.311462	0.404130
O12	O	1.734220	0.188538	0.904130
O13	O	1.113615	-0.402435	0.193559
O14	O	1.613615	0.097565	0.693559
O15	O	1.023838	-0.191373	0.312494
O16	O	1.523838	0.308627	0.812494
O17	O	1.233699	-0.402442	0.313640
O18	O	1.733699	0.097558	0.813640
O19	O	1.114823	-0.191379	0.403478
O20	O	1.614823	0.308621	0.903478
O21	O	1.023150	-0.311449	0.193065
O22	O	1.523150	0.188551	0.693065
O23	O	0.903120	-0.311418	0.313097
O24	O	1.403120	0.188582	0.813097
O25	O	1.022724	-0.402388	0.524620
O26	O	1.522724	0.097612	1.024620
O27	O	0.902640	-0.402381	0.404538
O28	O	1.402640	0.097619	0.904538
O29	O	1.114189	-0.311432	0.524163
O30	O	1.614189	0.188568	1.024163
O31	O	1.112981	-0.522487	0.314243
O32	O	1.612981	-0.022487	0.814243
O33	O	1.022036	-0.522464	0.405190
O34	O	1.522036	-0.022464	0.905190
C35	C	0.876009	-0.356896	0.358813
C36	C	1.376009	0.143104	0.858813
C37	C	0.793695	-0.356901	0.358814
C38	C	1.293695	0.143099	0.858814
C39	C	1.067381	-0.549348	0.359873
C40	C	1.567381	-0.049348	0.859873
C41	C	1.067005	-0.631667	0.360335
C42	C	1.567005	-0.131667	0.860335
C43	C	1.068463	-0.356907	0.552013
C44	C	1.568463	0.143093	1.052013
C45	C	1.068481	-0.356899	0.634327
C46	C	1.568481	0.143101	1.134327
C47	C	0.494604	-0.356947	0.358876
C48	C	0.994604	0.143053	0.858876
C49	C	0.526208	-0.299430	0.301622
C50	C	1.026208	0.200570	0.801622
C51	C	0.611825	-0.299584	0.301379
C52	C	1.111825	0.200416	0.801379
C53	C	0.642987	-0.356923	0.358845
C54	C	1.142987	0.143077	0.858845
C55	C	0.611488	-0.434936	0.337946
C56	C	1.111488	0.065064	0.837946
C57	C	0.525844	-0.434617	0.337548
C58	C	1.025844	0.065383	0.837548
C59	C	0.526315	-0.337129	0.437168
C60	C	1.026315	0.162871	0.937168
C61	C	0.611975	-0.335392	0.436730
C62	C	1.111975	0.164608	0.936730
C63	C	0.726846	-0.356915	0.358829
C64	C	1.226846	0.143085	0.858829
C65	C	0.410744	-0.356961	0.358891
C66	C	0.910744	0.143039	0.858891
C67	C	1.261581	-0.356957	0.358891
C68	C	1.761581	0.143043	0.858891
C69	C	1.343895	-0.356970	0.358908
C70	C	1.843895	0.143030	0.858908
C71	C	1.069482	-0.163752	0.357842
C72	C	1.569482	0.336248	0.857842
C73	C	1.069935	-0.081433	0.357411
C74	C	1.569935	0.418567	0.857411
C75	C	1.067987	0.217636	0.359355
C76	C	1.567987	0.717636	0.859355
C77	C	1.125240	0.186305	0.416589
C78	C	1.625240	0.686305	0.916589
C79	C	1.126022	0.100697	0.415865
C80	C	1.626022	0.600697	0.915865
C81	C	1.068953	0.069264	0.358391
C82	C	1.568953	0.569264	0.858391
C83	C	1.089925	0.101502	0.280565
C84	C	1.589925	0.601502	0.780565
C85	C	1.089782	0.187141	0.281454
C86	C	1.589782	0.687141	0.781454
C87	C	0.989827	0.184918	0.379059
C88	C	1.489827	0.684918	0.879059
C89	C	0.990798	0.099258	0.380226
C90	C	1.490798	0.599258	0.880226
C91	C	1.069498	-0.014589	0.357842
C92	C	1.569498	0.485411	0.857842
C93	C	1.067443	0.301489	0.359900
C94	C	1.567443	0.801489	0.859900
C95	C	1.068420	-0.356891	0.166441
C96	C	1.568420	0.143109	0.666441
C97	C	1.068546	-0.356690	0.084126
C98	C	1.568546	0.143310	0.584126
C99	C	1.068525	-0.356760	0.933418
C100	C	1.568525	0.143240	1.433418
C101	C	1.010781	-0.413806	0.902379
C102	C	1.510781	0.086194	1.402379
C103	C	1.010935	-0.414070	0.816762
C104	C	1.510935	0.085930	1.316762
C105	C	1.068502	-0.356829	0.785036
C106	C	1.568502	0.143171	1.285036
C107	C	1.146424	-0.378021	0.816257
C108	C	1.646424	0.121979	1.316257
C109	C	1.146102	-0.378396	0.901904
C110	C	1.646102	0.121604	1.401904
C111	C	1.049026	-0.278396	0.901415
C112	C	1.549026	0.221604	1.401415
C113	C	1.047288	-0.278849	0.815766
C114	C	1.547288	0.221151	1.315766
C115	C	1.068494	-0.356867	0.701176
C116	C	1.568494	0.143133	1.201176
C117	C	1.068538	-0.356724	1.017277
C118	C	1.568538	0.143276	1.517277
H119	H	0.633148	-0.241734	0.314431
H120	H	1.133148	0.258266	0.814431
H121	H	0.632215	-0.312684	0.243358
H122	H	1.132215	0.187316	0.743358
C123	C	0.640629	-0.387869	0.497403
C124	C	1.140629	0.112131	0.997403
N125	N	0.662209	-0.427402	0.543100
N126	N	1.162209	0.072598	1.043100
H127	H	1.086307	-0.234090	0.794138
H128	H	1.586307	0.265910	1.294138
C129	C	0.963603	0.212907	0.454795
C130	C	1.463603	0.712907	0.954795
N131	N	0.943859	0.233988	0.511843
N132	N	1.443859	0.733988	1.011843
C133	C	0.496999	-0.316916	0.223694
C134	C	0.996999	0.183084	0.723694
N135	N	0.474996	-0.330088	0.164999
N136	N	0.974996	0.169912	0.664999
C137	C	0.498669	-0.393722	0.494793
C138	C	0.998669	0.106278	0.994793
N139	N	0.477842	-0.436349	0.538191
N140	N	0.977842	0.063651	1.038191
H141	H	0.947189	0.205170	0.337357
H142	H	1.447189	0.705170	0.837357
H143	H	1.049900	0.207917	0.237337
H144	H	1.549900	0.707917	0.737337
H145	H	1.112871	0.078854	0.473580
H146	H	1.612871	0.578854	0.973580
H147	H	0.974963	0.078088	0.437516
H148	H	1.474963	0.578088	0.937516
C149	C	1.035708	0.074054	0.221006
C150	C	1.535708	0.574054	0.721006
N151	N	0.994870	0.053378	0.176147
N152	N	1.494870	0.553378	0.676147
C153	C	0.498798	-0.221036	0.319049
C154	C	0.998798	0.278964	0.819049
N155	N	0.478147	-0.161988	0.332176
N156	N	0.978147	0.338012	0.832176
H157	H	0.631637	-0.478938	0.378361
H158	H	1.131637	0.021062	0.878361
C159	C	0.932857	-0.396152	0.788249
C160	C	1.432857	0.103848	1.288249
N161	N	0.874045	-0.382658	0.766776
N162	N	1.374045	0.117342	1.266776
H163	H	1.182832	0.208654	0.403714
H164	H	1.682832	0.708654	0.903714
H165	H	1.184218	0.081047	0.402555
H166	H	1.684218	0.581047	0.902555
H167	H	1.146722	0.080921	0.263254
H168	H	1.646722	0.580921	0.763254
H169	H	0.952812	-0.400680	0.922893
H170	H	1.452812	0.099320	1.422893
C171	C	1.166994	0.215304	0.258832
C172	C	1.666994	0.715304	0.758832
N173	N	1.225153	0.236512	0.241794
N174	N	1.725153	0.736512	0.741794
C175	C	1.027962	-0.491801	0.931873
C176	C	1.527962	0.008199	1.431873
N177	N	1.040909	-0.550548	0.954084
N178	N	1.540909	-0.050548	1.454084
C179	C	0.969837	-0.257241	0.788151
C180	C	1.469837	0.242759	1.288151
N181	N	0.911505	-0.240962	0.767336
N182	N	1.411505	0.259038	1.267336
C183	C	0.639827	-0.257830	0.458027
C184	C	1.139827	0.242170	0.958027
N185	N	0.660808	-0.199409	0.474064
N186	N	1.160808	0.300591	0.974064
H187	H	0.946157	0.077791	0.341301
H188	H	1.446157	0.577791	0.841301
H189	H	1.023777	-0.472156	0.796597
H190	H	1.523777	0.027844	1.296597
C191	C	1.107367	0.213008	0.495184
C192	C	1.607367	0.713008	0.995184
N193	N	1.093904	0.233127	0.554384
N194	N	1.593904	0.733127	1.054384
C195	C	1.168488	-0.455787	0.929324
C196	C	1.668488	0.044213	1.429324
N197	N	1.185346	-0.514081	0.949974
N198	N	1.685346	-0.014081	1.449974
C199	C	1.206178	-0.324715	0.929632
C200	C	1.706178	0.175285	1.429632
N201	N	1.251431	-0.284288	0.950514
N202	N	1.751431	0.215712	1.450514
C203	C	1.206089	-0.323658	0.788471
C204	C	1.706089	0.176342	1.288471
N205	N	1.251028	-0.282712	0.767540
N206	N	1.751028	0.217288	1.267540
C207	C	1.169213	-0.454591	0.787713
C208	C	1.669213	0.045409	1.287713
N209	N	1.186373	-0.512266	0.766215
N210	N	1.686373	-0.012266	1.266215
C211	C	1.105852	-0.220979	0.928491
C212	C	1.605852	0.279021	1.428491
N213	N	1.148657	-0.177738	0.948887
N214	N	1.648657	0.322262	1.448887
C215	C	0.498696	-0.457315	0.260241
C216	C	0.998696	0.042685	0.760241
N217	N	0.478252	-0.474408	0.202010
N218	N	0.978252	0.025592	0.702010
C219	C	0.497555	-0.494473	0.391454
C220	C	0.997555	0.005527	0.891454
N221	N	0.476251	-0.539560	0.432053
N222	N	0.976251	-0.039560	0.932053
H223	H	0.632819	-0.452036	0.281344
H224	H	1.132819	0.047964	0.781344
H225	H	0.993213	-0.259090	0.922895
H226	H	1.493213	0.240910	1.422895
H227	H	0.505016	-0.281233	0.456251
H228	H	1.005016	0.218767	0.956251
