data_functionalizedCrystal
_audit_creation_method	'MofGen! by Chris Wilmer'
_symmetry_space_group_name_H-M	'P1'
_symmetry_Int_Tables_number	1
_symmetry_cell_setting	triclinic
loop_
_symmetry_equiv_pos_as_xyz
  x,y,z
_cell_length_a	14.446369
_cell_length_b	16.704494
_cell_length_c	16.704494
_cell_angle_alpha	89.699037
_cell_angle_beta	56.633533
_cell_angle_gamma	56.629811
loop_
_atom_site_label
_atom_site_type_symbol
_atom_site_fract_x
_atom_site_fract_y
_atom_site_fract_z
Zr1	Zr	0.924852	-0.067042	0.811567
O2	O	1.151895	-0.209923	0.668697
O3	O	0.721332	-0.023236	0.855364
O4	O	0.936614	-0.200305	0.845756
O5	O	0.919132	0.106814	0.685886
O6	O	0.919132	-0.192724	0.985424
O7	O	0.936614	-0.032854	0.678305
O8	O	0.534033	0.124020	1.002611
O9	O	1.304232	-0.209930	0.668698
O10	O	0.783284	0.001098	0.978276
O11	O	0.783284	0.099673	0.879701
O12	O	1.036750	-0.108802	0.868388
O13	O	1.036750	-0.010227	0.769813
Zr14	Zr	0.869090	0.167804	1.046411
Zr15	Zr	0.896971	-0.054952	1.034322
Zr16	Zr	0.896971	0.155713	0.823657
Zr17	Zr	1.167811	-0.067052	0.811569
Zr18	Zr	0.626131	0.167814	1.046410
O19	O	1.072610	0.123998	1.002614
O20	O	1.112252	-0.192732	0.985425
O21	O	1.112252	0.106806	0.685887
O22	O	0.642047	0.310685	1.189282
O23	O	0.681689	-0.006045	1.172092
O24	O	0.681689	0.293494	0.872554
O25	O	0.874809	-0.006053	1.172093
O26	O	0.857328	0.301067	1.012223
O27	O	0.874809	0.293486	0.872555
O28	O	0.857328	0.133616	1.179673
O29	O	1.282070	-0.200319	0.845758
O30	O	0.511872	0.301081	1.012221
O31	O	0.489710	0.310691	1.189281
O32	O	0.511872	0.133630	1.179671
O33	O	1.282070	-0.032869	0.678307
O34	O	1.259909	-0.023258	0.855367
O35	O	0.757192	0.209564	0.989590
O36	O	0.757192	0.110988	1.088166
O37	O	1.010658	0.001088	0.978278
O38	O	1.010658	0.099664	0.879702
C39	C	0.593066	0.050394	0.928987
C40	C	0.489924	0.050398	0.928987
C41	C	0.931845	0.035257	0.650358
C42	C	0.943682	0.030125	0.555793
C43	C	0.862096	0.329014	0.944111
C44	C	0.850260	0.423580	0.949244
C45	C	0.342837	0.112888	0.867146
C46	C	0.450535	0.112601	0.866776
C47	C	0.559099	-0.065473	0.874883
C48	C	0.451885	-0.065157	0.874410
C49	C	0.236480	0.102807	1.044924
C50	C	0.342362	0.105109	1.044883
C51	C	1.200876	0.050368	0.928991
C52	C	1.304018	0.050364	0.928992
C53	C	0.931846	-0.228252	0.913867
C54	C	0.943682	-0.322818	0.908735
C55	C	1.092663	0.486533	0.844139
C56	C	1.081549	0.575383	0.848958
C57	C	0.816920	0.690130	0.963694
C58	C	0.828034	0.601280	0.958875
C59	C	0.965910	0.499483	0.899097
C60	C	0.977022	0.410632	0.894284
C61	C	0.712395	0.525380	1.009014
C62	C	0.701281	0.614229	1.013833
C63	C	0.701279	0.135241	0.492828
C64	C	0.712393	0.130421	0.403979
C65	C	0.977022	0.015672	0.289244
C66	C	0.965908	0.020492	0.378094
C67	C	0.828032	0.080277	0.479884
C68	C	0.816920	0.085090	0.568734
C69	C	1.081547	-0.029652	0.453999
C70	C	1.092661	-0.034472	0.365150
C71	C	0.862096	0.065504	1.207621
C72	C	0.850260	0.070637	1.302186
C73	C	0.558192	0.065517	1.207619
C74	C	0.443213	0.070654	1.302183
C75	C	0.558192	0.329027	0.944110
C76	C	0.443213	0.423597	0.949241
C77	C	0.523317	0.344150	1.222741
C78	C	0.396502	0.443853	1.322438
C79	C	1.270625	-0.243388	0.635237
C80	C	1.397439	-0.343091	0.535541
C81	C	1.235750	0.035245	0.650360
C82	C	1.350729	0.030108	0.555795
C83	C	1.235750	-0.228265	0.913869
C84	C	1.350729	-0.322835	0.908737
C85	C	0.402839	0.015695	1.289230
C86	C	0.294822	0.020501	1.378074
C87	C	0.227173	0.080272	1.479870
C88	C	0.267556	0.135232	1.492821
C89	C	0.375579	0.130420	1.403978
C90	C	0.375597	0.525379	1.009013
C91	C	0.267575	0.614246	1.013831
C92	C	0.227165	0.601328	0.958883
C93	C	0.294793	0.499535	0.899104
C94	C	0.402819	0.410670	0.894281
C95	C	0.336948	0.439219	1.420721
C96	C	0.217805	0.532892	1.514405
C97	C	0.158213	0.631198	1.509803
C98	C	0.217779	0.635829	1.411509
C99	C	0.336926	0.542157	1.317828
C100	C	1.457006	-0.338458	0.437257
C101	C	1.576178	-0.432131	0.343574
C102	C	1.635776	-0.530436	0.348176
C103	C	1.576204	-0.535067	0.446470
C104	C	1.457040	-0.441395	0.540151
C105	C	1.391114	0.085057	0.568748
C106	C	1.499161	0.080227	0.479903
C107	C	1.566814	0.020453	0.378106
C108	C	1.526425	-0.034503	0.365155
C109	C	1.418387	-0.029678	0.453999
C110	C	1.391103	-0.309884	0.963698
C111	C	1.499121	-0.398732	0.958897
C112	C	1.566771	-0.500532	0.899129
C113	C	1.526387	-0.513481	0.844167
C114	C	1.418363	-0.424633	0.848974
H115	H	0.399359	0.197754	0.903471
H116	H	0.704653	0.133777	0.651615
H117	H	0.362645	0.064858	1.095401
H118	H	1.408543	-0.445180	0.620175
C119	C	1.543529	-0.384465	1.019357
N120	N	1.576975	-0.373715	1.064895
C121	C	0.704102	-0.121944	0.760478
N122	N	0.813319	-0.164475	0.674309
C123	C	0.410562	0.063819	0.752462
N124	N	0.461574	0.026857	0.666082
C125	C	0.549606	0.726221	1.079744
N126	N	0.435353	0.810576	1.129450
H127	H	0.139214	0.084182	1.552203
H128	H	0.704669	0.773024	1.012357
H129	H	0.212461	0.183896	1.575716
H130	H	0.261956	-0.024255	1.367508
H131	H	0.212523	0.697121	1.062513
H132	H	0.457920	-0.032989	1.206350
C133	C	0.108315	0.699094	0.964211
N134	N	0.018790	0.772736	0.968234
H135	H	0.385401	0.545944	1.237805
C136	C	0.599000	-0.131534	0.932407
N137	N	0.629050	-0.181288	0.975736
C138	C	1.220987	0.561131	0.788504
N139	N	1.326018	0.550394	0.742968
H140	H	0.408436	0.175181	1.414540
C141	C	1.391480	-0.230331	0.432169
N142	N	1.342140	-0.148892	0.428328
H143	H	0.408485	0.535917	1.053759
H144	H	0.553823	0.075972	0.781373
H145	H	1.624662	-0.428339	0.263548
H146	H	0.261874	0.489033	0.854368
H147	H	0.385451	0.359183	1.424488
H148	H	0.457860	0.327798	0.845611
C149	C	0.572957	0.539621	1.069473
N150	N	0.467935	0.550346	1.115011
C151	C	0.152293	0.527774	1.622517
N152	N	0.102949	0.523916	1.703944
C153	C	0.527211	-0.121282	0.758936
N154	N	0.583942	-0.163536	0.671957
C155	C	0.549617	0.200999	0.604799
N156	N	0.435381	0.250531	0.689136
C157	C	1.766849	-0.633470	0.245113
N158	N	1.865569	-0.711071	0.167483
C159	C	0.572955	0.190879	0.418223
N160	N	0.467925	0.236416	0.428955
H161	H	1.089272	-0.032988	0.206356
H162	H	0.061196	0.707464	1.586092
H163	H	1.204927	0.403647	0.795471
C164	C	1.685600	-0.598258	0.893849
N165	N	1.775105	-0.671861	0.889874
H166	H	0.169241	0.715882	1.407778
C167	C	1.600764	-0.625468	0.778468
N168	N	1.656774	-0.709819	0.728996
H169	H	1.624743	-0.615119	0.450204
C170	C	1.316721	0.150811	0.680716
N171	N	1.260701	0.200334	0.765049
C172	C	1.543556	0.140696	0.494173
N173	N	1.576987	0.186244	0.504925
C174	C	1.685651	0.015162	0.280386
N175	N	1.775153	0.011185	0.206787
H176	H	1.204915	-0.083144	0.282263
H177	H	1.184759	-0.074411	0.443465
H178	H	1.581524	-0.083170	0.282261
C179	C	1.316699	-0.197911	1.029457
N180	N	1.260657	-0.113575	1.078997
H181	H	0.239499	0.198238	0.903682
H182	H	0.430833	-0.114643	0.916173
H183	H	1.385510	-0.074423	0.443438
H184	H	0.127440	0.187104	1.089449
H185	H	0.287833	0.190499	1.085239
H186	H	0.210369	0.057568	1.091305
H187	H	1.089288	0.327747	0.845612
H188	H	1.385504	-0.435193	0.804214
