data_functionalizedCrystal
_audit_creation_method	'MofGen! by Chris Wilmer'
_symmetry_space_group_name_H-M	'P1'
_symmetry_Int_Tables_number	1
_symmetry_cell_setting	triclinic
loop_
_symmetry_equiv_pos_as_xyz
  x,y,z
_cell_length_a	12.827893
_cell_length_b	12.827893
_cell_length_c	12.827893
_cell_angle_alpha	90.002525
_cell_angle_beta	89.996214
_cell_angle_gamma	89.996520
loop_
_atom_site_label
_atom_site_type_symbol
_atom_site_fract_x
_atom_site_fract_y
_atom_site_fract_z
Zn1	Zn	-1.597596	-0.416216	0.590883
Zn2	Zn	-1.597574	-0.590924	0.416158
Zn3	Zn	-1.422885	-0.416198	0.416156
Zn4	Zn	-1.422859	-0.590915	0.590857
O5	O	-1.510228	-0.503563	0.503513
O6	O	-1.743829	-0.439402	0.567716
O7	O	-1.574402	-0.567743	0.269921
O8	O	-1.446081	-0.269964	0.439344
O9	O	-1.743813	-0.567760	0.439346
O10	O	-1.574440	-0.269977	0.567715
O11	O	-1.446059	-0.439372	0.269921
O12	O	-1.276645	-0.439363	0.439320
O13	O	-1.446037	-0.567744	0.737097
O14	O	-1.276626	-0.567727	0.567672
O15	O	-1.574416	-0.439393	0.737115
O16	O	-1.574377	-0.737159	0.439322
O17	O	-1.446015	-0.737152	0.567673
C18	C	-1.238719	-0.503543	0.503494
C19	C	-1.122565	-0.503560	0.503510
C20	C	-1.510219	-0.775073	0.503517
C21	C	-1.510311	-0.891226	0.503554
C22	C	-1.782799	-0.503584	0.503534
C23	C	-1.898952	-0.503593	0.503543
C24	C	-1.510226	-0.503570	0.776084
C25	C	-1.510225	-0.503573	0.892237
C26	C	-1.070799	-0.567177	0.566925
C27	C	-0.950749	-0.567196	0.566943
C28	C	-1.510266	-0.230993	0.503532
C29	C	-1.510282	-0.114840	0.503540
C30	C	-1.446779	-0.063049	0.440029
C31	C	-1.446794	0.057002	0.440036
C32	C	-1.573743	-0.440069	0.944031
C33	C	-1.573744	-0.440070	1.064081
C34	C	-1.510223	-0.503580	1.232004
C35	C	-1.510224	-0.503577	1.115850
H36	H	-1.115357	-0.621625	0.621206
H37	H	-1.392431	0.101540	0.385656
H38	H	-0.906231	-0.621664	0.621232
H39	H	-1.628120	-0.385696	0.899496
H40	H	-1.078008	-0.449104	0.449236
H41	H	-1.564685	0.064241	0.557928
H42	H	-1.564657	-0.070305	0.557924
H43	H	-1.628128	-0.385705	1.108622
H44	H	-1.455845	-0.557952	1.071316
H45	H	-1.455838	-0.557935	0.936771
H46	H	-0.943463	-0.449128	0.449245
H47	H	-1.392398	-0.107585	0.385653
