data_functionalizedCrystal
_audit_creation_method	'MofGen! by Chris Wilmer'
_symmetry_space_group_name_H-M	'P1'
_symmetry_Int_Tables_number	1
_symmetry_cell_setting	triclinic
loop_
_symmetry_equiv_pos_as_xyz
  x,y,z
_cell_length_a	10.654550
_cell_length_b	10.540539
_cell_length_c	9.130313
_cell_angle_alpha	89.997616
_cell_angle_beta	89.999724
_cell_angle_gamma	84.505211
loop_
_atom_site_label
_atom_site_type_symbol
_atom_site_fract_x
_atom_site_fract_y
_atom_site_fract_z
O1	O	1.667902	0.178301	-0.121682
O2	O	1.302430	0.195288	-0.121709
O3	O	1.493504	0.002085	-0.121693
O4	O	1.476828	0.371504	-0.121698
O5	O	1.493491	0.002079	0.121906
O6	O	1.302416	0.195282	0.121890
O7	O	1.667889	0.178295	0.121916
Cu8	Cu	1.485152	0.186788	0.144146
Cu9	Cu	1.485167	0.186795	-0.143938
O10	O	1.476815	0.371498	0.121901
C11	C	1.255625	0.194038	0.000087
C12	C	1.116180	0.190306	0.000077
C13	C	1.036735	0.304061	0.000080
C14	C	0.905712	0.300547	0.000105
C15	C	0.933594	0.069513	0.000119
C16	C	1.064614	0.073029	0.000104
C17	C	1.492247	-0.045221	0.000104
C18	C	1.488505	-0.186167	0.000095
C19	C	1.345134	-0.369543	-0.000462
C20	C	1.348927	-0.222926	0.000087
C21	C	1.555669	-0.247852	0.139207
C22	C	1.550905	-0.394395	0.139324
C23	C	1.553759	-0.394908	-0.137693
C24	C	1.555045	-0.247926	-0.139532
C25	C	1.714694	0.179545	0.000117
C26	C	1.854139	0.183277	0.000118
C27	C	1.478072	0.418804	0.000101
C28	C	1.481813	0.559750	0.000099
N29	N	1.485150	0.186783	0.346768
N30	N	1.485179	0.186790	-0.346561
C31	C	1.569786	0.101269	0.423427
C32	C	1.569798	0.101269	0.576764
C33	C	1.400533	0.272308	0.576770
C34	C	1.400516	0.272301	0.423436
H35	H	1.290003	-0.398120	-0.100221
H36	H	1.078715	0.399556	0.000069
H37	H	1.290216	-0.399733	0.098732
H38	H	1.658171	-0.225535	0.144387
H39	H	1.501257	-0.422579	0.243306
H40	H	0.841032	0.393178	0.000111
H41	H	0.891593	-0.025970	0.000150
C42	C	1.684837	-0.458176	0.147849
C43	C	1.769685	-0.364716	0.152868
C44	C	1.893068	-0.423416	0.160751
H45	H	1.701872	-0.510346	0.064004
H46	H	1.693948	-0.509209	0.233662
H47	H	1.760579	-0.313704	0.067065
H48	H	1.752691	-0.312541	0.236710
H49	H	1.902179	-0.474449	0.246563
H50	H	1.910090	-0.475584	0.076903
H51	H	1.950651	-0.360013	0.164171
H52	H	1.295697	-0.181153	0.099967
H53	H	1.331589	0.341937	0.361016
H54	H	1.129302	-0.019610	0.000106
C55	C	1.278341	-0.166315	-0.132915
C56	C	1.231895	-0.264119	-0.214504
C57	C	1.166841	-0.212022	-0.337023
H58	H	1.333962	-0.122951	-0.191930
H59	H	1.210076	-0.108005	-0.101659
H60	H	1.300151	-0.322406	-0.245762
H61	H	1.176257	-0.307491	-0.155533
H62	H	1.098576	-0.153712	-0.305767
H63	H	1.222470	-0.168659	-0.396026
H64	H	1.135310	-0.278371	-0.392389
H65	H	1.505902	-0.207048	-0.242443
C66	C	1.493440	-0.191300	0.277362
C67	C	1.446421	-0.288309	0.359745
C68	C	1.389095	-0.236267	0.487027
H69	H	1.426138	-0.129714	0.251475
H70	H	1.553764	-0.151793	0.333725
H71	H	1.386102	-0.327796	0.303393
H72	H	1.513698	-0.349902	0.385670
H73	H	1.449419	-0.196760	0.543390
H74	H	1.321798	-0.174682	0.461125
H75	H	1.357196	-0.302081	0.542945
C76	C	1.690648	-0.215386	-0.150642
C77	C	1.692406	-0.082941	-0.159168
C78	C	1.817302	-0.052902	-0.169359
H79	H	1.728645	-0.253766	-0.235908
H80	H	1.736179	-0.246456	-0.066481
H81	H	1.646893	-0.051885	-0.243321
H82	H	1.654434	-0.044530	-0.073912
H83	H	1.862833	-0.083971	-0.085198
H84	H	1.855288	-0.091289	-0.254626
H85	H	1.818511	0.036965	-0.175132
C86	C	1.493742	-0.437137	-0.278330
C87	C	1.582588	-0.515612	-0.358062
C88	C	1.527327	-0.554550	-0.487605
H89	H	1.465890	-0.364431	-0.335295
H90	H	1.423844	-0.483048	-0.255149
H91	H	1.652463	-0.469702	-0.381247
H92	H	1.610447	-0.588336	-0.301141
H93	H	1.457429	-0.600462	-0.464423
H94	H	1.499477	-0.481838	-0.544557
H95	H	1.587597	-0.607809	-0.541712
C96	C	1.661717	0.008272	0.340451
C97	C	1.735815	-0.066641	0.440413
C98	C	1.820503	-0.152339	0.364035
H99	H	1.714516	0.054277	0.280616
H100	H	1.616092	-0.045071	0.280682
H101	H	1.781436	-0.013305	0.500158
H102	H	1.683051	-0.112673	0.500252
H103	H	1.774879	-0.205682	0.304266
H104	H	1.873293	-0.106323	0.304202
H105	H	1.870781	-0.203185	0.431847
C106	C	1.308452	0.365008	0.659940
C107	C	1.184856	0.343230	0.622697
C108	C	1.099998	0.428591	0.699296
H109	H	1.322668	0.449917	0.634863
H110	H	1.320502	0.352759	0.762253
H111	H	1.172812	0.355490	0.520406
H112	H	1.170601	0.258338	0.647777
H113	H	1.112048	0.416341	0.801610
H114	H	1.114225	0.513494	0.674214
H115	H	1.016129	0.413818	0.674048
H116	H	1.654576	-0.442170	-0.138622
H117	H	1.638715	0.031634	0.639175
