data_functionalizedCrystal
_audit_creation_method	'MofGen! by Chris Wilmer'
_symmetry_space_group_name_H-M	'P1'
_symmetry_Int_Tables_number	1
_symmetry_cell_setting	triclinic
loop_
_symmetry_equiv_pos_as_xyz
  x,y,z
_cell_length_a	6.817900
_cell_length_b	15.866870
_cell_length_c	16.255661
_cell_angle_alpha	112.481265
_cell_angle_beta	103.488922
_cell_angle_gamma	102.655915
loop_
_atom_site_label
_atom_site_type_symbol
_atom_site_fract_x
_atom_site_fract_y
_atom_site_fract_z
V1	V	-4.052302	-0.133532	-0.305528
O2	O	-4.013114	0.005619	-0.257095
O3	O	-4.028858	-0.264004	-0.344425
O4	O	-4.003538	-0.131828	-0.420080
O5	O	-4.038609	-0.127472	-0.180917
V6	V	-4.532744	-0.116847	-0.285644
O7	O	-4.320320	-0.170133	-0.349144
O8	O	-4.714923	-0.080246	-0.242028
O9	O	-4.332981	0.013626	-0.246747
O10	O	-4.689329	-0.255998	-0.334077
O11	O	-4.663834	-0.122906	-0.410255
O12	O	-4.358302	-0.118551	-0.171093
C13	C	-3.879942	-0.295800	-0.350182
C14	C	-3.942057	-0.402465	-0.382749
C15	C	-3.847642	-0.127194	-0.446685
C16	C	-3.889220	-0.126665	-0.540600
C17	C	-3.931920	-0.683662	-0.080662
C18	C	-3.990297	-0.783895	-0.111292
C19	C	-4.076067	-0.811728	-0.274974
C20	C	-4.017687	-0.711496	-0.244357
C21	C	-3.945618	-0.647470	-0.147200
C22	C	-4.031385	-0.675303	-0.310896
C23	C	-3.973020	-0.575079	-0.280281
C24	C	-3.900957	-0.511048	-0.183129
C25	C	-3.887253	-0.547246	-0.116586
C26	C	-4.103469	-0.739331	-0.408053
C27	C	-4.117168	-0.703138	-0.474591
C28	C	-4.058788	-0.602912	-0.443977
C29	C	-3.986724	-0.538881	-0.346824
C30	C	-4.072491	-0.566714	-0.510520
C31	C	-4.014126	-0.466491	-0.479906
C32	C	-3.928359	-0.438657	-0.316210
C33	C	-3.798563	-0.120335	-0.761444
C34	C	-3.970636	-0.202032	-0.856407
C35	C	-3.965414	-0.125671	-0.712539
C36	C	-3.867453	-0.043038	-0.784922
C37	C	-4.038997	-0.124707	-0.878622
C38	C	-4.136983	-0.207441	-0.806294
C39	C	-4.033723	-0.048376	-0.734772
C40	C	-4.205937	-0.130096	-0.829722
C41	C	-3.923020	-0.126227	-0.616863
C42	C	-4.081410	-0.124158	-0.974299
C43	C	-4.145241	0.045416	-0.240990
C44	C	-4.062363	0.152080	-0.208429
C45	C	-4.177540	-0.123187	-0.144484
C46	C	-4.115200	-0.123712	-0.050566
H47	H	-3.869641	-0.386522	-0.237094
H48	H	-3.979130	-0.813357	-0.057100
H49	H	-4.250528	-0.276996	-0.814526
H50	H	-3.873202	-0.631528	-0.001546
H51	H	-3.853443	-0.429440	-0.158205
H52	H	-3.626039	-0.116313	-0.731710
H53	H	-4.378604	-0.134245	-0.859363
C54	C	-4.155320	-0.882166	-0.381843
N55	N	-4.214996	-0.935219	-0.462339
H56	H	-3.944413	-0.266995	-0.908759
H57	H	-4.150993	-0.820939	-0.432976
C58	C	-4.196420	-0.773576	-0.581461
N59	N	-4.256097	-0.826629	-0.661956
H60	H	-4.059868	0.016591	-0.682396
H61	H	-3.828535	-0.495111	-0.037470
H62	H	-3.753906	0.026423	-0.776863
C63	C	-4.029192	-0.426676	-0.553101
N64	N	-4.040546	-0.396689	-0.608235
H65	H	-4.131196	-0.618859	-0.589626
