data_functionalizedCrystal
_audit_creation_method	'MofGen! by Chris Wilmer'
_symmetry_space_group_name_H-M	'P1'
_symmetry_Int_Tables_number	1
_symmetry_cell_setting	triclinic
loop_
_symmetry_equiv_pos_as_xyz
  x,y,z
_cell_length_a	10.723024
_cell_length_b	14.971491
_cell_length_c	13.448316
_cell_angle_alpha	89.991393
_cell_angle_beta	89.994589
_cell_angle_gamma	84.042052
loop_
_atom_site_label
_atom_site_type_symbol
_atom_site_fract_x
_atom_site_fract_y
_atom_site_fract_z
O1	O	0.162647	1.187818	-0.082732
O2	O	0.182114	0.927523	-0.082724
O3	O	-0.009258	1.063674	-0.082725
O4	O	0.354020	1.051666	-0.082732
O5	O	-0.009270	1.063657	0.082659
O6	O	0.182102	0.927506	0.082660
O7	O	0.162636	1.187801	0.082652
Cu8	Cu	0.172368	1.057651	0.097757
Cu9	Cu	0.172382	1.057672	-0.097829
O10	O	0.354008	1.051649	0.082652
C11	C	0.181237	0.894185	-0.000031
C12	C	0.178624	0.794874	-0.000028
C13	C	0.167358	0.367117	-0.090202
C14	C	0.169809	0.460431	-0.090198
C15	C	0.171036	0.507074	-0.000044
C16	C	0.169800	0.460400	0.090112
C17	C	0.167340	0.367089	0.090107
C18	C	0.174929	0.654889	0.090116
C19	C	0.177392	0.748206	0.090121
C20	C	0.177398	0.748231	-0.090190
C21	C	0.174939	0.654920	-0.090195
C22	C	0.173705	0.608252	-0.000038
C23	C	-0.055754	1.062792	-0.000034
C24	C	-0.194281	1.060177	-0.000037
C25	C	-0.270058	1.136361	-0.000041
C26	C	-0.413233	1.133660	-0.000044
C27	C	0.400504	1.052531	-0.000041
C28	C	0.539031	1.055146	-0.000044
C29	C	0.163513	1.221139	-0.000043
C30	C	0.166126	1.320449	-0.000053
N31	N	0.172357	1.057644	0.235321
N32	N	0.172383	1.057687	-0.235393
C33	C	0.087653	1.117951	0.287361
C34	C	0.087652	1.117956	0.391464
C35	C	0.172362	1.057658	0.443525
C36	C	0.257071	0.997345	0.391478
C37	C	0.257065	0.997336	0.287377
C38	C	0.257079	0.997370	0.608458
C39	C	0.257087	0.997380	0.712567
C40	C	0.087666	1.117990	0.712546
C41	C	0.087660	1.117981	0.608444
C42	C	0.172371	1.057668	0.556404
H43	H	0.173948	0.616945	-0.163606
O44	O	-0.003707	1.183011	0.552286
H45	H	-0.062621	1.224945	0.605960
H46	H	0.326040	0.948245	0.433872
H47	H	0.178405	0.786232	-0.163599
H48	H	0.326066	0.948278	0.754950
H49	H	-0.478346	1.198879	-0.000043
H50	H	-0.395864	0.989924	-0.000034
O51	O	0.348449	0.932325	0.552323
H52	H	0.407367	0.890404	0.606011
O53	O	-0.003714	1.183039	0.768665
H54	H	0.010506	1.172909	0.849800
O55	O	0.178684	0.798523	0.187355
H56	H	0.177386	0.750399	0.250046
O57	O	-0.003740	1.182980	0.231226
H58	H	-0.064469	1.144943	0.183820
O59	O	-0.248738	0.971128	-0.000026
H60	H	-0.307350	0.966176	-0.067429
H61	H	0.018678	1.167062	0.433835
O62	O	0.348430	0.932295	0.231239
H63	H	0.407345	0.890374	0.284928
H64	H	0.173940	0.616893	0.163531
H65	H	0.170791	0.498384	0.163517
H66	H	0.166368	0.329147	-0.163616
O67	O	0.166178	0.316566	0.187232
H68	H	0.081726	0.341758	0.230628
O69	O	0.171145	0.510769	-0.187430
H70	H	0.169896	0.462657	-0.250120
H71	H	-0.228937	1.203583	-0.000037
