data_functionalizedCrystal
_audit_creation_method	'MofGen! by Chris Wilmer'
_symmetry_space_group_name_H-M	'P1'
_symmetry_Int_Tables_number	1
_symmetry_cell_setting	triclinic
loop_
_symmetry_equiv_pos_as_xyz
  x,y,z
_cell_length_a	19.288864
_cell_length_b	19.288865
_cell_length_c	18.366186
_cell_angle_alpha	89.988521
_cell_angle_beta	89.977106
_cell_angle_gamma	83.136245
loop_
_atom_site_label
_atom_site_type_symbol
_atom_site_fract_x
_atom_site_fract_y
_atom_site_fract_z
O1	O	0.921353	0.086649	-0.060791
O2	O	1.421353	0.586649	0.439209
O3	O	0.719092	0.098337	-0.060743
O4	O	1.219092	0.598337	0.439257
O5	O	0.826067	-0.008637	-0.060754
O6	O	1.326067	0.491363	0.439246
O7	O	0.814378	0.193623	-0.060780
O8	O	1.314378	0.693623	0.439220
O9	O	0.826049	-0.008643	0.060345
O10	O	1.326049	0.491357	0.560345
O11	O	0.719074	0.098332	0.060357
O12	O	1.219074	0.598332	0.560357
O13	O	0.921335	0.086643	0.060308
O14	O	1.421335	0.586643	0.560308
Zn15	Zn	0.820201	0.092487	0.079559
Zn16	Zn	1.320201	0.592487	0.579559
Zn17	Zn	0.820225	0.092494	-0.079994
Zn18	Zn	1.320225	0.592494	0.420006
O19	O	0.814360	0.193618	0.060319
O20	O	1.314360	0.693618	0.560319
C21	C	0.693207	0.097959	-0.000187
C22	C	1.193207	0.597959	0.499813
C23	C	0.616103	0.096830	-0.000167
C24	C	1.116103	0.596830	0.499833
C25	C	0.571407	0.159598	-0.000187
C26	C	1.071407	0.659598	0.499813
C27	C	0.498960	0.158537	-0.000195
C28	C	0.998960	0.658537	0.499805
C29	C	0.471212	0.094705	-0.000198
C30	C	0.971212	0.594705	0.499802
C31	C	0.515918	0.031929	-0.000174
C32	C	1.015918	0.531929	0.499826
C33	C	0.588364	0.032991	-0.000159
C34	C	1.088364	0.532991	0.499841
C35	C	0.362956	0.044527	-0.042642
C36	C	0.862956	0.544527	0.457358
C37	C	0.290512	0.043468	-0.042662
C38	C	0.790512	0.543468	0.457338
C39	C	0.247767	0.091425	-0.000241
C40	C	0.747767	0.591425	0.499759
C41	C	0.277473	0.140454	0.042189
C42	C	0.777473	0.640454	0.542189
C43	C	0.349918	0.141517	0.042205
C44	C	0.849918	0.641517	0.542205
C45	C	0.392658	0.093546	-0.000214
C46	C	0.892658	0.593546	0.499786
C47	C	0.124514	0.153047	-0.000269
C48	C	0.624514	0.653047	0.499731
C49	C	0.052066	0.151984	-0.000272
C50	C	0.552066	0.651984	0.499728
C51	C	0.069026	0.025374	-0.000259
C52	C	0.569026	0.525374	0.499741
C53	C	0.141473	0.026439	-0.000248
C54	C	0.641473	0.526439	0.499752
C55	C	0.169212	0.090278	-0.000256
C56	C	0.669212	0.590278	0.499744
C57	C	0.825682	-0.034516	-0.000202
C58	C	1.325682	0.465484	0.499798
C59	C	0.824553	-0.111620	-0.000195
C60	C	1.324553	0.388380	0.499805
C61	C	0.887321	-0.156316	-0.000207
C62	C	1.387321	0.343684	0.499793
C63	C	0.886260	-0.228763	-0.000218
C64	C	1.386260	0.271237	0.499782
C65	C	0.822428	-0.256511	-0.000203
C66	C	1.322428	0.243489	0.499797
C67	C	0.759652	-0.211805	-0.000196
C68	C	1.259652	0.288195	0.499804
C69	C	0.760714	-0.139359	-0.000192
C70	C	1.260714	0.360641	0.499808
C71	C	0.772242	-0.364800	0.042227
C72	C	1.272242	0.135200	0.542227
C73	C	0.771182	-0.437245	0.042228
C74	C	1.271182	0.062755	0.542228
C75	C	0.819148	-0.479956	-0.000219
C76	C	1.319148	0.020044	0.499781
C77	C	0.868186	-0.450216	-0.042657
C78	C	1.368186	0.049784	0.457343
C79	C	0.869248	-0.377771	-0.042653
C80	C	1.369248	0.122229	0.457347
C81	C	0.821269	-0.335065	-0.000208
C82	C	1.321269	0.164935	0.499792
C83	C	0.880770	-0.603209	-0.000244
C84	C	1.380770	-0.103209	0.499756
C85	C	0.879707	-0.675657	-0.000259
C86	C	1.379707	-0.175657	0.499741
C87	C	0.753097	-0.658697	-0.000230
C88	C	1.253097	-0.158697	0.499770
C89	C	0.754162	-0.586250	-0.000221
C90	C	1.254162	-0.086250	0.499779
C91	C	0.818001	-0.558511	-0.000225
C92	C	1.318001	-0.058511	0.499775
C93	C	0.947220	0.087022	-0.000250
C94	C	1.447220	0.587022	0.499750
C95	C	1.024324	0.088151	-0.000274
C96	C	1.524324	0.588151	0.499726
C97	C	0.814745	0.219497	-0.000234
C98	C	1.314745	0.719497	0.499766
C99	C	0.815874	0.296601	-0.000246
C100	C	1.315874	0.796601	0.499754
N101	N	0.820190	0.092482	0.188451
N102	N	1.320190	0.592482	0.688451
N103	N	0.820242	0.092493	-0.188885
N104	N	1.320242	0.592493	0.311115
C105	C	0.867574	0.045137	0.226546
C106	C	1.367574	0.545137	0.726546
C107	C	0.867578	0.045134	0.302774
C108	C	1.367578	0.545134	0.802774
C109	C	0.820206	0.092488	0.340903
C110	C	1.320206	0.592488	0.840903
C111	C	0.772813	0.139836	0.302799
C112	C	1.272813	0.639836	0.802799
C113	C	0.772805	0.139834	0.226572
C114	C	1.272805	0.639834	0.726572
C115	C	0.810907	0.155775	0.461657
C116	C	1.310907	0.655775	0.961657
C117	C	0.810920	0.155779	0.537882
C118	C	1.310920	0.655779	1.037882
C119	C	0.820225	0.092496	0.576011
C120	C	1.320225	0.592496	1.076011
C121	C	0.829533	0.029207	0.537905
C122	C	1.329533	0.529207	1.037905
C123	C	0.829525	0.029204	0.461679
C124	C	1.329525	0.529204	0.961679
C125	C	0.820208	0.092496	0.423558
C126	C	1.320208	0.592496	0.923558
C127	C	0.867617	0.045144	0.696761
C128	C	1.367617	0.545144	1.196761
C129	C	0.867616	0.045140	0.772990
C130	C	1.367616	0.545140	1.272990
C131	C	0.772854	0.139849	0.773014
C132	C	1.272854	0.639849	1.273014
C133	C	0.772851	0.139847	0.696786
C134	C	1.272851	0.639847	1.196786
C135	C	0.820236	0.092495	0.658664
C136	C	1.320236	0.592495	1.158664
H137	H	0.015674	0.203099	-0.000284
H138	H	0.515674	0.703099	0.499716
N139	N	0.721743	0.190912	0.655692
N140	N	1.221743	0.690912	1.155692
H141	H	0.691732	0.220910	0.691411
H142	H	1.191732	0.720910	1.191411
H143	H	0.748230	0.221552	0.624041
H144	H	1.248230	0.721552	1.124041
H145	H	0.266331	0.003548	-0.077215
H146	H	0.766331	0.503548	0.422785
H147	H	0.242671	0.179506	0.076733
H148	H	0.742671	0.679506	0.576733
N149	N	0.718290	-0.469309	0.087999
N150	N	1.218290	0.030691	0.587999
H151	H	0.688025	-0.495366	0.055505
H152	H	1.188025	0.004634	0.555505
H153	H	0.743396	-0.502755	0.124275
H154	H	1.243396	-0.002755	0.624275
H155	H	0.837102	-0.022328	0.430657
H156	H	1.337102	0.477672	0.930657
N157	N	0.450743	0.226241	-0.000219
N158	N	0.950743	0.726241	0.499781
H159	H	0.459671	0.254097	-0.045115
H160	H	0.959671	0.754097	0.454885
H161	H	0.400660	0.215823	-0.000201
H162	H	0.900660	0.715823	0.499799
H163	H	0.937375	-0.265162	-0.000231
H164	H	1.437375	0.234838	0.499769
N165	N	0.922130	-0.345694	-0.088427
N166	N	1.422130	0.154306	0.411573
H167	H	0.915523	-0.293321	-0.081980
H168	H	1.415523	0.206679	0.418020
H169	H	0.970790	-0.364903	-0.072576
H170	H	1.470790	0.135097	0.427424
H171	H	0.707679	-0.234401	-0.000185
H172	H	1.207679	0.265599	0.499815
N173	N	0.918719	-0.005927	0.655637
N174	N	1.418719	0.494073	1.155637
H175	H	0.948735	-0.035925	0.691341
H176	H	1.448735	0.464075	1.191341
H177	H	0.892225	-0.036566	0.624029
H178	H	1.392225	0.463434	1.124029
H179	H	0.046435	-0.026600	-0.000306
H180	H	0.546435	0.473400	0.499694
N181	N	0.956172	-0.126397	-0.000212
N182	N	1.456172	0.373603	0.499788
H183	H	0.995774	-0.165710	-0.000222
H184	H	1.495774	0.334290	0.499778
H185	H	0.959380	-0.096699	-0.045104
H186	H	1.459380	0.403301	0.454896
H187	H	0.397755	0.005473	-0.077191
H188	H	0.897755	0.505473	0.422809
H189	H	0.907244	-0.484991	-0.077221
H190	H	1.407244	0.015009	0.422779
H191	H	0.147101	0.205028	-0.000265
H192	H	0.647101	0.705028	0.499735
H193	H	0.177866	-0.024674	-0.000236
H194	H	0.677866	0.475326	0.499764
N195	N	0.949620	-0.573283	-0.000251
N196	N	1.449620	-0.073283	0.499749
H197	H	0.989224	-0.612594	-0.000266
H198	H	1.489224	-0.112594	0.499734
H199	H	0.952825	-0.543581	-0.045140
H200	H	1.452825	-0.043581	0.454860
H201	H	0.703049	-0.549857	-0.000208
H202	H	1.203049	-0.049857	0.499792
N203	N	0.947410	-0.723869	-0.000275
N204	N	1.447410	-0.223869	0.499725
H205	H	0.988009	-0.695300	-0.000274
H206	H	1.488009	-0.195300	0.499726
H207	H	0.949714	-0.754308	0.044615
H208	H	1.449714	-0.254308	0.544615
N209	N	0.485996	-0.036920	-0.000169
N210	N	0.985996	0.463080	0.499831
H211	H	0.433319	-0.028069	-0.000182
H212	H	0.933319	0.471931	0.499818
H213	H	0.502387	-0.064380	-0.045053
H214	H	1.002387	0.435620	0.454947
H215	H	0.624756	-0.018124	-0.000144
H216	H	1.124756	0.481876	0.499856
N217	N	0.720500	-0.318734	0.088007
N218	N	1.220500	0.181266	0.588007
H219	H	0.689279	-0.348566	0.114894
H220	H	1.189279	0.151434	0.614894
H221	H	0.746494	-0.292107	0.124241
H222	H	1.246494	0.207893	0.624241
N223	N	0.381961	0.194390	0.087968
N224	N	0.881961	0.694390	0.587968
H225	H	0.343894	0.224612	0.114841
H226	H	0.843894	0.724612	0.614841
H227	H	0.415422	0.169266	0.124214
H228	H	0.915422	0.669266	0.624214
H229	H	0.906200	0.006582	0.804008
H230	H	1.406200	0.506582	1.304008
H231	H	0.701123	-0.681288	-0.000221
H232	H	1.201123	-0.181288	0.499779
N233	N	0.721753	0.190918	0.814130
N234	N	1.221753	0.690918	1.314130
H235	H	0.729587	0.240198	0.800850
H236	H	1.229587	0.740198	1.300850
H237	H	0.672508	0.182976	0.800871
H238	H	1.172508	0.682976	1.300871
H239	H	0.709599	-0.102967	-0.000182
H240	H	1.209599	0.397033	0.499818
N241	N	0.800876	0.224037	0.578978
N242	N	1.300876	0.724037	1.078978
H243	H	0.839384	0.252906	0.565683
H244	H	1.339384	0.752906	1.065683
H245	H	0.754197	0.250443	0.565711
H246	H	1.254197	0.750443	1.065711
N247	N	0.918678	-0.005935	0.185429
N248	N	1.418678	0.494065	0.685429
H249	H	0.948695	-0.035930	0.221134
H250	H	1.448695	0.464070	0.721134
H251	H	0.892183	-0.036578	0.153826
H252	H	1.392183	0.463422	0.653826
N253	N	0.839574	-0.039055	0.579018
N254	N	1.339574	0.460945	1.079018
H255	H	0.838164	-0.029453	0.633088
H256	H	1.338164	0.470547	1.133088
H257	H	0.801051	-0.067885	0.565718
H258	H	1.301051	0.432115	1.065718
H259	H	0.906165	0.006578	0.333797
H260	H	1.406165	0.506578	0.833797
N261	N	0.800872	0.224035	0.420535
N262	N	1.300872	0.724035	0.920535
H263	H	0.794985	0.264127	0.456239
H264	H	1.294985	0.764127	0.956239
H265	H	0.843052	0.227978	0.388887
H266	H	1.343052	0.727978	0.888887
H267	H	0.734219	0.178388	0.195554
H268	H	1.234219	0.678388	0.695554
N269	N	0.601326	0.228449	-0.000201
N270	N	1.101326	0.728449	0.499799
H271	H	0.562013	0.268051	-0.000217
H272	H	1.062013	0.768051	0.499783
H273	H	0.630990	0.231653	0.044696
H274	H	1.130990	0.731653	0.544696
N275	N	0.721713	0.190908	0.343919
N276	N	1.221713	0.690908	0.843919
H277	H	0.728909	0.183727	0.397989
H278	H	1.228909	0.683727	0.897989
H279	H	0.729575	0.240164	0.330577
H280	H	1.229575	0.740164	0.830577
