data_functionalizedCrystal
_audit_creation_method	'MofGen! by Chris Wilmer'
_symmetry_space_group_name_H-M	'P1'
_symmetry_Int_Tables_number	1
_symmetry_cell_setting	triclinic
loop_
_symmetry_equiv_pos_as_xyz
  x,y,z
_cell_length_a	10.489763
_cell_length_b	12.996460
_cell_length_c	14.519709
_cell_angle_alpha	89.998766
_cell_angle_beta	84.114253
_cell_angle_gamma	89.995654
loop_
_atom_site_label
_atom_site_type_symbol
_atom_site_fract_x
_atom_site_fract_y
_atom_site_fract_z
O1	O	-1.692684	0.085525	-0.130207
O2	O	-1.321365	0.085537	-0.142398
O3	O	-1.516869	0.085521	-0.002118
O4	O	-1.497179	0.085540	-0.270487
O5	O	-1.516844	-0.085613	-0.002126
O6	O	-1.321340	-0.085597	-0.142406
O7	O	-1.692659	-0.085609	-0.130215
Cu8	Cu	-1.506997	-0.101229	-0.136311
Cu9	Cu	-1.507027	0.101157	-0.136302
O10	O	-1.497154	-0.085594	-0.270495
C11	C	-1.273831	-0.000029	-0.141477
C12	C	-1.132231	-0.000024	-0.138709
N13	N	-1.506985	-0.243576	-0.136318
C14	C	-1.506991	-0.336682	-0.136320
C15	C	-1.507003	-0.453487	-0.136314
C16	C	-1.507019	-0.546586	-0.136304
C17	C	-1.507032	-0.663398	-0.136299
C18	C	-1.065023	-0.000041	-0.049442
C19	C	-0.972470	0.084336	-0.091600
C20	C	-0.972478	-0.084388	-0.091629
C21	C	-1.041543	0.084423	-0.180904
C22	C	-1.041562	-0.084377	-0.180921
C23	C	-0.949036	0.000021	-0.223143
C24	C	-0.740196	-0.000044	-0.131121
C25	C	-0.881803	-0.000050	-0.133846
C26	C	-1.515939	-0.000046	0.032242
C27	C	-1.513189	-0.000046	0.134639
N28	N	-1.507048	0.243504	-0.136288
C29	C	-1.498084	-0.000024	-0.304856
C30	C	-1.500834	-0.000017	-0.407252
C31	C	-1.503066	-0.000019	0.509590
C32	C	-1.505877	-0.000027	0.405267
C33	C	-1.508127	-0.000034	0.322118
C34	C	-1.510939	-0.000040	0.217788
H35	H	-1.115477	0.000059	0.023935
H36	H	-1.072204	-0.155712	-0.218664
F37	F	-0.932462	0.177574	-0.042229
F38	F	-1.081332	0.177771	-0.230231
F39	F	-0.883431	0.000085	-0.319152
F40	F	-0.932491	-0.177632	-0.042245
