data_functionalizedCrystal
_audit_creation_method	'MofGen! by Chris Wilmer'
_symmetry_space_group_name_H-M	'P1'
_symmetry_Int_Tables_number	1
_symmetry_cell_setting	triclinic
loop_
_symmetry_equiv_pos_as_xyz
  x,y,z
_cell_length_a	16.109301
_cell_length_b	9.130313
_cell_length_c	10.654551
_cell_angle_alpha	89.997246
_cell_angle_beta	83.973455
_cell_angle_gamma	89.999196
loop_
_atom_site_label
_atom_site_type_symbol
_atom_site_fract_x
_atom_site_fract_y
_atom_site_fract_z
O1	O	1.104091	-0.121701	0.161420
O2	O	0.862148	-0.121723	0.181509
O3	O	0.988682	-0.121708	-0.011350
O4	O	0.977558	-0.121716	0.354279
O5	O	0.988673	0.121890	-0.011356
O6	O	0.862140	0.121875	0.181503
O7	O	1.104082	0.121898	0.161415
Cu8	Cu	0.983110	0.144129	0.171458
Cu9	Cu	0.983120	-0.143955	0.171465
O10	O	0.977549	0.121883	0.354273
C11	C	0.831164	0.000073	0.180692
C12	C	0.738855	0.000064	0.178252
N13	N	0.983109	0.346752	0.171453
N14	N	0.983128	-0.346577	0.171460
C15	C	0.517229	0.000079	0.287018
C16	C	0.430495	0.000088	0.284716
C17	C	0.449008	0.000087	0.055896
C18	C	0.535741	0.000088	0.058199
C19	C	0.569849	0.000077	0.173764
C20	C	0.396382	0.000085	0.169159
C21	C	0.302341	0.000095	0.166662
C22	C	0.663895	0.000069	0.176262
C23	C	1.135066	0.000098	0.162231
C24	C	1.227376	0.000097	0.164671
C25	C	0.987860	0.000089	-0.058140
C26	C	0.985416	0.000081	-0.197550
C27	C	1.039157	0.423410	0.086091
C28	C	1.039165	0.576747	0.086091
C29	C	0.927074	0.576753	0.256827
C30	C	0.927063	0.423419	0.256819
C31	C	0.984274	-0.132706	-0.263035
C32	C	0.981970	-0.132707	-0.394024
C33	C	0.981955	0.132878	-0.394032
C34	C	0.984252	0.132878	-0.263044
C35	C	0.978370	0.000083	0.401063
C36	C	0.980815	0.000080	0.540473
H37	H	0.544997	0.000081	0.381119
Cl38	Cl	0.856593	0.327039	0.364134
H39	H	0.421227	0.000105	-0.038193
Cl40	Cl	0.364348	0.000093	0.427100
Cl41	Cl	1.109612	0.327034	-0.021232
H42	H	0.578586	0.000090	-0.034032
Cl43	Cl	1.109627	0.673114	-0.021229
Cl44	Cl	0.985731	-0.299649	-0.180703
Cl45	Cl	0.856622	0.673142	0.364144
H46	H	0.981038	-0.240836	-0.447336
H47	H	0.981009	0.240995	-0.447374
H48	H	0.985178	0.241015	-0.209724
