data_functionalizedCrystal
_audit_creation_method	'MofGen! by Chris Wilmer'
_symmetry_space_group_name_H-M	'P1'
_symmetry_Int_Tables_number	1
_symmetry_cell_setting	triclinic
loop_
_symmetry_equiv_pos_as_xyz
  x,y,z
_cell_length_a	8.497374
_cell_length_b	19.077105
_cell_length_c	19.077068
_cell_angle_alpha	89.884684
_cell_angle_beta	92.284024
_cell_angle_gamma	92.300019
loop_
_atom_site_label
_atom_site_type_symbol
_atom_site_fract_x
_atom_site_fract_y
_atom_site_fract_z
Zn1	Zn	1.016648	1.062860	0.323110
Zn2	Zn	0.762970	1.058079	0.440586
Zn3	Zn	0.741875	0.945387	0.318369
Zn4	Zn	1.015701	0.940595	0.435851
O5	O	0.884299	1.001730	0.379479
O6	O	0.992222	1.160556	0.342659
O7	O	0.539410	1.043135	0.424372
O8	O	0.769893	0.964977	0.220667
O9	O	0.805846	1.157044	0.428968
O10	O	0.971767	1.051283	0.224150
O11	O	0.523911	0.960341	0.334579
O12	O	0.768974	0.846421	0.329988
O13	O	1.236588	0.956809	0.420898
O14	O	0.970152	0.842901	0.416301
O15	O	1.237285	1.046636	0.338067
O16	O	0.804927	1.038488	0.538289
O17	O	0.990607	0.952173	0.534810
C18	C	0.867172	0.819165	0.372117
C19	C	0.859884	0.741062	0.368984
C20	C	0.961050	0.702552	0.412519
C21	C	0.954209	0.629166	0.409566
C22	C	0.846193	0.594292	0.363082
C23	C	0.745023	0.632808	0.319542
C24	C	0.751873	0.706192	0.322492
C25	C	0.814499	0.375011	0.349430
C26	C	0.807654	0.301621	0.346485
C27	C	1.016843	0.297985	0.436509
C28	C	1.023677	0.371371	0.439457
C29	C	0.922512	0.409880	0.395915
N30	N	0.839195	0.519280	0.360064
N31	N	0.929519	0.484891	0.398930
C32	C	0.899989	0.994311	0.562047
C33	C	0.906761	0.991201	0.640152
C34	C	1.295778	1.001725	0.379480
C35	C	1.474423	1.001726	0.379487
C36	C	0.901493	1.185009	0.386870
C37	C	0.908820	1.263111	0.390020
C38	C	0.868583	1.009198	0.196199
C39	C	0.861886	1.012380	0.118097
C40	C	0.813355	1.034715	0.678636
C41	C	0.819734	1.031794	0.752025
C42	C	0.919510	0.985356	0.786928
C43	C	1.012926	0.941841	0.748439
C44	C	1.006555	0.944765	0.675052
C45	C	0.948930	0.971789	1.006221
C46	C	0.955291	0.968866	1.079613
C47	C	0.762100	1.058821	1.083193
C48	C	0.755730	1.061739	1.009804
C49	C	0.849152	1.018226	0.971322
N50	N	0.926029	0.982368	0.861943
N51	N	0.842641	1.021218	0.896309
H52	H	0.657081	0.604407	0.281691
H53	H	1.049004	0.730941	0.450374
C54	C	0.703602	1.085799	0.640248
H55	H	0.648899	1.111300	0.673682
H56	H	0.629812	1.060088	0.610573
H57	H	0.764400	1.117537	0.612817
H58	H	0.743672	1.067227	0.783355
C59	C	1.122675	0.890758	0.786831
H60	H	1.113080	0.895242	0.836050
H61	H	1.228606	0.901479	0.775191
H62	H	1.094017	0.844031	0.772944
H63	H	0.669500	0.737547	0.287037
C64	C	1.065399	0.586806	0.457498
H65	H	1.130669	0.618085	0.485623
H66	H	1.129297	0.559251	0.429556
H67	H	1.004796	0.556955	0.486909
H68	H	0.674484	1.099553	0.981387
H69	H	1.111631	0.399760	0.477312
C70	C	0.659358	1.106686	1.125525
H71	H	0.677448	1.098299	1.174231
H72	H	0.551340	1.096924	1.113113
H73	H	0.685928	1.154372	1.115354
C74	C	1.065044	0.917782	1.118009
H75	H	1.055438	0.922267	1.167227
H76	H	1.170979	0.928503	1.106373
H77	H	1.036392	0.871054	1.104122
C78	C	1.051662	0.923915	0.963899
H79	H	1.111976	0.895833	0.995198
H80	H	1.120488	0.951901	0.936313
H81	H	0.985884	0.894460	0.934079
C82	C	0.688841	0.263261	0.295346
H83	H	0.629582	0.296706	0.269831
H84	H	0.619635	0.233540	0.321024
H85	H	0.744023	0.235879	0.263624
C86	C	0.703219	0.417365	0.301540
H87	H	0.722774	0.466066	0.309945
H88	H	0.596939	0.404917	0.311265
H89	H	0.721316	0.407253	0.253859
H90	H	1.082618	0.909333	0.643719
H91	H	1.099208	0.266623	0.471957
