data_functionalizedCrystal
_audit_creation_method	'MofGen! by Chris Wilmer'
_symmetry_space_group_name_H-M	'P1'
_symmetry_Int_Tables_number	1
_symmetry_cell_setting	triclinic
loop_
_symmetry_equiv_pos_as_xyz
  x,y,z
_cell_length_a	12.784905
_cell_length_b	12.811415
_cell_length_c	11.295483
_cell_angle_alpha	88.701575
_cell_angle_beta	86.327249
_cell_angle_gamma	78.600455
loop_
_atom_site_label
_atom_site_type_symbol
_atom_site_fract_x
_atom_site_fract_y
_atom_site_fract_z
O1	O	1.417461	-0.001136	-0.098909
O2	O	1.108551	0.043420	-0.103721
O3	O	1.269603	-0.131079	-0.084872
O4	O	1.256409	0.173363	-0.117758
O5	O	1.255457	-0.115774	0.111526
O6	O	1.094405	0.058725	0.092677
O7	O	1.403315	0.014169	0.097488
Cu8	Cu	1.247569	0.037845	0.113015
Cu9	Cu	1.264298	0.019745	-0.119248
O10	O	1.242264	0.188668	0.078639
C11	C	1.061914	0.053971	-0.005835
C12	C	0.944026	0.062593	-0.006766
C13	C	0.745494	-0.113076	0.012189
C14	C	0.634728	-0.104980	0.011314
C15	C	0.611727	0.086880	-0.009398
C16	C	0.722493	0.078784	-0.008523
C17	C	0.789373	-0.021198	0.002272
C18	C	0.900140	-0.029292	0.003155
C19	C	0.877138	0.162566	-0.017566
C20	C	0.766372	0.170663	-0.018440
C21	C	1.261357	-0.162126	0.017505
C22	C	1.257850	-0.277435	0.029953
C23	C	1.266664	-0.510788	-0.160792
C24	C	1.263369	-0.619132	-0.149101
C25	C	1.247957	-0.602468	0.065025
C26	C	1.251252	-0.494124	0.053334
C27	C	1.260607	-0.448288	-0.059578
C28	C	1.263910	-0.339944	-0.071268
C29	C	1.248491	-0.323280	0.142857
C30	C	1.245196	-0.431624	0.154548
C31	C	1.449952	0.003618	-0.000400
C32	C	1.567841	-0.005005	0.000523
C33	C	1.250509	0.219714	-0.023740
C34	C	1.254017	0.335023	-0.036196
N35	N	1.235810	0.050574	0.276376
N36	N	1.276064	0.007006	-0.282608
C37	C	1.360708	-0.084684	0.540276
C38	C	1.351830	-0.075058	0.663900
C39	C	1.209170	0.079447	0.647251
C40	C	1.218049	0.069821	0.523627
C41	C	1.293821	-0.012246	0.470144
C42	C	1.302704	-0.021867	0.346518
C43	C	1.160040	0.132632	0.329871
C44	C	1.151162	0.142259	0.453495
H45	H	0.599007	-0.179797	0.019388
C46	C	0.538149	0.196847	-0.021271
H47	H	0.465897	0.188505	-0.020366
H48	H	0.556507	0.229607	-0.093869
H49	H	0.546637	0.240268	0.043118
C50	C	1.274200	-0.289521	-0.195461
H51	H	1.275306	-0.216045	-0.187931
H52	H	1.215048	-0.297162	-0.238993
H53	H	1.338611	-0.324242	-0.236074
H54	H	1.274290	-0.473471	-0.252729
C55	C	1.270033	-0.687884	-0.260432
H56	H	1.266723	-0.758974	-0.237302
H57	H	1.335515	-0.687089	-0.304882
H58	H	1.211951	-0.660011	-0.307791
H59	H	1.406295	-0.134045	0.720999
C60	C	1.444055	-0.174948	0.481441
H61	H	1.482618	-0.216714	0.540916
H62	H	1.492167	-0.145254	0.429589
H63	H	1.408792	-0.218579	0.437535
C64	C	1.237673	-0.652901	0.189214
H65	H	1.236584	-0.726379	0.181675
H66	H	1.173273	-0.618186	0.229839
H67	H	1.296837	-0.645266	0.232739
C68	C	1.386045	-0.112139	0.287688
H69	H	1.424600	-0.153908	0.347167
H70	H	1.434166	-0.082455	0.235837
H71	H	1.350776	-0.155766	0.243781
H72	H	1.105579	0.191619	0.272755
H73	H	0.912874	0.237382	-0.025635
C74	C	0.973707	-0.139266	0.015017
H75	H	0.931707	-0.192826	0.020783
H76	H	1.012467	-0.141090	0.084275
H77	H	1.022323	-0.151739	-0.052713
C78	C	1.125827	0.169709	0.706097
H79	H	1.130126	0.165065	0.789766
H80	H	1.056287	0.163217	0.686385
H81	H	1.139669	0.236536	0.678455
C82	C	0.819064	-0.223048	0.024060
H83	H	0.777067	-0.276610	0.029835
H84	H	0.857824	-0.224861	0.093317
H85	H	0.867680	-0.235525	-0.043669
C86	C	0.692804	0.280635	-0.030319
H87	H	0.734805	0.334194	-0.036107
H88	H	0.644179	0.293117	0.037394
H89	H	0.654057	0.282444	-0.099592
H90	H	1.089466	0.209074	0.497055
H91	H	1.237575	-0.468957	0.246477
H92	H	1.243563	-0.272381	0.225273
