data_functionalizedCrystal
_audit_creation_method	'MofGen! by Chris Wilmer'
_symmetry_space_group_name_H-M	'P1'
_symmetry_Int_Tables_number	1
_symmetry_cell_setting	triclinic
loop_
_symmetry_equiv_pos_as_xyz
  x,y,z
_cell_length_a	8.559649
_cell_length_b	8.634740
_cell_length_c	14.472311
_cell_angle_alpha	90.006196
_cell_angle_beta	90.005479
_cell_angle_gamma	94.825514
loop_
_atom_site_label
_atom_site_type_symbol
_atom_site_fract_x
_atom_site_fract_y
_atom_site_fract_z
O1	O	-2.112221	-0.051395	-0.076841
O2	O	-1.659058	0.026815	-0.076842
O3	O	-1.864189	-0.234226	-0.076839
O4	O	-1.907091	0.209646	-0.076844
O5	O	-1.864161	-0.234191	0.076843
O6	O	-1.659031	0.026850	0.076840
O7	O	-2.112194	-0.051361	0.076841
Cu8	Cu	-1.885610	-0.012253	0.090873
Cu9	Cu	-1.885642	-0.012293	-0.090874
O10	O	-1.907063	0.209680	0.076838
C11	C	-1.600427	0.032760	-0.000001
C12	C	-1.425763	0.050402	-0.000001
C13	C	-1.854456	-0.290508	0.000000
C14	C	-1.825478	-0.458259	-0.000004
C15	C	-1.170825	-0.057305	-0.000000
C16	C	-1.345489	-0.074948	-0.000001
C17	C	-1.916796	0.265962	-0.000003
C18	C	-1.945774	0.433714	-0.000005
N19	N	-1.885598	-0.012226	0.218704
N20	N	-1.885665	-0.012333	-0.218705
C21	C	-1.885620	-0.012263	0.407204
C22	C	-1.775831	0.127372	0.446433
C23	C	-1.775337	0.127086	0.553521
C24	C	-1.885642	-0.012296	0.592795
C25	C	-1.826192	-0.166348	0.553906
C26	C	-1.825366	-0.165490	0.446785
C27	C	-2.055036	0.000680	0.446663
C28	C	-2.054499	0.004381	0.553791
C29	C	-1.885657	-0.012326	0.697683
C30	C	-1.885601	-0.012244	0.302316
H31	H	-1.410386	-0.195763	-0.000005
C32	C	-1.827894	0.282596	0.589049
H33	H	-1.849731	0.346519	0.538013
H34	H	-1.919650	0.263603	0.625624
H35	H	-1.746699	0.333624	0.625414
H36	H	-1.360858	0.171225	-0.000007
H37	H	-1.700309	-0.494113	-0.000010
C38	C	-1.657482	-0.184755	0.413049
H39	H	-1.590425	-0.193023	0.464812
H40	H	-1.657254	-0.276096	0.376478
H41	H	-1.621180	-0.097001	0.377060
H42	H	-1.814441	0.242933	0.420683
H43	H	-2.099049	0.117627	0.579194
H44	H	-2.070935	-0.530438	-0.000037
H45	H	-1.651334	0.121262	0.419532
H46	H	-1.650118	0.120751	0.579165
H47	H	-1.901059	-0.271550	0.420832
H48	H	-1.903049	-0.271986	0.579342
C49	C	-1.660027	-0.186782	0.590158
H50	H	-1.626646	-0.101623	0.628981
H51	H	-1.661009	-0.280748	0.624361
H52	H	-1.589900	-0.190543	0.539486
H53	H	-2.141870	-0.092179	0.580525
H54	H	-2.106296	0.109611	0.419653
H55	H	-2.137019	-0.101365	0.421285
