data_functionalizedCrystal
_audit_creation_method	'MofGen! by Chris Wilmer'
_symmetry_space_group_name_H-M	'P1'
_symmetry_Int_Tables_number	1
_symmetry_cell_setting	triclinic
loop_
_symmetry_equiv_pos_as_xyz
  x,y,z
_cell_length_a	19.077105
_cell_length_b	18.101390
_cell_length_c	19.077068
_cell_angle_alpha	87.736754
_cell_angle_beta	89.884684
_cell_angle_gamma	87.683335
loop_
_atom_site_label
_atom_site_type_symbol
_atom_site_fract_x
_atom_site_fract_y
_atom_site_fract_z
Zn1	Zn	1.062992	-0.477246	0.322945
Zn2	Zn	1.562992	0.022754	0.822945
Zn3	Zn	1.058178	-0.358162	0.440463
Zn4	Zn	1.558178	0.141838	0.940463
Zn5	Zn	0.945483	-0.348259	0.318249
Zn6	Zn	1.445483	0.151741	0.818249
Zn7	Zn	0.940727	-0.476801	0.435687
Zn8	Zn	1.440727	0.023199	0.935687
O9	O	1.001845	-0.415117	0.379336
O10	O	1.501845	0.084883	0.879336
O11	O	1.160685	-0.465780	0.342498
O12	O	1.660685	0.034220	0.842498
O13	O	1.043205	-0.253216	0.424284
O14	O	1.543205	0.246784	0.924284
O15	O	0.965076	-0.361411	0.220543
O16	O	1.465076	0.138589	0.720543
O17	O	1.157148	-0.378289	0.428838
O18	O	1.657148	0.121711	0.928838
O19	O	1.051409	-0.456178	0.223993
O20	O	1.551409	0.043822	0.723993
O21	O	0.960409	-0.245940	0.334495
O22	O	1.460409	0.254060	0.834495
O23	O	0.846521	-0.360980	0.329863
O24	O	1.346521	0.139020	0.829863
O25	O	0.956969	-0.580493	0.420698
O26	O	1.456969	-0.080493	0.920698
O27	O	0.843026	-0.455419	0.416144
O28	O	1.343026	0.044581	0.916144
O29	O	1.046797	-0.580820	0.337867
O30	O	1.546797	-0.080820	0.837867
O31	O	1.038593	-0.377858	0.538159
O32	O	1.538593	0.122142	1.038159
O33	O	0.952302	-0.465021	0.534650
O34	O	1.452302	0.034979	1.034650
C35	C	0.819277	-0.407077	0.371977
C36	C	1.319277	0.092923	0.871977
C37	C	0.741173	-0.403656	0.368845
C38	C	1.241173	0.096344	0.868845
C39	C	0.702676	-0.451147	0.412364
C40	C	1.202676	0.048853	0.912364
C41	C	0.629290	-0.447935	0.409412
C42	C	1.129290	0.052065	0.909412
C43	C	0.594402	-0.397229	0.362945
C44	C	1.094402	0.102771	0.862945
C45	C	0.632904	-0.349737	0.319422
C46	C	1.132904	0.150263	0.819422
C47	C	0.706290	-0.352952	0.322370
C48	C	1.206290	0.147048	0.822370
C49	C	0.375117	-0.382351	0.349299
C50	C	0.875117	0.117649	0.849299
C51	C	0.301726	-0.379138	0.346355
C52	C	0.801726	0.120862	0.846355
C53	C	0.298117	-0.477338	0.436345
C54	C	0.798117	0.022662	0.936345
C55	C	0.371503	-0.480545	0.439292
C56	C	0.871503	0.019455	0.939292
C57	C	0.410000	-0.433056	0.395766
C58	C	0.910000	0.066944	0.895766
N59	N	0.519389	-0.393944	0.359928
N60	N	1.019389	0.106056	0.859928
N61	N	0.485011	-0.436345	0.398780
N62	N	0.985011	0.063655	0.898780
C63	C	1.001889	-0.608278	0.379274
C64	C	1.501889	-0.108278	0.879274
C65	C	1.001908	-0.690592	0.379247
C66	C	1.501908	-0.190592	0.879247
C67	C	1.001948	-0.989683	0.379205
C68	C	1.501948	-0.489683	0.879205
C69	C	1.058636	-0.958579	0.327288
C70	C	1.558636	-0.458579	0.827288
C71	C	1.058474	-0.872945	0.327080
C72	C	1.558474	-0.372945	0.827080
C73	C	1.001929	-0.841301	0.379226
C74	C	1.501929	-0.341301	0.879226
C75	C	0.928710	-0.868308	0.356128
C76	C	1.428710	-0.368308	0.856128
C77	C	0.929053	-0.953951	0.355736
C78	C	1.429053	-0.453951	0.855736
C79	C	1.017821	-0.961936	0.454331
C80	C	1.517821	-0.461936	0.954331
C81	C	1.019461	-0.876342	0.454018
C82	C	1.519461	-0.376342	0.954018
C83	C	1.001913	-0.757441	0.379239
C84	C	1.501913	-0.257441	0.879239
C85	C	1.001958	-1.073542	0.379190
C86	C	1.501958	-0.573542	0.879190
C87	C	1.185125	-0.423189	0.386725
C88	C	1.685125	0.076811	0.886725
C89	C	1.263229	-0.426628	0.389873
C90	C	1.763229	0.073372	0.889873
C91	C	0.994428	-0.422483	0.561901
C92	C	1.494428	0.077517	1.061901
C93	C	0.991319	-0.425661	0.640006
C94	C	1.491319	0.074339	1.140006
C95	C	1.001843	-0.222707	0.379349
C96	C	1.501843	0.277293	0.879349
C97	C	1.001969	-0.140392	0.379183
C98	C	1.501969	0.359608	0.879183
C99	C	1.009310	-0.407740	0.196059
C100	C	1.509310	0.092260	0.696059
C101	C	1.012492	-0.404596	0.117957
C102	C	1.512492	0.095404	0.617957
C103	C	1.034820	-0.381814	0.678504
C104	C	1.534820	0.118186	1.178504
C105	C	1.031901	-0.384808	0.751892
C106	C	1.531901	0.115192	1.251892
C107	C	0.985475	-0.431647	0.786779
C108	C	1.485475	0.068353	1.286779
C109	C	0.941972	-0.475499	0.748276
C110	C	1.441972	0.024501	1.248276
C111	C	0.944896	-0.472508	0.674889
C112	C	1.444896	0.027492	1.174889
C113	C	0.971912	-0.445457	1.006067
C114	C	1.471912	0.054543	1.506067
C115	C	0.968990	-0.448443	1.079458
C116	C	1.468990	0.051557	1.579458
C117	C	1.058920	-0.357753	1.083070
C118	C	1.558920	0.142247	1.583070
C119	C	1.061837	-0.354763	1.009682
C120	C	1.561837	0.145237	1.509682
C121	C	1.018336	-0.398618	0.971185
C122	C	1.518336	0.101382	1.471185
N123	N	0.982488	-0.434707	0.861793
N124	N	1.482488	0.065293	1.361793
N125	N	1.021328	-0.395562	0.896172
N126	N	1.521328	0.104438	1.396172
H127	H	0.399904	-0.521834	0.477132
H128	H	0.899904	-0.021834	0.977132
N129	N	0.900448	-0.517285	0.635562
N130	N	1.400448	-0.017285	1.135562
N131	N	0.857314	-0.487553	0.592867
N132	N	1.357314	0.012447	1.092867
H133	H	0.825922	-0.519179	0.565092
H134	H	1.325922	-0.019179	1.065092
H135	H	0.915248	-0.971038	0.300730
H136	H	1.415248	-0.471038	0.800730
H137	H	0.885539	-0.974342	0.391743
H138	H	1.385539	-0.474342	0.891743
H139	H	1.112861	-0.854858	0.341888
H140	H	1.612861	-0.354858	0.841888
N141	N	0.921557	-0.496279	1.115099
N142	N	1.421557	0.003721	1.615099
N143	N	0.857044	-0.488126	1.104354
N144	N	1.357044	0.011874	1.604354
H145	H	0.823544	-0.521905	1.129527
H146	H	1.323544	-0.021905	1.629527
H147	H	0.737633	-0.314284	0.286929
H148	H	1.237633	0.185716	0.786929
N149	N	1.127095	-0.988094	0.345683
N150	N	1.627095	-0.488094	0.845683
N151	N	1.134907	-1.032400	0.397267
N152	N	1.634907	-0.532400	0.897267
H153	H	1.183258	-1.053250	0.410261
H154	H	1.683258	-0.553250	0.910261
H155	H	1.072622	-0.343670	0.650104
H156	H	1.572622	0.156330	1.150104
H157	H	1.067324	-0.349102	0.783235
H158	H	1.567324	0.150898	1.283235
H159	H	0.731077	-0.492435	0.450204
H160	H	1.231077	0.007565	0.950204
N161	N	0.965994	-0.987197	0.502919
N162	N	1.465994	-0.487197	1.002919
N163	N	0.969148	-0.971003	0.565895
N164	N	1.469148	-0.471003	1.065895
H165	H	0.932545	-0.988846	0.600207
H166	H	1.432545	-0.488846	1.100207
H167	H	1.048203	-0.849692	0.271485
H168	H	1.548203	-0.349692	0.771485
H169	H	0.273323	-0.337851	0.308508
H170	H	0.773323	0.162149	0.808508
H171	H	1.048511	-0.977356	0.272006
H172	H	1.548511	-0.477356	0.772006
H173	H	1.073329	-0.859039	0.471380
H174	H	1.573329	-0.359039	0.971380
N175	N	1.109261	-0.306912	0.974059
N176	N	1.609261	0.193088	1.474059
N177	N	1.148099	-0.267764	1.008442
N178	N	1.648099	0.232236	1.508442
H179	H	1.181591	-0.233966	0.983283
H180	H	1.681591	0.266034	1.483283
N181	N	0.911005	-0.837810	0.287857
N182	N	1.411005	-0.337810	0.787857
N183	N	0.900936	-0.879747	0.238669
N184	N	1.400936	-0.379747	0.738669
H185	H	0.888436	-0.858211	0.190449
H186	H	1.388436	-0.358211	0.690449
N187	N	1.083462	-0.992887	0.479955
N188	N	1.583462	-0.492887	0.979955
N189	N	1.138730	-0.980696	0.446929
N190	N	1.638730	-0.480696	0.946929
H191	H	1.185092	-1.002554	0.465018
H192	H	1.685092	-0.502554	0.965018
H193	H	0.406451	-0.343676	0.313862
H194	H	0.906451	0.156324	0.813862
N195	N	1.103346	-0.312963	1.122405
N196	N	1.603346	0.187037	1.622405
N197	N	1.100731	-0.315636	1.187927
N198	N	1.600731	0.184364	1.687927
H199	H	1.132110	-0.284002	1.215709
H200	H	1.632110	0.215998	1.715709
N201	N	0.874441	-0.842370	0.401925
N202	N	1.374441	-0.342370	0.901925
N203	N	0.824768	-0.801888	0.378001
N204	N	1.324768	-0.301888	0.878001
H205	H	0.786441	-0.783566	0.410345
H206	H	1.286441	-0.283566	0.910345
H207	H	0.597948	-0.486606	0.444850
H208	H	1.097948	0.013394	0.944850
N209	N	0.971120	-0.849613	0.505446
N210	N	1.471120	-0.349613	1.005446
N211	N	0.922742	-0.804102	0.487733
N212	N	1.422742	-0.304102	0.987733
H213	H	0.888592	-0.785228	0.524052
H214	H	1.388592	-0.285228	1.024052
H215	H	0.936491	-0.481164	0.974728
H216	H	1.436491	0.018836	1.474728
N217	N	0.894549	-0.523334	0.783922
N218	N	1.394549	-0.023334	1.283922
N219	N	0.848154	-0.496936	0.823127
N220	N	1.348154	0.003064	1.323127
H221	H	0.814659	-0.530718	0.848303
H222	H	1.314659	-0.030718	1.348303
N223	N	0.258783	-0.525838	0.480798
N224	N	0.758783	-0.025838	0.980798
N225	N	0.193261	-0.522962	0.478163
N226	N	0.693261	-0.022962	0.978163
H227	H	0.165480	-0.557218	0.509559
H228	H	0.665480	-0.057218	1.009559
N229	N	0.597259	-0.297951	0.271955
N230	N	1.097259	0.202049	0.771955
N231	N	0.531736	-0.295086	0.269328
N232	N	1.031736	0.204914	0.769328
H233	H	0.506562	-0.258510	0.235805
H234	H	1.006562	0.241490	0.735805
