data_functionalizedCrystal
_audit_creation_method	'MofGen! by Chris Wilmer'
_symmetry_space_group_name_H-M	'P1'
_symmetry_Int_Tables_number	1
_symmetry_cell_setting	triclinic
loop_
_symmetry_equiv_pos_as_xyz
  x,y,z
_cell_length_a	15.944499
_cell_length_b	10.654549
_cell_length_c	9.130313
_cell_angle_alpha	90.002014
_cell_angle_beta	90.006312
_cell_angle_gamma	83.981193
loop_
_atom_site_label
_atom_site_type_symbol
_atom_site_fract_x
_atom_site_fract_y
_atom_site_fract_z
O1	O	1.115486	0.161654	0.121884
O2	O	0.871046	0.181690	0.121867
O3	O	0.998886	-0.011142	0.121870
O4	O	0.987646	0.354486	0.121881
O5	O	0.998877	-0.011141	-0.121729
O6	O	0.871037	0.181690	-0.121731
O7	O	1.115476	0.161654	-0.121715
Cu8	Cu	0.993256	0.171672	-0.143966
Cu9	Cu	0.993267	0.171672	0.144118
O10	O	0.987636	0.354486	-0.121717
C11	C	0.839742	0.180870	0.000066
C12	C	0.746480	0.178411	0.000059
C13	C	0.455592	0.290441	0.000085
C14	C	0.516289	0.232205	0.120193
C15	C	0.410791	0.169476	0.000093
C16	C	0.516265	0.232172	-0.119977
C17	C	0.575726	0.173872	0.000074
C18	C	0.470260	0.111206	0.120300
C19	C	0.470230	0.111191	-0.119977
C20	C	0.530909	0.052866	0.000160
C21	C	0.315777	0.166947	0.000105
C22	C	0.670739	0.176392	0.000072
C23	C	0.998056	-0.057929	0.000072
C24	C	0.995587	-0.197339	0.000077
C25	C	1.146781	0.162474	0.000090
C26	C	1.240043	0.164934	0.000106
C27	C	1.068531	-0.408818	0.000092
C28	C	1.070858	-0.277828	0.000080
C29	C	0.917985	-0.247846	0.000069
C30	C	0.915660	-0.378834	0.000070
C31	C	0.988466	0.401273	0.000084
C32	C	0.990935	0.540683	0.000089
N33	N	0.993254	0.171672	-0.346588
C34	C	1.044640	0.247875	-0.423229
C35	C	1.044653	0.247867	-0.576565
C36	C	0.941887	0.095451	-0.576608
C37	C	0.941879	0.095453	-0.423274
N38	N	0.993276	0.171663	0.346741
H39	H	0.536687	0.283372	0.221731
H40	H	0.900059	0.033398	-0.639064
H41	H	1.086473	0.309937	-0.360796
C42	C	0.442639	0.042134	-0.257155
H43	H	0.458218	0.085234	-0.342416
H44	H	0.469468	-0.041789	-0.258021
H45	H	0.383197	0.040383	-0.255676
C46	C	0.442883	0.042158	0.257632
H47	H	0.383384	0.041029	0.256828
H48	H	0.469345	-0.041981	0.257984
H49	H	0.459016	0.084854	0.342817
H50	H	0.563504	-0.047613	0.000220
C51	C	0.830303	-0.434393	0.000069
H52	H	0.839701	-0.523931	0.000057
H53	H	0.799279	-0.406768	0.085014
H54	H	0.799276	-0.406770	-0.084893
H55	H	1.086498	0.309918	-0.638959
C56	C	0.885349	0.011628	-0.338964
H57	H	0.854744	-0.033751	-0.406593
H58	H	0.919432	-0.046141	-0.279137
H59	H	0.846985	0.063076	-0.279162
H60	H	1.134044	-0.236719	0.000080
H61	H	0.422843	0.390830	0.000204
H62	H	1.129825	-0.474344	0.000107
C63	C	0.543773	0.301305	-0.257154
H64	H	0.517724	0.385691	-0.256996
H65	H	0.603319	0.301739	-0.256658
H66	H	0.527227	0.259148	-0.342441
H67	H	0.856699	-0.182301	0.000058
