data_functionalizedCrystal
_audit_creation_method	'MofGen! by Chris Wilmer'
_symmetry_space_group_name_H-M	'P1'
_symmetry_Int_Tables_number	1
_symmetry_cell_setting	triclinic
loop_
_symmetry_equiv_pos_as_xyz
  x,y,z
_cell_length_a	15.537862
_cell_length_b	15.625429
_cell_length_c	12.376457
_cell_angle_alpha	83.658771
_cell_angle_beta	83.226052
_cell_angle_gamma	66.734075
loop_
_atom_site_label
_atom_site_type_symbol
_atom_site_fract_x
_atom_site_fract_y
_atom_site_fract_z
O1	O	1.245057	-0.286941	0.023662
O2	O	0.978354	-0.192425	-0.015091
O3	O	1.109484	-0.361048	0.054035
O4	O	1.113927	-0.118318	-0.045464
O5	O	1.076711	-0.318939	0.224785
O6	O	0.945581	-0.150316	0.155658
O7	O	1.212283	-0.244832	0.194412
Zn8	Zn	1.073729	-0.190888	0.202145
Zn9	Zn	1.116909	-0.246369	-0.022825
O10	O	1.081153	-0.076209	0.125286
C11	C	0.927662	-0.161482	0.066229
C12	C	0.825443	-0.132025	0.054150
C13	C	0.676376	-0.012622	0.005200
C14	C	0.772428	-0.040310	0.016553
C15	C	0.782418	-0.196087	0.080414
C16	C	0.686365	-0.168410	0.069071
C17	C	0.633352	-0.076677	0.031462
C18	C	0.643340	-0.232466	0.095333
C19	C	0.547296	-0.204792	0.083986
C20	C	0.494277	-0.113064	0.046376
C21	C	0.537307	-0.049004	0.020115
C22	C	0.696356	-0.324200	0.132934
C23	C	0.653332	-0.388255	0.159197
C24	C	0.557284	-0.360581	0.147857
C25	C	0.504265	-0.268852	0.110247
C26	C	0.514254	-0.424641	0.174118
C27	C	0.418210	-0.396968	0.162770
C28	C	0.408221	-0.241179	0.098900
C29	C	1.090051	-0.370301	0.151831
C30	C	1.080963	-0.460604	0.188840
C31	C	1.140363	-0.872350	-0.154786
C32	C	1.131813	-0.957194	-0.119979
C33	C	1.096086	-0.911276	0.066160
C34	C	1.104638	-0.826428	0.031370
C35	C	1.126775	-0.806973	-0.079105
C36	C	1.091050	-0.761051	0.107051
C37	C	1.099596	-0.676209	0.072262
C38	C	1.121730	-0.656745	-0.038208
C39	C	1.135321	-0.722131	-0.113894
C40	C	1.068906	-0.780506	0.217524
C41	C	1.055318	-0.715128	0.293205
C42	C	1.063870	-0.630287	0.258418
C43	C	1.086004	-0.610823	0.147948
C44	C	1.050279	-0.564901	0.334103
C45	C	1.058825	-0.480059	0.299314
C46	C	1.094551	-0.525981	0.113159
C47	C	1.262976	-0.275776	0.113090
C48	C	1.365196	-0.305234	0.125162
C49	C	1.100587	-0.066957	0.027488
C50	C	1.109676	0.023344	-0.009528
N51	N	1.044266	-0.153027	0.355683
N52	N	1.146378	-0.284239	-0.176358
C53	C	1.214770	-0.372144	0.800494
C54	C	1.235385	-0.398642	0.693016
C55	C	1.187607	-0.337240	0.608678
C56	C	1.119210	-0.249336	0.631827
C57	C	1.098597	-0.222833	0.739313
C58	C	1.071434	-0.187930	0.547498
C59	C	1.003037	-0.100026	0.570646
C60	C	0.982427	-0.073527	0.678123
C61	C	1.030206	-0.134928	0.762461
C62	C	1.092047	-0.214433	0.440011
C63	C	0.975875	-0.065122	0.378831
C64	C	0.955259	-0.038624	0.486308
H65	H	0.365052	-0.166477	0.068289
O66	O	0.710512	-0.487193	0.199759
H67	H	0.681108	-0.502063	0.282486
O68	O	1.165797	-0.309244	0.415041
H69	H	1.234372	-0.315526	0.440312
H70	H	1.078058	-0.927128	0.156109
H71	H	1.142871	-1.010422	-0.181618
O72	O	1.026394	-0.585883	0.453254
H73	H	1.081523	-0.584946	0.502016
O74	O	1.059698	-0.872019	0.255049
H75	H	1.003110	-0.877951	0.213225
H76	H	0.899568	0.032949	0.505169
H77	H	1.153356	-0.706294	-0.203851
H78	H	0.383179	-0.449128	0.184155
H79	H	1.047741	-0.426818	0.360938
H80	H	0.936971	-0.015122	0.310161
H81	H	0.926742	-0.001947	0.696967
O82	O	1.031462	-0.736122	0.412360
H83	H	1.027813	-0.806106	0.423841
H84	H	1.013418	-0.113356	0.849980
H85	H	1.204396	-0.358819	0.521166
H86	H	1.158398	-0.856513	-0.244744
O87	O	0.571444	-0.523579	0.214671
H88	H	0.525390	-0.563475	0.231021
H89	H	1.112585	-0.510144	0.023201
H90	H	1.253670	-0.422126	0.869165
O91	O	0.390685	-0.083211	0.034135
H92	H	0.349853	-0.025118	0.086947
H93	H	1.291075	-0.470211	0.674173
H94	H	0.633207	0.062080	-0.025411
O95	O	0.480110	0.049939	-0.020437
H96	H	0.509494	0.064822	-0.103170
O97	O	0.818836	0.028784	-0.011765
H98	H	0.765832	0.097220	-0.039813
H99	H	1.128678	-0.587656	-0.066533
H100	H	0.774565	-0.346733	0.142153
O101	O	0.839595	-0.295022	0.120989
H102	H	0.913607	-0.303503	0.124478
