data_functionalizedCrystal
_audit_creation_method	'MofGen! by Chris Wilmer'
_symmetry_space_group_name_H-M	'P1'
_symmetry_Int_Tables_number	1
_symmetry_cell_setting	triclinic
loop_
_symmetry_equiv_pos_as_xyz
  x,y,z
_cell_length_a	25.639242
_cell_length_b	29.839132
_cell_length_c	29.839126
_cell_angle_alpha	89.973634
_cell_angle_beta	90.028678
_cell_angle_gamma	89.959210
loop_
_atom_site_label
_atom_site_type_symbol
_atom_site_fract_x
_atom_site_fract_y
_atom_site_fract_z
Zn1	Zn	0.799235	0.178941	0.254107
Zn2	Zn	0.799138	0.254062	0.178974
Zn3	Zn	0.711801	0.178941	0.178977
Zn4	Zn	0.711746	0.254039	0.254063
O5	O	0.755480	0.216496	0.216530
O6	O	0.872387	0.188916	0.244157
O7	O	0.787535	0.244106	0.116107
O8	O	0.723463	0.116074	0.188963
O9	O	0.872316	0.244107	0.188957
O10	O	0.787700	0.116074	0.244160
O11	O	0.723369	0.188915	0.116110
O12	O	0.638629	0.188893	0.188921
O13	O	0.723369	0.244068	0.316936
O14	O	0.638588	0.244067	0.244086
O15	O	0.787647	0.188894	0.316968
O16	O	0.787482	0.316926	0.188915
O17	O	0.723275	0.316909	0.244083
C18	C	0.619638	0.216478	0.216500
C19	C	0.561523	0.216481	0.216497
C20	C	0.755377	0.333218	0.216503
C21	C	0.755380	0.383153	0.216507
C22	C	0.201148	0.245273	0.245228
C23	C	0.146544	0.245276	0.245235
O24	O	0.118297	0.269734	0.269636
N25	N	0.119241	0.216508	0.216560
C26	C	0.146545	0.187733	0.187879
O27	O	0.118308	0.163263	0.163489
C28	C	0.201149	0.187728	0.187874
C29	C	0.228449	0.216501	0.216548
C30	C	0.228448	0.274043	0.273899
C31	C	0.283049	0.274041	0.273892
C32	C	0.310349	0.245269	0.245212
C33	C	0.283049	0.216498	0.216540
C34	C	0.228452	0.158950	0.159196
C35	C	0.283059	0.158948	0.159194
C36	C	0.310359	0.187721	0.187868
C37	C	0.364950	0.187724	0.187853
N38	N	0.392253	0.216492	0.216528
C39	C	0.364953	0.245264	0.245207
C40	C	0.031875	0.187744	0.187891
C41	C	-0.022728	0.187751	0.187893
C42	C	-0.022725	0.245293	0.245249
C43	C	0.031878	0.245289	0.245245
C44	C	0.059178	0.216512	0.216566
C45	C	0.479618	0.245257	0.245189
C46	C	0.534223	0.245254	0.245177
C47	C	0.534216	0.187709	0.187822
C48	C	0.479615	0.187714	0.187832
C49	C	0.452318	0.216490	0.216519
O50	O	0.393232	0.163277	0.163465
O51	O	0.393197	0.269725	0.269597
C52	C	0.788936	0.692792	0.187828
C53	C	0.788986	0.880465	0.187838
O54	O	0.817460	0.904727	0.163446
N55	N	0.755535	0.903938	0.216538
C56	C	0.722071	0.880489	0.245239
O57	O	0.693624	0.904760	0.269653
C58	C	0.722024	0.692817	0.245230
C59	C	0.755474	0.669347	0.216526
C60	C	0.822383	0.669322	0.159126
C61	C	0.822369	0.622407	0.159122
C62	C	0.788906	0.598961	0.187820
C63	C	0.755459	0.622431	0.216522
C64	C	0.688564	0.669369	0.273934
C65	C	0.688556	0.622448	0.273930
C66	C	0.722006	0.598978	0.245225
C67	C	0.721982	0.552071	0.245216
N68	N	0.755433	0.528598	0.216516
C69	C	0.788895	0.552043	0.187818
C70	C	0.722097	0.979020	0.245240
C71	C	0.722108	1.025938	0.245242
C72	C	0.789024	1.025910	0.187842
C73	C	0.789010	0.978992	0.187838
C74	C	0.755549	0.955547	0.216541
C75	C	0.788862	0.453518	0.187812
C76	C	0.788842	0.406598	0.187809
C77	C	0.721929	0.406629	0.245211
C78	C	0.721946	0.453545	0.245212
C79	C	0.755417	0.476988	0.216511
O80	O	0.693527	0.527780	0.269599
O81	O	0.817347	0.527764	0.163415
C82	C	0.788951	0.739708	0.187832
C83	C	0.755504	0.763178	0.216534
C84	C	0.722042	0.739733	0.245232
C85	C	0.755515	0.810096	0.216535
C86	C	0.788977	0.833541	0.187837
C87	C	0.822428	0.810068	0.159138
C88	C	0.822413	0.763153	0.159134
C89	C	0.688590	0.763205	0.273931
C90	C	0.688608	0.810121	0.273933
C91	C	0.722070	0.833566	0.245235
C92	C	0.891853	0.216514	0.216561
C93	C	0.949967	0.216522	0.216574
C94	C	0.755512	0.216479	0.333709
C95	C	0.755526	0.216471	0.383643
C96	C	0.755579	1.099317	0.216557
C97	C	0.755571	1.049383	0.216544
C98	C	0.755478	0.216481	0.099808
C99	C	0.755565	0.216361	0.049874
C100	C	0.722125	0.187688	0.693291
C101	C	0.722140	0.187657	0.880964
O102	O	0.693715	0.163230	0.905233
N103	N	0.755551	0.216387	0.904428
C104	C	0.788958	0.245129	0.880972
O105	O	0.817373	0.269568	0.905236
C106	C	0.788940	0.245162	0.693299
C107	C	0.755531	0.216427	0.669837
C108	C	0.688718	0.158956	0.669829
C109	C	0.688717	0.158962	0.622914
C110	C	0.722123	0.187701	0.599460
C111	C	0.755530	0.216433	0.622922
C112	C	0.822344	0.273906	0.669843
C113	C	0.822336	0.273912	0.622922
C114	C	0.788927	0.245177	0.599460
C115	C	0.788934	0.245178	0.552553
N116	N	0.755523	0.216448	0.529089
C117	C	0.722117	0.187710	0.552542
C118	C	0.788966	0.245109	0.979502
C119	C	0.788971	0.245100	1.026420
C120	C	0.722152	0.187629	1.026409
C121	C	0.722150	0.187636	0.979491
C122	C	0.755555	0.216379	0.956038
C123	C	0.722117	0.187725	0.454016
C124	C	0.722121	0.187733	0.407097
C125	C	0.788937	0.245205	0.407111
C126	C	0.788936	0.245196	0.454027
C127	C	0.755522	0.216455	0.477478
O128	O	0.817340	0.269596	0.528255
O129	O	0.693699	0.163281	0.528270
C130	C	0.722127	0.187682	0.740206
C131	C	0.755534	0.216414	0.763668
C132	C	0.788939	0.245153	0.740215
C133	C	0.755539	0.216405	0.810586
C134	C	0.722133	0.187667	0.834040
C135	C	0.688722	0.158937	0.810575
C136	C	0.688721	0.158943	0.763660
C137	C	0.822350	0.273883	0.763679
C138	C	0.822349	0.273874	0.810595
C139	C	0.788944	0.245135	0.834048
H140	H	0.556448	0.268686	0.268527
C141	C	0.449598	0.276896	0.276757
H142	H	0.473683	0.294025	0.293832
H143	H	0.428334	0.259728	0.296364
H144	H	0.428262	0.296456	0.259551
H145	H	0.694909	0.164320	0.473105
C146	C	-0.052752	0.156103	0.156349
H147	H	-0.028668	0.138967	0.139271
H148	H	-0.074082	0.173259	0.136744
H149	H	-0.074023	0.136551	0.173576
H150	H	0.816182	0.268494	1.045519
H151	H	0.305272	0.297470	0.297242
H152	H	0.694866	1.045043	0.268612
C153	C	0.564253	0.156060	0.156279
H154	H	0.600682	0.160178	0.160388
H155	H	0.555282	0.162587	0.126081
H156	H	0.555333	0.125884	0.162918
C157	C	0.859192	0.695105	0.127553
H158	H	0.879104	0.674401	0.110459
H159	H	0.881970	0.713383	0.144753
H160	H	0.839205	0.713429	0.107957
C161	C	0.825678	0.276817	0.381307
H162	H	0.820885	0.272707	0.350004
H163	H	0.860817	0.270252	0.389007
H164	H	0.817989	0.307001	0.388983
C165	C	0.198426	0.305696	0.305449
H166	H	0.222513	0.322829	0.322519
H167	H	0.177150	0.288546	0.325061
H168	H	0.177102	0.325253	0.288227
H169	H	0.849651	0.744047	0.135760
H170	H	-0.044963	0.268720	0.268603
C171	C	0.825641	0.380783	0.156235
H172	H	0.845575	0.401469	0.139148
H173	H	0.805651	0.362507	0.136639
H174	H	0.848407	0.362454	0.173443
C175	C	0.859102	0.305485	0.836398
H176	H	0.878991	0.322603	0.815706
H177	H	0.881904	0.288306	0.854717
H178	H	0.839076	0.325056	0.854683
H179	H	0.054102	0.268718	0.268594
H180	H	0.816169	0.268517	0.960411
C181	C	0.061899	0.156093	0.156337
H182	H	0.037815	0.138965	0.139259
H183	H	0.083227	0.136538	0.173552
H184	H	0.083172	0.173251	0.136725
C185	C	0.198433	0.127296	0.127658
H186	H	0.222520	0.110158	0.110584
H187	H	0.177103	0.144447	0.108049
H188	H	0.177163	0.107745	0.144887
C189	C	0.313085	0.127292	0.127647
H190	H	0.289002	0.110161	0.110571
H191	H	0.334414	0.107741	0.144866
H192	H	0.334357	0.144449	0.108033
C193	C	0.859103	0.305493	0.737886
H194	H	0.879002	0.322598	0.758584
H195	H	0.839089	0.325071	0.719567
H196	H	0.881903	0.288309	0.719602
H197	H	0.661510	0.135565	0.603815
H198	H	0.694953	0.164228	1.045513
H199	H	0.816118	0.472599	0.164442
H200	H	0.457386	0.164286	0.164483
H201	H	0.694710	0.472655	0.268587
H202	H	0.661308	0.603362	0.297304
H203	H	0.849607	0.603300	0.135749
C204	C	0.859083	0.305530	0.597127
H205	H	0.878981	0.322638	0.617822
H206	H	0.839062	0.325104	0.578810
H207	H	0.881885	0.288350	0.578839
H208	H	0.849550	0.297305	0.688938
H209	H	0.816248	0.959885	0.164465
C210	C	0.685128	0.380836	0.276781
H211	H	0.665206	0.401531	0.293877
H212	H	0.705118	0.362508	0.296368
H213	H	0.662350	0.362559	0.259575
C214	C	0.651966	0.127339	0.737858
H215	H	0.632070	0.110228	0.758551
H216	H	0.671979	0.107767	0.719567
H217	H	0.629162	0.144527	0.719544
H218	H	0.816270	1.045007	0.164475
C219	C	0.685393	0.156034	0.953687
H220	H	0.665497	0.138921	0.974379
H221	H	0.705404	0.136464	0.935393
H222	H	0.662590	0.173225	0.935375
H223	H	0.694848	0.959935	0.268614
C224	C	0.651772	0.695176	0.305512
H225	H	0.631851	0.674487	0.322605
H226	H	0.629003	0.713508	0.288315
H227	H	0.671770	0.713450	0.325109
H228	H	0.849672	0.829166	0.135770
C229	C	0.651811	0.835933	0.305511
H230	H	0.631886	0.815246	0.322603
H231	H	0.629045	0.854267	0.288312
H232	H	0.671810	0.854205	0.325108
H233	H	0.816147	0.268590	0.473131
C234	C	0.651972	0.127330	0.836380
H235	H	0.656757	0.131448	0.867682
H236	H	0.659645	0.097144	0.828709
H237	H	0.616834	0.133909	0.828676
C238	C	0.685365	0.156126	0.381291
H239	H	0.665467	0.139014	0.401982
H240	H	0.705380	0.136555	0.363001
H241	H	0.662564	0.173315	0.362976
H242	H	0.661513	0.135553	0.688920
H243	H	0.661342	0.744120	0.297301
