data_functionalizedCrystal
_audit_creation_method	'MofGen! by Chris Wilmer'
_symmetry_space_group_name_H-M	'P1'
_symmetry_Int_Tables_number	1
_symmetry_cell_setting	triclinic
loop_
_symmetry_equiv_pos_as_xyz
  x,y,z
_cell_length_a	14.853567
_cell_length_b	11.792241
_cell_length_c	13.930277
_cell_angle_alpha	89.995317
_cell_angle_beta	89.995755
_cell_angle_gamma	83.914173
loop_
_atom_site_label
_atom_site_type_symbol
_atom_site_fract_x
_atom_site_fract_y
_atom_site_fract_z
O1	O	1.196945	0.148181	-0.079765
O2	O	0.934554	0.165833	-0.079782
O3	O	1.072117	-0.008203	-0.079766
O4	O	1.059382	0.322217	-0.079780
O5	O	1.072098	-0.008206	0.079896
O6	O	0.934535	0.165829	0.079880
O7	O	1.196926	0.148177	0.079897
Zn8	Zn	1.065728	0.157003	0.105238
Zn9	Zn	1.065753	0.157008	-0.105123
O10	O	1.059363	0.322213	0.079881
C11	C	0.900953	0.165032	0.000047
C12	C	0.800860	0.162635	0.000041
C13	C	1.071308	-0.050491	0.000064
C14	C	1.068913	-0.176489	0.000063
C15	C	0.387884	0.049122	0.000068
C16	C	0.367408	0.255880	0.000058
C17	C	0.461451	0.258134	0.000055
C18	C	0.518715	0.155880	0.000056
C19	C	0.481936	0.051372	0.000062
C20	C	0.498237	0.362640	0.000040
C21	C	0.592285	0.364898	0.000035
C22	C	0.649550	0.262642	0.000044
C23	C	0.612766	0.158131	0.000050
C24	C	0.670030	0.055877	0.000052
C25	C	0.633248	-0.048637	0.000065
C26	C	0.539201	-0.050883	0.000070
C27	C	0.743596	0.264889	0.000039
C28	C	0.764081	0.058127	0.000046
C29	C	1.064511	-0.407174	0.000047
C30	C	1.066957	-0.278804	0.000056
C31	C	1.230527	0.148979	0.000066
C32	C	1.330621	0.151376	0.000066
C33	C	1.060173	0.364501	0.000049
C34	C	1.062567	0.490500	0.000044
N35	N	1.065717	0.156999	0.248804
N36	N	1.065771	0.157003	-0.248689
C37	C	1.004838	0.234041	0.701067
C38	C	1.126693	0.079966	0.701050
C39	C	1.126682	0.079963	0.600554
C40	C	1.065749	0.157000	0.550310
C41	C	1.004827	0.234042	0.600562
C42	C	1.187610	0.002930	0.550295
C43	C	1.187602	0.002925	0.449793
C44	C	1.126664	0.079958	0.399547
C45	C	1.065738	0.157001	0.449805
C46	C	1.004805	0.234039	0.399561
C47	C	0.943875	0.311078	0.449817
C48	C	0.943889	0.311075	0.550316
C49	C	1.126650	0.079961	0.299048
C50	C	1.004794	0.234040	0.299056
H51	H	0.810700	-0.025142	0.000052
Br52	Br	1.209343	-0.024574	0.230850
Br53	Br	0.922088	0.338588	0.230875
Br54	Br	1.270289	-0.101626	0.381594
Br55	Br	0.861191	0.415637	0.381618
Br56	Br	0.420520	0.501404	0.000016
Br57	Br	0.710973	-0.187404	0.000057
Br58	Br	0.861205	0.415622	0.618522
Br59	Br	1.209394	-0.024571	0.769234
Br60	Br	0.489277	-0.192709	0.000085
H61	H	0.357932	-0.035970	0.000082
Br62	Br	1.270311	-0.101607	0.618479
H63	H	0.320779	0.339131	0.000048
Br64	Br	0.642196	0.506733	0.000018
H65	H	0.955226	0.296762	0.741988
Br66	Br	0.793513	0.406715	0.000011
