data_functionalizedCrystal
_audit_creation_method	'MofGen! by Chris Wilmer'
_symmetry_space_group_name_H-M	'P1'
_symmetry_Int_Tables_number	1
_symmetry_cell_setting	triclinic
loop_
_symmetry_equiv_pos_as_xyz
  x,y,z
_cell_length_a	12.759401
_cell_length_b	16.959453
_cell_length_c	12.759393
_cell_angle_alpha	89.966032
_cell_angle_beta	89.979062
_cell_angle_gamma	90.021513
loop_
_atom_site_label
_atom_site_type_symbol
_atom_site_fract_x
_atom_site_fract_y
_atom_site_fract_z
Zn1	Zn	1.606228	-0.314611	-0.593995
Zn2	Zn	2.106228	0.185389	-0.093995
Zn3	Zn	1.606103	-0.446810	-0.418304
Zn4	Zn	2.106103	0.053190	0.081696
Zn5	Zn	1.430526	-0.314653	-0.418330
Zn6	Zn	1.930526	0.185347	0.081670
Zn7	Zn	1.430502	-0.446755	-0.593941
Zn8	Zn	1.930502	0.053245	-0.093941
O9	O	1.518340	-0.380707	-0.506143
O10	O	2.018340	0.119293	-0.006143
O11	O	1.753232	-0.332153	-0.570701
O12	O	2.253232	0.167847	-0.070701
O13	O	1.582770	-0.429320	-0.271287
O14	O	2.082770	0.070680	0.228713
O15	O	1.453896	-0.204037	-0.441665
O16	O	1.953896	0.295963	0.058335
O17	O	1.753140	-0.429279	-0.441622
O18	O	2.253140	0.070721	0.058378
O19	O	1.582983	-0.204006	-0.570726
O20	O	2.082983	0.295994	-0.070726
O21	O	1.453775	-0.332225	-0.271305
O22	O	1.953775	0.167775	0.228695
O23	O	1.283502	-0.332171	-0.441614
O24	O	1.783502	0.167829	0.058386
O25	O	1.453855	-0.429185	-0.740970
O26	O	1.953855	0.070815	-0.240970
O27	O	1.283484	-0.429226	-0.570635
O28	O	1.783484	0.070774	-0.070635
O29	O	1.582960	-0.332100	-0.741009
O30	O	2.082960	0.167900	-0.241009
O31	O	1.582746	-0.557414	-0.441570
O32	O	2.082746	-0.057414	0.058430
O33	O	1.453733	-0.557373	-0.570610
O34	O	1.953733	-0.057373	-0.070610
C35	C	1.245372	-0.380698	-0.506122
C36	C	1.745372	0.119302	-0.006122
C37	C	1.128596	-0.380713	-0.506138
C38	C	1.628596	0.119287	-0.006138
C39	C	1.073752	-0.431326	-0.573213
C40	C	1.573752	0.068674	-0.073213
C41	C	0.964028	-0.431329	-0.573234
C42	C	1.464028	0.068671	-0.073234
C43	C	0.964001	-0.330103	-0.439095
C44	C	1.464001	0.169897	0.060905
C45	C	1.073723	-0.330097	-0.439080
C46	C	1.573723	0.169903	0.060920
C47	C	1.518252	-0.586074	-0.506104
C48	C	2.018252	-0.086074	-0.006104
C49	C	1.518311	-0.673930	-0.506123
C50	C	2.018311	-0.173930	-0.006123
C51	C	1.585641	-1.045331	-0.573471
C52	C	2.085641	-0.545331	-0.073471
C53	C	1.451332	-1.045480	-0.438970
C54	C	1.951332	-0.545480	0.061030
C55	C	1.451293	-0.962935	-0.438946
C56	C	1.951293	-0.462935	0.061054
C57	C	1.518428	-0.921583	-0.506187
C58	C	2.018428	-0.421583	-0.006187
C59	C	1.585602	-0.962778	-0.573451
C60	C	2.085602	-0.462778	-0.073451
C61	C	1.384112	-0.921734	-0.371690
C62	C	1.884112	-0.421734	0.128310
C63	C	1.384070	-0.839183	-0.371664
C64	C	1.884070	-0.339183	0.128336
C65	C	1.451211	-0.797830	-0.438900
C66	C	1.951211	-0.297830	0.061100
C67	C	1.518389	-0.839030	-0.506167
C68	C	2.018389	-0.339030	-0.006167
C69	C	1.585524	-0.797678	-0.573407
C70	C	2.085524	-0.297678	-0.073407
C71	C	1.652708	-0.838876	-0.640669
C72	C	2.152708	-0.338876	-0.140669
C73	C	1.652744	-0.921425	-0.640687
C74	C	2.152744	-0.421425	-0.140687
C75	C	1.451175	-0.715282	-0.438882
C76	C	1.951175	-0.215282	0.061118
C77	C	1.585485	-0.715125	-0.573387
C78	C	2.085485	-0.215125	-0.073387
C79	C	1.792373	-0.380718	-0.506164
C80	C	2.292373	0.119282	-0.006164
C81	C	1.909150	-0.380722	-0.506173
C82	C	2.409150	0.119278	-0.006173
C83	C	1.518418	-0.380632	-0.780176
C84	C	2.018418	0.119368	-0.280176
C85	C	1.518452	-0.380599	-0.896953
C86	C	2.018452	0.119401	-0.396953
C87	C	1.518456	-0.174539	-0.506204
C88	C	2.018456	0.325461	-0.006204
C89	C	1.518506	-0.086683	-0.506231
C90	C	2.018506	0.413317	-0.006231
C91	C	1.585682	-0.330039	-0.951837
C92	C	2.085682	0.169961	-0.451837
C93	C	1.585700	-0.330005	-1.061561
C94	C	2.085700	0.169995	-0.561561
C95	C	1.451255	-0.431098	-1.061507
C96	C	1.951255	0.068902	-0.561507
C97	C	1.451232	-0.431128	-0.951785
C98	C	1.951232	0.068872	-0.451785
C99	C	1.518322	-0.380726	-0.233175
C100	C	2.018322	0.119274	0.266825
C101	C	1.518492	-0.380536	-0.116399
C102	C	2.018492	0.119464	0.383601
H103	H	0.919310	-0.288895	-0.384497
H104	H	1.419310	0.211105	0.115503
N105	N	1.311710	-0.966332	-0.299167
N106	N	1.811710	-0.466332	0.200833
H107	H	1.328061	-0.951994	-0.224114
H108	H	1.828061	-0.451994	0.275886
H109	H	1.236655	-0.951985	-0.315503
H110	H	1.736655	-0.451985	0.184497
N111	N	1.378724	-0.485661	-0.892567
N112	N	1.878724	0.014339	-0.392567
H113	H	1.330053	-0.453539	-0.847048
H114	H	1.830053	0.046461	-0.347048
H115	H	1.336213	-0.517664	-0.944006
H116	H	1.836213	-0.017664	-0.444006
N117	N	1.658180	-0.275545	-0.892692
N118	N	2.158180	0.224455	-0.392692
H119	H	1.641903	-0.219060	-0.911793
H120	H	2.141903	0.280940	-0.411793
H121	H	1.647932	-0.283308	-0.814875
H122	H	2.147932	0.216692	-0.314875
H123	H	1.396470	-0.681742	-0.384123
H124	H	1.896470	-0.181742	0.115877
N125	N	1.132939	-0.485915	-0.645537
N126	N	1.632939	0.014085	-0.145537
H127	H	1.081541	-0.517978	-0.688032
H128	H	1.581541	-0.017978	-0.188032
H129	H	1.178502	-0.453783	-0.694227
H130	H	1.678502	0.046217	-0.194227
N131	N	0.904874	-0.485922	-0.645575
N132	N	1.404874	0.014078	-0.145575
H133	H	0.956288	-0.517985	-0.688048
H134	H	1.456288	-0.017985	-0.188048
H135	H	0.859314	-0.522462	-0.602721
H136	H	1.359314	-0.022462	-0.102721
H137	H	1.707366	-0.805199	-0.695422
H138	H	2.207366	-0.305199	-0.195422
H139	H	1.707440	-0.954976	-0.695449
H140	H	2.207440	-0.454976	-0.195449
H141	H	1.640344	-1.078878	-0.628231
H142	H	2.140344	-0.578878	-0.128231
H143	H	1.640159	-0.681462	-0.628139
H144	H	2.140159	-0.181462	-0.128139
N145	N	1.132886	-0.275494	-0.366745
N146	N	1.632886	0.224506	0.133255
H147	H	1.081477	-0.243432	-0.324264
H148	H	1.581477	0.256568	0.175736
H149	H	1.178381	-0.307615	-0.318040
H150	H	1.678381	0.192385	0.181960
N151	N	1.378928	-1.090076	-0.366447
N152	N	1.878928	-0.590076	0.133553
H153	H	1.389147	-1.148621	-0.376665
H154	H	1.889147	-0.648621	0.123335
H155	H	1.395325	-1.075681	-0.291426
H156	H	1.895325	-0.575681	0.208574
H157	H	1.329366	-0.805645	-0.316895
H158	H	1.829366	-0.305645	0.183105
H159	H	1.640443	-0.288832	-1.106243
H160	H	2.140443	0.211168	-0.606243
N161	N	1.378741	-0.485583	-1.120648
N162	N	1.878741	0.014417	-0.620648
H163	H	1.388951	-0.477891	-1.198485
H164	H	1.888951	0.022109	-0.698485
H165	H	1.395037	-0.542046	-1.101462
H166	H	1.895037	-0.042046	-0.601462
