data_functionalizedCrystal
_audit_creation_method	'MofGen! by Chris Wilmer'
_symmetry_space_group_name_H-M	'P1'
_symmetry_Int_Tables_number	1
_symmetry_cell_setting	triclinic
loop_
_symmetry_equiv_pos_as_xyz
  x,y,z
_cell_length_a	16.974800
_cell_length_b	13.339070
_cell_length_c	15.455313
_cell_angle_alpha	93.394339
_cell_angle_beta	90.973911
_cell_angle_gamma	99.476486
loop_
_atom_site_label
_atom_site_type_symbol
_atom_site_fract_x
_atom_site_fract_y
_atom_site_fract_z
O1	O	1.077288	0.129038	0.003523
O2	O	0.851236	0.144496	-0.012353
O3	O	0.938318	-0.010570	-0.006234
O4	O	0.990206	0.284104	-0.002595
O5	O	0.933331	-0.001739	0.137677
O6	O	0.846248	0.153327	0.131559
O7	O	1.072301	0.137869	0.147435
Cu8	Cu	0.958819	0.146404	0.152637
Cu9	Cu	0.964718	0.135961	-0.017555
O10	O	0.985218	0.292935	0.141316
C11	C	0.819219	0.148162	0.057530
C12	C	0.731246	0.145916	0.051351
C13	C	0.687201	0.149672	0.126897
C14	C	0.604540	0.147545	0.121094
C15	C	0.565925	0.141670	0.039745
C16	C	0.609975	0.137911	-0.035806
C17	C	0.692634	0.140030	-0.030003
C18	C	0.319000	0.134809	0.013975
C19	C	0.236335	0.132693	0.008177
C20	C	0.230906	0.142326	0.165079
C21	C	0.313567	0.144451	0.170875
C22	C	0.357610	0.140686	0.095324
N23	N	0.481432	0.139499	0.033811
N24	N	0.442100	0.142849	0.101258
C25	C	0.927060	-0.043869	0.065105
C26	C	0.900934	-0.156245	0.063267
C27	C	1.104073	-0.520460	0.077533
C28	C	1.128622	-0.414877	0.079266
C29	C	1.071702	-0.350214	0.075266
C30	C	0.990230	-0.391144	0.069534
C31	C	0.965678	-0.496737	0.067808
C32	C	0.933307	-0.326491	0.065541
C33	C	0.851835	-0.367422	0.059809
C34	C	0.827288	-0.473005	0.058083
C35	C	0.884207	-0.537667	0.062083
C36	C	0.957858	-0.220898	0.067266
C37	C	0.819463	-0.197176	0.057541
C38	C	0.794915	-0.302759	0.055809
C39	C	1.104318	0.134203	0.077550
C40	C	1.192291	0.136449	0.083723
C41	C	0.996477	0.326234	0.069975
C42	C	1.022602	0.438610	0.071808
N43	N	0.954676	0.153749	0.272342
N44	N	0.968865	0.128608	-0.137259
C45	C	0.991695	0.087896	0.320337
C46	C	0.988571	0.093459	0.410925
C47	C	0.948432	0.164882	0.453517
C48	C	0.911408	0.230739	0.405515
C49	C	0.914528	0.225169	0.314928
C50	C	0.934961	0.188895	0.724152
C51	C	0.931846	0.194461	0.814746
C52	C	1.009008	0.057180	0.820149
C53	C	1.012128	0.051621	0.729560
C54	C	0.975100	0.117474	0.681566
N55	N	0.945240	0.170573	0.546113
N56	N	0.978288	0.111777	0.588972
H57	H	0.204898	0.127911	-0.058070
H58	H	0.773114	-0.144526	0.054288
H59	H	1.194956	-0.381559	0.083934
C60	C	0.729675	0.156137	0.216380
H61	H	0.785213	0.156871	0.209020
H62	H	0.708129	0.098793	0.247181
H63	H	0.721893	0.216750	0.248142
C64	C	0.556163	0.152291	0.204195
H65	H	0.501424	0.150361	0.189092
H66	H	0.575684	0.213761	0.237537
H67	H	0.561547	0.095840	0.237222
C68	C	1.166674	-0.591587	0.081936
H69	H	1.140382	-0.660331	0.080083
H70	H	1.197388	-0.576080	0.134401
H71	H	1.200870	-0.582241	0.034025
C72	C	0.367443	0.130693	-0.069125
H73	H	0.422202	0.132790	-0.054024
H74	H	0.361890	0.187347	-0.101818
H75	H	0.348131	0.069390	-0.102798
C76	C	1.049724	-0.015260	0.872943
H77	H	1.042114	-0.001723	0.932993
H78	H	1.105271	-0.004996	0.861948
H79	H	1.026892	-0.083763	0.856466
C80	C	0.705300	-0.347790	0.049513
H81	H	0.698835	-0.419933	0.049064
H82	H	0.682629	-0.328691	-0.002386
H83	H	0.679152	-0.322537	0.097991
H84	H	0.864224	-0.623643	0.060669
C85	C	0.182462	0.146502	0.248177
H86	H	0.127704	0.144405	0.233074
H87	H	0.201791	0.207813	0.281822
H88	H	0.187998	0.089859	0.280900
C89	C	1.035846	0.009328	0.273493
H90	H	1.057439	-0.029101	0.315054
H91	H	1.077852	0.043683	0.241005
H92	H	0.999475	-0.035087	0.235530
H93	H	0.760947	-0.506326	0.053422
H94	H	1.024193	-0.187583	0.071933
H95	H	0.899159	0.252627	0.849420
C96	C	1.029301	0.021030	0.463717
H97	H	1.053663	-0.022293	0.425377
H98	H	0.990511	-0.019044	0.496430
H99	H	1.068875	0.059749	0.501904
C100	C	1.098705	-0.234076	0.077160
H101	H	1.155378	-0.218960	0.081137
H102	H	1.076960	-0.202722	0.125934
H103	H	1.080447	-0.208895	0.025558
C104	C	1.056274	-0.026950	0.682715
H105	H	1.077868	-0.065380	0.724274
H106	H	1.098279	0.007407	0.650227
H107	H	1.019902	-0.071364	0.644752
C108	C	0.894241	0.261339	0.671370
H109	H	0.869899	0.304679	0.709714
H110	H	0.854667	0.222640	0.633180
H111	H	0.933044	0.301410	0.638661
C112	C	0.567501	0.131450	-0.125289
H113	H	0.511965	0.130737	-0.117927
H114	H	0.575280	0.070846	-0.157056
H115	H	0.589050	0.188803	-0.156085
H116	H	0.878722	0.288889	0.440198
H117	H	0.728495	0.136973	-0.091520
H118	H	0.345001	0.149230	0.237118
C119	C	0.873811	0.297612	0.262134
H120	H	0.849466	0.340953	0.300473
H121	H	0.834240	0.258909	0.223943
H122	H	0.912615	0.337682	0.229425
