data_functionalizedCrystal
_audit_creation_method	'MofGen! by Chris Wilmer'
_symmetry_space_group_name_H-M	'P1'
_symmetry_Int_Tables_number	1
_symmetry_cell_setting	triclinic
loop_
_symmetry_equiv_pos_as_xyz
  x,y,z
_cell_length_a	16.120490
_cell_length_b	18.050589
_cell_length_c	16.120379
_cell_angle_alpha	92.961160
_cell_angle_beta	90.180922
_cell_angle_gamma	87.120764
loop_
_atom_site_label
_atom_site_type_symbol
_atom_site_fract_x
_atom_site_fract_y
_atom_site_fract_z
Zn1	Zn	1.247575	-0.327702	0.534595
Zn2	Zn	1.747575	0.172298	1.034595
Zn3	Zn	1.254472	-0.458571	0.395534
Zn4	Zn	1.754472	0.041429	0.895534
Zn5	Zn	1.115521	-0.328429	0.388505
Zn6	Zn	1.615521	0.171571	0.888505
Zn7	Zn	1.108468	-0.445880	0.527517
Zn8	Zn	1.608468	0.054120	1.027517
O9	O	1.181509	-0.390145	0.461538
O10	O	1.681509	0.109855	0.961538
O11	O	1.364858	-0.350069	0.522052
O12	O	1.864858	0.149931	1.022052
O13	O	1.241878	-0.446922	0.278228
O14	O	1.741878	0.053078	0.778228
O15	O	1.133104	-0.224410	0.407905
O16	O	1.633104	0.275590	0.907905
O17	O	1.369925	-0.446218	0.419885
O18	O	1.869925	0.053782	0.919885
O19	O	1.230123	-0.223876	0.515236
O20	O	1.730123	0.276124	1.015236
O21	O	1.139791	-0.351308	0.273063
O22	O	1.639791	0.148692	0.773063
O23	O	0.998217	-0.339002	0.401041
O24	O	1.498217	0.160998	0.901041
O25	O	1.121083	-0.424588	0.644830
O26	O	1.621083	0.075412	1.144830
O27	O	0.993036	-0.425293	0.503172
O28	O	1.493036	0.074707	1.003172
O29	O	1.223284	-0.337763	0.650030
O30	O	1.723284	0.162237	1.150030
O31	O	1.235039	-0.560810	0.413021
O32	O	1.735039	-0.060810	0.913021
O33	O	1.127770	-0.551486	0.509988
O34	O	1.627770	-0.051486	1.009988
C35	C	0.965453	-0.380849	0.450576
C36	C	1.465453	0.119151	0.950576
C37	C	0.873023	-0.376890	0.445907
C38	C	1.373023	0.123110	0.945907
C39	C	1.181409	-0.583094	0.461519
C40	C	1.681409	-0.083094	0.961519
C41	C	1.181441	-0.665640	0.461542
C42	C	1.681441	-0.165640	0.961542
C43	C	0.660070	-0.410680	0.485761
C44	C	1.160070	0.089320	0.985761
C45	C	0.703796	-0.369667	0.437380
C46	C	1.203796	0.130333	0.937380
C47	C	0.797963	-0.373687	0.442126
C48	C	1.297963	0.126313	0.942126
C49	C	0.565895	-0.406661	0.481017
C50	C	1.065895	0.093339	0.981017
C51	C	1.123164	-0.860050	0.514256
C52	C	1.623164	-0.360050	1.014256
C53	C	1.106718	-0.912264	0.437345
C54	C	1.606718	-0.412264	0.937345
C55	C	1.181523	-0.816773	0.461557
C56	C	1.681523	-0.316773	0.961557
C57	C	1.198010	-0.911642	0.538479
C58	C	1.698010	-0.411642	1.038479
C59	C	1.181599	-0.962761	0.461578
C60	C	1.681599	-0.462761	0.961578
C61	C	1.165038	-0.867900	0.384604
C62	C	1.665038	-0.367900	0.884604
C63	C	1.256363	-0.867273	0.485791
C64	C	1.756363	-0.367273	0.985791
C65	C	1.239947	-0.919468	0.408829
C66	C	1.739947	-0.419468	0.908829
C67	C	1.181476	-0.732673	0.461546
C68	C	1.681476	-0.232673	0.961546
C69	C	1.181646	-1.046859	0.461581
C70	C	1.681646	-0.546859	0.961581
C71	C	1.398408	-0.399478	0.472542
C72	C	1.898408	0.100522	0.972542
C73	C	1.490838	-0.403455	0.477232
C74	C	1.990838	0.096545	0.977232
C75	C	1.192396	-0.400520	0.245474
C76	C	1.692396	0.099480	0.745474
C77	C	1.197194	-0.404778	0.153048
C78	C	1.697194	0.095222	0.653048
C79	C	1.181631	-0.196443	0.461576
C80	C	1.681631	0.303557	0.961576
C81	C	1.181683	-0.113899	0.461592
C82	C	1.681683	0.386101	0.961592
C83	C	1.205966	-0.412552	-0.016174
C84	C	1.705966	0.087448	0.483826
C85	C	1.157221	-0.367446	-0.059900
C86	C	1.657221	0.132554	0.440100
C87	C	1.162102	-0.371772	-0.154062
C88	C	1.662102	0.128228	0.345938
C89	C	1.201087	-0.408227	0.077995
C90	C	1.701087	0.091773	0.577995
C91	C	1.170628	-0.379679	0.678448
C92	C	1.670628	0.120321	1.178448
C93	C	1.165990	-0.375218	0.770882
C94	C	1.665990	0.124782	1.270882
H95	H	0.670511	-0.331535	0.392395
H96	H	1.170511	0.168465	0.892395
H97	H	1.043464	-0.932119	0.416867
H98	H	1.543464	-0.432119	0.916867
O99	O	1.064153	-0.829238	0.567346
O100	O	1.564153	-0.329238	1.067346
C101	C	0.955572	-0.850959	0.664236
C102	C	1.455572	-0.350959	1.164236
C103	C	1.022358	-0.885952	0.604130
C104	C	1.522358	-0.385952	1.104130
H105	H	0.921775	-0.896795	0.694005
H106	H	1.421775	-0.396795	1.194005
H107	H	0.909167	-0.814955	0.628565
H108	H	1.409167	-0.314955	1.128565
H109	H	0.986377	-0.815213	0.714681
H110	H	1.486377	-0.315213	1.214681
H111	H	0.991626	-0.921733	0.553672
H112	H	1.491626	-0.421733	1.053672
H113	H	1.068757	-0.921913	0.639859
H114	H	1.568757	-0.421913	1.139859
O115	O	1.260232	-0.462427	-0.055827
O116	O	1.760232	0.037573	0.444173
C117	C	1.403291	-0.504910	-0.075241
C118	C	1.903291	-0.004910	0.424759
C119	C	1.341935	-0.448368	-0.030281
C120	C	1.841935	0.051632	0.469719
H121	H	1.469359	-0.493572	-0.054591
H122	H	1.969359	0.006428	0.445409
H123	H	1.397696	-0.499545	-0.145215
H124	H	1.897696	0.000455	0.354785
H125	H	1.388228	-0.563511	-0.059157
H126	H	1.888228	-0.063511	0.440843
H127	H	1.356958	-0.389742	-0.046296
H128	H	1.856958	0.110258	0.453704
H129	H	1.347541	-0.453797	0.039682
H130	H	1.847541	0.046203	0.539682
H131	H	0.693353	-0.448809	0.530742
H132	H	1.193353	0.051191	1.030742
O133	O	1.148321	-0.844852	0.307039
O134	O	1.648321	-0.344852	0.807039
C135	C	1.129577	-0.740711	0.219998
C136	C	1.629577	-0.240711	0.719998
C137	C	1.148502	-0.766712	0.307880
C138	C	1.648502	-0.266712	0.807880
H139	H	1.129734	-0.677534	0.220644
H140	H	1.629734	-0.177534	0.720644
H141	H	1.065998	-0.759582	0.199231
H142	H	1.565998	-0.259582	0.699231
H143	H	1.179051	-0.765781	0.175039
H144	H	1.679051	-0.265781	0.675039
H145	H	1.099080	-0.741654	0.352899
H146	H	1.599080	-0.241654	0.852899
H147	H	1.212105	-0.747852	0.328577
H148	H	1.712105	-0.247852	0.828577
H149	H	1.111824	-0.325580	-0.026618
H150	H	1.611824	0.174420	0.473382
O151	O	1.298777	-0.950210	0.355495
O152	O	1.798777	-0.450210	0.855495
C153	C	1.347908	-0.962700	0.214201
C154	C	1.847908	-0.462700	0.714201
C155	C	1.281223	-0.927850	0.274508
C156	C	1.781223	-0.427850	0.774508
H157	H	1.333749	-0.944623	0.148713
H158	H	1.833749	-0.444623	0.648713
H159	H	1.347879	-1.025820	0.214929
H160	H	1.847879	-0.525820	0.714929
H161	H	1.411505	-0.943416	0.234332
H162	H	1.911505	-0.443416	0.734332
H163	H	1.217593	-0.947076	0.254420
H164	H	1.717593	-0.447076	0.754420
H165	H	1.281325	-0.864735	0.273772
H166	H	1.781325	-0.364735	0.773772
H167	H	1.319600	-0.847418	0.506305
H168	H	1.819600	-0.347418	1.006305
H169	H	1.211924	-0.930947	0.603522
H170	H	1.711924	-0.430947	1.103522
