data_functionalizedCrystal
_audit_creation_method	'MofGen! by Chris Wilmer'
_symmetry_space_group_name_H-M	'P1'
_symmetry_Int_Tables_number	1
_symmetry_cell_setting	triclinic
loop_
_symmetry_equiv_pos_as_xyz
  x,y,z
_cell_length_a	21.395362
_cell_length_b	18.050589
_cell_length_c	18.050582
_cell_angle_alpha	89.981795
_cell_angle_beta	89.965696
_cell_angle_gamma	90.044101
loop_
_atom_site_label
_atom_site_type_symbol
_atom_site_fract_x
_atom_site_fract_y
_atom_site_fract_z
Zn1	Zn	0.957811	-0.295392	-0.420319
Zn2	Zn	0.957735	-0.419575	-0.296139
Zn3	Zn	0.853043	-0.295438	-0.296101
Zn4	Zn	0.852999	-0.419579	-0.420245
O5	O	0.905397	-0.357496	-0.358201
O6	O	1.045479	-0.311844	-0.403893
O7	O	0.943835	-0.403126	-0.192209
O8	O	0.866991	-0.191507	-0.312594
O9	O	1.045423	-0.403081	-0.312658
O10	O	0.943963	-0.191473	-0.403857
O11	O	0.866918	-0.311923	-0.192182
O12	O	0.765360	-0.311926	-0.312523
O13	O	0.866916	-0.403088	-0.524180
O14	O	0.765327	-0.403132	-0.403731
O15	O	0.943920	-0.311848	-0.524234
O16	O	0.943792	-0.523500	-0.312586
O17	O	0.866843	-0.523503	-0.403767
C18	C	0.742610	-0.357535	-0.358115
C19	C	0.672968	-0.357570	-0.358096
C20	C	0.905322	-0.550448	-0.358189
C21	C	0.905347	-0.632994	-0.358208
C22	C	0.640255	-0.405124	-0.405517
C23	C	0.574819	-0.405106	-0.405550
C24	C	0.542100	-0.357541	-0.358149
C25	C	0.574821	-0.309978	-0.310724
C26	C	0.640255	-0.309993	-0.310698
C27	C	0.438384	-0.351565	-0.291291
C28	C	0.372952	-0.351556	-0.291316
C29	C	0.340279	-0.357493	-0.358231
C30	C	0.373048	-0.363455	-0.425122
C31	C	0.438482	-0.363469	-0.425095
C32	C	0.471148	-0.357520	-0.358172
C33	C	0.236613	-0.405030	-0.405691
C34	C	0.171177	-0.405006	-0.405726
C35	C	0.171180	-0.309883	-0.310894
C36	C	0.236615	-0.309902	-0.310866
C37	C	0.269328	-0.357480	-0.358264
C38	C	0.863543	-0.832473	-0.407775
C39	C	0.848274	-0.881912	-0.340001
C40	C	0.905408	-0.784124	-0.358218
C41	C	0.920707	-0.881767	-0.425999
C42	C	0.905466	-0.930109	-0.358233
C43	C	0.890109	-0.832476	-0.290409
C44	C	0.962569	-0.832327	-0.376452
C45	C	0.947322	-0.881743	-0.308632
C46	C	0.905373	-0.700026	-0.358210
C47	C	0.905502	-1.014206	-0.358234
C48	C	1.068821	-0.357457	-0.358288
C49	C	1.138462	-0.357441	-0.358325
C50	C	0.905422	-0.357463	-0.551907
C51	C	0.905432	-0.357449	-0.634453
C52	C	0.905490	-0.163790	-0.358230
C53	C	0.905530	-0.081245	-0.358242
C54	C	0.863589	-0.406997	-0.833874
C55	C	0.920752	-0.425132	-0.883289
C56	C	0.905463	-0.357392	-0.785583
C57	C	0.848332	-0.339237	-0.883249
C58	C	0.905488	-0.357339	-0.931568
C59	C	0.962656	-0.375563	-0.833911
C60	C	0.890197	-0.289636	-0.833867
C61	C	0.947399	-0.307745	-0.883260
C62	C	0.905448	-0.357425	-0.701485
C63	C	0.905509	-0.357306	-1.015665
C64	C	0.905409	-0.357475	-0.165249
C65	C	0.905520	-0.357280	-0.082704
H66	H	0.548179	-0.443829	-0.444168
H67	H	0.828211	-0.449002	-0.812190
H68	H	0.877253	-0.232375	-0.812142
H69	H	1.010870	-0.810533	-0.391893
N70	N	0.473827	-0.369897	-0.497235
H71	H	0.443205	-0.373658	-0.539633
H72	H	0.501018	-0.324663	-0.504195
N73	N	0.539535	-0.258682	-0.259593
H74	H	0.550878	-0.270148	-0.206509
H75	H	0.550987	-0.205658	-0.271274
H76	H	0.346276	-0.346706	-0.236849
H77	H	0.877136	-0.810914	-0.233077
H78	H	0.933624	-0.903419	-0.483315
N79	N	0.994370	-0.252155	-0.911823
H80	H	1.037497	-0.265947	-0.893783
H81	H	0.993805	-0.252169	-0.967770
H82	H	0.933680	-0.482410	-0.904998
N83	N	1.026689	-0.395960	-0.805333
H84	H	1.026280	-0.395876	-0.749381
H85	H	1.038287	-0.446942	-0.823801
H86	H	0.666890	-0.271266	-0.272082
H87	H	0.982752	-0.903241	-0.266681
H88	H	0.800006	-0.323903	-0.904923
H89	H	0.346448	-0.368288	-0.479610
H90	H	0.666885	-0.443864	-0.444113
H91	H	0.263251	-0.271182	-0.272247
H92	H	0.263249	-0.443766	-0.444289
H93	H	0.828087	-0.810838	-0.449624
N94	N	0.784275	-0.910754	-0.319574
H95	H	0.767548	-0.942341	-0.361277
H96	H	0.787351	-0.941520	-0.272977
N97	N	0.135889	-0.456303	-0.456871
H98	H	0.147330	-0.444856	-0.509950
H99	H	0.147240	-0.509328	-0.445166
N100	N	0.135899	-0.258574	-0.259772
H101	H	0.089483	-0.265778	-0.266986
H102	H	0.147284	-0.270061	-0.206708
H103	H	0.464981	-0.346727	-0.236797
