data_functionalizedCrystal
_audit_creation_method	'MofGen! by Chris Wilmer'
_symmetry_space_group_name_H-M	'P1'
_symmetry_Int_Tables_number	1
_symmetry_cell_setting	triclinic
loop_
_symmetry_equiv_pos_as_xyz
  x,y,z
_cell_length_a	18.215407
_cell_length_b	21.295417
_cell_length_c	18.215407
_cell_angle_alpha	90.015372
_cell_angle_beta	90.010236
_cell_angle_gamma	90.030150
loop_
_atom_site_label
_atom_site_type_symbol
_atom_site_fract_x
_atom_site_fract_y
_atom_site_fract_z
Zn1	Zn	1.124978	-0.250706	0.416099
Zn2	Zn	1.458311	0.082627	0.749433
Zn3	Zn	1.791644	0.415961	1.082766
Zn4	Zn	1.124896	-0.355948	0.293026
Zn5	Zn	1.458230	-0.022615	0.626360
Zn6	Zn	1.791563	0.310719	0.959693
Zn7	Zn	1.001931	-0.250698	0.293047
Zn8	Zn	1.335264	0.082636	0.626380
Zn9	Zn	1.668597	0.415969	0.959714
Zn10	Zn	1.001866	-0.355942	0.416051
Zn11	Zn	1.335199	-0.022609	0.749385
Zn12	Zn	1.668532	0.310725	1.082718
O13	O	1.063418	-0.303323	0.354556
O14	O	1.396751	0.030010	0.687889
O15	O	1.730084	0.363343	1.021223
O16	O	1.227951	-0.264673	0.399785
O17	O	1.561284	0.068661	0.733119
O18	O	1.894618	0.401994	1.066452
O19	O	1.108578	-0.341986	0.190045
O20	O	1.441911	-0.008652	0.523378
O21	O	1.775244	0.324681	0.856712
O22	O	1.018314	-0.162609	0.309399
O23	O	1.351648	0.170724	0.642732
O24	O	1.684981	0.504057	0.976065
O25	O	1.227891	-0.341994	0.309364
O26	O	1.561225	-0.008660	0.642697
O27	O	1.894558	0.324673	0.976031
O28	O	1.108716	-0.162615	0.399805
O29	O	1.442050	0.170718	0.733138
O30	O	1.775383	0.504051	1.066472
O31	O	1.018236	-0.264658	0.190060
O32	O	1.351569	0.068675	0.523393
O33	O	1.684902	0.402008	0.856727
O34	O	0.898938	-0.264652	0.309352
O35	O	1.232271	0.068681	0.642685
O36	O	1.565605	0.402014	0.976019
O37	O	1.018204	-0.341983	0.519042
O38	O	1.351537	-0.008650	0.852375
O39	O	1.684870	0.324684	1.185709
O40	O	0.898890	-0.341975	0.399723
O41	O	1.232223	-0.008642	0.733056
O42	O	1.565557	0.324692	1.066390
O43	O	1.108653	-0.264667	0.519077
O44	O	1.441987	0.068667	0.852411
O45	O	1.775320	0.402000	1.185744
O46	O	1.108515	-0.444037	0.309317
O47	O	1.441848	-0.110703	0.642651
O48	O	1.775181	0.222630	0.975984
O49	O	1.018125	-0.444032	0.399703
O50	O	1.351458	-0.110699	0.733036
O51	O	1.684791	0.222634	1.066370
C52	C	0.872211	-0.303313	0.354535
C53	C	1.205545	0.030021	0.687868
C54	C	1.538878	0.363354	1.021202
C55	C	0.790412	-0.303323	0.354543
C56	C	1.123746	0.030010	0.687877
C57	C	1.457079	0.363343	1.021210
C58	C	0.602213	-0.343648	0.401540
C59	C	0.935546	-0.010315	0.734874
C60	C	1.268880	0.323018	1.068207
C61	C	0.525354	-0.343650	0.401550
C62	C	0.858687	-0.010317	0.734883
C63	C	1.192021	0.323016	1.068216
C64	C	0.525374	-0.263010	0.307588
C65	C	0.858708	0.070323	0.640921
C66	C	1.192041	0.403657	0.974254
C67	C	0.602232	-0.263005	0.307583
C68	C	0.935565	0.070328	0.640916
C69	C	1.268898	0.403661	0.974250
C70	C	0.640649	-0.303328	0.354558
C71	C	0.973982	0.030005	0.687891
C72	C	1.307316	0.363339	1.021225
C73	C	0.486933	-0.303335	0.354572
C74	C	0.820266	0.029999	0.687905
C75	C	1.153599	0.363332	1.021239
C76	C	0.403599	-0.303336	0.354582
C77	C	0.736932	0.029997	0.687915
C78	C	1.070266	0.363330	1.021248
C79	C	0.723988	-0.303326	0.354550
C80	C	1.057321	0.030008	0.687883
C81	C	1.390655	0.363341	1.021216
C82	C	1.063324	-0.466875	0.354519
C83	C	1.396657	-0.133542	0.687852
C84	C	1.729990	0.199792	1.021185
C85	C	1.063351	-0.536843	0.354527
C86	C	1.396684	-0.203510	0.687861
C87	C	1.730018	0.129824	1.021194
C88	C	1.110396	-0.569656	0.401636
C89	C	1.443730	-0.236322	0.734969
C90	C	1.777063	0.097011	1.068302
C91	C	1.110422	-0.635398	0.401654
C92	C	1.443756	-0.302065	0.734987
C93	C	1.777089	0.031268	1.068320
C94	C	1.063411	-0.668326	0.354551
C95	C	1.396744	-0.334992	0.687884
C96	C	1.730077	-0.001659	1.021217
C97	C	1.016356	-0.635505	0.307439
C98	C	1.349689	-0.302172	0.640773
C99	C	1.683023	0.031162	0.974106
C100	C	1.016326	-0.569764	0.307428
C101	C	1.349660	-0.236430	0.640761
C102	C	1.682993	0.096903	0.974094
N103	N	1.057863	-0.771573	0.290144
N104	N	1.391196	-0.438240	0.623478
N105	N	1.724529	-0.104906	0.956811
N106	N	1.057895	-0.834024	0.290157
N107	N	1.391229	-0.500691	0.623491
N108	N	1.724562	-0.167358	0.956824
C109	C	1.063497	-0.866400	0.354584
C110	C	1.396830	-0.533067	0.687917
C111	C	1.730163	-0.199734	1.021251
N112	N	1.069078	-0.833966	0.418998
N113	N	1.402412	-0.500632	0.752331
N114	N	1.735745	-0.167299	1.085665
N115	N	1.069050	-0.771508	0.418984
N116	N	1.402383	-0.438175	0.752317
N117	N	1.735716	-0.104842	1.085651
C118	C	1.063437	-0.739611	0.354558
C119	C	1.396771	-0.406278	0.687892
C120	C	1.730104	-0.072944	1.021225
C121	C	1.110573	-0.970498	0.401716
C122	C	1.443906	-0.637165	0.735049
C123	C	1.777239	-0.303832	1.068382
C124	C	1.110593	-1.036242	0.401735
C125	C	1.443927	-0.702909	0.735068
C126	C	1.777260	-0.369576	1.068402
C127	C	1.016531	-1.036348	0.307514
C128	C	1.349864	-0.703014	0.640847
C129	C	1.683198	-0.369681	0.974181
C130	C	1.016506	-0.970605	0.307501
C131	C	1.349840	-0.637272	0.640834
C132	C	1.683173	-0.303939	0.974168
C133	C	1.063531	-0.937685	0.354601
C134	C	1.396864	-0.604351	0.687934
C135	C	1.730198	-0.271018	1.021268
C136	C	1.255370	-0.303335	0.354578
C137	C	1.588704	0.029999	0.687911
C138	C	1.922037	0.363332	1.021244
C139	C	1.337169	-0.303339	0.354587
C140	C	1.670503	0.029994	0.687920
C141	C	2.003836	0.363327	1.021254
C142	C	1.063430	-0.303325	0.546509
C143	C	1.396764	0.030008	0.879842
C144	C	1.730097	0.363342	1.213176
C145	C	1.063436	-0.303326	0.628308
C146	C	1.396769	0.030008	0.961641
C147	C	1.730102	0.363341	1.294974
C148	C	1.063532	-0.139133	0.354610
C149	C	1.396865	0.194200	0.687943
C150	C	1.730198	0.527534	1.021276
C151	C	1.063580	-0.069165	0.354632
C152	C	1.396914	0.264168	0.687966
C153	C	1.730247	0.597502	1.021299
C154	C	1.110518	-0.263074	0.816521
C155	C	1.443852	0.070260	1.149855
C156	C	1.777185	0.403593	1.483188
C157	C	1.110514	-0.263073	0.893380
C158	C	1.443847	0.070260	1.226713
C159	C	1.777181	0.403593	1.560047
C160	C	1.016329	-0.343587	0.893332
C161	C	1.349662	-0.010254	1.226665
C162	C	1.682996	0.323080	1.559999
C163	C	1.016330	-0.343584	0.816475
C164	C	1.349663	-0.010250	1.149808
C165	C	1.682997	0.323083	1.483141
C166	C	1.063429	-0.303328	0.778071
C167	C	1.396762	0.030005	1.111405
C168	C	1.730095	0.363339	1.444738
C169	C	1.063424	-0.303331	0.931787
C170	C	1.396757	0.030002	1.265121
C171	C	1.730090	0.363336	1.598454
C172	C	1.063419	-0.303331	1.015121
C173	C	1.396752	0.030002	1.348454
C174	C	1.730086	0.363336	1.681788
C175	C	1.063433	-0.303327	0.694732
C176	C	1.396766	0.030006	1.028066
C177	C	1.730099	0.363340	1.361399
C178	C	1.063405	-0.303335	1.163350
C179	C	1.396739	0.029998	1.496683
C180	C	1.730072	0.363331	1.830016
C181	C	1.063417	-0.303333	1.081551
C182	C	1.396750	0.030000	1.414884
C183	C	1.730084	0.363333	1.748218
H184	H	0.633527	-0.230168	0.269324
H185	H	0.966860	0.103166	0.602658
H186	H	1.300194	0.436499	0.935991
C187	C	0.965362	-1.072054	0.256464
C188	C	1.298696	-0.738720	0.589797
C189	C	1.632029	-0.405387	0.923131
C190	C	0.892530	-1.056121	0.272434
C191	C	1.225863	-0.722788	0.605767
C192	C	1.559197	-0.389454	0.939101
C193	C	0.845368	-1.089009	0.225429
C194	C	1.178702	-0.755676	0.558763
C195	C	1.512035	-0.422342	0.892096
H196	H	0.976066	-1.061316	0.206998
H197	H	1.309400	-0.727983	0.540332
H198	H	1.642733	-0.394650	0.873665
H199	H	0.972064	-1.115913	0.263223
H200	H	1.305397	-0.782580	0.596556
H201	H	1.638730	-0.449247	0.929889
H202	H	0.885832	-1.012271	0.265669
H203	H	1.219165	-0.678938	0.599002
H204	H	1.552499	-0.345604	0.932336
H205	H	0.881803	-1.066860	0.321891
H206	H	1.215137	-0.733526	0.655224
H207	H	1.548470	-0.400193	0.988558
H208	H	0.852070	-1.132869	0.232188
H209	H	1.185403	-0.799535	0.565522
H210	H	1.518736	-0.466202	0.898855
H211	H	0.856079	-1.078269	0.175967
H212	H	1.189412	-0.744936	0.509300
H213	H	1.522745	-0.411603	0.842633
H214	H	0.795946	-1.078208	0.236263
H215	H	1.129280	-0.744874	0.569596
H216	H	1.462613	-0.411541	0.902930
H217	H	0.494063	-0.376482	0.439808
H218	H	0.827396	-0.043149	0.773142
H219	H	1.160729	0.290184	1.106475
C220	C	1.161414	-0.533801	0.452699
C221	C	1.494748	-0.200467	0.786032
C222	C	1.828081	0.132866	1.119366
C223	C	1.151333	-0.469203	0.442597
C224	C	1.484666	-0.135870	0.775931
C225	C	1.818000	0.197464	1.109264
C226	C	1.198322	-0.436153	0.489619
C227	C	1.531656	-0.102819	0.822952
C228	C	1.864989	0.230514	1.156286
H229	H	1.150657	-0.544492	0.502167
H230	H	1.483991	-0.211159	0.835500
H231	H	1.817324	0.122174	1.168833
H232	H	1.210891	-0.544502	0.441969
H233	H	1.544224	-0.211169	0.775303
H234	H	1.877557	0.122164	1.108636
H235	H	1.101868	-0.458506	0.453332
H236	H	1.435201	-0.125172	0.786665
H237	H	1.768534	0.208161	1.119999
H238	H	1.162095	-0.458493	0.393140
H239	H	1.495428	-0.125159	0.726473
H240	H	1.828762	0.208174	1.059806
H241	H	1.247799	-0.446854	0.478889
H242	H	1.581132	-0.113521	0.812223
H243	H	1.914465	0.219813	1.145556
H244	H	1.187561	-0.446849	0.539084
H245	H	1.520895	-0.113516	0.872417
H246	H	1.854228	0.219817	1.205750
H247	H	1.191493	-0.392320	0.482767
H248	H	1.524827	-0.058986	0.816100
H249	H	1.858160	0.274347	1.149433
H250	H	1.148726	-0.662120	0.440023
H251	H	1.482059	-0.328786	0.773357
H252	H	1.815393	0.004547	1.106690
H253	H	0.978077	-0.662319	0.269089
H254	H	1.311411	-0.328985	0.602422
H255	H	1.644744	0.004348	0.935756
C256	C	0.643791	-0.387444	0.452627
C257	C	0.977124	-0.054111	0.785961
C258	C	1.310458	0.279222	1.119294
C259	C	0.593676	-0.422742	0.493789
C260	C	0.927009	-0.089409	0.827122
C261	C	1.260343	0.243924	1.160456
C262	C	0.631948	-0.463087	0.540868
C263	C	0.965282	-0.129753	0.874201
C264	C	1.298615	0.203580	1.207535
H265	H	0.673755	-0.414891	0.424501
H266	H	1.007088	-0.081558	0.757835
H267	H	1.340422	0.251775	1.091168
H268	H	0.673777	-0.363416	0.484780
H269	H	1.007111	-0.030083	0.818113
H270	H	1.340444	0.303250	1.151446
H271	H	0.563702	-0.446769	0.461640
H272	H	0.897036	-0.113435	0.794974
H273	H	1.230369	0.219898	1.128307
H274	H	0.563710	-0.395312	0.521930
H275	H	0.897044	-0.061979	0.855263
H276	H	1.230377	0.271355	1.188596
H277	H	0.661934	-0.439059	0.573021
H278	H	0.995268	-0.105725	0.906354
H279	H	1.328601	0.227608	1.239687
H280	H	0.661911	-0.490529	0.512736
H281	H	0.995244	-0.157196	0.846070
H282	H	1.328578	0.176137	1.179403
H283	H	0.597951	-0.487037	0.568807
H284	H	0.931285	-0.153704	0.902140
H285	H	1.264618	0.179630	1.235473
H286	H	0.977985	-0.376363	0.924609
H287	H	1.311318	-0.043030	1.257943
H288	H	1.644651	0.290303	1.591276
H289	H	0.978015	-0.543047	0.269066
H290	H	1.311349	-0.209714	0.602399
H291	H	1.644682	0.123620	0.935732
H292	H	0.978201	-0.943887	0.269138
H293	H	1.311534	-0.610554	0.602471
H294	H	1.644867	-0.277221	0.935805
H295	H	1.148858	-0.230293	0.924683
H296	H	1.482191	0.103040	1.258016
H297	H	1.815525	0.436373	1.591349
C298	C	1.161674	-0.219295	0.774958
C299	C	1.495008	0.114038	1.108292
C300	C	1.828341	0.447372	1.441625
C301	C	1.202897	-0.184030	0.825086
C302	C	1.536231	0.149303	1.158419
C303	C	1.869564	0.482637	1.491752
C304	C	1.250022	-0.143686	0.786827
C305	C	1.583356	0.189647	1.120161
C306	C	1.916689	0.522981	1.453494
H307	H	1.193792	-0.243302	0.744970
H308	H	1.527125	0.090031	1.078304
H309	H	1.860458	0.423364	1.411637
H310	H	1.133556	-0.191832	0.744997
H311	H	1.466889	0.141501	1.078330
H312	H	1.800222	0.474835	1.411664
H313	H	1.231014	-0.211490	0.855034
H314	H	1.564347	0.121844	1.188367
H315	H	1.897681	0.455177	1.521701
H316	H	1.170799	-0.160010	0.855075
H317	H	1.504133	0.173324	1.188408
H318	H	1.837466	0.506657	1.521742
H319	H	1.221903	-0.116223	0.756866
H320	H	1.555237	0.217110	1.090200
H321	H	1.888570	0.550444	1.423533
H322	H	1.282135	-0.167699	0.756841
H323	H	1.615468	0.165635	1.090174
H324	H	1.948801	0.498968	1.423507
H325	H	1.277993	-0.119750	0.820833
H326	H	1.611326	0.213583	1.154166
H327	H	1.944659	0.546917	1.487499
H328	H	1.148861	-0.943693	0.440070
H329	H	1.482194	-0.610360	0.773403
H330	H	1.815527	-0.277027	1.106736
C331	C	1.161758	-1.071757	0.452910
C332	C	1.495091	-0.738423	0.786243
C333	C	1.828425	-0.405090	1.119577
C334	C	1.202946	-1.028852	0.494136
C335	C	1.536280	-0.695518	0.827470
C336	C	1.869613	-0.362185	1.160803
C337	C	1.250096	-1.061545	0.541278
C338	C	1.583429	-0.728212	0.874611
C339	C	1.916762	-0.394878	1.207944
H340	H	1.133681	-1.097415	0.485024
H341	H	1.467015	-0.764081	0.818358
H342	H	1.800348	-0.430748	1.151691
H343	H	1.193890	-1.097374	0.424803
H344	H	1.527224	-0.764041	0.758136
H345	H	1.860557	-0.430707	1.091470
H346	H	1.170818	-1.003245	0.522241
H347	H	1.504151	-0.669912	0.855574
H348	H	1.837484	-0.336578	1.188908
H349	H	1.231038	-1.003192	0.462041
H350	H	1.564371	-0.669859	0.795375
H351	H	1.897704	-0.336525	1.128708
H352	H	1.282228	-1.087162	0.513171
H353	H	1.615561	-0.753829	0.846504
H354	H	1.948895	-0.420496	1.179837
H355	H	1.222013	-1.087202	0.573387
H356	H	1.555346	-0.753869	0.906720
H357	H	1.888680	-0.420535	1.240054
H358	H	1.278052	-1.032439	0.569250
H359	H	1.611385	-0.699106	0.902584
H360	H	1.944719	-0.365772	1.235917
C361	C	0.965111	-0.387188	0.774685
C362	C	1.298444	-0.053854	1.108018
C363	C	1.631777	0.279479	1.441351
C364	C	0.917954	-0.351539	0.730580
C365	C	1.251287	-0.018206	1.063914
C366	C	1.584620	0.315128	1.397247
C367	C	0.870755	-0.391681	0.692081
C368	C	1.204088	-0.058347	1.025414
C369	C	1.537422	0.274986	1.358748
H370	H	0.993160	-0.414626	0.744637
H371	H	1.326493	-0.081293	1.077970
H372	H	1.659826	0.252041	1.411303
H373	H	0.937021	-0.411155	0.808540
H374	H	1.270354	-0.077821	1.141873
H375	H	1.603688	0.255512	1.475207
H376	H	0.946040	-0.327582	0.696729
H377	H	1.279374	0.005751	1.030063
H378	H	1.612707	0.339084	1.363396
H379	H	0.889889	-0.324102	0.760610
H380	H	1.223222	0.009231	1.093944
H381	H	1.556555	0.342565	1.427277
H382	H	0.842665	-0.415648	0.725936
H383	H	1.175999	-0.082315	1.059269
H384	H	1.509332	0.251019	1.392603
H385	H	0.898810	-0.419117	0.662037
H386	H	1.232143	-0.085784	0.995370
H387	H	1.565477	0.247550	1.328704
H388	H	0.838749	-0.367499	0.662157
H389	H	1.172082	-0.034165	0.995490
H390	H	1.505416	0.299168	1.328824
C391	C	0.483529	-0.219303	0.256615
C392	C	0.816863	0.114031	0.589948
C393	C	1.150196	0.447364	0.923281
C394	C	0.407994	-0.227947	0.266660
C395	C	0.741327	0.105386	0.599993
C396	C	1.074660	0.438720	0.933327
C397	C	0.369426	-0.187700	0.219708
C398	C	0.702759	0.145634	0.553042
C399	C	1.036092	0.478967	0.886375
H400	H	0.496062	-0.176996	0.267429
H401	H	0.829396	0.156338	0.600762
H402	H	1.162729	0.489671	0.934096
H403	H	0.496065	-0.228454	0.207131
H404	H	0.829399	0.104879	0.540464
H405	H	1.162732	0.438213	0.873798
H406	H	0.395463	-0.218791	0.316132
H407	H	0.728796	0.114542	0.649466
H408	H	1.062130	0.447876	0.982799
H409	H	0.395439	-0.270245	0.255840
H410	H	0.728772	0.063088	0.589174
H411	H	1.062106	0.396421	0.922507
H412	H	0.381962	-0.196851	0.170225
H413	H	0.715295	0.136482	0.503558
H414	H	1.048628	0.469816	0.836891
H415	H	0.381964	-0.145395	0.230527
H416	H	0.715298	0.187938	0.563860
H417	H	1.048631	0.521271	0.897193
H418	H	0.318171	-0.193563	0.226513
H419	H	0.651504	0.139770	0.559846
H420	H	0.984838	0.473103	0.893180
