data_functionalizedCrystal
_audit_creation_method	'MofGen! by Chris Wilmer'
_symmetry_space_group_name_H-M	'P1'
_symmetry_Int_Tables_number	1
_symmetry_cell_setting	triclinic
loop_
_symmetry_equiv_pos_as_xyz
  x,y,z
_cell_length_a	12.759401
_cell_length_b	16.625546
_cell_length_c	16.625539
_cell_angle_alpha	90.030397
_cell_angle_beta	90.017468
_cell_angle_gamma	90.021512
loop_
_atom_site_label
_atom_site_type_symbol
_atom_site_fract_x
_atom_site_fract_y
_atom_site_fract_z
Zn1	Zn	1.606187	-0.321021	0.455831
Zn2	Zn	2.106187	0.178979	0.955831
Zn3	Zn	1.606061	-0.455864	0.320993
Zn4	Zn	2.106061	0.044136	0.820993
Zn5	Zn	1.430493	-0.321047	0.321019
Zn6	Zn	1.930493	0.178953	0.821019
Zn7	Zn	1.430454	-0.455813	0.455790
Zn8	Zn	1.930454	0.044187	0.955790
O9	O	1.518299	-0.388436	0.388408
O10	O	2.018299	0.111564	0.888408
O11	O	1.753192	-0.338919	0.437951
O12	O	2.253192	0.161081	0.937951
O13	O	1.582735	-0.438012	0.208164
O14	O	2.082735	0.061988	0.708164
O15	O	1.453868	-0.208211	0.338930
O16	O	1.953868	0.291789	0.838930
O17	O	1.753099	-0.437987	0.338886
O18	O	2.253099	0.062013	0.838886
O19	O	1.582950	-0.208192	0.437975
O20	O	2.082950	0.291808	0.937975
O21	O	1.453745	-0.338963	0.208183
O22	O	1.953745	0.161037	0.708183
O23	O	1.283466	-0.338913	0.338890
O24	O	1.783466	0.161087	0.838890
O25	O	1.453802	-0.437900	0.568628
O26	O	1.953802	0.062100	1.068628
O27	O	1.283438	-0.437925	0.437906
O28	O	1.783438	0.062075	0.937906
O29	O	1.582913	-0.338869	0.568658
O30	O	2.082913	0.161131	1.068658
O31	O	1.582698	-0.568690	0.338847
O32	O	2.082698	-0.068690	0.838847
O33	O	1.453680	-0.568652	0.437882
O34	O	1.953680	-0.068652	0.937882
C35	C	1.245331	-0.388417	0.388397
C36	C	1.745331	0.111583	0.888397
C37	C	1.128555	-0.388428	0.388411
C38	C	1.628555	0.111572	0.888411
C39	C	1.073734	-0.336941	0.440074
C40	C	1.573734	0.163059	0.940074
C41	C	0.964010	-0.336956	0.440079
C42	C	1.464010	0.163044	0.940079
C43	C	0.963937	-0.439954	0.336756
C44	C	1.463937	0.060046	0.836756
C45	C	1.073659	-0.439934	0.336748
C46	C	1.573659	0.060066	0.836748
C47	C	1.128630	-0.285435	0.491738
C48	C	1.628630	0.214565	0.991738
C49	C	1.073809	-0.233944	0.543406
C50	C	1.573809	0.266056	1.043406
C51	C	0.964085	-0.233960	0.543411
C52	C	1.464085	0.266040	1.043411
C53	C	0.909182	-0.285466	0.491748
C54	C	1.409182	0.214534	0.991748
C55	C	1.518199	-0.597927	0.388375
C56	C	2.018199	-0.097927	0.888375
C57	C	1.518253	-0.687548	0.388387
C58	C	2.018253	-0.187548	0.888387
C59	C	1.518436	-1.015724	0.388471
C60	C	2.018436	-0.515724	0.888471
C61	C	1.518382	-0.924415	0.388450
C62	C	2.018382	-0.424415	0.888450
C63	C	1.518344	-0.851639	0.388429
C64	C	2.018344	-0.351639	0.888429
C65	C	1.518291	-0.760324	0.388408
C66	C	2.018291	-0.260324	0.888408
C67	C	1.792332	-0.388456	0.388420
C68	C	2.292332	0.111544	0.888420
C69	C	1.909109	-0.388464	0.388425
C70	C	2.409109	0.111536	0.888425
C71	C	1.518367	-0.388376	0.598717
C72	C	2.018367	0.111624	1.098717
C73	C	1.518396	-0.388350	0.688338
C74	C	2.018396	0.111650	1.188338
C75	C	1.518427	-0.178127	0.388460
C76	C	2.018427	0.321873	0.888460
C77	C	1.518482	-0.088506	0.388482
C78	C	2.018482	0.411494	0.888482
C79	C	1.518291	-0.388438	0.178917
C80	C	2.018291	0.111562	0.678917
C81	C	1.518466	-0.388236	0.089297
C82	C	2.018466	0.111764	0.589297
C83	C	1.518445	-0.388260	1.016514
C84	C	2.018445	0.111740	1.516514
C85	C	1.518428	-0.388288	0.925206
C86	C	2.018428	0.111712	1.425206
C87	C	1.518421	-0.388306	0.852429
C88	C	2.018421	0.111694	1.352429
C89	C	1.518403	-0.388332	0.761115
C90	C	2.018403	0.111668	1.261115
H91	H	0.919453	-0.192027	0.585475
H92	H	1.419453	0.307973	1.085475
Cl93	Cl	1.266568	-0.285416	0.491738
Cl94	Cl	1.766568	0.214584	0.991738
H95	H	1.118295	-0.481860	0.294680
H96	H	1.618295	0.018140	0.794680
H97	H	0.819837	-0.285457	0.491739
H98	H	1.319837	0.214543	0.991739
H99	H	0.919226	-0.481890	0.294697
H100	H	1.419226	0.018110	0.794697
H101	H	1.118518	-0.192004	0.585462
H102	H	1.618518	0.307996	1.085462
