data_functionalizedCrystal
_audit_creation_method	'MofGen! by Chris Wilmer'
_symmetry_space_group_name_H-M	'P1'
_symmetry_Int_Tables_number	1
_symmetry_cell_setting	triclinic
loop_
_symmetry_equiv_pos_as_xyz
  x,y,z
_cell_length_a	10.686220
_cell_length_b	13.897447
_cell_length_c	10.686551
_cell_angle_alpha	94.405975
_cell_angle_beta	89.691918
_cell_angle_gamma	94.401196
loop_
_atom_site_label
_atom_site_type_symbol
_atom_site_fract_x
_atom_site_fract_y
_atom_site_fract_z
Zn1	Zn	1.972263	-0.235165	0.562384
Zn2	Zn	2.472263	0.264835	1.062384
Zn3	Zn	1.956015	-0.409754	0.352625
Zn4	Zn	2.456015	0.090246	0.852625
Zn5	Zn	1.746379	-0.259840	0.368702
Zn6	Zn	2.246379	0.240160	0.868702
Zn7	Zn	1.762446	-0.407799	0.578402
Zn8	Zn	2.262446	0.092201	1.078402
O9	O	1.859276	-0.328140	0.465528
O10	O	2.359276	0.171860	0.965528
O11	O	2.145651	-0.248816	0.521128
O12	O	2.645651	0.251184	1.021128
O13	O	1.914683	-0.401012	0.179212
O14	O	2.414683	0.098988	0.679212
O15	O	1.776418	-0.121579	0.394419
O16	O	2.276418	0.378421	0.894419
O17	O	2.133714	-0.377086	0.367018
O18	O	2.633714	0.122914	0.867018
O19	O	1.942375	-0.103451	0.536717
O20	O	2.442375	0.396549	1.036717
O21	O	1.760664	-0.290871	0.191024
O22	O	2.260664	0.209129	0.691024
O23	O	1.572967	-0.288976	0.409951
O24	O	2.072967	0.211024	0.909951
O25	O	1.803802	-0.373754	0.751823
O26	O	2.303802	0.126246	1.251823
O27	O	1.584772	-0.397681	0.564017
O28	O	2.084772	0.102319	1.064017
O29	O	1.957954	-0.246920	0.740055
O30	O	2.457954	0.253080	1.240055
O31	O	1.930262	-0.544482	0.382550
O32	O	2.430262	-0.044482	0.882550
O33	O	1.788048	-0.543046	0.548428
O34	O	2.288048	-0.043046	1.048428
C35	C	1.533353	-0.345794	0.490467
C36	C	2.033353	0.154206	0.990467
C37	C	1.393924	-0.353369	0.501166
C38	C	1.893924	0.146631	1.001166
C39	C	1.859171	-0.578761	0.465507
C40	C	2.359171	-0.078761	0.965507
C41	C	1.859245	-0.685969	0.465531
C42	C	2.359245	-0.185969	0.965531
C43	C	1.859308	-0.773034	0.465555
C44	C	2.359308	-0.273034	0.965555
C45	C	1.859398	-0.882260	0.465581
C46	C	2.359398	-0.382260	0.965581
C47	C	2.186471	-0.310416	0.440493
C48	C	2.686471	0.189584	0.940493
C49	C	2.325902	-0.302864	0.429824
C50	C	2.825902	0.197136	0.929824
C51	C	1.884483	-0.307367	0.792729
C52	C	2.384483	0.192633	1.292729
C53	C	1.895224	-0.298515	0.932162
C54	C	2.395224	0.201485	1.432162
C55	C	1.859417	-0.076536	0.465574
C56	C	2.359417	0.423464	0.965574
C57	C	1.859477	0.030683	0.465594
C58	C	2.359477	0.530683	0.965594
C59	C	1.834239	-0.348758	0.139595
C60	C	2.334239	0.151242	0.639595
C61	C	1.823740	-0.357325	0.000144
C62	C	2.323740	0.142675	0.500144
H63	H	1.345487	-0.402411	0.570428
H64	H	1.845487	0.097589	1.070428
C65	C	1.989011	-0.221337	0.997644
C66	C	2.489011	0.278663	1.497644
N67	N	2.059647	-0.163206	1.046966
N68	N	2.559647	0.336794	1.546966
C69	C	1.391328	-0.236613	0.336257
C70	C	1.891328	0.263387	0.836257
N71	N	1.440616	-0.186709	0.265783
N72	N	1.940616	0.313291	0.765783
C73	C	1.729954	-0.434495	0.934668
C74	C	2.229954	0.065505	1.434668
N75	N	1.659311	-0.492620	0.885343
N76	N	2.159311	0.007380	1.385343
