data_functionalizedCrystal
_audit_creation_method	'MofGen! by Chris Wilmer'
_symmetry_space_group_name_H-M	'P1'
_symmetry_Int_Tables_number	1
_symmetry_cell_setting	triclinic
loop_
_symmetry_equiv_pos_as_xyz
  x,y,z
_cell_length_a	15.944551
_cell_length_b	19.188930
_cell_length_c	14.421503
_cell_angle_alpha	89.999163
_cell_angle_beta	89.996859
_cell_angle_gamma	83.321760
loop_
_atom_site_label
_atom_site_type_symbol
_atom_site_fract_x
_atom_site_fract_y
_atom_site_fract_z
O1	O	1.114192	0.090038	-0.077026
O2	O	0.869601	0.101140	-0.077050
O3	O	0.998955	-0.006048	-0.077019
O4	O	0.984838	0.197227	-0.077057
O5	O	0.998934	-0.006032	0.077204
O6	O	0.869580	0.101156	0.077173
O7	O	1.114171	0.090054	0.077198
Cu8	Cu	0.991873	0.095607	0.091267
Cu9	Cu	0.991899	0.095588	-0.091120
O10	O	0.984817	0.197243	0.077167
C11	C	0.838298	0.100687	0.000059
C12	C	0.745057	0.099306	0.000050
C13	C	0.530462	0.029563	0.000081
C14	C	0.469331	0.061941	-0.075965
C15	C	0.574341	0.096806	0.000062
C16	C	0.469332	0.061973	0.076087
C17	C	0.409437	0.094386	0.000077
C18	C	0.514438	0.129203	-0.076047
C19	C	0.514446	0.129225	0.076073
C20	C	0.453332	0.161652	0.000008
C21	C	0.669338	0.098198	0.000052
C22	C	0.314441	0.093000	0.000080
C23	C	0.998487	-0.032052	0.000095
C24	C	0.997115	-0.109560	0.000103
C25	C	1.073016	-0.154288	0.000115
C26	C	1.071726	-0.227115	0.000100
C27	C	0.994532	-0.255211	0.000092
C28	C	0.918622	-0.210474	0.000075
C29	C	0.919913	-0.137648	0.000080
N30	N	0.935519	-0.363364	0.052571
N31	N	0.934298	-0.432545	0.052568
C32	C	0.990637	-0.474630	0.000073
N33	N	1.048256	-0.444921	-0.052407
N34	N	1.049480	-0.375733	-0.052400
C35	C	0.993123	-0.334178	0.000085
C36	C	1.065145	-0.598326	0.000067
C37	C	1.063852	-0.671154	0.000046
C38	C	0.910745	-0.654511	0.000030
C39	C	0.912040	-0.581685	0.000041
C40	C	0.989242	-0.553597	0.000064
C41	C	1.145474	0.090507	0.000087
C42	C	1.238715	0.091889	0.000089
C43	C	0.985285	0.223247	0.000050
C44	C	0.986657	0.300755	0.000036
N45	N	0.991862	0.095619	0.219549
N46	N	0.991917	0.095569	-0.219401
C47	C	0.932038	0.145161	0.469188
C48	C	1.007887	0.158716	0.530995
C49	C	0.991882	0.095603	0.408710
C50	C	0.916052	0.082064	0.530997
C51	C	0.991895	0.095588	0.591431
C52	C	1.067770	0.109189	0.469157
C53	C	0.975885	0.032510	0.469153
C54	C	1.051789	0.046038	0.530932
C55	C	0.991874	0.095613	0.303449
C56	C	0.991913	0.095578	0.696690
H57	H	0.419965	0.217516	-0.000045
C58	C	1.150059	-0.567422	0.000081
H59	H	1.139958	-0.517643	0.000095
H60	H	1.181308	-0.582771	-0.053699
H61	H	1.181292	-0.582780	0.053870
C62	C	0.833708	-0.241373	0.000062
H63	H	0.788687	-0.204301	0.000047
H64	H	0.830009	-0.269439	0.053839
H65	H	0.830035	-0.269434	-0.053730
H66	H	0.534462	0.157649	0.140358
H67	H	0.847892	-0.677386	0.000019
H68	H	0.851919	0.070620	0.558163
H69	H	0.564003	-0.026244	-0.000003
C70	C	0.442331	0.023548	0.162938
H71	H	0.469022	-0.023370	0.162846
H72	H	0.382787	0.023318	0.162618
H73	H	0.458544	0.046985	0.216933
C74	C	1.147345	-0.720358	0.000049
H75	H	1.135521	-0.767754	0.000028
H76	H	1.179004	-0.711850	0.053835
H77	H	1.179015	-0.711834	-0.053734
C78	C	0.442311	0.023513	-0.162799
H79	H	0.468986	-0.023411	-0.162699
H80	H	0.458510	0.046942	-0.216802
H81	H	0.382762	0.023286	-0.162451
H82	H	0.534329	0.157616	-0.140409
H83	H	0.962318	-0.020823	0.441967
C84	C	1.157934	-0.123395	0.000124
H85	H	1.202954	-0.160468	0.000119
H86	H	1.161618	-0.095330	0.053904
H87	H	1.161626	-0.095334	-0.053665
C88	C	1.155220	-0.276325	0.000120
H89	H	1.201383	-0.249166	0.000140
H90	H	1.157912	-0.305081	-0.053660
H91	H	1.157881	-0.305078	0.053909
C92	C	1.026187	0.230782	0.567700
H93	H	1.076284	0.225251	0.603926
H94	H	0.980250	0.250474	0.604880
H95	H	1.033330	0.261078	0.516925
C96	C	0.836419	-0.088446	0.000076
H97	H	0.790258	-0.115606	0.000073
H98	H	0.833747	-0.059685	-0.053700
H99	H	0.833735	-0.059698	0.053869
H100	H	0.850233	-0.545266	0.000037
H101	H	0.881481	0.187105	0.442078
C102	C	1.154424	0.124744	0.432623
H103	H	1.153880	0.124680	0.366749
H104	H	1.196958	0.089746	0.454255
H105	H	1.165884	0.169417	0.454313
C106	C	1.120234	-0.010587	0.567337
H107	H	1.174047	-0.000858	0.546047
H108	H	1.109323	-0.055287	0.545225
H109	H	1.119566	-0.010539	0.633207
