data_functionalizedCrystal
_audit_creation_method	'MofGen! by Chris Wilmer'
_symmetry_space_group_name_H-M	'P1'
_symmetry_Int_Tables_number	1
_symmetry_cell_setting	triclinic
loop_
_symmetry_equiv_pos_as_xyz
  x,y,z
_cell_length_a	16.109301
_cell_length_b	16.992695
_cell_length_c	14.586319
_cell_angle_alpha	89.995905
_cell_angle_beta	89.999213
_cell_angle_gamma	87.064852
loop_
_atom_site_label
_atom_site_type_symbol
_atom_site_fract_x
_atom_site_fract_y
_atom_site_fract_z
O1	O	1.109856	0.100784	-0.076183
O2	O	1.609856	0.600784	0.423817
O3	O	0.868631	0.113326	-0.076198
O4	O	1.368631	0.613326	0.423802
O5	O	0.988277	-0.007087	-0.076183
O6	O	1.488277	0.492913	0.423817
O7	O	0.990211	0.221197	-0.076198
O8	O	1.490211	0.721197	0.423802
O9	O	0.988268	-0.007089	0.076298
O10	O	1.488268	0.492911	0.576298
O11	O	0.868622	0.113324	0.076283
O12	O	1.368622	0.613324	0.576283
O13	O	1.109847	0.100782	0.076298
O14	O	1.609847	0.600782	0.576298
Cu15	Cu	0.989234	0.107053	0.090213
Cu16	Cu	1.489234	0.607053	0.590213
Cu17	Cu	0.989244	0.107055	-0.090113
Cu18	Cu	1.489244	0.607055	0.409887
O19	O	0.990202	0.221196	0.076283
O20	O	1.490202	0.721196	0.576283
C21	C	0.837618	0.112817	0.000041
C22	C	1.337618	0.612817	0.500041
C23	C	0.745221	0.111294	0.000035
C24	C	1.245221	0.611294	0.500035
C25	C	0.527480	0.179203	0.000042
C26	C	1.027480	0.679203	0.500042
C27	C	0.440664	0.177766	0.000048
C28	C	0.940664	0.677766	0.500048
C29	C	0.451005	0.034899	0.000053
C30	C	0.951005	0.534899	0.500053
C31	C	0.537819	0.036337	0.000054
C32	C	1.037819	0.536337	0.500054
C33	C	0.576055	0.108492	0.000043
C34	C	1.076055	0.608492	0.500043
C35	C	0.402424	0.105616	0.000049
C36	C	0.902424	0.605616	0.500049
C37	C	0.308294	0.104057	0.000055
C38	C	0.808294	0.604057	0.500055
C39	C	0.670191	0.110051	0.000039
C40	C	1.170191	0.610051	0.500039
C41	C	0.985784	-0.036300	0.000057
C42	C	1.485784	0.463700	0.500057
C43	C	0.978361	-0.123343	0.000056
C44	C	1.478361	0.376657	0.500056
C45	C	1.049987	-0.173601	0.000062
C46	C	1.549987	0.326399	0.500062
C47	C	1.043007	-0.255386	0.000052
C48	C	1.543007	0.244614	0.500052
C49	C	0.964400	-0.286911	0.000045
C50	C	1.464400	0.213089	0.500045
C51	C	0.892768	-0.236645	0.000037
C52	C	1.392768	0.263355	0.500037
C53	C	0.899749	-0.154862	0.000039
C54	C	1.399749	0.345138	0.500039
C55	C	0.935467	-0.530501	0.000030
C56	C	1.435467	-0.030501	0.500030
C57	C	0.928491	-0.612291	0.000030
C58	C	1.428491	-0.112291	0.500030
C59	C	1.078731	-0.631026	0.000045
C60	C	1.578731	-0.131026	0.500045
C61	C	1.085704	-0.549240	0.000053
C62	C	1.585704	-0.049240	0.500053
C63	C	1.014073	-0.498982	0.000040
C64	C	1.514073	0.001018	0.500040
N65	N	0.957263	-0.370508	0.000038
N66	N	1.457263	0.129492	0.500038
N67	N	1.021210	-0.415387	0.000040
N68	N	1.521210	0.084613	0.500040
C69	C	1.140860	0.101291	0.000057
C70	C	1.640860	0.601291	0.500057
C71	C	1.233257	0.102814	0.000057
C72	C	1.733257	0.602814	0.500057
C73	C	0.992694	0.250408	0.000041
C74	C	1.492694	0.750408	0.500041
C75	C	1.000118	0.337451	0.000036
C76	C	1.500118	0.837451	0.500036
N77	N	0.989232	0.107051	0.217045
N78	N	1.489232	0.607051	0.717045
N79	N	0.989252	0.107051	-0.216945
N80	N	1.489252	0.607051	0.283055
C81	C	1.042231	0.053750	0.452058
C82	C	1.542231	0.553750	0.952058
C83	C	1.042233	0.053748	0.548039
C84	C	1.542233	0.553748	1.048039
C85	C	0.936247	0.160355	0.548036
C86	C	1.436247	0.660355	1.048036
C87	C	0.936241	0.160352	0.452056
C88	C	1.436241	0.660352	0.952056
C89	C	0.989238	0.107051	0.404070
C90	C	1.489238	0.607051	0.904070
C91	C	0.989246	0.107051	0.596030
C92	C	1.489246	0.607051	1.096030
C93	C	0.989248	0.107050	0.700098
C94	C	1.489248	0.607050	1.200098
C95	C	0.989235	0.107051	0.299996
C96	C	1.489235	0.607051	0.799996
H97	H	0.577371	-0.021248	0.000057
H98	H	1.077371	0.478752	0.500057
H99	H	0.864477	-0.637954	0.000039
H100	H	1.364477	-0.137954	0.500039
H101	H	0.558608	0.237956	0.000040
H102	H	1.058608	0.737956	0.500040
O103	O	0.393602	0.246528	0.000002
O104	O	0.893602	0.746528	0.500002
C105	C	0.392513	0.388384	0.000047
C106	C	0.892513	0.888384	0.500047
C107	C	0.445908	0.310566	0.000075
C108	C	0.945908	0.810566	0.500075
H109	H	0.434780	0.440179	0.000126
H110	H	0.934780	0.940179	0.500126
H111	H	0.351628	0.391338	-0.063779
H112	H	0.851628	0.891338	0.436221
H113	H	0.351592	0.391239	0.063847
H114	H	0.851592	0.891239	0.563847
H115	H	0.486878	0.307659	-0.063681
H116	H	0.986878	0.807659	0.436319
H117	H	0.486739	0.307644	0.063944
H118	H	0.986739	0.807644	0.563944
O119	O	0.413994	-0.035256	0.000092
O120	O	0.913994	0.464744	0.500092
C121	C	0.433415	-0.176808	0.000029
C122	C	0.933415	0.323192	0.500029
C123	C	0.475433	-0.097411	0.000012
C124	C	0.975433	0.402589	0.500012
H125	H	0.483069	-0.227082	-0.000055
H126	H	0.983069	0.272918	0.499945
H127	H	0.393052	-0.181114	0.063854
H128	H	0.893052	0.318886	0.563854
H129	H	0.393008	-0.181004	-0.063772
H130	H	0.893008	0.318996	0.436228
H131	H	0.515882	-0.093162	0.063771
H132	H	1.015882	0.406838	0.563771
H133	H	0.515747	-0.093140	-0.063854
H134	H	1.015747	0.406860	0.436146
O135	O	1.093613	0.001847	0.405505
O136	O	1.593613	0.501847	0.905505
C137	C	1.133277	-0.134498	0.376263
C138	C	1.633277	0.365502	0.876263
C139	C	1.075023	-0.075790	0.429007
C140	C	1.575023	0.424210	0.929007
H141	H	1.118280	-0.197280	0.395260
H142	H	1.618280	0.302720	0.895260
H143	H	1.124186	-0.125437	0.299403
H144	H	1.624186	0.374563	0.799403
H145	H	1.200541	-0.124230	0.395126
H146	H	1.700541	0.375770	0.895126
H147	H	1.007738	-0.086022	0.410220
H148	H	1.507738	0.413978	0.910220
H149	H	1.084187	-0.084865	0.505854
H150	H	1.584187	0.415135	1.005854
H151	H	1.085384	0.010345	0.587108
H152	H	1.585384	0.510345	1.087108
H153	H	0.877139	-0.489590	0.000020
H154	H	1.377139	0.010410	0.500020
H155	H	1.113997	-0.147941	0.000074
H156	H	1.613997	0.352059	0.500074
H157	H	1.101332	-0.296304	0.000059
H158	H	1.601332	0.203696	0.500059
O159	O	1.162084	-0.518661	-0.000102
O160	O	1.662084	-0.018661	0.499898
C161	C	1.292658	-0.509693	-0.079049
C162	C	1.792658	-0.009693	0.420951
C163	C	1.206176	-0.544358	-0.079006
C164	C	1.706176	-0.044358	0.420994
H165	H	1.328338	-0.530468	-0.142825
H166	H	1.828338	-0.030468	0.357175
H167	H	1.285399	-0.442603	-0.079103
H168	H	1.785399	0.057397	0.420897
H169	H	1.328285	-0.530389	-0.015202
H170	H	1.828285	-0.030389	0.484798
H171	H	1.170502	-0.523722	-0.142841
H172	H	1.670502	-0.023722	0.357159
H173	H	1.213494	-0.611443	-0.078903
H174	H	1.713494	-0.111443	0.421097
H175	H	0.893100	0.203753	0.587116
H176	H	1.393100	0.703753	1.087116
H177	H	0.893084	0.203757	0.412982
H178	H	1.393084	0.703757	0.912982
O179	O	1.148284	-0.679879	-0.000114
O180	O	1.648284	-0.179879	0.499886
C181	C	1.227575	-0.783114	-0.079085
C182	C	1.727575	-0.283114	0.420915
C183	C	1.148778	-0.727821	-0.079025
C184	C	1.648778	-0.227821	0.420975
H185	H	1.227991	-0.821901	-0.142868
H186	H	1.727991	-0.321901	0.357132
H187	H	1.284985	-0.746574	-0.079140
H188	H	1.784985	-0.246574	0.420860
H189	H	1.228053	-0.821841	-0.015245
H190	H	1.728053	-0.321841	0.484755
H191	H	1.148218	-0.689082	-0.142854
H192	H	1.648218	-0.189082	0.357146
H193	H	1.091403	-0.764408	-0.078922
H194	H	1.591403	-0.264408	0.421078
H195	H	0.828765	-0.262319	0.000024
H196	H	1.328765	0.237681	0.500024
O197	O	0.830087	-0.106150	0.000075
O198	O	1.330087	0.393850	0.500075
C199	C	0.680335	-0.096193	-0.000002
C200	C	1.180335	0.403807	0.499998
C201	C	0.759161	-0.151448	-0.000013
C202	C	1.259161	0.348552	0.499987
H203	H	0.622971	-0.132794	-0.000092
H204	H	1.122971	0.367206	0.499908
H205	H	0.679780	-0.057452	0.063825
H206	H	1.179780	0.442548	0.563825
H207	H	0.679903	-0.057418	-0.063801
H208	H	1.179903	0.442582	0.436199
H209	H	0.759645	-0.190272	0.063743
H210	H	1.259645	0.309728	0.563743
H211	H	0.759684	-0.190136	-0.063882
H212	H	1.259684	0.309864	0.436118
