data_functionalizedCrystal
_audit_creation_method	'MofGen! by Chris Wilmer'
_symmetry_space_group_name_H-M	'P1'
_symmetry_Int_Tables_number	1
_symmetry_cell_setting	triclinic
loop_
_symmetry_equiv_pos_as_xyz
  x,y,z
_cell_length_a	14.908571
_cell_length_b	16.625539
_cell_length_c	14.908520
_cell_angle_alpha	86.731803
_cell_angle_beta	89.794039
_cell_angle_gamma	86.686754
loop_
_atom_site_label
_atom_site_type_symbol
_atom_site_fract_x
_atom_site_fract_y
_atom_site_fract_z
Zn1	Zn	1.353972	-0.548158	0.437408
Zn2	Zn	1.853972	-0.048158	0.937408
Zn3	Zn	1.345187	-0.420623	0.587773
Zn4	Zn	1.845187	0.079377	1.087773
Zn5	Zn	1.203605	-0.405151	0.428750
Zn6	Zn	1.703605	0.094849	0.928750
Zn7	Zn	1.194900	-0.547226	0.579032
Zn8	Zn	1.694900	-0.047226	1.079032
O9	O	1.274416	-0.480290	0.508241
O10	O	1.774416	0.019710	1.008241
O11	O	1.478632	-0.538105	0.464636
O12	O	1.978632	-0.038105	0.964636
O13	O	1.326373	-0.305739	0.566712
O14	O	1.826373	0.194261	1.066712
O15	O	1.230871	-0.418036	0.304076
O16	O	1.730871	0.081964	0.804076
O17	O	1.472177	-0.444406	0.575108
O18	O	1.972177	0.055594	1.075108
O19	O	1.341345	-0.523103	0.310438
O20	O	1.841345	-0.023103	0.810438
O21	O	1.222353	-0.294371	0.449879
O22	O	1.722353	0.205629	0.949879
O23	O	1.076625	-0.417133	0.441404
O24	O	1.576625	0.082867	0.941404
O25	O	1.216035	-0.660182	0.560212
O26	O	1.716035	-0.160182	1.060212
O27	O	1.070230	-0.521514	0.551816
O28	O	1.570230	-0.021514	1.051816
O29	O	1.332904	-0.660867	0.456161
O30	O	1.832904	-0.160867	0.956161
O31	O	1.317932	-0.443503	0.712435
O32	O	1.817932	0.056497	1.212435
O33	O	1.207516	-0.536517	0.706014
O34	O	1.707516	-0.036517	1.206014
C35	C	1.040803	-0.467544	0.494722
C36	C	1.540803	0.032456	0.994722
C37	C	0.940860	-0.462111	0.488961
C38	C	1.440860	0.037889	0.988961
C39	C	0.746437	-0.560466	0.593284
C40	C	1.246437	-0.060466	1.093284
C41	C	0.652532	-0.555364	0.587874
C42	C	1.152532	-0.055364	1.087874
C43	C	0.659145	-0.446812	0.472724
C44	C	1.159145	0.053188	0.972724
C45	C	0.753050	-0.451913	0.478135
C46	C	1.253050	0.048087	0.978135
C47	C	0.796692	-0.508741	0.538418
C48	C	1.296692	-0.008741	1.038418
C49	C	0.890598	-0.513838	0.543833
C50	C	1.390598	-0.013838	1.043833
C51	C	0.897209	-0.405290	0.428680
C52	C	1.397209	0.094710	0.928680
C53	C	0.803305	-0.400188	0.423269
C54	C	1.303305	0.099812	0.923269
C55	C	1.274478	-0.690599	0.508177
C56	C	1.774478	-0.190599	1.008177
C57	C	1.274505	-0.780220	0.508150
C58	C	1.774505	-0.280220	1.008150
C59	C	1.274552	-1.108393	0.508052
C60	C	1.774552	-0.608393	1.008052
C61	C	1.274536	-1.017085	0.508082
C62	C	1.774536	-0.517085	1.008082
C63	C	1.274529	-0.944309	0.508102
C64	C	1.774529	-0.444309	1.008102
C65	C	1.274512	-0.852996	0.508130
C66	C	1.774512	-0.352996	1.008130
C67	C	1.508942	-0.493086	0.521813
C68	C	2.008942	0.006914	1.021813
C69	C	1.608883	-0.498539	0.527596
C70	C	2.108883	0.001461	1.027596
C71	C	1.260850	-0.491607	0.741850
C72	C	1.760850	0.008393	1.241850
C73	C	1.255129	-0.496479	0.841794
C74	C	1.755129	0.003521	1.341794
C75	C	1.274410	-0.270799	0.508242
C76	C	1.774410	0.229201	1.008242
C77	C	1.274572	-0.181175	0.508026
C78	C	1.774572	0.318825	1.008026
C79	C	1.288059	-0.468947	0.273721
C80	C	1.788059	0.031053	0.773721
C81	C	1.293873	-0.464114	0.173782
C82	C	1.793873	0.035886	0.673782
C83	C	1.359472	-0.408870	1.036231
C84	C	1.859472	0.091130	1.536231
C85	C	1.354100	-0.413446	1.130137
C86	C	1.854100	0.086554	1.630137
C87	C	1.239017	-0.510211	1.123515
C88	C	1.739017	-0.010211	1.623515
C89	C	1.244389	-0.505635	1.029608
C90	C	1.744389	-0.005635	1.529608
C91	C	1.304618	-0.454962	0.985970
C92	C	1.804618	0.045038	1.485970
C93	C	1.309986	-0.450382	0.892062
C94	C	1.809986	0.049618	1.392062
C95	C	1.194908	-0.547151	0.885441
C96	C	1.694908	-0.047151	1.385441
C97	C	1.189535	-0.551728	0.979347
C98	C	1.689535	-0.051728	1.479347
H99	H	0.767758	-0.353923	0.374186
H100	H	1.267758	0.146077	0.874186
F101	F	1.125442	-0.605658	1.025800
F102	F	1.625442	-0.105658	1.525800
H103	H	0.938137	-0.363170	0.384005
H104	H	1.438137	0.136830	0.884005
F105	F	0.792886	-0.620939	0.657449
F106	F	1.292886	-0.120939	1.157449
F107	F	1.412485	-0.364390	1.183626
F108	F	1.912485	0.135610	1.683626
F109	F	0.599050	-0.610419	0.646268
F110	F	1.099050	-0.110419	1.146268
F111	F	1.136514	-0.596200	0.831942
F112	F	1.636514	-0.096200	1.331942
H113	H	0.926130	-0.560109	0.592920
H114	H	1.426130	-0.060109	1.092920
H115	H	0.623595	-0.400550	0.423639
H116	H	1.123595	0.099450	0.923639
H117	H	1.359024	-0.409119	0.856532
H118	H	1.859024	0.090881	1.356532
F119	F	1.423560	-0.354929	0.989785
F120	F	1.923560	0.145071	1.489785
F121	F	1.174933	-0.564147	1.169973
F122	F	1.674933	-0.064147	1.669973
