data_functionalizedCrystal
_audit_creation_method	'MofGen! by Chris Wilmer'
_symmetry_space_group_name_H-M	'P1'
_symmetry_Int_Tables_number	1
_symmetry_cell_setting	triclinic
loop_
_symmetry_equiv_pos_as_xyz
  x,y,z
_cell_length_a	12.759401
_cell_length_b	12.759399
_cell_length_c	12.759393
_cell_angle_alpha	89.969069
_cell_angle_beta	89.981287
_cell_angle_gamma	90.016641
loop_
_atom_site_label
_atom_site_type_symbol
_atom_site_fract_x
_atom_site_fract_y
_atom_site_fract_z
Zn1	Zn	1.606240	-0.418172	-0.594017
Zn2	Zn	1.606137	-0.593888	-0.418336
Zn3	Zn	1.430546	-0.418228	-0.418352
Zn4	Zn	1.430530	-0.593815	-0.593973
O5	O	1.518363	-0.506026	-0.506170
O6	O	1.753248	-0.441489	-0.570724
O7	O	1.582808	-0.570641	-0.271317
O8	O	1.453902	-0.271200	-0.441680
O9	O	1.753172	-0.570586	-0.441652
O10	O	1.582984	-0.271159	-0.570740
O11	O	1.453802	-0.441584	-0.271329
O12	O	1.283523	-0.441513	-0.441637
O13	O	1.453874	-0.570461	-0.741000
O14	O	1.283511	-0.570515	-0.570665
O15	O	1.582968	-0.441418	-0.741032
O16	O	1.582792	-0.740899	-0.441609
O17	O	1.453774	-0.740845	-0.570649
C18	C	1.245396	-0.506013	-0.506149
C19	C	1.128619	-0.506033	-0.506165
C20	C	1.073779	-0.573307	-0.573244
C21	C	0.964054	-0.573311	-0.573265
C22	C	0.964021	-0.438764	-0.439118
C23	C	1.073743	-0.438756	-0.439104
C24	C	0.814153	-0.611009	-0.697125
C25	C	0.759309	-0.678299	-0.764195
C26	C	0.794905	-0.780830	-0.780142
C27	C	0.885344	-0.816092	-0.729004
C28	C	0.940183	-0.748807	-0.661926
C29	C	0.904588	-0.646262	-0.645999
C30	C	1.223646	-0.401068	-0.315242
C31	C	1.278487	-0.333788	-0.248158
C32	C	1.242893	-0.231255	-0.232200
C33	C	1.152450	-0.195998	-0.283320
C34	C	1.097610	-0.263278	-0.350404
C35	C	1.133212	-0.365809	-0.366363
C36	C	1.518299	-0.778993	-0.506146
C37	C	1.518367	-0.895770	-0.506171
C38	C	1.585624	-0.950625	-0.439056
C39	C	1.585691	-1.060349	-0.439091
C40	C	1.451237	-1.060353	-0.573359
C41	C	1.451176	-0.950631	-0.573328
C42	C	1.709701	-1.210225	-0.401704
C43	C	1.776948	-1.265083	-0.334573
C44	C	1.793115	-1.229543	-0.232062
C45	C	1.742019	-1.139145	-0.196662
C46	C	1.674764	-1.084292	-0.263788
C47	C	1.658618	-1.119831	-0.366313
C48	C	1.327164	-0.800754	-0.610705
C49	C	1.259903	-0.745898	-0.677826
C50	C	1.243726	-0.781437	-0.780338
C51	C	1.294803	-0.871838	-0.815734
C52	C	1.362064	-0.926693	-0.748613
C53	C	1.378243	-0.891147	-0.646102
C54	C	1.792396	-0.506040	-0.506191
C55	C	1.909173	-0.506045	-0.506200
C56	C	1.518431	-0.505925	-0.780203
C57	C	1.518460	-0.505882	-0.896980
C58	C	1.518456	-0.231993	-0.506217
C59	C	1.518496	-0.115216	-0.506237
C60	C	1.451264	-0.573043	-0.951827
C61	C	1.451301	-0.573004	-1.061551
C62	C	1.585734	-0.438633	-1.061572
C63	C	1.585702	-0.438678	-0.951849
C64	C	1.413763	-0.696846	-1.211484
C65	C	1.346550	-0.763998	-1.266335
C66	C	1.244020	-0.780136	-1.230719
C67	C	1.208681	-0.729106	-1.140255
C68	C	1.275888	-0.661946	-1.085410
C69	C	1.378434	-0.645828	-1.121024
C70	C	1.623228	-0.314836	-0.801914
C71	C	1.690431	-0.247669	-0.747067
C72	C	1.792964	-0.231521	-0.782681
C73	C	1.828299	-0.282532	-0.873149
C74	C	1.761096	-0.349698	-0.927996
C75	C	1.658564	-0.365849	-0.892375
C76	C	1.518356	-0.506051	-0.233202
C77	C	1.518530	-0.505798	-0.116426
H78	H	1.023972	-0.234559	-0.392035
O79	O	1.109026	-0.744585	-1.105720
C80	C	1.055201	-0.648107	-1.104217
H81	H	1.094212	-0.591328	-1.161165
H82	H	1.057647	-0.613939	-1.021714
C83	C	0.892491	-0.735307	-1.067152
C84	C	0.940400	-0.665574	-1.137103
H85	H	0.821675	-0.746081	-1.087433
H86	H	0.928754	-0.800307	-1.068160
H87	H	0.894539	-0.706825	-0.998405
H88	H	0.938363	-0.694062	-1.205846
H89	H	0.904134	-0.600579	-1.136107
H90	H	1.218320	-0.672284	-0.649000
O91	O	1.650949	-0.897217	-0.373974
C92	C	1.718755	-0.833662	-0.433831
H93	H	1.681647	-0.817187	-0.513412
H94	H	1.796630	-0.875874	-0.445458
C95	C	1.783332	-0.749706	-0.278266
C96	C	1.737751	-0.729464	-0.376006
H97	H	1.795055	-0.685433	-0.242596
H98	H	1.737653	-0.792527	-0.237938
H99	H	1.848223	-0.784885	-0.287969
H100	H	1.672857	-0.694297	-0.366302
H101	H	1.783420	-0.686634	-0.416331
H102	H	1.375333	-0.805546	-1.339992
H103	H	1.396505	-0.627759	-0.907155
O104	O	1.118036	-0.096350	-0.267743
C105	C	1.185819	-0.044536	-0.197554
H106	H	1.265853	-0.084208	-0.198676
H107	H	1.151810	-0.048402	-0.115007
C108	C	1.099389	0.119604	-0.229499
C109	C	1.197691	0.070883	-0.230883
H110	H	1.106710	0.190800	-0.250054
H111	H	1.053720	0.084695	-0.276784
H112	H	1.071059	0.116372	-0.160708
H113	H	1.226014	0.074104	-0.299676
H114	H	1.243366	0.105794	-0.183611
O115	O	1.523641	-0.330372	-0.767199
C116	C	1.506869	-0.270957	-0.675582
H117	H	1.564619	-0.202806	-0.673341
H118	H	1.519076	-0.322773	-0.603802
C119	C	1.323121	-0.311822	-0.678247
C120	C	1.394044	-0.228113	-0.675499
H121	H	1.253524	-0.285397	-0.678192
H122	H	1.334420	-0.351855	-0.739969
H123	H	1.333306	-0.354995	-0.618429
H124	H	1.383867	-0.184949	-0.735323
H125	H	1.382741	-0.188072	-0.613787
O126	O	1.927946	-0.266771	-0.907581
C127	C	1.979676	-0.196533	-0.839787
H128	H	1.939974	-0.197764	-0.759744
H129	H	1.975755	-0.113974	-0.873768
C130	C	2.143875	-0.228159	-0.926265
C131	C	2.095117	-0.229677	-0.827952
H132	H	2.215086	-0.248599	-0.918967
H133	H	2.109024	-0.275476	-0.971942
H134	H	2.140597	-0.159357	-0.954572
H135	H	2.098384	-0.298480	-0.799653
H136	H	2.129972	-0.182372	-0.782270
O137	O	1.411650	-1.014456	-0.783182
C138	C	1.382935	-1.034078	-0.888049
H139	H	1.355221	-0.958118	-0.926071
H140	H	1.316897	-1.094247	-0.890055
C141	C	1.512252	-1.170139	-0.901831
C142	C	1.478222	-1.076842	-0.948533
H143	H	1.571027	-1.196523	-0.939140
H144	H	1.531596	-1.156923	-0.831178
H145	H	1.457211	-1.220268	-0.903505
H146	H	1.533257	-1.026711	-0.946846
H147	H	1.458889	-1.090051	-1.019187
H148	H	0.750244	-0.835618	-0.834753
O149	O	1.241607	-0.612561	-0.997422
C150	C	1.211576	-0.687823	-0.922233
H151	H	1.253221	-0.765028	-0.939106
H152	H	1.123173	-0.700211	-0.926098
C153	C	1.190789	-0.554182	-0.791367
C154	C	1.241945	-0.649005	-0.812084
H155	H	1.209517	-0.530237	-0.723421
H156	H	1.211017	-0.503475	-0.842023
H157	H	1.117123	-0.564518	-0.794594
H158	H	1.315609	-0.638665	-0.808870
H159	H	1.221729	-0.699709	-0.761424
O160	O	1.178878	-0.845436	-1.284097
C161	C	1.232041	-0.886986	-1.371594
H162	H	1.320165	-0.883550	-1.357308
H163	H	1.211799	-0.839108	-1.444282
C164	C	1.090182	-1.005910	-1.405828
C165	C	1.198418	-1.001698	-1.388277
H166	H	1.069439	-1.076668	-1.416123
H167	H	1.054362	-0.977914	-1.346882
H168	H	1.073327	-0.966006	-1.466399
H169	H	1.215269	-1.041590	-1.327700
H170	H	1.234239	-1.029703	-1.447214
O171	O	0.920035	-0.915679	-0.744337
C172	C	1.011628	-0.932361	-0.684843
H173	H	1.013861	-0.874548	-0.616793
H174	H	1.083428	-0.920177	-0.736643
C175	C	1.008931	-1.116149	-0.725386
C176	C	1.011669	-1.045147	-0.641801
H177	H	1.008960	-1.185721	-0.698839
H178	H	0.947225	-1.104910	-0.765472
H179	H	1.068766	-1.105982	-0.768545
H180	H	0.951829	-1.055306	-0.598651
H181	H	1.073366	-1.056390	-0.601706
O182	O	1.795597	-0.399202	-1.015837
C183	C	1.900497	-0.370523	-1.035534
H184	H	1.938562	-0.342929	-0.959583
H185	H	1.902574	-0.304408	-1.095636
C186	C	1.914105	-0.499672	-1.171744
C187	C	1.960860	-0.465789	-1.078458
H188	H	1.951340	-0.558435	-1.198226
H189	H	1.843431	-0.518992	-1.158476
H190	H	1.915838	-0.444568	-1.221817
H191	H	1.959114	-0.520889	-1.028382
H192	H	2.031535	-0.446481	-1.091718
H193	H	1.633165	-1.010691	-0.234967
H194	H	0.785169	-0.527517	-0.684158
O195	O	1.757868	-1.104746	-0.097060
C196	C	1.828164	-1.172559	-0.045396
H197	H	1.877718	-1.215761	-0.105881
H198	H	1.782158	-1.231777	0.003249
C199	C	1.839294	-1.055224	0.101323
C200	C	1.900164	-1.108278	0.027034
H201	H	1.883705	-1.015575	0.146005
H202	H	1.791932	-1.009538	0.066518
H203	H	1.800960	-1.104582	0.141849
H204	H	1.938486	-1.058921	-0.013498
H205	H	1.947534	-1.153955	0.061834
H206	H	1.118455	-0.628085	-0.627852
H207	H	1.013816	-0.777517	-0.620290
H208	H	0.685674	-0.649579	-0.805832
H209	H	0.919328	-0.383991	-0.384518
H210	H	1.497256	-0.683723	-1.240484
H211	H	1.188953	-0.736764	-0.834986
H212	H	1.696555	-1.239163	-0.485179
H213	H	1.287549	-0.176480	-0.177566
H214	H	1.352130	-0.362504	-0.206533
H215	H	1.252643	-0.484556	-0.328239
H216	H	1.340339	-0.771803	-0.527233
H217	H	1.640479	-0.383917	-1.106260
H218	H	1.847870	-1.274216	-0.177404
H219	H	1.818551	-1.338685	-0.363405
H220	H	1.396530	-1.105034	-0.628034
H221	H	1.847674	-0.176815	-0.738022
H222	H	1.661649	-0.206126	-0.673409
H223	H	1.281631	-0.900774	-0.899208
