data_functionalizedCrystal
_audit_creation_method	'MofGen! by Chris Wilmer'
_symmetry_space_group_name_H-M	'P1'
_symmetry_Int_Tables_number	1
_symmetry_cell_setting	triclinic
loop_
_symmetry_equiv_pos_as_xyz
  x,y,z
_cell_length_a	10.654550
_cell_length_b	10.654543
_cell_length_c	9.130313
_cell_angle_alpha	90.001014
_cell_angle_beta	89.997082
_cell_angle_gamma	95.516448
loop_
_atom_site_label
_atom_site_type_symbol
_atom_site_fract_x
_atom_site_fract_y
_atom_site_fract_z
O1	O	1.667835	-0.176399	-0.121767
O2	O	1.302356	-0.193205	-0.121773
O3	O	1.493503	-0.002063	-0.121773
O4	O	1.476688	-0.367542	-0.121767
O5	O	1.493490	-0.002057	0.121825
O6	O	1.302343	-0.193200	0.121825
O7	O	1.667822	-0.176394	0.121832
Cu8	Cu	1.485081	-0.184796	0.144071
Cu9	Cu	1.485097	-0.184803	-0.144013
O10	O	1.476675	-0.367537	0.121832
C11	C	1.255552	-0.191969	0.000025
C12	C	1.116109	-0.188277	0.000022
C13	C	1.492264	0.044738	0.000022
C14	C	1.488575	0.184182	0.000010
N15	N	1.485080	-0.184791	0.346694
C16	C	1.714627	-0.177630	0.000030
C17	C	1.854070	-0.181322	0.000023
C18	C	1.933558	-0.068781	0.000016
C19	C	2.064579	-0.072257	0.000021
C20	C	2.036610	-0.300827	0.000034
C21	C	1.905592	-0.297349	0.000040
C22	C	1.601119	0.263668	0.000006
C23	C	1.597645	0.394689	-0.000021
C24	C	1.369075	0.366726	-0.000034
C25	C	1.372550	0.235707	-0.000017
C26	C	1.477921	0.585663	0.000016
C27	C	1.481627	0.446222	-0.000033
N28	N	1.485109	-0.184798	-0.346635
C29	C	1.569748	-0.100189	0.423345
C30	C	1.569760	-0.100189	0.576682
C31	C	1.400431	-0.269405	0.576702
C32	C	1.400414	-0.269397	0.423368
H33	H	1.891613	0.025696	0.000005
C34	C	1.307277	-0.362467	0.339045
H35	H	1.256868	-0.412869	0.406668
H36	H	1.254606	-0.316797	0.279244
H37	H	1.352907	-0.415169	0.279217
C38	C	1.662873	-0.007129	0.339001
H39	H	1.650750	-0.019249	0.236702
H40	H	1.648524	0.076822	0.364137
H41	H	1.746810	-0.021567	0.364119
H42	H	1.695594	0.221721	0.000026
C43	C	1.241458	0.423409	-0.000043
H44	H	1.255505	0.512823	-0.000037
H45	H	1.195071	0.396187	-0.084988
H46	H	1.195071	0.396197	0.084919
C47	C	2.093290	-0.428446	0.000033
H48	H	2.182704	-0.414401	0.000013
H49	H	2.066074	-0.474835	0.084982
H50	H	2.066069	-0.474830	-0.084926
H51	H	1.840869	-0.389000	0.000051
C52	C	1.248746	0.148267	-0.000009
H53	H	1.179148	0.197716	-0.000006
H54	H	1.245359	0.096566	-0.084950
H55	H	1.245349	0.096586	0.084957
H56	H	2.129294	0.019386	0.000017
H57	H	1.689290	0.459402	-0.000027
H58	H	1.638704	-0.031297	0.639088
H59	H	1.331500	-0.338291	0.639146
