data_functionalizedCrystal
_audit_creation_method	'MofGen! by Chris Wilmer'
_symmetry_space_group_name_H-M	'P1'
_symmetry_Int_Tables_number	1
_symmetry_cell_setting	triclinic
loop_
_symmetry_equiv_pos_as_xyz
  x,y,z
_cell_length_a	18.050589
_cell_length_b	16.625548
_cell_length_c	16.625539
_cell_angle_alpha	90.020568
_cell_angle_beta	89.975176
_cell_angle_gamma	89.970711
loop_
_atom_site_label
_atom_site_type_symbol
_atom_site_fract_x
_atom_site_fract_y
_atom_site_fract_z
Zn1	Zn	-0.295637	-1.232648	-0.455929
Zn2	Zn	0.037696	-0.899315	-0.122596
Zn3	Zn	0.371030	-0.565982	0.210738
Zn4	Zn	-0.419835	-1.232538	-0.321104
Zn5	Zn	-0.086501	-0.899205	0.012229
Zn6	Zn	0.246832	-0.565871	0.345562
Zn7	Zn	-0.295665	-1.097810	-0.321109
Zn8	Zn	0.037668	-0.764477	0.012224
Zn9	Zn	0.371001	-0.431143	0.345557
Zn10	Zn	-0.419792	-1.097767	-0.455894
Zn11	Zn	-0.086459	-0.764434	-0.122561
Zn12	Zn	0.246875	-0.431100	0.210773
O13	O	-0.357732	-1.165191	-0.388509
O14	O	-0.024399	-0.831857	-0.055176
O15	O	0.308934	-0.498524	0.278158
O16	O	-0.312118	-1.345466	-0.438056
O17	O	0.021215	-1.012133	-0.104723
O18	O	0.354549	-0.678799	0.228610
O19	O	-0.403393	-1.214638	-0.208272
O20	O	-0.070060	-0.881305	0.125061
O21	O	0.263274	-0.547971	0.458394
O22	O	-0.191737	-1.115761	-0.339010
O23	O	0.141596	-0.782428	-0.005677
O24	O	0.474930	-0.449094	0.327657
O25	O	-0.403366	-1.345385	-0.339001
O26	O	-0.070032	-1.012052	-0.005668
O27	O	0.263301	-0.678718	0.327665
O28	O	-0.191716	-1.214826	-0.438061
O29	O	0.141617	-0.881493	-0.104728
O30	O	0.474951	-0.548159	0.228605
O31	O	-0.312166	-1.115654	-0.208276
O32	O	0.021167	-0.782321	0.125057
O33	O	0.354500	-0.448987	0.458390
O34	O	-0.312125	-0.984972	-0.338976
O35	O	0.021208	-0.651639	-0.005643
O36	O	0.354542	-0.318305	0.327690
O37	O	-0.403293	-1.115687	-0.568731
O38	O	-0.069960	-0.782354	-0.235398
O39	O	0.263374	-0.449021	0.097936
O40	O	-0.403320	-0.984940	-0.438002
O41	O	-0.069987	-0.651607	-0.104669
O42	O	0.263346	-0.318274	0.228664
O43	O	-0.312077	-1.214784	-0.568757
O44	O	0.021257	-0.881451	-0.235423
O45	O	0.354590	-0.548117	0.097910
O46	O	-0.523754	-1.214596	-0.338968
O47	O	-0.190420	-0.881263	-0.005634
O48	O	0.142913	-0.547929	0.327699
O49	O	-0.523722	-1.115580	-0.437997
O50	O	-0.190389	-0.782247	-0.104664
O51	O	0.142944	-0.448914	0.228669
C52	C	-0.550684	-1.165093	-0.388496
C53	C	-0.217351	-0.831760	-0.055162
C54	C	0.115982	-0.498427	0.278171
C55	C	-0.633230	-1.165126	-0.388517
C56	C	-0.299897	-0.831792	-0.055184
C57	C	0.033437	-0.498459	0.278150
C58	C	-0.357722	-0.955700	-0.388487
C59	C	-0.024388	-0.622367	-0.055153
C60	C	0.308945	-0.289033	0.278180
C61	C	-0.357735	-0.866079	-0.388496
C62	C	-0.024402	-0.532746	-0.055163
C63	C	0.308932	-0.199412	0.278171
C64	C	-0.357677	-1.165243	-0.598818
C65	C	-0.024344	-0.831910	-0.265485
C66	C	0.308990	-0.498577	0.067849
C67	C	-0.357653	-1.165266	-0.688439
C68	C	-0.024320	-0.831932	-0.355106
C69	C	0.309013	-0.498599	-0.021773
C70	C	-0.832691	-1.111334	-0.442350
C71	C	-0.499357	-0.778000	-0.109017
C72	C	-0.166024	-0.444667	0.224316
C73	C	-0.882133	-1.091677	-0.368775
C74	C	-0.548799	-0.758344	-0.035441
C75	C	-0.215466	-0.425011	0.297892
C76	C	-0.784360	-1.165205	-0.388528
C77	C	-0.451027	-0.831871	-0.055194
C78	C	-0.117694	-0.498538	0.278139
C79	C	-0.882000	-1.184901	-0.462112
C80	C	-0.548667	-0.851567	-0.128779
C81	C	-0.215333	-0.518234	0.204555
C82	C	-0.930346	-1.165280	-0.388544
C83	C	-0.597012	-0.831946	-0.055211
C84	C	-0.263679	-0.498613	0.278123
C85	C	-0.832715	-1.145510	-0.314913
C86	C	-0.499382	-0.812176	0.018421
C87	C	-0.166049	-0.478843	0.351754
C88	C	-0.832578	-1.238767	-0.408300
C89	C	-0.499245	-0.905434	-0.074966
C90	C	-0.165912	-0.572101	0.258367
C91	C	-0.881998	-1.219139	-0.334673
C92	C	-0.548665	-0.885806	-0.001340
C93	C	-0.215331	-0.552472	0.331994
C94	C	-0.700262	-1.165160	-0.388519
C95	C	-0.366929	-0.831826	-0.055186
C96	C	-0.033596	-0.498493	0.278148
C97	C	-1.014442	-1.165325	-0.388544
C98	C	-0.681109	-0.831992	-0.055211
C99	C	-0.347775	-0.498659	0.278122
C100	C	-0.164027	-1.165310	-0.388540
C101	C	0.169307	-0.831977	-0.055207
C102	C	0.502640	-0.498644	0.278126
C103	C	-0.081481	-1.165361	-0.388553
C104	C	0.251853	-0.832028	-0.055220
C105	C	0.585186	-0.498695	0.278113
C106	C	-0.357743	-1.375500	-0.388532
C107	C	-0.024410	-1.042166	-0.055199
C108	C	0.308923	-0.708833	0.278134
C109	C	-0.357748	-1.465121	-0.388542
C110	C	-0.024415	-1.131787	-0.055209
C111	C	0.308919	-0.798454	0.278125
C112	C	-0.357740	-0.537903	-0.388531
C113	C	-0.024406	-0.204570	-0.055197
C114	C	0.308927	0.128763	0.278136
C115	C	-0.357736	-0.629212	-0.388518
C116	C	-0.024403	-0.295878	-0.055185
C117	C	0.308930	0.037455	0.278148
C118	C	-0.357738	-0.701988	-0.388513
C119	C	-0.024404	-0.368655	-0.055179
C120	C	0.308929	-0.035321	0.278154
C121	C	-0.357734	-0.793302	-0.388502
C122	C	-0.024400	-0.459969	-0.055168
C123	C	0.308933	-0.126636	0.278165
C124	C	-0.357570	-1.165303	-1.016615
C125	C	-0.024237	-0.831969	-0.683282
C126	C	0.309097	-0.498636	-0.349948
C127	C	-0.357596	-1.165290	-0.925307
C128	C	-0.024262	-0.831957	-0.591973
C129	C	0.309071	-0.498624	-0.258640
C130	C	-0.357612	-1.165285	-0.852530
C131	C	-0.024279	-0.831951	-0.519197
C132	C	0.309054	-0.498618	-0.185863
C133	C	-0.357637	-1.165271	-0.761216
C134	C	-0.024303	-0.831938	-0.427882
C135	C	0.309030	-0.498604	-0.094549
C136	C	-0.357734	-1.165185	-0.179018
C137	C	-0.024400	-0.831852	0.154315
C138	C	0.308933	-0.498518	0.487648
C139	C	-0.357548	-1.165319	-0.089398
C140	C	-0.024215	-0.831986	0.243936
C141	C	0.309119	-0.498652	0.577269
H142	H	-0.903916	-1.029503	-0.352066
H143	H	-0.570582	-0.696170	-0.018733
H144	H	-0.237249	-0.362836	0.314600
C145	C	-0.886038	-1.259903	-0.196211
C146	C	-0.552704	-0.926570	0.137123
C147	C	-0.219371	-0.593237	0.470456
C148	C	-0.911051	-1.280681	-0.273171
C149	C	-0.577718	-0.947348	0.060162
C150	C	-0.244384	-0.614014	0.393496
H151	H	-0.903980	-1.297892	-0.158242
H152	H	-0.570646	-0.964559	0.175092
H153	H	-0.237313	-0.631226	0.508425
H154	H	-0.833421	-1.259900	-0.195568
H155	H	-0.500088	-0.926567	0.137765
H156	H	-0.166755	-0.593233	0.471099
H157	H	-0.903760	-1.207830	-0.182625
H158	H	-0.570427	-0.874496	0.150709
H159	H	-0.237093	-0.541163	0.484042
H160	H	-0.893324	-1.332752	-0.286759
H161	H	-0.559991	-0.999419	0.046574
H162	H	-0.226657	-0.666086	0.379907
H163	H	-0.963678	-1.280693	-0.273816
H164	H	-0.630345	-0.947359	0.059518
H165	H	-0.297012	-0.614026	0.392851
C166	C	-0.725603	-1.321908	-0.429918
C167	C	-0.392270	-0.988574	-0.096585
C168	C	-0.058937	-0.655241	0.236748
C169	C	-0.803167	-1.322682	-0.430895
C170	C	-0.469834	-0.989348	-0.097562
C171	C	-0.136500	-0.656015	0.235771
H172	H	-0.707447	-1.373715	-0.443869
H173	H	-0.374114	-1.040382	-0.110536
H174	H	-0.040781	-0.707049	0.222798
H175	H	-0.707992	-1.283488	-0.467614
H176	H	-0.374658	-0.950155	-0.134281
H177	H	-0.041325	-0.616821	0.199053
H178	H	-0.708769	-1.308008	-0.377603
H179	H	-0.375436	-0.974674	-0.044270
H180	H	-0.042103	-0.641341	0.289064
H181	H	-0.820001	-1.336576	-0.483213
H182	H	-0.486668	-1.003243	-0.149879
H183	H	-0.153335	-0.669909	0.183454
H184	H	-0.820786	-1.361114	-0.393198
H185	H	-0.487453	-1.027781	-0.059865
H186	H	-0.154119	-0.694447	0.273469
C187	C	-0.886329	-1.150819	-0.602356
C188	C	-0.552996	-0.817485	-0.269022
C189	C	-0.219663	-0.484152	0.064311
C190	C	-0.911224	-1.207357	-0.546108
C191	C	-0.577890	-0.874023	-0.212775
C192	C	-0.244557	-0.540690	0.120558
H193	H	-0.904366	-1.164682	-0.654212
H194	H	-0.571032	-0.831349	-0.320879
H195	H	-0.237699	-0.498015	0.012454
H196	H	-0.904029	-1.098965	-0.587948
H197	H	-0.570696	-0.765632	-0.254615
H198	H	-0.237363	-0.432299	0.078719
H199	H	-0.833707	-1.150476	-0.603061
H200	H	-0.500374	-0.817143	-0.269727
H201	H	-0.167041	-0.483810	0.063606
H202	H	-0.963846	-1.207695	-0.545399
H203	H	-0.630513	-0.874361	-0.212066
H204	H	-0.297180	-0.541028	0.121268
H205	H	-0.893528	-1.259224	-0.560520
H206	H	-0.560194	-0.925890	-0.227187
H207	H	-0.226861	-0.592557	0.106147
H208	H	-0.811156	-1.128809	-0.252673
H209	H	-0.477823	-0.795475	0.080661
H210	H	-0.144489	-0.462142	0.413994
H211	H	-0.811040	-1.065710	-0.487802
H212	H	-0.477706	-0.732377	-0.154469
H213	H	-0.144373	-0.399043	0.178864
