data_functionalizedCrystal
_audit_creation_method	'MofGen! by Chris Wilmer'
_symmetry_space_group_name_H-M	'P1'
_symmetry_Int_Tables_number	1
_symmetry_cell_setting	triclinic
loop_
_symmetry_equiv_pos_as_xyz
  x,y,z
_cell_length_a	27.731994
_cell_length_b	27.732048
_cell_length_c	26.210047
_cell_angle_alpha	89.999521
_cell_angle_beta	89.997128
_cell_angle_gamma	82.631595
loop_
_atom_site_label
_atom_site_type_symbol
_atom_site_fract_x
_atom_site_fract_y
_atom_site_fract_z
O1	O	0.640948	0.057385	-0.042362
O2	O	1.140948	0.557385	0.457638
O3	O	0.500151	0.066158	-0.042379
O4	O	1.000151	0.566158	0.457621
O5	O	0.574923	-0.008626	-0.042360
O6	O	1.074923	0.491374	0.457640
O7	O	0.566177	0.132169	-0.042381
O8	O	1.066177	0.632169	0.457619
O9	O	0.574908	-0.008614	0.042498
O10	O	1.074908	0.491386	0.542498
O11	O	0.500137	0.066170	0.042479
O12	O	1.000137	0.566170	0.542479
O13	O	0.640934	0.057397	0.042496
O14	O	1.140934	0.557397	0.542496
Cu15	Cu	0.570534	0.061784	0.050236
Cu16	Cu	1.070534	0.561784	0.550236
Cu17	Cu	0.570551	0.061771	-0.050119
Cu18	Cu	1.070551	0.561771	0.449881
O19	O	0.566162	0.132181	0.042477
O20	O	1.066162	0.632181	0.542477
C21	C	0.482137	0.065984	0.000047
C22	C	0.982137	0.565984	0.500047
C23	C	0.428480	0.065442	0.000041
C24	C	0.928480	0.565442	0.500041
C25	C	0.095754	0.062032	0.046317
C26	C	0.595754	0.562032	0.546317
C27	C	-0.105904	0.059971	0.046324
C28	C	0.394096	0.559971	0.546324
O29	O	-0.131984	0.059689	0.085663
O30	O	0.368016	0.559689	0.585663
N31	N	-0.131111	0.059708	0.000067
N32	N	0.368889	0.559708	0.500067
C33	C	-0.105900	0.059958	-0.046193
C34	C	0.394100	0.559958	0.453807
O35	O	-0.131967	0.059683	-0.085537
O36	O	0.368033	0.559683	0.414463
C37	C	0.095758	0.062016	-0.046199
C38	C	0.595758	0.562016	0.453801
C39	C	0.120961	0.062283	0.000060
C40	C	0.620961	0.562283	0.500060
C41	C	0.120958	0.062299	0.092573
C42	C	0.620958	0.562299	0.592573
C43	C	0.171369	0.062817	0.092571
C44	C	0.671369	0.562817	0.592571
C45	C	0.196576	0.063068	0.046313
C46	C	0.696576	0.563068	0.546313
C47	C	0.171372	0.062802	0.000058
C48	C	0.671372	0.562802	0.500058
C49	C	0.120968	0.062263	-0.092459
C50	C	0.620968	0.562263	0.407541
C51	C	0.171386	0.062776	-0.092457
C52	C	0.671386	0.562776	0.407543
C53	C	0.196590	0.063043	-0.046197
C54	C	0.696590	0.563043	0.453803
C55	C	0.246991	0.063571	-0.046201
C56	C	0.746991	0.563571	0.453799
N57	N	0.272198	0.063833	0.000055
N58	N	0.772198	0.563833	0.500055
C59	C	0.246991	0.063582	0.046312
C60	C	0.746991	0.563582	0.546312
C61	C	-0.211773	0.058878	-0.046187
C62	C	0.288227	0.558878	0.453813
C63	C	-0.262188	0.058365	-0.046186
C64	C	0.237812	0.558365	0.453814
C65	C	-0.262188	0.058376	0.046331
C66	C	0.237812	0.558376	0.546331
C67	C	-0.211774	0.058894	0.046329
C68	C	0.288226	0.558894	0.546329
C69	C	-0.186566	0.059141	0.000069
C70	C	0.313434	0.559141	0.500069
C71	C	0.352858	0.064670	0.046305
C72	C	0.852858	0.564670	0.546305
C73	C	0.403273	0.065190	0.046298
C74	C	0.903273	0.565190	0.546298
C75	C	0.403269	0.065176	-0.046218
C76	C	0.903269	0.565176	0.453782
C77	C	0.352858	0.064659	-0.046213
C78	C	0.852858	0.564659	0.453787
C79	C	0.327654	0.064404	0.000053
C80	C	0.827654	0.564404	0.500053
O81	O	0.273102	0.063848	-0.085520
O82	O	0.773102	0.563848	0.414480
O83	O	0.273067	0.063847	0.085650
O84	O	0.773067	0.563847	0.585650
C85	C	0.045343	0.061514	0.046319
C86	C	0.545343	0.561514	0.546319
C87	C	0.020139	0.061247	0.000064
C88	C	0.520139	0.561247	0.500064
C89	C	0.045346	0.061499	-0.046193
C90	C	0.545346	0.561499	0.453807
C91	C	-0.030275	0.060734	0.000065
C92	C	0.469725	0.560734	0.500065
C93	C	-0.055483	0.060482	0.046323
C94	C	0.444517	0.560482	0.546323
C95	C	-0.030276	0.060745	0.092579
C96	C	0.469724	0.560745	0.592579
C97	C	0.020135	0.061263	0.092577
C98	C	0.520135	0.561263	0.592577
C99	C	0.020139	0.061236	-0.092449
C100	C	0.520139	0.561236	0.407551
C101	C	-0.030272	0.060719	-0.092443
C102	C	0.469728	0.560719	0.407557
C103	C	-0.055479	0.060468	-0.046186
C104	C	0.444521	0.560468	0.453814
C105	C	0.574732	-0.026627	0.000070
C106	C	1.074732	0.473373	0.500070
C107	C	0.574179	-0.080282	0.000074
C108	C	1.074179	0.419718	0.500074
C109	C	0.614884	-0.419105	0.000053
C110	C	1.114884	0.080895	0.500053
C111	C	0.612833	-0.620764	0.000046
C112	C	1.112833	-0.120764	0.500046
O113	O	0.650055	-0.652027	0.000028
O114	O	1.150055	-0.152027	0.500028
N115	N	0.568496	-0.639879	0.000041
N116	N	1.068496	-0.139879	0.500041
C117	C	0.524670	-0.608576	0.000034
C118	C	1.024670	-0.108576	0.500034
O119	O	0.486912	-0.629462	0.000024
O120	O	0.986912	-0.129462	0.500024
C121	C	0.526721	-0.406918	0.000038
C122	C	1.026721	0.093082	0.500038
C123	C	0.571061	-0.387805	0.000048
C124	C	1.071061	0.112195	0.500048
C125	C	0.659220	-0.399992	0.000063
C126	C	1.159220	0.100008	0.500063
C127	C	0.659732	-0.349580	0.000068
C128	C	1.159732	0.150420	0.500068
C129	C	0.615908	-0.318281	0.000062
C130	C	1.115908	0.181719	0.500062
C131	C	0.571573	-0.337394	0.000053
C132	C	1.071573	0.162606	0.500053
C133	C	0.482895	-0.375615	0.000028
C134	C	0.982895	0.124385	0.500028
C135	C	0.483412	-0.325198	0.000027
C136	C	0.983412	0.174802	0.500027
C137	C	0.527751	-0.306086	0.000037
C138	C	1.027751	0.193914	0.500037
C139	C	0.528262	-0.255683	0.000052
C140	C	1.028262	0.244317	0.500052
N141	N	0.572598	-0.236567	0.000057
N142	N	1.072598	0.263433	0.500057
C143	C	0.616421	-0.267867	0.000062
C144	C	1.116421	0.232133	0.500062
C145	C	0.523596	-0.714450	0.000033
C146	C	1.023596	-0.214450	0.500033
C147	C	0.523083	-0.764864	0.000033
C148	C	1.023083	-0.264864	0.500033
C149	C	0.611246	-0.777049	0.000044
C150	C	1.111246	-0.277049	0.500044
C151	C	0.611759	-0.726633	0.000048
C152	C	1.111759	-0.226633	0.500048
C153	C	0.567932	-0.695335	0.000038
C154	C	1.067932	-0.195335	0.500038
C155	C	0.617494	-0.161998	0.000073
C156	C	1.117494	0.338002	0.500073
C157	C	0.618002	-0.111581	0.000079
C158	C	1.118002	0.388419	0.500079
C159	C	0.529839	-0.099401	0.000066
C160	C	1.029839	0.400599	0.500066
C161	C	0.529331	-0.149813	0.000062
C162	C	1.029331	0.350187	0.500062
C163	C	0.573162	-0.181111	0.000063
C164	C	1.073162	0.318889	0.500063
O165	O	0.491060	-0.224391	0.000064
O166	O	0.991060	0.275609	0.500064
O167	O	0.654174	-0.246971	0.000061
O168	O	1.154174	0.253029	0.500061
C169	C	0.614372	-0.469517	0.000049
C170	C	1.114372	0.030483	0.500049
C171	C	0.570036	-0.488629	0.000039
C172	C	1.070036	0.011371	0.500039
C173	C	0.526213	-0.457330	0.000034
C174	C	1.026213	0.042670	0.500034
C175	C	0.569523	-0.539043	0.000039
C176	C	1.069523	-0.039043	0.500039
C177	C	0.613346	-0.570343	0.000044
C178	C	1.113346	-0.070343	0.500044
C179	C	0.657683	-0.551228	0.000049
C180	C	1.157683	-0.051228	0.500049
C181	C	0.658195	-0.500816	0.000054
C182	C	1.158195	-0.000816	0.500054
C183	C	0.481876	-0.476445	0.000029
C184	C	0.981876	0.023555	0.500029
C185	C	0.481367	-0.526857	0.000025
C186	C	0.981367	-0.026857	0.500025
C187	C	0.525191	-0.558157	0.000030
C188	C	1.025191	-0.058157	0.500030
C189	C	0.658949	0.057571	0.000068
C190	C	1.158949	0.557571	0.500068
C191	C	0.712605	0.058114	0.000071
C192	C	1.212605	0.558114	0.500071
C193	C	0.566353	0.150182	0.000046
C194	C	1.066353	0.650182	0.500046
C195	C	0.566906	0.203837	0.000038
C196	C	1.066906	0.703837	0.500038
N197	N	0.570526	0.061794	0.120820
N198	N	1.070526	0.561794	0.620820
N199	N	0.570563	0.061757	-0.120703
N200	N	1.070563	0.561757	0.379297
C201	C	0.603656	0.028664	0.473342
C202	C	1.103656	0.528664	0.973342
C203	C	0.603667	0.028657	0.687001
C204	C	1.103667	0.528657	1.187001
O205	O	0.631818	0.000491	0.714630
O206	O	1.131818	0.500491	1.214630
N207	N	0.570554	0.061760	0.713714
N208	N	1.070554	0.561760	1.213714
C209	C	0.537433	0.094865	0.687008
C210	C	1.037433	0.594865	1.187008
O211	O	0.509265	0.123018	0.714632
O212	O	1.009265	0.623018	1.214632
C213	C	0.537421	0.094869	0.473351
C214	C	1.037421	0.594869	0.973351
C215	C	0.570539	0.061767	0.446641
C216	C	1.070539	0.561767	0.946641
C217	C	0.636772	-0.004436	0.446632
C218	C	1.136772	0.495564	0.946632
C219	C	0.636771	-0.004432	0.393221
C220	C	1.136771	0.495568	0.893221
C221	C	0.603654	0.028671	0.366519
C222	C	1.103654	0.528671	0.866519
C223	C	0.570538	0.061771	0.393229
C224	C	1.070538	0.561771	0.893229
C225	C	0.504298	0.127971	0.446647
C226	C	1.004298	0.627971	0.946647
C227	C	0.504297	0.127969	0.393229
C228	C	1.004297	0.627969	0.893229
C229	C	0.537416	0.094867	0.366519
C230	C	1.037416	0.594867	0.866519
C231	C	0.537420	0.094878	0.313117
C232	C	1.037420	0.594878	0.813117
N233	N	0.570533	0.061775	0.286404
N234	N	1.070533	0.561775	0.786404
C235	C	0.603650	0.028672	0.313105
C236	C	1.103650	0.528672	0.813105
C237	C	0.537443	0.094861	0.799182
C238	C	1.037443	0.594861	1.299182
C239	C	0.537446	0.094861	0.852596
C240	C	1.037446	0.594861	1.352596
C241	C	0.603680	0.028652	0.852585
C242	C	1.103680	0.528652	1.352585
C243	C	0.603678	0.028655	0.799169
C244	C	1.103678	0.528655	1.299169
C245	C	0.570556	0.061758	0.772469
C246	C	1.070556	0.561758	1.272469
C247	C	0.603645	0.028682	0.200937
C248	C	1.103645	0.528682	0.700937
C249	C	0.603643	0.028690	0.147521
C250	C	1.103643	0.528690	0.647521
C251	C	0.537408	0.094897	0.147537
C252	C	1.037408	0.594897	0.647537
C253	C	0.537412	0.094891	0.200949
C254	C	1.037412	0.594891	0.700949
C255	C	0.570533	0.061780	0.227647
C256	C	1.070533	0.561780	0.727647
O257	O	0.509281	0.123026	0.285454
O258	O	1.009281	0.623026	0.785454
O259	O	0.631807	0.000516	0.285473
O260	O	1.131807	0.500516	0.785473
C261	C	0.603658	0.028660	0.526754
C262	C	1.103658	0.528660	1.026754
C263	C	0.570542	0.061760	0.553464
C264	C	1.070542	0.561760	1.053464
C265	C	0.537425	0.094863	0.526762
C266	C	1.037425	0.594863	1.026762
C267	C	0.570546	0.061759	0.606878
C268	C	1.070546	0.561759	1.106878
C269	C	0.603663	0.028656	0.633579
C270	C	1.103663	0.528656	1.133579
C271	C	0.636776	-0.004447	0.606866
C272	C	1.136776	0.495553	1.106866
C273	C	0.636775	-0.004443	0.553455
C274	C	1.136775	0.495557	1.053455
C275	C	0.504311	0.127966	0.553475
C276	C	1.004311	0.627966	1.053475
C277	C	0.504316	0.127960	0.606887
C278	C	1.004316	0.627960	1.106887
C279	C	0.537433	0.094857	0.633588
C280	C	1.037433	0.594857	1.133588
H281	H	-0.050809	0.060543	0.130243
H282	H	0.449191	0.560543	0.630243
H283	H	0.694301	-0.485260	0.000062
H284	H	1.194301	0.014740	0.500062
N285	N	0.093775	0.062026	0.142469
N286	N	0.593775	0.562026	0.642469
H287	H	0.117443	0.061943	0.171765
H288	H	0.617443	0.561943	0.671765
H289	H	0.068937	0.091958	0.144633
H290	H	0.568937	0.591958	0.644633
N291	N	0.704947	-0.584995	0.000053
N292	N	1.204947	-0.084995	0.500053
H293	H	0.724314	-0.578887	-0.031401
H294	H	1.224314	-0.078887	0.468599
H295	H	0.724267	-0.578876	0.031533
H296	H	1.224267	-0.078876	0.531533
N297	N	-0.184591	0.059183	0.096222
N298	N	0.315409	0.559183	0.596222
H299	H	-0.208215	0.058947	0.125524
H300	H	0.291785	0.558947	0.625524
H301	H	-0.159530	0.029418	0.098245
H302	H	0.340470	0.529418	0.598245
H303	H	0.445258	-0.542413	0.000021
H304	H	0.945258	-0.042413	0.500021
N305	N	0.658515	-0.810810	0.000044
N306	N	1.158515	-0.310810	0.500044
H307	H	0.677875	-0.804705	0.031502
H308	H	1.177875	-0.304705	0.531502
H309	H	0.651418	-0.845632	0.000023
H310	H	1.151418	-0.345632	0.500023
N311	N	0.434607	-0.442690	0.000023
N312	N	0.934607	0.057310	0.500023
H313	H	0.406446	-0.462454	0.000019
H314	H	0.906446	0.037546	0.500019
H315	H	0.432893	-0.421511	0.031483
H316	H	0.932893	0.078489	0.531483
H317	H	0.653186	-0.187475	0.000072
H318	H	1.153186	0.312525	0.500072
N319	N	0.659581	-0.706021	0.000055
N320	N	1.159581	-0.206021	0.500055
H321	H	0.661754	-0.685376	0.031513
H322	H	1.161754	-0.185376	0.531513
H323	H	0.687234	-0.733530	0.000041
H324	H	1.187234	-0.233530	0.500041
N325	N	0.047324	0.061503	-0.142344
N326	N	0.547324	0.561503	0.357656
H327	H	0.023702	0.061258	-0.171642
H328	H	0.523702	0.561258	0.328358
H329	H	0.064094	0.091695	-0.144368
H330	H	0.564094	0.591695	0.355632
N331	N	-0.057453	0.060432	-0.142341
N332	N	0.442547	0.560432	0.357659
H333	H	-0.033830	0.060668	-0.171642
H334	H	0.466170	0.560668	0.328358
H335	H	-0.074220	0.030238	-0.144348
H336	H	0.425780	0.530238	0.355652
H337	H	0.630614	0.001735	0.125775
H338	H	1.130614	0.501735	0.625775
N339	N	-0.289381	0.058097	0.096223
N340	N	0.210619	0.558097	0.596223
H341	H	-0.265680	0.057674	0.125526
H342	H	0.234320	0.557674	0.625526
H343	H	-0.313993	0.088193	0.098541
H344	H	0.186007	0.588193	0.598541
N345	N	-0.289370	0.058084	-0.096079
N346	N	0.210630	0.558084	0.403921
H347	H	-0.265747	0.058320	-0.125381
H348	H	0.234253	0.558320	0.374619
H349	H	-0.306141	0.027892	-0.098090
H350	H	0.193859	0.527892	0.401910
H351	H	0.663743	-0.031398	0.531712
H352	H	1.163743	0.468602	1.031712
N353	N	0.665829	-0.090970	0.000093
N354	N	1.165829	0.409030	0.500093
H355	H	0.685016	-0.102406	-0.031363
H356	H	1.185016	0.397594	0.468637
H357	H	0.659467	-0.054287	0.000116
H358	H	1.159467	0.445713	0.500116
H359	H	0.695837	-0.334024	0.000074
H360	H	1.195837	0.165976	0.500074
N361	N	0.476324	-0.680693	0.000027
N362	N	0.976324	-0.180693	0.500027
H363	H	0.456968	-0.686806	-0.031431
H364	H	0.956968	-0.186806	0.468569
H365	H	0.457000	-0.686821	0.031504
H366	H	0.957000	-0.186821	0.531504
N367	N	0.325678	0.064395	0.096204
N368	N	0.825678	0.564395	0.596204
H369	H	0.349346	0.064313	0.125501
H370	H	0.849346	0.564313	0.625501
H371	H	0.300839	0.094325	0.098369
H372	H	0.800839	0.594325	0.598369
H373	H	-0.191254	0.059079	-0.083860
H374	H	0.308746	0.559079	0.416140
N375	N	0.468589	0.163664	0.635690
N376	N	0.968589	0.663664	1.135690
H377	H	0.447328	0.145337	0.657849
H378	H	0.947328	0.645337	1.157849
H379	H	0.486928	0.184931	0.657825
H380	H	0.986928	0.684931	1.157825
N381	N	0.475260	-0.785475	0.000036
N382	N	0.975260	-0.285475	0.500036
H383	H	0.447579	-0.757993	0.000033
H384	H	0.947579	-0.257993	0.500033
H385	H	0.473128	-0.806128	-0.031421
H386	H	0.973128	-0.306128	0.468579
N387	N	0.468569	0.163674	0.364435
N388	N	0.968569	0.663674	0.864435
H389	H	0.473876	0.197943	0.373733
H390	H	0.973876	0.697943	0.873733
H391	H	0.473607	0.158614	0.326552
H392	H	0.973607	0.658614	0.826552
N393	N	0.093793	0.061970	-0.142354
N394	N	0.593793	0.561970	0.357646
H395	H	0.117420	0.062202	-0.171653
H396	H	0.617420	0.562202	0.328347
H397	H	0.077026	0.031775	-0.144360
H398	H	0.577026	0.531775	0.355640
N399	N	0.501700	0.130601	0.229761
N400	N	1.001700	0.630601	0.729761
H401	H	0.480723	0.151574	0.204739
H402	H	0.980723	0.651574	0.704739
H403	H	0.480468	0.112246	0.251923
H404	H	0.980468	0.612246	0.751923
H405	H	0.694908	-0.425472	0.000065
H406	H	1.194908	0.074528	0.500065
H407	H	0.630615	0.001719	0.222669
H408	H	1.130615	0.501719	0.722669
H409	H	0.446789	-0.391167	0.000016
H410	H	0.946789	0.108833	0.500016
H411	H	0.630646	0.001698	0.874334
H412	H	1.130646	0.501698	1.374334
H413	H	0.447722	-0.299716	0.000019
H414	H	0.947722	0.200284	0.500019
H415	H	0.493226	-0.165375	0.000068
H416	H	0.993226	0.334625	0.500068
N417	N	0.672490	-0.040137	0.364416
N418	N	1.172490	0.459863	0.864416
H419	H	0.693466	-0.061107	0.389443
H420	H	1.193466	0.438893	0.889443
H421	H	0.654145	-0.061378	0.342257
H422	H	1.154145	0.438622	0.842257
N423	N	0.482574	-0.065638	0.000074
N424	N	0.982574	0.434362	0.500074
H425	H	0.489631	-0.030802	0.000080
H426	H	0.989631	0.469198	0.500080
H427	H	0.463235	-0.071781	-0.031385
H428	H	0.963235	0.428219	0.468615
H429	H	0.477343	0.154922	0.531739
H430	H	0.977343	0.654922	1.031739
N431	N	0.501690	0.130601	0.118733
N432	N	1.001690	0.630601	0.618733
H433	H	0.506715	0.125575	0.080843
H434	H	1.006715	0.625575	0.580843
H435	H	0.467442	0.125254	0.128071
H436	H	0.967442	0.625254	0.628071
H437	H	0.191907	0.062977	-0.130128
H438	H	0.691907	0.562977	0.369872
N439	N	0.672503	-0.040137	0.475424
N440	N	1.172503	0.459863	0.975424
H441	H	0.667202	-0.074408	0.466128
H442	H	1.167202	0.425592	0.966128
H443	H	0.706744	-0.034757	0.466101
H444	H	1.206744	0.465243	0.966101
N445	N	0.468568	0.163668	0.475445
N446	N	0.968568	0.663668	0.975445
H447	H	0.473867	0.197939	0.466148
H448	H	0.973867	0.697939	0.966148
H449	H	0.434325	0.158287	0.466130
H450	H	0.934325	0.658287	0.966130
H451	H	0.630646	0.001700	0.777425
H452	H	1.130646	0.501700	1.277425
H453	H	0.510483	0.121820	0.874340
H454	H	1.010483	0.621820	1.374340
H455	H	0.663743	-0.031400	0.628615
H456	H	1.163743	0.468600	1.128615
H457	H	0.191886	0.063032	0.130240
H458	H	0.691886	0.563032	0.630240
H459	H	0.510470	0.121819	0.777446
H460	H	1.010470	0.621819	1.277446
H461	H	0.423791	0.065410	0.083970
H462	H	0.923791	0.565410	0.583970
H463	H	0.332335	0.064449	-0.083880
H464	H	0.832335	0.564449	0.416120
H465	H	0.040652	0.061481	0.130246
H466	H	0.540652	0.561481	0.630246
N467	N	0.430462	0.065447	-0.096108
N468	N	0.930462	0.565447	0.403892
H469	H	0.466223	0.065813	-0.089086
H470	H	0.966223	0.565813	0.410914
H471	H	0.425798	0.035374	-0.116300
H472	H	0.925798	0.535374	0.383700
