data_functionalizedCrystal
_audit_creation_method	'MofGen! by Chris Wilmer'
_symmetry_space_group_name_H-M	'P1'
_symmetry_Int_Tables_number	1
_symmetry_cell_setting	triclinic
loop_
_symmetry_equiv_pos_as_xyz
  x,y,z
_cell_length_a	17.699077
_cell_length_b	14.519731
_cell_length_c	16.176319
_cell_angle_alpha	89.992219
_cell_angle_beta	89.993140
_cell_angle_gamma	83.484715
loop_
_atom_site_label
_atom_site_type_symbol
_atom_site_fract_x
_atom_site_fract_y
_atom_site_fract_z
O1	O	1.004423	0.116597	-0.068737
O2	O	1.337756	0.449930	0.264596
O3	O	1.671089	0.783264	0.597929
O4	O	0.784088	0.131776	-0.068742
O5	O	1.117421	0.465109	0.264592
O6	O	1.450755	0.798442	0.597925
O7	O	0.900089	-0.010076	-0.068732
O8	O	1.233422	0.323258	0.264601
O9	O	1.566756	0.656591	0.597935
O10	O	0.888422	0.258448	-0.068747
O11	O	1.221755	0.591782	0.264586
O12	O	1.555089	0.925115	0.597919
O13	O	0.900073	-0.010085	0.068761
O14	O	1.233406	0.323249	0.402095
O15	O	1.566740	0.656582	0.735428
O16	O	0.784072	0.131767	0.068751
O17	O	1.117405	0.465100	0.402085
O18	O	1.450739	0.798433	0.735418
O19	O	1.004407	0.116588	0.068756
O20	O	1.337740	0.449921	0.402089
O21	O	1.671073	0.783255	0.735422
Cu22	Cu	0.894238	0.124177	0.081308
Cu23	Cu	1.227571	0.457510	0.414641
Cu24	Cu	1.560905	0.790843	0.747975
Cu25	Cu	0.894257	0.124187	-0.081294
Cu26	Cu	1.227590	0.457521	0.252040
Cu27	Cu	1.560924	0.790854	0.585373
O28	O	0.888406	0.258439	0.068746
O29	O	1.221739	0.591773	0.402079
O30	O	1.555073	0.925106	0.735413
C31	C	0.755881	0.131228	0.000004
C32	C	1.089215	0.464562	0.333338
C33	C	1.422548	0.797895	0.666671
C34	C	0.671858	0.129599	0.000003
C35	C	1.005192	0.462933	0.333336
C36	C	1.338525	0.796266	0.666670
C37	C	0.632380	0.128827	0.074951
C38	C	0.965713	0.462160	0.408285
C39	C	1.299047	0.795494	0.741618
C40	C	0.553433	0.127282	0.074952
C41	C	0.886766	0.460615	0.408286
C42	C	1.220100	0.793948	0.741619
C43	C	0.513965	0.126516	0.000004
C44	C	0.847298	0.459849	0.333337
C45	C	1.180632	0.793182	0.666671
C46	C	0.553449	0.127285	-0.074950
C47	C	0.886783	0.460619	0.258383
C48	C	1.220116	0.793952	0.591716
C49	C	0.632395	0.128824	-0.074950
C50	C	0.965729	0.462157	0.258383
C51	C	1.299062	0.795491	0.591716
C52	C	0.235068	0.121079	-0.074951
C53	C	0.568401	0.454413	0.258382
C54	C	0.901734	0.787746	0.591715
C55	C	0.156116	0.119543	-0.074946
C56	C	0.489449	0.452877	0.258388
C57	C	0.822782	0.786210	0.591721
C58	C	0.156105	0.119537	0.074951
C59	C	0.489439	0.452870	0.408285
C60	C	0.822772	0.786204	0.741618
C61	C	0.235052	0.121076	0.074951
C62	C	0.568385	0.454409	0.408285
C63	C	0.901718	0.787742	0.741618
C64	C	0.274529	0.121840	-0.000002
C65	C	0.607863	0.455174	0.333331
C66	C	0.941196	0.788507	0.666664
C67	C	0.360133	0.123514	-0.000003
C68	C	0.693466	0.456848	0.333331
C69	C	1.026800	0.790181	0.666664
C70	C	0.428362	0.124849	0.000003
C71	C	0.761696	0.458182	0.333337
C72	C	1.095029	0.791515	0.666670
C73	C	0.899534	-0.044437	0.000015
C74	C	1.232868	0.288896	0.333348
C75	C	1.566201	0.622229	0.666682
C76	C	0.897896	-0.146811	0.000015
C77	C	1.231229	0.186523	0.333349
C78	C	1.564563	0.519856	0.666682
C79	C	0.896565	-0.229949	0.000013
C80	C	1.229898	0.103384	0.333347
C81	C	1.563232	0.436718	0.666680
C82	C	0.894902	-0.334251	0.000007
C83	C	1.228235	-0.000917	0.333340
C84	C	1.561568	0.332416	0.666674
C85	C	0.893582	-0.417384	0.000002
C86	C	1.226915	-0.084051	0.333335
C87	C	1.560248	0.249283	0.666668
C88	C	0.891919	-0.521692	-0.000003
C89	C	1.225252	-0.188359	0.333330
C90	C	1.558585	0.144974	0.666664
C91	C	1.032613	0.117136	0.000008
C92	C	1.365947	0.450469	0.333341
C93	C	1.699280	0.783802	0.666675
C94	C	1.116636	0.118764	0.000004
C95	C	1.449970	0.452098	0.333337
C96	C	1.783303	0.785431	0.666671
C97	C	0.888961	0.292801	-0.000003
C98	C	1.222294	0.626134	0.333331
C99	C	1.555627	0.959468	0.666664
C100	C	0.890599	0.395174	-0.000008
C101	C	1.223932	0.728508	0.333325
C102	C	1.557265	1.061841	0.666658
N103	N	0.894230	0.124168	0.195673
N104	N	1.227564	0.457502	0.529006
N105	N	1.560897	0.790835	0.862340
N106	N	0.894271	0.124188	-0.195659
N107	N	1.227604	0.457521	0.137674
N108	N	1.560937	0.790855	0.471008
C109	C	0.945611	0.061382	0.238942
C110	C	1.278944	0.394716	0.572275
C111	C	1.612278	0.728049	0.905608
C112	C	0.945615	0.061381	0.325489
C113	C	1.278948	0.394715	0.658822
C114	C	1.612281	0.728048	0.992155
C115	C	0.894241	0.124172	0.368766
C116	C	1.227574	0.457505	0.702099
C117	C	1.560908	0.790838	1.035432
C118	C	0.842855	0.186961	0.325491
C119	C	1.176188	0.520294	0.658824
C120	C	1.509521	0.853628	0.992158
C121	C	0.842848	0.186957	0.238946
C122	C	1.176181	0.520290	0.572279
C123	C	1.509515	0.853623	0.905612
C124	C	0.842881	0.186978	0.674519
C125	C	1.176214	0.520311	1.007853
C126	C	1.509547	0.853645	1.341186
C127	C	0.842893	0.186979	0.761071
C128	C	1.176226	0.520313	1.094404
C129	C	1.509560	0.853646	1.427738
C130	C	0.945648	0.061403	0.761062
C131	C	1.278981	0.394736	1.094396
C132	C	1.612314	0.728069	1.427729
C133	C	0.945641	0.061399	0.674517
C134	C	1.278974	0.394732	1.007850
C135	C	1.612307	0.728065	1.341184
C136	C	0.894252	0.124184	0.631250
C137	C	1.227586	0.457517	0.964583
C138	C	1.560919	0.790851	1.297917
C139	C	0.894248	0.124183	0.537406
C140	C	1.227581	0.457517	0.870739
C141	C	1.560914	0.790850	1.204072
C142	C	0.894248	0.124178	0.462608
C143	C	1.227582	0.457511	0.795942
C144	C	1.560915	0.790844	1.129275
H145	H	0.267201	0.121699	-0.135983
H146	H	0.600535	0.455032	0.197350
H147	H	0.933868	0.788366	0.530683
H148	H	0.987489	0.010276	0.796300
H149	H	1.320822	0.343610	1.129633
H150	H	1.654155	0.676943	1.462966
H151	H	0.521295	0.126637	0.135983
H152	H	0.854628	0.459971	0.469316
H153	H	1.187961	0.793304	0.802650
H154	H	0.987476	0.010272	0.639283
H155	H	1.320810	0.343605	0.972617
H156	H	1.654143	0.676939	1.305950
N157	N	0.790418	0.251116	0.805292
N158	N	1.123751	0.584449	1.138625
N159	N	1.457085	0.917783	1.471958
N160	N	0.814511	0.308327	0.853570
N161	N	1.147845	0.641660	1.186904
N162	N	1.481178	0.974993	1.520237
H163	H	0.777454	0.353621	0.884803
H164	H	1.110788	0.686954	1.218137
H165	H	1.444121	1.020288	1.551470
H166	H	0.267182	0.121704	0.135982
H167	H	0.600515	0.455037	0.469315
H168	H	0.933849	0.788371	0.802649
H169	H	0.801040	0.238102	0.639298
H170	H	1.134373	0.571435	0.972631
H171	H	1.467706	0.904769	1.305965
N172	N	0.790376	0.251087	0.369707
N173	N	1.123710	0.584421	0.703041
N174	N	1.457043	0.917754	1.036374
N175	N	0.790389	0.251084	0.446979
N176	N	1.123722	0.584417	0.780313
N177	N	1.457055	0.917751	1.113646
H178	H	0.753325	0.296376	0.478207
H179	H	1.086659	0.629709	0.811541
H180	H	1.419992	0.963042	1.144874
H181	H	0.801008	0.238082	0.203717
H182	H	1.134341	0.571416	0.537050
H183	H	1.467674	0.904749	0.870384
N184	N	0.115767	0.118757	0.151510
N185	N	0.449100	0.452090	0.484843
N186	N	0.782433	0.785424	0.818177
N187	N	0.045279	0.117384	0.151506
N188	N	0.378613	0.450717	0.484839
N189	N	0.711946	0.784051	0.818172
H190	H	0.016790	0.116837	0.205573
H191	H	0.350123	0.450171	0.538907
H192	H	0.683457	0.783504	0.872240
H193	H	0.664508	0.129458	0.135983
H194	H	0.997842	0.462792	0.469317
H195	H	1.331175	0.796125	0.802650
H196	H	0.664538	0.129455	-0.135981
H197	H	0.997871	0.462788	0.197352
H198	H	1.331204	0.796121	0.530686
N199	N	0.115810	0.118763	-0.151515
N200	N	0.449143	0.452096	0.181818
N201	N	0.782477	0.785429	0.515151
N202	N	0.151066	0.119446	-0.218432
N203	N	0.484399	0.452779	0.114901
N204	N	0.817732	0.786112	0.448235
H205	H	0.122600	0.118896	-0.272507
H206	H	0.455934	0.452229	0.060826
H207	H	0.789267	0.785562	0.394160
H208	H	0.521309	0.126655	-0.135974
H209	H	0.854642	0.459988	0.197359
H210	H	1.187975	0.793322	0.530692
H211	H	0.987448	0.010255	0.203711
H212	H	1.320782	0.343588	0.537044
H213	H	1.654115	0.676922	0.870378
H214	H	0.987452	0.010256	0.360718
H215	H	1.320785	0.343589	0.694051
H216	H	1.654119	0.676922	1.027384
