data_functionalizedCrystal
_audit_creation_method	'MofGen! by Chris Wilmer'
_symmetry_space_group_name_H-M	'P1'
_symmetry_Int_Tables_number	1
_symmetry_cell_setting	triclinic
loop_
_symmetry_equiv_pos_as_xyz
  x,y,z
_cell_length_a	12.759394
_cell_length_b	12.759401
_cell_length_c	12.759393
_cell_angle_alpha	90.022497
_cell_angle_beta	89.968780
_cell_angle_gamma	89.984341
loop_
_atom_site_label
_atom_site_type_symbol
_atom_site_fract_x
_atom_site_fract_y
_atom_site_fract_z
Zn1	Zn	-0.418193	-1.606265	-0.594059
Zn2	Zn	-0.593908	-1.606156	-0.418376
Zn3	Zn	-0.418246	-1.430564	-0.418389
Zn4	Zn	-0.593833	-1.430556	-0.594009
O5	O	-0.506045	-1.518385	-0.506208
O6	O	-0.441511	-1.753272	-0.570769
O7	O	-0.570660	-1.582821	-0.271357
O8	O	-0.271218	-1.453921	-0.441718
O9	O	-0.570608	-1.753192	-0.441697
O10	O	-0.271179	-1.583008	-0.570782
O11	O	-0.441602	-1.453815	-0.271366
O12	O	-0.441529	-1.283542	-0.441670
O13	O	-0.570480	-1.453906	-0.741037
O14	O	-0.570532	-1.283536	-0.570697
O15	O	-0.441438	-1.582999	-0.741073
O16	O	-0.740919	-1.582813	-0.441648
O17	O	-0.740864	-1.453800	-0.570685
C18	C	-0.506029	-1.245418	-0.506180
C19	C	-0.506047	-1.128641	-0.506193
C20	C	-0.573320	-1.073804	-0.573270
C21	C	-0.573323	-0.964080	-0.573288
C22	C	-0.438776	-0.964041	-0.439142
C23	C	-0.438769	-1.073763	-0.439130
C24	C	-0.779012	-1.518322	-0.506183
C25	C	-0.895789	-1.518391	-0.506207
C26	C	-0.895794	-1.652833	-0.371942
C27	C	-0.950657	-1.720082	-0.304822
C28	C	-1.060378	-1.720143	-0.304851
C29	C	-1.115239	-1.652951	-0.372009
C30	C	-1.060376	-1.585703	-0.439129
C31	C	-0.950652	-1.585647	-0.439091
C32	C	-1.060372	-1.451268	-0.573397
C33	C	-0.950650	-1.451200	-0.573365
C34	C	-1.115233	-1.384076	-0.640556
C35	C	-1.060370	-1.316821	-0.707672
C36	C	-0.950642	-1.316761	-0.707640
C37	C	-0.895787	-1.383951	-0.640485
C38	C	-0.232012	-1.518477	-0.506257
C39	C	-0.115235	-1.518516	-0.506277
C40	C	-0.505944	-1.518464	-0.780242
C41	C	-0.505901	-1.518497	-0.897018
C42	C	-0.506059	-0.792419	-0.506230
C43	C	-0.506057	-0.909195	-0.506222
C44	C	-0.438698	-1.585721	-0.951901
C45	C	-0.438653	-1.585739	-1.061625
C46	C	-0.573023	-1.451306	-1.061574
C47	C	-0.573062	-1.451284	-0.951852
C48	C	-0.506070	-1.518367	-0.233241
C49	C	-0.505817	-1.518537	-0.116465
H50	H	-0.384003	-0.919345	-0.384541
C51	C	-1.120723	-1.242917	-0.781536
N52	N	-1.166186	-1.187247	-0.837168
H53	H	-0.627705	-1.396586	-1.106233
C54	C	-1.235936	-1.653029	-0.372041
N55	N	-1.326846	-1.653084	-0.372065
H56	H	-0.905978	-1.262004	-0.762301
C57	C	-0.364727	-1.659693	-1.121991
N58	N	-0.309042	-1.715399	-1.167458
C59	C	-0.646991	-1.377325	-0.891478
N60	N	-0.702669	-1.321619	-0.846004
C61	C	-0.647320	-1.134166	-0.647048
N62	N	-0.703056	-1.179628	-0.702623
H63	H	-1.204574	-1.384136	-0.640579
H64	H	-0.384009	-1.640448	-0.907259
C65	C	-0.647339	-0.903763	-0.647068
N66	N	-0.703093	-0.858333	-0.702641
C67	C	-0.364760	-1.134088	-0.365336
N68	N	-0.309017	-1.179524	-0.309758
C69	C	-1.120729	-1.794119	-0.231015
N70	N	-1.166185	-1.849836	-0.175401
H71	H	-0.806453	-1.652776	-0.371899
C72	C	-0.890302	-1.793986	-0.230949
N73	N	-0.844845	-1.849651	-0.175307
H74	H	-0.806446	-1.383902	-0.640446
