data_functionalizedCrystal
_audit_creation_method	'MofGen! by Chris Wilmer'
_symmetry_space_group_name_H-M	'P1'
_symmetry_Int_Tables_number	1
_symmetry_cell_setting	triclinic
loop_
_symmetry_equiv_pos_as_xyz
  x,y,z
_cell_length_a	11.792241
_cell_length_b	14.044190
_cell_length_c	10.268362
_cell_angle_alpha	89.989939
_cell_angle_beta	89.999626
_cell_angle_gamma	88.692597
loop_
_atom_site_label
_atom_site_type_symbol
_atom_site_fract_x
_atom_site_fract_y
_atom_site_fract_z
O1	O	1.519116	0.129987	-0.108189
O2	O	1.852449	0.463321	0.225145
O3	O	2.185782	0.796654	0.558478
O4	O	1.190032	0.143384	-0.108221
O5	O	1.523366	0.476717	0.225113
O6	O	1.856699	0.810050	0.558446
O7	O	1.349630	-0.001325	-0.108179
O8	O	1.682964	0.332009	0.225154
O9	O	2.016297	0.665342	0.558487
O10	O	1.359518	0.274696	-0.108230
O11	O	1.692851	0.608029	0.225104
O12	O	2.026184	0.941362	0.558437
O13	O	1.349615	-0.001331	0.108421
O14	O	1.682948	0.332003	0.441754
O15	O	2.016281	0.665336	0.775088
O16	O	1.190017	0.143378	0.108380
O17	O	1.523350	0.476711	0.441713
O18	O	1.856683	0.810044	0.775047
O19	O	1.519100	0.129981	0.108412
O20	O	1.852433	0.463315	0.441745
O21	O	2.185766	0.796648	0.775079
Cu22	Cu	1.354557	0.136679	0.128173
Cu23	Cu	1.687890	0.470012	0.461507
Cu24	Cu	2.021223	0.803346	0.794840
Cu25	Cu	1.354575	0.136686	-0.127982
Cu26	Cu	1.687909	0.470019	0.205351
Cu27	Cu	2.021242	0.803353	0.538685
O28	O	1.359502	0.274690	0.108371
O29	O	1.692835	0.608023	0.441704
O30	O	2.026169	0.941356	0.775038
C31	C	1.345297	-0.036664	0.000124
C32	C	1.678630	0.296669	0.333458
C33	C	2.011964	0.630002	0.666791
C34	C	1.332395	-0.141957	0.000134
C35	C	1.665728	0.191377	0.333468
C36	C	1.999062	0.524710	0.666801
C37	C	1.147655	0.142539	0.000076
C38	C	1.480988	0.475873	0.333409
C39	C	1.814321	0.809206	0.666743
C40	C	1.021404	0.140021	0.000065
C41	C	1.354738	0.473354	0.333398
C42	C	1.688071	0.806687	0.666732
C43	C	0.790257	0.135389	0.000103
C44	C	1.123591	0.468722	0.333437
C45	C	1.456924	0.802056	0.666770
C46	C	0.918884	0.137962	0.000082
C47	C	1.252217	0.471296	0.333415
C48	C	1.585551	0.804629	0.666749
C49	C	1.400312	-0.391894	0.000090
C50	C	1.733645	-0.058561	0.333423
C51	C	2.066979	0.274773	0.666757
C52	C	1.308825	-0.334735	0.000090
C53	C	1.642159	-0.001402	0.333423
C54	C	1.975492	0.331931	0.666757
C55	C	1.321943	-0.227463	0.000115
C56	C	1.655276	0.105870	0.333448
C57	C	1.988609	0.439203	0.666781
C58	C	1.387197	-0.499176	0.000065
C59	C	1.720530	-0.165843	0.333399
C60	C	2.053863	0.167491	0.666732
C61	C	1.561478	0.130826	0.000112
C62	C	1.894811	0.464159	0.333446
C63	C	2.228144	0.797492	0.666779
C64	C	1.687728	0.133344	0.000115
C65	C	2.021061	0.466678	0.333448
C66	C	2.354395	0.800011	0.666782
C67	C	1.363835	0.310029	0.000064
C68	C	1.697169	0.643363	0.333398
C69	C	2.030502	0.976696	0.666731
C70	C	1.376737	0.415322	0.000046
C71	C	1.710071	0.748655	0.333379
C72	C	2.043404	1.081988	0.666712
N73	N	1.354552	0.136673	0.308339
N74	N	1.687885	0.470007	0.641673
N75	N	2.021219	0.803340	0.975006
N76	N	1.354589	0.136684	-0.308148
N77	N	1.687922	0.470018	0.025185
N78	N	2.021255	0.803351	0.358519
C79	C	1.354570	0.136684	0.574010
C80	C	1.687903	0.470017	0.907343
C81	C	2.021236	0.803351	1.240676
C82	C	1.354556	0.136681	0.426172
C83	C	1.687890	0.470014	0.759505
C84	C	2.021223	0.803348	1.092839
H85	H	1.488481	-0.360267	0.000112
H86	H	1.821814	-0.026934	0.333445
H87	H	2.155148	0.306399	0.666779
H88	H	1.220649	-0.366364	0.000074
H89	H	1.553983	-0.033030	0.333407
H90	H	1.887316	0.300303	0.666741
