data_functionalizedCrystal
_audit_creation_method	'MofGen! by Chris Wilmer'
_symmetry_space_group_name_H-M	'P1'
_symmetry_Int_Tables_number	1
_symmetry_cell_setting	triclinic
loop_
_symmetry_equiv_pos_as_xyz
  x,y,z
_cell_length_a	21.295418
_cell_length_b	25.639239
_cell_length_c	21.295411
_cell_angle_alpha	89.980474
_cell_angle_beta	89.956262
_cell_angle_gamma	90.054499
loop_
_atom_site_label
_atom_site_type_symbol
_atom_site_fract_x
_atom_site_fract_y
_atom_site_fract_z
Zn1	Zn	0.962320	-0.207990	-0.356243
Zn2	Zn	0.962207	-0.295410	-0.250972
Zn3	Zn	0.857043	-0.208014	-0.250953
Zn4	Zn	0.856998	-0.295420	-0.356169
O5	O	0.909642	-0.251708	-0.303584
O6	O	1.050395	-0.219572	-0.342318
O7	O	0.948229	-0.283822	-0.162880
O8	O	0.871075	-0.134846	-0.264943
O9	O	1.050312	-0.283799	-0.264976
O10	O	0.948421	-0.134828	-0.342299
O11	O	0.870965	-0.219613	-0.162866
O12	O	0.768948	-0.219623	-0.264871
O13	O	0.870997	-0.283816	-0.444268
O14	O	0.768914	-0.283840	-0.342172
O15	O	0.948377	-0.219582	-0.444322
O16	O	0.948185	-0.368576	-0.264904
O17	O	0.870888	-0.368584	-0.342191
C18	C	0.746090	-0.251736	-0.303512
C19	C	0.676122	-0.251760	-0.303496
C20	C	0.643255	-0.285242	-0.343686
C21	C	0.577512	-0.285229	-0.343715
C22	C	0.544640	-0.251740	-0.303541
C23	C	0.577515	-0.218252	-0.263347
C24	C	0.643257	-0.218262	-0.263325
N25	N	0.441365	-0.247648	-0.248483
N26	N	0.378913	-0.247641	-0.248506
C27	C	0.346565	-0.251707	-0.303608
N28	N	0.379028	-0.255789	-0.358686
N29	N	0.441485	-0.255799	-0.358662
C30	C	0.473354	-0.251725	-0.303561
C31	C	0.242412	-0.285176	-0.343832
C32	C	0.176668	-0.285160	-0.343862
C33	C	0.176673	-0.218185	-0.263489
C34	C	0.242415	-0.218199	-0.263465
C35	C	0.275281	-0.251697	-0.303636
C36	C	0.909536	-0.387551	-0.303555
C37	C	0.909548	-0.445665	-0.303564
C38	C	0.949996	-0.806011	-0.263409
C39	C	0.950020	-0.860616	-0.263418
O40	O	0.984300	-0.888838	-0.229245
N41	N	0.909753	-0.887947	-0.303626
C42	C	0.869463	-0.860672	-0.343833
O43	O	0.835215	-0.888934	-0.378034
C44	C	0.869442	-0.806069	-0.343827
C45	C	0.909708	-0.778740	-0.303612
C46	C	0.990259	-0.778683	-0.223198
C47	C	0.990233	-0.724082	-0.223188
C48	C	0.949945	-0.696810	-0.263391
C49	C	0.909682	-0.724139	-0.303603
C50	C	0.829156	-0.778794	-0.384037
C51	C	0.829139	-0.724187	-0.384028
C52	C	0.869404	-0.696858	-0.343812
C53	C	0.869369	-0.642267	-0.343796
N54	N	0.909636	-0.614935	-0.303588
C55	C	0.949924	-0.642207	-0.263385
C56	C	0.869510	-0.975343	-0.343842
C57	C	0.869527	-1.029945	-0.343845
C58	C	0.950086	-1.029885	-0.263431
C59	C	0.950065	-0.975282	-0.263425
C60	C	0.909778	-0.948011	-0.303634
C61	C	0.949868	-0.527542	-0.263369
C62	C	0.949837	-0.472937	-0.263361
C63	C	0.869281	-0.473001	-0.343778
C64	C	0.869309	-0.527602	-0.343783
C65	C	0.909607	-0.554871	-0.303577
O66	O	0.835108	-0.614010	-0.377953
O67	O	0.984172	-0.613939	-0.229195
C68	C	1.073832	-0.251681	-0.303657
C69	C	1.143801	-0.251670	-0.303688
C70	C	0.909694	-0.251697	-0.467774
C71	C	0.909717	-0.251693	-0.537743
C72	C	0.909766	-0.115335	-0.303627
C73	C	0.909818	-0.057221	-0.303645
C74	C	0.950007	-0.218244	-0.570639
C75	C	0.950006	-0.218221	-0.636381
C76	C	0.909721	-0.251657	-0.669225
C77	C	0.869424	-0.285108	-0.636321
C78	C	0.869421	-0.285126	-0.570580
N79	N	0.904857	-0.297396	-0.772441
N80	N	0.904863	-0.297377	-0.834892
C81	C	0.909725	-0.251604	-0.867300
N82	N	0.914594	-0.205848	-0.834897
N83	N	0.914591	-0.205867	-0.772440
C84	C	0.909719	-0.251641	-0.740511
C85	C	0.950017	-0.218128	-0.971482
C86	C	0.950011	-0.218104	-1.037225
C87	C	0.869433	-0.284995	-1.037164
C88	C	0.869435	-0.285014	-0.971422
C89	C	0.909730	-0.251581	-0.938584
C90	C	0.909626	-0.251682	-0.140032
C91	C	0.909726	-0.251539	-0.070065
H92	H	0.269173	-0.312450	-0.376545
N93	N	1.033717	-0.808092	-0.179833
H94	H	1.059216	-0.782486	-0.154363
H95	H	1.008116	-0.830782	-0.150669
N96	N	0.542063	-0.182136	-0.220012
H97	H	0.572863	-0.160926	-0.194546
H98	H	0.514845	-0.157967	-0.245697
H99	H	0.269176	-0.190937	-0.230734
H100	H	0.796364	-0.801036	-0.416781
H101	H	0.550746	-0.312494	-0.376445
N102	N	0.678716	-0.182154	-0.219971
H103	H	0.706056	-0.157962	-0.245598
H104	H	0.647883	-0.160967	-0.194532
H105	H	0.149909	-0.312424	-0.376594
N106	N	0.141227	-0.182059	-0.220162
H107	H	0.094593	-0.187132	-0.226275
H108	H	0.152656	-0.190143	-0.175182
N109	N	0.993327	-0.556943	-0.219994
H110	H	0.967768	-0.579635	-0.190793
H111	H	1.022496	-0.579527	-0.245650
N112	N	0.825955	-0.321202	-0.535103
H113	H	0.835691	-0.358555	-0.546552
H114	H	0.832080	-0.316099	-0.488484
H115	H	0.796333	-0.701986	-0.416773
H116	H	0.982853	-0.953034	-0.230679
N117	N	0.993458	-0.182016	-1.072710
H118	H	1.018981	-0.160840	-1.041929
H119	H	1.022570	-0.203281	-1.100014
H120	H	0.982824	-0.190902	-0.944744
H121	H	0.982893	-1.052099	-0.230698
H122	H	0.836630	-0.312254	-0.944637
N123	N	0.678696	-0.321371	-0.387017
H124	H	0.667313	-0.313304	-0.432014
H125	H	0.725320	-0.316285	-0.380854
N126	N	0.826091	-1.059412	-0.387218
H127	H	0.851665	-1.082028	-0.416429
H128	H	0.796947	-1.082079	-0.361562
N129	N	0.993450	-0.182171	-0.535224
H130	H	0.987333	-0.187254	-0.488584
H131	H	1.038404	-0.190291	-0.546742
N132	N	0.993269	-0.443461	-0.219986
H133	H	1.018797	-0.469026	-0.194523
H134	H	1.022377	-0.420764	-0.245645
N135	N	0.825980	-0.321053	-1.072584
H136	H	0.851539	-0.345271	-1.099879
H137	H	0.800464	-0.342213	-1.041727
N138	N	1.033672	-0.694610	-0.179823
H139	H	1.059198	-0.720179	-0.154363
H140	H	1.062781	-0.671918	-0.205487
N141	N	0.826050	-0.945931	-0.387208
H142	H	0.800545	-0.971535	-0.412677
H143	H	0.796921	-0.923317	-0.361545
N144	N	0.825875	-0.557082	-0.387150
H145	H	0.800347	-0.531518	-0.412614
H146	H	0.851496	-0.579695	-0.416319
N147	N	0.825825	-0.443582	-0.387134
H148	H	0.831924	-0.404845	-0.381023
H149	H	0.835605	-0.453095	-0.432106
N150	N	0.993462	-0.182143	-0.671873
H151	H	1.018988	-0.160966	-0.641095
H152	H	1.022572	-0.203418	-0.699169
N153	N	0.825973	-0.321174	-0.671735
H154	H	0.781004	-0.313061	-0.660260
H155	H	0.832138	-0.316076	-0.718364
