data_functionalizedCrystal
_audit_creation_method	'MofGen! by Chris Wilmer'
_symmetry_space_group_name_H-M	'P1'
_symmetry_Int_Tables_number	1
_symmetry_cell_setting	triclinic
loop_
_symmetry_equiv_pos_as_xyz
  x,y,z
_cell_length_a	11.792254
_cell_length_b	15.995292
_cell_length_c	10.868271
_cell_angle_alpha	89.998057
_cell_angle_beta	89.995741
_cell_angle_gamma	83.833607
loop_
_atom_site_label
_atom_site_type_symbol
_atom_site_fract_x
_atom_site_fract_y
_atom_site_fract_z
O1	O	1.505910	0.114817	-0.102312
O2	O	1.175469	0.126633	-0.102314
O3	O	1.349756	-0.001124	-0.102315
O4	O	1.331622	0.242575	-0.102311
O5	O	1.349742	-0.001129	0.102330
O6	O	1.175454	0.126628	0.102331
O7	O	1.505895	0.114812	0.102333
Zn8	Zn	1.340673	0.120719	0.134824
Zn9	Zn	1.340691	0.120726	-0.134804
O10	O	1.331608	0.242570	0.102334
C11	C	1.133177	0.125887	0.000008
C12	C	1.007183	0.123658	0.000007
C13	C	0.904862	0.121848	0.000002
C14	C	0.776495	0.119585	0.000001
C15	C	1.349011	-0.032326	0.000005
C16	C	1.346798	-0.125289	-0.000005
C17	C	1.338664	-0.463065	0.000007
C18	C	1.464460	-0.439177	0.000465
C19	C	1.466851	-0.342491	-0.000001
C20	C	1.342700	-0.295490	0.000002
C21	C	1.279816	-0.324876	-0.116857
C22	C	1.278302	-0.421673	-0.116950
C23	C	1.275717	-0.421548	0.115769
C24	C	1.280378	-0.325034	0.117309
C25	C	1.344975	-0.200784	-0.000005
C26	C	1.336385	-0.557771	0.000005
C27	C	1.548187	0.115559	0.000008
C28	C	1.674181	0.117787	0.000001
C29	C	1.332353	0.273771	0.000012
C30	C	1.334566	0.366734	0.000013
N31	N	1.340668	0.120714	0.318838
N32	N	1.340705	0.120724	-0.318819
C33	C	1.340685	0.120724	0.569844
C34	C	1.340672	0.120721	0.430166
H35	H	1.516100	-0.323242	0.083766
H36	H	1.326168	-0.306262	0.203760
H37	H	1.516403	-0.323857	-0.083916
H38	H	1.512942	-0.466955	0.084269
H39	H	1.323496	-0.304614	-0.203824
H40	H	1.188458	-0.293426	-0.121199
H41	H	1.315326	-0.449458	0.204348
H42	H	1.512684	-0.467972	-0.082869
H43	H	1.189760	-0.292479	0.124369
H44	H	1.321864	-0.448288	-0.204306
H45	H	1.186067	-0.436645	-0.122243
H46	H	1.183121	-0.435962	0.116558
