data_functionalizedCrystal
_audit_creation_method	'MofGen! by Chris Wilmer'
_symmetry_space_group_name_H-M	'P1'
_symmetry_Int_Tables_number	1
_symmetry_cell_setting	triclinic
loop_
_symmetry_equiv_pos_as_xyz
  x,y,z
_cell_length_a	13.262390
_cell_length_b	23.532357
_cell_length_c	12.376457
_cell_angle_alpha	101.196376
_cell_angle_beta	63.168172
_cell_angle_gamma	83.660309
loop_
_atom_site_label
_atom_site_type_symbol
_atom_site_fract_x
_atom_site_fract_y
_atom_site_fract_z
O1	O	1.512265	0.012088	-0.558967
O2	O	1.184909	0.032064	-0.458325
O3	O	1.358483	-0.061157	-0.511665
O4	O	1.338692	0.105308	-0.505627
O5	O	1.315104	-0.037882	-0.310323
O6	O	1.141531	0.055338	-0.256982
O7	O	1.468887	0.035362	-0.357625
Zn8	Zn	1.298322	0.049045	-0.275336
Zn9	Zn	1.355475	0.018381	-0.540614
O10	O	1.295314	0.128583	-0.304285
C11	C	1.121348	0.044722	-0.344780
C12	C	0.996581	0.047756	-0.306420
C13	C	0.739479	0.005554	-0.637318
C14	C	0.856704	0.002700	-0.673360
C15	C	0.891679	0.013964	-0.581629
C16	C	0.809417	0.028082	-0.453848
C17	C	0.692181	0.030933	-0.417802
C18	C	0.844382	0.039342	-0.362113
C19	C	0.762119	0.053461	-0.234332
C20	C	0.644895	0.056311	-0.198292
C21	C	0.609920	0.045047	-0.290024
C22	C	0.961618	0.036492	-0.398159
C23	C	0.914320	0.061871	-0.178643
C24	C	0.797094	0.064725	-0.142600
C25	C	1.336297	-0.070720	-0.410838
C26	C	1.334806	-0.133892	-0.410369
C27	C	1.349117	-0.538313	-0.517312
C28	C	1.347703	-0.597670	-0.516883
O29	O	1.367042	-0.639153	-0.609986
N30	N	1.323356	-0.614674	-0.406917
C31	C	1.300409	-0.572315	-0.297369
O32	O	1.279569	-0.592227	-0.203794
C33	C	1.301816	-0.512958	-0.297796
C34	C	1.326176	-0.495960	-0.407773
C35	C	1.373474	-0.521314	-0.627279
C36	C	1.374890	-0.461961	-0.627708
C37	C	1.351949	-0.419608	-0.518169
C38	C	1.327592	-0.436607	-0.408201
C39	C	1.278862	-0.470599	-0.188246
C40	C	1.280269	-0.411239	-0.188682
C41	C	1.304629	-0.394241	-0.298659
C42	C	1.306067	-0.334900	-0.299090
N43	N	1.330414	-0.317897	-0.409057
C44	C	1.353355	-0.360251	-0.518596
C45	C	1.297456	-0.696968	-0.296480
C46	C	1.296058	-0.756325	-0.296054
C47	C	1.343349	-0.781676	-0.515568
C48	C	1.344755	-0.722320	-0.515995
C49	C	1.321803	-0.679965	-0.406446
C50	C	1.356328	-0.235605	-0.519487
C51	C	1.357747	-0.176246	-0.519908
C52	C	1.310449	-0.150899	-0.300392
C53	C	1.309037	-0.210253	-0.299973
C54	C	1.331974	-0.252605	-0.409529
O55	O	1.286734	-0.293385	-0.206034
O56	O	1.374177	-0.340328	-0.612150
C57	C	1.532449	0.022704	-0.471172
C58	C	1.657218	0.019668	-0.509540
C59	C	1.317499	0.138146	-0.405115
C60	C	1.318993	0.201317	-0.405592
N61	N	1.259324	0.069973	-0.094294
N62	N	1.394481	-0.002552	-0.721659
C63	C	1.168801	0.118564	-0.007291
C64	C	1.141523	0.133216	0.119432
C65	C	1.204760	0.099275	0.159166
C66	C	1.295280	0.050680	0.072164
C67	C	1.322566	0.036030	-0.054573
C68	C	1.358525	0.016741	0.111884
C69	C	1.449045	-0.031854	0.024882
C70	C	1.476327	-0.046502	-0.101842
C71	C	1.413090	-0.012561	-0.141576
C72	C	1.331239	0.031391	0.238621
C73	C	1.485004	-0.051143	0.191338
C74	C	1.512282	-0.065794	0.064616
H75	H	0.577921	0.067797	-0.094245
H76	H	1.550042	-0.086066	-0.172683
Cl77	Cl	0.958280	0.076027	-0.063315
Cl78	Cl	1.065019	0.018744	-0.558791
H79	H	0.987131	0.011639	-0.610982
H80	H	1.585986	-0.105361	-0.006237
Cl81	Cl	1.564511	-0.093811	0.241280
Cl82	Cl	1.388376	-0.154882	-0.658176
Cl83	Cl	1.447380	-0.030983	-0.300890
Cl84	Cl	0.960111	-0.015051	-0.833991
H85	H	0.514466	0.047372	-0.260684
Cl86	Cl	0.695510	-0.008635	-0.752624
Cl87	Cl	1.265454	-0.777688	-0.157798
Cl88	Cl	0.693667	0.082473	0.018034
Cl89	Cl	1.089321	0.161232	-0.057248
H90	H	1.375000	-0.270081	-0.608697
H91	H	1.067823	0.172781	0.190264
H92	H	1.278768	-0.662485	-0.207267
Cl93	Cl	1.405505	-0.440601	-0.765969
Cl94	Cl	1.402320	-0.574550	-0.765005
Cl95	Cl	1.372180	-0.834931	-0.653273
Cl96	Cl	1.375377	-0.700957	-0.654255
H97	H	1.259027	-0.484428	-0.098691
Cl98	Cl	1.251414	-0.357997	-0.050954
Cl99	Cl	1.278433	-0.231625	-0.161722
Cl100	Cl	1.217445	0.092479	0.347978
H101	H	1.182546	0.111206	0.262350
Cl102	Cl	1.281611	-0.097644	-0.162693
