data_functionalizedCrystal
_audit_creation_method	'MofGen! by Chris Wilmer'
_symmetry_space_group_name_H-M	'P1'
_symmetry_Int_Tables_number	1
_symmetry_cell_setting	triclinic
loop_
_symmetry_equiv_pos_as_xyz
  x,y,z
_cell_length_a	10.489746
_cell_length_b	16.109301
_cell_length_c	15.186229
_cell_angle_alpha	90.003248
_cell_angle_beta	90.000568
_cell_angle_gamma	84.001442
loop_
_atom_site_label
_atom_site_type_symbol
_atom_site_fract_x
_atom_site_fract_y
_atom_site_fract_z
O1	O	0.163941	1.104146	0.073181
O2	O	0.184344	0.862210	0.073193
O3	O	-0.011535	0.988681	0.073180
O4	O	0.359820	0.977675	0.073194
O5	O	-0.011524	0.988666	-0.073277
O6	O	0.184355	0.862195	-0.073264
O7	O	0.163952	1.104131	-0.073276
Zn8	Zn	0.174155	0.983161	-0.096523
Zn9	Zn	0.174140	0.983181	0.096440
O10	O	0.359831	0.977660	-0.073263
C11	C	0.183523	0.831223	-0.000034
C12	C	0.181045	0.738912	-0.000029
C13	C	0.289175	0.430582	-0.000041
C14	C	0.291515	0.517317	-0.000035
C15	C	0.059112	0.535754	-0.000032
C16	C	0.056773	0.449021	-0.000031
C17	C	0.171808	0.396437	-0.000040
C18	C	0.176487	0.569905	-0.000036
C19	C	0.179024	0.663946	-0.000030
C20	C	0.169272	0.302389	-0.000044
C21	C	-0.059049	0.987842	-0.000048
C22	C	-0.200642	0.985352	-0.000048
C23	C	-0.352311	0.903408	-0.000032
C24	C	-0.275519	0.944384	0.072175
C25	C	-0.275549	0.944389	-0.072221
C26	C	-0.376135	1.021933	0.072239
C27	C	-0.376171	1.021927	-0.072221
C28	C	-0.299428	1.062959	0.000003
C29	C	0.407345	0.978500	-0.000033
C30	C	0.548938	0.980990	-0.000028
C31	C	0.164773	1.135119	-0.000047
C32	C	0.167251	1.227429	-0.000046
N33	N	0.174164	0.983154	-0.228216
C34	C	0.251528	1.034055	-0.453939
C35	C	0.251519	1.034064	-0.546128
C36	C	0.096749	0.932291	-0.546138
C37	C	0.096752	0.932287	-0.453950
C38	C	0.174149	0.983168	-0.407853
C39	C	0.174137	0.983181	-0.592230
C40	C	0.174126	0.983190	-0.692187
C41	C	0.174158	0.983160	-0.307890
N42	N	0.174121	0.983195	0.228133
H43	H	-0.034546	0.578579	-0.000027
H44	H	0.382844	0.387770	-0.000047
C45	C	0.336648	1.090026	-0.403230
H46	H	0.325579	1.082731	-0.341725
H47	H	0.312973	1.146767	-0.418332
H48	H	0.423918	1.075097	-0.418342
H49	H	-0.038807	0.421221	-0.000028
C50	C	0.011633	0.876318	-0.596848
H51	H	0.022722	0.883601	-0.658353
H52	H	-0.075633	0.891238	-0.581740
H53	H	0.035321	0.819574	-0.581743
H54	H	-0.376052	0.835948	0.000043
H55	H	0.314527	1.075503	-0.583647
H56	H	-0.231573	0.911640	0.133226
H57	H	-0.419896	1.054668	0.133354
C58	C	-0.267671	1.154155	0.000051
H59	H	-0.302447	1.181588	0.051393
H60	H	-0.303660	1.181894	-0.050758
H61	H	-0.177298	1.155239	-0.000431
C62	C	-0.216210	0.900126	-0.154691
H63	H	-0.174092	0.938562	-0.188702
H64	H	-0.281914	0.879579	-0.188915
H65	H	-0.155994	0.854931	-0.137326
H66	H	-0.420140	1.054642	-0.133275
H67	H	0.033734	0.890847	-0.416426
H68	H	0.387086	0.545113	-0.000035
