data_functionalizedCrystal
_audit_creation_method	'MofGen! by Chris Wilmer'
_symmetry_space_group_name_H-M	'P1'
_symmetry_Int_Tables_number	1
_symmetry_cell_setting	triclinic
loop_
_symmetry_equiv_pos_as_xyz
  x,y,z
_cell_length_a	6.394989
_cell_length_b	10.654550
_cell_length_c	9.130313
_cell_angle_alpha	90.000276
_cell_angle_beta	90.001550
_cell_angle_gamma	85.491321
loop_
_atom_site_label
_atom_site_type_symbol
_atom_site_fract_x
_atom_site_fract_y
_atom_site_fract_z
O1	O	-0.293442	-1.670947	-0.121679
O2	O	-0.321399	-1.305765	-0.121705
O3	O	-0.003431	-1.493540	-0.121693
O4	O	-0.611409	-1.483173	-0.121692
O5	O	-0.003422	-1.493526	0.121906
O6	O	-0.321389	-1.305752	0.121893
O7	O	-0.293432	-1.670934	0.121919
Cu8	Cu	-0.307410	-1.488342	0.144149
Cu9	Cu	-0.307421	-1.488357	-0.143935
O10	O	-0.611400	-1.483159	0.121907
C11	C	-0.319341	-1.258939	0.000091
C12	C	-0.313200	-1.119430	0.000080
C13	C	-0.295490	-1.717760	0.000120
C14	C	-0.301631	-1.857269	0.000121
N15	N	-0.307401	-1.488340	0.346772
C16	C	0.074425	-1.491483	0.000101
C17	C	0.310750	-1.485219	0.000099
N18	N	-0.307414	-1.488369	-0.346558
C19	C	-0.500414	-1.041927	0.000085
C20	C	-0.494631	-0.910845	0.000110
C21	C	-0.114403	-0.934782	0.000121
C22	C	-0.120188	-1.065861	0.000106
C23	C	-0.166665	-1.571516	0.423429
C24	C	-0.166665	-1.571528	0.576766
C25	C	-0.448157	-1.405184	0.576774
C26	C	-0.448145	-1.405167	0.423440
H27	H	-0.647080	-0.847747	0.000117
H28	H	0.042741	-0.891149	0.000150
O29	O	0.061741	-1.141103	-0.000161
C30	C	0.385006	-1.201616	-0.126312
C31	C	0.179044	-1.116354	-0.126217
H32	H	0.479924	-1.181618	-0.228202
H33	H	0.347836	-1.304525	-0.126416
H34	H	0.479805	-1.181763	-0.024315
H35	H	0.084145	-1.136095	-0.228197
H36	H	0.216360	-1.013471	-0.126037
H37	H	-0.657577	-1.085539	0.000075
H38	H	-0.052060	-1.639239	0.361009
O39	O	-0.029881	-1.652448	0.651003
C40	C	0.249400	-1.817388	0.634802
C41	C	0.094561	-1.725831	0.550548
H42	H	0.350082	-1.876723	0.553621
H43	H	0.158327	-1.881650	0.706538
H44	H	0.354522	-1.761498	0.706640
H45	H	-0.010599	-1.781618	0.478631
H46	H	0.185765	-1.661568	0.478905
O47	O	-0.584949	-1.324277	0.651027
C48	C	-0.864223	-1.159330	0.634850
C49	C	-0.709382	-1.250872	0.550582
H50	H	-0.964897	-1.099977	0.553677
H51	H	-0.773153	-1.095084	0.706612
H52	H	-0.969353	-1.215233	0.706662
H53	H	-0.604213	-1.195072	0.478690
H54	H	-0.800582	-1.315119	0.478913
H55	H	-0.562750	-1.337429	0.361022
