data_functionalizedCrystal
_audit_creation_method	'MofGen! by Chris Wilmer'
_symmetry_space_group_name_H-M	'P1'
_symmetry_Int_Tables_number	1
_symmetry_cell_setting	triclinic
loop_
_symmetry_equiv_pos_as_xyz
  x,y,z
_cell_length_a	10.654550
_cell_length_b	12.837942
_cell_length_c	9.730223
_cell_angle_alpha	89.996108
_cell_angle_beta	89.999957
_cell_angle_gamma	89.656935
loop_
_atom_site_label
_atom_site_type_symbol
_atom_site_fract_x
_atom_site_fract_y
_atom_site_fract_z
O1	O	1.683741	0.145723	-0.114186
O2	O	2.183741	0.645723	0.385814
O3	O	1.319778	0.159606	-0.114211
O4	O	1.819778	0.659606	0.385789
O5	O	1.493689	0.001704	-0.114190
O6	O	1.993689	0.501704	0.385810
O7	O	1.509830	0.303625	-0.114206
O8	O	2.009830	0.803625	0.385794
O9	O	1.493676	0.001699	0.114390
O10	O	1.993676	0.501699	0.614390
O11	O	1.319765	0.159602	0.114369
O12	O	1.819765	0.659602	0.614369
O13	O	1.683728	0.145718	0.114394
O14	O	2.183728	0.645718	0.614394
Zn15	Zn	1.501744	0.152660	0.150674
Zn16	Zn	2.001744	0.652660	0.650674
Zn17	Zn	1.501761	0.152665	-0.150490
Zn18	Zn	2.001761	0.652665	0.349510
O19	O	1.509817	0.303621	0.114374
O20	O	2.009817	0.803621	0.614374
C21	C	1.272862	0.158585	0.000076
C22	C	1.772862	0.658585	0.500076
C23	C	1.133086	0.155535	0.000067
C24	C	1.633086	0.655535	0.500067
C25	C	1.488230	-0.036958	0.000099
C26	C	1.988230	0.463042	0.500099
C27	C	1.471967	-0.152152	0.000095
C28	C	1.971967	0.347848	0.500095
C29	C	1.063746	0.248505	0.000066
C30	C	1.563746	0.748505	0.500066
C31	C	0.932411	0.245633	0.000090
C32	C	1.432411	0.745633	0.500090
C33	C	0.939770	0.056812	0.000110
C34	C	1.439770	0.556812	0.500110
C35	C	1.071101	0.059685	0.000096
C36	C	1.571101	0.559685	0.500096
C37	C	1.667472	-0.391705	0.000080
C38	C	2.167472	0.108295	0.500080
C39	C	1.652197	-0.499941	0.000077
C40	C	2.152197	0.000059	0.500077
C41	C	1.426146	-0.476861	0.000075
C42	C	1.926146	0.023139	0.500075
C43	C	1.441420	-0.368626	0.000079
C44	C	1.941420	0.131374	0.500079
C45	C	1.562087	-0.326052	0.000083
C46	C	2.062087	0.173948	0.500083
C47	C	1.577360	-0.217814	0.000096
C48	C	2.077360	0.282186	0.500096
C49	C	1.351309	-0.194737	0.000085
C50	C	1.851309	0.305263	0.500085
C51	C	1.336035	-0.302972	0.000082
C52	C	1.836035	0.197028	0.500082
C53	C	1.730644	0.146740	0.000104
C54	C	2.230644	0.646740	0.500104
C55	C	1.870420	0.149790	0.000105
C56	C	2.370420	0.649790	0.500105
C57	C	1.515276	0.342283	0.000082
C58	C	2.015276	0.842283	0.500082
C59	C	1.531538	0.457477	0.000076
C60	C	2.031538	0.957477	0.500076
N61	N	1.501742	0.152655	0.356210
N62	N	2.001742	0.652655	0.856210
N63	N	1.501773	0.152662	-0.356027
N64	N	2.001773	0.652662	0.143973
C65	C	1.578782	0.082766	0.428145
C66	C	2.078782	0.582766	0.928145
C67	C	1.578795	0.082766	0.572028
C68	C	2.078795	0.582766	1.072028
C69	C	1.424724	0.222554	0.572028
C70	C	1.924724	0.722554	1.072028
C71	C	1.424705	0.222548	0.428148
C72	C	1.924705	0.722548	0.928148
H73	H	1.114209	0.326552	0.000052
H74	H	1.614209	0.826552	0.500052
Cl75	Cl	1.274463	-0.530402	0.000029
Cl76	Cl	1.774463	-0.030402	0.500029
Cl77	Cl	0.861837	-0.063678	0.000138
Cl78	Cl	1.361837	0.436322	0.500138
Cl79	Cl	1.184348	-0.356504	0.000064
Cl80	Cl	1.684348	0.143496	0.500064
Cl81	Cl	1.327888	0.310420	0.662471
Cl82	Cl	1.827888	0.810420	1.162471
Cl83	Cl	0.845246	0.362517	0.000090
Cl84	Cl	1.345246	0.862517	0.500090
H85	H	1.641526	0.025854	0.630594
H86	H	2.141526	0.525854	1.130594
Cl87	Cl	1.158279	-0.057202	0.000108
Cl88	Cl	1.658279	0.442798	0.500108
Cl89	Cl	1.327841	0.310411	0.337707
Cl90	Cl	1.827841	0.810411	0.837707
H91	H	1.675613	-0.183153	0.000105
H92	H	2.175613	0.316847	0.500105
H93	H	1.765723	-0.357041	0.000097
H94	H	2.265723	0.142959	0.500097
H95	H	1.738013	-0.553393	0.000070
H96	H	2.238013	-0.053393	0.500070
Cl97	Cl	1.675623	-0.005104	0.337715
Cl98	Cl	2.175623	0.494896	0.837715
H99	H	1.265497	-0.141269	0.000099
H100	H	1.765497	0.358731	0.500099
