data_functionalizedCrystal
_audit_creation_method	'MofGen! by Chris Wilmer'
_symmetry_space_group_name_H-M	'P1'
_symmetry_Int_Tables_number	1
_symmetry_cell_setting	triclinic
loop_
_symmetry_equiv_pos_as_xyz
  x,y,z
_cell_length_a	13.897448
_cell_length_b	13.032831
_cell_length_c	13.033109
_cell_angle_alpha	103.334486
_cell_angle_beta	97.153140
_cell_angle_gamma	97.177601
loop_
_atom_site_label
_atom_site_type_symbol
_atom_site_fract_x
_atom_site_fract_y
_atom_site_fract_z
Zn1	Zn	-0.678106	-1.700113	-0.806401
Zn2	Zn	-0.815943	-1.677445	-0.628782
Zn3	Zn	-0.631189	-1.499937	-0.606295
Zn4	Zn	-0.815858	-1.522460	-0.783826
O5	O	-0.735274	-1.599989	-0.706326
O6	O	-0.716060	-1.845742	-0.801698
O7	O	-0.771836	-1.634986	-0.477168
O8	O	-0.502443	-1.526552	-0.632875
O9	O	-0.817329	-1.829088	-0.671203
O10	O	-0.536912	-1.673620	-0.779893
O11	O	-0.636098	-1.504572	-0.460646
O12	O	-0.636016	-1.354289	-0.610986
O13	O	-0.817184	-1.564938	-0.935453
O14	O	-0.771691	-1.370836	-0.741418
O15	O	-0.715978	-1.695459	-0.952038
O16	O	-0.950902	-1.656825	-0.649313
O17	O	-0.950840	-1.542958	-0.763223
C18	C	-0.698754	-1.324023	-0.671313
C19	C	-0.683157	-1.205967	-0.656359
C20	C	-0.985874	-1.599907	-0.706286
C21	C	-1.093100	-1.599974	-0.706316
C22	C	-0.771805	-1.635240	-0.983361
C23	C	-0.787373	-1.650262	-1.101417
C24	C	-1.289418	-1.600094	-0.706397
C25	C	-1.180173	-1.600025	-0.706355
C26	C	-0.483702	-1.600102	-0.706394
C27	C	-0.376498	-1.600151	-0.706423
C28	C	-0.771938	-1.877032	-0.741477
C29	C	-0.787562	-1.995092	-0.756456
C30	C	-0.743414	-1.161536	-0.714130
C31	C	-0.727296	-1.039519	-0.698676
C32	C	-0.727152	-1.592433	-1.145876
C33	C	-0.743241	-1.607957	-1.267892
C34	C	-0.698824	-1.564936	-0.430376
C35	C	-0.683012	-1.550120	-0.312347
H36	H	-0.806933	-1.213830	-0.775036
H37	H	-0.663689	-1.531426	-1.093605
H38	H	-0.663766	-0.987229	-0.637775
C39	C	-0.873113	-1.732676	-1.172015
H40	H	-0.908812	-1.766940	-1.128299
H41	H	-0.848007	-1.784437	-1.221170
H42	H	-0.915430	-1.697487	-1.210117
C43	C	-0.828983	-1.690375	-1.338492
H44	H	-0.828544	-1.690003	-1.411240
H45	H	-0.889359	-1.672516	-1.318377
H46	H	-0.821930	-1.759460	-1.329425
H47	H	-0.851083	-1.047382	-0.817368
C48	C	-0.597266	-1.467705	-1.241751
H49	H	-0.597695	-1.468085	-1.169003
H50	H	-0.604307	-1.398623	-1.250819
H51	H	-0.536890	-1.485579	-1.261867
C52	C	-0.597340	-1.135332	-0.574089
H53	H	-0.597767	-1.062589	-0.574492
H54	H	-0.537000	-1.155470	-0.592040
H55	H	-0.604321	-1.144352	-0.504969
