data_functionalizedCrystal
_audit_creation_method	'MofGen! by Chris Wilmer'
_symmetry_space_group_name_H-M	'P1'
_symmetry_Int_Tables_number	1
_symmetry_cell_setting	triclinic
loop_
_symmetry_equiv_pos_as_xyz
  x,y,z
_cell_length_a	15.995350
_cell_length_b	10.654550
_cell_length_c	9.730223
_cell_angle_alpha	90.003749
_cell_angle_beta	90.000899
_cell_angle_gamma	96.011361
loop_
_atom_site_label
_atom_site_type_symbol
_atom_site_fract_x
_atom_site_fract_y
_atom_site_fract_z
O1	O	0.117599	-1.666298	-0.114395
O2	O	0.128803	-1.300673	-0.114373
O3	O	0.001371	-1.493480	-0.114383
O4	O	0.245031	-1.473491	-0.114385
O5	O	0.001375	-1.493478	0.114197
O6	O	0.128806	-1.300671	0.114207
O7	O	0.117602	-1.666295	0.114185
Zn8	Zn	0.123205	-1.483483	0.150488
Zn9	Zn	0.123200	-1.483486	-0.150676
O10	O	0.245034	-1.473488	0.114195
C11	C	0.127982	-1.253885	-0.000080
C12	C	0.125521	-1.114473	-0.000071
C13	C	-0.029827	-1.492652	-0.000096
C14	C	-0.122791	-1.490175	-0.000104
C15	C	0.118423	-1.713084	-0.000111
C16	C	0.120884	-1.852495	-0.000129
C17	C	-0.460591	-1.481278	-0.000098
C18	C	-0.413954	-1.343964	-0.000603
C19	C	-0.317249	-1.346442	-0.000087
C20	C	-0.293004	-1.485691	-0.000102
C21	C	-0.333687	-1.553417	0.130422
C22	C	-0.430342	-1.549968	0.130531
C23	C	-0.430688	-1.552807	-0.129407
C24	C	-0.333743	-1.552775	-0.131132
C25	C	-0.198292	-1.488192	-0.000099
C26	C	-0.555303	-1.478780	-0.000092
C27	C	0.276232	-1.474316	-0.000095
C28	C	0.369197	-1.476793	-0.000097
N29	N	0.123207	-1.483490	0.356024
C30	C	0.200551	-1.034008	-0.000092
C31	C	0.198233	-0.903017	-0.000116
C32	C	0.045849	-0.932971	-0.000104
C33	C	0.048168	-1.063959	-0.000071
C34	C	0.288528	-1.016713	-0.000104
C35	C	0.286211	-0.885722	-0.000128
N36	N	0.123191	-1.483488	-0.356212
C37	C	0.066800	-1.568886	0.427946
C38	C	0.066789	-1.568883	0.571829
C39	C	0.179602	-1.398083	0.571856
C40	C	0.179607	-1.398081	0.427976
C41	C	0.001671	-1.667501	0.427931
C42	C	0.001661	-1.667497	0.571814
H43	H	-0.289138	-1.293204	-0.093652
H44	H	-0.461861	-1.654048	-0.130294
N45	N	-0.078903	-1.628156	0.630918
H46	H	-0.065864	-1.550218	0.689361
H47	H	-0.117774	-1.609218	0.553569
N48	N	-0.037574	-0.878472	-0.000113
H49	H	-0.070484	-0.907834	-0.084840
H50	H	-0.070410	-0.907807	0.084685
H51	H	-0.012929	-1.129471	-0.000034
N52	N	0.240435	-1.305977	0.649466
H53	H	0.276170	-1.251878	0.582068
H54	H	0.208028	-1.250467	0.709158
H55	H	0.322938	-1.045593	0.095561
N56	N	-0.083574	-1.640216	0.376189
H57	H	-0.096330	-1.554888	0.410756
H58	H	-0.083544	-1.640280	0.272393
N59	N	0.240447	-1.305974	0.350406
H60	H	0.231894	-1.318929	0.248339
H61	H	0.230215	-1.216893	0.375561
H62	H	0.312800	-0.839703	0.098556
H63	H	0.319358	-0.843557	-0.095796
H64	H	0.022064	-1.758418	0.383299
H65	H	-0.432806	-1.289082	-0.094203
H66	H	-0.433864	-1.289324	0.092484
H67	H	0.016006	-1.763822	0.610858
N68	N	0.325627	-1.063476	-0.130823
H69	H	0.341849	-0.989726	-0.194006
H70	H	0.377125	-1.106751	-0.107994
H71	H	-0.289694	-1.292844	0.093643
H72	H	-0.462005	-1.650782	0.136444
N73	N	-0.454972	-1.484550	0.259780
H74	H	-0.403063	-1.458219	0.316147
H75	H	-0.483372	-1.407472	0.234383
H76	H	-0.305577	-1.506376	0.227563
N77	N	-0.314223	-1.688944	0.136824
H78	H	-0.278756	-1.707785	0.054984
H79	H	-0.282492	-1.702923	0.224294
H80	H	-0.317791	-1.654321	-0.139024
H81	H	-0.451490	-1.507914	-0.228337
H82	H	-0.306783	-1.503258	-0.227690
