data_functionalizedCrystal
_audit_creation_method	'MofGen! by Chris Wilmer'
_symmetry_space_group_name_H-M	'P1'
_symmetry_Int_Tables_number	1
_symmetry_cell_setting	triclinic
loop_
_symmetry_equiv_pos_as_xyz
  x,y,z
_cell_length_a	16.109296
_cell_length_b	15.186229
_cell_length_c	16.109301
_cell_angle_alpha	90.005167
_cell_angle_beta	83.460385
_cell_angle_gamma	90.001331
loop_
_atom_site_label
_atom_site_type_symbol
_atom_site_fract_x
_atom_site_fract_y
_atom_site_fract_z
O1	O	-1.103133	-0.073190	-0.106845
O2	O	-0.853133	0.176810	0.143155
O3	O	-0.603133	0.426810	0.393155
O4	O	-0.353133	0.676810	0.643155
O5	O	-0.861071	-0.073201	-0.120149
O6	O	-0.611071	0.176799	0.129851
O7	O	-0.361071	0.426799	0.379851
O8	O	-0.111071	0.676799	0.629851
O9	O	-0.988752	-0.073186	0.007534
O10	O	-0.738752	0.176814	0.257534
O11	O	-0.488752	0.426814	0.507534
O12	O	-0.238752	0.676814	0.757534
O13	O	-0.975452	-0.073205	-0.234528
O14	O	-0.725452	0.176795	0.015472
O15	O	-0.475452	0.426795	0.265472
O16	O	-0.225452	0.676795	0.515472
O17	O	-0.988743	0.073271	0.007536
O18	O	-0.738743	0.323271	0.257536
O19	O	-0.488743	0.573271	0.507536
O20	O	-0.238743	0.823271	0.757536
O21	O	-0.861062	0.073256	-0.120147
O22	O	-0.611062	0.323256	0.129853
O23	O	-0.361062	0.573256	0.379853
O24	O	-0.111062	0.823256	0.629853
O25	O	-1.103125	0.073267	-0.106843
O26	O	-0.853125	0.323267	0.143157
O27	O	-0.603125	0.573267	0.393157
O28	O	-0.353125	0.823267	0.643157
Zn29	Zn	-0.982092	0.096515	-0.113495
Zn30	Zn	-0.732092	0.346515	0.136505
Zn31	Zn	-0.482092	0.596515	0.386505
Zn32	Zn	-0.232092	0.846515	0.636505
Zn33	Zn	-0.982103	-0.096449	-0.113497
Zn34	Zn	-0.732103	0.153551	0.136503
Zn35	Zn	-0.482103	0.403551	0.386503
Zn36	Zn	-0.232103	0.653551	0.636503
O37	O	-0.975444	0.073253	-0.234526
O38	O	-0.725444	0.323253	0.015474
O39	O	-0.475444	0.573253	0.265474
O40	O	-0.225444	0.823253	0.515474
C41	C	-0.830092	0.000026	-0.119610
C42	C	-0.580092	0.250026	0.130390
C43	C	-0.330092	0.500026	0.380390
C44	C	-0.080092	0.750026	0.630390
C45	C	-0.737796	0.000022	-0.117996
C46	C	-0.487796	0.250022	0.132004
C47	C	-0.237796	0.500022	0.382004
C48	C	0.012204	0.750022	0.632004
C49	C	-0.428797	0.000034	-0.188486
C50	C	-0.178797	0.250034	0.061514
C51	C	0.071203	0.500034	0.311514
C52	C	0.321203	0.750034	0.561514
C53	C	-0.515517	0.000028	-0.190009
C54	C	-0.265517	0.250028	0.059991
C55	C	-0.015517	0.500028	0.309991
C56	C	0.234483	0.750028	0.559991
C57	C	-0.535391	0.000028	-0.038520
C58	C	-0.285391	0.250028	0.211480
C59	C	-0.035391	0.500028	0.461480
C60	C	0.214609	0.750028	0.711480
C61	C	-0.448672	0.000028	-0.036998
C62	C	-0.198672	0.250028	0.213002
C63	C	0.051328	0.500028	0.463002
C64	C	0.301328	0.750028	0.713002
C65	C	-0.395377	0.000035	-0.111983
C66	C	-0.145377	0.250035	0.138017
C67	C	0.104623	0.500035	0.388017
C68	C	0.354623	0.750035	0.638017
C69	C	-0.568816	0.000030	-0.115029
C70	C	-0.318816	0.250030	0.134971
C71	C	-0.068816	0.500030	0.384971
C72	C	0.181184	0.750030	0.634971
C73	C	-0.662843	0.000024	-0.116681
C74	C	-0.412843	0.250024	0.133319
C75	C	-0.162843	0.500024	0.383319
C76	C	0.087157	0.750024	0.633319
C77	C	-0.301345	0.000040	-0.110332
C78	C	-0.051345	0.250040	0.139668
C79	C	0.198655	0.500040	0.389668
C80	C	0.448655	0.750040	0.639668
N81	N	-0.982091	0.228208	-0.113493
N82	N	-0.732091	0.478208	0.136507
N83	N	-0.482091	0.728208	0.386507
N84	N	-0.232091	0.978208	0.636507
C85	C	-0.988209	0.000043	0.038510
C86	C	-0.738209	0.250043	0.288510
C87	C	-0.488209	0.500043	0.538510
C88	C	-0.238209	0.750043	0.788510
C89	C	-0.986594	0.000044	0.130805
C90	C	-0.736594	0.250044	0.380805
C91	C	-0.486594	0.500044	0.630805
C92	C	-0.236594	0.750044	0.880805
C93	C	-0.134103	0.000040	-0.107387
C94	C	0.115897	0.250040	0.142613
C95	C	0.365897	0.500040	0.392613
C96	C	0.615897	0.750040	0.642613
C97	C	-0.226397	0.000043	-0.109016
C98	C	0.023603	0.250043	0.140984
C99	C	0.273603	0.500043	0.390984
C100	C	0.523603	0.750043	0.640984
N101	N	-0.982112	-0.228141	-0.113493
N102	N	-0.732112	0.021859	0.136507
N103	N	-0.482112	0.271859	0.386507
N104	N	-0.232112	0.521859	0.636507
C105	C	-1.038647	0.453937	-0.056974
C106	C	-0.788647	0.703937	0.193026
C107	C	-0.538647	0.953937	0.443026
C108	C	-0.288647	1.203937	0.693026
C109	C	-1.038650	0.546127	-0.056972
C110	C	-0.788650	0.796127	0.193028
C111	C	-0.538650	1.046127	0.443028
C112	C	-0.288650	1.296127	0.693028
C113	C	-0.925549	0.546123	-0.170014
C114	C	-0.675549	0.796123	0.079986
C115	C	-0.425549	1.046123	0.329986
C116	C	-0.175549	1.296123	0.579986
C117	C	-0.925543	0.453935	-0.170012
C118	C	-0.675543	0.703935	0.079988
C119	C	-0.425543	0.953935	0.329988
C120	C	-0.175543	1.203935	0.579988
C121	C	-0.982097	0.407844	-0.113492
C122	C	-0.732097	0.657844	0.136508
C123	C	-0.482097	0.907844	0.386508
C124	C	-0.232097	1.157844	0.636508
C125	C	-0.982105	0.592222	-0.113493
C126	C	-0.732105	0.842222	0.136507
C127	C	-0.482105	1.092222	0.386507
C128	C	-0.232105	1.342222	0.636507
C129	C	-0.982108	0.692178	-0.113491
C130	C	-0.732108	0.942178	0.136509
C131	C	-0.482108	1.192178	0.386509
C132	C	-0.232108	1.442178	0.636509
C133	C	-0.982094	0.307882	-0.113493
C134	C	-0.732094	0.557882	0.136507
C135	C	-0.482094	0.807882	0.386507
C136	C	-0.232094	1.057882	0.636507
C137	C	-0.975987	0.000022	-0.265502
C138	C	-0.725987	0.250022	-0.015502
C139	C	-0.475987	0.500022	0.234498
C140	C	-0.225987	0.750022	0.484498
C141	C	-0.977602	0.000015	-0.357797
C142	C	-0.727602	0.250015	-0.107797
C143	C	-0.477602	0.500015	0.142203
C144	C	-0.227602	0.750015	0.392203
C145	C	-1.058602	0.000033	0.353079
C146	C	-0.808602	0.250033	0.603079
C147	C	-0.558602	0.500033	0.853079
C148	C	-0.308602	0.750033	1.103079
C149	C	-1.057078	0.000026	0.439800
C150	C	-0.807078	0.250026	0.689800
C151	C	-0.557078	0.500026	0.939800
C152	C	-0.307078	0.750026	1.189800
C153	C	-0.905588	0.000023	0.419922
C154	C	-0.655588	0.250023	0.669922
C155	C	-0.405588	0.500023	0.919922
C156	C	-0.155588	0.750023	1.169922
C157	C	-0.907113	0.000024	0.333204
C158	C	-0.657113	0.250024	0.583204
C159	C	-0.407113	0.500024	0.833204
C160	C	-0.157113	0.750024	1.083204
C161	C	-0.983622	0.000033	0.299785
C162	C	-0.733622	0.250033	0.549785
C163	C	-0.483622	0.500033	0.799785
C164	C	-0.233622	0.750033	1.049785
C165	C	-0.980573	0.000025	0.473224
C166	C	-0.730573	0.250025	0.723224
C167	C	-0.480573	0.500025	0.973224
C168	C	-0.230573	0.750025	1.223224
C169	C	-0.978920	0.000017	0.567250
C170	C	-0.728920	0.250017	0.817250
C171	C	-0.478920	0.500017	1.067250
C172	C	-0.228920	0.750017	1.317250
C173	C	-0.985276	0.000040	0.205753
C174	C	-0.735276	0.250040	0.455753
C175	C	-0.485276	0.500040	0.705753
C176	C	-0.235276	0.750040	0.955753
H177	H	-0.421462	0.000025	0.025304
H178	H	-0.171462	0.250025	0.275304
H179	H	0.078538	0.500025	0.525304
H180	H	0.328538	0.750025	0.775304
H181	H	-0.542723	0.000027	-0.252306
H182	H	-0.292723	0.250027	-0.002306
H183	H	-0.042723	0.500027	0.247694
H184	H	0.207277	0.750027	0.497694
H185	H	-0.843297	0.000016	0.447143
H186	H	-0.593297	0.250016	0.697143
H187	H	-0.343297	0.500016	0.947143
H188	H	-0.093297	0.750016	1.197143
H189	H	-0.879506	0.583659	-0.216032
H190	H	-0.629506	0.833659	0.033968
H191	H	-0.379506	1.083659	0.283968
H192	H	-0.129506	1.333659	0.533968
F193	F	-0.865349	0.404875	-0.230166
F194	F	-0.615349	0.654875	0.019834
F195	F	-0.365349	0.904875	0.269834
F196	F	-0.115349	1.154875	0.519834
H197	H	-0.846052	0.000021	0.289808
H198	H	-0.596052	0.250021	0.539808
H199	H	-0.346052	0.500021	0.789808
H200	H	-0.096052	0.750021	1.039808
H201	H	-1.120900	0.000040	0.325873
H202	H	-0.870900	0.250040	0.575873
H203	H	-0.620900	0.500040	0.825873
H204	H	-0.370900	0.750040	1.075873
F205	F	-1.136881	0.000024	0.496516
F206	F	-0.886881	0.250024	0.746516
F207	F	-0.636881	0.500024	0.996516
F208	F	-0.386881	0.750024	1.246516
H209	H	-0.385406	0.000040	-0.249544
H210	H	-0.135406	0.250040	0.000456
H211	H	0.114594	0.500040	0.250456
H212	H	0.364594	0.750040	0.500456
H213	H	-0.578794	0.000024	0.022530
H214	H	-0.328794	0.250024	0.272530
H215	H	-0.078794	0.500024	0.522530
H216	H	0.171206	0.750024	0.772530
F217	F	-1.098834	0.404888	0.003182
F218	F	-0.848834	0.654888	0.253182
F219	F	-0.598834	0.904888	0.503182
F220	F	-0.348834	1.154888	0.753182
H221	H	-1.084697	0.583653	-0.010948
H222	H	-0.834697	0.833653	0.239052
H223	H	-0.584697	1.083653	0.489052
H224	H	-0.334697	1.333653	0.739052
