data_functionalizedCrystal
_audit_creation_method	'MofGen! by Chris Wilmer'
_symmetry_space_group_name_H-M	'P1'
_symmetry_Int_Tables_number	1
_symmetry_cell_setting	triclinic
loop_
_symmetry_equiv_pos_as_xyz
  x,y,z
_cell_length_a	16.109302
_cell_length_b	14.853576
_cell_length_c	15.186229
_cell_angle_alpha	89.997313
_cell_angle_beta	89.994701
_cell_angle_gamma	83.550132
loop_
_atom_site_label
_atom_site_type_symbol
_atom_site_fract_x
_atom_site_fract_y
_atom_site_fract_z
O1	O	1.103296	0.115883	-0.073266
O2	O	0.861255	0.130304	-0.073259
O3	O	0.988737	-0.008146	-0.073259
O4	O	0.975814	0.254333	-0.073266
O5	O	0.988729	-0.008148	0.073198
O6	O	0.861247	0.130302	0.073198
O7	O	1.103288	0.115881	0.073191
Zn8	Zn	0.982266	0.123091	0.096448
Zn9	Zn	0.982277	0.123094	-0.096516
O10	O	0.975806	0.254331	0.073192
C11	C	0.830275	0.129719	-0.000029
C12	C	0.737977	0.127967	-0.000027
C13	C	0.988146	-0.041735	-0.000032
C14	C	0.986388	-0.141815	-0.000034
C15	C	0.525626	0.123916	0.079799
C16	C	0.438904	0.122260	0.079796
C17	C	0.438923	0.122267	-0.079880
C18	C	0.525645	0.123916	-0.079876
C19	C	0.568994	0.124745	-0.000034
C20	C	0.395549	0.121440	-0.000041
C21	C	0.301521	0.119645	-0.000045
C22	C	0.663028	0.126538	-0.000030
C23	C	0.985565	-0.188828	-0.079872
C24	C	0.985565	-0.188843	0.079801
C25	C	0.983917	-0.282875	0.079801
C26	C	0.983094	-0.329887	-0.000037
C27	C	0.983919	-0.282868	-0.079875
C28	C	0.983101	-0.329902	0.159638
C29	C	0.981454	-0.423939	0.159641
C30	C	0.980625	-0.470953	0.079802
C31	C	0.981449	-0.423928	-0.000039
C32	C	0.980626	-0.470940	-0.079877
C33	C	0.981444	-0.423916	-0.159719
C34	C	0.983090	-0.329882	-0.159713
C35	C	0.978978	-0.564987	0.079797
C36	C	0.978980	-0.564981	-0.079879
C37	C	1.134268	0.116467	-0.000040
C38	C	1.226566	0.118218	-0.000049
C39	C	0.976397	0.287920	-0.000038
C40	C	0.978155	0.388000	-0.000041
N41	N	0.982264	0.123089	0.228141
N42	N	0.982285	0.123089	-0.228208
C43	C	1.038733	0.061804	0.453863
C44	C	1.038735	0.061802	0.546053
C45	C	0.925811	0.184377	0.546062
C46	C	0.925805	0.184374	0.453874
C47	C	0.982271	0.123089	0.407777
C48	C	0.982279	0.123089	0.592155
C49	C	0.982281	0.123088	0.692111
C50	C	0.982267	0.123089	0.307815
H51	H	0.560918	0.124591	0.144811
H52	H	0.879839	0.234276	0.583604
C53	C	0.573353	0.124823	-0.167703
N54	N	0.609287	0.125502	-0.233852
C55	C	0.986471	-0.137102	-0.167695
N56	N	0.987156	-0.098142	-0.233843
C57	C	0.391202	0.121358	0.167618
N58	N	0.355273	0.120682	0.233770
H59	H	1.084709	0.011900	0.416333
H60	H	0.403618	0.121593	-0.144885
C61	C	0.978091	-0.616689	-0.167709
N62	N	0.977429	-0.655636	-0.233863
H63	H	0.980779	-0.462207	-0.224723
H64	H	0.983760	-0.291587	-0.224716
C65	C	0.986467	-0.137126	0.167618
N66	N	0.987141	-0.098168	0.233765
H67	H	1.084711	0.011897	0.583574
H68	H	0.978315	-0.603270	0.144803
H69	H	0.983777	-0.291618	0.224637
C70	C	0.863727	0.251836	0.403177
N71	N	0.816984	0.302660	0.364991
H72	H	0.980787	-0.462218	0.224654
