data_functionalizedCrystal
_audit_creation_method	'MofGen! by Chris Wilmer'
_symmetry_space_group_name_H-M	'P1'
_symmetry_Int_Tables_number	1
_symmetry_cell_setting	triclinic
loop_
_symmetry_equiv_pos_as_xyz
  x,y,z
_cell_length_a	12.759395
_cell_length_b	16.625545
_cell_length_c	12.759387
_cell_angle_alpha	90.033270
_cell_angle_beta	90.019431
_cell_angle_gamma	90.025403
loop_
_atom_site_label
_atom_site_type_symbol
_atom_site_fract_x
_atom_site_fract_y
_atom_site_fract_z
Zn1	Zn	1.606189	-0.320962	0.593957
Zn2	Zn	1.606047	-0.455818	0.418270
Zn3	Zn	1.430488	-0.321002	0.418297
Zn4	Zn	1.430447	-0.455756	0.593912
O5	O	1.518293	-0.388385	0.506109
O6	O	1.753192	-0.338860	0.570659
O7	O	1.582716	-0.437977	0.271252
O8	O	1.453872	-0.208165	0.441629
O9	O	1.753087	-0.437938	0.441582
O10	O	1.582959	-0.208135	0.570685
O11	O	1.453733	-0.338928	0.271272
O12	O	1.283461	-0.338869	0.441585
O13	O	1.453802	-0.437833	0.740939
O14	O	1.283431	-0.437872	0.570609
O15	O	1.582919	-0.338801	0.740972
O16	O	1.582676	-0.568642	0.441539
O17	O	1.453664	-0.568597	0.570583
C18	C	1.245325	-0.388369	0.506096
C19	C	1.128548	-0.388381	0.506115
C20	C	1.128638	-0.285379	0.640740
C21	C	1.073822	-0.233887	0.708061
C22	C	0.964101	-0.233901	0.708074
C23	C	0.909192	-0.285411	0.640757
C24	C	0.964008	-0.336903	0.573436
C25	C	1.073732	-0.336884	0.573432
C26	C	0.963919	-0.439900	0.438808
C27	C	1.073640	-0.439891	0.438798
C28	C	0.909010	-0.491410	0.371490
C29	C	0.963826	-0.542907	0.304173
C30	C	1.073554	-0.542891	0.304164
C31	C	1.128456	-0.491383	0.371477
C32	C	1.518178	-0.597876	0.506076
C33	C	1.518226	-0.687497	0.506097
C34	C	1.518267	-0.760279	0.506118
C35	C	1.518328	-0.851588	0.506141
C36	C	1.518382	-0.924364	0.506154
C37	C	1.518442	-1.015678	0.506176
C38	C	1.792326	-0.388401	0.506122
C39	C	1.909103	-0.388409	0.506128
C40	C	1.518372	-0.388306	0.780142
C41	C	1.518406	-0.388272	0.896919
C42	C	1.518436	-0.178076	0.506165
C43	C	1.518497	-0.088455	0.506189
C44	C	1.518274	-0.388405	0.233141
C45	C	1.518444	-0.388212	0.116365
C46	C	1.652865	-0.285156	0.896973
C47	C	1.720109	-0.233586	0.951861
C48	C	1.720135	-0.233557	1.061583
C49	C	1.652907	-0.285101	1.116419
C50	C	1.585662	-0.336671	1.061531
C51	C	1.585646	-0.336697	0.951807
C52	C	1.451200	-0.439782	1.061477
C53	C	1.451178	-0.439817	0.951756
C54	C	1.383971	-0.491326	1.116314
C55	C	1.316731	-0.542902	1.061426
C56	C	1.316709	-0.542929	0.951698
C57	C	1.383933	-0.491386	0.896868
H58	H	1.118541	-0.191947	0.762867
H59	H	1.261994	-0.584860	1.106082
H60	H	0.919470	-0.191968	0.762886
C61	C	1.779864	-0.187733	1.229808
C62	C	1.794046	-0.176870	1.121923
H63	H	1.825489	-0.152732	1.267058
H64	H	1.795203	-0.241900	1.247764
H65	H	1.709282	-0.175919	1.247770
H66	H	1.864627	-0.188689	1.103960
H67	H	1.778714	-0.122691	1.103960
H68	H	1.774843	-0.191619	0.907201
H69	H	1.261939	-0.584915	0.907014
H70	H	1.383927	-0.491408	0.807527
C71	C	1.285864	-0.229285	0.714034
C72	C	1.249246	-0.285366	0.640734
H73	H	1.360323	-0.229276	0.714026
H74	H	1.261065	-0.243303	0.781789
H75	H	1.261051	-0.177240	0.695987
H76	H	1.274053	-0.337413	0.658785
H77	H	1.274056	-0.271353	0.572965
C78	C	0.752067	-0.229347	0.714065
C79	C	0.788585	-0.285423	0.640765
H80	H	0.677608	-0.229360	0.714071
H81	H	0.776899	-0.177303	0.696014
H82	H	0.776915	-0.243358	0.781825
H83	H	0.763743	-0.271408	0.573003
H84	H	0.763742	-0.337479	0.658810
H85	H	1.118179	-0.584819	0.249339
H86	H	0.919111	-0.584838	0.249365
C87	C	1.310789	-0.547426	1.273458
C88	C	1.383995	-0.491297	1.236922
H89	H	1.310802	-0.547405	1.347917
H90	H	1.328912	-0.599458	1.248621
H91	H	1.243001	-0.533470	1.248627
H92	H	1.451785	-0.505256	1.261746
H93	H	1.365879	-0.439252	1.261769
H94	H	1.217797	-0.491361	0.371471
C95	C	0.751874	-0.512091	0.471400
C96	C	0.788403	-0.491429	0.371503
H97	H	0.677415	-0.512110	0.471404
H98	H	0.776724	-0.474046	0.521111
H99	H	0.776697	-0.564139	0.489425
H100	H	0.763586	-0.439379	0.353482
H101	H	0.763542	-0.529476	0.321777
H102	H	1.652861	-0.285183	0.807632
H103	H	1.652924	-0.285066	1.205760
