data_functionalizedCrystal
_audit_creation_method	'MofGen! by Chris Wilmer'
_symmetry_space_group_name_H-M	'P1'
_symmetry_Int_Tables_number	1
_symmetry_cell_setting	triclinic
loop_
_symmetry_equiv_pos_as_xyz
  x,y,z
_cell_length_a	15.995292
_cell_length_b	15.995350
_cell_length_c	9.130307
_cell_angle_alpha	89.998938
_cell_angle_beta	89.997308
_cell_angle_gamma	83.480495
loop_
_atom_site_label
_atom_site_type_symbol
_atom_site_fract_x
_atom_site_fract_y
_atom_site_fract_z
O1	O	1.111012	0.107693	-0.121832
O2	O	0.867230	0.121072	-0.121825
O3	O	0.995785	-0.007506	-0.121827
O4	O	0.982458	0.236272	-0.121830
O5	O	0.995781	-0.007508	0.121772
O6	O	0.867226	0.121071	0.121774
O7	O	1.111008	0.107692	0.121767
Cu8	Cu	0.989117	0.114381	0.144013
Cu9	Cu	0.989122	0.114383	-0.144071
O10	O	0.982453	0.236270	0.121769
C11	C	0.836033	0.120527	-0.000025
C12	C	0.743080	0.118894	-0.000022
C13	C	0.405341	0.112893	-0.000039
C14	C	0.428654	0.205697	-0.000584
C15	C	0.525329	0.207461	-0.000028
C16	C	0.572897	0.115871	-0.000032
C17	C	0.543793	0.069472	0.139071
C18	C	0.447003	0.068355	0.139181
C19	C	0.447152	0.066461	-0.137836
C20	C	0.543644	0.069901	-0.139669
C21	C	0.667593	0.117549	-0.000023
C22	C	0.310646	0.111212	-0.000038
C23	C	0.995232	-0.038702	-0.000030
C24	C	0.993580	-0.131652	-0.000039
C25	C	0.987648	-0.469398	-0.000034
C26	C	0.896094	-0.421945	-0.000577
C27	C	0.897746	-0.325255	-0.000028
C28	C	0.990591	-0.301838	-0.000037
C29	C	1.035746	-0.342926	0.139066
C30	C	1.033446	-0.439561	0.139183
C31	C	1.035342	-0.439918	-0.137835
C32	C	1.035321	-0.342973	-0.139673
C33	C	0.992259	-0.207141	-0.000034
C34	C	0.985983	-0.564095	-0.000027
C35	C	1.142206	0.108237	-0.000036
C36	C	1.235159	0.109870	-0.000048
C37	C	0.983006	0.267466	-0.000031
C38	C	0.984658	0.360416	-0.000032
N39	N	0.989120	0.114380	0.346636
N40	N	0.989126	0.114378	-0.346694
C41	C	1.103001	0.000556	0.346624
C42	C	1.159947	-0.056353	0.423285
C43	C	1.159956	-0.056353	0.576618
C44	C	1.103010	0.000560	0.653294
C45	C	1.046064	0.057469	0.576634
C46	C	1.046063	0.057465	0.423297
C47	C	0.932180	0.171287	0.576646
C48	C	0.932174	0.171293	0.423312
C49	C	0.875234	0.228200	0.653322
C50	C	0.818290	0.285115	0.576661
C51	C	0.818285	0.285113	0.423318
C52	C	0.875227	0.228202	0.346651
H53	H	0.420184	0.100488	0.243165
C54	C	0.408990	0.105737	-0.280271
H55	H	0.367197	0.150826	-0.257027
H56	H	0.384228	0.064276	-0.334594
H57	H	0.452005	0.126364	-0.337050
C58	C	0.390843	0.254029	-0.135344
H59	H	0.405643	0.309886	-0.133629
H60	H	0.331320	0.255445	-0.133515
H61	H	0.412253	0.226578	-0.222041
H62	H	1.103957	-0.328814	0.144233
H63	H	0.862008	-0.297383	0.099858
C64	C	0.389465	0.253752	0.133429
H65	H	0.358960	0.217503	0.189713
H66	H	0.352450	0.300865	0.101450
H67	H	0.432816	0.272521	0.191822
H68	H	0.771925	0.331446	0.639100
C69	C	1.222583	-0.118953	0.338940
H70	H	1.214429	-0.110800	0.236640
H71	H	1.213501	-0.174840	0.364076
H72	H	1.278464	-0.109826	0.364058
H73	H	1.004380	-0.314538	0.242588
C74	C	0.849799	-0.286840	-0.134729
H75	H	0.850751	-0.227561	-0.134578
H76	H	0.793169	-0.299319	-0.131291
H77	H	0.875908	-0.309936	-0.221432
H78	H	0.771909	0.331453	0.360909
H79	H	1.002306	-0.315717	-0.242578
C80	C	0.875224	0.228198	0.177989
H81	H	0.917289	0.186149	0.143309
H82	H	0.886670	0.281719	0.143288
H83	H	0.821709	0.216702	0.143316
H84	H	0.544358	0.243794	-0.099746
C85	C	0.550199	0.256812	0.134937
H86	H	0.501189	0.275854	0.189645
H87	H	0.577033	0.303800	0.103955
H88	H	0.587710	0.221211	0.194505
C89	C	0.427340	-0.023562	0.147726
H90	H	0.478488	-0.060055	0.151127
H91	H	0.396001	-0.036275	0.063845
H92	H	0.395414	-0.031063	0.233510
H93	H	0.859502	-0.440468	-0.100331
C94	C	0.586846	-0.021574	0.146073
H95	H	0.623044	-0.032122	0.064031
H96	H	0.545275	-0.059521	0.144780
H97	H	0.618799	-0.029242	0.233724
C98	C	1.126788	-0.322247	-0.151031
H99	H	1.138950	-0.288088	-0.070396
H100	H	1.133882	-0.292903	-0.239816
H101	H	1.163968	-0.372971	-0.149852
H102	H	0.562216	0.103684	-0.242576
C103	C	0.570877	0.113000	0.278924
H104	H	0.599912	0.159442	0.252839
H105	H	0.606934	0.074101	0.335205
H106	H	0.522482	0.132330	0.334993
C107	C	1.222593	-0.118953	0.660948
H108	H	1.256509	-0.152846	0.593329
H109	H	1.192479	-0.153818	0.720775
H110	H	1.257446	-0.088808	0.720752
C111	C	0.588173	-0.020414	-0.151020
H112	H	0.625349	-0.031318	-0.070382
H113	H	0.619238	-0.026439	-0.239802
H114	H	0.547397	-0.059209	-0.149842
H115	H	0.875239	0.228194	0.778174
C116	C	0.428246	-0.025816	-0.139122
H117	H	0.395037	-0.036031	-0.056139
H118	H	0.479592	-0.062002	-0.136069
H119	H	0.398423	-0.036337	-0.225942
H120	H	1.103013	0.000549	0.778147
H121	H	0.859661	-0.441532	0.098622
H122	H	1.000515	-0.457856	0.243170
H123	H	1.100664	-0.471823	0.145488
H124	H	1.005411	-0.460451	-0.243267
H125	H	1.102845	-0.471693	-0.138776
H126	H	1.103007	0.000558	0.221772
