data_functionalizedCrystal
_audit_creation_method	'MofGen! by Chris Wilmer'
_symmetry_space_group_name_H-M	'P1'
_symmetry_Int_Tables_number	1
_symmetry_cell_setting	triclinic
loop_
_symmetry_equiv_pos_as_xyz
  x,y,z
_cell_length_a	15.995350
_cell_length_b	14.472310
_cell_length_c	15.995350
_cell_angle_alpha	90.001162
_cell_angle_beta	96.507625
_cell_angle_gamma	90.009379
loop_
_atom_site_label
_atom_site_type_symbol
_atom_site_fract_x
_atom_site_fract_y
_atom_site_fract_z
O1	O	-1.110997	-0.076758	0.107921
O2	O	-0.777663	0.256575	0.441254
O3	O	-0.444330	0.589909	0.774588
O4	O	-0.867221	-0.076776	0.121248
O5	O	-0.533888	0.256557	0.454582
O6	O	-0.200555	0.589890	0.787915
O7	O	-0.995773	-0.076766	-0.007303
O8	O	-0.662439	0.256567	0.326030
O9	O	-0.329106	0.589901	0.659364
O10	O	-0.982445	-0.076769	0.236472
O11	O	-0.649112	0.256565	0.569806
O12	O	-0.315778	0.589898	0.903139
O13	O	-0.995740	0.076916	-0.007296
O14	O	-0.662406	0.410249	0.326038
O15	O	-0.329073	0.743583	0.659371
O16	O	-0.867188	0.076906	0.121256
O17	O	-0.533855	0.410239	0.454589
O18	O	-0.200522	0.743572	0.787923
O19	O	-1.110963	0.076924	0.107928
O20	O	-0.777630	0.410257	0.441262
O21	O	-0.444297	0.743591	0.774595
Cu22	Cu	-0.989073	0.090947	0.114593
Cu23	Cu	-0.655739	0.424280	0.447926
Cu24	Cu	-0.322406	0.757614	0.781259
Cu25	Cu	-0.989112	-0.090800	0.114584
Cu26	Cu	-0.655779	0.242534	0.447917
Cu27	Cu	-0.322445	0.575867	0.781251
O28	O	-0.982412	0.076913	0.236480
O29	O	-0.649079	0.410247	0.569813
O30	O	-0.315745	0.743580	0.903146
C31	C	-0.836010	0.000062	0.120701
C32	C	-0.502677	0.333395	0.454034
C33	C	-0.169343	0.666729	0.787368
C34	C	-0.743060	0.000055	0.119049
C35	C	-0.409726	0.333388	0.452383
C36	C	-0.076393	0.666722	0.785716
C37	C	-0.995205	0.000073	-0.038494
C38	C	-0.661872	0.333407	0.294839
C39	C	-0.328538	0.666740	0.628173
C40	C	-0.993553	0.000068	-0.131444
C41	C	-0.660220	0.333401	0.201889
C42	C	-0.326887	0.666735	0.535222
C43	C	-1.142175	0.000083	0.108476
C44	C	-0.808841	0.333417	0.441809
C45	C	-0.475508	0.666750	0.775142
C46	C	-1.235125	0.000084	0.110127
C47	C	-0.901792	0.333418	0.443461
C48	C	-0.568458	0.666751	0.776794
N49	N	-0.989051	0.218778	0.114598
N50	N	-0.655718	0.552111	0.447932
N51	N	-0.322385	0.885445	0.781265
C52	C	-0.405312	0.000074	0.113117
C53	C	-0.071979	0.333408	0.446450
C54	C	0.261355	0.666741	0.779784
C55	C	-0.452746	0.000418	0.021565
C56	C	-0.119413	0.333751	0.354899
C57	C	0.213921	0.667085	0.688232
C58	C	-0.549436	0.000065	0.023217
C59	C	-0.216103	0.333399	0.356551
C60	C	0.117230	0.666732	0.689884
C61	C	-0.572873	0.000065	0.116060
C62	C	-0.239539	0.333399	0.449393
C63	C	0.093794	0.666732	0.782726
C64	C	-0.531804	-0.087692	0.161212
C65	C	-0.198471	0.245642	0.494545
C66	C	0.134862	0.578975	0.827879
C67	C	-0.435169	-0.087759	0.158912
C68	C	-0.101835	0.245575	0.492245
C69	C	0.231498	0.578908	0.825579
C70	C	-0.434792	0.087007	0.160812
C71	C	-0.101459	0.420340	0.494145
C72	C	0.231875	0.753673	0.827479
C73	C	-0.531737	0.088160	0.160790
C74	C	-0.198404	0.421493	0.494124
C75	C	0.134929	0.754827	0.827457
C76	C	-0.667570	0.000057	0.117727
C77	C	-0.334237	0.333390	0.451061
C78	C	-0.000903	0.666724	0.784394
C79	C	-0.310614	0.000076	0.111452
C80	C	0.022719	0.333410	0.444785
C81	C	0.356052	0.666743	0.778119
N82	N	-0.989140	-0.218631	0.114572
N83	N	-0.655807	0.114703	0.447905
N84	N	-0.322473	0.448036	0.781238
C85	C	-0.989111	0.592869	0.114581
C86	C	-0.655777	0.926203	0.447914
C87	C	-0.322444	1.259536	0.781247
C88	C	-0.920095	0.553698	0.183135
C89	C	-0.586761	0.887031	0.516468
C90	C	-0.253428	1.220364	0.849802
C91	C	-0.920254	0.446610	0.183385
C92	C	-0.586921	0.779943	0.516719
C93	C	-0.253587	1.113276	0.850052
C94	C	-0.989081	0.407278	0.114590
C95	C	-0.655747	0.740612	0.447923
C96	C	-0.322414	1.073945	0.781256
C97	C	-1.076445	0.446122	0.133671
C98	C	-0.743112	0.779455	0.467005
C99	C	-0.409778	1.112788	0.800338
C100	C	-1.076057	0.553243	0.134159
C101	C	-0.742724	0.886577	0.467492
C102	C	-0.409391	1.219910	0.800825
C103	C	-0.971542	0.553398	0.026741
C104	C	-0.638208	0.886731	0.360074
C105	C	-0.304875	1.220065	0.693408
C106	C	-0.969538	0.446270	0.027327
C107	C	-0.636205	0.779604	0.360660
C108	C	-0.302871	1.112937	0.693993
C109	C	-0.989069	0.302390	0.114593
C110	C	-0.655736	0.635723	0.447926
C111	C	-0.322402	0.969057	0.781259
C112	C	-0.989128	0.697757	0.114579
C113	C	-0.655795	1.031091	0.447912
C114	C	-0.322461	1.364424	0.781246
C115	C	-0.987621	0.000071	-0.469192
C116	C	-0.654288	0.333404	-0.135859
C117	C	-0.320954	0.666737	0.197475
C118	C	-0.896069	-0.000281	-0.421758
C119	C	-0.562736	0.333052	-0.088425
C120	C	-0.229403	0.666386	0.244909
C121	C	-0.897721	0.000066	-0.325068
C122	C	-0.564388	0.333399	0.008266
C123	C	-0.231055	0.666732	0.341599
C124	C	-0.990564	0.000069	-0.301631
C125	C	-0.657230	0.333402	0.031702
C126	C	-0.323897	0.666735	0.365035
C127	C	-1.035701	0.087831	-0.342705
C128	C	-0.702368	0.421164	-0.009371
C129	C	-0.369035	0.754497	0.323962
C130	C	-1.033401	0.087904	-0.439340
C131	C	-0.700068	0.421237	-0.106007
C132	C	-0.366735	0.754571	0.227326
C133	C	-1.035330	-0.086861	-0.439707
C134	C	-0.701997	0.246472	-0.106374
C135	C	-0.368664	0.579805	0.226960
C136	C	-1.035309	-0.088021	-0.342762
C137	C	-0.701976	0.245312	-0.009428
C138	C	-0.368642	0.578646	0.323905
C139	C	-0.992231	0.000071	-0.206934
C140	C	-0.658898	0.333404	0.126399
C141	C	-0.325565	0.666737	0.459733
C142	C	-0.985956	0.000075	-0.563890
C143	C	-0.652623	0.333408	-0.230556
C144	C	-0.319289	0.666741	0.102777
C145	C	-0.982980	0.000072	0.267671
C146	C	-0.649646	0.333405	0.601004
C147	C	-0.316313	0.666739	0.934337
C148	C	-0.984631	0.000071	0.360621
C149	C	-0.651298	0.333405	0.693954
C150	C	-0.317965	0.666738	1.027288
H151	H	-0.577852	0.062973	-0.012275
H152	H	-0.244518	0.396307	0.321058
H153	H	0.088815	0.729640	0.654392
H154	H	-1.102831	-0.087449	-0.471468
H155	H	-0.769498	0.245885	-0.138134
H156	H	-0.436165	0.579218	0.195199
H157	H	-0.545930	-0.090955	0.229421
H158	H	-0.212597	0.242378	0.562754
H159	H	0.120737	0.575712	0.896087
H160	H	-0.854945	0.579481	0.171953
H161	H	-0.521611	0.912814	0.505287
H162	H	-0.188278	1.246147	0.838620
H163	H	-0.416874	-0.153359	0.125979
H164	H	-0.083541	0.179974	0.459312
H165	H	0.249792	0.513308	0.792645
H166	H	-1.000459	0.153505	-0.457639
H167	H	-0.667126	0.486838	-0.124305
H168	H	-0.333792	0.820171	0.209028
H169	H	-0.560193	-0.153002	0.129845
H170	H	-0.226859	0.180331	0.463178
H171	H	0.106474	0.513665	0.796512
H172	H	-1.129029	0.420643	0.085068
H173	H	-0.795696	0.753976	0.418401
H174	H	-0.462363	1.087309	0.751734
H175	H	-0.855314	0.420349	0.172016
H176	H	-0.521981	0.753682	0.505350
H177	H	-0.188648	1.087015	0.838683
H178	H	-0.434210	0.063352	-0.015027
H179	H	-0.100877	0.396685	0.318306
H180	H	0.232456	0.730019	0.651639
H181	H	-1.129018	0.579154	0.086196
H182	H	-0.795685	0.912487	0.419529
H183	H	-0.462352	1.245820	0.752862
H184	H	-1.092297	0.419285	0.197002
H185	H	-0.758964	0.752619	0.530335
H186	H	-0.425631	1.085952	0.863668
H187	H	-0.862239	-0.062846	-0.296649
H188	H	-0.528905	0.270488	0.036685
H189	H	-0.195572	0.603821	0.370018
H190	H	-0.433166	-0.062168	-0.014865
H191	H	-0.099832	0.271165	0.318468
H192	H	0.233501	0.604499	0.651802
H193	H	-0.909219	0.580461	0.008392
H194	H	-0.575885	0.913794	0.341726
H195	H	-0.242552	1.247128	0.675059
H196	H	-0.414242	0.153524	0.130885
H197	H	-0.080909	0.486858	0.464218
H198	H	0.252424	0.820191	0.797551
H199	H	-0.403031	0.087600	0.228313
H200	H	-0.069697	0.420933	0.561646
H201	H	0.263636	0.754267	0.894979
H202	H	-0.931159	0.580608	0.247952
H203	H	-0.597826	0.913941	0.581286
H204	H	-0.264492	1.247274	0.914619
H205	H	-0.402921	-0.091741	0.226128
H206	H	-0.069588	0.241592	0.559461
H207	H	0.263746	0.574925	0.892794
H208	H	-1.004324	0.153137	-0.314320
H209	H	-0.670990	0.486471	0.019013
H210	H	-0.337657	0.819804	0.352347
H211	H	-1.091540	0.578220	0.198219
H212	H	-0.758206	0.911553	0.531553
H213	H	-0.424873	1.244886	0.864886
H214	H	-1.002307	-0.152945	-0.315516
H215	H	-0.668974	0.180389	0.017817
H216	H	-0.335641	0.513722	0.351151
H217	H	-0.559040	0.153082	0.127830
H218	H	-0.225707	0.486415	0.461163
H219	H	0.107627	0.819749	0.794496
H220	H	-1.005412	-0.153379	-0.460250
H221	H	-0.672079	0.179954	-0.126917
H222	H	-0.338745	0.513288	0.206417
H223	H	-0.931473	0.420976	0.248569
H224	H	-0.598140	0.754309	0.581903
H225	H	-0.264807	1.087642	0.915236
H226	H	-0.577308	-0.062951	-0.012521
H227	H	-0.243974	0.270382	0.320812
H228	H	0.089359	0.603715	0.654146
H229	H	-0.905272	0.420883	0.012845
H230	H	-0.571938	0.754216	0.346179
H231	H	-0.238605	1.087550	0.679512
H232	H	-0.859626	0.062299	-0.441349
H233	H	-0.526292	0.395632	-0.108016
H234	H	-0.192959	0.728966	0.225318
H235	H	-0.861973	0.063079	-0.297200
H236	H	-0.528640	0.396412	0.036133
H237	H	-0.195306	0.729745	0.369467
H238	H	-1.103014	-0.093317	-0.327400
H239	H	-0.769681	0.240016	0.005933
H240	H	-0.436348	0.573349	0.339267
H241	H	-1.100617	0.091888	-0.471588
H242	H	-0.767283	0.425221	-0.138255
H243	H	-0.433950	0.758555	0.195078
H244	H	-1.021872	0.578728	-0.024275
H245	H	-0.688538	0.912062	0.309058
H246	H	-0.355205	1.245395	0.642392
H247	H	-0.547101	0.093461	0.228494
H248	H	-0.213768	0.426794	0.561827
H249	H	0.119565	0.760127	0.895161
H250	H	-0.859490	-0.063217	-0.440293
H251	H	-0.526157	0.270117	-0.106959
H252	H	-0.192824	0.603450	0.226374
H253	H	-1.103909	0.091097	-0.328579
H254	H	-0.770576	0.424430	0.004755
H255	H	-0.437243	0.757763	0.338088
H256	H	-1.016541	0.419500	-0.026079
H257	H	-0.683208	0.752834	0.307255
H258	H	-0.349874	1.086167	0.640588
