data_functionalizedCrystal
_audit_creation_method	'MofGen! by Chris Wilmer'
_symmetry_space_group_name_H-M	'P1'
_symmetry_Int_Tables_number	1
_symmetry_cell_setting	triclinic
loop_
_symmetry_equiv_pos_as_xyz
  x,y,z
_cell_length_a	16.109317
_cell_length_b	13.596369
_cell_length_c	14.519709
_cell_angle_alpha	90.006934
_cell_angle_beta	96.425820
_cell_angle_gamma	89.999264
loop_
_atom_site_label
_atom_site_type_symbol
_atom_site_fract_x
_atom_site_fract_y
_atom_site_fract_z
O1	O	-1.103329	0.081689	0.118615
O2	O	-0.769996	0.415022	0.451948
O3	O	-0.436663	0.748355	0.785282
O4	O	-0.861295	0.081714	0.133351
O5	O	-0.527962	0.415047	0.466685
O6	O	-0.194628	0.748381	0.800018
O7	O	-0.988729	0.081692	-0.008269
O8	O	-0.655396	0.415025	0.325065
O9	O	-0.322063	0.748358	0.658398
O10	O	-0.975895	0.081711	0.260235
O11	O	-0.642562	0.415044	0.593568
O12	O	-0.309228	0.748377	0.926901
O13	O	-0.988717	-0.081891	-0.008276
O14	O	-0.655383	0.251442	0.325057
O15	O	-0.322050	0.584775	0.658391
O16	O	-0.861282	-0.081869	0.133344
O17	O	-0.527949	0.251464	0.466677
O18	O	-0.194616	0.584798	0.800010
O19	O	-1.103317	-0.081894	0.118607
O20	O	-0.769983	0.251439	0.451941
O21	O	-0.436650	0.584772	0.785274
Zn22	Zn	-0.982297	-0.107854	0.125974
Zn23	Zn	-0.648964	0.225479	0.459308
Zn24	Zn	-0.315631	0.558813	0.792641
Zn25	Zn	-0.982314	0.107674	0.125984
Zn26	Zn	-0.648981	0.441007	0.459318
Zn27	Zn	-0.315648	0.774340	0.792651
O28	O	-0.975882	-0.081872	0.260227
O29	O	-0.642549	0.251461	0.593561
O30	O	-0.309216	0.584795	0.926894
C31	C	-0.830313	-0.000074	0.132748
C32	C	-0.496980	0.333259	0.466081
C33	C	-0.163646	0.666592	0.799415
C34	C	-0.738015	-0.000065	0.130950
C35	C	-0.404682	0.333268	0.464284
C36	C	-0.071349	0.666602	0.797617
N37	N	-0.982292	-0.254946	0.125967
N38	N	-0.648959	0.078388	0.459300
N39	N	-0.315625	0.411721	0.792634
C40	C	-0.438938	0.089092	0.125149
C41	C	-0.105605	0.422426	0.458482
C42	C	0.227728	0.755759	0.791815
C43	C	-0.525662	0.089097	0.126831
C44	C	-0.192329	0.422430	0.460165
C45	C	0.141004	0.755763	0.793498
C46	C	-0.525667	-0.089250	0.126811
C47	C	-0.192334	0.244083	0.460144
C48	C	0.140999	0.577416	0.793477
C49	C	-0.438945	-0.089254	0.125121
C50	C	-0.105612	0.244080	0.458455
C51	C	0.227721	0.577413	0.791788
C52	C	-0.395583	-0.000079	0.124295
C53	C	-0.062249	0.333254	0.457628
C54	C	0.271084	0.666587	0.790962
C55	C	-0.569029	-0.000072	0.127667
C56	C	-0.235695	0.333262	0.461001
C57	C	0.097638	0.666595	0.794334
C58	C	-0.663059	-0.000068	0.129492
C59	C	-0.329726	0.333266	0.462825
C60	C	0.003608	0.666599	0.796159
C61	C	-0.301547	-0.000083	0.122468
C62	C	0.031787	0.333250	0.455802
C63	C	0.365120	0.666584	0.789135
C64	C	-0.982313	-0.656237	0.125985
C65	C	-0.648980	-0.322903	0.459319
C66	C	-0.315646	0.010430	0.792652
C67	C	-0.982305	-0.544585	0.125983
C68	C	-0.648971	-0.211252	0.459317
C69	C	-0.315638	0.122081	0.792650
C70	C	-0.982303	-0.455595	0.125977
C71	C	-0.648970	-0.122261	0.459310
C72	C	-0.315636	0.211072	0.792644
C73	C	-0.982294	-0.343936	0.125974
C74	C	-0.648961	-0.010603	0.459307
C75	C	-0.315627	0.322730	0.792640
C76	C	-0.134299	-0.000099	0.119212
C77	C	0.199035	0.333235	0.452545
C78	C	0.532368	0.666568	0.785878
C79	C	-0.226596	-0.000086	0.121012
C80	C	0.106737	0.333247	0.454345
C81	C	0.440071	0.666581	0.787678
C82	C	-0.988125	-0.000100	-0.042631
C83	C	-0.654792	0.333233	0.290702
C84	C	-0.321458	0.666567	0.624036
C85	C	-0.986333	-0.000100	-0.145008
C86	C	-0.652999	0.333233	0.188325
C87	C	-0.319666	0.666566	0.521658
N88	N	-0.982326	0.254765	0.125984
N89	N	-0.648993	0.588099	0.459318
N90	N	-0.315659	0.921432	0.792651
C91	C	-0.979734	-0.000074	-0.519891
C92	C	-0.646401	0.333259	-0.186557
C93	C	-0.313067	0.666593	0.146776
C94	C	-0.981566	-0.000082	-0.415586
C95	C	-0.648233	0.333252	-0.082253
C96	C	-0.314900	0.666585	0.251080
C97	C	-0.983033	-0.000088	-0.332453
C98	C	-0.649700	0.333245	0.000880
C99	C	-0.316366	0.666579	0.334214
C100	C	-0.984866	-0.000094	-0.228142
C101	C	-0.651533	0.333240	0.105191
C102	C	-0.318199	0.666573	0.438525
C103	C	-0.976487	-0.000078	0.294590
C104	C	-0.643153	0.333255	0.627923
C105	C	-0.309820	0.666588	0.961256
C106	C	-0.978279	-0.000072	0.396967
C107	C	-0.644946	0.333262	0.730300
C108	C	-0.311613	0.666595	1.063634
H109	H	-0.403635	0.161704	0.124475
H110	H	-0.070302	0.495037	0.457808
H111	H	0.263032	0.828371	0.791141
H112	H	-0.560959	0.161709	0.127525
H113	H	-0.227626	0.495043	0.460859
H114	H	0.105708	0.828376	0.794192
H115	H	-0.560984	-0.161853	0.127485
H116	H	-0.227650	0.171481	0.460819
H117	H	0.105683	0.504814	0.794152
H118	H	-0.403644	-0.161872	0.124425
H119	H	-0.070311	0.171461	0.457758
H120	H	0.263022	0.504794	0.791092
