data_functionalizedCrystal
_audit_creation_method	'MofGen! by Chris Wilmer'
_symmetry_space_group_name_H-M	'P1'
_symmetry_Int_Tables_number	1
_symmetry_cell_setting	triclinic
loop_
_symmetry_equiv_pos_as_xyz
  x,y,z
_cell_length_a	12.827893
_cell_length_b	16.625545
_cell_length_c	12.827885
_cell_angle_alpha	89.967039
_cell_angle_beta	90.019272
_cell_angle_gamma	89.975993
loop_
_atom_site_label
_atom_site_type_symbol
_atom_site_fract_x
_atom_site_fract_y
_atom_site_fract_z
Zn1	Zn	1.597607	0.320963	0.590826
Zn2	Zn	1.930940	0.654297	0.924159
Zn3	Zn	2.264273	0.987630	1.257492
Zn4	Zn	1.597475	0.455817	0.416076
Zn5	Zn	1.930808	0.789151	0.749410
Zn6	Zn	2.264141	1.122484	1.082743
Zn7	Zn	1.422848	0.321002	0.416099
Zn8	Zn	1.756182	0.654336	0.749433
Zn9	Zn	2.089515	0.987669	1.082766
Zn10	Zn	1.422807	0.455757	0.590776
Zn11	Zn	1.756140	0.789091	0.924110
Zn12	Zn	2.089474	1.122424	1.257443
O13	O	1.510184	0.388385	0.503444
O14	O	1.843518	0.721718	0.836778
O15	O	2.176851	1.055052	1.170111
O16	O	1.743825	0.338861	0.567656
O17	O	2.077159	0.672194	0.900989
O18	O	2.410492	1.005527	1.234322
O19	O	1.574272	0.437976	0.269843
O20	O	1.907605	0.771309	0.603176
O21	O	2.240939	1.104642	0.936510
O22	O	1.446103	0.208165	0.439307
O23	O	1.779436	0.541498	0.772641
O24	O	2.112770	0.874832	1.105974
O25	O	1.743728	0.437937	0.439268
O26	O	2.077061	0.771271	0.772601
O27	O	2.410395	1.104604	1.105935
O28	O	1.574497	0.208136	0.567678
O29	O	1.907831	0.541469	0.901011
O30	O	2.241164	0.874803	1.234345
O31	O	1.445975	0.338928	0.269860
O32	O	1.779308	0.672261	0.603193
O33	O	2.112641	1.005594	0.936527
O34	O	1.276607	0.338869	0.439259
O35	O	1.609940	0.672203	0.772593
O36	O	1.943273	1.005536	1.105926
O37	O	1.446033	0.437835	0.737019
O38	O	1.779366	0.771169	1.070352
O39	O	2.112700	1.104502	1.403686
O40	O	1.276577	0.437873	0.567594
O41	O	1.609910	0.771207	0.900927
O42	O	1.943243	1.104540	1.234261
O43	O	1.574457	0.338802	0.737055
O44	O	1.907791	0.672136	1.070389
O45	O	2.241124	1.005469	1.403722
O46	O	1.574232	0.568642	0.439220
O47	O	1.907565	0.901975	0.772554
O48	O	2.240899	1.235309	1.105887
O49	O	1.445905	0.568598	0.567572
O50	O	1.779238	0.901931	0.900905
O51	O	2.112571	1.235265	1.234238
C52	C	1.238674	0.388370	0.503424
C53	C	1.572008	0.721703	0.836758
C54	C	1.905341	1.055036	1.170091
C55	C	1.122521	0.388382	0.503441
C56	C	1.455854	0.721716	0.836774
C57	C	1.789188	1.055049	1.170107
C58	C	1.510078	0.597876	0.503411
C59	C	1.843411	0.931209	0.836744
C60	C	2.176745	1.264543	1.170077
C61	C	1.510128	0.687497	0.503431
C62	C	1.843461	1.020830	0.836765
C63	C	2.176795	1.354164	1.170098
C64	C	1.070749	0.437449	0.566847
C65	C	1.404082	0.770783	0.900180
C66	C	1.737416	1.104116	1.233513
C67	C	0.950699	0.437464	0.566865
C68	C	1.284032	0.770797	0.900198
C69	C	1.617365	1.104130	1.233532
C70	C	1.510299	1.015673	0.503556
C71	C	1.843632	1.349006	0.836890
C72	C	2.176965	1.682339	1.170223
C73	C	1.510248	0.924364	0.503524
C74	C	1.843581	1.257698	0.836858
C75	C	2.176914	1.591031	1.170191
C76	C	1.510212	0.851588	0.503493
C77	C	1.843546	1.184921	0.836827
C78	C	2.176879	1.518254	1.170160
C79	C	1.510163	0.760274	0.503463
C80	C	1.843497	1.093607	0.836796
C81	C	2.176830	1.426940	1.170129
C82	C	1.782754	0.388401	0.503465
C83	C	2.116088	0.721735	0.836798
C84	C	2.449421	1.055068	1.170132
C85	C	1.898907	0.388408	0.503474
C86	C	2.232241	0.721742	0.836807
C87	C	2.565574	1.055075	1.170140
C88	C	1.510310	1.178076	0.503513
C89	C	1.843644	1.511410	0.836846
C90	C	2.176977	1.844743	1.170180
C91	C	1.510342	1.088455	0.503574
C92	C	1.843675	1.421788	0.836907
C93	C	2.177008	1.755122	1.170240
C94	C	1.510255	0.388308	0.776015
C95	C	1.843589	0.721641	1.109348
C96	C	2.176922	1.054974	1.442681
C97	C	1.510286	0.388275	0.892168
C98	C	1.843619	0.721608	1.225501
C99	C	2.176952	1.054941	1.558835
C100	C	1.510173	0.388404	0.231934
C101	C	1.843507	0.721737	0.565268
C102	C	2.176840	1.055071	0.898601
C103	C	1.510346	0.388210	0.115782
C104	C	1.843679	0.721543	0.449115
C105	C	2.177012	1.054877	0.782448
C106	C	1.573841	0.339261	0.943971
C107	C	1.907174	0.672594	1.277304
C108	C	2.240508	1.005927	1.610637
C109	C	1.573874	0.339225	1.064021
C110	C	1.907207	0.672559	1.397354
C111	C	2.240541	1.005892	1.730688
H112	H	1.115302	0.479444	0.621121
H113	H	1.448635	0.812777	0.954454
H114	H	1.781969	1.146110	1.287788
Br115	Br	1.419655	0.458164	1.041545
Br116	Br	1.752989	0.791498	1.374878
Br117	Br	2.086322	1.124831	1.708211
Br118	Br	1.664466	0.269335	0.869768
Br119	Br	1.997799	0.602668	1.203101
Br120	Br	2.331132	0.936001	1.536434
Br121	Br	1.664579	0.269287	1.138265
Br122	Br	1.997913	0.602620	1.471598
Br123	Br	2.331246	0.935953	1.804931
Br124	Br	0.876499	0.507491	0.657339
Br125	Br	1.209832	0.840824	0.990673
Br126	Br	1.543165	1.174158	1.324006
H127	H	1.455891	0.430206	0.936694
H128	H	1.789224	0.763539	1.270028
H129	H	2.122558	1.096873	1.603361
H130	H	1.077968	0.346382	0.449174
H131	H	1.411302	0.679715	0.782508
H132	H	1.744635	1.013049	1.115841
Br133	Br	0.973101	0.318392	0.412979
Br134	Br	1.306434	0.651726	0.746312
Br135	Br	1.639767	0.985059	1.079645
