data_functionalizedCrystal
_audit_creation_method	'MofGen! by Chris Wilmer'
_symmetry_space_group_name_H-M	'P1'
_symmetry_Int_Tables_number	1
_symmetry_cell_setting	triclinic
loop_
_symmetry_equiv_pos_as_xyz
  x,y,z
_cell_length_a	17.038272
_cell_length_b	17.038272
_cell_length_c	9.130313
_cell_angle_alpha	89.995195
_cell_angle_beta	90.002161
_cell_angle_gamma	91.111556
loop_
_atom_site_label
_atom_site_type_symbol
_atom_site_fract_x
_atom_site_fract_y
_atom_site_fract_z
O1	O	1.048753	0.170537	-0.121617
O2	O	1.548753	0.670537	0.378383
O3	O	0.820942	0.167829	-0.121660
O4	O	1.320942	0.667829	0.378340
O5	O	0.933494	0.055277	-0.121628
O6	O	1.433494	0.555277	0.378372
O7	O	0.936202	0.283088	-0.121650
O8	O	1.436202	0.783088	0.378350
O9	O	0.933485	0.055273	0.121971
O10	O	1.433485	0.555273	0.621971
O11	O	0.820933	0.167825	0.121938
O12	O	1.320933	0.667825	0.621938
O13	O	1.048745	0.170533	0.121981
O14	O	1.548745	0.670533	0.621981
Cu15	Cu	0.934838	0.169178	0.144202
Cu16	Cu	1.434838	0.669178	0.644202
Cu17	Cu	0.934848	0.169183	-0.143881
Cu18	Cu	1.434848	0.669183	0.356119
O19	O	0.936193	0.283084	0.121949
O20	O	1.436193	0.783084	0.621949
C21	C	0.931027	0.025982	0.000171
C22	C	1.431027	0.525982	0.500171
C23	C	0.923679	-0.061301	0.000169
C24	C	1.423679	0.438699	0.500169
C25	C	0.791645	0.165364	0.000134
C26	C	1.291645	0.665364	0.500134
C27	C	0.704361	0.158016	0.000117
C28	C	1.204361	0.658016	0.500117
C29	C	0.991142	-0.106911	0.000184
C30	C	1.491142	0.393089	0.500184
C31	C	0.984233	-0.188923	0.000168
C32	C	1.484233	0.311077	0.500168
C33	C	0.909860	-0.225324	0.000149
C34	C	1.409860	0.274676	0.500149
C35	C	0.842391	-0.179708	0.000131
C36	C	1.342391	0.320292	0.500131
C37	C	0.849301	-0.097698	0.000136
C38	C	1.349301	0.402302	0.500136
C39	C	0.885449	-0.472712	0.000125
C40	C	1.385449	0.027288	0.500125
C41	C	0.878545	-0.554728	0.000124
C42	C	1.378545	-0.054728	0.500124
C43	C	1.020387	-0.563937	0.000159
C44	C	1.520387	-0.063937	0.500159
C45	C	1.027291	-0.481924	0.000173
C46	C	1.527291	0.018076	0.500173
C47	C	0.959822	-0.436316	0.000147
C48	C	1.459822	0.063684	0.500147
C49	C	0.902796	-0.309153	0.000139
C50	C	1.402796	0.190847	0.500139
C51	C	0.966886	-0.352488	0.000147
C52	C	1.466886	0.147512	0.500147
C53	C	0.658752	0.225479	0.000112
C54	C	1.158752	0.725479	0.500112
C55	C	0.576740	0.218570	0.000133
C56	C	1.076740	0.718570	0.500133
C57	C	0.540339	0.144197	0.000149
C58	C	1.040339	0.644197	0.500149
C59	C	0.585954	0.076728	0.000159
C60	C	1.085954	0.576728	0.500159
C61	C	0.667965	0.083638	0.000148
C62	C	1.167965	0.583638	0.500148
C63	C	0.292951	0.119787	0.000190
C64	C	0.792951	0.619787	0.500190
C65	C	0.210935	0.112882	0.000196
C66	C	0.710935	0.612882	0.500196
C67	C	0.201726	0.254725	0.000173
C68	C	0.701726	0.754725	0.500173
C69	C	0.283739	0.261628	0.000154
C70	C	0.783739	0.761628	0.500154
C71	C	0.329347	0.194159	0.000172
C72	C	0.829347	0.694159	0.500172
C73	C	0.456510	0.137133	0.000165
C74	C	0.956510	0.637133	0.500165
C75	C	0.413174	0.201224	0.000165
C76	C	0.913174	0.701224	0.500165
C77	C	1.078042	0.172997	0.000184
C78	C	1.578042	0.672997	0.500184
C79	C	1.165326	0.180346	0.000191
C80	C	1.665326	0.680346	0.500191
C81	C	0.938660	0.312379	0.000147
C82	C	1.438660	0.812379	0.500147
C83	C	0.946008	0.399663	0.000139
C84	C	1.446008	0.899663	0.500139
N85	N	0.934837	0.169175	0.346825
N86	N	1.434837	0.669175	0.846825
N87	N	0.934856	0.169181	-0.346504
N88	N	1.434856	0.669181	0.153496
C89	C	0.984694	0.119360	0.423491
C90	C	1.484694	0.619360	0.923491
C91	C	0.984702	0.119361	0.576828
C92	C	1.484702	0.619361	1.076828
C93	C	0.884993	0.218997	0.576819
C94	C	1.384993	0.718997	1.076819
C95	C	0.884982	0.218992	0.423485
C96	C	1.384982	0.718992	0.923485
H97	H	1.039170	-0.226054	0.000183
H98	H	1.539170	0.273946	0.500183
H99	H	1.025288	0.078795	0.361079
H100	H	1.525288	0.578795	0.861079
C101	C	0.200863	0.395621	0.000144
C102	C	0.700863	0.895621	0.500144
C103	C	0.151593	0.328884	0.000162
C104	C	0.651593	0.828884	0.500162
H105	H	0.169912	0.441405	0.000131
H106	H	0.669912	0.941405	0.500131
H107	H	0.233043	0.395365	0.085084
H108	H	0.733043	0.895365	0.585084
H109	H	0.233040	0.395359	-0.084813
H110	H	0.733040	0.895359	0.415187
H111	H	0.119420	0.329142	0.085125
H112	H	0.619420	0.829142	0.585125
H113	H	0.119399	0.329141	-0.084787
H114	H	0.619399	0.829141	0.415213
H115	H	1.025299	0.078797	0.639246
H116	H	1.525299	0.578797	1.139246
C117	C	0.752107	0.255981	0.624059
C118	C	1.252107	0.755981	1.124059
C119	C	0.830197	0.273755	0.661095
C120	C	1.330197	0.773755	1.161095
H121	H	0.718280	0.289785	0.676095
H122	H	1.218280	0.789785	1.176095
H123	H	0.744969	0.263112	0.521780
H124	H	1.244969	0.763112	1.021780
H125	H	0.740112	0.202993	0.649210
H126	H	1.240112	0.702993	1.149210
H127	H	0.842195	0.326742	0.635934
H128	H	1.342195	0.826742	1.135934
H129	H	0.837339	0.266631	0.763397
H130	H	1.337339	0.766631	1.263397
C131	C	0.668835	-0.057260	0.000147
C132	C	1.168835	0.442740	0.500147
C133	C	0.718102	0.009480	0.000141
C134	C	1.218102	0.509480	0.500141
H135	H	0.699788	-0.103042	0.000136
H136	H	1.199788	0.396958	0.500136
H137	H	0.636663	-0.057007	0.085094
H138	H	1.136663	0.442993	0.585094
H139	H	0.636649	-0.056997	-0.084803
H140	H	1.136649	0.443003	0.415197
H141	H	0.750284	0.009220	0.085097
H142	H	1.250284	0.509220	0.585097
H143	H	0.750287	0.009227	-0.084815
H144	H	1.250287	0.509227	0.415185
H145	H	1.051705	-0.077279	0.000208
H146	H	1.551705	0.422721	0.500208
H147	H	1.087853	-0.452293	0.000189
H148	H	1.587853	0.047707	0.500189
H149	H	0.781835	-0.209353	0.000106
H150	H	1.281835	0.290647	0.500106
C151	C	1.072780	-0.693741	0.000153
C152	C	1.572780	-0.193741	0.500153
C153	C	1.094546	-0.614071	0.000168
C154	C	1.594546	-0.114071	0.500168
H155	H	1.118566	-0.724690	0.000144
H156	H	1.618566	-0.224690	0.500144
H157	H	1.042514	-0.705292	0.085092
H158	H	1.542514	-0.205292	0.585092
H159	H	1.042509	-0.705275	-0.084805
H160	H	1.542509	-0.205275	0.415195
H161	H	1.124812	-0.602536	0.085132
H162	H	1.624812	-0.102536	0.585132
H163	H	1.124825	-0.602516	-0.084781
H164	H	1.624825	-0.102516	0.415219
H165	H	0.330076	0.064848	0.000206
H166	H	0.830076	0.564848	0.500206
C167	C	0.847896	0.351855	0.376230
C168	C	1.347896	0.851855	0.876230
C169	C	0.830177	0.273755	0.339201
C170	C	1.330177	0.773755	0.839201
H171	H	0.814064	0.385659	0.324189
H172	H	1.314064	0.885659	0.824189
H173	H	0.840764	0.358985	0.478508
H174	H	1.340764	0.858985	0.978508
H175	H	0.900874	0.363891	0.351082
H176	H	1.400874	0.863891	0.851082
H177	H	0.777200	0.261718	0.364359
H178	H	1.277200	0.761718	0.864359
H179	H	0.837302	0.266622	0.236900
H180	H	1.337302	0.766622	0.736900
H181	H	0.817978	-0.584363	0.000133
H182	H	1.317978	-0.084363	0.500133
C183	C	0.796913	0.032110	0.000117
C184	C	1.296913	0.532110	0.500117
C185	C	0.775144	-0.047560	0.000119
C186	C	1.275144	0.452440	0.500119
H187	H	0.751129	0.063060	0.000093
H188	H	1.251129	0.563060	0.500093
H189	H	0.827173	0.043650	0.085069
H190	H	1.327173	0.543650	0.585069
H191	H	0.827191	0.043651	-0.084828
H192	H	1.327191	0.543651	0.415172
H193	H	0.744871	-0.059103	0.085071
H194	H	1.244871	0.440897	0.585071
H195	H	0.744870	-0.059104	-0.084841
H196	H	1.244870	0.440896	0.415159
C197	C	0.763281	-0.291820	0.000110
C198	C	1.263281	0.208180	0.500110
C199	C	0.821045	-0.349167	0.000119
C200	C	1.321045	0.150833	0.500119
H201	H	0.712813	-0.316527	0.000084
H202	H	1.212813	0.183473	0.500084
H203	H	0.768918	-0.260034	0.085060
H204	H	1.268918	0.239966	0.585060
H205	H	0.768933	-0.260015	-0.084837
H206	H	1.268933	0.239985	0.415163
H207	H	0.815397	-0.380969	0.085072
H208	H	1.315397	0.119031	0.585072
H209	H	0.815406	-0.380966	-0.084840
H210	H	1.315406	0.119034	0.415160
H211	H	0.830511	-0.435587	0.000104
H212	H	1.330511	0.064413	0.500104
H213	H	0.688384	0.286042	0.000098
H214	H	1.188384	0.786042	0.500098
C215	C	0.228271	-0.026637	0.000234
C216	C	0.728271	0.473363	0.500234
C217	C	0.170921	0.031124	0.000217
C218	C	0.670921	0.531124	0.500217
H219	H	0.203565	-0.077106	0.000251
H220	H	0.703565	0.422894	0.500251
H221	H	0.260064	-0.020995	-0.084708
H222	H	0.760064	0.479005	0.415292
H223	H	0.260068	-0.020988	0.085189
H224	H	0.760068	0.479012	0.585189
H225	H	0.139127	0.025479	-0.084744
H226	H	0.639127	0.525479	0.415256
H227	H	0.139115	0.025480	0.085168
H228	H	0.639115	0.525480	0.585168
H229	H	1.027441	-0.322847	0.000130
H230	H	1.527441	0.177153	0.500130
C231	C	0.464329	0.003155	0.000171
C232	C	0.964329	0.503155	0.500171
C233	C	0.545944	-0.005025	0.000173
C234	C	1.045944	0.494975	0.500173
H235	H	0.439631	-0.047318	0.000168
H236	H	0.939631	0.452682	0.500168
H237	H	0.449004	0.031156	0.085112
H238	H	0.949004	0.531156	0.585112
H239	H	0.449001	0.031165	-0.084786
H240	H	0.949001	0.531165	0.415214
H241	H	0.561273	-0.033030	0.085136
H242	H	1.061273	0.466970	0.585136
H243	H	0.561276	-0.033038	-0.084776
H244	H	1.061276	0.466962	0.415224
H245	H	0.539608	0.273507	0.000127
H246	H	1.039608	0.773507	0.500127
H247	H	0.313370	0.322190	0.000124
H248	H	0.813370	0.822190	0.500124
C249	C	0.500045	0.291268	-0.125099
C250	C	1.000045	0.791268	0.374901
C251	C	0.453181	0.282975	0.000137
C252	C	0.953181	0.782975	0.500137
H253	H	0.524744	0.341740	-0.125123
H254	H	1.024744	0.841740	0.374877
H255	H	0.538940	0.252079	-0.125077
H256	H	1.038940	0.752079	0.374923
H257	H	0.468230	0.285620	-0.210030
H258	H	0.968230	0.785620	0.289970
H259	H	0.484998	0.288617	0.085069
H260	H	0.984998	0.788617	0.585069
H261	H	0.414282	0.322175	0.000129
H262	H	0.914282	0.822175	0.500129
H263	H	0.426863	0.076578	0.000220
H264	H	0.926863	0.576578	0.500220
