data_functionalizedCrystal
_audit_creation_method	'MofGen! by Chris Wilmer'
_symmetry_space_group_name_H-M	'P1'
_symmetry_Int_Tables_number	1
_symmetry_cell_setting	triclinic
loop_
_symmetry_equiv_pos_as_xyz
  x,y,z
_cell_length_a	8.559649
_cell_length_b	13.596369
_cell_length_c	8.559649
_cell_angle_alpha	89.995606
_cell_angle_beta	110.221336
_cell_angle_gamma	90.005741
loop_
_atom_site_label
_atom_site_type_symbol
_atom_site_fract_x
_atom_site_fract_y
_atom_site_fract_z
O1	O	2.126883	0.081788	0.055032
O2	O	2.460216	0.415121	0.388366
O3	O	2.793549	0.748455	0.721699
O4	O	1.651398	0.081789	-0.028749
O5	O	1.984731	0.415122	0.304585
O6	O	2.318065	0.748456	0.637918
O7	O	1.931031	0.081787	0.250884
O8	O	2.264364	0.415121	0.584218
O9	O	2.597698	0.748454	0.917551
O10	O	1.847250	0.081790	-0.224601
O11	O	2.180583	0.415123	0.108733
O12	O	2.513916	0.748456	0.442066
O13	O	1.931008	-0.081795	0.250894
O14	O	2.264341	0.251538	0.584228
O15	O	2.597674	0.584871	0.917561
O16	O	1.651375	-0.081794	-0.028739
O17	O	1.984708	0.251540	0.304595
O18	O	2.318041	0.584873	0.637928
O19	O	2.126860	-0.081795	0.055043
O20	O	2.460193	0.251538	0.388376
O21	O	2.793526	0.584872	0.721709
Zn22	Zn	1.889113	-0.107767	0.013154
Zn23	Zn	2.222447	0.225567	0.346487
Zn24	Zn	2.555780	0.558900	0.679820
Zn25	Zn	1.889144	0.107761	0.013140
Zn26	Zn	2.222477	0.441094	0.346474
Zn27	Zn	2.555811	0.774428	0.679807
O28	O	1.847227	-0.081793	-0.224590
O29	O	2.180560	0.251540	0.108743
O30	O	2.513893	0.584873	0.442076
C31	C	1.591077	-0.000002	-0.035093
C32	C	1.924411	0.333331	0.298241
C33	C	2.257744	0.666664	0.631574
C34	C	1.411378	-0.000002	-0.053992
C35	C	1.744711	0.333332	0.279341
C36	C	2.078045	0.666665	0.612675
N37	N	1.889105	-0.254859	0.013165
N38	N	2.222438	0.078475	0.346499
N39	N	2.555771	0.411808	0.679832
C40	C	1.889142	-0.656149	0.013138
C41	C	2.222475	-0.322816	0.346472
C42	C	2.555808	0.010517	0.679805
C43	C	1.889126	-0.544498	0.013140
C44	C	2.222459	-0.211165	0.346473
C45	C	2.555793	0.122169	0.679806
C46	C	1.889124	-0.455508	0.013151
C47	C	2.222457	-0.122174	0.346484
C48	C	2.555790	0.211159	0.679817
C49	C	1.889107	-0.343849	0.013154
C50	C	2.222440	-0.010516	0.346488
C51	C	2.555773	0.322818	0.679821
C52	C	2.187180	-0.000001	0.061387
C53	C	2.520514	0.333332	0.394720
C54	C	2.853847	0.666665	0.728053
C55	C	2.366879	0.000004	0.080286
C56	C	2.700213	0.333338	0.413619
C57	C	3.033546	0.666671	0.746953
C58	C	1.937369	-0.000002	0.311198
C59	C	2.270702	0.333331	0.644532
C60	C	2.604035	0.666664	0.977865
C61	C	1.956268	0.000003	0.490898
C62	C	2.289601	0.333337	0.824231
C63	C	2.622934	0.666670	1.157564
N64	N	1.889167	0.254853	0.013143
N65	N	2.222501	0.588186	0.346477
N66	N	2.555834	0.921519	0.679810
C67	C	1.840889	-0.000001	-0.284904
C68	C	2.174222	0.333332	0.048429
C69	C	2.507556	0.666665	0.381762
C70	C	1.821990	-0.000000	-0.464604
C71	C	2.155323	0.333333	-0.131270
C72	C	2.488657	0.666666	0.202063
H73	H	1.466268	0.000004	0.209714
H74	H	1.799601	0.333338	0.543047
H75	H	2.132934	0.666671	0.876381
H76	H	1.312000	0.000009	-0.183411
H77	H	1.645333	0.333342	0.149922
H78	H	1.978667	0.666675	0.483255
C79	C	1.628027	0.084106	0.301911
C80	C	1.961361	0.417440	0.635244
C81	C	2.294694	0.750773	0.968578
C82	C	1.647268	0.000008	0.401251
C83	C	1.980601	0.333342	0.734584
C84	C	2.313935	0.666675	1.067918
H85	H	1.520155	0.084113	0.219096
H86	H	1.853488	0.417446	0.552429
H87	H	2.186822	0.750780	0.885763
H88	H	1.709724	0.084100	0.249923
H89	H	2.043057	0.417433	0.583256
H90	H	2.376390	0.750767	0.916589
H91	H	1.641128	0.141141	0.369345
H92	H	1.974461	0.474474	0.702678
H93	H	2.307795	0.807807	1.036012
H94	H	1.634179	-0.057027	0.333819
H95	H	1.967513	0.276307	0.667152
H96	H	2.300846	0.609640	1.000485
H97	H	1.565548	0.000006	0.453242
H98	H	1.898881	0.333339	0.786575
H99	H	2.232214	0.666672	1.119909
H100	H	2.085696	-0.000005	0.590286
H101	H	2.419029	0.333328	0.923619
H102	H	2.752362	0.666662	1.256953
