data_functionalizedCrystal
_audit_creation_method	'MofGen! by Chris Wilmer'
_symmetry_space_group_name_H-M	'P1'
_symmetry_Int_Tables_number	1
_symmetry_cell_setting	triclinic
loop_
_symmetry_equiv_pos_as_xyz
  x,y,z
_cell_length_a	23.532407
_cell_length_b	23.532407
_cell_length_c	7.088929
_cell_angle_alpha	83.810936
_cell_angle_beta	96.167054
_cell_angle_gamma	82.848712
loop_
_atom_site_label
_atom_site_type_symbol
_atom_site_fract_x
_atom_site_fract_y
_atom_site_fract_z
O1	O	0.749384	0.075019	-0.158890
O2	O	0.583519	0.085024	-0.158923
O3	O	0.671454	-0.002912	-0.158870
O4	O	0.661448	0.162954	-0.158942
O5	O	0.683206	-0.014690	0.159112
O6	O	0.595271	0.073245	0.159060
O7	O	0.761135	0.063241	0.159093
Cu8	Cu	0.679276	0.067168	0.188110
Cu9	Cu	0.665378	0.081097	-0.187940
O10	O	0.673200	0.151176	0.159040
C11	C	0.568179	0.078880	0.000065
C12	C	0.504961	0.078114	0.000054
C13	C	0.238797	0.022916	0.000130
C14	C	0.298197	0.023628	0.000129
O15	O	0.334944	-0.020161	0.000214
N16	N	0.320822	0.075905	0.000093
C17	C	0.284044	0.127474	0.000078
O18	O	0.308742	0.172006	0.000049
C19	C	0.224645	0.126761	0.000092
C20	C	0.202023	0.074481	0.000109
C21	C	0.216174	-0.029360	0.000148
C22	C	0.156778	-0.030071	0.000145
C23	C	0.120004	0.021494	0.000124
C24	C	0.142627	0.073770	0.000106
C25	C	0.187869	0.178329	0.000091
C26	C	0.128467	0.177612	0.000107
C27	C	0.105845	0.125332	0.000123
C28	C	0.046457	0.124624	0.000082
N29	N	0.023832	0.072346	0.000118
C30	C	0.060606	0.020781	0.000139
C31	C	0.408785	0.128966	0.000051
C32	C	0.468182	0.129680	0.000023
C33	C	0.482331	0.025833	0.000077
C34	C	0.422933	0.025121	0.000092
C35	C	0.386160	0.076689	0.000086
C36	C	-0.064131	0.019292	0.000131
C37	C	-0.123534	0.018586	0.000121
C38	C	-0.137678	0.122432	0.000076
C39	C	-0.078281	0.123139	0.000077
C40	C	-0.041508	0.071564	0.000111
O41	O	0.009675	0.168390	0.000004
O42	O	0.035900	-0.023744	0.000193
C43	C	0.677076	-0.030017	0.000126
C44	C	0.676310	-0.093234	0.000140
C45	C	0.723540	-0.492334	0.000045
C46	C	0.722828	-0.551734	0.000030
O47	O	0.766612	-0.588476	-0.000032
N48	N	0.670551	-0.574360	0.000021
C49	C	0.618983	-0.537581	0.000008
O50	O	0.574452	-0.562281	-0.000003
C51	C	0.619695	-0.478182	0.000009
C52	C	0.671976	-0.455561	0.000037
C53	C	0.775817	-0.469712	0.000071
C54	C	0.776528	-0.410316	0.000089
C55	C	0.724964	-0.373543	0.000081
C56	C	0.672687	-0.396165	0.000055
C57	C	0.568126	-0.441405	-0.000019
C58	C	0.568843	-0.382002	-0.000019
C59	C	0.621124	-0.359381	0.000009
C60	C	0.621835	-0.299997	0.000065
N61	N	0.674111	-0.277371	0.000074
C62	C	0.725676	-0.314144	0.000082
C63	C	0.617491	-0.662324	0.000002
C64	C	0.616779	-0.721722	0.000015
C65	C	0.720624	-0.735870	0.000034
C66	C	0.721337	-0.676471	0.000035
C67	C	0.669768	-0.639698	0.000011
C68	C	0.727167	-0.189409	0.000122
C69	C	0.727875	-0.130008	0.000148
C70	C	0.624029	-0.115864	0.000119
C71	C	0.623322	-0.175261	0.000103
C72	C	0.674895	-0.212032	0.000098
O73	O	0.578074	-0.263220	0.000119
O74	O	0.770199	-0.289436	0.000068
C75	C	0.776475	0.069385	0.000101
C76	C	0.839692	0.070151	0.000099
C77	C	0.667579	0.178282	0.000040
C78	C	0.668343	0.241500	0.000013
N79	N	0.689055	0.057371	0.452604
N80	N	0.655604	0.090890	-0.452434
H81	H	-0.034198	-0.022705	0.000158
F82	F	0.132709	-0.085715	0.000148
H83	H	0.526848	-0.352064	-0.000042
F84	F	-0.147606	-0.037060	0.000126
F85	F	0.610288	0.136292	0.440823
H86	H	0.206276	0.220902	0.000069
H87	H	0.723730	0.022637	0.534281
F88	F	0.775504	-0.775017	0.000033
F89	F	0.492250	0.185325	-0.000031
F90	F	0.089334	0.232499	0.000109
F91	F	0.255304	-0.084248	0.000176
H92	H	0.404518	-0.017450	0.000106
F93	F	0.561136	-0.745792	0.000019
H94	H	-0.059861	0.165710	0.000061
H95	H	0.512284	-0.016154	0.000095
H96	H	0.378847	0.170963	0.000032
H97	H	-0.167630	0.164415	0.000049
H98	H	0.763908	-0.658057	0.000057
H99	H	0.770450	-0.111593	0.000177
H100	H	0.819100	-0.391903	0.000105
H101	H	0.769163	-0.219341	0.000111
H102	H	0.582047	-0.085913	0.000119
F103	F	0.830704	-0.508841	0.000079
H104	H	0.575496	-0.632386	-0.000001
F105	F	0.512481	-0.465467	-0.000057
H106	H	0.580752	-0.193682	0.000133
