data_functionalizedCrystal
_audit_creation_method	'MofGen! by Chris Wilmer'
_symmetry_space_group_name_H-M	'P1'
_symmetry_Int_Tables_number	1
_symmetry_cell_setting	triclinic
loop_
_symmetry_equiv_pos_as_xyz
  x,y,z
_cell_length_a	19.288864
_cell_length_b	15.995292
_cell_length_c	18.366186
_cell_angle_alpha	89.996953
_cell_angle_beta	89.977106
_cell_angle_gamma	83.302432
loop_
_atom_site_label
_atom_site_type_symbol
_atom_site_fract_x
_atom_site_fract_y
_atom_site_fract_z
O1	O	0.921606	0.104454	-0.060778
O2	O	1.421606	0.604454	0.439222
O3	O	0.719379	0.118545	-0.060728
O4	O	1.219379	0.618545	0.439272
O5	O	0.826042	-0.010412	-0.060755
O6	O	1.326042	0.489588	0.439245
O7	O	0.814944	0.233412	-0.060750
O8	O	1.314944	0.733412	0.439250
O9	O	0.826023	-0.010419	0.060344
O10	O	1.326023	0.489581	0.560344
O11	O	0.719361	0.118539	0.060372
O12	O	1.219361	0.618539	0.560372
O13	O	0.921588	0.104448	0.060321
O14	O	1.421588	0.604448	0.560321
Zn15	Zn	0.820472	0.111492	0.079574
Zn16	Zn	1.320472	0.611492	0.579574
Zn17	Zn	0.820495	0.111501	-0.079980
Zn18	Zn	1.320495	0.611501	0.420020
O19	O	0.814925	0.233405	0.060349
O20	O	1.314925	0.733405	0.560349
C21	C	0.693493	0.118089	-0.000172
C22	C	1.193493	0.618089	0.499828
C23	C	0.616386	0.116727	-0.000153
C24	C	1.116386	0.616727	0.499847
C25	C	0.571873	0.192394	-0.000162
C26	C	1.071873	0.692394	0.499838
C27	C	0.499423	0.191115	-0.000171
C28	C	0.999423	0.691115	0.499829
C29	C	0.471489	0.114166	-0.000183
C30	C	0.971489	0.614166	0.499817
C31	C	0.516011	0.038490	-0.000169
C32	C	1.016011	0.538490	0.499831
C33	C	0.588460	0.039770	-0.000154
C34	C	1.088460	0.539770	0.499846
C35	C	0.363087	0.053677	-0.042636
C36	C	0.863087	0.553677	0.457364
C37	C	0.290639	0.052400	-0.042655
C38	C	0.790639	0.552400	0.457345
C39	C	0.248034	0.110212	-0.000227
C40	C	0.748034	0.610212	0.499773
C41	C	0.277883	0.169317	0.042211
C42	C	0.777883	0.669317	0.542211
C43	C	0.350332	0.170597	0.042226
C44	C	0.850332	0.670597	0.542226
C45	C	0.392931	0.112769	-0.000200
C46	C	0.892931	0.612769	0.499800
C47	C	0.124961	0.184497	-0.000245
C48	C	0.624961	0.684497	0.499755
C49	C	0.052510	0.183215	-0.000249
C50	C	0.552510	0.683215	0.499751
C51	C	0.069101	0.030588	-0.000255
C52	C	0.569101	0.530588	0.499745
C53	C	0.141550	0.031872	-0.000244
C54	C	0.641550	0.531872	0.499756
C55	C	0.169476	0.108829	-0.000243
C56	C	0.669476	0.608829	0.499757
C57	C	0.825581	-0.041609	-0.000207
C58	C	1.325581	0.458391	0.499793
C59	C	0.824227	-0.134557	-0.000213
C60	C	1.324227	0.365443	0.499787
C61	C	0.819248	-0.472277	-0.000205
C62	C	1.319248	0.027723	0.499795
C63	C	0.896234	-0.449255	0.000047
C64	C	1.396234	0.050745	0.500047
C65	C	0.897698	-0.352585	-0.000229
C66	C	1.397698	0.147415	0.499771
C67	C	0.821719	-0.304730	-0.000208
C68	C	1.321719	0.195270	0.499792
C69	C	0.783240	-0.333682	-0.069350
C70	C	1.283240	0.166318	0.430650
C71	C	0.782313	-0.430469	-0.069405
C72	C	1.282313	0.069531	0.430595
C73	C	0.780720	-0.430328	0.068308
C74	C	1.280720	0.069672	0.568308
C75	C	0.783573	-0.333846	0.069219
C76	C	1.283573	0.166154	0.569219
C77	C	0.823111	-0.210039	-0.000213
C78	C	1.323111	0.289961	0.499787
C79	C	0.817854	-0.566967	-0.000205
C80	C	1.317854	-0.066967	0.499795
C81	C	0.947474	0.104905	-0.000236
C82	C	1.447474	0.604905	0.499764
C83	C	1.024581	0.106266	-0.000260
C84	C	1.524581	0.606266	0.499740
C85	C	0.815386	0.264602	-0.000201
C86	C	1.315386	0.764602	0.499799
C87	C	0.816740	0.357550	-0.000200
C88	C	1.316740	0.857550	0.499800
N89	N	0.820460	0.111486	0.188465
N90	N	1.320460	0.611486	0.688465
N91	N	0.820512	0.111500	-0.188871
N92	N	1.320512	0.611500	0.311129
C93	C	0.867706	0.054412	0.226553
C94	C	1.367706	0.554412	0.726553
C95	C	0.867710	0.054408	0.302781
C96	C	1.367710	0.554408	0.802781
C97	C	0.820476	0.111493	0.340917
C98	C	1.320476	0.611493	0.840917
C99	C	0.773221	0.168572	0.302820
C100	C	1.273221	0.668572	0.802820
C101	C	0.773214	0.168568	0.226594
C102	C	1.273214	0.668568	0.726594
C103	C	0.811362	0.187786	0.461681
C104	C	1.311362	0.687786	0.961681
C105	C	0.811375	0.187791	0.537906
C106	C	1.311375	0.687791	1.037906
C107	C	0.820495	0.111504	0.576025
C108	C	1.320495	0.611504	1.076025
C109	C	0.829618	0.035209	0.537910
C110	C	1.329618	0.535209	1.037910
C111	C	0.829611	0.035205	0.461684
C112	C	1.329611	0.535205	0.961684
C113	C	0.820479	0.111503	0.423572
C114	C	1.320479	0.611503	0.923572
C115	C	0.867748	0.054420	0.696768
C116	C	1.367748	0.554420	1.196768
C117	C	0.867748	0.054416	0.772997
C118	C	1.367748	0.554416	1.272997
C119	C	0.773262	0.168587	0.773035
C120	C	1.273262	0.668587	1.273035
C121	C	0.773259	0.168584	0.696808
C122	C	1.273259	0.668584	1.196808
C123	C	0.820506	0.111502	0.658678
C124	C	1.320506	0.611502	1.158678
H125	H	0.147699	0.247160	-0.000233
H126	H	0.647699	0.747160	0.499767
H127	H	0.809975	-0.313720	-0.120820
H128	H	1.309975	0.186280	0.379180
F129	F	0.934817	-0.487323	-0.064419
F130	F	1.434817	0.012677	0.435581
H131	H	0.724053	-0.444105	0.068790
H132	H	1.224053	0.055895	0.568790
F133	F	0.382098	0.233496	0.087393
F134	F	0.882098	0.733496	0.587393
H135	H	0.928027	-0.334292	-0.049894
H136	H	1.428027	0.165708	0.450106
H137	H	0.016268	0.244835	-0.000253
H138	H	0.516268	0.744835	0.499747
H139	H	0.808977	-0.457384	-0.121105
H140	H	1.308977	0.042616	0.378895
F141	F	0.801705	0.268989	0.421119
F142	F	1.301705	0.768989	0.921119
F143	F	0.188926	-0.048664	-0.000237
F144	F	0.688926	0.451336	0.499763
F145	F	0.039376	-0.051308	-0.000261
F146	F	0.539376	0.448692	0.499739
H147	H	0.266341	0.004277	-0.077214
H148	H	0.766341	0.504277	0.422786
F149	F	0.408424	-0.007859	-0.087796
F150	F	0.908424	0.492141	0.412204
F151	F	0.486281	-0.043405	-0.000180
F152	F	0.986281	0.456595	0.499820
H153	H	0.725867	-0.444807	-0.072523
H154	H	1.225867	0.055193	0.427477
F155	F	0.801671	0.268990	0.578463
F156	F	1.301671	0.768990	1.078463
F157	F	0.710162	-0.291751	-0.072695
F158	F	1.210162	0.208249	0.427305
H159	H	0.906218	0.007938	0.665722
H160	H	1.406218	0.507938	1.165722
F161	F	0.812193	-0.467434	0.136809
F162	F	1.312193	0.032566	0.636809
F163	F	0.635836	-0.040768	-0.000143
F164	F	1.135836	0.459232	0.499857
H165	H	0.811591	-0.315389	0.120369
H166	H	1.311591	0.184611	0.620369
H167	H	0.728115	-0.300668	0.073410
H168	H	1.228115	0.199332	0.573410
H169	H	0.906219	0.007934	0.804009
H170	H	1.406219	0.507934	1.304009
H171	H	0.906175	0.007930	0.195510
H172	H	1.406175	0.507930	0.695510
H173	H	0.927834	-0.333676	0.049333
H174	H	1.427834	0.166324	0.549333
F175	F	0.722927	0.229317	0.186056
F176	F	1.222927	0.729317	0.686056
H177	H	0.594605	0.255058	-0.000163
H178	H	1.094605	0.755058	0.499837
F179	F	0.232545	0.230851	0.087369
F180	F	0.732545	0.730851	0.587369
F181	F	0.935013	-0.485997	0.064857
F182	F	1.435013	0.014003	0.564857
F183	F	0.917998	-0.006341	0.343324
F184	F	1.417998	0.493659	0.843324
H185	H	0.837037	-0.026917	0.430653
H186	H	1.337037	0.473083	0.930653
F187	F	0.722948	0.229323	0.343408
F188	F	1.222948	0.729323	0.843408
F189	F	0.839330	-0.045988	0.578473
F190	F	1.339330	0.454012	1.078473
H191	H	0.734800	0.215063	0.804086
H192	H	1.234800	0.715063	1.304086
H193	H	0.463173	0.252734	-0.000177
H194	H	0.963173	0.752734	0.499823
F195	F	0.722977	0.229334	0.656268
F196	F	1.222977	0.729334	1.156268
