data_functionalizedCrystal
_audit_creation_method	'MofGen! by Chris Wilmer'
_symmetry_space_group_name_H-M	'P1'
_symmetry_Int_Tables_number	1
_symmetry_cell_setting	triclinic
loop_
_symmetry_equiv_pos_as_xyz
  x,y,z
_cell_length_a	12.594517
_cell_length_b	12.594516
_cell_length_c	17.640968
_cell_angle_alpha	101.228257
_cell_angle_beta	101.226039
_cell_angle_gamma	90.017605
loop_
_atom_site_label
_atom_site_type_symbol
_atom_site_fract_x
_atom_site_fract_y
_atom_site_fract_z
Zn1	Zn	1.748945	-0.302060	0.446997
Zn2	Zn	1.712846	-0.516046	0.314824
Zn3	Zn	1.534965	-0.338079	0.314825
Zn4	Zn	1.570915	-0.480004	0.446962
O5	O	1.641918	-0.409047	0.380902
O6	O	1.893106	-0.330454	0.429479
O7	O	1.659097	-0.522596	0.204209
O8	O	1.563413	-0.184351	0.332373
O9	O	1.866584	-0.487669	0.332371
O10	O	1.720623	-0.157888	0.429479
O11	O	1.528409	-0.391845	0.204210
O12	O	1.390784	-0.356897	0.332338
O13	O	1.624684	-0.426242	0.557581
O14	O	1.417196	-0.461169	0.429419
O15	O	1.755482	-0.295506	0.557607
O16	O	1.693955	-0.660215	0.332337
O17	O	1.589680	-0.633735	0.429418
C18	C	1.365370	-0.409031	0.380875
C19	C	1.247066	-0.409045	0.380883
C20	C	1.092686	-0.352221	0.328201
C21	C	1.183183	-0.306655	0.400332
C22	C	1.158143	-0.454561	0.308760
C23	C	1.126804	-0.363444	0.453109
C24	C	1.101744	-0.511409	0.361489
C25	C	1.192223	-0.465867	0.433669
C26	C	1.641835	-0.685591	0.380891
C27	C	1.641904	-0.803891	0.380913
C28	C	1.585239	-0.929551	0.433689
C29	C	1.687554	-0.853362	0.453083
C30	C	1.539608	-0.878499	0.361553
C31	C	1.744462	-0.938468	0.400375
C32	C	1.596442	-0.963621	0.308811
C33	C	1.698816	-0.887471	0.328178
C34	C	1.919546	-0.409064	0.380929
C35	C	2.037855	-0.409071	0.380940
C36	C	1.698120	-0.352836	0.587077
C37	C	1.722070	-0.328882	0.674937
C38	C	1.642035	-0.131419	0.380930
C39	C	1.642085	-0.013110	0.380942
C40	C	1.585996	-0.464963	0.175528
C41	C	1.562252	-0.488617	0.087669
C42	C	1.460381	-0.590444	0.963829
C43	C	1.482908	-0.567922	1.046387
C44	C	1.619096	-0.431799	1.046403
C45	C	1.596577	-0.454306	0.963844
C46	C	1.517219	-0.533630	0.922563
C47	C	1.653415	-0.397492	0.922578
C48	C	1.630901	-0.420001	0.840026
C49	C	1.551549	-0.499324	0.798740
C50	C	1.494705	-0.556139	0.840011
C51	C	1.732778	-0.318173	0.963861
C52	C	1.789616	-0.261360	0.922595
C53	C	1.767098	-0.283863	0.840041
C54	C	1.687746	-0.363186	0.798755
C55	C	1.823942	-0.227048	0.798770
C56	C	1.801428	-0.249557	0.716218
C57	C	1.665232	-0.385695	0.716203
H58	H	1.049472	-0.304095	0.283681
Br59	Br	1.042353	-0.655651	0.334065
Br60	Br	1.751783	-0.773728	0.554732
Br61	Br	1.242509	-0.162381	0.427731
Br62	Br	1.505380	-0.961111	0.508107
H63	H	1.888562	-0.162470	0.832393
Br64	Br	1.878572	-0.172460	0.660209
Br65	Br	1.103006	-0.299133	0.554840
H66	H	1.235271	-0.513918	0.478296
Br67	Br	1.778921	-0.856223	0.253809
H68	H	1.557886	-1.011419	0.247841
Br69	Br	1.352667	-0.698087	0.907797
Br70	Br	1.888855	-0.982425	0.427803
Br71	Br	1.182182	-0.518704	0.207062
H72	H	1.453020	-0.851969	0.345167
H73	H	1.751109	-0.299852	1.031080
H74	H	1.436618	-0.614193	1.079982
H75	H	1.600585	-0.450264	0.682590
H76	H	1.533224	-0.517654	0.731521
Br77	Br	1.386991	-0.663783	0.783980
Br78	Br	1.726798	-0.324153	1.102434
H79	H	1.854233	-0.196777	0.956217
