data_functionalizedCrystal
_audit_creation_method	'MofGen! by Chris Wilmer'
_symmetry_space_group_name_H-M	'P1'
_symmetry_Int_Tables_number	1
_symmetry_cell_setting	triclinic
loop_
_symmetry_equiv_pos_as_xyz
  x,y,z
_cell_length_a	11.026607
_cell_length_b	9.616153
_cell_length_c	11.026607
_cell_angle_alpha	89.999525
_cell_angle_beta	108.586017
_cell_angle_gamma	90.006666
loop_
_atom_site_label
_atom_site_type_symbol
_atom_site_fract_x
_atom_site_fract_y
_atom_site_fract_z
O1	O	1.726737	0.115642	0.533620
O2	O	1.360157	0.115644	0.472856
O3	O	1.513065	0.115638	0.319948
O4	O	1.573829	0.115648	0.686528
O5	O	1.513040	-0.115653	0.319946
O6	O	1.360131	-0.115647	0.472854
O7	O	1.726711	-0.115649	0.533618
Zn8	Zn	1.543417	-0.152371	0.503236
Zn9	Zn	1.543451	0.152366	0.503238
O10	O	1.573803	-0.115643	0.686526
C11	C	1.312485	-0.000001	0.461645
C12	C	1.170471	-0.000000	0.428228
N13	N	1.543403	-0.360345	0.503236
C14	C	1.116821	0.000003	0.520498
C15	C	0.970043	0.000004	0.485962
C16	C	1.461218	-0.580712	0.584618
C17	C	1.461528	-0.419544	0.585052
C18	C	1.682716	-0.418794	0.561326
C19	C	1.682304	-0.580012	0.561938
C20	C	1.487528	-0.580260	0.363703
C21	C	1.484658	-0.419033	0.363929
C22	C	1.774384	-0.000001	0.544828
C23	C	1.916398	0.000008	0.578245
C24	C	1.501843	-0.000006	0.272287
C25	C	1.468426	-0.000000	0.130273
N26	N	1.543473	0.360340	0.503230
C27	C	1.560695	0.000001	0.076624
C28	C	1.526160	0.000006	-0.070155
C29	C	1.585026	0.000004	0.734187
C30	C	1.618443	0.000008	0.876200
H31	H	1.179555	-0.000002	0.625061
H32	H	1.746967	-0.619003	0.506551
H33	H	1.723013	0.000112	-0.061072
H34	H	0.907314	0.000037	0.381393
H35	H	1.107738	0.000033	0.323666
H36	H	1.547173	-0.618378	0.302795
H37	H	1.727165	-0.617598	0.664582
H38	H	1.746585	-0.380444	0.504840
H39	H	1.363863	0.000009	0.067540
H40	H	1.358911	-0.380029	0.546157
H41	H	1.665258	-0.000008	0.139357
H42	H	0.979125	0.000001	0.682816
H43	H	1.421590	0.000016	-0.132884
H44	H	1.727891	-0.378402	0.662982
H45	H	1.358350	-0.619523	0.545936
H46	H	1.499608	-0.621208	0.686944
H47	H	1.500268	-0.380962	0.687989
H48	H	1.386581	-0.620997	0.315054
H49	H	1.538436	-0.378741	0.298279
H50	H	1.382030	-0.380833	0.320521
