data_functionalizedCrystal
_audit_creation_method	'MofGen! by Chris Wilmer'
_symmetry_space_group_name_H-M	'P1'
_symmetry_Int_Tables_number	1
_symmetry_cell_setting	triclinic
loop_
_symmetry_equiv_pos_as_xyz
  x,y,z
_cell_length_a	12.759400
_cell_length_b	12.759401
_cell_length_c	12.759393
_cell_angle_alpha	90.018496
_cell_angle_beta	89.968436
_cell_angle_gamma	89.985155
loop_
_atom_site_label
_atom_site_type_symbol
_atom_site_fract_x
_atom_site_fract_y
_atom_site_fract_z
Zn1	Zn	-0.418200	-1.606255	-0.593981
Zn2	Zn	-0.593919	-1.606150	-0.418301
Zn3	Zn	-0.418255	-1.430557	-0.418321
Zn4	Zn	-0.593838	-1.430546	-0.593943
O5	O	-0.506053	-1.518377	-0.506137
O6	O	-0.441520	-1.753262	-0.570685
O7	O	-0.570673	-1.582818	-0.271283
O8	O	-0.271226	-1.453913	-0.441647
O9	O	-0.570620	-1.753185	-0.441614
O10	O	-0.271186	-1.582998	-0.570704
O11	O	-0.441614	-1.453811	-0.271297
O12	O	-0.441535	-1.283535	-0.441609
O13	O	-0.570482	-1.453894	-0.740969
O14	O	-0.570536	-1.283527	-0.570638
O15	O	-0.441442	-1.582987	-0.740997
O16	O	-0.740929	-1.582807	-0.441577
O17	O	-0.740870	-1.453791	-0.570620
C18	C	-0.506033	-1.245410	-0.506122
C19	C	-0.506050	-1.128633	-0.506141
C20	C	-0.779020	-1.518315	-0.506115
C21	C	-0.895797	-1.518384	-0.506140
C22	C	-0.505947	-1.518451	-0.780170
C23	C	-0.505902	-1.518482	-0.896947
C24	C	-0.950655	-1.585637	-0.439022
C25	C	-1.060379	-1.585702	-0.439054
C26	C	-1.060377	-1.451252	-0.573327
C27	C	-0.950655	-1.451193	-0.573299
C28	C	-0.895797	-1.652828	-0.371864
C29	C	-0.950655	-1.720086	-0.304739
C30	C	-1.060379	-1.720150	-0.304771
C31	C	-1.115245	-1.652957	-0.371929
C32	C	-0.232019	-1.518468	-0.506182
C33	C	-0.115243	-1.518507	-0.506201
C34	C	-0.506073	-1.792410	-0.506152
C35	C	-0.506082	-1.909187	-0.506158
C36	C	-0.573328	-1.073794	-0.573215
C37	C	-0.573342	-0.964070	-0.573227
C38	C	-0.438796	-0.964034	-0.439081
C39	C	-0.438778	-1.073756	-0.439075
C40	C	-0.651010	-1.073815	-0.650660
C41	C	-0.651024	-0.964091	-0.650672
C42	C	-0.438704	-1.585710	-0.951825
C43	C	-0.438666	-1.585735	-1.061549
C44	C	-0.573033	-1.451301	-1.061507
C45	C	-0.573064	-1.451272	-0.951785
C46	C	-0.361131	-1.663328	-0.951851
C47	C	-0.361093	-1.663353	-1.061575
C48	C	-0.506083	-1.518364	-0.233169
C49	C	-0.505832	-1.518537	-0.116393
H50	H	-0.806454	-1.652780	-0.371827
O51	O	-0.897201	-1.785257	-0.239543
C52	C	-0.788593	-1.770799	-0.253922
H53	H	-0.773646	-1.689693	-0.288258
H54	H	-0.746954	-1.777943	-0.175219
H55	H	-0.757356	-1.833070	-0.309913
O56	O	-0.616528	-0.923402	-0.742951
C57	C	-0.696122	-0.861273	-0.787809
H58	H	-0.752293	-0.834031	-0.723848
H59	H	-0.659517	-0.790137	-0.827569
H60	H	-0.740918	-0.909411	-0.848283
H61	H	-0.732373	-0.934295	-0.628740
H62	H	-0.283784	-1.634239	-1.095623
O63	O	-0.638385	-1.386102	-0.898365
C64	C	-0.706296	-1.445860	-0.834900
H65	H	-0.669268	-1.525493	-0.818467
H66	H	-0.720391	-1.403031	-0.757742
H67	H	-0.784143	-1.457379	-0.877169
H68	H	-0.905989	-1.396431	-0.627954
O69	O	-1.113507	-1.785517	-0.239475
C70	C	-1.041555	-1.844824	-0.180219
H71	H	-0.963380	-1.801748	-0.176526
H72	H	-1.073315	-1.856090	-0.097458
H73	H	-1.029787	-1.924592	-0.218753
H74	H	-0.627712	-1.396579	-1.106169
H75	H	-0.279767	-1.641559	-0.922095
O76	O	-1.221831	-1.653124	-0.371801
C77	C	-1.258490	-1.726917	-0.298184
H78	H	-1.195300	-1.741626	-0.236793
H79	H	-1.331957	-1.695281	-0.258314
H80	H	-1.277855	-1.803515	-0.339916
H81	H	-0.382886	-1.744723	-1.091353
H82	H	-1.105058	-1.396545	-0.628002
H83	H	-0.383987	-1.118401	-0.384464
O84	O	-0.396066	-1.755511	-0.911361
C85	C	-0.499505	-1.773913	-0.945537
H86	H	-0.514475	-1.728387	-1.020920
H87	H	-0.510735	-1.861234	-0.960761
H88	H	-0.556946	-1.747000	-0.882566
H89	H	-0.384025	-0.919339	-0.384479
H90	H	-0.629311	-1.103623	-0.732067
H91	H	-0.728262	-1.107829	-0.621376
