data_functionalizedCrystal
_audit_creation_method	'MofGen! by Chris Wilmer'
_symmetry_space_group_name_H-M	'P1'
_symmetry_Int_Tables_number	1
_symmetry_cell_setting	triclinic
loop_
_symmetry_equiv_pos_as_xyz
  x,y,z
_cell_length_a	16.959455
_cell_length_b	29.839131
_cell_length_c	29.839135
_cell_angle_alpha	90.008321
_cell_angle_beta	90.012987
_cell_angle_gamma	90.032247
loop_
_atom_site_label
_atom_site_type_symbol
_atom_site_fract_x
_atom_site_fract_y
_atom_site_fract_z
Zn1	Zn	1.208243	-0.179028	0.254044
Zn2	Zn	1.208147	-0.254117	0.178903
Zn3	Zn	1.076088	-0.178998	0.178919
Zn4	Zn	1.076001	-0.254127	0.253998
O5	O	1.142120	-0.216568	0.216466
O6	O	1.318841	-0.188996	0.244088
O7	O	1.190626	-0.244136	0.116038
O8	O	1.093695	-0.116135	0.188910
O9	O	1.318771	-0.244165	0.188883
O10	O	1.190789	-0.116157	0.244104
O11	O	1.093603	-0.188946	0.116050
O12	O	0.965466	-0.188956	0.188866
O13	O	1.093546	-0.244182	0.316871
O14	O	0.965402	-0.244153	0.244026
O15	O	1.190704	-0.189006	0.316905
O16	O	1.190541	-0.316986	0.188839
O17	O	1.093454	-0.316993	0.244011
C18	C	0.936754	-0.216553	0.216443
C19	C	0.848897	-0.216557	0.216444
C20	C	0.477374	-0.245265	0.187706
C21	C	0.477469	-0.187907	0.245281
C22	C	0.560014	-0.187900	0.245270
C23	C	0.601244	-0.216576	0.216477
C24	C	0.559928	-0.245260	0.187695
C25	C	0.601337	-0.159220	0.274054
C26	C	0.683888	-0.159212	0.274045
C27	C	0.725119	-0.187886	0.245250
C28	C	0.683798	-0.216570	0.216466
C29	C	0.725027	-0.245247	0.187674
C30	C	0.683707	-0.273929	0.158888
C31	C	0.601159	-0.273934	0.158900
C32	C	0.807667	-0.187881	0.245237
C33	C	0.807581	-0.245241	0.187663
C34	C	1.141999	-0.333290	0.216428
C35	C	1.142020	-0.383225	0.216427
C36	C	1.192665	-0.692844	0.245246
C37	C	1.192751	-0.880517	0.245273
O38	O	1.235693	-0.904762	0.269748
N39	N	1.142254	-0.904010	0.216516
C40	C	1.091728	-0.880581	0.187752
O41	O	1.048774	-0.904869	0.163296
C42	C	1.091639	-0.692909	0.187728
C43	C	1.142145	-0.669419	0.216484
C44	C	1.243167	-0.669354	0.274000
C45	C	1.243148	-0.622439	0.273991
C46	C	1.192628	-0.599013	0.245229
C47	C	1.142126	-0.622503	0.216475
C48	C	1.041110	-0.669481	0.158966
C49	C	1.041091	-0.622560	0.158963
C50	C	1.091597	-0.599070	0.187719
C51	C	1.091587	-0.552162	0.187703
N52	N	1.142084	-0.528670	0.216461
C53	C	1.192604	-0.552096	0.245223
C54	C	1.091780	-0.979111	0.187766
C55	C	1.091803	-1.026029	0.187772
C56	C	1.192825	-1.025963	0.245294
C57	C	1.192805	-0.979044	0.245286
C58	C	1.142277	-0.955619	0.216523
C59	C	1.192561	-0.453570	0.245202
C60	C	1.192540	-0.406650	0.245190
C61	C	1.091516	-0.406721	0.187670
C62	C	1.091539	-0.453636	0.187680
C63	C	1.142065	-0.477060	0.216450
O64	O	1.048661	-0.527889	0.163245
O65	O	1.235540	-0.527800	0.269683
C66	C	1.192684	-0.739760	0.245255
C67	C	1.142183	-0.763250	0.216501
C68	C	1.091663	-0.739824	0.187738
C69	C	1.142206	-0.810168	0.216506
C70	C	1.192726	-0.833593	0.245269
C71	C	1.243223	-0.810101	0.274026
C72	C	1.243204	-0.763185	0.274018
C73	C	1.041166	-0.763316	0.158981
C74	C	1.041189	-0.810232	0.158992
C75	C	1.091710	-0.833657	0.187755
C76	C	1.348288	-0.216583	0.216489
C77	C	1.436145	-0.216589	0.216499
C78	C	1.142126	-0.216598	0.333644
C79	C	1.142129	-0.216612	0.383579
C80	C	1.142262	-0.099389	0.216514
C81	C	1.142323	-0.049455	0.216534
C82	C	1.091530	-0.245306	0.740149
C83	C	1.091535	-0.245322	0.552476
O84	O	1.048495	-0.269742	0.528196
N85	N	1.142120	-0.216598	0.529024
C86	C	1.192704	-0.187865	0.552494
O87	O	1.235724	-0.163430	0.528240
C88	C	1.192694	-0.187847	0.740166
C89	C	1.142111	-0.216577	0.763615
C90	C	1.040950	-0.274034	0.763598
C91	C	1.040952	-0.274031	0.810513
C92	C	1.091534	-0.245301	0.833980
C93	C	1.142113	-0.216574	0.810530
C94	C	1.243273	-0.159112	0.763634
C95	C	1.243265	-0.159110	0.810555
C96	C	1.192682	-0.187839	0.834005
C97	C	1.192697	-0.187842	0.880912
N98	N	1.142112	-0.216567	0.904364
C99	C	1.091530	-0.245296	0.880897
C100	C	1.192707	-0.187877	0.453963
C101	C	1.192710	-0.187882	0.407045
C102	C	1.091540	-0.245339	0.407030
C103	C	1.091541	-0.245336	0.453949
C104	C	1.142122	-0.216602	0.477415
C105	C	1.091539	-0.245289	0.979423
C106	C	1.091548	-0.245285	1.026343
C107	C	1.192715	-0.187827	1.026353
C108	C	1.192710	-0.187832	0.979438
C109	C	1.142115	-0.216565	0.955974
O110	O	1.235708	-0.163432	0.905220
O111	O	1.048504	-0.269721	0.905159
C112	C	1.091527	-0.245309	0.693233
C113	C	1.142107	-0.216582	0.669784
C114	C	1.192688	-0.187852	0.693250
C115	C	1.142110	-0.216587	0.622866
C116	C	1.091529	-0.245317	0.599400
C117	C	1.040944	-0.274041	0.622852
C118	C	1.040946	-0.274039	0.669767
C119	C	1.243274	-0.159128	0.669799
C120	C	1.243268	-0.159133	0.622883
C121	C	1.192686	-0.187863	0.599417
C122	C	1.142114	-0.216552	1.099744
C123	C	1.142130	-0.216556	1.049809
H124	H	0.443894	-0.164563	0.268725
O125	O	0.986380	-0.305021	0.695057
H126	H	0.951205	-0.324992	0.670850
O127	O	0.728453	-0.128276	0.305088
H128	H	0.766065	-0.105383	0.285018
O129	O	0.556872	-0.128288	0.305104
H130	H	0.492530	-0.133106	0.300270
H131	H	1.284464	-0.135718	0.744550
H132	H	1.284466	-0.135738	0.603795
H133	H	0.999761	-0.297425	0.829602
H134	H	0.841306	-0.164530	0.268675
O135	O	1.036980	-0.276271	1.051632
H136	H	1.072326	-0.299134	1.073008
H137	H	1.284464	-0.135732	0.688900
H138	H	0.999942	-0.603489	0.135542
O139	O	1.247025	-0.381313	0.276201
H140	H	1.282155	-0.405488	0.296203
H141	H	0.841144	-0.268591	0.164214
O142	O	1.247060	-0.478826	0.276233
H143	H	1.211666	-0.500207	0.299079
H144	H	1.050684	-1.045151	0.164351
O145	O	1.036959	-0.276275	0.954123
H146	H	1.050475	-0.311534	0.963126
O147	O	0.728185	-0.304855	0.127832
H148	H	0.712327	-0.340130	0.135469
O149	O	1.297634	-0.597106	0.305000
H150	H	1.332763	-0.621284	0.324999
H151	H	1.050356	-0.268732	0.387916
H152	H	1.233908	-0.164492	0.387957
O153	O	1.247272	-0.156888	0.479270
H154	H	1.282449	-0.136921	0.455076
O155	O	0.432813	-0.276197	0.156657
H156	H	0.448637	-0.311470	0.164287
H157	H	1.284306	-0.688423	0.297425
H158	H	1.233931	-0.959921	0.268701
H159	H	0.999761	-0.297436	0.603737
O160	O	1.297825	-0.128120	0.835866
H161	H	1.333000	-0.108148	0.811674
O162	O	1.247266	-0.156848	0.954142
H163	H	1.282436	-0.136868	0.978344
O164	O	0.556596	-0.304869	0.127855
H165	H	0.492268	-0.300058	0.132704
H166	H	1.233961	-1.045044	0.268713
H167	H	1.284331	-0.744063	0.297434
H168	H	1.050633	-0.960042	0.164343
O169	O	1.247247	-0.156827	1.051667
H170	H	1.238730	-0.161646	1.088231
H171	H	0.999983	-0.688598	0.135550
O172	O	1.037069	-0.478977	0.156665
H173	H	1.001934	-0.454803	0.136665
H174	H	1.050385	-0.387640	0.164250
H175	H	1.284361	-0.829182	0.297445
H176	H	1.000063	-0.829353	0.135571
H177	H	1.000025	-0.744247	0.135559
H178	H	0.999756	-0.297429	0.744497
H179	H	1.050351	-0.268730	0.473038
