data_functionalizedCrystal
_audit_creation_method	'MofGen! by Chris Wilmer'
_symmetry_space_group_name_H-M	'P1'
_symmetry_Int_Tables_number	1
_symmetry_cell_setting	triclinic
loop_
_symmetry_equiv_pos_as_xyz
  x,y,z
_cell_length_a	19.288867
_cell_length_b	10.723023
_cell_length_c	18.366186
_cell_angle_alpha	89.994813
_cell_angle_beta	89.992441
_cell_angle_gamma	83.802308
loop_
_atom_site_label
_atom_site_type_symbol
_atom_site_fract_x
_atom_site_fract_y
_atom_site_fract_z
O1	O	0.922364	0.155671	-0.060523
O2	O	0.720241	0.176666	-0.060529
O3	O	0.825965	-0.015506	-0.060523
O4	O	0.816640	0.347843	-0.060529
O5	O	0.825947	-0.015515	0.060577
O6	O	0.720222	0.176657	0.060570
O7	O	0.922346	0.155661	0.060577
Zn8	Zn	0.821281	0.166158	0.079801
Zn9	Zn	0.821305	0.166170	-0.079753
O10	O	0.816622	0.347833	0.060570
C11	C	0.694351	0.175986	0.000019
C12	C	0.617234	0.173956	0.000017
C13	C	0.061583	0.159345	-0.065986
C14	C	0.134043	0.161244	-0.065989
C15	C	0.170268	0.162195	0.000023
C16	C	0.134029	0.161213	0.066041
C17	C	0.061572	0.159302	0.066042
C18	C	0.280083	0.238301	0.050594
C19	C	0.352539	0.240221	0.050591
C20	C	0.393752	0.168085	0.000023
C21	C	0.362500	0.094046	-0.050554
C22	C	0.290042	0.092135	-0.050553
C23	C	0.248836	0.164267	0.000029
C24	C	0.508552	0.171117	-0.065995
C25	C	0.581014	0.173008	-0.065995
C26	C	0.580998	0.172990	0.066037
C27	C	0.508538	0.171086	0.066035
C28	C	0.472319	0.170155	0.000017
C29	C	0.825278	-0.061996	0.000026
C30	C	0.823247	-0.200507	0.000024
C31	C	0.822352	-0.262249	-0.062711
C32	C	0.820254	-0.405408	-0.062714
C33	C	0.948236	0.156342	0.000026
C34	C	1.025353	0.158371	0.000024
C35	C	0.817309	0.394323	0.000020
C36	C	0.819339	0.532835	0.000017
N37	N	0.821270	0.166148	0.188692
N38	N	0.821322	0.166169	-0.188644
C39	C	0.868101	0.081096	0.226795
C40	C	0.868105	0.081091	0.303023
C41	C	0.821286	0.166159	0.341144
C42	C	0.774446	0.251217	0.303032
C43	C	0.774439	0.251212	0.226806
C44	C	0.812727	0.279851	0.461903
C45	C	0.812740	0.279858	0.538127
C46	C	0.821305	0.166174	0.576252
C47	C	0.829873	0.052479	0.538142
C48	C	0.829866	0.052474	0.461916
C49	C	0.821289	0.166173	0.423799
C50	C	0.868143	0.081109	0.697010
C51	C	0.868143	0.081102	0.773239
C52	C	0.774487	0.251239	0.773247
C53	C	0.774485	0.251236	0.697019
C54	C	0.821316	0.166172	0.658905
H55	H	0.246533	0.297037	0.091781
H56	H	0.610512	0.173792	-0.119750
H57	H	0.819487	-0.458506	-0.116423
H58	H	0.820113	-0.414077	0.053729
C59	C	0.022127	0.158440	0.137660
C60	C	-0.026787	0.264654	0.141511
C61	C	-0.063144	0.263895	0.207469
H62	H	0.053991	0.159335	0.177037
H63	H	-0.001231	0.084983	0.140405
H64	H	-0.003429	0.338093	0.138772
H65	H	-0.058665	0.263782	0.102148
H66	H	-0.086503	0.190438	0.210215
H67	H	-0.031275	0.264786	0.246842
H68	H	-0.096341	0.335953	0.210088
H69	H	0.163529	0.161985	0.119788
H70	H	0.823135	-0.209123	-0.116417
C71	C	0.822082	-0.271456	0.071588
C72	C	0.761341	-0.331826	0.075374
C73	C	0.760245	-0.397203	0.141286
H74	H	0.822877	-0.214286	0.111006
H75	H	0.861746	-0.332046	0.074305
H76	H	0.721687	-0.271244	0.072663
H77	H	0.760533	-0.389017	0.035970
H78	H	0.799908	-0.457792	0.144004
H79	H	0.761041	-0.340024	0.180699
H80	H	0.719036	-0.438181	0.143861
C81	C	0.723501	0.343433	0.344380
C82	C	0.655154	0.323477	0.325874
C83	C	0.608200	0.408388	0.363956
H84	H	0.731339	0.426734	0.331910
H85	H	0.730167	0.331250	0.395242
H86	H	0.648491	0.335671	0.275023
H87	H	0.647294	0.240193	0.338346
H88	H	0.614866	0.396205	0.414818
H89	H	0.616045	0.491684	0.351483
H90	H	0.561822	0.394852	0.351410
H91	H	0.396054	0.035311	-0.091734
C92	C	0.723576	0.343657	0.814495
C93	C	0.682551	0.418128	0.764805
C94	C	0.635635	0.503265	0.802779
H95	H	0.748727	0.395607	0.844224
H96	H	0.694416	0.298933	0.844225
H97	H	0.711708	0.462849	0.735088
H98	H	0.657385	0.366213	0.735074
H99	H	0.606475	0.458541	0.832509
H100	H	0.660792	0.555206	0.832508
H101	H	0.607790	0.553796	0.769071
C102	C	0.919011	-0.011392	0.655755
C103	C	0.960008	-0.085913	0.705444
C104	C	1.006868	-0.171150	0.667469
H105	H	0.948199	0.033214	0.626007
H106	H	0.893794	-0.063289	0.626043
H107	H	0.985223	-0.034022	0.735143
H108	H	0.930839	-0.130547	0.735193
H109	H	0.981651	-0.223047	0.637757
H110	H	1.036051	-0.126533	0.637723
H111	H	1.034686	-0.221729	0.701177
C112	C	0.918969	-0.011407	0.185547
C113	C	0.959970	-0.085916	0.235238
C114	C	1.006830	-0.171157	0.197265
H115	H	0.948156	0.033198	0.155795
H116	H	0.893753	-0.063310	0.155839
H117	H	0.985185	-0.034019	0.264933
H118	H	0.930803	-0.130548	0.264991
H119	H	0.981614	-0.223060	0.167558
H120	H	1.036012	-0.126542	0.167515
H121	H	1.034650	-0.221729	0.230975
H122	H	0.906241	0.011828	0.334052
C123	C	0.839134	-0.071090	0.420670
C124	C	0.846621	-0.170657	0.470365
C125	C	0.855147	-0.284503	0.432397
H126	H	0.879562	-0.073981	0.390919
H127	H	0.799400	-0.077895	0.390962
H128	H	0.886350	-0.163855	0.500061
H129	H	0.806199	-0.167807	0.500117
H130	H	0.815414	-0.291308	0.402689
H131	H	0.895575	-0.287381	0.402647
H132	H	0.860222	-0.352073	0.466109
C133	C	0.918879	-0.011392	0.814649
C134	C	0.881529	-0.087640	0.858408
C135	C	0.928245	-0.172871	0.896558
H136	H	0.948020	0.033221	0.844436
H137	H	0.946757	-0.062118	0.781051
H138	H	0.853664	-0.036920	0.892002
H139	H	0.852391	-0.132281	0.828639
H140	H	0.956122	-0.223598	0.862960
H141	H	0.957384	-0.128247	0.926340
H142	H	0.902910	-0.224623	0.926247
H143	H	0.736353	0.320498	0.665993
H144	H	0.836848	-0.040093	0.569181
H145	H	0.805767	0.372435	0.569151
H146	H	0.805740	0.372432	0.430868
H147	H	0.736303	0.320473	0.195781
H148	H	0.032099	0.158582	-0.119743
H149	H	0.264600	0.031847	-0.091733
C150	C	0.173338	0.162576	-0.137681
C151	C	0.148423	0.269473	-0.177488
C152	C	0.184609	0.270757	-0.243528
H153	H	0.166447	0.089613	-0.164903
H154	H	0.221679	0.163922	-0.128253
H155	H	0.100093	0.268116	-0.186918
H156	H	0.155314	0.342453	-0.150288
H157	H	0.232950	0.272102	-0.234100
H158	H	0.177716	0.197789	-0.270744
H159	H	0.167713	0.343290	-0.270542
C160	C	0.469353	0.170040	-0.137744
C161	C	0.516598	0.171258	-0.195556
C162	C	0.480517	0.170253	-0.261661
H163	H	0.436139	0.242029	-0.140589
H164	H	0.446051	0.096523	-0.140530
H165	H	0.539888	0.244767	-0.192771
H166	H	0.549814	0.099274	-0.192735
H167	H	0.457215	0.096736	-0.264447
H168	H	0.447303	0.242243	-0.264499
H169	H	0.512567	0.171068	-0.300894
H170	H	0.479039	0.170297	0.119787
C171	C	0.620420	0.173822	0.137655
C172	C	0.669332	0.067605	0.141502
C173	C	0.705669	0.068331	0.207463
H174	H	0.588544	0.172910	0.177030
H175	H	0.643779	0.247277	0.140408
H176	H	0.645974	-0.005831	0.138756
H177	H	0.701222	0.068494	0.102142
H178	H	0.729028	0.141785	0.210217
H179	H	0.673788	0.067422	0.246833
H180	H	0.738864	-0.003730	0.210079
H181	H	0.377977	0.300538	0.091758
