data_functionalizedCrystal
_audit_creation_method	'MofGen! by Chris Wilmer'
_symmetry_space_group_name_H-M	'P1'
_symmetry_Int_Tables_number	1
_symmetry_cell_setting	triclinic
loop_
_symmetry_equiv_pos_as_xyz
  x,y,z
_cell_length_a	14.519731
_cell_length_b	10.489716
_cell_length_c	12.996460
_cell_angle_alpha	90.002092
_cell_angle_beta	90.005673
_cell_angle_gamma	84.108994
loop_
_atom_site_label
_atom_site_type_symbol
_atom_site_fract_x
_atom_site_fract_y
_atom_site_fract_z
O1	O	1.224758	0.167335	0.085560
O2	O	0.956389	0.186997	0.085560
O3	O	1.096692	-0.008497	0.085564
O4	O	1.084455	0.362829	0.085556
O5	O	1.096677	-0.008508	-0.085570
O6	O	0.956375	0.186986	-0.085574
O7	O	1.224743	0.167324	-0.085574
Cu8	Cu	1.090557	0.177154	-0.101200
Cu9	Cu	1.090575	0.177167	0.101186
O10	O	1.084440	0.362818	-0.085578
C11	C	0.922018	0.186070	-0.000007
C12	C	0.819623	0.183310	-0.000006
C13	C	0.736466	0.181066	-0.000002
C14	C	0.632142	0.178264	-0.000001
C15	C	0.548991	0.176039	-0.000001
C16	C	0.444661	0.173236	0.000001
C17	C	1.095765	-0.056025	-0.000000
C18	C	1.093014	-0.197628	0.000009
C19	C	1.179052	-0.296189	-0.000000
C20	C	1.133595	-0.373075	0.084375
C21	C	1.133561	-0.373050	-0.084350
C22	C	1.047593	-0.272649	0.084454
C23	C	1.047571	-0.272618	-0.084346
C24	C	1.002051	-0.349454	0.000050
C25	C	1.259115	0.168251	-0.000005
C26	C	1.361510	0.171012	0.000001
C27	C	1.085367	0.410346	-0.000012
C28	C	1.088118	0.551949	-0.000014
N29	N	1.090552	0.177144	-0.243547
C30	C	1.090574	0.177168	-0.663361
C31	C	1.090565	0.177166	-0.546556
C32	C	1.090563	0.177157	-0.453458
C33	C	1.090554	0.177153	-0.336645
N34	N	1.090588	0.177167	0.243533
H35	H	1.253891	-0.272285	0.000085
H36	H	1.169921	-0.416941	0.155710
H37	H	1.011277	-0.228730	-0.155683
H38	H	1.011299	-0.228966	0.155866
H39	H	1.169893	-0.416902	-0.155681
H40	H	0.927156	-0.373112	0.000095
