data_functionalizedCrystal
_audit_creation_method	'MofGen! by Chris Wilmer'
_symmetry_space_group_name_H-M	'P1'
_symmetry_Int_Tables_number	1
_symmetry_cell_setting	triclinic
loop_
_symmetry_equiv_pos_as_xyz
  x,y,z
_cell_length_a	12.594517
_cell_length_b	12.594516
_cell_length_c	18.215399
_cell_angle_alpha	89.976218
_cell_angle_beta	89.987021
_cell_angle_gamma	90.011773
loop_
_atom_site_label
_atom_site_type_symbol
_atom_site_fract_x
_atom_site_fract_y
_atom_site_fract_z
Zn1	Zn	1.627284	-0.423754	-0.416003
Zn2	Zn	1.627192	-0.601752	-0.292945
Zn3	Zn	1.449292	-0.423788	-0.292965
Zn4	Zn	1.449284	-0.601691	-0.415985
O5	O	1.538263	-0.512746	-0.354474
O6	O	1.776218	-0.447378	-0.399678
O7	O	1.603559	-0.578184	-0.189964
O8	O	1.472945	-0.274837	-0.309301
O9	O	1.776150	-0.578152	-0.309268
O10	O	1.603715	-0.274813	-0.399697
O11	O	1.472856	-0.447434	-0.189978
O12	O	1.300345	-0.447375	-0.309284
O13	O	1.472930	-0.578048	-0.518972
O14	O	1.300339	-0.578080	-0.399667
O15	O	1.603707	-0.447319	-0.518985
O16	O	1.603550	-0.750690	-0.309251
O17	O	1.472841	-0.750645	-0.399648
C18	C	1.261722	-0.512726	-0.354476
C19	C	1.143417	-0.512742	-0.354494
C20	C	1.003427	-0.583962	-0.403562
C21	C	1.074202	-0.609862	-0.336397
C22	C	1.074214	-0.486889	-0.421652
C23	C	1.003406	-0.538728	-0.287271
C24	C	1.003411	-0.415710	-0.372572
C25	C	1.074154	-0.441573	-0.305361
C26	C	1.538214	-0.789287	-0.354462
C27	C	1.538290	-0.907593	-0.354481
C28	C	1.609465	-0.976831	-0.305366
C29	C	1.635474	-1.047535	-0.372535
C30	C	1.512415	-1.047688	-0.287355
C31	C	1.564348	-0.976738	-0.421685
C32	C	1.441244	-0.976885	-0.336459
C33	C	1.467216	-1.047556	-0.403674
C34	C	1.815884	-0.512768	-0.354473
C35	C	1.934189	-0.512777	-0.354472
C36	C	1.538328	-0.512673	-0.546427
C37	C	1.538356	-0.512642	-0.628226
C38	C	1.538342	-0.235125	-0.354503
C39	C	1.538375	-0.116820	-0.354516
C40	C	1.606475	-0.444507	-0.816428
C41	C	1.606488	-0.444476	-0.893287
C42	C	1.470311	-0.580611	-0.893262
C43	C	1.470294	-0.580636	-0.816405
C44	C	1.538382	-0.512586	-0.777990
C45	C	1.538412	-0.512530	-0.931706
C46	C	1.538425	-0.512497	-1.015040
C47	C	1.538368	-0.512617	-0.694651
C48	C	1.538260	-0.512742	-0.163268
C49	C	1.538438	-0.512474	-0.081470
H50	H	1.105296	-0.691936	-0.321091
C51	C	0.961359	-0.304868	-0.393273
C52	C	0.989246	-0.256161	-0.468400
C53	C	0.947191	-0.145319	-0.489110
C54	C	0.877250	-0.083186	-0.434692
C55	C	0.849360	-0.131893	-0.359560
C56	C	0.891415	-0.242734	-0.338850
H57	H	1.041024	-0.302156	-0.508687
H58	H	0.967838	-0.109263	-0.544728
H59	H	0.846119	-0.001134	-0.450023
H60	H	0.797582	-0.085897	-0.319273
H61	H	0.870768	-0.278790	-0.283232
C62	C	1.690784	-0.934866	-0.249307
C63	C	1.809206	-0.962754	-0.257701
C64	C	1.890526	-0.920787	-0.201646
C65	C	1.853424	-0.850932	-0.137197
C66	C	1.734996	-0.823041	-0.128799
C67	C	1.653676	-0.865008	-0.184854
H68	H	1.836677	-1.014468	-0.305414
H69	H	1.978195	-0.941434	-0.207863
H70	H	1.913622	-0.819865	-0.095701
H71	H	1.707525	-0.771327	-0.081087
H72	H	1.566007	-0.844360	-0.178637
C73	C	1.395382	-0.655520	-0.774113
C74	C	1.441464	-0.739095	-0.721258
C75	C	1.366550	-0.813967	-0.678965
C76	C	1.245556	-0.805264	-0.689526
C77	C	1.199468	-0.721685	-0.742384
C78	C	1.274381	-0.646813	-0.784677
H79	H	1.531037	-0.745541	-0.713438
H80	H	1.400668	-0.875838	-0.639836
H81	H	1.190100	-0.860689	-0.658218
H82	H	1.109895	-0.715239	-0.750204
H83	H	1.240263	-0.584942	-0.823806
H84	H	0.972434	-0.560709	-0.230452
H85	H	1.414878	-0.636018	-0.924549
C86	C	1.385958	-1.089256	-0.459869
C87	C	1.422844	-1.160496	-0.523649
C88	C	1.341595	-1.202198	-0.579847
C89	C	1.223459	-1.172661	-0.572265
C90	C	1.186566	-1.101418	-0.508482
C91	C	1.267816	-1.059715	-0.452284
H92	H	1.510301	-1.182364	-0.529264
H93	H	1.368906	-1.254937	-0.627064
H94	H	1.163314	-1.203532	-0.613866
H95	H	1.099110	-1.079550	-0.502866
H96	H	1.240505	-1.006976	-0.405067
C97	C	1.681361	-0.369645	-0.774171
C98	C	1.756257	-0.294755	-0.816456
C99	C	1.831142	-0.219887	-0.774201
C100	C	1.831131	-0.219910	-0.689661
C101	C	1.756232	-0.294803	-0.647371
C102	C	1.681347	-0.369670	-0.689626
H103	H	1.756268	-0.294735	-0.879042
H104	H	1.886587	-0.164447	-0.805508
H105	H	1.886566	-0.164489	-0.658382
H106	H	1.756222	-0.294822	-0.584785
H107	H	1.625902	-0.425111	-0.658320
C108	C	1.116230	-0.457318	-0.498389
C109	C	1.186164	-0.358056	-0.508427
C110	C	1.228176	-0.328495	-0.585164
C111	C	1.200254	-0.398196	-0.651864
C112	C	1.130317	-0.497464	-0.641829
C113	C	1.088304	-0.527025	-0.565091
H114	H	1.206837	-0.306454	-0.459049
H115	H	1.279949	-0.255010	-0.592593
H116	H	1.231354	-0.376313	-0.708670
H117	H	1.109644	-0.549067	-0.691206
H118	H	1.036532	-0.600510	-0.557663
H119	H	1.717580	-1.078571	-0.387798
H120	H	1.359162	-0.945826	-0.321176
C121	C	0.961462	-0.665360	-0.459561
C122	C	0.989425	-0.783758	-0.451102
C123	C	0.947458	-0.865158	-0.507097
C124	C	0.877529	-0.828160	-0.571550
C125	C	0.849562	-0.709757	-0.580012
C126	C	0.891529	-0.628357	-0.524018
H127	H	1.041194	-0.811151	-0.403387
H128	H	0.968161	-0.952808	-0.500832
H129	H	0.846462	-0.888417	-0.613001
H130	H	0.797793	-0.682363	-0.627727
H131	H	0.870826	-0.540706	-0.530282
H132	H	1.490494	-1.078852	-0.230572
H133	H	1.586187	-0.945705	-0.478516
C134	C	1.681395	-0.369590	-0.935569
C135	C	1.802390	-0.378290	-0.925008
C136	C	1.877299	-0.303398	-0.967289
C137	C	1.831212	-0.219806	-1.020130
C138	C	1.710211	-0.211103	-1.030693
C139	C	1.635302	-0.285995	-0.988412
H140	H	1.836511	-0.440172	-0.885890
H141	H	1.966872	-0.309841	-0.959469
H142	H	1.886664	-0.164367	-1.051429
H143	H	1.676089	-0.149221	-1.069811
H144	H	1.545729	-0.279552	-0.996231
H145	H	1.105013	-0.381360	-0.263808
