data_functionalizedCrystal
_audit_creation_method	'MofGen! by Chris Wilmer'
_symmetry_space_group_name_H-M	'P1'
_symmetry_Int_Tables_number	1
_symmetry_cell_setting	triclinic
loop_
_symmetry_equiv_pos_as_xyz
  x,y,z
_cell_length_a	14.519709
_cell_length_b	10.654550
_cell_length_c	9.730223
_cell_angle_alpha	89.998978
_cell_angle_beta	90.007176
_cell_angle_gamma	95.917462
loop_
_atom_site_label
_atom_site_type_symbol
_atom_site_fract_x
_atom_site_fract_y
_atom_site_fract_z
O1	O	0.129535	-1.666595	0.114191
O2	O	0.141875	-1.300998	0.114216
O3	O	0.001517	-1.493490	0.114190
O4	O	0.269893	-1.474103	0.114216
O5	O	0.001508	-1.493474	-0.114390
O6	O	0.141867	-1.300983	-0.114364
O7	O	0.129526	-1.666580	-0.114389
Zn8	Zn	0.135695	-1.483779	-0.150669
Zn9	Zn	0.135706	-1.483799	0.150495
O10	O	0.269885	-1.474088	-0.114363
C11	C	0.140965	-1.254201	-0.000071
C12	C	0.138254	-1.114784	-0.000061
C13	C	-0.032852	-1.492579	-0.000100
C14	C	-0.135247	-1.489871	-0.000100
C15	C	0.130436	-1.713377	-0.000099
C16	C	0.133147	-1.852794	-0.000100
C17	C	-0.510195	-1.479904	-0.000064
C18	C	-0.405872	-1.482672	-0.000075
C19	C	-0.322724	-1.484887	-0.000083
C20	C	-0.218395	-1.487656	-0.000091
C21	C	0.304253	-1.474999	-0.000070
C22	C	0.406649	-1.477706	-0.000061
N23	N	0.135687	-1.483774	-0.356205
C24	C	0.220895	-1.034504	-0.000057
C25	C	0.218342	-0.903507	-0.000081
C26	C	0.050500	-0.933084	-0.000108
C27	C	0.053054	-1.064078	-0.000094
C28	C	0.079248	-1.407519	-0.572068
C29	C	0.079235	-1.407503	-0.428185
C30	C	0.192149	-1.560077	-0.428115
C31	C	0.192156	-1.560099	-0.571996
N32	N	0.135707	-1.483813	0.356032
H33	H	0.285637	-0.838147	-0.000081
N34	N	0.018360	-1.325254	-0.649699
H35	H	-0.017411	-1.276924	-0.582312
H36	H	-0.026345	-1.379926	-0.709396
N37	N	-0.041384	-0.878377	-0.000126
H38	H	-0.077627	-0.907633	0.084605
H39	H	-0.077558	-0.907654	-0.084921
H40	H	-0.014247	-1.129446	-0.000101
H41	H	0.033259	-1.345378	-0.369650
H42	H	0.238108	-1.622184	-0.369498
H43	H	0.238133	-1.622234	-0.630538
H44	H	0.290270	-1.075783	-0.000041
