data_functionalizedCrystal
_audit_creation_method	'MofGen! by Chris Wilmer'
_symmetry_space_group_name_H-M	'P1'
_symmetry_Int_Tables_number	1
_symmetry_cell_setting	triclinic
loop_
_symmetry_equiv_pos_as_xyz
  x,y,z
_cell_length_a	14.971486
_cell_length_b	15.944551
_cell_length_c	13.448316
_cell_angle_alpha	89.992444
_cell_angle_beta	89.998199
_cell_angle_gamma	83.556434
loop_
_atom_site_label
_atom_site_type_symbol
_atom_site_fract_x
_atom_site_fract_y
_atom_site_fract_z
O1	O	1.186829	0.109463	-0.082580
O2	O	0.926415	0.122572	-0.082607
O3	O	1.063733	-0.006250	-0.082584
O4	O	1.049511	0.238286	-0.082603
O5	O	1.063716	-0.006258	0.082800
O6	O	0.926398	0.122564	0.082777
O7	O	1.186812	0.109456	0.082804
Cu8	Cu	1.056603	0.116009	0.097891
Cu9	Cu	1.056624	0.116018	-0.097694
O10	O	1.049494	0.238278	0.082781
C11	C	0.893082	0.121982	0.000081
C12	C	0.793787	0.120225	0.000071
C13	C	0.736480	0.195904	0.000067
C14	C	0.643182	0.194249	0.000082
C15	C	0.607194	0.116913	0.000094
C16	C	0.664508	0.041227	0.000102
C17	C	0.757804	0.042884	0.000094
C18	C	0.470049	0.037780	0.000116
C19	C	0.376747	0.036123	0.000122
C20	C	0.355428	0.189145	0.000104
C21	C	0.448724	0.190801	0.000096
C22	C	0.506032	0.115116	0.000101
C23	C	1.063134	-0.037549	0.000108
C24	C	1.061364	-0.130797	0.000109
C25	C	0.972017	-0.345738	0.000086
C26	C	1.013498	-0.406720	0.081634
C27	C	1.058162	-0.301526	0.000101
C28	C	1.013536	-0.406696	-0.081421
C29	C	1.055062	-0.466441	0.000089
C30	C	1.099667	-0.361279	0.081717
C31	C	1.099692	-0.361248	-0.081412
C32	C	1.141236	-0.422212	0.000156
C33	C	1.059945	-0.206522	0.000109
C34	C	1.053286	-0.561444	0.000088
C35	C	1.220145	0.110046	0.000113
C36	C	1.319440	0.111802	0.000117
C37	C	1.050093	0.269576	0.000087
C38	C	1.051863	0.362824	0.000080
N39	N	1.056595	0.116002	0.235456
N40	N	1.056639	0.116019	-0.235258
C41	C	1.117419	0.058983	0.287506
C42	C	1.117425	0.058982	0.391610
C43	C	1.056610	0.116005	0.443660
C44	C	0.995780	0.173027	0.391602
C45	C	0.995771	0.173023	0.287501
C46	C	0.995805	0.173033	0.608582
C47	C	0.995815	0.173038	0.712691
C48	C	1.117459	0.058992	0.712691
C49	C	1.117449	0.058988	0.608590
C50	C	1.056620	0.116011	0.556539
H51	H	0.516708	-0.023852	0.000122
H52	H	0.596526	0.255875	0.000077
H53	H	0.347448	-0.026851	0.000133
C54	C	1.251574	-0.516856	-0.085218
C55	C	1.237858	-0.466863	0.000201
H56	H	1.311228	-0.544409	-0.085195
H57	H	1.210202	-0.557866	-0.085782
H58	H	1.242606	-0.482194	-0.142609
H59	H	1.246819	-0.501526	0.057591
H60	H	1.279242	-0.425848	0.000774
C61	C	1.239148	0.040963	0.508676
C62	C	1.184284	-0.003688	0.448833
H63	H	1.280421	0.002270	0.544009
H64	H	1.271314	0.075970	0.468053
H65	H	1.202915	0.074921	0.554564
H66	H	1.220517	-0.037641	0.402940
H67	H	1.152116	-0.038709	0.489460
C68	C	0.910289	-0.022521	0.000096
C69	C	0.820801	-0.040305	0.000098
H70	H	0.949178	-0.073881	0.000108
H71	H	0.921192	0.009181	-0.057579
H72	H	0.921188	0.009188	0.057767
H73	H	0.809900	-0.072008	-0.057578
H74	H	0.809893	-0.072020	0.057779
C75	C	0.202949	0.254560	0.000115
C76	C	0.292438	0.272341	0.000099
H77	H	0.164061	0.305921	0.000113
H78	H	0.192041	0.222856	-0.057545
H79	H	0.192051	0.222855	0.057801
H80	H	0.303338	0.304041	-0.057591
H81	H	0.303350	0.304059	0.057766
H82	H	1.136104	-0.341080	-0.150351
C83	C	0.875755	-0.394856	-0.174335
C84	C	0.964346	-0.433852	-0.174494
H85	H	0.845387	-0.411615	-0.231795
H86	H	0.845738	-0.411192	-0.116442
H87	H	0.876062	-0.335312	-0.174676
H88	H	0.964039	-0.493397	-0.174145
H89	H	0.994370	-0.417521	-0.232402
H90	H	0.635199	-0.021741	0.000126
H91	H	0.946241	0.219452	0.245122
H92	H	0.478022	0.253775	0.000076
H93	H	0.765774	0.258881	0.000056
H94	H	0.900512	-0.312499	0.000160
H95	H	0.977055	-0.426866	0.150570
C96	C	1.237651	-0.053752	0.297974
C97	C	1.184267	-0.003702	0.230297
H98	H	1.278916	-0.092456	0.262655
H99	H	1.269827	-0.018736	0.338561
H100	H	1.200412	-0.084018	0.338592
H101	H	1.221506	0.026570	0.189684
H102	H	1.152090	-0.038722	0.189693
H103	H	1.166973	0.012560	0.566210
C104	C	1.149971	-0.246571	0.174078
C105	C	1.148799	-0.334258	0.174895
H106	H	1.180295	-0.229890	0.231607
H107	H	1.180373	-0.230651	0.116256
H108	H	1.090036	-0.219707	0.173836
H109	H	1.208734	-0.361123	0.175130
H110	H	1.118399	-0.350187	0.232733
H111	H	0.946269	0.219464	0.566206
H112	H	1.166987	0.012562	0.755077
C113	C	0.875544	0.285740	0.702240
C114	C	0.928951	0.235702	0.769907
H115	H	0.834259	0.324419	0.737566
H116	H	0.912759	0.316027	0.661632
H117	H	0.843384	0.250708	0.661642
H118	H	0.961116	0.270734	0.810501
H119	H	0.891732	0.205413	0.810533
H120	H	0.946260	0.219453	0.433988
