data_functionalizedCrystal
_audit_creation_method	'MofGen! by Chris Wilmer'
_symmetry_space_group_name_H-M	'P1'
_symmetry_Int_Tables_number	1
_symmetry_cell_setting	triclinic
loop_
_symmetry_equiv_pos_as_xyz
  x,y,z
_cell_length_a	10.723022
_cell_length_b	10.723024
_cell_length_c	9.798715
_cell_angle_alpha	89.998022
_cell_angle_beta	89.996609
_cell_angle_gamma	84.467548
loop_
_atom_site_label
_atom_site_type_symbol
_atom_site_fract_x
_atom_site_fract_y
_atom_site_fract_z
O1	O	1.657188	0.175015	-0.113478
O2	O	2.157188	0.675015	0.386522
O3	O	1.294036	0.191770	-0.113483
O4	O	1.794036	0.691770	0.386517
O5	O	1.483989	0.001817	-0.113475
O6	O	1.983989	0.501817	0.386525
O7	O	1.467236	0.364969	-0.113486
O8	O	1.967236	0.864969	0.386514
O9	O	1.483975	0.001816	0.113507
O10	O	1.983975	0.501816	0.613507
O11	O	1.294022	0.191770	0.113499
O12	O	1.794022	0.691770	0.613499
O13	O	1.657174	0.175015	0.113504
O14	O	2.157174	0.675015	0.613504
Zn15	Zn	1.475596	0.183392	0.149540
Zn16	Zn	1.975596	0.683392	0.649540
Zn17	Zn	1.475614	0.183393	-0.149519
Zn18	Zn	1.975614	0.683393	0.350481
O19	O	1.467221	0.364969	0.113496
O20	O	1.967221	0.864969	0.613496
C21	C	1.247529	0.190551	0.000008
C22	C	1.747529	0.690551	0.500008
C23	C	1.108975	0.186904	0.000006
C24	C	1.608975	0.686904	0.500006
C25	C	0.890796	0.289421	0.000001
C26	C	1.390796	0.789421	0.500001
C27	C	1.033999	0.293192	0.000002
C28	C	1.533999	0.793192	0.500002
C29	C	1.482763	-0.044683	0.000014
C30	C	1.982763	0.455317	0.500014
C31	C	1.479115	-0.183238	0.000009
C32	C	1.979115	0.316762	0.500009
C33	C	1.585403	-0.258221	0.000009
C34	C	2.085403	0.241779	0.500009
C35	C	1.581635	-0.401424	0.000004
C36	C	2.081635	0.098576	0.500004
C37	C	1.703681	0.176234	0.000010
C38	C	2.203681	0.676234	0.500010
C39	C	1.842235	0.179881	0.000003
C40	C	2.342235	0.679881	0.500003
C41	C	1.468448	0.411468	0.000004
C42	C	1.968448	0.911468	0.500004
C43	C	1.472095	0.550023	-0.000000
C44	C	1.972095	1.050023	0.500000
N45	N	1.475592	0.183391	0.353640
N46	N	1.975592	0.683391	0.853640
N47	N	1.475628	0.183384	-0.353619
N48	N	1.975628	0.683384	0.146381
C49	C	1.555348	0.103283	0.421420
C50	C	2.055348	0.603283	0.921420
C51	C	1.555368	0.103279	0.578582
C52	C	2.055368	0.603279	1.078582
H53	H	1.067171	0.093113	-0.000028
H54	H	1.567171	0.593113	0.499972
Br55	Br	1.669193	-0.011029	0.675725
Br56	Br	2.169193	0.488971	1.175725
Br57	Br	1.361819	0.297715	0.549248
Br58	Br	1.861819	0.797715	1.049248
Br59	Br	0.949631	0.028217	-0.000008
Br60	Br	1.449631	0.528217	0.499992
Br61	Br	0.783400	0.441085	-0.000026
Br62	Br	1.283400	0.941085	0.499974
H63	H	1.623612	0.034697	0.363100
H64	H	2.123612	0.534697	0.863100
H65	H	1.679188	-0.216399	0.000018
H66	H	2.179188	0.283601	0.500018
Br67	Br	1.320423	-0.342600	0.000017
Br68	Br	1.820423	0.157400	0.500017
H69	H	1.672625	-0.465857	0.000009
H70	H	2.172625	0.034143	0.500009
H71	H	1.385329	-0.225059	-0.000001
H72	H	1.885329	0.274941	0.499999
H73	H	1.075811	0.386980	0.000008
H74	H	1.575811	0.886980	0.500008
H75	H	1.407320	0.251967	0.411961
H76	H	1.907320	0.751967	0.911961
