data_functionalizedCrystal
_audit_creation_method	'MofGen! by Chris Wilmer'
_symmetry_space_group_name_H-M	'P1'
_symmetry_Int_Tables_number	1
_symmetry_cell_setting	triclinic
loop_
_symmetry_equiv_pos_as_xyz
  x,y,z
_cell_length_a	18.215407
_cell_length_b	19.121449
_cell_length_c	18.215399
_cell_angle_alpha	92.467880
_cell_angle_beta	90.019833
_cell_angle_gamma	87.585577
loop_
_atom_site_label
_atom_site_type_symbol
_atom_site_fract_x
_atom_site_fract_y
_atom_site_fract_z
Zn1	Zn	1.137562	-0.279608	0.403625
Zn2	Zn	1.387562	-0.029608	0.653625
Zn3	Zn	1.637562	0.220392	0.903625
Zn4	Zn	1.887562	0.470392	1.153625
Zn5	Zn	1.142717	-0.397061	0.275311
Zn6	Zn	1.392717	-0.147061	0.525311
Zn7	Zn	1.642717	0.102939	0.775311
Zn8	Zn	1.892717	0.352939	1.025311
Zn9	Zn	1.014496	-0.279631	0.280571
Zn10	Zn	1.264496	-0.029631	0.530571
Zn11	Zn	1.514496	0.220369	0.780571
Zn12	Zn	1.764496	0.470369	1.030571
Zn13	Zn	1.019706	-0.397022	0.398338
Zn14	Zn	1.269706	-0.147022	0.648338
Zn15	Zn	1.519706	0.102978	0.898338
Zn16	Zn	1.769706	0.352978	1.148338
O17	O	1.078620	-0.338330	0.339461
O18	O	1.328620	-0.088330	0.589461
O19	O	1.578620	0.161670	0.839461
O20	O	1.828620	0.411670	1.089461
O21	O	1.241231	-0.295195	0.386615
O22	O	1.491231	-0.045195	0.636615
O23	O	1.741231	0.204805	0.886615
O24	O	1.991231	0.454805	1.136615
O25	O	1.125685	-0.381510	0.173023
O26	O	1.375685	-0.131510	0.423023
O27	O	1.625685	0.118490	0.673023
O28	O	1.875685	0.368490	0.923023
O29	O	1.026483	-0.181345	0.301308
O30	O	1.276483	0.068655	0.551308
O31	O	1.526483	0.318655	0.801308
O32	O	1.776483	0.568655	1.051308
O33	O	1.245018	-0.381487	0.292343
O34	O	1.495018	-0.131487	0.542343
O35	O	1.745018	0.118513	0.792343
O36	O	1.995018	0.368513	1.042343
O37	O	1.116899	-0.181328	0.391715
O38	O	1.366899	0.068672	0.641715
O39	O	1.616899	0.318672	0.891715
O40	O	1.866899	0.568672	1.141715
O41	O	1.031482	-0.295234	0.176888
O42	O	1.281482	-0.045234	0.426888
O43	O	1.531482	0.204766	0.676888
O44	O	1.781482	0.454766	0.926888
O45	O	0.912202	-0.295196	0.296182
O46	O	1.162202	-0.045196	0.546182
O47	O	1.412202	0.204804	0.796182
O48	O	1.662202	0.454804	1.046182
O49	O	1.035362	-0.381421	0.502025
O50	O	1.285362	-0.131421	0.752025
O51	O	1.535362	0.118579	1.002025
O52	O	1.785362	0.368579	1.252025
O53	O	0.916030	-0.381443	0.382704
O54	O	1.166030	-0.131443	0.632704
O55	O	1.416030	0.118557	0.882704
O56	O	1.666030	0.368557	1.132704
O57	O	1.121951	-0.295157	0.505909
O58	O	1.371951	-0.045157	0.755909
O59	O	1.621951	0.204843	1.005909
O60	O	1.871951	0.454843	1.255909
O61	O	1.130737	-0.495339	0.287217
O62	O	1.380737	-0.245339	0.537217
O63	O	1.630737	0.004661	0.787217
O64	O	1.880737	0.254661	1.037217
O65	O	1.040361	-0.495310	0.377604
O66	O	1.290361	-0.245310	0.627604
O67	O	1.540361	0.004690	0.877604
O68	O	1.790361	0.254690	1.127604
C69	C	0.887413	-0.338318	0.339440
C70	C	1.137413	-0.088318	0.589440
C71	C	1.387413	0.161682	0.839440
C72	C	1.637413	0.411682	1.089440
C73	C	0.805615	-0.338330	0.339448
C74	C	1.055615	-0.088330	0.589448
C75	C	1.305615	0.161670	0.839448
C76	C	1.555615	0.411670	1.089448
C77	C	0.619437	-0.383309	0.384439
C78	C	0.869437	-0.133309	0.634439
C79	C	1.119437	0.116691	0.884439
C80	C	1.369437	0.366691	1.134439
C81	C	0.542578	-0.383312	0.384448
C82	C	0.792578	-0.133312	0.634448
C83	C	1.042578	0.116688	0.884448
C84	C	1.292578	0.366688	1.134448
C85	C	0.538556	-0.293364	0.294499
C86	C	0.788556	-0.043364	0.544499
C87	C	1.038556	0.206636	0.794499
C88	C	1.288556	0.456636	1.044499
C89	C	0.615414	-0.293359	0.294494
C90	C	0.865414	-0.043359	0.544494
C91	C	1.115414	0.206641	0.794494
C92	C	1.365414	0.456641	1.044494
C93	C	0.655852	-0.338336	0.339463
C94	C	0.905852	-0.088336	0.589463
C95	C	1.155852	0.161664	0.839463
C96	C	1.405852	0.411664	1.089463
C97	C	0.502136	-0.338343	0.339477
C98	C	0.752136	-0.088343	0.589477
C99	C	1.002136	0.161657	0.839477
C100	C	1.252136	0.411657	1.089477
C101	C	0.418802	-0.338345	0.339486
C102	C	0.668802	-0.088345	0.589486
C103	C	0.918802	0.161655	0.839486
C104	C	1.168802	0.411655	1.089486
C105	C	0.739191	-0.338333	0.339455
C106	C	0.989191	-0.088333	0.589455
C107	C	1.239191	0.161667	0.839455
C108	C	1.489191	0.411667	1.089455
C109	C	1.086694	-0.520808	0.331282
C110	C	1.336694	-0.270808	0.581282
C111	C	1.586694	-0.020808	0.831282
C112	C	1.836694	0.229192	1.081282
C113	C	1.090215	-0.598873	0.327808
C114	C	1.340215	-0.348873	0.577808
C115	C	1.590215	-0.098873	0.827808
C116	C	1.840215	0.151127	1.077808
C117	C	1.044783	-0.635558	0.373196
C118	C	1.294783	-0.385558	0.623196
C119	C	1.544783	-0.135558	0.873196
C120	C	1.794783	0.114442	1.123196
C121	C	1.048095	-0.708908	0.369929
C122	C	1.298095	-0.458908	0.619929
C123	C	1.548095	-0.208908	0.869929
C124	C	1.798095	0.041092	1.119929
C125	C	1.096843	-0.745571	0.321276
C126	C	1.346843	-0.495571	0.571276
C127	C	1.596843	-0.245571	0.821276
C128	C	1.846843	0.004429	1.071276
C129	C	1.142277	-0.708881	0.275883
C130	C	1.392277	-0.458881	0.525883
C131	C	1.642277	-0.208881	0.775883
C132	C	1.892277	0.041119	1.025883
C133	C	1.138961	-0.635532	0.279147
C134	C	1.388961	-0.385532	0.529147
C135	C	1.638961	-0.135532	0.779147
C136	C	1.888961	0.114468	1.029147
C137	C	1.109207	-0.967036	0.309064
C138	C	1.359207	-0.717036	0.559064
C139	C	1.609207	-0.467036	0.809064
C140	C	1.859207	-0.217036	1.059064
C141	C	1.112522	-1.040390	0.305805
C142	C	1.362522	-0.790390	0.555805
C143	C	1.612522	-0.540390	0.805805
C144	C	1.862522	-0.290390	1.055805
C145	C	1.018339	-1.040413	0.399851
C146	C	1.268339	-0.790413	0.649851
C147	C	1.518339	-0.540413	0.899851
C148	C	1.768339	-0.290413	1.149851
C149	C	1.015030	-0.967063	0.403114
C150	C	1.265030	-0.717063	0.653114
C151	C	1.515030	-0.467063	0.903114
C152	C	1.765030	-0.217063	1.153114
C153	C	1.060461	-0.930378	0.357718
C154	C	1.310461	-0.680378	0.607718
C155	C	1.560461	-0.430378	0.857718
C156	C	1.810461	-0.180378	1.107718
C157	C	1.100231	-0.820547	0.317937
C158	C	1.350231	-0.570547	0.567937
C159	C	1.600231	-0.320547	0.817937
C160	C	1.850231	-0.070547	1.067937
C161	C	1.057069	-0.855404	0.361054
C162	C	1.307069	-0.605404	0.611054
C163	C	1.557069	-0.355404	0.861054
C164	C	1.807069	-0.105404	1.111054
C165	C	1.270574	-0.338343	0.339482
C166	C	1.520574	-0.088343	0.589482
C167	C	1.770574	0.161657	0.839482
C168	C	2.020574	0.411657	1.089482
C169	C	1.352373	-0.338348	0.339491
C170	C	1.602373	-0.088348	0.589491
C171	C	1.852373	0.161652	0.839491
C172	C	2.102373	0.411652	1.089491
C173	C	1.078663	-0.338282	0.531416
C174	C	1.328663	-0.088282	0.781416
C175	C	1.578663	0.161718	1.031416
C176	C	1.828663	0.411718	1.281416
C177	C	1.078681	-0.338261	0.613216
C178	C	1.328681	-0.088261	0.863216
C179	C	1.578681	0.161739	1.113216
C180	C	1.828681	0.411739	1.363216
C181	C	1.070535	-0.155140	0.347688
C182	C	1.320535	0.094860	0.597688
C183	C	1.570535	0.344860	0.847688
C184	C	1.820535	0.594860	1.097688
C185	C	1.067090	-0.077076	0.351194
C186	C	1.317090	0.172924	0.601194
C187	C	1.567090	0.422924	0.851194
C188	C	1.817090	0.672924	1.101194
C189	C	1.078618	-0.338328	0.148255
C190	C	1.328618	-0.088328	0.398255
C191	C	1.578618	0.161672	0.648255
C192	C	1.828618	0.411672	0.898255
C193	C	1.078733	-0.338151	0.066464
C194	C	1.328733	-0.088151	0.316464
C195	C	1.578733	0.161849	0.566464
C196	C	1.828733	0.411849	0.816464
C197	C	1.123783	-0.293302	0.803436
C198	C	1.373783	-0.043302	1.053436
C199	C	1.623783	0.206698	1.303436
C200	C	1.873783	0.456698	1.553436
C201	C	1.123791	-0.293281	0.880295
C202	C	1.373791	-0.043281	1.130295
C203	C	1.623791	0.206719	1.380295
C204	C	1.873791	0.456719	1.630295
C205	C	1.033626	-0.383112	0.876239
C206	C	1.283626	-0.133112	1.126239
C207	C	1.533626	0.116888	1.376239
C208	C	1.783626	0.366888	1.626239
C209	C	1.033615	-0.383128	0.799381
C210	C	1.283615	-0.133128	1.049381
C211	C	1.533615	0.116872	1.299381
C212	C	1.783615	0.366872	1.549381
C213	C	1.078698	-0.338224	0.762981
C214	C	1.328698	-0.088224	1.012981
C215	C	1.578698	0.161776	1.262981
C216	C	1.828698	0.411776	1.512981
C217	C	1.078717	-0.338188	0.916699
C218	C	1.328717	-0.088188	1.166699
C219	C	1.578717	0.161812	1.416699
C220	C	1.828717	0.411812	1.666699
C221	C	1.078725	-0.338166	1.000034
C222	C	1.328725	-0.088166	1.250034
C223	C	1.578725	0.161834	1.500034
C224	C	1.828725	0.411834	1.750034
C225	C	1.078689	-0.338245	0.679641
C226	C	1.328689	-0.088245	0.929641
C227	C	1.578689	0.161755	1.179641
C228	C	1.828689	0.411755	1.429641
H229	H	0.645063	-0.256732	0.257870
H230	H	0.895063	-0.006732	0.507870
H231	H	1.145063	0.243268	0.757870
H232	H	1.395063	0.493268	1.007870
H233	H	0.505622	-0.256747	0.257886
H234	H	0.755622	-0.006747	0.507886
H235	H	1.005622	0.243253	0.757886
H236	H	1.255622	0.493253	1.007886
Cl237	Cl	0.976959	-0.439563	0.922004
Cl238	Cl	1.226959	-0.189563	1.172004
Cl239	Cl	1.476959	0.060437	1.422004
Cl240	Cl	1.726959	0.310437	1.672004
Cl241	Cl	0.983500	-0.589474	0.434367
Cl242	Cl	1.233500	-0.339474	0.684367
Cl243	Cl	1.483500	-0.089474	0.934367
Cl244	Cl	1.733500	0.160526	1.184367
H245	H	1.017375	-0.825551	0.400664
H246	H	1.267375	-0.575551	0.650664
H247	H	1.517375	-0.325551	0.900664
H248	H	1.767375	-0.075551	1.150664
Cl249	Cl	1.180479	-0.236811	0.931149
Cl250	Cl	1.430479	0.013189	1.181149
Cl251	Cl	1.680479	0.263189	1.431149
Cl252	Cl	1.930479	0.513189	1.681149
H253	H	0.975336	-0.937213	0.442731
H254	H	1.225336	-0.687213	0.692731
H255	H	1.475336	-0.437213	0.942731
H256	H	1.725336	-0.187213	1.192731
H257	H	0.996896	-0.419709	0.766442
H258	H	1.246896	-0.169709	1.016442
H259	H	1.496896	0.080291	1.266442
H260	H	1.746896	0.330291	1.516442
Cl261	Cl	1.203560	-0.754972	0.214719
Cl262	Cl	1.453560	-0.504972	0.464719
Cl263	Cl	1.703560	-0.254972	0.714719
Cl264	Cl	1.953560	-0.004972	0.964719
H265	H	0.512932	-0.419933	0.421073
H266	H	0.762932	-0.169933	0.671073
H267	H	1.012932	0.080067	0.921073
H268	H	1.262932	0.330067	1.171073
Cl269	Cl	0.670270	-0.439848	0.440973
Cl270	Cl	0.920270	-0.189848	0.690973
Cl271	Cl	1.170270	0.060152	0.940973
Cl272	Cl	1.420270	0.310152	1.190973
H273	H	1.011093	-0.738774	0.406883
H274	H	1.261093	-0.488774	0.656883
H275	H	1.511093	-0.238774	0.906883
H276	H	1.761093	0.011226	1.156883
Cl277	Cl	0.961227	-1.086534	0.456914
Cl278	Cl	1.211227	-0.836534	0.706914
Cl279	Cl	1.461227	-0.586534	0.956914
Cl280	Cl	1.711227	-0.336534	1.206914
H281	H	1.152222	-1.070239	0.266187
H282	H	1.402222	-0.820239	0.516187
H283	H	1.652222	-0.570239	0.766187
H284	H	1.902222	-0.320239	1.016187
Cl285	Cl	1.166334	-0.920928	0.252007
Cl286	Cl	1.416334	-0.670928	0.502007
Cl287	Cl	1.666334	-0.420928	0.752007
Cl288	Cl	1.916334	-0.170928	1.002007
Cl289	Cl	1.196073	-0.589413	0.222080
Cl290	Cl	1.446073	-0.339413	0.472080
Cl291	Cl	1.696073	-0.089413	0.722080
Cl292	Cl	1.946073	0.160587	0.972080
H293	H	1.160490	-0.256736	0.773801
H294	H	1.410490	-0.006736	1.023801
H295	H	1.660490	0.243264	1.273801
H296	H	1.910490	0.493264	1.523801
H297	H	1.139922	-0.850406	0.278324
H298	H	1.389922	-0.600406	0.528324
H299	H	1.639922	-0.350406	0.778324
H300	H	1.889922	-0.100406	1.028324
