data_functionalizedCrystal
_audit_creation_method	'MofGen! by Chris Wilmer'
_symmetry_space_group_name_H-M	'P1'
_symmetry_Int_Tables_number	1
_symmetry_cell_setting	triclinic
loop_
_symmetry_equiv_pos_as_xyz
  x,y,z
_cell_length_a	15.944551
_cell_length_b	14.044220
_cell_length_c	13.101039
_cell_angle_alpha	86.332523
_cell_angle_beta	86.646591
_cell_angle_gamma	91.656192
loop_
_atom_site_label
_atom_site_type_symbol
_atom_site_fract_x
_atom_site_fract_y
_atom_site_fract_z
O1	O	1.127901	-0.117026	-0.085109
O2	O	1.627901	0.382974	0.414891
O3	O	0.884482	-0.132096	-0.085135
O4	O	1.384482	0.367904	0.414865
O5	O	1.002537	0.013423	-0.085112
O6	O	1.502537	0.513423	0.414888
O7	O	1.009846	-0.262545	-0.085132
O8	O	1.509846	0.237455	0.414868
O9	O	0.994068	0.002965	0.085316
O10	O	1.494068	0.502965	0.585316
O11	O	0.876013	-0.142555	0.085293
O12	O	1.376013	0.357445	0.585293
O13	O	1.119432	-0.127484	0.085319
O14	O	1.619432	0.372516	0.585319
Zn15	Zn	0.996378	-0.136680	0.112365
Zn16	Zn	1.496378	0.363320	0.612365
Zn17	Zn	1.007536	-0.122901	-0.112181
Zn18	Zn	1.507536	0.377099	0.387819
O19	O	1.001377	-0.273003	0.085296
O20	O	1.501377	0.226997	0.585296
C21	C	0.848906	-0.136700	0.000076
C22	C	1.348906	0.363300	0.500076
C23	C	0.755520	-0.134823	0.000066
C24	C	1.255520	0.365177	0.500066
C25	C	0.995104	0.043509	0.000102
C26	C	1.495104	0.543509	0.500102
C27	C	0.985563	0.148735	0.000102
C28	C	1.485563	0.648735	0.500102
N29	N	0.988769	-0.146083	0.265612
N30	N	1.488769	0.353917	0.765612
C31	C	0.533573	-0.040140	0.000093
C32	C	1.033573	0.459860	0.500093
C33	C	0.480021	-0.078952	-0.083940
C34	C	0.980021	0.421048	0.416060
C35	C	0.584540	-0.131430	0.000079
C36	C	1.084540	0.368570	0.500079
C37	C	0.471695	-0.089285	0.084089
C38	C	0.971695	0.410715	0.584089
C39	C	0.419380	-0.128147	0.000095
C40	C	0.919380	0.371853	0.500095
C41	C	0.532221	-0.170263	-0.084024
C42	C	1.032221	0.329737	0.415976
C43	C	0.523897	-0.180587	0.084080
C44	C	1.023897	0.319413	0.584080
C45	C	0.470369	-0.219464	0.000027
C46	C	0.970369	0.280536	0.500027
C47	C	0.679684	-0.133319	0.000068
C48	C	1.179684	0.366681	0.500068
C49	C	0.324238	-0.126264	0.000098
C50	C	0.824238	0.373736	0.500098
C51	C	1.155008	-0.122881	0.000106
C52	C	1.655008	0.377119	0.500106
C53	C	1.248394	-0.124757	0.000109
C54	C	1.748394	0.375243	0.500109
C55	C	1.008810	-0.303089	0.000080
C56	C	1.508810	0.196911	0.500080
C57	C	1.018352	-0.408315	0.000073
C58	C	1.518352	0.091685	0.500073
C59	C	0.968120	0.341399	0.000085
C60	C	1.468120	0.841399	0.500085
C61	C	1.035791	0.399027	0.000090
C62	C	1.535791	0.899027	0.500090
C63	C	1.026085	0.506232	0.000080
C64	C	1.526085	1.006232	0.500080
C65	C	0.977824	0.234184	0.000095
C66	C	1.477824	0.734184	0.500095
N67	N	1.015152	-0.113490	-0.265428
N68	N	1.515152	0.386510	0.234572
C69	C	0.978417	-0.158885	0.474653
C70	C	1.478417	0.341115	0.974653
C71	C	1.025501	-0.100691	0.525538
C72	C	1.525501	0.399309	1.025538
C73	C	1.019741	-0.107814	0.641855
C74	C	1.519741	0.392186	1.141855
C75	C	0.984176	-0.151763	0.358325
C76	C	1.484176	0.348237	0.858325
H77	H	0.561238	0.035630	-0.000006
H78	H	1.061238	0.535630	0.499994
F79	F	0.434451	-0.318589	-0.000039
F80	F	0.934451	0.181411	0.499961
F81	F	0.882873	0.382145	0.000071
F82	F	1.382873	0.882145	0.500071
H83	H	1.070137	-0.045520	0.481744
H84	H	1.570137	0.454480	0.981744
H85	H	0.933784	-0.214053	0.518441
H86	H	1.433784	0.285947	1.018441
H87	H	1.101018	0.367856	0.000028
H88	H	1.601018	0.867856	0.500028
H89	H	0.558632	-0.204482	-0.155145
H90	H	1.058632	0.295518	0.344855
F91	F	0.454572	-0.022788	-0.176795
F92	F	0.954572	0.477212	0.323205
F93	F	0.549374	-0.236713	0.176938
F94	F	1.049374	0.263287	0.676938
F95	F	0.437047	-0.044494	0.176946
F96	F	0.937047	0.455506	0.676946
