data_functionalizedCrystal
_audit_creation_method	'MofGen! by Chris Wilmer'
_symmetry_space_group_name_H-M	'P1'
_symmetry_Int_Tables_number	1
_symmetry_cell_setting	triclinic
loop_
_symmetry_equiv_pos_as_xyz
  x,y,z
_cell_length_a	15.297476
_cell_length_b	15.298852
_cell_length_c	19.805399
_cell_angle_alpha	99.696252
_cell_angle_beta	99.683761
_cell_angle_gamma	69.212574
loop_
_atom_site_label
_atom_site_type_symbol
_atom_site_fract_x
_atom_site_fract_y
_atom_site_fract_z
Zn1	Zn	1.486050	-0.616709	0.495334
Zn2	Zn	1.512885	-0.772217	0.365455
Zn3	Zn	1.330521	-0.589779	0.365494
Zn4	Zn	1.357410	-0.745224	0.461953
O5	O	1.421716	-0.680982	0.422059
O6	O	1.619766	-0.659905	0.492059
O7	O	1.488672	-0.748043	0.270737
O8	O	1.328668	-0.463217	0.396704
O9	O	1.639482	-0.774156	0.396638
O10	O	1.442934	-0.483002	0.492097
O11	O	1.354689	-0.614007	0.270766
O12	O	1.203931	-0.587832	0.364336
O13	O	1.374497	-0.728150	0.561104
O14	O	1.223687	-0.702037	0.435203
O15	O	1.469008	-0.633730	0.585629
O16	O	1.514745	-0.898772	0.364269
O17	O	1.400519	-0.878940	0.435165
C18	C	1.180061	-0.639084	0.396152
C19	C	1.076684	-0.621182	0.385082
C20	C	1.017791	-0.553209	0.343061
C21	C	0.920663	-0.536387	0.332659
C22	C	0.882416	-0.587531	0.364282
C23	C	0.941308	-0.655500	0.406307
C24	C	1.038447	-0.672329	0.416706
C25	C	0.903072	-0.706651	0.437926
C26	C	0.961964	-0.774621	0.479952
C27	C	1.059093	-0.791446	0.490349
C28	C	1.097340	-0.740302	0.458726
C29	C	0.805933	-0.689822	0.427528
C30	C	0.826589	-0.808943	0.501172
C31	C	0.923718	-0.825765	0.511574
C32	C	1.463487	-0.922602	0.396108
C33	C	1.481442	-1.025983	0.385038
C34	C	1.293999	-1.276192	0.501309
C35	C	1.277132	-1.179061	0.511715
C36	C	1.328208	-1.140786	0.480047
C37	C	1.396154	-1.199653	0.437971
C38	C	1.413028	-1.296795	0.427568
C39	C	1.447237	-1.161389	0.406305
C40	C	1.515183	-1.220256	0.364229
C41	C	1.532054	-1.317387	0.353828
C42	C	1.480978	-1.355662	0.385497
C43	C	1.430363	-1.064248	0.416708
C44	C	1.549392	-1.084850	0.342967
C45	C	1.566259	-1.181982	0.332561
C46	C	1.664316	-0.723045	0.448068
C47	C	1.767697	-0.740970	0.459151
C48	C	1.421758	-0.680933	0.598614
C49	C	1.421776	-0.680912	0.673851
C50	C	1.379808	-0.438423	0.448129
C51	C	1.361949	-0.335059	0.459238
C52	C	1.421716	-0.680974	0.246204
C53	C	1.421833	-0.680764	0.171015
C54	C	1.470989	-0.631745	0.721967
C55	C	1.470994	-0.631720	0.792659
C56	C	1.421791	-0.680867	0.815234
C57	C	1.372572	-0.730036	0.767112
C58	C	1.372563	-0.730055	0.696421
C59	C	1.372610	-0.729958	1.052200
C60	C	1.372626	-0.729937	1.122897
C61	C	1.471041	-0.631623	1.148439
C62	C	1.471031	-0.631642	1.077748
C63	C	1.421809	-0.680806	1.029632
C64	C	1.421803	-0.680831	0.952979
C65	C	1.421802	-0.680848	0.891885
H66	H	0.971681	-0.881107	0.545792
Cl67	Cl	1.617484	-1.391391	0.300943
H68	H	1.511059	-0.591726	0.703593
H69	H	1.511101	-0.591625	1.059372
Cl70	Cl	1.310713	-0.791818	0.795492
H71	H	1.494702	-1.434752	0.377022
H72	H	1.590984	-1.053689	0.317181
H73	H	1.332546	-0.770006	1.013032
Cl74	Cl	1.219447	-0.761434	0.471812
Cl75	Cl	1.344946	-0.990256	0.469601
H76	H	1.511070	-0.591686	0.831833
H77	H	0.795450	-0.850589	0.526921
Cl78	Cl	1.307086	-1.018691	0.493200
H79	H	1.332478	-0.770080	0.657245
H80	H	1.511117	-0.591587	1.187623
Cl81	Cl	1.651678	-1.255996	0.279670
H82	H	0.803329	-0.573829	0.355810
Cl83	Cl	0.846634	-0.450939	0.279834
Cl84	Cl	0.731910	-0.604377	0.374698
H85	H	1.332555	-0.769960	1.141274
H86	H	1.221812	-1.131135	0.545974
H87	H	1.107043	-0.846800	0.524562
Cl88	Cl	1.065878	-0.488928	0.303308
H89	H	1.252426	-1.307365	0.527093
