data_functionalizedCrystal
_audit_creation_method	'MofGen! by Chris Wilmer'
_symmetry_space_group_name_H-M	'P1'
_symmetry_Int_Tables_number	1
_symmetry_cell_setting	triclinic
loop_
_symmetry_equiv_pos_as_xyz
  x,y,z
_cell_length_a	6.817900
_cell_length_b	12.200863
_cell_length_c	14.858572
_cell_angle_alpha	93.921758
_cell_angle_beta	104.524003
_cell_angle_gamma	107.143441
loop_
_atom_site_label
_atom_site_type_symbol
_atom_site_fract_x
_atom_site_fract_y
_atom_site_fract_z
V1	V	-4.056927	-0.159435	-0.290055
V2	V	-3.723594	0.173899	0.043278
V3	V	-3.390261	0.507232	0.376612
O4	O	-4.024805	0.006919	-0.284436
O5	O	-3.691472	0.340252	0.048897
O6	O	-3.358138	0.673585	0.382230
O7	O	-4.026571	-0.315418	-0.288165
O8	O	-3.693237	0.017916	0.045168
O9	O	-3.359904	0.351249	0.378502
O10	O	-4.013319	-0.157308	-0.416516
O11	O	-3.679986	0.176025	-0.083182
O12	O	-3.346653	0.509359	0.250151
O13	O	-4.038148	-0.152285	-0.155197
O14	O	-3.704815	0.181048	0.178136
O15	O	-3.371482	0.514381	0.511469
V16	V	-4.537596	-0.139498	-0.273914
V17	V	-4.204263	0.193835	0.059420
V18	V	-3.870930	0.527168	0.392753
O19	O	-4.324446	-0.203166	-0.325463
O20	O	-3.991113	0.130167	0.007871
O21	O	-3.657780	0.463500	0.341204
O22	O	-4.720275	-0.095766	-0.238506
O23	O	-4.386942	0.237567	0.094827
O24	O	-4.053608	0.570900	0.428161
O25	O	-4.344747	0.016485	-0.275804
O26	O	-4.011413	0.349818	0.057529
O27	O	-3.678080	0.683151	0.390863
O28	O	-4.687116	-0.305852	-0.279532
O29	O	-4.353782	0.027482	0.053801
O30	O	-4.020449	0.360815	0.387134
O31	O	-4.673772	-0.146648	-0.408772
O32	O	-4.340439	0.186686	-0.075438
O33	O	-4.007106	0.520019	0.257895
O34	O	-4.357998	-0.141625	-0.147453
O35	O	-4.024665	0.191709	0.185880
O36	O	-3.691331	0.525042	0.519213
C37	C	-3.875806	-0.353433	-0.283613
C38	C	-3.542473	-0.020099	0.049720
C39	C	-3.209139	0.313234	0.383053
C40	C	-3.932305	-0.480953	-0.282911
C41	C	-3.598971	-0.147620	0.050423
C42	C	-3.265638	0.185714	0.383756
C43	C	-4.035709	-0.714426	-0.281632
C44	C	-3.702375	-0.381093	0.051701
C45	C	-3.369042	-0.047760	0.385035
C46	C	-3.978159	-0.584505	-0.282344
C47	C	-3.644826	-0.251172	0.050990
C48	C	-3.311492	0.082162	0.384323
C49	C	-3.858901	-0.151747	-0.447336
C50	C	-3.525568	0.181586	-0.114003
C51	C	-3.192234	0.514920	0.219331
C52	C	-3.904649	-0.151040	-0.550719
C53	C	-3.571316	0.182293	-0.217385
C54	C	-3.237983	0.515626	0.115948
C55	C	-4.072090	-0.148458	-0.929285
C56	C	-3.738757	0.184875	-0.595952
C57	C	-3.405424	0.518208	-0.262619
C58	C	-4.025495	-0.149177	-0.823956
C59	C	-3.692161	0.184156	-0.490623
C60	C	-3.358828	0.517490	-0.157290
C61	C	-3.988371	-0.149750	-0.740005
C62	C	-3.655038	0.183583	-0.406672
C63	C	-3.321705	0.516916	-0.073339
C64	C	-3.941773	-0.150467	-0.634670
C65	C	-3.608439	0.182867	-0.301336
C66	C	-3.275106	0.516200	0.031997
C67	C	-4.158854	0.054494	-0.280353
C68	C	-3.825521	0.387827	0.052980
C69	C	-3.492187	0.721160	0.386314
C70	C	-4.081594	0.182013	-0.281062
C71	C	-3.748261	0.515346	0.052272
C72	C	-3.414927	0.848679	0.385605
C73	C	-4.175759	-0.147190	-0.116628
C74	C	-3.842425	0.186144	0.216705
C75	C	-3.509092	0.519477	0.550039
C76	C	-4.109248	-0.147890	-0.013244
C77	C	-3.775915	0.185443	0.320089
C78	C	-3.442581	0.518776	0.653422
