data_functionalizedCrystal
_audit_creation_method	'MofGen! by Chris Wilmer'
_symmetry_space_group_name_H-M	'P1'
_symmetry_Int_Tables_number	1
_symmetry_cell_setting	triclinic
loop_
_symmetry_equiv_pos_as_xyz
  x,y,z
_cell_length_a	19.377372
_cell_length_b	14.628931
_cell_length_c	14.628931
_cell_angle_alpha	60.000000
_cell_angle_beta	89.999623
_cell_angle_gamma	72.113075
loop_
_atom_site_label
_atom_site_type_symbol
_atom_site_fract_x
_atom_site_fract_y
_atom_site_fract_z
Zr1	Zr	0.580564	1.272735	-0.256045
O2	O	0.484337	1.418331	-0.379451
O3	O	0.610062	1.095858	-0.218215
O4	O	0.610063	1.286563	-0.408921
O5	O	0.484336	1.227626	-0.038313
O6	O	0.709237	1.333054	-0.432167
O7	O	0.484336	1.227626	-0.188745
O8	O	0.709237	0.991917	-0.091029
O9	O	0.484337	1.568763	-0.379451
O10	O	0.696656	1.214891	-0.219429
O11	O	0.622643	1.180196	-0.089815
O12	O	0.622643	1.404727	-0.314347
O13	O	0.548630	1.370031	-0.184733
Zr14	Zr	0.738736	1.346884	-0.053200
Zr15	Zr	0.738736	1.346883	-0.293121
Zr16	Zr	0.580563	1.272735	-0.016124
Zr17	Zr	0.580564	1.512657	-0.256046
Zr18	Zr	0.738736	1.106962	-0.053199
O19	O	0.709237	1.523761	-0.091030
O20	O	0.709238	1.523760	-0.432167
O21	O	0.484336	1.418332	-0.038314
O22	O	0.834963	1.201288	0.070206
O23	O	0.834963	1.201287	-0.270931
O24	O	0.610062	1.095859	0.122922
O25	O	0.834963	1.391993	-0.270932
O26	O	0.709237	1.333055	0.099675
O27	O	0.610062	1.286564	0.122922
O28	O	0.834963	1.391993	-0.120500
O29	O	0.610063	1.627701	-0.408921
O30	O	0.709237	0.991918	0.099676
O31	O	0.834962	1.050856	0.070206
O32	O	0.834963	1.050855	-0.120499
O33	O	0.484337	1.568763	-0.188746
O34	O	0.610063	1.627701	-0.218216
O35	O	0.696656	1.214892	0.005102
O36	O	0.770669	1.249587	-0.124513
O37	O	0.696656	1.439423	-0.219430
O38	O	0.622643	1.404727	-0.089816
C39	C	0.659649	1.009704	-0.154622
C40	C	0.659649	0.907851	-0.154622
C41	C	0.696365	0.879653	-0.218919
C42	C	0.696366	0.774383	-0.218921
C43	C	0.461800	1.217061	-0.108247
C44	C	0.394652	1.185583	-0.092507
C45	C	-0.019355	1.577505	-0.288473
C46	C	-0.082441	1.547901	-0.273669
C47	C	-0.005168	1.349728	-0.174583
C48	C	0.057926	1.379315	-0.189374
C49	C	0.050825	1.493206	-0.246321
C50	C	0.128106	1.295016	-0.147222
C51	C	0.191195	1.324602	-0.162017
C52	C	0.184102	1.438487	-0.218964
C53	C	0.113913	1.522792	-0.261116
C54	C	0.135205	1.181126	-0.090281
C55	C	0.205386	1.096827	-0.048129
C56	C	0.268476	1.126412	-0.062917
C57	C	0.261383	1.240297	-0.119865
C58	C	0.338664	1.042107	-0.020765
C59	C	0.401752	1.071693	-0.035560
C60	C	0.324471	1.269883	-0.134659
C61	C	0.857499	1.402557	-0.200998
C62	C	0.924648	1.434035	-0.216738
C63	C	0.659650	1.309808	-0.454727
C64	C	0.659650	1.309808	-0.556580
C65	C	0.659650	1.609915	-0.154623
C66	C	0.659650	1.711768	-0.154623
C67	C	0.622935	1.403979	-0.649075
C68	C	0.622934	1.403981	-0.754346
C69	C	0.659649	1.309810	0.145482
C70	C	0.659649	1.309810	0.247335
C71	C	0.857499	1.102452	-0.200998
C72	C	0.924647	1.032077	-0.216737
C73	C	0.659649	1.009705	0.145483
C74	C	0.659649	0.907852	0.247336
C75	C	0.857499	1.102453	0.099107
C76	C	0.924647	1.032078	0.185221
C77	C	0.461801	1.517166	-0.408352
C78	C	0.394653	1.587541	-0.494466
C79	C	0.461800	1.517167	-0.108247
C80	C	0.394652	1.587542	-0.092508
C81	C	0.659650	1.609914	-0.454728
C82	C	0.659650	1.711767	-0.556581
C83	C	0.917547	0.980917	-0.273684
C84	C	0.980634	0.914802	-0.288494
C85	C	1.050820	0.899842	-0.246349
C86	C	1.057919	0.951011	-0.189400
C87	C	0.994833	1.017131	-0.174598
C88	C	0.994821	1.017143	0.158002
C89	C	1.057920	0.951034	0.238904
C90	C	1.050843	0.899855	0.347024
C91	C	0.980661	0.914796	0.374243
C92	C	0.917564	0.980910	0.293341
C93	C	0.324478	1.602487	-0.467247
C94	C	0.261379	1.668626	-0.548149
C95	C	0.268456	1.719810	-0.656269
C96	C	0.338638	1.704863	-0.683488
C97	C	0.401735	1.638732	-0.602586
C98	C	0.401753	1.638712	-0.035571
C99	C	0.338666	1.704853	-0.020788
C100	C	0.268479	1.719816	-0.062936
C101	C	0.261380	1.668643	-0.119880
C102	C	0.324466	1.602510	-0.134669
C103	C	0.696364	0.879654	0.339830
C104	C	0.696365	0.774385	0.445102
H105	H	0.628211	0.736080	-0.099578
Br106	Br	-0.177691	1.662321	-0.330898
Br107	Br	1.153179	0.930694	-0.132207
Br108	Br	0.712051	1.175428	-0.554480
Br109	Br	0.570548	1.538366	-0.651178
Br110	Br	1.004446	1.086596	0.011274
Br111	Br	0.166121	1.688957	-0.177071
H112	H	0.727796	0.750072	-0.273972
Br113	Br	0.607263	0.818193	-0.062859
H114	H	1.115059	0.938878	0.216723
H115	H	1.000625	1.058778	-0.128220
H116	H	0.318688	1.362624	-0.180999
Br117	Br	0.971069	0.845331	0.520984
Br118	Br	1.136483	0.810131	0.456808
H119	H	0.860427	0.993057	0.315519
H120	H	0.628218	0.736074	0.364061
Br121	Br	0.182869	1.809573	-0.042855
H122	H	0.318702	1.560812	-0.379215
H123	H	0.691080	1.229181	-0.673305
H124	H	0.591496	1.484602	-0.833708
Br125	Br	0.748750	0.969314	0.341934
Br126	Br	0.496970	1.618451	-0.639546
Br127	Br	0.314816	1.533064	-0.211940
H128	H	0.235474	1.462573	-0.231011
Br129	Br	0.004459	1.195167	-0.097305
H130	H	0.458896	1.626535	-0.001239
H131	H	0.860403	0.993097	-0.308020
Br132	Br	0.748767	0.733858	0.577374
H133	H	0.204241	1.680781	-0.525966
Br134	Br	0.215013	0.942266	0.029149
Br135	Br	0.497002	0.957286	0.021638
H136	H	0.217073	1.773655	-0.722134
Br137	Br	0.348318	1.774287	0.056499
Br138	Br	0.607248	0.818209	0.245236
Br139	Br	0.104284	1.677360	-0.338384
H140	H	-0.025139	1.670247	-0.334812
H141	H	1.102183	0.846000	-0.258409
Br142	Br	0.748763	0.969299	-0.310667
H143	H	0.974839	0.873145	-0.334865
H144	H	0.083832	1.157041	-0.078245
H145	H	0.344392	1.746545	-0.771529
Br146	Br	0.348289	0.887548	0.056500
