data_functionalizedCrystal
_audit_creation_method	'MofGen! by Chris Wilmer'
_symmetry_space_group_name_H-M	'P1'
_symmetry_Int_Tables_number	1
_symmetry_cell_setting	triclinic
loop_
_symmetry_equiv_pos_as_xyz
  x,y,z
_cell_length_a	12.759401
_cell_length_b	15.297327
_cell_length_c	12.759393
_cell_angle_alpha	80.357027
_cell_angle_beta	90.020938
_cell_angle_gamma	99.708126
loop_
_atom_site_label
_atom_site_type_symbol
_atom_site_fract_x
_atom_site_fract_y
_atom_site_fract_z
Zn1	Zn	1.533815	-0.359082	0.666329
Zn2	Zn	1.503263	-0.509967	0.521034
Zn3	Zn	1.358104	-0.359130	0.490674
Zn4	Zn	1.327675	-0.509904	0.696658
O5	O	1.430714	-0.434521	0.593674
O6	O	1.676782	-0.379103	0.647069
O7	O	1.483956	-0.490005	0.369995
O8	O	1.406934	-0.232878	0.488577
O9	O	1.654335	-0.489958	0.540320
O10	O	1.536028	-0.232842	0.617630
O11	O	1.377308	-0.379185	0.347690
O12	O	1.207048	-0.379124	0.517986
O13	O	1.355072	-0.489851	0.839647
O14	O	1.184692	-0.489898	0.669321
O15	O	1.506522	-0.379042	0.817364
O16	O	1.454449	-0.636205	0.569729
O17	O	1.325446	-0.636159	0.698760
C18	C	1.157749	-0.434510	0.593651
C19	C	1.040969	-0.434527	0.593670
C20	C	0.974476	-0.492294	0.672383
C21	C	0.864751	-0.492298	0.672404
C22	C	0.888023	-0.376764	0.514991
C23	C	0.997747	-0.376756	0.514975
C24	C	1.383359	-0.668916	0.640853
C25	C	1.363196	-0.769191	0.661071
C26	C	1.575254	-1.051821	0.449528
C27	C	1.594198	-0.957608	0.430526
C28	C	1.536449	-0.910499	0.488161
C29	C	1.459753	-0.957613	0.564800
C30	C	1.440802	-1.051836	0.583798
C31	C	1.401997	-0.910513	0.622431
C32	C	1.325301	-0.957627	0.699071
C33	C	1.306354	-1.051841	0.718065
C34	C	1.364103	-1.098950	0.660430
C35	C	1.420948	-0.816291	0.603434
C36	C	1.286496	-0.816305	0.737704
C37	C	1.267553	-0.910519	0.756705
C38	C	1.704745	-0.434533	0.593698
C39	C	1.821521	-0.434538	0.593708
C40	C	1.430810	-0.434434	0.867690
C41	C	1.430851	-0.434397	0.984459
C42	C	1.478284	-0.199211	0.546334
C43	C	1.498555	-0.098935	0.526160
C44	C	1.430692	-0.434542	0.320711
C45	C	1.430906	-0.434325	0.203891
C46	C	1.509719	-0.376690	1.027719
C47	C	1.509744	-0.376651	1.137435
C48	C	1.352031	-0.492035	1.160625
C49	C	1.352002	-0.492068	1.050909
H50	H	1.483394	-0.777939	0.541033
H51	H	1.573964	-0.329659	1.172650
H52	H	1.656642	-0.919251	0.368126
H53	H	1.287772	-0.539060	1.015688
H54	H	1.551877	-0.833786	0.472684
C55	C	1.638757	-1.103647	0.386128
N56	N	1.686588	-1.142683	0.338368
H57	H	1.051889	-0.329710	0.450877
C58	C	1.183181	-0.962356	0.840998
N59	N	1.119629	-1.001401	0.904486
C60	C	1.343264	-1.202591	0.681324
N61	N	1.327569	-1.280655	0.697057
H62	H	1.009664	-0.539333	0.736464
C63	C	1.265300	-0.555468	1.233729
N64	N	1.199971	-0.603246	1.288790
H65	H	0.810617	-0.539337	0.736501
C66	C	1.221977	-1.103664	0.802361
N67	N	1.158424	-1.142695	0.865854
C68	C	0.840466	-0.313224	0.428427
N69	N	0.804647	-0.265367	0.363222
H70	H	1.239470	-0.777950	0.784633
C71	C	1.596447	-0.313242	0.954626
N72	N	1.661771	-0.265448	0.899574
