data_functionalizedCrystal
_audit_creation_method	'MofGen! by Chris Wilmer'
_symmetry_space_group_name_H-M	'P1'
_symmetry_Int_Tables_number	1
_symmetry_cell_setting	triclinic
loop_
_symmetry_equiv_pos_as_xyz
  x,y,z
_cell_length_a	23.532361
_cell_length_b	23.532407
_cell_length_c	12.503572
_cell_angle_alpha	93.492657
_cell_angle_beta	86.508879
_cell_angle_gamma	82.839208
loop_
_atom_site_label
_atom_site_type_symbol
_atom_site_fract_x
_atom_site_fract_y
_atom_site_fract_z
O1	O	0.758576	0.065698	-0.089231
O2	O	0.592710	0.075728	-0.089260
O3	O	0.680644	-0.012218	-0.089214
O4	O	0.670643	0.153644	-0.089276
O5	O	0.674031	-0.005593	0.089424
O6	O	0.586097	0.082353	0.089379
O7	O	0.751963	0.072323	0.089407
Cu8	Cu	0.668426	0.077943	0.105704
Cu9	Cu	0.676247	0.070108	-0.105556
O10	O	0.664030	0.160269	0.089362
C11	C	0.568187	0.078789	0.000056
C12	C	0.504969	0.078033	0.000047
C13	C	0.235330	0.071119	-0.097321
C14	C	0.294730	0.071834	-0.097324
O15	O	0.328521	0.069113	-0.180137
N16	N	0.320831	0.075806	0.000052
C17	C	0.287529	0.079058	0.097437
O18	O	0.315184	0.082502	0.180263
C19	C	0.228131	0.078339	0.097439
C20	C	0.202033	0.074372	0.000057
C21	C	0.209231	0.067152	-0.194696
C22	C	0.149835	0.066438	-0.194692
C23	C	0.116538	0.069692	-0.097315
C24	C	0.142637	0.073659	0.000060
C25	C	0.194831	0.081587	0.194824
C26	C	0.135429	0.080867	0.194817
C27	C	0.109331	0.076901	0.097434
C28	C	0.049943	0.076199	0.097441
N29	N	0.023843	0.072226	0.000065
C30	C	0.057140	0.068973	-0.097313
C31	C	0.412270	0.080567	0.097426
C32	C	0.471666	0.081290	0.097426
C33	C	0.478863	0.074064	-0.097336
C34	C	0.419465	0.073345	-0.097335
C35	C	0.386169	0.076594	0.000050
C36	C	-0.067596	0.067475	-0.097298
C37	C	-0.126998	0.066764	-0.097286
C38	C	-0.134189	0.073986	0.097475
C39	C	-0.074793	0.074700	0.097464
C40	C	-0.041497	0.071442	0.000068
O41	O	0.016116	0.078915	0.180212
O42	O	0.029478	0.065522	-0.180125
C43	C	0.677082	-0.030122	0.000110
C44	C	0.676316	-0.093338	0.000126
C45	C	0.621122	-0.359499	0.000050
C46	C	0.621833	-0.300099	0.000058
O47	O	0.578048	-0.263348	0.000017
N48	N	0.674110	-0.277480	0.000080
C49	C	0.725679	-0.314267	0.000082
O50	O	0.770210	-0.289574	0.000100
C51	C	0.724968	-0.373666	0.000066
C52	C	0.672687	-0.396280	0.000055
C53	C	0.568846	-0.382114	0.000038
C54	C	0.568135	-0.441510	0.000032
C55	C	0.619700	-0.478292	0.000037
C56	C	0.671976	-0.455677	0.000049
C57	C	0.776537	-0.410451	0.000060
C58	C	0.775821	-0.469854	0.000043
C59	C	0.723540	-0.492469	0.000033
C60	C	0.722830	-0.551854	0.000048
N61	N	0.670554	-0.574473	0.000026
C62	C	0.618989	-0.537691	0.000021
C63	C	0.727169	-0.189523	0.000114
C64	C	0.727881	-0.130124	0.000137
C65	C	0.624035	-0.115961	0.000112
C66	C	0.623323	-0.175360	0.000096
C67	C	0.674893	-0.212141	0.000092
C68	C	0.617499	-0.662428	0.000009
C69	C	0.616793	-0.721830	0.000007
C70	C	0.720639	-0.735989	0.000027
C71	C	0.721346	-0.676592	0.000034
C72	C	0.669771	-0.639813	0.000022
O73	O	0.766593	-0.588639	0.000085
O74	O	0.574466	-0.562393	-0.000011
C75	C	0.776486	0.069262	0.000089
C76	C	0.839705	0.070017	0.000091
C77	C	0.667591	0.178172	0.000035
C78	C	0.668358	0.241389	0.000012
N79	N	0.662930	0.083453	0.254294
N80	N	0.681748	0.064593	-0.254146
C81	C	0.654844	0.091564	0.473405
C82	C	0.689832	0.056485	0.526750
C83	C	0.685333	0.060997	0.648671
C84	C	0.659342	0.087051	0.351473
H85	H	-0.040494	0.064822	-0.176607
O86	O	-0.155143	0.062485	-0.202329
H87	H	-0.202043	0.062540	-0.185975
H88	H	0.108321	0.083518	0.274121
O89	O	0.566937	-0.199752	0.000082
H90	H	0.544874	-0.187643	-0.072733
H91	H	0.723166	0.023064	0.480854
O92	O	0.610701	0.135842	0.534188
H93	H	0.567101	0.128121	0.512703
O94	O	0.121694	0.062128	-0.299726
H95	H	0.154836	0.059971	-0.367430
H96	H	0.574218	-0.740239	0.000003
H97	H	0.236337	0.064500	-0.273997
H98	H	0.817816	-0.499800	0.000034
O99	O	0.513224	-0.342447	0.000035
H100	H	0.508370	-0.312358	0.072852
H101	H	0.505985	0.071415	-0.176627
O102	O	0.391319	0.069049	-0.202366
H103	H	0.424458	0.066901	-0.270073
H104	H	0.582048	-0.086002	0.000108
O105	O	0.777733	-0.652197	0.000056
H106	H	0.783234	-0.628165	-0.072752
H107	H	0.492909	0.084529	0.176724
H108	H	-0.161311	0.076637	0.176757
H109	H	0.385162	0.083220	0.176734
H110	H	0.216070	0.084816	0.274123
H111	H	0.575503	-0.632489	-0.000002
H112	H	0.769166	-0.219468	0.000118
O113	O	-0.046638	0.078980	0.202493
H114	H	-0.079774	0.081120	0.270205
O115	O	0.832926	-0.386069	0.000045
H116	H	0.868658	-0.421634	0.000024
O117	O	0.511746	-0.465898	0.000016
H118	H	0.489687	-0.453789	-0.072803
O119	O	0.784269	-0.105735	0.000149
H120	H	0.820003	-0.141296	0.000140
O121	O	0.776255	-0.775665	0.000035
H122	H	0.766972	-0.820767	0.000017
