data_functionalizedCrystal
_audit_creation_method	'MofGen! by Chris Wilmer'
_symmetry_space_group_name_H-M	'P1'
_symmetry_Int_Tables_number	1
_symmetry_cell_setting	triclinic
loop_
_symmetry_equiv_pos_as_xyz
  x,y,z
_cell_length_a	14.853567
_cell_length_b	19.288865
_cell_length_c	17.766277
_cell_angle_alpha	90.011603
_cell_angle_beta	89.993613
_cell_angle_gamma	96.614411
loop_
_atom_site_label
_atom_site_type_symbol
_atom_site_fract_x
_atom_site_fract_y
_atom_site_fract_z
O1	O	1.195855	-0.090685	-0.062551
O2	O	1.695855	0.409315	0.437449
O3	O	0.933334	-0.101488	-0.062565
O4	O	1.433334	0.398512	0.437435
O5	O	1.072180	0.005018	-0.062543
O6	O	1.572180	0.505018	0.437457
O7	O	1.057009	-0.197191	-0.062574
O8	O	1.557009	0.302809	0.437426
O9	O	1.072156	0.005024	0.062646
O10	O	1.572156	0.505024	0.562646
O11	O	0.933310	-0.101482	0.062623
O12	O	1.433310	0.398518	0.562623
O13	O	1.195831	-0.090680	0.062637
O14	O	1.695831	0.409320	0.562637
Cu15	Cu	1.064568	-0.096080	0.074061
Cu16	Cu	1.564568	0.403920	0.574061
Cu17	Cu	1.064597	-0.096087	-0.073989
Cu18	Cu	1.564597	0.403913	0.426011
O19	O	1.056985	-0.197186	0.062615
O20	O	1.556985	0.302814	0.562615
C21	C	0.899736	-0.100996	0.000027
C22	C	1.399736	0.399004	0.500027
C23	C	0.799661	-0.099529	0.000023
C24	C	1.299661	0.400471	0.500023
C25	C	1.071680	0.030899	0.000053
C26	C	1.571680	0.530899	0.500053
C27	C	1.070215	0.108008	0.000060
C28	C	1.570215	0.608008	0.500060
N29	N	1.064555	-0.096076	0.178191
N30	N	1.564555	0.403924	0.678191
C31	C	0.387522	-0.030061	0.000050
C32	C	0.887522	0.469939	0.500050
C33	C	0.365522	-0.156593	0.000030
C34	C	0.865522	0.343407	0.500030
C35	C	0.459547	-0.157972	0.000028
C36	C	0.959547	0.342028	0.500028
C37	C	0.517565	-0.095395	0.000035
C38	C	1.017565	0.404605	0.500035
C39	C	0.481557	-0.031439	0.000045
C40	C	0.981557	0.468561	0.500045
C41	C	0.495563	-0.221927	0.000010
C42	C	0.995563	0.278073	0.500010
C43	C	0.589594	-0.223309	0.000006
C44	C	1.089594	0.276691	0.500006
C45	C	0.647614	-0.160731	0.000019
C46	C	1.147614	0.339269	0.500019
C47	C	0.611600	-0.096772	0.000030
C48	C	1.111600	0.403228	0.500030
C49	C	0.669618	-0.034195	0.000038
C50	C	1.169618	0.465805	0.500038
C51	C	0.633606	0.029764	0.000054
C52	C	1.133606	0.529764	0.500054
C53	C	0.539577	0.031139	0.000058
C54	C	1.039577	0.531139	0.500058
C55	C	0.741643	-0.162106	0.000015
C56	C	1.241643	0.337894	0.500015
C57	C	0.763653	-0.035572	0.000033
C58	C	1.263653	0.464428	0.500033
C59	C	1.229429	-0.091172	0.000043
C60	C	1.729429	0.408828	0.500043
C61	C	1.329504	-0.092639	0.000043
C62	C	1.829504	0.407361	0.500043
C63	C	1.057485	-0.223067	0.000017
C64	C	1.557485	0.276933	0.500017
C65	C	1.058951	-0.300175	0.000005
C66	C	1.558951	0.199825	0.500005
C67	C	1.151683	0.152429	0.000068
C68	C	1.651683	0.652429	0.500068
C69	C	1.150307	0.224881	0.000056
C70	C	1.650307	0.724881	0.500056
C71	C	1.067457	0.252908	0.000051
C72	C	1.567457	0.752908	0.500051
C73	C	0.985977	0.208477	0.000039
C74	C	1.485977	0.708477	0.500039
C75	C	0.987356	0.136027	0.000043
C76	C	1.487356	0.636027	0.500043
C77	C	1.002318	0.361417	0.043899
C78	C	1.502318	0.861417	0.543899
C79	C	1.000943	0.433866	0.043899
C80	C	1.500943	0.933866	0.543899
C81	C	1.063200	0.476368	0.000034
C82	C	1.563200	0.976368	0.500034
C83	C	1.126848	0.446413	-0.043821
C84	C	1.626848	0.946413	0.456179
C85	C	1.128227	0.373963	-0.043817
C86	C	1.628227	0.873963	0.456183
C87	C	1.065952	0.331467	0.000046
C88	C	1.565952	0.831467	0.500046
C89	C	1.143181	0.599350	0.000028
C90	C	1.643181	1.099350	0.500028
C91	C	1.141801	0.671803	0.000011
C92	C	1.641801	1.171803	0.500011
C93	C	0.977470	0.655397	0.000002
C94	C	1.477470	1.155397	0.500002
C95	C	0.978852	0.582946	0.000011
C96	C	1.478852	1.082946	0.500011
C97	C	1.061710	0.554927	0.000028
C98	C	1.561710	1.054927	0.500028
N99	N	1.064618	-0.096086	-0.178119
N100	N	1.564618	0.403914	0.321881
C101	C	1.126055	-0.048938	0.217588
C102	C	1.626055	0.451062	0.717588
C103	C	1.126061	-0.048935	0.296390
C104	C	1.626061	0.451065	0.796390
C105	C	1.064574	-0.096081	0.335792
C106	C	1.564574	0.403919	0.835792
C107	C	1.003061	-0.143222	0.296386
C108	C	1.503061	0.356778	0.796386
C109	C	1.003052	-0.143220	0.217585
C110	C	1.503052	0.356780	0.717585
C111	C	1.052504	-0.159328	0.460620
C112	C	1.552504	0.340672	0.960620
C113	C	1.052520	-0.159332	0.539419
C114	C	1.552520	0.340668	1.039419
C115	C	1.064598	-0.096090	0.578838
C116	C	1.564598	0.403910	1.078838
C117	C	1.076679	-0.032841	0.539449
C118	C	1.576679	0.467159	1.039449
C119	C	1.076669	-0.032838	0.460649
C120	C	1.576669	0.467162	0.960649
C121	C	1.064577	-0.096089	0.421238
C122	C	1.564577	0.403911	0.921238
C123	C	1.126108	-0.048944	0.703681
C124	C	1.626108	0.451056	1.203681
C125	C	1.126107	-0.048940	0.782484
C126	C	1.626107	0.451060	1.282484
C127	C	1.003111	-0.143234	0.782478
C128	C	1.503111	0.356766	1.282478
C129	C	1.003108	-0.143232	0.703677
C130	C	1.503108	0.356768	1.203677
C131	C	1.064611	-0.096088	0.664283
C132	C	1.564611	0.403912	1.164283
H133	H	0.810886	0.015386	0.000042
H134	H	1.310886	0.515386	0.500042
Cl135	Cl	0.292585	-0.235257	0.000011
Cl136	Cl	0.792585	0.264743	0.500011
Cl137	Cl	1.037404	-0.238843	0.411072
Cl138	Cl	1.537404	0.261157	0.911072
Cl139	Cl	1.091870	0.046669	0.588996
Cl140	Cl	1.591870	0.546669	1.088996
Cl141	Cl	0.422624	-0.300590	-0.000012
Cl142	Cl	0.922624	0.199410	0.499988
Cl143	Cl	1.203423	0.010327	0.832015
Cl144	Cl	1.703423	0.510327	1.332015
H145	H	0.951619	0.326817	0.079622
H146	H	1.451619	0.826817	0.579622
Cl147	Cl	0.634858	-0.303714	-0.000012
Cl148	Cl	1.134858	0.196286	0.499988
Cl149	Cl	0.873314	0.690624	-0.000009
Cl150	Cl	1.373314	1.190624	0.499991
Cl151	Cl	1.091845	0.046670	0.411134
Cl152	Cl	1.591845	0.546670	0.911134
Cl153	Cl	1.203420	0.010326	0.654156
Cl154	Cl	1.703420	0.510326	1.154156
H155	H	0.770960	-0.214181	0.000003
H156	H	1.270960	0.285819	0.500003
H157	H	0.918520	0.231301	0.000033
H158	H	1.418520	0.731301	0.500033
Cl159	Cl	1.203384	0.010329	0.345926
Cl160	Cl	1.703384	0.510329	0.845926
Cl161	Cl	0.920933	0.471517	0.099033
Cl162	Cl	1.420933	0.971517	0.599033
Cl163	Cl	1.255848	0.117209	0.000068
Cl164	Cl	1.755848	0.617209	0.500068
Cl165	Cl	0.876428	0.527099	0.000004
Cl166	Cl	1.376428	1.027099	0.500004
Cl167	Cl	0.925807	-0.202499	0.832007
Cl168	Cl	1.425807	0.297501	1.332007
H169	H	0.510247	0.083212	0.000089
H170	H	1.010247	0.583212	0.500089
H171	H	1.208146	0.707971	0.000014
H172	H	1.708146	1.207971	0.500014
Cl173	Cl	0.925794	-0.202497	0.654144
Cl174	Cl	1.425794	0.297503	1.154144
H175	H	1.042689	-0.210832	0.571483
H176	H	1.542689	0.289168	1.071483
Cl177	Cl	0.884930	0.080179	0.000034
Cl178	Cl	1.384930	0.580179	0.500034
H179	H	0.358197	0.022013	0.000066
H180	H	0.858197	0.522013	0.500066
H181	H	0.680856	0.080715	0.000055
H182	H	1.180856	0.580715	0.500055
Cl183	Cl	1.203367	0.010331	0.168065
Cl184	Cl	1.703367	0.510331	0.668065
H185	H	0.952996	-0.181609	0.328471
H186	H	1.452996	0.318391	0.828471
Cl187	Cl	1.208232	0.336307	-0.098951
Cl188	Cl	1.708232	0.836307	0.401049
Cl189	Cl	1.252732	0.280735	0.000066
Cl190	Cl	1.752732	0.780735	0.500066
Cl191	Cl	1.205119	0.499836	-0.098970
Cl192	Cl	1.705119	0.999836	0.401030
Cl193	Cl	1.247344	0.564123	0.000053
Cl194	Cl	1.747344	1.064123	0.500053
H195	H	0.952969	-0.181605	0.185508
H196	H	1.452969	0.318395	0.685508
