data_functionalizedCrystal
_audit_creation_method	'MofGen! by Chris Wilmer'
_symmetry_space_group_name_H-M	'P1'
_symmetry_Int_Tables_number	1
_symmetry_cell_setting	triclinic
loop_
_symmetry_equiv_pos_as_xyz
  x,y,z
_cell_length_a	18.215407
_cell_length_b	12.759400
_cell_length_c	18.215399
_cell_angle_alpha	89.976571
_cell_angle_beta	89.982632
_cell_angle_gamma	90.010609
loop_
_atom_site_label
_atom_site_type_symbol
_atom_site_fract_x
_atom_site_fract_y
_atom_site_fract_z
Zn1	Zn	1.125132	-0.418349	-0.416091
Zn2	Zn	1.125065	-0.594046	-0.293034
Zn3	Zn	1.002064	-0.418374	-0.293043
Zn4	Zn	1.002055	-0.593978	-0.416064
O5	O	1.063579	-0.506187	-0.354558
O6	O	1.228107	-0.441673	-0.399774
O7	O	1.108725	-0.570782	-0.190051
O8	O	1.018421	-0.271350	-0.309381
O9	O	1.228059	-0.570757	-0.309365
O10	O	1.108838	-0.271331	-0.399783
O11	O	1.018357	-0.441716	-0.190058
O12	O	0.899079	-0.441650	-0.309355
O13	O	1.018406	-0.570642	-0.519052
O14	O	0.899072	-0.570666	-0.399738
O15	O	1.108830	-0.441608	-0.519071
O16	O	1.108716	-0.741058	-0.309339
O17	O	1.018341	-0.741008	-0.399729
C18	C	0.872373	-0.506154	-0.354545
C19	C	0.790574	-0.506166	-0.354557
C20	C	0.602405	-0.439090	-0.401707
C21	C	0.525546	-0.439099	-0.401710
C22	C	0.525506	-0.573313	-0.307421
C23	C	0.602363	-0.573298	-0.307416
C24	C	0.640811	-0.506188	-0.354563
C25	C	0.487095	-0.506212	-0.354571
C26	C	0.403761	-0.506222	-0.354573
C27	C	0.724150	-0.506176	-0.354560
C28	C	1.063541	-0.779154	-0.354546
C29	C	1.063592	-0.895931	-0.354566
C30	C	1.110648	-0.950703	-0.401677
C31	C	1.110682	-1.060427	-0.401695
C32	C	1.016601	-1.060596	-0.307484
C33	C	1.016564	-0.950874	-0.307471
C34	C	1.157676	-0.895760	-0.448772
C35	C	1.204737	-0.950533	-0.495887
C36	C	1.204771	-1.060257	-0.495905
C37	C	1.157744	-1.115208	-0.448808
C38	C	1.255532	-0.506220	-0.354571
C39	C	1.337331	-0.506234	-0.354577
C40	C	1.063624	-0.506114	-0.546511
C41	C	1.063643	-0.506083	-0.628310
C42	C	1.063638	-0.232154	-0.354586
C43	C	1.063663	-0.115377	-0.354598
C44	C	1.110744	-0.438832	-0.816515
C45	C	1.110753	-0.438802	-0.893374
C46	C	1.016595	-0.573172	-0.893343
C47	C	1.016583	-0.573197	-0.816485
C48	C	1.063661	-0.506028	-0.778074
C49	C	1.063682	-0.505973	-0.931790
C50	C	1.063691	-0.505940	-1.015123
C51	C	1.063652	-0.506059	-0.694735
C52	C	1.063577	-0.506183	-0.163352
C53	C	1.063700	-0.505918	-0.081553
H54	H	0.633634	-0.627938	-0.269021
H55	H	0.633706	-0.384442	-0.440095
Br56	Br	0.473426	-0.348030	-0.465692
Br57	Br	0.952701	-0.876533	-0.243533
Br58	Br	1.174634	-0.347674	-0.764387
Br59	Br	1.174658	-0.347611	-0.945542
Br60	Br	1.268545	-0.875960	-0.559810
Br61	Br	0.473323	-0.664387	-0.243440
H62	H	1.157655	-0.806417	-0.448761
H63	H	1.243084	-1.104850	-0.534273
Br64	Br	0.952708	-0.664328	-0.945477
Br65	Br	1.157914	-1.264120	-0.448712
H66	H	0.978315	-1.105347	-0.269141
Br67	Br	0.952674	-0.664388	-0.764309
