data_functionalizedCrystal
_audit_creation_method	'MofGen! by Chris Wilmer'
_symmetry_space_group_name_H-M	'P1'
_symmetry_Int_Tables_number	1
_symmetry_cell_setting	triclinic
loop_
_symmetry_equiv_pos_as_xyz
  x,y,z
_cell_length_a	10.723024
_cell_length_b	17.666332
_cell_length_c	10.723023
_cell_angle_alpha	90.005418
_cell_angle_beta	84.467709
_cell_angle_gamma	90.009033
loop_
_atom_site_label
_atom_site_type_symbol
_atom_site_fract_x
_atom_site_fract_y
_atom_site_fract_z
O1	O	1.657197	0.062942	0.175030
O2	O	2.157197	0.562942	0.675030
O3	O	1.294044	0.062944	0.191783
O4	O	1.794044	0.562944	0.691783
O5	O	1.483998	0.062940	0.001830
O6	O	1.983998	0.562940	0.501830
O7	O	1.467243	0.062946	0.364982
O8	O	1.967243	0.562946	0.864982
O9	O	1.483964	-0.062957	0.001819
O10	O	1.983964	0.437043	0.501819
O11	O	1.294010	-0.062953	0.191772
O12	O	1.794010	0.437047	0.691772
O13	O	1.657163	-0.062955	0.175019
O14	O	2.157163	0.437045	0.675019
Cu15	Cu	1.475584	-0.074449	0.183395
Cu16	Cu	1.975584	0.425551	0.683395
Cu17	Cu	1.475623	0.074438	0.183407
Cu18	Cu	1.975623	0.574438	0.683407
O19	O	1.467209	-0.062951	0.364972
O20	O	1.967209	0.437049	0.864972
C21	C	1.247528	-0.000004	0.190558
C22	C	1.747528	0.499996	0.690558
C23	C	1.108973	-0.000003	0.186911
C24	C	1.608973	0.499997	0.686911
N25	N	1.475565	-0.179169	0.183385
N26	N	1.975565	0.320831	0.683385
C27	C	1.033991	-0.000001	0.293198
C28	C	1.533991	0.499999	0.793198
C29	C	0.890787	0.000000	0.289431
C30	C	1.390787	0.500000	0.789431
C31	C	1.559704	-0.218780	0.099316
C32	C	2.059704	0.281220	0.599316
C33	C	1.559711	-0.298028	0.099310
C34	C	2.059711	0.201972	0.599310
C35	C	1.475591	-0.337661	0.183395
C36	C	1.975591	0.162339	0.683395
C37	C	1.391436	-0.298040	0.267471
C38	C	1.891436	0.201960	0.767471
C39	C	1.391423	-0.218794	0.267466
C40	C	1.891423	0.281206	0.767466
N41	N	1.460651	-0.462077	0.293680
N42	N	1.960651	0.037923	0.793680
N43	N	1.460671	-0.537358	0.293681
N44	N	1.960671	-0.037358	0.793681
C45	C	1.475624	-0.576425	0.183413
C46	C	1.975624	-0.076425	0.683413
N47	N	1.490581	-0.537367	0.073140
N48	N	1.990581	-0.037367	0.573140
N49	N	1.490567	-0.462080	0.073141
N50	N	1.990567	0.037920	0.573141
C51	C	1.475596	-0.423590	0.183409
C52	C	1.975596	0.076410	0.683409
C53	C	1.559776	-0.701966	0.099330
C54	C	2.059776	-0.201966	0.599330
C55	C	1.559774	-0.781215	0.099322
C56	C	2.059774	-0.281215	0.599322
C57	C	1.391505	-0.781225	0.267494
C58	C	1.891505	-0.281225	0.767494
C59	C	1.391501	-0.701978	0.267491
C60	C	1.891501	-0.201978	0.767491
C61	C	1.475643	-0.662353	0.183410
C62	C	1.975643	-0.162353	0.683410
C63	C	1.703679	-0.000005	0.176243
C64	C	2.203679	0.499995	0.676243
C65	C	1.842234	-0.000001	0.179891
C66	C	2.342234	0.499999	0.679891
C67	C	1.482762	-0.000008	-0.044675
C68	C	1.982762	0.499992	0.455325
C69	C	1.479114	-0.000005	-0.183229
C70	C	1.979114	0.499995	0.316771
N71	N	1.475652	0.179158	0.183407
N72	N	1.975652	0.679158	0.683407
C73	C	1.477506	0.065214	-0.244990
C74	C	1.977506	0.565214	0.255010
C75	C	1.473736	0.065218	-0.388193
C76	C	1.973736	0.565218	0.111807
C77	C	1.468445	-0.000002	0.411477
C78	C	1.968445	0.499998	0.911477
C79	C	1.472093	0.000001	0.550031
C80	C	1.972093	0.500001	1.050031
H81	H	1.075812	-0.000003	0.386984
H82	H	1.575812	0.499997	0.886984
H83	H	1.323009	-0.813494	0.335953
H84	H	1.823009	-0.313494	0.835953
H85	H	1.472359	0.121055	-0.441306
H86	H	1.972359	0.621055	0.058694
H87	H	1.067152	0.000015	0.093125
H88	H	1.567152	0.500015	0.593125
O89	O	1.473932	-0.073972	-0.379643
O90	O	1.973932	0.426028	0.120357
H91	H	1.390583	-0.077216	-0.309935
H92	H	1.890583	0.422784	0.190065
H93	H	0.826354	0.000005	0.380421
H94	H	1.326354	0.500005	0.880421
H95	H	0.906659	0.000001	0.088896
H96	H	1.406659	0.500001	0.588896
H97	H	1.628214	-0.186520	0.030850
H98	H	2.128214	0.313480	0.530850
O99	O	1.479366	0.139177	-0.174608
O100	O	1.979366	0.639177	0.325392
H101	H	1.563618	0.172110	-0.209915
H102	H	2.063618	0.672110	0.290085
H103	H	1.628230	-0.330286	0.030848
H104	H	2.128230	0.169714	0.530848
O105	O	1.477249	-0.073965	-0.253620
O106	O	1.977249	0.426035	0.246380
H107	H	1.392986	-0.106893	-0.218327
H108	H	1.892986	0.393107	0.281673
H109	H	1.322942	-0.330313	0.335932
H110	H	1.822942	0.169687	0.835932
H111	H	1.628286	-0.669702	0.030863
H112	H	2.128286	-0.169702	0.530863
H113	H	1.322905	-0.186541	0.335926
H114	H	1.822905	0.313459	0.835926
H115	H	1.628287	-0.813467	0.030856
H116	H	2.128287	-0.313467	0.530856
H117	H	1.322992	-0.669724	0.335953
H118	H	1.822992	-0.169724	0.835953
