data_functionalizedCrystal
_audit_creation_method	'MofGen! by Chris Wilmer'
_symmetry_space_group_name_H-M	'P1'
_symmetry_Int_Tables_number	1
_symmetry_cell_setting	triclinic
loop_
_symmetry_equiv_pos_as_xyz
  x,y,z
_cell_length_a	18.050589
_cell_length_b	18.050591
_cell_length_c	18.050582
_cell_angle_alpha	89.979078
_cell_angle_beta	90.018205
_cell_angle_gamma	89.975773
loop_
_atom_site_label
_atom_site_type_symbol
_atom_site_fract_x
_atom_site_fract_y
_atom_site_fract_z
Zn1	Zn	-0.295786	-1.135293	0.420054
Zn2	Zn	-0.419969	-1.135203	0.295873
Zn3	Zn	-0.295789	-1.011112	0.295865
Zn4	Zn	-0.419930	-1.011060	0.420009
O5	O	-0.357868	-1.073167	0.357950
O6	O	-0.312274	-1.239205	0.403603
O7	O	-0.403514	-1.118727	0.191948
O8	O	-0.191864	-1.027644	0.312354
O9	O	-0.403511	-1.239140	0.312369
O10	O	-0.191862	-1.118879	0.403595
O11	O	-0.312279	-1.027557	0.191942
O12	O	-0.312241	-0.907180	0.312311
O13	O	-0.403444	-1.027555	0.523940
O14	O	-0.403447	-0.907142	0.403519
O15	O	-0.312236	-1.118828	0.523973
O16	O	-0.523888	-1.118676	0.312325
O17	O	-0.523860	-1.027468	0.403527
C18	C	-0.357841	-0.880215	0.357909
C19	C	-0.357847	-0.797669	0.357909
C20	C	-0.550820	-1.073077	0.357938
C21	C	-0.633366	-1.073107	0.357958
C22	C	-0.357835	-1.073196	0.551656
C23	C	-0.357821	-1.073208	0.634202
C24	C	-0.832828	-1.023557	0.407536
C25	C	-0.882261	-1.005459	0.339767
C26	C	-0.784497	-1.073180	0.357967
C27	C	-0.882146	-1.091314	0.425744
C28	C	-0.930482	-1.073249	0.357983
C29	C	-0.832842	-1.055046	0.290162
C30	C	-0.832722	-1.140933	0.376186
C31	C	-0.882133	-1.122861	0.308370
C32	C	-0.700398	-1.073138	0.357959
C33	C	-1.014578	-1.073291	0.357983
C34	C	-0.164163	-1.073277	0.357979
C35	C	-0.081617	-1.073324	0.357991
C36	C	-0.357897	-1.266872	0.357992
C37	C	-0.357909	-1.349418	0.358010
C38	C	-0.308191	-0.598217	0.308425
C39	C	-0.375927	-0.548798	0.290154
C40	C	-0.357869	-0.646539	0.357943
C41	C	-0.290157	-0.548877	0.376212
C42	C	-0.357885	-0.500553	0.357974
C43	C	-0.425641	-0.598206	0.339637
C44	C	-0.339825	-0.598289	0.425726
C45	C	-0.407607	-0.548892	0.407481
C46	C	-0.357859	-0.730637	0.357923
C47	C	-0.357903	-0.416457	0.357994
C48	C	-0.357848	-1.073181	0.164998
C49	C	-0.357652	-1.073312	0.082453
C50	C	-0.407353	-1.023612	0.833635
C51	C	-0.425511	-1.091367	0.883034
C52	C	-0.357765	-1.073245	0.785332
C53	C	-0.339586	-1.005527	0.883014
C54	C	-0.357711	-1.073274	0.931317
C55	C	-0.375958	-1.141036	0.833645
C56	C	-0.290002	-1.055150	0.833620
C57	C	-0.308134	-1.122952	0.882998
C58	C	-0.357797	-1.073227	0.701234
C59	C	-0.357679	-1.073300	1.015414
H60	H	-0.811178	-0.981531	0.449395
O61	O	-0.258080	-1.173033	0.908819
C62	C	-0.201464	-1.228927	1.016069
C63	C	-0.258161	-1.172174	0.986927
H64	H	-0.201522	-1.228262	1.079222
H65	H	-0.143873	-1.213976	0.994917
H66	H	-0.217062	-1.286603	0.995633
H67	H	-0.242633	-1.114478	1.007351
H68	H	-0.315738	-1.187188	1.008073
H69	H	-0.266226	-0.619875	0.266503
O70	O	-0.221629	-1.036934	0.807788
C71	C	-0.091803	-1.067908	0.804625
C72	C	-0.169189	-1.088622	0.833946
H73	H	-0.049387	-1.109695	0.825748
H74	H	-0.076347	-1.010134	0.824892
H75	H	-0.092397	-1.068585	0.741474
H76	H	-0.168654	-1.087988	0.897095
H77	H	-0.184615	-1.146384	0.813622
O78	O	-0.321351	-0.937138	0.908799
C79	C	-0.353096	-0.807528	0.912996
C80	C	-0.373813	-0.884934	0.883734
H81	H	-0.395508	-0.765302	0.892755
H82	H	-0.295777	-0.791620	0.891803
H83	H	-0.352689	-0.808368	0.976147
H84	H	-0.374262	-0.884153	0.820585
H85	H	-0.431118	-0.900811	0.904984
O86	O	-0.221815	-0.522988	0.394507
C87	C	-0.116825	-0.449566	0.357088
C88	C	-0.194208	-0.478844	0.336278
H89	H	-0.094487	-0.413857	0.310028
H90	H	-0.077786	-0.498241	0.366979
H91	H	-0.120937	-0.414881	0.409695
H92	H	-0.190167	-0.513517	0.283661
H93	H	-0.233217	-0.430136	0.326435
O94	O	-0.321452	-0.624214	0.494053
C95	C	-0.229289	-0.628503	0.590568
C96	C	-0.250006	-0.599106	0.513175
H97	H	-0.171530	-0.608201	0.606058
H98	H	-0.229944	-0.691655	0.590040
H99	H	-0.271087	-0.607372	0.632926
H100	H	-0.208228	-0.620181	0.470773
H101	H	-0.249374	-0.535955	0.513763
H102	H	-0.903802	-1.106625	0.483056
O103	O	-0.394463	-1.209397	0.807978
C104	C	-0.486561	-1.305935	0.804550
C105	C	-0.465689	-1.228522	0.833683
H106	H	-0.544154	-1.321415	0.825308
H107	H	-0.444578	-1.348331	0.825327
H108	H	-0.486418	-1.305347	0.741396
H109	H	-0.465839	-1.229037	0.896835
H110	H	-0.507676	-1.186159	0.812850
H111	H	-0.482794	-1.106690	0.904739
O112	O	-0.806616	-1.209197	0.394541
C113	C	-0.699046	-1.285751	0.414511
C114	C	-0.728512	-1.208411	0.393686
H115	H	-0.635896	-1.285137	0.413842
H116	H	-0.720130	-1.328255	0.372842
H117	H	-0.719306	-1.301105	0.472323
H118	H	-0.708264	-1.192987	0.335892
H119	H	-0.707434	-1.165952	0.435403
O120	O	-0.908188	-0.937096	0.321506
C121	C	-0.912446	-0.807462	0.353057
C122	C	-0.883053	-0.884845	0.373826
H123	H	-0.892123	-0.765194	0.395338
H124	H	-0.975598	-0.808244	0.352745
H125	H	-0.891334	-0.791656	0.295674
H126	H	-0.904110	-0.900699	0.431213
H127	H	-0.819902	-0.884022	0.374087
O128	O	-0.394015	-0.522768	0.221785
C129	C	-0.356160	-0.449360	0.116904
C130	C	-0.335619	-0.478770	0.194339
H131	H	-0.308952	-0.413794	0.094684
H132	H	-0.408722	-0.414540	0.120788
H133	H	-0.365997	-0.498026	0.077889
H134	H	-0.325743	-0.430149	0.233396
H135	H	-0.283076	-0.513611	0.190397
O136	O	-0.806995	-1.036678	0.221822
C137	C	-0.699712	-1.016080	0.145132
C138	C	-0.728885	-1.036877	0.222563
H139	H	-0.636558	-1.016249	0.145701
H140	H	-0.720506	-0.958513	0.129495
H141	H	-0.720484	-1.058136	0.102858
H142	H	-0.708125	-0.994871	0.264888
H143	H	-0.708098	-1.094462	0.238137
H144	H	-0.903645	-1.164855	0.266409
H145	H	-0.482928	-0.619785	0.324134
H146	H	-0.449673	-0.527370	0.449370
O147	O	-0.457542	-0.973669	0.807806
C148	C	-0.585664	-0.936336	0.803722
C149	C	-0.528905	-0.992954	0.833008
H150	H	-0.643371	-0.951900	0.824099
H151	H	-0.584910	-0.936414	0.740569
H152	H	-0.570717	-0.878742	0.824862
H153	H	-0.543813	-1.050576	0.811923
H154	H	-0.529670	-0.992812	0.896160
