data_functionalizedCrystal
_audit_creation_method	'MofGen! by Chris Wilmer'
_symmetry_space_group_name_H-M	'P1'
_symmetry_Int_Tables_number	1
_symmetry_cell_setting	triclinic
loop_
_symmetry_equiv_pos_as_xyz
  x,y,z
_cell_length_a	12.645330
_cell_length_b	16.120530
_cell_length_c	16.120297
_cell_angle_alpha	89.871860
_cell_angle_beta	92.876762
_cell_angle_gamma	92.886558
loop_
_atom_site_label
_atom_site_type_symbol
_atom_site_fract_x
_atom_site_fract_y
_atom_site_fract_z
Zn1	Zn	-0.537081	-1.247482	-0.534595
Zn2	Zn	-0.705843	-1.254445	-0.395547
Zn3	Zn	-0.519167	-1.115471	-0.388512
Zn4	Zn	-0.704866	-1.108402	-0.527517
O5	O	-0.616739	-1.181450	-0.461543
O6	O	-0.567373	-1.364772	-0.522057
O7	O	-0.673991	-1.241883	-0.278248
O8	O	-0.373200	-1.133026	-0.407909
O9	O	-0.691362	-1.369888	-0.419899
O10	O	-0.386361	-1.230014	-0.515235
O11	O	-0.536842	-1.139779	-0.273080
O12	O	-0.535895	-0.998166	-0.401045
O13	O	-0.689698	-1.120978	-0.644821
O14	O	-0.672327	-0.992972	-0.503171
O15	O	-0.566427	-1.223160	-0.650022
O16	O	-0.854056	-1.235028	-0.413035
O17	O	-0.853339	-1.127731	-0.509992
C18	C	-0.602062	-0.965397	-0.450577
C19	C	-0.595810	-0.872967	-0.445905
C20	C	-0.892164	-1.181390	-0.461528
C21	C	-1.009999	-1.181439	-0.461554
C22	C	-0.629952	-1.170504	-0.678438
C23	C	-0.635582	-1.165839	-0.770865
C24	C	-1.177186	-1.114193	-0.522761
C25	C	-1.054592	-1.113876	-0.522537
C26	C	-1.047614	-1.162161	-0.372717
C27	C	-1.170210	-1.161751	-0.373088
C28	C	-1.184441	-1.268390	-0.488492
C29	C	-1.061915	-1.267753	-0.490381
C30	C	-0.340242	-1.181532	-0.461577
C31	C	-0.222415	-1.181567	-0.461592
C32	C	-0.631475	-1.398347	-0.472552
C33	C	-0.637754	-1.490775	-0.477244
C34	C	-0.584371	-0.703737	-0.437383
C35	C	-0.649190	-0.660000	-0.485763
C36	C	-0.642825	-0.565835	-0.481022
C37	C	-0.590734	-0.797911	-0.442124
C38	C	-0.645836	-1.157292	-0.940091
C39	C	-0.587337	-1.205771	-0.983855
C40	C	-0.593042	-1.201016	-1.078018
C41	C	-0.640132	-1.162047	-0.845919
C42	C	-0.603505	-1.192401	-0.245494
C43	C	-0.597587	-1.197227	-0.153075
H44	H	-1.211590	-1.125592	-0.588700
H45	H	-1.011500	-1.099513	-0.350136
H46	H	-0.700199	-1.112221	-0.973339
N47	N	-0.504548	-0.659669	-0.377790
H48	H	-0.518288	-0.677720	-0.319101
H49	H	-0.430651	-0.674105	-0.391609
N50	N	-1.009055	-1.225351	-0.310426
H51	H	-1.038148	-1.282575	-0.327649
H52	H	-0.929026	-1.224004	-0.308154
H53	H	-1.220602	-1.286844	-0.552405
N54	N	-1.008788	-1.028501	-0.498459
H55	H	-1.068248	-0.990927	-0.487945
H56	H	-0.961526	-1.032629	-0.446372
H57	H	-1.029426	-1.125422	-0.588270
N58	N	-0.729046	-0.704074	-0.545334
H59	H	-0.771422	-0.661764	-0.576959
H60	H	-0.690718	-0.738193	-0.585658
H61	H	-0.532968	-1.250846	-0.950605
H62	H	-1.032010	-1.320237	-0.449427
H63	H	-1.037930	-1.282372	-0.555782
H64	H	-1.193374	-1.098415	-0.350817
N65	N	-1.211089	-1.029334	-0.498974
H66	H	-1.291043	-1.029079	-0.501877
H67	H	-1.183168	-1.015699	-0.440540
N68	N	-1.223324	-1.334814	-0.429560
H69	H	-1.160674	-1.362399	-0.402148
H70	H	-1.265347	-1.308782	-0.385695
N71	N	-1.209490	-1.224244	-0.310342
H72	H	-1.147163	-1.251934	-0.282561
H73	H	-1.249165	-1.194988	-0.267119
