data_functionalizedCrystal
_audit_creation_method	'MofGen! by Chris Wilmer'
_symmetry_space_group_name_H-M	'P1'
_symmetry_Int_Tables_number	1
_symmetry_cell_setting	triclinic
loop_
_symmetry_equiv_pos_as_xyz
  x,y,z
_cell_length_a	10.686220
_cell_length_b	29.839134
_cell_length_c	10.685986
_cell_angle_alpha	94.401390
_cell_angle_beta	99.031303
_cell_angle_gamma	85.612865
loop_
_atom_site_label
_atom_site_type_symbol
_atom_site_fract_x
_atom_site_fract_y
_atom_site_fract_z
Zn1	Zn	1.885569	0.111712	-0.569063
Zn2	Zn	1.901735	0.192208	-0.356852
Zn3	Zn	1.689573	0.122451	-0.373096
Zn4	Zn	1.673332	0.192176	-0.585296
O5	O	1.787552	0.154637	-0.471077
O6	O	2.065326	0.117909	-0.527321
O7	O	1.887153	0.187462	-0.181389
O8	O	1.715604	0.058158	-0.399096
O9	O	2.077203	0.177049	-0.371410
O10	O	1.859601	0.050269	-0.543072
O11	O	1.731279	0.136212	-0.193324
O12	O	1.509806	0.136181	-0.414837
O13	O	1.687923	0.176995	-0.760760
O14	O	1.497874	0.187408	-0.570739
O15	O	1.843853	0.117879	-0.748834
O16	O	1.871405	0.255072	-0.387151
O17	O	1.703598	0.255048	-0.554988
C18	C	1.457787	0.162956	-0.496313
C19	C	1.316710	0.166525	-0.507139
C20	C	1.787611	0.037457	-0.471085
C21	C	1.787636	-0.012479	-0.471089
C22	C	1.712633	-0.318017	-0.396160
C23	C	1.712639	-0.505691	-0.396172
O24	O	1.648841	-0.526465	-0.332466
N25	N	1.787615	-0.533264	-0.471130
C26	C	1.862587	-0.513917	-0.546097
O27	O	1.926349	-0.541676	-0.609863
C28	C	1.862573	-0.326244	-0.546091
C29	C	1.787602	-0.298673	-0.471119
C30	C	1.637667	-0.290446	-0.321195
C31	C	1.637671	-0.243531	-0.321188
C32	C	1.712641	-0.224186	-0.396146
C33	C	1.787607	-0.251757	-0.471111
C34	C	1.937538	-0.306897	-0.621064
C35	C	1.937525	-0.259975	-0.621059
C36	C	1.862555	-0.232404	-0.546086
C37	C	1.862581	-0.185497	-0.546062
N38	N	1.787606	-0.157924	-0.471104
C39	C	1.712636	-0.177268	-0.396146
C40	C	1.862592	-0.612447	-0.546092
C41	C	1.862597	-0.659365	-0.546092
C42	C	1.712647	-0.651136	-0.396169
C43	C	1.712649	-0.604217	-0.396163
C44	C	1.787616	-0.584874	-0.471134
C45	C	1.712651	-0.078743	-0.396135
C46	C	1.712666	-0.031823	-0.396131
C47	C	1.862611	-0.040056	-0.546059
C48	C	1.862602	-0.086972	-0.546059
C49	C	1.787612	-0.106313	-0.471094
O50	O	1.926335	-0.164692	-0.609745
O51	O	1.648862	-0.149502	-0.332410
C52	C	1.712628	-0.364933	-0.396168
C53	C	1.787594	-0.392504	-0.471133
C54	C	1.862564	-0.373159	-0.546091
C55	C	1.787599	-0.439422	-0.471133
C56	C	1.712629	-0.458766	-0.396175
C57	C	1.637654	-0.431193	-0.321217
C58	C	1.637658	-0.384278	-0.321210
C59	C	1.937539	-0.400732	-0.621049
C60	C	1.937530	-0.447648	-0.621050
C61	C	1.862560	-0.466992	-0.546091
C62	C	2.118605	0.146285	-0.445743
C63	C	2.259679	0.142726	-0.434947
C64	C	1.787526	0.271360	-0.471093
C65	C	1.787627	0.321290	-0.471134
C66	C	1.762273	0.146235	-0.802139
C67	C	1.751500	0.142655	-0.943218
C68	C	1.812806	0.162971	-0.141297
C69	C	1.823824	0.166419	-0.000200
H70	H	1.651616	-0.009376	-0.335074
H71	H	1.257602	0.189636	-0.577227
C72	C	1.630169	-0.672421	-0.313729
H73	H	1.640907	-0.704312	-0.324483
H74	H	1.655234	-0.663040	-0.227020
H75	H	1.543468	-0.663049	-0.338855
C76	C	1.630172	-0.100012	-0.313669
H77	H	1.585540	-0.076867	-0.269019
H78	H	1.571154	-0.118148	-0.366444
H79	H	1.682953	-0.118138	-0.254643
H80	H	1.576619	-0.221086	-0.260140
C81	C	1.656706	0.111478	-1.023110
H82	H	1.661647	0.113086	-1.110631
H83	H	1.676914	0.081365	-1.000039
H84	H	1.573058	0.120755	-1.007967
H85	H	1.318781	0.119620	-0.364856
C86	C	1.555200	-0.311718	-0.238726
H87	H	1.510568	-0.288572	-0.194080
H88	H	1.496183	-0.329857	-0.291492
H89	H	1.607988	-0.329841	-0.179696
H90	H	1.651599	-0.581772	-0.335115
H91	H	1.893994	0.189500	-0.941049
H92	H	1.923660	-0.681811	-0.607127
C93	C	1.945072	-0.591175	-0.628555
H94	H	1.989729	-0.614320	-0.673180
H95	H	1.892309	-0.573049	-0.687582
H96	H	2.004089	-0.573040	-0.575761
C97	C	2.020009	-0.337215	-0.703533
H98	H	2.064641	-0.318968	-0.748178
H99	H	2.079028	-0.355684	-0.650760
H100	H	1.967232	-0.355693	-0.762565
H101	H	1.998563	-0.244229	-0.682122
H102	H	1.576615	-0.446951	-0.260178
C103	C	1.945038	-0.117301	-0.628555
H104	H	1.989673	-0.099058	-0.673209
H105	H	2.004052	-0.135781	-0.575811
H106	H	1.892218	-0.135767	-0.687577
H107	H	1.923654	-0.024297	-0.607083
H108	H	1.576609	-0.361833	-0.260160
H109	H	1.998591	-0.470094	-0.682098
H110	H	1.998591	-0.384987	-0.682090
