data_functionalizedCrystal
_audit_creation_method	'MofGen! by Chris Wilmer'
_symmetry_space_group_name_H-M	'P1'
_symmetry_Int_Tables_number	1
_symmetry_cell_setting	triclinic
loop_
_symmetry_equiv_pos_as_xyz
  x,y,z
_cell_length_a	16.625548
_cell_length_b	18.101395
_cell_length_c	18.101389
_cell_angle_alpha	89.983159
_cell_angle_beta	89.981016
_cell_angle_gamma	90.032172
loop_
_atom_site_label
_atom_site_type_symbol
_atom_site_fract_x
_atom_site_fract_y
_atom_site_fract_z
Zn1	Zn	1.232619	-0.294886	-0.418741
Zn2	Zn	1.732619	0.205114	0.081259
Zn3	Zn	1.232506	-0.418712	-0.294903
Zn4	Zn	1.732506	0.081288	0.205097
Zn5	Zn	1.097785	-0.294891	-0.294914
Zn6	Zn	1.597785	0.205109	0.205086
Zn7	Zn	1.097731	-0.418693	-0.418703
Zn8	Zn	1.597731	0.081307	0.081297
O9	O	1.165160	-0.356795	-0.356815
O10	O	1.665160	0.143205	0.143185
O11	O	1.345437	-0.311318	-0.402325
O12	O	1.845437	0.188682	0.097675
O13	O	1.214610	-0.402297	-0.191272
O14	O	1.714610	0.097703	0.308728
O15	O	1.115741	-0.191257	-0.311360
O16	O	1.615741	0.308743	0.188640
O17	O	1.345353	-0.402292	-0.311342
O18	O	1.845353	0.097708	0.188658
O19	O	1.214803	-0.191254	-0.402336
O20	O	1.714803	0.308746	0.097664
O21	O	1.115631	-0.311326	-0.191280
O22	O	1.615631	0.188674	0.308720
O23	O	0.984945	-0.311308	-0.311324
O24	O	1.484945	0.188692	0.188676
O25	O	1.115650	-0.402259	-0.522341
O26	O	1.615650	0.097741	-0.022341
O27	O	0.984906	-0.402264	-0.402271
O28	O	1.484906	0.097736	0.097729
O29	O	1.214751	-0.311299	-0.522369
O30	O	1.714751	0.188701	-0.022369
O31	O	1.214558	-0.522342	-0.311305
O32	O	1.714558	-0.022342	0.188695
O33	O	1.115540	-0.522328	-0.402261
O34	O	1.615540	-0.022328	0.097739
C35	C	0.955670	-0.356785	-0.356795
C36	C	1.455670	0.143215	0.143205
C37	C	0.866048	-0.356798	-0.356803
C38	C	1.366048	0.143202	0.143197
C39	C	0.537873	-0.356803	-0.356835
C40	C	1.037873	0.143197	0.143165
C41	C	0.629181	-0.356800	-0.356824
C42	C	1.129181	0.143200	0.143176
C43	C	0.701958	-0.356801	-0.356819
C44	C	1.201958	0.143199	0.143181
C45	C	0.793272	-0.356797	-0.356809
C46	C	1.293272	0.143203	0.143191
C47	C	1.165053	-0.549206	-0.356794
C48	C	1.665053	-0.049206	0.143206
C49	C	1.165080	-0.631520	-0.356809
C50	C	1.665080	-0.131520	0.143191
C51	C	1.165257	-0.930611	-0.356849
C52	C	1.665257	-0.430611	0.143151
C53	C	1.103102	-0.899308	-0.414218
C54	C	1.603102	-0.399308	0.085782
C55	C	1.102807	-0.813690	-0.414038
C56	C	1.602807	-0.313690	0.085962
C57	C	1.165169	-0.782229	-0.356830
C58	C	1.665169	-0.282229	0.143170
C59	C	1.142164	-0.813366	-0.278780
C60	C	1.642164	-0.313366	0.221220
C61	C	1.141764	-0.899011	-0.279124
C62	C	1.641764	-0.399011	0.220876
C63	C	1.250553	-0.898957	-0.376843
C64	C	1.750553	-0.398957	0.123157
C65	C	1.250052	-0.813306	-0.378554
C66	C	1.750052	-0.313306	0.121446
C67	C	1.165121	-0.698369	-0.356814
C68	C	1.665121	-0.198369	0.143186
C69	C	1.165303	-1.014470	-0.356859
C70	C	1.665303	-0.514470	0.143141
C71	C	1.375469	-0.356807	-0.356837
C72	C	1.875469	0.143193	0.143163
C73	C	1.465090	-0.356811	-0.356846
C74	C	1.965090	0.143189	0.143154
C75	C	1.165207	-0.356777	-0.549977
C76	C	1.665207	0.143223	-0.049977
C77	C	1.165227	-0.356769	-0.632292
C78	C	1.665227	0.143231	-0.132292
C79	C	1.165291	-0.163633	-0.356854
C80	C	1.665291	0.336367	0.143146
C81	C	1.165346	-0.081319	-0.356870
C82	C	1.665346	0.418681	0.143130
C83	C	1.165274	-0.356630	-0.931383
C84	C	1.665274	0.143370	-0.431383
C85	C	1.102707	-0.413678	-0.900040
C86	C	1.602707	0.086322	-0.400040
C87	C	1.102876	-0.413942	-0.814422
C88	C	1.602876	0.086058	-0.314422
C89	C	1.165250	-0.356699	-0.783000
C90	C	1.665250	0.143301	-0.283000
C91	C	1.250202	-0.377881	-0.814099
C92	C	1.750202	0.122119	-0.314099
C93	C	1.249853	-0.378256	-0.899744
C94	C	1.749853	0.121744	-0.399744
C95	C	1.143628	-0.278273	-0.899807
C96	C	1.643628	0.221727	-0.399807
C97	C	1.141737	-0.278725	-0.814156
C98	C	1.641737	0.221275	-0.314156
C99	C	1.165242	-0.356736	-0.699141
C100	C	1.665242	0.143264	-0.199141
C101	C	1.165288	-0.356594	-1.015242
C102	C	1.665288	0.143406	-0.515242
C103	C	1.165160	-0.356761	-0.164405
C104	C	1.665160	0.143239	0.335595
C105	C	1.165297	-0.356560	-0.082091
C106	C	1.665297	0.143440	0.417909
H107	H	1.117199	-0.792636	-0.471911
H108	H	1.617199	-0.292636	0.028089
F109	F	1.060267	-0.925208	-0.256987
F110	F	1.560267	-0.425208	0.243013
F111	F	1.272729	-0.786705	-0.453633
F112	F	1.772729	-0.286705	0.046367
H113	H	1.185071	-0.919720	-0.234922
H114	H	1.685071	-0.419720	0.265078
F115	F	1.203191	-0.222717	-0.926301
F116	F	1.703191	0.277283	-0.426301
H117	H	1.116856	-0.471404	-0.921566
H118	H	1.616856	0.028596	-0.421566
F119	F	1.312816	-0.326271	-0.926849
F120	F	1.812816	0.173729	-0.426849
F121	F	1.199474	-0.786731	-0.221385
F122	F	1.699474	-0.286731	0.278615
H123	H	1.080474	-0.791979	-0.261540
H124	H	1.580474	-0.291979	0.238460
H125	H	1.271527	-0.920515	-0.432786
H126	H	1.771527	-0.420515	0.067214
H127	H	1.117167	-0.472023	-0.793940
H128	H	1.617167	0.027977	-0.293940
H129	H	1.082758	-0.258973	-0.921397
H130	H	1.582758	0.241027	-0.421397
H131	H	1.298070	-0.337636	-0.793748
H132	H	1.798070	0.162364	-0.293748
H133	H	1.268869	-0.434553	-0.792657
H134	H	1.768869	0.065447	-0.292657
F135	F	1.060019	-0.257848	-0.787596
F136	F	1.560019	0.242152	-0.287596
H137	H	1.298810	-0.791886	-0.339816
H138	H	1.798810	-0.291886	0.160184
F139	F	1.311084	-0.925425	-0.322238
F140	F	1.811084	-0.425425	0.177762
H141	H	1.039881	-0.400687	-0.793394
H142	H	1.539881	0.099313	-0.293394
F143	F	1.196961	-0.220220	-0.786208
F144	F	1.696961	0.279780	-0.286208
H145	H	1.040263	-0.920893	-0.401141
H146	H	1.540263	-0.420893	0.098859
H147	H	1.039583	-0.793265	-0.400795
H148	H	1.539583	-0.293265	0.099205
H149	H	1.039522	-0.400558	-0.920631
H150	H	1.539522	0.099442	-0.420631
F151	F	1.121724	-0.926180	-0.490109
F152	F	1.621724	-0.426180	0.009891
H153	H	1.268204	-0.435536	-0.919727
H154	H	1.768204	0.064464	-0.419727
