data_functionalizedCrystal
_audit_creation_method	'MofGen! by Chris Wilmer'
_symmetry_space_group_name_H-M	'P1'
_symmetry_Int_Tables_number	1
_symmetry_cell_setting	triclinic
loop_
_symmetry_equiv_pos_as_xyz
  x,y,z
_cell_length_a	23.532357
_cell_length_b	10.540510
_cell_length_c	9.016244
_cell_angle_alpha	89.992396
_cell_angle_beta	89.992217
_cell_angle_gamma	83.670801
loop_
_atom_site_label
_atom_site_type_symbol
_atom_site_fract_x
_atom_site_fract_y
_atom_site_fract_z
O1	O	0.080172	1.683252	-0.123370
O2	O	0.087752	1.313582	-0.123373
O3	O	0.001102	1.509598	-0.123341
O4	O	0.166822	1.487237	-0.123402
O5	O	0.001103	1.509569	0.123340
O6	O	0.087754	1.313554	0.123308
O7	O	0.080174	1.683223	0.123311
Cu8	Cu	0.083964	1.498386	0.145834
Cu9	Cu	0.083962	1.498420	-0.145895
O10	O	0.166824	1.487208	0.123279
C11	C	0.087188	1.266283	-0.000032
C12	C	0.085498	1.125389	-0.000032
C13	C	0.145693	0.905935	-0.000621
C14	C	0.147496	1.052470	-0.000056
C15	C	0.053762	1.081668	0.140843
C16	C	0.052399	0.934952	0.140953
C17	C	0.051105	0.935221	-0.139569
C18	C	0.054046	1.081465	-0.141423
C19	C	-0.020118	1.509024	0.000004
C20	C	-0.083347	1.507342	0.000018
C21	C	-0.475429	1.496801	-0.134527
C22	C	-0.534839	1.495202	-0.134536
O23	O	-0.565562	1.494346	-0.248894
N24	N	-0.564554	1.494394	-0.000072
C25	C	-0.534856	1.495172	0.134409
O26	O	-0.565586	1.494336	0.248780
C27	C	-0.475446	1.496761	0.134416
C28	C	-0.445735	1.497582	-0.000057
C29	C	-0.445717	1.497621	-0.268989
C30	C	-0.386312	1.499222	-0.268980
C31	C	-0.356618	1.500003	-0.134509
C32	C	-0.386329	1.499183	-0.000048
C33	C	-0.445749	1.497529	0.268895
C34	C	-0.386335	1.499118	0.268891
C35	C	-0.356624	1.499939	0.134418
C36	C	-0.297230	1.501565	0.134432
N37	N	-0.267514	1.502373	-0.000032
C38	C	-0.297208	1.501592	-0.134503
C39	C	-0.659619	1.491832	0.134384
C40	C	-0.719028	1.490251	0.134379
C41	C	-0.719007	1.490280	-0.134567
C42	C	-0.659598	1.491869	-0.134560
C43	C	-0.629904	1.492640	-0.000080
C44	C	-0.172452	1.504955	-0.134473
C45	C	-0.113041	1.506561	-0.134452
C46	C	-0.113067	1.506526	0.134492
C47	C	-0.172473	1.504927	0.134472
C48	C	-0.202164	1.504137	-0.000023
O49	O	-0.266469	1.502417	0.248731
O50	O	-0.266470	1.502411	-0.248854
C51	C	0.188044	1.487782	-0.000069
C52	C	0.251273	1.489463	-0.000093
C53	C	0.080738	1.730523	-0.000033
C54	C	0.082428	1.871416	-0.000043
N55	N	0.083965	1.498372	0.351020
N56	N	0.083956	1.498444	-0.351081
C57	C	0.130162	1.393204	0.586035
C58	C	0.130335	1.393428	0.414144
C59	C	0.097477	1.630648	0.413353
C60	C	0.097804	1.630071	0.585298
C61	C	0.024106	1.472586	0.585585
C62	C	0.024494	1.469528	0.413631
H63	H	0.008120	1.130573	0.146099
Cl64	Cl	-0.756374	1.489244	0.303437
H65	H	0.065505	1.710787	0.626892
H66	H	-0.088853	1.507233	-0.243961
Cl67	Cl	-0.483085	1.496489	0.437958
Cl68	Cl	-0.209768	1.503965	-0.303555
H69	H	0.174739	1.409853	0.372981
Cl70	Cl	0.198333	1.418230	0.652662
H71	H	0.014252	1.372228	0.372893
H72	H	-0.088880	1.507168	0.243975
Cl73	Cl	-0.622297	1.492813	0.303463
Cl74	Cl	0.164130	1.666880	0.346826
H75	H	-0.011542	1.541253	0.370668
Cl76	Cl	-0.028992	1.591086	0.648369
Cl77	Cl	0.085889	0.871723	0.303506
H78	H	0.141469	1.652975	0.625371
Cl79	Cl	0.182988	0.839940	-0.156604
Cl80	Cl	-0.348968	1.500242	-0.438041
Cl81	Cl	0.182775	0.837514	0.154446
H82	H	0.172476	1.080033	0.101080
Cl83	Cl	-0.483036	1.496641	-0.438062
Cl84	Cl	-0.020761	0.903412	-0.141010
Cl85	Cl	-0.019190	0.901818	0.150946
H86	H	-0.635410	1.492536	-0.244059
H87	H	-0.196666	1.504270	0.243971
Cl88	Cl	0.087791	1.128148	0.302686
Cl89	Cl	-0.756347	1.489287	-0.303617
H90	H	0.077137	1.109328	-0.245641
H91	H	0.070656	0.892036	-0.246344
Cl92	Cl	-0.015841	1.159532	-0.154528
Cl93	Cl	-0.349010	1.500088	0.437963
H94	H	0.122206	1.295080	0.372003
H95	H	0.064741	1.710791	0.372461
Cl96	Cl	0.185832	1.096527	-0.155970
H97	H	0.122158	1.294544	0.627431
H98	H	0.011245	1.378275	0.629038
