data_functionalizedCrystal
_audit_creation_method	'MofGen! by Chris Wilmer'
_symmetry_space_group_name_H-M	'P1'
_symmetry_Int_Tables_number	1
_symmetry_cell_setting	triclinic
loop_
_symmetry_equiv_pos_as_xyz
  x,y,z
_cell_length_a	14.519709
_cell_length_b	15.944493
_cell_length_c	13.596369
_cell_angle_alpha	89.999885
_cell_angle_beta	90.000291
_cell_angle_gamma	83.577594
loop_
_atom_site_label
_atom_site_type_symbol
_atom_site_fract_x
_atom_site_fract_y
_atom_site_fract_z
O1	O	1.223651	0.110112	-0.081650
O2	O	0.955148	0.123079	-0.081679
O3	O	1.096759	-0.005672	-0.081672
O4	O	1.082039	0.238863	-0.081657
O5	O	1.096745	-0.005679	0.081911
O6	O	0.955134	0.123072	0.081904
O7	O	1.223637	0.110105	0.081933
Zn8	Zn	1.089383	0.116587	0.107891
Zn9	Zn	1.089402	0.116596	-0.107637
O10	O	1.082025	0.238856	0.081926
C11	C	0.920783	0.122471	0.000109
C12	C	0.818405	0.120660	0.000097
C13	C	0.443522	0.113994	0.000142
C14	C	0.547826	0.115845	0.000129
C15	C	0.630960	0.117327	0.000119
C16	C	0.735271	0.119178	0.000108
C17	C	1.096151	-0.036971	0.000115
C18	C	1.094347	-0.130222	0.000103
C19	C	1.177703	-0.365861	0.000130
C20	C	1.132759	-0.416491	-0.080529
C21	C	1.091005	-0.300948	0.000114
C22	C	1.132725	-0.416474	0.080751
C23	C	1.087783	-0.465863	0.000130
C24	C	1.046085	-0.350350	-0.080611
C25	C	1.046063	-0.350329	0.080741
C26	C	1.001056	-0.400926	0.000062
C27	C	1.092863	-0.205946	0.000105
C28	C	1.085918	-0.560862	0.000133
C29	C	1.258002	0.110713	0.000143
C30	C	1.360380	0.112524	0.000148
C31	C	1.082634	0.270155	0.000137
C32	C	1.084438	0.363406	0.000143
N33	N	1.089377	0.116581	0.254983
N34	N	1.089415	0.116596	-0.254729
C35	C	1.089400	0.116597	0.656274
C36	C	1.089391	0.116596	0.544622
C37	C	1.089389	0.116590	0.455632
C38	C	1.089379	0.116587	0.343973
H39	H	1.252382	-0.350125	0.000057
O40	O	1.002420	-0.315981	0.162159
C41	C	0.970766	-0.380494	0.219737
H42	H	1.013401	-0.443132	0.202146
H43	H	0.894677	-0.385327	0.202624
C44	C	0.929018	-0.282890	0.351117
C45	C	0.981388	-0.359822	0.329517
H46	H	0.935566	-0.270137	0.418834
H47	H	0.950340	-0.239425	0.312325
H48	H	0.865615	-0.286927	0.336849
H49	H	1.044791	-0.355780	0.343773
H50	H	0.960077	-0.403286	0.368314
H51	H	1.169351	-0.445355	0.148938
H52	H	1.169379	-0.445381	-0.148713
H53	H	1.009498	-0.321580	-0.148875
O54	O	0.911883	-0.419473	-0.000168
C55	C	0.866526	-0.385464	-0.085309
H56	H	0.920083	-0.376167	-0.144474
H57	H	0.825860	-0.322075	-0.066841
C58	C	0.733786	-0.457919	-0.050673
C59	C	0.799565	-0.446507	-0.123343
H60	H	0.692478	-0.495570	-0.074133
H61	H	0.764342	-0.480829	0.006690
H62	H	0.699907	-0.405090	-0.035290
H63	H	0.833450	-0.499333	-0.138716
H64	H	0.769013	-0.423607	-0.180710
