data_functionalizedCrystal
_audit_creation_method	'MofGen! by Chris Wilmer'
_symmetry_space_group_name_H-M	'P1'
_symmetry_Int_Tables_number	1
_symmetry_cell_setting	triclinic
loop_
_symmetry_equiv_pos_as_xyz
  x,y,z
_cell_length_a	19.077068
_cell_length_b	19.805407
_cell_length_c	19.805399
_cell_angle_alpha	89.980427
_cell_angle_beta	87.730571
_cell_angle_gamma	87.672914
loop_
_atom_site_label
_atom_site_type_symbol
_atom_site_fract_x
_atom_site_fract_y
_atom_site_fract_z
Zn1	Zn	-0.280218	-1.023904	0.393534
Zn2	Zn	-0.030218	-0.773904	0.643534
Zn3	Zn	0.219782	-0.523904	0.893534
Zn4	Zn	0.469782	-0.273904	1.143534
Zn5	Zn	-0.397917	-1.019269	0.284888
Zn6	Zn	-0.147917	-0.769269	0.534888
Zn7	Zn	0.102083	-0.519269	0.784888
Zn8	Zn	0.352083	-0.269269	1.034888
Zn9	Zn	-0.280237	-0.910718	0.280359
Zn10	Zn	-0.030237	-0.660718	0.530359
Zn11	Zn	0.219763	-0.410718	0.780359
Zn12	Zn	0.469763	-0.160718	1.030359
Zn13	Zn	-0.397880	-0.906134	0.398033
Zn14	Zn	-0.147880	-0.656134	0.648033
Zn15	Zn	0.102120	-0.406134	0.898033
Zn16	Zn	0.352120	-0.156134	1.148033
O17	O	-0.339063	-0.965006	0.339204
O18	O	-0.089063	-0.715006	0.589204
O19	O	0.160937	-0.465006	0.839204
O20	O	0.410937	-0.215006	1.089204
O21	O	-0.295839	-1.118005	0.379134
O22	O	-0.045839	-0.868005	0.629134
O23	O	0.204161	-0.618005	0.879134
O24	O	0.454161	-0.368005	1.129134
O25	O	-0.382330	-1.004848	0.189571
O26	O	-0.132330	-0.754848	0.439571
O27	O	0.117670	-0.504848	0.689571
O28	O	0.367670	-0.254848	0.939571
O29	O	-0.181744	-0.929590	0.291594
O30	O	0.068256	-0.679590	0.541594
O31	O	0.318256	-0.429590	0.791594
O32	O	0.568256	-0.179590	1.041594
O33	O	-0.382312	-1.114600	0.299312
O34	O	-0.132312	-0.864600	0.549312
O35	O	0.117688	-0.614600	0.799312
O36	O	0.367688	-0.364600	1.049312
O37	O	-0.181729	-1.012748	0.374743
O38	O	0.068271	-0.762748	0.624743
O39	O	0.318271	-0.512748	0.874743
O40	O	0.568271	-0.262748	1.124743
O41	O	-0.295872	-0.925096	0.186244
O42	O	-0.045872	-0.675096	0.436244
O43	O	0.204128	-0.425096	0.686244
O44	O	0.454128	-0.175096	0.936244
O45	O	-0.295835	-0.815394	0.295957
O46	O	-0.045835	-0.565394	0.545957
O47	O	0.204165	-0.315394	0.795957
O48	O	0.454165	-0.065394	1.045957
O49	O	-0.382248	-0.921778	0.492152
O50	O	-0.132248	-0.671778	0.742152
O51	O	0.117752	-0.421778	0.992152
O52	O	0.367752	-0.171778	1.242152
O53	O	-0.382267	-0.812026	0.382411
O54	O	-0.132267	-0.562026	0.632411
O55	O	0.117733	-0.312026	0.882411
O56	O	0.367733	-0.062026	1.132411
O57	O	-0.295802	-1.008303	0.488846
O58	O	-0.045802	-0.758303	0.738846
O59	O	0.204198	-0.508303	0.988846
O60	O	0.454198	-0.258303	1.238846
O61	O	-0.496403	-1.000404	0.303675
O62	O	-0.246403	-0.750404	0.553675
O63	O	0.003597	-0.500404	0.803675
O64	O	0.253597	-0.250404	1.053675
O65	O	-0.496376	-0.917284	0.386802
O66	O	-0.246376	-0.667284	0.636802
O67	O	0.003624	-0.417284	0.886802
O68	O	0.253624	-0.167284	1.136802
C69	C	-0.339050	-0.789151	0.339181
C70	C	-0.089050	-0.539151	0.589181
C71	C	0.160950	-0.289151	0.839181
C72	C	0.410950	-0.039151	1.089181
C73	C	-0.339061	-0.713918	0.339188
C74	C	-0.089061	-0.463918	0.589188
C75	C	0.160939	-0.213918	0.839188
C76	C	0.410939	0.036082	1.089188
C77	C	-0.521927	-0.957862	0.346233
C78	C	-0.271927	-0.707862	0.596233
C79	C	-0.021927	-0.457862	0.846233
C80	C	0.228073	-0.207862	1.096233
C81	C	-0.600157	-0.954867	0.349263
C82	C	-0.350157	-0.704867	0.599263
C83	C	-0.100157	-0.454867	0.849263
C84	C	0.149843	-0.204867	1.099263
C85	C	-0.339019	-0.965046	0.515745
C86	C	-0.089019	-0.715046	0.765745
C87	C	0.160981	-0.465046	1.015745
C88	C	0.410981	-0.215046	1.265745
C89	C	-0.339000	-0.965063	0.590976
C90	C	-0.089000	-0.715063	0.840976
C91	C	0.161000	-0.465063	1.090976
C92	C	0.411000	-0.215063	1.340976
C93	C	-0.636901	-0.996770	0.307443
C94	C	-0.386901	-0.746770	0.557443
C95	C	-0.136901	-0.496770	0.807443
C96	C	0.113099	-0.246770	1.057443
C97	C	-0.710406	-0.993957	0.310296
C98	C	-0.460406	-0.743957	0.560296
C99	C	-0.210406	-0.493957	0.810296
C100	C	0.039594	-0.243957	1.060296
C101	C	-0.747167	-0.949238	0.354968
C102	C	-0.497167	-0.699238	0.604968
C103	C	-0.247167	-0.449238	0.854968
C104	C	0.002833	-0.199238	1.104968
C105	C	-0.710418	-0.907333	0.396793
C106	C	-0.460418	-0.657333	0.646793
C107	C	-0.210418	-0.407333	0.896793
C108	C	0.039582	-0.157333	1.146793
C109	C	-0.636914	-0.910150	0.393942
C110	C	-0.386914	-0.660150	0.643942
C111	C	-0.136914	-0.410150	0.893942
C112	C	0.113086	-0.160150	1.143942
C113	C	-0.967002	-0.936174	0.368135
C114	C	-0.717002	-0.686174	0.618135
C115	C	-0.467002	-0.436174	0.868135
C116	C	-0.217002	-0.186174	1.118135
C117	C	-1.040511	-0.933359	0.370981
C118	C	-0.790511	-0.683359	0.620981
C119	C	-0.540511	-0.433359	0.870981
C120	C	-0.290511	-0.183359	1.120981
C121	C	-1.040494	-1.019984	0.284485
C122	C	-0.790494	-0.769984	0.534485
C123	C	-0.540494	-0.519984	0.784485
C124	C	-0.290494	-0.269984	1.034485
C125	C	-0.966989	-1.022794	0.281635
C126	C	-0.716989	-0.772794	0.531635
C127	C	-0.466989	-0.522794	0.781635
C128	C	-0.216989	-0.272794	1.031635
C129	C	-0.930246	-0.980892	0.323463
C130	C	-0.680246	-0.730892	0.573463
C131	C	-0.430246	-0.480892	0.823463
C132	C	-0.180246	-0.230892	1.073463
N133	N	-0.822301	-0.946361	0.357884
N134	N	-0.572301	-0.696361	0.607884
N135	N	-0.322301	-0.446361	0.857884
N136	N	-0.072301	-0.196361	1.107884
N137	N	-0.855113	-0.983773	0.320549
N138	N	-0.605113	-0.733773	0.570549
N139	N	-0.355113	-0.483773	0.820549
N140	N	-0.105113	-0.233773	1.070549
C141	C	-0.155485	-0.972197	0.332161
C142	C	0.094515	-0.722197	0.582161
C143	C	0.344515	-0.472197	0.832161
C144	C	0.594515	-0.222197	1.082161
C145	C	-0.077255	-0.975262	0.329160
C146	C	0.172745	-0.725262	0.579160
C147	C	0.422745	-0.475262	0.829160
C148	C	0.672745	-0.225262	1.079160
C149	C	-0.339077	-1.141548	0.339226
C150	C	-0.089077	-0.891548	0.589226
C151	C	0.160923	-0.641548	0.839226
C152	C	0.410923	-0.391548	1.089226
C153	C	-0.339083	-1.216780	0.339236
C154	C	-0.089083	-0.966780	0.589236
C155	C	0.160917	-0.716780	0.839236
C156	C	0.410917	-0.466780	1.089236
C157	C	-0.384133	-0.676836	0.384138
C158	C	-0.134133	-0.426836	0.634138
C159	C	0.115867	-0.176836	0.884138
C160	C	0.365867	0.073164	1.134138
C161	C	-0.384135	-0.606147	0.384147
C162	C	-0.134135	-0.356147	0.634147
C163	C	0.115865	-0.106147	0.884147
C164	C	0.365865	0.143853	1.134147
C165	C	-0.339066	-0.572543	0.339204
C166	C	-0.089066	-0.322543	0.589204
C167	C	0.160934	-0.072543	0.839204
C168	C	0.410934	0.177457	1.089204
C169	C	-0.293989	-0.609630	0.294252
C170	C	-0.043989	-0.359630	0.544252
C171	C	0.206011	-0.109630	0.794252
C172	C	0.456011	0.140370	1.044252
C173	C	-0.293985	-0.680318	0.294246
C174	C	-0.043985	-0.430318	0.544246
C175	C	0.206015	-0.180318	0.794246
C176	C	0.456015	0.069682	1.044246
C177	C	-0.294004	-0.324556	0.294275
C178	C	-0.044004	-0.074556	0.544275
C179	C	0.205996	0.175444	0.794275
C180	C	0.455996	0.425444	1.044275
C181	C	-0.294014	-0.253864	0.294283
C182	C	-0.044014	-0.003864	0.544283
C183	C	0.205986	0.246136	0.794283
C184	C	0.455986	0.496136	1.044283
C185	C	-0.384154	-0.250386	0.384176
C186	C	-0.134154	-0.000386	0.634176
C187	C	0.115846	0.249614	0.884176
C188	C	0.365846	0.499614	1.134176
C189	C	-0.384150	-0.321073	0.384170
C190	C	-0.134150	-0.071073	0.634170
C191	C	0.115850	0.178927	0.884170
C192	C	0.365850	0.428927	1.134170
C193	C	-0.339070	-0.358155	0.339221
C194	C	-0.089070	-0.108155	0.589221
C195	C	0.160930	0.141845	0.839221
C196	C	0.410930	0.391845	1.089221
C197	C	-0.339069	-0.434804	0.339212
C198	C	-0.089069	-0.184804	0.589212
C199	C	0.160931	0.065196	0.839212
C200	C	0.410931	0.315196	1.089212
C201	C	-0.339071	-0.495895	0.339209
C202	C	-0.089071	-0.245895	0.589209
C203	C	0.160929	0.004105	0.839209
C204	C	0.410929	0.254105	1.089209
C205	C	-0.339056	-0.965008	0.163347
C206	C	-0.089056	-0.715008	0.413347
C207	C	0.160944	-0.465008	0.663347
C208	C	0.410944	-0.215008	0.913347
C209	C	-0.338877	-0.965130	0.088109
C210	C	-0.088877	-0.715130	0.338109
C211	C	0.161123	-0.465130	0.588109
C212	C	0.411123	-0.215130	0.838109
C213	C	-0.293985	-1.010118	0.624600
C214	C	-0.043985	-0.760118	0.874600
C215	C	0.206015	-0.510118	1.124600
C216	C	0.456015	-0.260118	1.374600
C217	C	-0.293965	-1.010125	0.695288
C218	C	-0.043965	-0.760125	0.945288
C219	C	0.206035	-0.510125	1.195288
C220	C	0.456035	-0.260125	1.445288
C221	C	-0.338963	-0.965081	0.732350
C222	C	-0.088963	-0.715081	0.982350
C223	C	0.161037	-0.465081	1.232350
C224	C	0.411037	-0.215081	1.482350
C225	C	-0.383980	-0.920022	0.698721
C226	C	-0.133980	-0.670022	0.948721
C227	C	0.116020	-0.420022	1.198721
C228	C	0.366020	-0.170022	1.448721
C229	C	-0.383996	-0.920011	0.628035
C230	C	-0.133996	-0.670011	0.878035
C231	C	0.116004	-0.420011	1.128035
C232	C	0.366004	-0.170011	1.378035
C233	C	-0.383914	-0.920062	0.983792
C234	C	-0.133914	-0.670062	1.233792
C235	C	0.116086	-0.420062	1.483792
C236	C	0.366086	-0.170062	1.733792
C237	C	-0.383896	-0.920078	1.054484
C238	C	-0.133896	-0.670078	1.304484
C239	C	0.116104	-0.420078	1.554484
C240	C	0.366104	-0.170078	1.804484
C241	C	-0.293883	-1.010177	1.051045
C242	C	-0.043883	-0.760177	1.301045
C243	C	0.206117	-0.510177	1.551045
C244	C	0.456117	-0.260177	1.801045
C245	C	-0.293899	-1.010166	0.980358
C246	C	-0.043899	-0.760166	1.230358
C247	C	0.206101	-0.510166	1.480358
C248	C	0.456101	-0.260166	1.730358
C249	C	-0.338913	-0.965104	0.946736
C250	C	-0.088913	-0.715104	1.196736
C251	C	0.161087	-0.465104	1.446736
C252	C	0.411087	-0.215104	1.696736
C253	C	-0.338934	-0.965096	0.870088
C254	C	-0.088934	-0.715096	1.120088
C255	C	0.161066	-0.465096	1.370088
C256	C	0.411066	-0.215096	1.620088
C257	C	-0.338947	-0.965093	0.808997
C258	C	-0.088947	-0.715093	1.058997
C259	C	0.161053	-0.465093	1.308997
C260	C	0.411053	-0.215093	1.558997
H261	H	-0.606975	-1.033182	0.271063
H262	H	-0.356975	-0.783182	0.521063
H263	H	-0.106975	-0.533182	0.771063
H264	H	0.143025	-0.283182	1.021063
Cl265	Cl	-0.237326	-0.567385	0.237755
Cl266	Cl	0.012674	-0.317385	0.487755
Cl267	Cl	0.262674	-0.067385	0.737755
Cl268	Cl	0.512674	0.182615	0.987755
Cl269	Cl	-1.086689	-1.072662	0.231909
Cl270	Cl	-0.836689	-0.822662	0.481909
Cl271	Cl	-0.586689	-0.572662	0.731909
Cl272	Cl	-0.336689	-0.322662	0.981909
H273	H	-0.420644	-0.883316	0.600659
H274	H	-0.170644	-0.633316	0.850659
H275	H	0.079356	-0.383316	1.100659
H276	H	0.329356	-0.133316	1.350659
Cl277	Cl	-0.756632	-0.851118	0.452956
Cl278	Cl	-0.506632	-0.601118	0.702956
Cl279	Cl	-0.256632	-0.351118	0.952956
Cl280	Cl	-0.006632	-0.101118	1.202956
H281	H	-0.606998	-0.876029	0.427998
H282	H	-0.356998	-0.626029	0.677998
H283	H	-0.106998	-0.376029	0.927998
H284	H	0.143002	-0.126029	1.177998
Cl285	Cl	-0.237318	-0.726936	0.237738
Cl286	Cl	0.012682	-0.476936	0.487738
Cl287	Cl	0.262682	-0.226936	0.737738
Cl288	Cl	0.512682	0.023064	0.987738
H289	H	-0.420836	-0.704191	0.420734
H290	H	-0.170836	-0.454191	0.670734
H291	H	0.079164	-0.204191	0.920734
H292	H	0.329164	0.045809	1.170734
Cl293	Cl	-0.440800	-0.559532	0.440658
Cl294	Cl	-0.190800	-0.309532	0.690658
Cl295	Cl	0.059200	-0.059532	0.940658
Cl296	Cl	0.309200	0.190468	1.190658
Cl297	Cl	-1.086724	-0.877127	0.427135
Cl298	Cl	-0.836724	-0.627127	0.677135
Cl299	Cl	-0.586724	-0.377127	0.927135
Cl300	Cl	-0.336724	-0.127127	1.177135
H301	H	-0.420852	-0.348430	0.420766
H302	H	-0.170852	-0.098430	0.670766
H303	H	0.079148	0.151570	0.920766
H304	H	0.329148	0.401570	1.170766
Cl305	Cl	-0.440827	-0.203765	0.440685
Cl306	Cl	-0.190827	0.046235	0.690685
Cl307	Cl	0.059173	0.296235	0.940685
Cl308	Cl	0.309173	0.546235	1.190685
H309	H	-0.257311	-1.046815	0.722661
H310	H	-0.007311	-0.796815	0.972661
H311	H	0.242689	-0.546815	1.222661
H312	H	0.492689	-0.296815	1.472661
H313	H	-0.257309	-0.226505	0.257684
H314	H	-0.007309	0.023495	0.507684
H315	H	0.242691	0.273495	0.757684
H316	H	0.492691	0.523495	1.007684
H317	H	-0.257345	-1.046800	0.594428
H318	H	-0.007345	-0.796800	0.844428
H319	H	0.242655	-0.546800	1.094428
H320	H	0.492655	-0.296800	1.344428
Cl321	Cl	-0.237291	-1.066824	1.093318
Cl322	Cl	0.012709	-0.816824	1.343318
Cl323	Cl	0.262709	-0.566824	1.593318
Cl324	Cl	0.512709	-0.316824	1.843318
H325	H	-0.257260	-1.046848	0.950185
H326	H	-0.007260	-0.796848	1.200185
H327	H	0.242740	-0.546848	1.450185
H328	H	0.492740	-0.296848	1.700185
H329	H	-0.420540	-0.883394	1.084658
H330	H	-0.170540	-0.633394	1.334658
H331	H	0.079460	-0.383394	1.584658
H332	H	0.329460	-0.133394	1.834658
H333	H	-0.740320	-1.028079	0.276241
H334	H	-0.490320	-0.778079	0.526241
H335	H	-0.240320	-0.528079	0.776241
H336	H	0.009680	-0.278079	1.026241
Cl337	Cl	-0.237331	-0.371164	0.237770
Cl338	Cl	0.012669	-0.121164	0.487770
Cl339	Cl	0.262669	0.128836	0.737770
Cl340	Cl	0.512669	0.378836	0.987770
Cl341	Cl	-0.920781	-1.079024	0.225484
Cl342	Cl	-0.670781	-0.829024	0.475484
Cl343	Cl	-0.420781	-0.579024	0.725484
Cl344	Cl	-0.170781	-0.329024	0.975484
H345	H	-0.937092	-0.902054	0.402191
H346	H	-0.687092	-0.652054	0.652191
H347	H	-0.437092	-0.402054	0.902191
H348	H	-0.187092	-0.152054	1.152191
H349	H	-0.420577	-0.883380	0.956426
H350	H	-0.170577	-0.633380	1.206426
H351	H	0.079423	-0.383380	1.456426
H352	H	0.329423	-0.133380	1.706426
H353	H	-0.420615	-0.883343	0.728903
H354	H	-0.170615	-0.633343	0.978903
H355	H	0.079385	-0.383343	1.228903
H356	H	0.329385	-0.133343	1.478903
