data_functionalizedCrystal
_audit_creation_method	'MofGen! by Chris Wilmer'
_symmetry_space_group_name_H-M	'P1'
_symmetry_Int_Tables_number	1
_symmetry_cell_setting	triclinic
loop_
_symmetry_equiv_pos_as_xyz
  x,y,z
_cell_length_a	14.519709
_cell_length_b	14.519709
_cell_length_c	7.088929
_cell_angle_alpha	83.763835
_cell_angle_beta	96.220807
_cell_angle_gamma	83.680145
loop_
_atom_site_label
_atom_site_type_symbol
_atom_site_fract_x
_atom_site_fract_y
_atom_site_fract_z
O1	O	1.214430	0.130341	-0.158746
O2	O	1.547764	0.463675	0.174587
O3	O	1.881097	0.797008	0.507921
O4	O	0.945950	0.144582	-0.158805
O5	O	1.279283	0.477915	0.174528
O6	O	1.612617	0.811248	0.507862
O7	O	1.087310	0.003222	-0.158757
O8	O	1.420643	0.336555	0.174577
O9	O	1.753976	0.669889	0.507910
O10	O	1.073071	0.271701	-0.158794
O11	O	1.406404	0.605034	0.174539
O12	O	1.739737	0.938368	0.507873
O13	O	1.106201	-0.015712	0.159225
O14	O	1.439534	0.317621	0.492558
O15	O	1.772867	0.650955	0.825892
O16	O	0.964841	0.125647	0.159177
O17	O	1.298174	0.458981	0.492510
O18	O	1.631508	0.792314	0.825843
O19	O	1.233322	0.111407	0.159236
O20	O	1.566655	0.444741	0.492569
O21	O	1.899988	0.778074	0.825902
Cu22	Cu	1.100806	0.116799	0.188240
Cu23	Cu	1.434140	0.450132	0.521574
Cu24	Cu	1.767473	0.783465	0.854907
Cu25	Cu	1.078465	0.139190	-0.187810
Cu26	Cu	1.411799	0.472524	0.145524
Cu27	Cu	1.745132	0.805857	0.478857
O28	O	1.091962	0.252767	0.159187
O29	O	1.425295	0.586100	0.492521
O30	O	1.758629	0.919434	0.825854
C31	C	0.921035	0.134451	0.000179
C32	C	1.254369	0.467785	0.333512
C33	C	1.587702	0.801118	0.666845
C34	C	0.818653	0.132465	0.000157
C35	C	1.151986	0.465798	0.333490
C36	C	1.485319	0.799131	0.666823
C37	C	0.443762	0.125140	0.000245
C38	C	0.777096	0.458473	0.333578
C39	C	1.110429	0.791806	0.666911
C40	C	0.548069	0.127174	0.000220
C41	C	0.881402	0.460507	0.333553
C42	C	1.214735	0.793841	0.666886
C43	C	0.631204	0.128802	0.000199
C44	C	0.964537	0.462135	0.333532
C45	C	1.297871	0.795469	0.666865
C46	C	0.735517	0.130836	0.000177
C47	C	1.068851	0.464170	0.333511
C48	C	1.402184	0.797503	0.666844
C49	C	1.096092	-0.040605	0.000234
C50	C	1.429425	0.292728	0.333568
C51	C	1.762758	0.626062	0.666901
C52	C	1.094103	-0.142986	0.000235
C53	C	1.427437	0.190347	0.333568
C54	C	1.760770	0.523680	0.666902
C55	C	1.086781	-0.517879	0.000184
C56	C	1.420114	-0.184546	0.333517
C57	C	1.753448	0.148788	0.666850
C58	C	1.088814	-0.413572	0.000199
C59	C	1.422148	-0.080239	0.333532
C60	C	1.755481	0.253095	0.666865
C61	C	1.090442	-0.330436	0.000211
C62	C	1.423775	0.002897	0.333544
C63	C	1.757109	0.336231	0.666878
C64	C	1.092476	-0.226122	0.000222
C65	C	1.425809	0.107211	0.333556
C66	C	1.759142	0.440545	0.666889
C67	C	1.258236	0.121538	0.000248
C68	C	1.591569	0.454871	0.333581
C69	C	1.924903	0.788204	0.666915
C70	C	1.360618	0.123525	0.000257
C71	C	1.693951	0.456859	0.333591
C72	C	2.027284	0.790192	0.666924
C73	C	1.083180	0.296594	0.000192
C74	C	1.416513	0.629927	0.333526
C75	C	1.749846	0.963261	0.666859
C76	C	1.085167	0.398976	0.000179
C77	C	1.418500	0.732309	0.333512
C78	C	1.751834	1.065643	0.666846
N79	N	1.116526	0.101049	0.452734
N80	N	1.449860	0.434382	0.786067
N81	N	1.783193	0.767716	1.119400
N82	N	1.062752	0.154933	-0.452303
N83	N	1.396086	0.488266	-0.118970
N84	N	1.729419	0.821599	0.214364
H85	H	1.007022	0.210772	0.466032
H86	H	1.340355	0.544105	0.799365
H87	H	1.673688	0.877439	1.132698
Cl88	Cl	1.202587	0.014841	0.578823
Cl89	Cl	1.535920	0.348174	0.912157
Cl90	Cl	1.869254	0.681507	1.245490
