data_functionalizedCrystal
_audit_creation_method	'MofGen! by Chris Wilmer'
_symmetry_space_group_name_H-M	'P1'
_symmetry_Int_Tables_number	1
_symmetry_cell_setting	triclinic
loop_
_symmetry_equiv_pos_as_xyz
  x,y,z
_cell_length_a	19.077236
_cell_length_b	16.625545
_cell_length_c	19.077174
_cell_angle_alpha	92.273408
_cell_angle_beta	85.294282
_cell_angle_gamma	92.318364
loop_
_atom_site_label
_atom_site_type_symbol
_atom_site_fract_x
_atom_site_fract_y
_atom_site_fract_z
Zn1	Zn	1.093734	-0.291123	-0.441975
Zn2	Zn	1.088917	-0.420758	-0.324088
Zn3	Zn	0.971115	-0.291135	-0.319358
Zn4	Zn	0.975807	-0.431113	-0.437192
O5	O	1.032393	-0.358532	-0.380653
O6	O	1.191748	-0.303980	-0.430318
O7	O	1.069311	-0.399234	-0.224810
O8	O	0.987433	-0.178300	-0.335646
O9	O	1.188209	-0.399222	-0.343707
O10	O	1.077521	-0.178291	-0.425732
O11	O	0.982762	-0.304001	-0.221335
O12	O	0.873085	-0.314043	-0.331008
O13	O	0.995430	-0.416872	-0.536477
O14	O	0.876532	-0.416884	-0.417580
O15	O	1.082070	-0.314022	-0.539991
O16	O	1.073860	-0.534965	-0.339069
O17	O	0.990759	-0.542573	-0.422166
C18	C	0.849229	-0.366589	-0.373262
C19	C	0.770871	-0.370056	-0.370117
C20	C	0.735904	-0.322182	-0.413802
C21	C	0.662278	-0.325436	-0.410841
C22	C	0.623620	-0.376567	-0.364198
C23	C	0.658592	-0.424443	-0.320508
C24	C	0.732216	-0.421185	-0.323466
C25	C	0.403228	-0.391616	-0.350504
C26	C	0.329599	-0.394872	-0.347550
C27	C	0.333290	-0.295863	-0.437883
C28	C	0.406916	-0.292613	-0.440840
C29	C	0.441881	-0.340486	-0.397148
N30	N	0.548363	-0.379896	-0.361171
N31	N	0.517137	-0.337152	-0.400171
C32	C	1.032316	-0.568026	-0.380628
C33	C	1.032348	-0.657646	-0.380643
C34	C	1.032376	-0.730428	-0.380658
C35	C	1.032418	-0.821735	-0.380676
C36	C	1.032455	-0.894510	-0.380686
C37	C	1.032496	-0.985823	-0.380702
C38	C	1.216273	-0.350445	-0.388074
C39	C	1.294632	-0.346998	-0.391236
C40	C	1.039811	-0.366601	-0.564528
C41	C	1.042972	-0.370039	-0.642884
C42	C	1.032491	-0.148221	-0.380695
C43	C	1.032533	-0.058599	-0.380713
C44	C	0.999398	-0.322073	-0.677887
C45	C	1.002365	-0.325310	-0.751511
C46	C	1.048910	-0.376510	-0.790132
C47	C	1.092486	-0.424482	-0.755124
C48	C	1.089515	-0.421248	-0.681501
C49	C	1.062625	-0.391502	-1.010515
C50	C	1.065595	-0.394731	-1.084143
C51	C	0.975472	-0.295559	-1.080524
C52	C	0.972508	-0.292326	-1.006900
C53	C	1.016081	-0.340301	-0.971899
N54	N	1.051946	-0.379819	-0.865387
N55	N	1.013042	-0.336997	-0.896645
C56	C	1.025045	-0.350435	-0.197496
C57	C	1.022021	-0.346764	-0.119145
H58	H	0.961499	-0.280375	-0.646447
H59	H	0.633811	-0.286453	-0.446415
H60	H	0.966880	-0.286254	-0.780006
C61	C	0.287590	-0.450492	-0.297019
C62	C	0.246939	-0.505876	-0.335159
C63	C	0.208238	-0.557129	-0.288639
H64	H	0.257575	-0.419609	-0.265187
H65	H	0.318934	-0.478586	-0.271429
H66	H	0.215599	-0.477785	-0.360737
H67	H	0.276937	-0.536777	-0.366989
H68	H	0.239582	-0.585223	-0.263049
H69	H	0.178227	-0.526239	-0.256809
H70	H	0.180657	-0.594717	-0.314510
H71	H	0.438386	-0.250979	-0.478825
C72	C	0.921902	-0.236713	-0.965096
C73	C	0.884364	-0.195411	-1.011508
C74	C	0.837737	-0.144176	-0.973023
H75	H	0.947653	-0.199068	-0.937468
H76	H	0.889973	-0.267627	-0.935140
H77	H	0.916289	-0.164498	-1.041451
H78	H	0.858599	-0.233036	-1.039137
H79	H	0.805808	-0.175090	-0.943067
H80	H	0.863493	-0.106536	-0.945396
H81	H	0.812257	-0.116152	-1.004507
C82	C	0.777913	-0.266804	-0.464534
C83	C	0.821983	-0.312649	-0.511359
C84	C	0.860683	-0.261661	-0.558108
H85	H	0.805614	-0.229158	-0.438860
H86	H	0.746565	-0.238772	-0.490168
H87	H	0.853327	-0.340668	-0.485727
H88	H	0.794300	-0.350293	-0.537049
H89	H	0.829335	-0.233629	-0.583742
H90	H	0.888380	-0.224017	-0.532428
H91	H	0.890584	-0.292760	-0.589888
H92	H	0.760685	-0.460168	-0.287892
C93	C	0.295196	-0.243917	-0.485231
C94	C	0.222445	-0.257695	-0.472647
C95	C	0.187331	-0.209844	-0.516244
H96	H	0.309094	-0.257296	-0.533089
H97	H	0.306822	-0.188724	-0.475471
H98	H	0.210824	-0.312875	-0.482412
H99	H	0.208526	-0.244311	-0.424797
H100	H	0.198957	-0.154651	-0.506485
H101	H	0.201234	-0.223227	-0.564100
H102	H	0.137966	-0.219180	-0.507708
H103	H	0.431688	-0.430598	-0.314927
H104	H	0.627111	-0.466072	-0.282526
C105	C	0.928193	-0.243574	-1.118655
C106	C	0.940741	-0.257377	-1.191396
C107	C	0.897189	-0.209512	-1.226542
H108	H	0.938005	-0.188387	-1.107101
H109	H	0.880320	-0.256942	-1.104714
H110	H	0.988602	-0.244004	-1.205331
H111	H	0.930924	-0.312555	-1.202970
H112	H	0.849316	-0.222880	-1.212601
H113	H	0.907004	-0.154327	-1.214983
H114	H	0.905692	-0.218876	-1.275900
H115	H	1.103501	-0.436425	-1.115586
H116	H	1.098098	-0.430576	-0.982025
H117	H	1.130381	-0.466175	-0.786575
H118	H	1.125003	-0.460301	-0.653003
