data_functionalizedCrystal
_audit_creation_method	'MofGen! by Chris Wilmer'
_symmetry_space_group_name_H-M	'P1'
_symmetry_Int_Tables_number	1
_symmetry_cell_setting	triclinic
loop_
_symmetry_equiv_pos_as_xyz
  x,y,z
_cell_length_a	19.805407
_cell_length_b	15.297327
_cell_length_c	19.805399
_cell_angle_alpha	99.649417
_cell_angle_beta	89.980427
_cell_angle_gamma	99.707092
loop_
_atom_site_label
_atom_site_type_symbol
_atom_site_fract_x
_atom_site_fract_y
_atom_site_fract_z
Zn1	Zn	0.988098	-0.359189	-0.429336
Zn2	Zn	0.968423	-0.510058	-0.335728
Zn3	Zn	0.874909	-0.359214	-0.316164
Zn4	Zn	0.855293	-0.510010	-0.448869
O5	O	0.921681	-0.434618	-0.382524
O6	O	1.080203	-0.379212	-0.416932
O7	O	0.955994	-0.490079	-0.238420
O8	O	0.906367	-0.232963	-0.314814
O9	O	1.065749	-0.490055	-0.348159
O10	O	0.989526	-0.232945	-0.397962
O11	O	0.887290	-0.379254	-0.224047
O12	O	0.777592	-0.379208	-0.333754
O13	O	0.872934	-0.489973	-0.540990
O14	O	0.763180	-0.489997	-0.431252
O15	O	0.970505	-0.379166	-0.526640
O16	O	0.936973	-0.636300	-0.367099
O17	O	0.853857	-0.636265	-0.450222
C18	C	0.745827	-0.434601	-0.382500
C19	C	0.670593	-0.434615	-0.382509
C20	C	0.627751	-0.492390	-0.433217
C21	C	0.557063	-0.492392	-0.433227
C22	C	0.529217	-0.434622	-0.382525
C23	C	0.572065	-0.376841	-0.331814
C24	C	0.642752	-0.376835	-0.331808
C25	C	0.286989	-0.376861	-0.331839
C26	C	0.216295	-0.376873	-0.331848
C27	C	0.201299	-0.492417	-0.433258
C28	C	0.271987	-0.492412	-0.433252
C29	C	0.314829	-0.434627	-0.382543
C30	C	0.391477	-0.434625	-0.382534
C31	C	0.452569	-0.434628	-0.382531
C32	C	0.891170	-0.669017	-0.412918
C33	C	0.878179	-0.769294	-0.425943
C34	C	1.014807	-1.051906	-0.289663
C35	C	1.027012	-0.957691	-0.277422
C36	C	0.989805	-0.910587	-0.314551
C37	C	0.940391	-0.957708	-0.363923
C38	C	0.928180	-1.051932	-0.376162
C39	C	0.903178	-0.910613	-0.401050
C40	C	0.853764	-0.957734	-0.450423
C41	C	0.841556	-1.051949	-0.462659
C42	C	0.878763	-1.099053	-0.425530
C43	C	0.915389	-0.816389	-0.388812
C44	C	0.828762	-0.816415	-0.475311
C45	C	0.816557	-0.910630	-0.487552
C46	C	1.098221	-0.434636	-0.382549
C47	C	1.173452	-0.434644	-0.382559
C48	C	0.921726	-0.434561	-0.559060
C49	C	0.921746	-0.434537	-0.634289
C50	C	0.952329	-0.199304	-0.352027
C51	C	0.965390	-0.099027	-0.339031
C52	C	0.972552	-0.376837	-0.662161
C53	C	0.972562	-0.376810	-0.732846
C54	C	0.921768	-0.434490	-0.775658
C55	C	0.870957	-0.492193	-0.747781
C56	C	0.870944	-0.492214	-0.677096
C57	C	0.871006	-0.492109	-1.032843
C58	C	0.871024	-0.492085	-1.103533
C59	C	0.972624	-0.376705	-1.088593
C60	C	0.972612	-0.376726	-1.017909
C61	C	0.921798	-0.434426	-0.990037
C62	C	0.921787	-0.434452	-0.913392
C63	C	0.921782	-0.434469	-0.852303
C64	C	0.921683	-0.434610	-0.206667
C65	C	0.921828	-0.434380	-0.131406
H66	H	0.294654	-0.539456	-0.474536
H67	H	0.166408	-0.539464	-0.474549
C68	C	1.055250	-1.103111	-0.249463
C69	C	1.091622	-1.157130	-0.294826
C70	C	1.128883	-1.204310	-0.257809
H71	H	1.024651	-1.139978	-0.224736
H72	H	1.086466	-1.061598	-0.218313
H73	H	1.060410	-1.198637	-0.325963
H74	H	1.122233	-1.120285	-0.319553
H75	H	1.160099	-1.162798	-0.226659
H76	H	1.098279	-1.241173	-0.233083
H77	H	1.153571	-1.240961	-0.288581
H78	H	0.650417	-0.539436	-0.474502
H79	H	0.522183	-0.539439	-0.474518
C80	C	0.865587	-1.201347	-0.438949
C81	C	0.878807	-1.232440	-0.507441
C82	C	0.866690	-1.326669	-0.519824
H83	H	0.819156	-1.222844	-0.430039
H84	H	0.894845	-1.222679	-0.409804
H85	H	0.849549	-1.211117	-0.536578
H86	H	0.925235	-1.210968	-0.516367
H87	H	0.895948	-1.348001	-0.490679
H88	H	0.820259	-1.348157	-0.510911
H89	H	0.875664	-1.347777	-0.566295
C90	C	0.815968	-0.554823	-1.150064
C91	C	0.846767	-0.612660	-1.198131
C92	C	0.796076	-0.670472	-1.241001
H93	H	0.790954	-0.520405	-1.173232
H94	H	0.785709	-0.589242	-1.123369
H95	H	0.877014	-0.578245	-1.224824
H96	H	0.871777	-0.647098	-1.174983
H97	H	0.765817	-0.704891	-1.214305
H98	H	0.771065	-0.636046	-1.264163
H99	H	0.816965	-0.709726	-1.273615
H100	H	0.798463	-0.778063	-0.505543
C101	C	1.003058	-0.808296	-0.301410
C102	C	1.024323	-0.777050	-0.361811
C103	C	1.036531	-0.682820	-0.349734
H104	H	1.037828	-0.786857	-0.266725
H105	H	0.962135	-0.787009	-0.286940
H106	H	1.065240	-0.798327	-0.376271
H107	H	0.989563	-0.798463	-0.396503
H108	H	0.995609	-0.661533	-0.335264
H109	H	1.071300	-0.661391	-0.315048
H110	H	1.050955	-0.661608	-0.390714
H111	H	0.801311	-1.090312	-0.502854
C112	C	1.080555	-0.906490	-0.223732
C113	C	1.049251	-0.852496	-0.173288
C114	C	1.098555	-0.805327	-0.123812
H115	H	1.114825	-0.869607	-0.244779
H116	H	1.100957	-0.948009	-0.203331
H117	H	1.028860	-0.810982	-0.193687
H118	H	1.014986	-0.889357	-0.152224
H119	H	1.118957	-0.846846	-0.103410
H120	H	1.132822	-0.768449	-0.144865
H121	H	1.077322	-0.768693	-0.089576
H122	H	0.776322	-0.949009	-0.527751
C123	C	0.815855	-0.555020	-0.646884
C124	C	0.818988	-0.644278	-0.675634
C125	C	0.768257	-0.702161	-0.647811
H126	H	0.772056	-0.541936	-0.656729
H127	H	0.823124	-0.546829	-0.598657
H128	H	0.811714	-0.652464	-0.723849
H129	H	0.862775	-0.657389	-0.665790
H130	H	0.775526	-0.693970	-0.599585
H131	H	0.724462	-0.689069	-0.657658
H132	H	0.770380	-0.762729	-0.667309
C133	C	1.027740	-0.314112	-0.615792
C134	C	1.072225	-0.263558	-0.655332
C135	C	1.123067	-0.205755	-0.612641
H136	H	1.052806	-0.348532	-0.592681
H137	H	1.006984	-0.274760	-0.583127
H138	H	1.092979	-0.302905	-0.687985
H139	H	1.047180	-0.229120	-0.678443
H140	H	1.102311	-0.166403	-0.579976
H141	H	1.148127	-0.240182	-0.589532
H142	H	1.153252	-0.171441	-0.639462
C143	C	0.815792	-0.554838	-1.002722
C144	C	0.771321	-0.605355	-1.055347
C145	C	0.720448	-0.663153	-1.027623
H146	H	0.790723	-0.520416	-0.970686
H147	H	0.836522	-0.594213	-0.980261
H148	H	0.750593	-0.565984	-1.077797
H149	H	0.796370	-0.639795	-1.087387
H150	H	0.741178	-0.702529	-1.005162
H151	H	0.695384	-0.628725	-0.995588
H152	H	0.690272	-0.697442	-1.063325
H153	H	0.829597	-0.539153	-0.782644
H154	H	1.013975	-0.329761	-0.983054
C155	C	0.186147	-0.314194	-0.276693
C156	C	0.200793	-0.333699	-0.212229
C157	C	0.173041	-0.275976	-0.161404
H158	H	0.137908	-0.322416	-0.283855
H159	H	0.205637	-0.253579	-0.278775
H160	H	0.181300	-0.394300	-0.210148
H161	H	0.249026	-0.325472	-0.205045
H162	H	0.192531	-0.215360	-0.163487
H163	H	0.124803	-0.284202	-0.168573
H164	H	0.182979	-0.289196	-0.117660
C165	C	0.333560	-0.314276	-0.276759
C166	C	0.367500	-0.365273	-0.239932
C167	C	0.410415	-0.307648	-0.189189
H168	H	0.306926	-0.279858	-0.246499
H169	H	0.366293	-0.275019	-0.297585
H170	H	0.334772	-0.404515	-0.219107
H171	H	0.394146	-0.399689	-0.270173
H172	H	0.443148	-0.268390	-0.210015
H173	H	0.383777	-0.273232	-0.158934
H174	H	0.433454	-0.342240	-0.164200
H175	H	0.549387	-0.329800	-0.290534
H176	H	0.955622	-0.778031	-0.348612
C177	C	0.689151	-0.314079	-0.276670
C178	C	0.649635	-0.263507	-0.232256
C179	C	0.692352	-0.205693	-0.181449
H180	H	0.721861	-0.274732	-0.297428
H181	H	0.712216	-0.348520	-0.251565
H182	H	0.626581	-0.229069	-0.257358
H183	H	0.616926	-0.302830	-0.211481
H184	H	0.715417	-0.240133	-0.156344
H185	H	0.725060	-0.166352	-0.202214
H186	H	0.665546	-0.171379	-0.151305
H187	H	1.013936	-0.329827	-0.755537
H188	H	1.013997	-0.329721	-1.111294
