data_functionalizedCrystal
_audit_creation_method	'MofGen! by Chris Wilmer'
_symmetry_space_group_name_H-M	'P1'
_symmetry_Int_Tables_number	1
_symmetry_cell_setting	triclinic
loop_
_symmetry_equiv_pos_as_xyz
  x,y,z
_cell_length_a	20.919309
_cell_length_b	15.698487
_cell_length_c	15.698487
_cell_angle_alpha	90.002598
_cell_angle_beta	57.441887
_cell_angle_gamma	62.591977
loop_
_atom_site_label
_atom_site_type_symbol
_atom_site_fract_x
_atom_site_fract_y
_atom_site_fract_z
Zr1	Zr	0.700752	0.856970	-0.148089
O2	O	0.834319	0.727874	-0.291037
O3	O	0.567188	0.891741	-0.099466
O4	O	0.700753	0.898662	-0.284106
O5	O	0.700751	0.720958	0.033787
O6	O	0.700751	1.038846	-0.284100
O7	O	0.700753	0.720953	-0.106397
O8	O	0.461826	1.026465	0.046186
O9	O	0.939675	0.733338	-0.296499
O10	O	0.622121	1.016992	-0.084527
O11	O	0.622121	0.912377	0.020088
O12	O	0.779378	0.920526	-0.197301
O13	O	0.779378	0.815911	-0.092687
Zr14	Zr	0.700743	1.080555	0.075498
Zr15	Zr	0.700748	1.080547	-0.148081
Zr16	Zr	0.700748	0.856977	0.075489
Zr17	Zr	0.868783	0.865684	-0.156801
Zr18	Zr	0.532712	1.071840	0.084209
O19	O	0.834307	1.045783	0.026875
O20	O	0.834313	1.045773	-0.291025
O21	O	0.834313	0.727885	0.026863
O22	O	0.567176	1.209650	0.218445
O23	O	0.567182	1.209640	-0.099454
O24	O	0.567182	0.891751	0.218433
O25	O	0.700744	1.216567	-0.106379
O26	O	0.700742	1.038862	0.211514
O27	O	0.700744	0.898678	0.211509
O28	O	0.700742	1.216571	0.033806
O29	O	0.939672	0.911053	-0.296492
O30	O	0.461823	1.026471	0.223901
O31	O	0.461820	1.204186	0.223907
O32	O	0.461823	1.204180	0.046192
O33	O	0.939672	0.733344	-0.118784
O34	O	0.939669	0.911059	-0.118777
O35	O	0.622117	1.016998	0.124710
O36	O	0.622117	1.121613	0.020096
O37	O	0.779374	1.025147	-0.092679
O38	O	0.779374	0.920533	0.011935
C39	C	0.490566	0.957861	-0.025399
C40	C	0.419232	0.954162	-0.021701
C41	C	0.385720	1.007029	-0.074571
C42	C	0.318689	1.003555	-0.071086
C43	C	0.285178	0.947208	-0.014736
C44	C	0.318693	0.894340	0.038140
C45	C	0.385718	0.897820	0.034661
C46	C	0.082803	0.933974	-0.001493
C47	C	0.015775	0.930495	0.001979
C48	C	0.015775	1.039713	-0.107246
C49	C	0.082805	1.043183	-0.110725
C50	C	0.116311	0.990319	-0.057844
C51	C	0.216664	0.943654	-0.011176
C52	C	0.184819	0.993880	-0.061399
C53	C	0.700753	0.689100	-0.036306
C54	C	0.700754	0.594186	-0.036310
C55	C	0.700757	0.517104	-0.036308
C56	C	0.700752	0.420406	-0.036296
C57	C	0.910929	0.979663	-0.047193
C58	C	0.982263	0.983362	-0.050891
C59	C	0.700753	0.968753	-0.315958
C60	C	0.700754	0.968750	-0.410873
C61	C	0.700742	1.248424	-0.036285
C62	C	0.700741	1.343339	-0.036282
C63	C	0.700738	0.968773	-0.584636
C64	C	0.700744	0.968763	-0.487939
C65	C	0.700742	0.968771	0.243367
C66	C	0.700741	0.968774	0.338281
C67	C	0.490561	1.237523	-0.025389
C68	C	0.419226	1.328738	-0.021687
C69	C	0.490561	0.957870	0.254263
C70	C	0.419226	0.954174	0.352876
C71	C	0.490556	1.237532	0.254274
C72	C	0.419219	1.328750	0.352890
C73	C	0.910939	0.699992	-0.326865
C74	C	0.982276	0.608774	-0.425482
C75	C	0.910934	0.700001	-0.047203
C76	C	0.982269	0.608786	-0.050905
C77	C	0.910934	0.979654	-0.326855
C78	C	0.982269	0.983350	-0.425468
C79	C	0.385728	1.316963	-0.074569
C80	C	0.318710	1.402661	-0.071113
C81	C	0.285186	1.500133	-0.014766
C82	C	0.318691	1.511907	0.038118
C83	C	0.385712	1.426210	0.034654
C84	C	0.385724	1.007049	0.453807
C85	C	0.318706	1.003572	0.546473
C86	C	0.285187	0.947226	0.538205
C87	C	0.318695	0.894344	0.437264
C88	C	0.385716	0.897815	0.344600
C89	C	0.385718	1.426204	0.344594
C90	C	0.318699	1.511923	0.437246
C91	C	0.285177	1.500184	0.538193
C92	C	0.318684	1.402720	0.546487
C93	C	0.385707	1.317004	0.453836
C94	C	1.015785	0.511320	-0.417186
C95	C	1.082825	0.425603	-0.509839
C96	C	1.116351	0.437342	-0.610786
C97	C	1.082839	0.534806	-0.619080
C98	C	1.015805	0.620521	-0.526428
C99	C	1.015774	0.620562	0.001968
C100	C	1.082811	0.534865	-0.001514
C101	C	1.116336	0.437392	-0.057864
C102	C	1.082829	0.425618	-0.110744
C103	C	1.015798	0.511314	-0.107267
C104	C	1.015768	1.039707	-0.417166
C105	C	1.082786	1.043200	-0.509815
C106	C	1.116309	0.990330	-0.610764
C107	C	1.082805	0.933972	-0.619064
C108	C	1.015783	0.930485	-0.526416
H109	H	-0.011506	0.884606	0.047866
H110	H	0.291380	1.393177	0.628690
H111	H	1.110058	1.089091	-0.503036
Cl112	Cl	1.200569	0.994720	-0.727227
Cl113	Cl	0.276592	1.070062	0.673357
H114	H	1.110110	0.890927	-0.701269
H115	H	0.988492	0.501743	-0.334998
H116	H	0.988483	0.699921	0.047861
H117	H	0.988516	0.884589	-0.533191
Cl118	Cl	0.973681	0.743031	-0.536876
Cl119	Cl	0.226947	1.064716	-0.132233
Cl120	Cl	0.427846	1.077864	-0.145420
Cl121	Cl	1.124992	0.549546	-0.745994
Cl122	Cl	1.124917	0.549690	0.064974
H123	H	-0.011513	1.082754	-0.150298
H124	H	0.291398	0.848466	0.084027
H125	H	0.230613	1.569905	-0.011953
Cl126	Cl	1.124981	0.303073	-0.181574
H127	H	1.110099	0.346252	-0.503065
H128	H	0.413002	1.435781	0.262407
H129	H	0.230614	0.944407	0.613666
H130	H	0.291394	0.848467	0.430548
H131	H	0.291403	1.046604	-0.114136
H132	H	0.412985	0.854761	0.262422
H133	H	0.988520	0.501712	-0.150320
Cl134	Cl	0.973636	1.106183	-0.290269
Cl135	Cl	1.200603	0.329668	-0.062221
H136	H	0.291424	1.591274	0.430474
H137	H	0.230602	1.569988	0.613627
H138	H	1.170934	0.367538	-0.686221
Cl139	Cl	0.124934	1.114015	-0.181575
H140	H	0.291387	1.591281	0.083993
H141	H	0.110072	0.890932	0.041571
Cl142	Cl	0.427810	1.441032	0.101152
H143	H	0.413005	0.854767	0.077711
Cl144	Cl	0.427846	1.077895	0.464229
H145	H	0.189371	0.897776	0.034704
Cl146	Cl	0.427808	1.194493	0.464285
Cl147	Cl	0.427861	1.194436	-0.145418
H148	H	0.291439	1.393054	-0.114177
