data_functionalizedCrystal
_audit_creation_method	'MofGen! by Chris Wilmer'
_symmetry_space_group_name_H-M	'P1'
_symmetry_Int_Tables_number	1
_symmetry_cell_setting	triclinic
loop_
_symmetry_equiv_pos_as_xyz
  x,y,z
_cell_length_a	33.510554
_cell_length_b	33.509711
_cell_length_c	33.506470
_cell_angle_alpha	60.004186
_cell_angle_beta	60.008358
_cell_angle_gamma	59.994760
loop_
_atom_site_label
_atom_site_type_symbol
_atom_site_fract_x
_atom_site_fract_y
_atom_site_fract_z
O1	O	0.055430	-0.583081	0.487524
O2	O	0.555430	-0.083081	0.987524
O3	O	0.020931	-0.453975	0.392819
O4	O	0.520931	0.046025	0.892819
O5	O	0.102693	-0.535652	0.392731
O6	O	0.602693	-0.035652	0.892731
O7	O	-0.026332	-0.501404	0.487613
O8	O	0.473668	-0.001404	0.987613
O9	O	0.129823	-0.508526	0.419767
O10	O	0.629823	-0.008526	0.919767
O11	O	0.048062	-0.426850	0.419856
O12	O	0.548062	0.073150	0.919856
O13	O	0.082561	-0.555956	0.514561
O14	O	0.582561	-0.055956	1.014561
Cu15	Cu	0.067789	-0.488926	0.469677
Cu16	Cu	0.567789	0.011074	0.969677
Cu17	Cu	0.035703	-0.521005	0.437703
Cu18	Cu	0.535703	-0.021005	0.937703
O19	O	0.000799	-0.474279	0.514649
O20	O	0.500799	0.025721	1.014649
N21	N	0.090357	-0.466366	0.492168
N22	N	0.590357	0.033634	0.992168
N23	N	0.013139	-0.543569	0.415212
N24	N	0.513139	-0.043569	0.915212
C25	C	0.143028	-0.279707	0.544737
C26	C	0.643028	0.220293	1.044737
C27	C	0.143165	-0.413746	0.678712
C28	C	0.643165	0.086254	1.178712
C29	C	0.143043	-0.413725	0.544739
C30	C	0.643043	0.086275	1.044739
C31	C	0.277090	-0.413694	0.544637
C32	C	0.777090	0.086306	1.044637
C33	C	0.157791	-0.323929	0.559462
C34	C	0.657791	0.176071	1.059462
C35	C	0.157869	-0.398994	0.634489
C36	C	0.657869	0.101006	1.134489
C37	C	0.232865	-0.398963	0.559407
C38	C	0.732865	0.101037	1.059407
C39	C	0.157801	-0.398982	0.559463
C40	C	0.657801	0.101018	1.059463
C41	C	0.124237	-0.223419	0.525994
C42	C	0.624237	0.276581	1.025994
C43	C	0.124262	-0.432490	0.525997
C44	C	0.624262	0.067510	1.025997
C45	C	0.176583	-0.380217	0.578205
C46	C	0.676583	0.119783	1.078205
C47	C	0.358938	-0.399566	0.501510
C48	C	0.858938	0.100434	1.001510
C49	C	0.410104	-0.416609	0.484423
C50	C	0.910104	0.083391	0.984423
C51	C	0.410135	-0.499402	0.515995
C52	C	0.910135	0.000598	1.015995
C53	C	0.358969	-0.482358	0.533084
C54	C	0.858969	0.017642	1.033084
C55	C	0.136554	-0.197822	0.475693
C56	C	0.636554	0.302178	0.975693
C57	C	0.119469	-0.146653	0.458657
C58	C	0.619469	0.353347	0.958657
C59	C	0.077755	-0.146680	0.542223
C60	C	0.577755	0.353320	1.042223
C61	C	0.094840	-0.197850	0.559260
C62	C	0.594840	0.302150	1.059260
C63	C	0.073954	-0.420144	0.538396
C64	C	0.573954	0.079856	1.038396
C65	C	0.056884	-0.437203	0.521352
C66	C	0.556884	0.062797	1.021352
C67	C	0.140427	-0.478952	0.479524
C68	C	0.640427	0.021048	0.979524
C69	C	0.157498	-0.461894	0.496561
C70	C	0.657498	0.038106	0.996561
C71	C	0.074158	-0.420182	0.760618
C72	C	0.574158	0.079818	1.260618
C73	C	0.057149	-0.437256	0.811786
C74	C	0.557149	0.062744	1.311786
C75	C	0.140732	-0.479014	0.811717
C76	C	0.640732	0.020986	1.311717
C77	C	0.157740	-0.461942	0.760547
C78	C	0.657740	0.038058	1.260547
C79	C	0.124452	-0.432525	0.734999
C80	C	0.624452	0.067475	1.234999
C81	C	0.333372	-0.432439	0.525839
C82	C	0.833372	0.067561	1.025839
C83	C	-0.020612	-0.577650	0.170305
C84	C	0.479388	-0.077650	0.670305
C85	C	-0.020943	-0.788098	0.380897
C86	C	0.479057	-0.288098	0.880897
C87	C	-0.020912	-0.577638	0.380991
C88	C	0.479088	-0.077638	0.880991
C89	C	-0.231336	-0.577418	0.380585
C90	C	0.268664	-0.077418	0.880585
C91	C	-0.129735	-0.611383	0.346870
C92	C	0.370265	-0.111383	0.846870
C93	C	-0.054722	-0.611464	0.347017
C94	C	0.445278	-0.111464	0.847017
C95	C	-0.073450	-0.630202	0.328195
C96	C	0.426550	-0.130202	0.828195
C97	C	-0.087616	-0.712029	0.371239
C98	C	0.412384	-0.212029	0.871239
C99	C	-0.070599	-0.763199	0.388315
C100	C	0.429401	-0.263199	0.888315
C101	C	0.012191	-0.763282	0.356872
C102	C	0.512191	-0.263282	0.856872
C103	C	-0.004828	-0.712113	0.339795
C104	C	0.495172	-0.212113	0.839795
C105	C	-0.155381	-0.623711	0.397158
C106	C	0.344619	-0.123711	0.897158
C107	C	-0.206547	-0.606601	0.414133
C108	C	0.293453	-0.106601	0.914133
C109	C	-0.206417	-0.564839	0.330529
C110	C	0.293583	-0.064839	0.830529
C111	C	-0.155251	-0.581949	0.313554
C112	C	0.344749	-0.081949	0.813554
C113	C	-0.067051	-0.561160	0.334643
C114	C	0.432949	-0.061160	0.834643
C115	C	-0.050026	-0.544131	0.351759
C116	C	0.449974	-0.044131	0.851759
C117	C	-0.008343	-0.627704	0.393612
C118	C	0.491657	-0.127704	0.893612
C119	C	-0.025368	-0.644736	0.376502
C120	C	0.474632	-0.144736	0.876502
C121	C	-0.066922	-0.561168	0.246303
C122	C	0.433078	-0.061168	0.746303
C123	C	-0.049794	-0.544141	0.195134
C124	C	0.450206	-0.044141	0.695134
C125	C	-0.008048	-0.627719	0.195183
C126	C	0.491952	-0.127719	0.695183
C127	C	-0.025175	-0.644745	0.246352
C128	C	0.474825	-0.144745	0.746352
C129	C	-0.054614	-0.611468	0.271911
C130	C	0.445386	-0.111468	0.771911
C131	C	-0.054732	-0.686488	0.346980
C132	C	0.445268	-0.186488	0.846980
C133	C	-0.002117	-0.558258	0.114025
C134	C	0.497883	-0.058258	0.614025
C135	C	-0.002879	-0.844379	0.399940
C136	C	0.497121	-0.344379	0.899940
C137	C	-0.002504	-0.558243	0.399473
C138	C	0.497496	-0.058243	0.899473
C139	C	-0.287615	-0.558285	0.398601
C140	C	0.212385	-0.058285	0.898601
N141	N	0.434975	-0.466279	0.491900
N142	N	0.934975	0.033721	0.991900
O143	O	0.591199	-0.470749	0.375150
O144	O	1.091199	0.029251	0.875150
O145	O	0.591395	-0.565767	0.504116
O146	O	1.091395	-0.065767	1.004116
O147	O	0.591311	-0.565550	0.422329
O148	O	1.091311	-0.065550	0.922329
O149	O	0.591283	-0.470966	0.456937
O150	O	1.091283	0.029034	0.956937
O151	O	0.510024	-0.538522	0.449509
O152	O	1.010024	-0.038522	0.949509
O153	O	0.510108	-0.538739	0.531297
O154	O	1.010108	-0.038739	1.031297
O155	O	0.509913	-0.443721	0.402330
O156	O	1.009913	0.056279	0.902330
Cu157	Cu	0.502588	-0.488762	0.469295
Cu158	Cu	1.002588	0.011238	0.969295
Cu159	Cu	0.598719	-0.520726	0.437151
Cu160	Cu	1.098719	-0.020726	0.937151
O161	O	0.509997	-0.443938	0.484117
O162	O	1.009997	0.056062	0.984117
N163	N	0.666332	-0.543209	0.414541
N164	N	1.166332	-0.043209	0.914541
N165	N	0.090323	-0.121809	0.492157
N166	N	0.590323	0.378191	0.992157
O167	O	-0.026342	0.034503	0.487582
O168	O	0.473658	0.534503	0.987582
O169	O	0.102626	0.034543	0.392540
O170	O	0.602626	0.534543	0.892540
O171	O	0.020797	0.034507	0.392812
O172	O	0.520797	0.534507	0.892812
O173	O	0.055487	0.034539	0.487310
O174	O	0.555487	0.534539	0.987310
O175	O	0.047933	-0.046785	0.419900
O176	O	0.547933	0.453215	0.919900
O177	O	0.129763	-0.046749	0.419628
O178	O	0.629763	0.453251	0.919628
O179	O	0.000794	-0.046789	0.514670
O180	O	0.500794	0.453211	1.014670
Cu181	Cu	0.067756	-0.054192	0.469623
Cu182	Cu	0.567756	0.445808	0.969623
Cu183	Cu	0.035664	0.041946	0.437588
Cu184	Cu	0.535664	0.541946	0.937588
O185	O	0.082623	-0.046753	0.514399
O186	O	0.582623	0.453247	1.014399
N187	N	0.013091	0.109564	0.415054
N188	N	0.513091	0.609564	0.915054
N189	N	0.090671	-0.466416	0.836606
N190	N	0.590671	0.033584	1.336606
O191	O	0.086120	-0.583065	0.992910
O192	O	0.586120	-0.083065	1.492910
O193	O	-0.008880	-0.454051	0.992954
O194	O	0.491120	0.045949	1.492954
O195	O	-0.008658	-0.535864	0.992931
O196	O	0.491342	-0.035864	1.492931
O197	O	0.085897	-0.501252	0.992933
O198	O	0.585897	-0.001252	1.492933
O199	O	0.018407	-0.508749	0.911642
O200	O	0.518407	-0.008749	1.411642
O201	O	0.018185	-0.426936	0.911665
O202	O	0.518185	0.073064	1.411665
O203	O	0.113185	-0.555949	0.911621
O204	O	0.613185	-0.055949	1.411621
Cu205	Cu	0.068156	-0.488967	0.904221
Cu206	Cu	0.568156	0.011033	1.404221
Cu207	Cu	0.036148	-0.521034	1.000355
Cu208	Cu	0.536148	-0.021034	1.500355
O209	O	0.112963	-0.474136	0.911644
O210	O	0.612963	0.025864	1.411644
N211	N	0.013633	-0.543590	1.067970
N212	N	0.513633	-0.043590	1.567970
C213	C	0.031262	-0.424144	0.393290
C214	C	0.531262	0.075856	0.893290
C215	C	0.132513	-0.525291	0.393180
C216	C	0.632513	-0.025291	0.893180
C217	C	0.072229	-0.585787	0.514090
C218	C	0.572229	-0.085787	1.014090
C219	C	-0.029022	-0.484640	0.514200
C220	C	0.470978	0.015360	1.014200
C221	C	0.550775	-0.565338	0.533954
C222	C	1.050775	-0.065338	1.033954
C223	C	0.550672	-0.565070	0.432670
C224	C	1.050672	-0.065070	0.932670
C225	C	0.550530	-0.444149	0.372492
C226	C	1.050530	0.055851	0.872492
C227	C	0.550635	-0.444418	0.473776
C228	C	1.050635	0.055582	0.973776
C229	C	0.132408	-0.005998	0.392963
C230	C	0.632408	0.494002	0.892963
C231	C	0.031106	-0.006142	0.393333
C232	C	0.531106	0.493858	0.893333
C233	C	-0.029021	-0.006147	0.514213
C234	C	0.470979	0.493853	1.014213
C235	C	0.072314	-0.006104	0.513878
C236	C	0.572314	0.493896	1.013878
C237	C	-0.008430	-0.424240	0.952316
C238	C	0.491570	0.075760	1.452316
C239	C	-0.008150	-0.525550	0.952271
C240	C	0.491850	-0.025550	1.452271
C241	C	0.112735	-0.585760	0.952260
C242	C	0.612735	-0.085760	1.452260
C243	C	0.112461	-0.484444	0.952286
C244	C	0.612461	0.015556	1.452286
H245	H	0.047048	-0.396226	0.739820
H246	H	0.547048	0.103774	1.239820
C247	C	0.592512	-0.646129	0.428003
C248	C	1.092512	-0.146129	0.928003
C249	C	0.550688	-0.605183	0.422676
C250	C	1.050688	-0.105183	0.922676
H251	H	0.592521	-0.670892	0.421830
H252	H	1.092521	-0.170892	0.921830
H253	H	0.592549	-0.658072	0.460352
H254	H	1.092549	-0.158072	0.960352
H255	H	0.620830	-0.637194	0.405431
H256	H	1.120830	-0.137194	0.905431
H257	H	0.522370	-0.614118	0.445250
H258	H	1.022370	-0.114118	0.945250
H259	H	0.550646	-0.593240	0.390322
H260	H	1.050646	-0.093240	0.890322
C261	C	0.550559	-0.362367	0.442136
C262	C	1.050559	0.137633	0.942136
C263	C	0.550626	-0.404306	0.483766
C264	C	1.050626	0.095694	0.983766
H265	H	0.550558	-0.337605	0.448303
H266	H	1.050558	0.162395	0.948303
H267	H	0.522193	-0.351097	0.434417
H268	H	1.022193	0.148903	0.934417
H269	H	0.578886	-0.369956	0.415456
H270	H	1.078886	0.130044	0.915456
H271	H	0.522297	-0.396718	0.510445
H272	H	1.022297	0.103282	1.010445
H273	H	0.578995	-0.415578	0.491492
H274	H	1.078995	0.084422	0.991492
H275	H	0.169370	-0.005761	0.363053
H276	H	0.669370	0.494239	0.863053
H277	H	0.550467	-0.414317	0.335455
H278	H	1.050467	0.085683	0.835455
H279	H	0.142562	-0.622811	0.952240
H280	H	0.642562	-0.122811	1.452240
H281	H	0.142166	-0.477036	0.952281
H282	H	0.642166	0.022964	1.452281
C283	C	-0.061342	-0.502268	0.910431
C284	C	0.438658	-0.002268	1.410431
C285	C	-0.048238	-0.535526	0.952225
C286	C	0.451762	-0.035526	1.452225
H287	H	-0.086093	-0.508425	0.910406
H288	H	0.413907	-0.008425	1.410406
H289	H	-0.033541	-0.505912	0.882094
H290	H	0.466459	-0.005912	1.382094
H291	H	-0.073286	-0.469910	0.910456
H292	H	0.426714	0.030090	1.410456
H293	H	-0.036291	-0.567884	0.952199
H294	H	0.463709	-0.067884	1.452199
H295	H	-0.076045	-0.531886	0.980569
H296	H	0.423955	-0.031886	1.480569
H297	H	0.016194	-0.427197	0.832639
H298	H	0.516194	0.072803	1.332639
H299	H	0.079744	-0.006095	0.543566
H300	H	0.579744	0.493905	1.043566
C301	C	0.176060	-0.192653	0.391376
C302	C	0.676060	0.307347	0.891376
C303	C	0.168864	-0.225927	0.439126
C304	C	0.668864	0.274073	0.939126
H305	H	0.196004	-0.210006	0.368803
H306	H	0.696004	0.289994	0.868803
H307	H	0.191680	-0.172689	0.386448
H308	H	0.691680	0.327311	0.886448
H309	H	0.145374	-0.172702	0.386493
H310	H	0.645374	0.327298	0.886493
H311	H	0.199550	-0.245876	0.444011
H312	H	0.699550	0.254124	0.944011
H313	H	0.153244	-0.245899	0.444056
H314	H	0.653244	0.254101	0.944056
H315	H	-0.134369	-0.571905	0.272603
H316	H	0.365631	-0.071905	0.772603
C317	C	-0.026612	-0.006198	0.370895
C318	C	0.473388	0.493802	0.870895
C319	C	0.021087	-0.006172	0.353257
C320	C	0.521087	0.493828	0.853257
H321	H	-0.032793	-0.006225	0.346156
H322	H	0.467207	0.493775	0.846156
H323	H	-0.049159	0.022152	0.379786
H324	H	0.450841	0.522152	0.879786
H325	H	-0.030229	-0.034545	0.398702
H326	H	0.469771	0.465455	0.898702
H327	H	0.024702	0.022177	0.325453
H328	H	0.524702	0.522177	0.825453
H329	H	0.043640	-0.034525	0.344360
H330	H	0.543640	0.465475	0.844360
H331	H	0.338097	-0.358917	0.495611
H332	H	0.838097	0.141083	0.995611
H333	H	-0.066081	-0.477343	0.543993
H334	H	0.433919	0.022657	1.043993
C335	C	-0.100558	0.035634	0.567576
C336	C	0.399442	0.535634	1.067576
C337	C	-0.079019	-0.006158	0.554496
C338	C	0.420981	0.493842	1.054496
H339	H	-0.131423	0.035625	0.592448
H340	H	0.368577	0.535625	1.092448
H341	H	-0.104862	0.063974	0.539805
H342	H	0.395138	0.563974	1.039805
H343	H	-0.079999	0.035639	0.579354
H344	H	0.420001	0.535639	1.079354
H345	H	-0.099577	-0.006162	0.542715
H346	H	0.400423	0.493838	1.042715
H347	H	-0.074717	-0.034506	0.582273
H348	H	0.425283	0.465494	1.082273
C349	C	0.206737	-0.553985	0.827416
C350	C	0.706737	-0.053985	1.327416
C351	C	0.177319	-0.511348	0.839804
C352	C	0.677319	-0.011348	1.339804
H353	H	0.229321	-0.573950	0.844760
H354	H	0.729321	-0.073950	1.344760
H355	H	0.224066	-0.545581	0.793281
H356	H	0.724066	-0.045581	1.293281
H357	H	0.186774	-0.571344	0.835814
H358	H	0.686774	-0.071344	1.335814
H359	H	0.197282	-0.493987	0.831403
H360	H	0.697282	0.006013	1.331403
H361	H	0.159989	-0.519751	0.873947
H362	H	0.659989	-0.019751	1.373947
C363	C	0.220930	-0.454319	0.682081
C364	C	0.720930	0.045681	1.182081
C365	C	0.213027	-0.475512	0.732388
C366	C	0.713027	0.024488	1.232388
H367	H	0.255062	-0.462699	0.664699
H368	H	0.755062	0.037301	1.164699
H369	H	0.206547	-0.419800	0.673711
H370	H	0.706547	0.080200	1.173711
H371	H	0.206547	-0.466093	0.673715
H372	H	0.706547	0.033907	1.173715
H373	H	0.227408	-0.463735	0.740755
H374	H	0.727408	0.036265	1.240755
H375	H	0.227417	-0.510038	0.740761
H376	H	0.727417	-0.010038	1.240761
C377	C	-0.010342	-0.380581	0.578022
C378	C	0.489658	0.119419	1.078022
C379	C	0.037419	-0.387819	0.570746
C380	C	0.537419	0.112181	1.070746
H381	H	-0.032897	-0.360622	0.597991
H382	H	0.467103	0.139378	1.097991
H383	H	-0.015242	-0.411251	0.593645
H384	H	0.484758	0.088749	1.093645
H385	H	-0.015281	-0.364954	0.547361
H386	H	0.484719	0.135046	1.047361
H387	H	0.042359	-0.403450	0.601406
H388	H	0.542359	0.096550	1.101406
H389	H	0.042321	-0.357143	0.555123
H390	H	0.542321	0.142857	1.055123
C391	C	0.224726	-0.518509	0.439888
C392	C	0.724726	-0.018509	0.939888
C393	C	0.176965	-0.511276	0.447168
C394	C	0.676965	-0.011276	0.947168
H395	H	0.247281	-0.538461	0.419911
H396	H	0.747281	-0.038461	0.919911
H397	H	0.229670	-0.534138	0.470542
H398	H	0.729670	-0.034138	0.970542
H399	H	0.229621	-0.487832	0.424266
H400	H	0.729621	0.012168	0.924266
H401	H	0.172069	-0.541952	0.462794
H402	H	0.672069	-0.041952	0.962794
H403	H	0.172020	-0.495648	0.416509
H404	H	0.672020	0.004352	0.916509
C405	C	-0.010820	-0.398032	0.492351
C406	C	0.489180	0.101968	0.992351
C407	C	0.001584	-0.423633	0.534980
C408	C	0.501584	0.076367	1.034980
H409	H	-0.044961	-0.389652	0.500765
H410	H	0.455039	0.110348	1.000765
H411	H	0.006527	-0.417983	0.472384
H412	H	0.506527	0.082017	0.972384
H413	H	-0.002447	-0.369095	0.474997
H414	H	0.497553	0.130905	0.974997
H415	H	-0.006786	-0.452573	0.552332
H416	H	0.493214	0.047427	1.052332
H417	H	-0.015769	-0.403682	0.554954
H418	H	0.484231	0.096318	1.054954
C419	C	0.220764	-0.454279	0.504106
C420	C	0.720764	0.045721	1.004106
C421	C	0.212798	-0.475462	0.482935
C422	C	0.712798	0.024538	0.982935
H423	H	0.254904	-0.462655	0.495691
H424	H	0.754904	0.037345	0.995691
H425	H	0.206425	-0.466060	0.538628
H426	H	0.706425	0.033940	1.038628
H427	H	0.206372	-0.419755	0.492351
H428	H	0.706372	0.080245	0.992351
H429	H	0.227187	-0.509987	0.494693
H430	H	0.727187	-0.009987	0.994693
H431	H	0.227144	-0.463684	0.448406
H432	H	0.727144	0.036316	0.948406
C433	C	0.343224	-0.542330	0.528777
C434	C	0.843224	-0.042330	1.028777
C435	C	0.330873	-0.518499	0.559823
C436	C	0.830873	-0.018499	1.059823
H437	H	0.325877	-0.564641	0.545284
H438	H	0.825877	-0.064641	1.045284
H439	H	0.377357	-0.559617	0.519639
H440	H	0.877357	-0.059617	1.019639
H441	H	0.334805	-0.518891	0.500357
H442	H	0.834805	-0.018891	1.000357
H443	H	0.339296	-0.541937	0.588241
H444	H	0.839296	-0.041937	1.088241
H445	H	0.296732	-0.501211	0.568968
H446	H	0.796732	-0.001211	1.068968
C447	C	0.404939	-0.333057	0.454922
C448	C	0.904939	0.166943	0.954922
C449	C	0.438210	-0.380473	0.457675
C450	C	0.938210	0.119527	0.957675
H451	H	0.422292	-0.310749	0.438404
H452	H	0.922292	0.189251	0.938404
H453	H	0.385008	-0.331756	0.486978
H454	H	0.885008	0.168244	0.986978
H455	H	0.384958	-0.324506	0.437508
H456	H	0.884958	0.175494	0.937508
H457	H	0.458189	-0.389026	0.475092
H458	H	0.958189	0.110974	0.975092
H459	H	0.458149	-0.381775	0.425613
H460	H	0.958149	0.118225	0.925613
C461	C	0.038248	-0.151846	0.626538
C462	C	0.538248	0.348154	1.126538
C463	C	0.045445	-0.118571	0.578789
C464	C	0.545445	0.381429	1.078789
H465	H	0.018298	-0.134493	0.649112
H466	H	0.518298	0.365507	1.149112
H467	H	0.068929	-0.171793	0.631424
H468	H	0.568929	0.328207	1.131424
H469	H	0.022629	-0.171813	0.631464
H470	H	0.522629	0.328187	1.131464
H471	H	0.061068	-0.098606	0.573862
H472	H	0.561068	0.401394	1.073862
H473	H	0.014759	-0.098615	0.573901
H474	H	0.514759	0.401385	1.073901
H475	H	-0.038255	-0.387188	0.952329
H476	H	0.461745	0.112812	1.452329
H477	H	0.430973	-0.540048	0.521891
H478	H	0.930973	-0.040048	1.021891
H479	H	0.079602	-0.622875	0.543835
H480	H	0.579602	-0.122875	1.043835
H481	H	0.015562	-0.654800	0.417614
H482	H	0.515562	-0.154800	0.917614
C483	C	0.124006	-0.255364	0.626857
C484	C	0.624006	0.244636	1.126857
C485	C	0.081319	-0.225970	0.614554
C486	C	0.581319	0.274030	1.114554
H487	H	0.115661	-0.272722	0.660996
H488	H	0.615661	0.227278	1.160996
H489	H	0.141356	-0.235383	0.618427
H490	H	0.641356	0.264617	1.118427
H491	H	0.143947	-0.277928	0.609497
H492	H	0.643947	0.222072	1.109497
H493	H	0.061379	-0.203404	0.631912
H494	H	0.561379	0.296596	1.131912
H495	H	0.063962	-0.245952	0.622990
H496	H	0.563962	0.254048	1.122990
C497	C	-0.154158	-0.757977	0.417785
C498	C	0.345842	-0.257977	0.917785
C499	C	-0.106756	-0.791275	0.415051
C500	C	0.393244	-0.291275	0.915051
H501	H	-0.176483	-0.775313	0.434315
H502	H	0.323517	-0.275313	0.934315
H503	H	-0.155452	-0.738056	0.385723
H504	H	0.344548	-0.238056	0.885723
H505	H	-0.162689	-0.737987	0.435179
H506	H	0.337311	-0.237987	0.935179
H507	H	-0.098224	-0.811264	0.397654
H508	H	0.401776	-0.311264	0.897654
H509	H	-0.105460	-0.811206	0.447119
H510	H	0.394540	-0.311206	0.947119
C511	C	0.054581	-0.352444	0.339991
C512	C	0.554581	0.147556	0.839991
C513	C	0.021314	-0.374079	0.353132
C514	C	0.521314	0.125921	0.853132
H515	H	0.048436	-0.321535	0.315201
H516	H	0.548436	0.178465	0.815201
H517	H	0.086930	-0.372909	0.328088
H518	H	0.586930	0.127091	0.828088
H519	H	0.050933	-0.348210	0.367770
H520	H	0.550933	0.151790	0.867770
H521	H	0.024965	-0.378316	0.325353
H522	H	0.524965	0.121684	0.825353
H523	H	-0.011043	-0.353609	0.365033
H524	H	0.488957	0.146391	0.865033
C525	C	-0.092794	-0.463237	0.200233
C526	C	0.407206	0.036763	0.700233
C527	C	-0.063336	-0.488845	0.166991
C528	C	0.436664	0.011155	0.666991
H529	H	-0.101155	-0.429101	0.182857
H530	H	0.398845	0.070899	0.682857
H531	H	-0.075472	-0.471637	0.220233
H532	H	0.424528	0.028363	0.720233
H533	H	-0.121737	-0.471602	0.220149
H534	H	0.378263	0.028398	0.720149
H535	H	-0.034391	-0.480483	0.147078
H536	H	0.465609	0.019517	0.647078
H537	H	-0.080658	-0.480443	0.146982
H538	H	0.419342	0.019557	0.646982
C539	C	-0.092910	-0.463227	0.308642
C540	C	0.407090	0.036773	0.808642
C541	C	-0.063560	-0.488836	0.338145
C542	C	0.436440	0.011164	0.838145
H543	H	-0.101258	-0.429091	0.300231
H544	H	0.398742	0.070909	0.800231
H545	H	-0.121860	-0.471566	0.325954
H546	H	0.378140	0.028434	0.825954
H547	H	-0.075513	-0.471651	0.279727
H548	H	0.424487	0.028349	0.779727
H549	H	-0.080958	-0.480415	0.367061
H550	H	0.419042	0.019585	0.867061
H551	H	-0.034605	-0.480494	0.320832
H552	H	0.465395	0.019506	0.820832
H553	H	-0.090896	-0.534066	0.267110
H554	H	0.409104	-0.034066	0.767110
C555	C	-0.001309	-0.693680	0.179415
C556	C	0.498691	-0.193680	0.679415
C557	C	0.024302	-0.664300	0.167094
C558	C	0.524302	-0.164300	0.667094
H559	H	0.018665	-0.716266	0.162076
H560	H	0.518665	-0.216266	0.662076
H561	H	-0.030206	-0.673691	0.170970
H562	H	0.469794	-0.173691	0.670970
H563	H	-0.009747	-0.711012	0.213555
H564	H	0.490253	-0.211012	0.713555
H565	H	0.032737	-0.646965	0.132955
H566	H	0.532737	-0.146965	0.632955
H567	H	0.053208	-0.684291	0.175536
H568	H	0.553208	-0.184291	0.675536
C569	C	-0.054321	-0.712344	0.303859
C570	C	0.445679	-0.212344	0.803859
C571	C	-0.011645	-0.700039	0.274502
C572	C	0.488355	-0.200039	0.774502
H573	H	-0.045968	-0.746479	0.321239
H574	H	0.454032	-0.246479	0.821239
H575	H	-0.071637	-0.703943	0.283851
H576	H	0.428363	-0.203943	0.783851
H577	H	-0.074299	-0.694961	0.326401
H578	H	0.425701	-0.194961	0.826401
H579	H	0.008331	-0.717420	0.251957
H580	H	0.508331	-0.217420	0.751957
H581	H	0.005678	-0.708446	0.294512
H582	H	0.505678	-0.208446	0.794512
C583	C	0.084752	-0.820887	0.321346
C584	C	0.584752	-0.320887	0.821346
C585	C	0.067047	-0.791455	0.348980
C586	C	0.567047	-0.291455	0.848980
H587	H	0.118616	-0.838282	0.316476
H588	H	0.618616	-0.338282	0.816476
H589	H	0.080054	-0.800927	0.290583
H590	H	0.580054	-0.300927	0.790583
H591	H	0.067597	-0.843418	0.338242
H592	H	0.567597	-0.343418	0.838242
H593	H	0.084200	-0.768921	0.332082
H594	H	0.584200	-0.268921	0.832082
H595	H	0.071749	-0.811416	0.379748
H596	H	0.571749	-0.311416	0.879748
C597	C	0.550868	-0.588202	0.614215
C598	C	1.050868	-0.088202	1.114215
C599	C	0.550849	-0.605610	0.583955
C600	C	1.050849	-0.105610	1.083955
H601	H	0.550917	-0.613066	0.645082
H602	H	1.050917	-0.113066	1.145082
H603	H	0.522506	-0.560446	0.618522
H604	H	1.022506	-0.060446	1.118522
H605	H	0.579199	-0.579295	0.599565
H606	H	1.079199	-0.079295	1.099565
H607	H	0.522516	-0.614514	0.598604
H608	H	1.022516	-0.114514	1.098604
H609	H	0.579214	-0.633375	0.579650
H610	H	1.079214	-0.133375	1.079650
H611	H	-0.090949	-0.534065	0.310634
H612	H	0.409051	-0.034065	0.810634
C613	C	0.017547	-0.725639	0.419587
C614	C	0.517547	-0.225639	0.919587
C615	C	-0.011815	-0.700030	0.390096
C616	C	0.488185	-0.200030	0.890096
H617	H	0.025917	-0.759775	0.427976
H618	H	0.525917	-0.259775	0.927976
H619	H	0.000153	-0.717237	0.448510
H620	H	0.500153	-0.217237	0.948510
H621	H	0.046489	-0.717279	0.402272
H622	H	0.546489	-0.217279	0.902272
H623	H	-0.040759	-0.708388	0.407413
H624	H	0.459241	-0.208388	0.907413
H625	H	0.005579	-0.708437	0.361169
H626	H	0.505579	-0.208437	0.861169
H627	H	0.021953	-0.691318	0.320042
H628	H	0.521953	-0.191318	0.820042
C629	C	-0.149378	-0.654439	0.333768
C630	C	0.350622	-0.154439	0.833768
C631	C	-0.142469	-0.683855	0.379127
C632	C	0.357531	-0.183855	0.879127
H633	H	-0.183241	-0.637041	0.338637
H634	H	0.316759	-0.137041	0.838637
H635	H	-0.137362	-0.674410	0.315028
H636	H	0.362638	-0.174410	0.815028
H637	H	-0.132220	-0.631911	0.316882
H638	H	0.367780	-0.131911	0.816882
H639	H	-0.159624	-0.706386	0.396012
H640	H	0.340376	-0.206386	0.896012
H641	H	-0.154491	-0.663882	0.397875
H642	H	0.345509	-0.163882	0.897875
H643	H	0.129496	-0.125810	0.417697
H644	H	0.629496	0.374190	0.917697
H645	H	-0.134607	-0.647683	0.424287
H646	H	0.365393	-0.147683	0.924287
C647	C	0.191288	-0.574418	0.341696
C648	C	0.691288	-0.074418	0.841696
C649	C	0.182538	-0.535140	0.352956
C650	C	0.682538	-0.035140	0.852956
H651	H	0.222172	-0.580500	0.316866
H652	H	0.722172	-0.080500	0.816866
H653	H	0.166424	-0.566687	0.330485
H654	H	0.666424	-0.066687	0.830485
H655	H	0.191210	-0.602709	0.370101
H656	H	0.691210	-0.102709	0.870101
H657	H	0.182613	-0.506848	0.324552
H658	H	0.682613	-0.006848	0.824552
H659	H	0.207409	-0.542869	0.364165
H660	H	0.707409	-0.042869	0.864165
C661	C	-0.201540	-0.649609	0.495071
C662	C	0.298460	-0.149609	0.995071
C663	C	-0.234742	-0.620157	0.469414
C664	C	0.265258	-0.120157	0.969414
H665	H	-0.218946	-0.657982	0.529199
H666	H	0.281054	-0.157982	1.029199
H667	H	-0.181581	-0.632275	0.486729
H668	H	0.318419	-0.132275	0.986729
H669	H	-0.181580	-0.678548	0.486691
H670	H	0.318420	-0.178548	0.986691
H671	H	-0.254699	-0.591216	0.477791
H672	H	0.245301	-0.091216	0.977791
H673	H	-0.254709	-0.637490	0.477760
H674	H	0.245291	-0.137490	0.977760
H675	H	-0.227194	-0.540877	0.303400
H676	H	0.272806	-0.040877	0.803400
