data_functionalizedCrystal
_audit_creation_method	'MofGen! by Chris Wilmer'
_symmetry_space_group_name_H-M	'P1'
_symmetry_Int_Tables_number	1
_symmetry_cell_setting	triclinic
loop_
_symmetry_equiv_pos_as_xyz
  x,y,z
_cell_length_a	10.540539
_cell_length_b	23.532407
_cell_length_c	9.016244
_cell_angle_alpha	89.993097
_cell_angle_beta	89.994699
_cell_angle_gamma	83.687085
loop_
_atom_site_label
_atom_site_type_symbol
_atom_site_fract_x
_atom_site_fract_y
_atom_site_fract_z
O1	O	1.683259	0.080251	-0.123287
O2	O	1.313598	0.087813	-0.123307
O3	O	1.509576	0.001174	-0.123270
O4	O	1.487282	0.166890	-0.123325
O5	O	1.509547	0.001176	0.123411
O6	O	1.313570	0.087815	0.123373
O7	O	1.683231	0.080253	0.123393
Cu8	Cu	1.498398	0.084034	0.145907
Cu9	Cu	1.498431	0.084032	-0.145821
O10	O	1.487253	0.166892	0.123356
C11	C	1.266300	0.087246	0.000031
C12	C	1.125407	0.085550	0.000024
C13	C	1.508994	-0.020045	0.000075
C14	C	1.507287	-0.083273	0.000086
C15	C	0.944114	0.020541	0.000622
C16	C	1.090676	0.022261	0.000050
C17	C	1.062751	0.116006	-0.140847
C18	C	0.916278	0.113846	-0.140949
C19	C	0.915715	0.115136	0.139573
C20	C	1.062677	0.115719	0.141419
C21	C	1.612557	-0.481681	0.000010
C22	C	1.610971	-0.541092	-0.000001
O23	O	1.708557	-0.577192	-0.000051
N24	N	1.494462	-0.564488	-0.000006
C25	C	1.379532	-0.528469	-0.000015
O26	O	1.280287	-0.553824	-0.000022
C27	C	1.381119	-0.469060	-0.000015
C28	C	1.497635	-0.445667	0.000006
C29	C	1.729064	-0.458288	0.000029
C30	C	1.730649	-0.398882	0.000043
C31	C	1.615727	-0.362868	0.000038
C32	C	1.499220	-0.386261	0.000020
C33	C	1.266190	-0.433042	-0.000034
C34	C	1.267787	-0.373629	-0.000035
C35	C	1.384303	-0.350237	-0.000014
C36	C	1.385883	-0.290840	0.000029
N37	N	1.502392	-0.267444	0.000035
C38	C	1.617314	-0.303458	0.000039
C39	C	1.376208	-0.653234	-0.000019
C40	C	1.374620	-0.712642	-0.000010
C41	C	1.606059	-0.725261	0.000002
C42	C	1.607646	-0.665851	0.000003
C43	C	1.492717	-0.629838	-0.000014
C44	C	1.620634	-0.178700	0.000070
C45	C	1.622209	-0.119287	0.000090
C46	C	1.390770	-0.106674	0.000071
C47	C	1.389194	-0.166081	0.000059
C48	C	1.504137	-0.202093	0.000053
O49	O	1.288349	-0.254705	0.000073
O50	O	1.716543	-0.278095	0.000026
C51	C	1.730530	0.080819	0.000052
C52	C	1.871422	0.082516	0.000048
C53	C	1.487835	0.188111	0.000008
C54	C	1.489542	0.251339	-0.000013
N55	N	1.498383	0.084035	0.351093
N56	N	1.498456	0.084026	-0.351007
C57	C	1.393236	0.130226	0.586106
C58	C	1.393460	0.130399	0.414215
C59	C	1.630663	0.097553	0.413434
C60	C	1.630086	0.097880	0.585378
C61	C	1.472574	0.024176	0.585655
C62	C	1.469516	0.024564	0.413701
H63	H	0.916337	-0.004461	0.101650
N64	N	1.148161	-0.009478	0.133815
H65	H	1.078302	-0.024715	0.193682
H66	H	1.211276	-0.042339	0.100073
N67	N	1.564508	-0.023166	0.356814
H68	H	1.543567	-0.060809	0.398868
H69	H	1.560182	-0.024440	0.244979
N70	N	1.262541	0.119623	0.640932
H71	H	1.223756	0.153932	0.698946
H72	H	1.206137	0.113047	0.553441
H73	H	0.914735	-0.004357	-0.099826
N74	N	1.414749	0.188710	0.643276
H75	H	1.337540	0.205281	0.701495
H76	H	1.492383	0.185351	0.709664
N77	N	1.248950	-0.737869	0.000009
H78	H	1.176395	-0.706035	0.000014
H79	H	1.243246	-0.762238	-0.091440
H80	H	1.717094	-0.100245	0.000111
H81	H	1.699635	-0.754594	-0.000000
N82	N	0.850717	0.174129	-0.149406
H83	H	0.875899	0.196664	-0.060861
H84	H	0.877199	0.192880	-0.243546
H85	H	1.282612	-0.623914	-0.000020
H86	H	1.653007	0.141545	0.625454
N87	N	0.879899	0.084018	-0.280397
H88	H	0.784579	0.082317	-0.281857
H89	H	0.905635	0.105861	-0.369933
H90	H	1.133225	-0.001874	-0.101092
H91	H	1.297204	-0.077341	0.000073
N92	N	1.090349	0.177569	-0.147839
H93	H	1.143860	0.186329	-0.059543
H94	H	1.138256	0.184074	-0.242256
H95	H	1.104358	0.093470	0.245635
N96	N	1.661764	0.154740	0.356365
H97	H	1.671798	0.181178	0.442791
H98	H	1.743941	0.149340	0.297903
N99	N	1.263180	0.119630	0.358392
H100	H	1.197180	0.150667	0.395906
H101	H	1.263183	0.119711	0.246377
H102	H	1.549314	-0.010211	0.626322
H103	H	1.378259	0.011310	0.629103
H104	H	1.106046	0.094848	-0.245672
N105	N	0.874812	0.088009	0.281020
H106	H	0.827147	0.054296	0.256083
H107	H	0.952685	0.074609	0.342142
H108	H	1.171310	-0.452077	-0.000060
H109	H	1.372214	0.014317	0.372958
H110	H	1.085388	0.161861	0.149909
N111	N	1.856323	-0.373658	0.000021
H112	H	1.839908	-0.330557	0.000018
H113	H	1.906578	-0.386804	0.091461
N114	N	1.736824	0.055034	0.640533
H115	H	1.723515	0.015675	0.603106
H116	H	1.821164	0.065851	0.602885
H117	H	0.866987	0.160849	0.140509
N118	N	1.853022	-0.497129	0.000043
H119	H	1.903905	-0.489543	-0.091391
H120	H	1.903761	-0.489527	0.091559
H121	H	1.714231	-0.208014	0.000060
N122	N	1.143824	-0.334786	-0.000060
H123	H	1.069780	-0.358625	-0.000074
H124	H	1.139420	-0.309868	0.091391
N125	N	1.733315	-0.640623	0.000025
H126	H	1.805870	-0.672457	0.000033
H127	H	1.739034	-0.616246	-0.091423
N128	N	1.736812	0.054205	0.359259
H129	H	1.820950	0.063730	0.400688
H130	H	1.720438	0.014797	0.393468
N131	N	1.414898	0.189255	0.359675
H132	H	1.424285	0.215183	0.447331
H133	H	1.495052	0.186663	0.297534
H134	H	1.294317	-0.185128	0.000083
