data_functionalizedCrystal
_audit_creation_method	'MofGen! by Chris Wilmer'
_symmetry_space_group_name_H-M	'P1'
_symmetry_Int_Tables_number	1
_symmetry_cell_setting	triclinic
loop_
_symmetry_equiv_pos_as_xyz
  x,y,z
_cell_length_a	17.019282
_cell_length_b	27.732048
_cell_length_c	15.500227
_cell_angle_alpha	92.799543
_cell_angle_beta	91.034464
_cell_angle_gamma	83.017024
loop_
_atom_site_label
_atom_site_type_symbol
_atom_site_fract_x
_atom_site_fract_y
_atom_site_fract_z
O1	O	1.045624	0.061734	0.005975
O2	O	1.545624	0.561734	0.505975
O3	O	0.816739	0.069061	-0.011086
O4	O	1.316739	0.569061	0.488914
O5	O	0.938289	-0.004955	-0.002009
O6	O	1.438289	0.495045	0.497991
O7	O	0.924073	0.135750	-0.003102
O8	O	1.424073	0.635750	0.496898
O9	O	0.930913	-0.000481	0.141328
O10	O	1.430913	0.499519	0.641328
O11	O	0.809363	0.073535	0.132252
O12	O	1.309363	0.573535	0.632252
O13	O	1.038248	0.066208	0.149313
O14	O	1.538248	0.566208	0.649313
Cu15	Cu	0.923132	0.070280	0.153870
Cu16	Cu	1.423132	0.570280	0.653870
Cu17	Cu	0.931855	0.064989	-0.015644
Cu18	Cu	1.431855	0.564989	0.484356
O19	O	0.916698	0.140224	0.140236
O20	O	1.416698	0.640224	0.640236
C21	C	0.783778	0.070933	0.058401
C22	C	1.283778	0.570933	0.558401
C23	C	0.696552	0.069840	0.051900
C24	C	1.196552	0.569840	0.551900
C25	C	0.651558	0.071764	0.126981
C26	C	1.151558	0.571764	0.626981
C27	C	0.569602	0.070729	0.120875
C28	C	1.069602	0.570729	0.620875
C29	C	0.532641	0.067774	0.039687
C30	C	1.032641	0.567774	0.539687
C31	C	0.577642	0.065848	-0.035400
C32	C	1.077642	0.565848	0.464600
C33	C	0.659597	0.066880	-0.029293
C34	C	1.159597	0.566880	0.470707
C35	C	0.285391	0.064535	0.017339
C36	C	0.785391	0.564535	0.517339
C37	C	0.203429	0.063505	0.011238
C38	C	0.703429	0.563505	0.511238
C39	C	0.195395	0.068385	0.167514
C40	C	0.695395	0.568385	0.667514
C41	C	0.277352	0.069419	0.173613
C42	C	0.777352	0.569419	0.673613
C43	C	0.322346	0.067491	0.098527
C44	C	0.822346	0.567491	0.598527
C45	C	0.448869	0.066718	0.033444
C46	C	0.948869	0.566718	0.533444
C47	C	0.406117	0.068544	0.104771
C48	C	0.906117	0.568544	0.604771
C49	C	0.934303	-0.020726	0.069640
C50	C	1.434303	0.479274	0.569640
C51	C	0.933404	-0.074387	0.069580
C52	C	1.433404	0.425613	0.569580
C53	C	0.999577	-0.412793	0.074468
C54	C	1.499577	0.087207	0.574468
C55	C	0.996243	-0.614474	0.074207
C56	C	1.496243	-0.114474	0.574207
O57	O	1.056754	-0.645356	0.078680
O58	O	1.556754	-0.145356	0.578680
N59	N	0.924169	-0.634044	0.068836
N60	N	1.424169	-0.134044	0.568836
C61	C	0.852923	-0.603191	0.063523
C62	C	1.352923	-0.103191	0.563523
O63	O	0.791543	-0.624464	0.058939
O64	O	1.291543	-0.124464	0.558939
C65	C	0.856257	-0.401511	0.063778
C66	C	1.356257	0.098489	0.563778
C67	C	0.928336	-0.381944	0.069158
C68	C	1.428336	0.118056	0.569158
C69	C	1.071650	-0.393225	0.079847
C70	C	1.571650	0.106775	0.579847
C71	C	1.072483	-0.342808	0.079917
C72	C	1.572483	0.157192	0.579917
C73	C	1.001242	-0.311958	0.074607
C74	C	1.501242	0.188042	0.574607
C75	C	0.929169	-0.331526	0.069228
C76	C	1.429169	0.168474	0.569228
C77	C	0.785012	-0.370659	0.058459
C78	C	1.285012	0.129341	0.558459
C79	C	0.785853	-0.320237	0.058521
C80	C	1.285853	0.179763	0.558521
C81	C	0.857932	-0.300669	0.063902
C82	C	1.357932	0.199331	0.563902
C83	C	0.858760	-0.250260	0.063988
C84	C	1.358760	0.249740	0.563988
N85	N	0.930835	-0.230690	0.069360
N86	N	1.430835	0.269310	0.569360
C87	C	1.002076	-0.261539	0.074670
C88	C	1.502076	0.238461	0.574670
C89	C	0.851177	-0.709076	0.063392
C90	C	1.351177	-0.209076	0.563392
C91	C	0.850343	-0.759495	0.063330
C92	C	1.350343	-0.259495	0.563330
C93	C	0.993664	-0.770775	0.074012
C94	C	1.493664	-0.270775	0.574012
C95	C	0.994497	-0.720354	0.074080
C96	C	1.494497	-0.220354	0.574080
C97	C	0.923251	-0.689506	0.068763
C98	C	1.423251	-0.189506	0.568763
C99	C	1.003818	-0.155658	0.074816
C100	C	1.503818	0.344342	0.574816
C101	C	1.004644	-0.105236	0.074889
C102	C	1.504644	0.394764	0.574889
C103	C	0.861324	-0.093961	0.064202
C104	C	1.361324	0.406039	0.564202
C105	C	0.860497	-0.144379	0.064134
C106	C	1.360497	0.355621	0.564134
C107	C	0.931751	-0.175227	0.069439
C108	C	1.431751	0.324773	0.569439
O109	O	0.798283	-0.219350	0.059508
O110	O	1.298283	0.280650	0.559508
O111	O	1.063448	-0.240256	0.079234
O112	O	1.563448	0.259744	0.579234
C113	C	0.998745	-0.463210	0.074398
C114	C	1.498745	0.036790	0.574398
C115	C	0.926672	-0.482778	0.069019
C116	C	1.426672	0.017222	0.569019
C117	C	0.855431	-0.451929	0.063709
C118	C	1.355431	0.048071	0.563709
C119	C	0.925838	-0.533198	0.068957
C120	C	1.425838	-0.033198	0.568957
C121	C	0.997078	-0.564047	0.074266
C122	C	1.497078	-0.064047	0.574266
C123	C	1.069153	-0.544477	0.079638
C124	C	1.569153	-0.044477	0.579638
C125	C	1.069985	-0.494060	0.079708
C126	C	1.569985	0.005940	0.579708
C127	C	0.783356	-0.471499	0.058338
C128	C	1.283356	0.028501	0.558338
C129	C	0.782529	-0.521917	0.058269
C130	C	1.282529	-0.021917	0.558269
C131	C	0.853770	-0.552767	0.063579
C132	C	1.353770	-0.052767	0.563579
C133	C	1.071209	0.064336	0.079824
C134	C	1.571209	0.564336	0.579824
C135	C	1.158435	0.065429	0.086319
C136	C	1.658435	0.565429	0.586319
C137	C	0.920684	0.155995	0.068585
C138	C	1.420684	0.655995	0.568585
C139	C	0.921584	0.209655	0.068639
C140	C	1.421584	0.709655	0.568639
N141	N	0.917003	0.074001	0.273097
N142	N	1.417003	0.574001	0.773097
N143	N	0.937990	0.061264	-0.134870
N144	N	1.437990	0.561264	0.365130
C145	C	0.968525	0.042649	0.322221
C146	C	1.468525	0.542649	0.822221
C147	C	0.963897	0.045468	0.412449
C148	C	1.463897	0.545468	0.912449
C149	C	0.907749	0.079641	0.453550
C150	C	1.407749	0.579641	0.953550
C151	C	0.856221	0.110994	0.404419
C152	C	1.356221	0.610994	0.904419
C153	C	0.860846	0.108172	0.314194
C154	C	1.360846	0.608172	0.814194
C155	C	0.891087	0.089796	0.725773
C156	C	1.391087	0.589796	1.225773
C157	C	0.886468	0.092616	0.816005
C158	C	1.386468	0.592616	1.316005
C159	C	0.994143	0.027089	0.824028
C160	C	1.494143	0.527089	1.324028
C161	C	0.998766	0.024273	0.733801
C162	C	1.498766	0.524273	1.233801
C163	C	0.947236	0.055624	0.684678
C164	C	1.447236	0.555624	1.184678
C165	C	0.903019	0.082524	0.545777
C166	C	1.403019	0.582524	1.045777
C167	C	0.951963	0.052739	0.592452
C168	C	1.451963	0.552739	1.092452
H169	H	1.063342	-0.089307	0.079273
H170	H	1.563342	0.410693	0.579273
H171	H	1.051671	-0.795901	0.078336
H172	H	1.551671	-0.295901	0.578336
F173	F	1.079655	-0.188482	0.080462
F174	F	1.579655	0.311518	0.580462
H175	H	0.818890	0.133701	0.274197
H176	H	1.318890	0.633701	0.774197
H177	H	1.129666	-0.418338	0.084168
H178	H	1.629666	0.081662	0.584168
H179	H	0.532972	0.072288	0.182014
H180	H	1.032972	0.572288	0.682014
H181	H	0.997676	0.024913	0.558985
H182	H	1.497676	0.524913	1.058985
F183	F	0.836247	0.123163	0.673500
F184	F	1.336247	0.623163	1.173500
H185	H	1.044486	-0.003553	0.700338
H186	H	1.544486	0.496447	1.200338
F187	F	0.164095	0.060361	-0.075178
F188	F	0.664095	0.560361	0.424822
H189	H	0.810500	0.138816	0.437889
H190	H	1.310500	0.638816	0.937889
H191	H	0.726318	-0.386582	0.054072
H192	H	1.226318	0.113418	0.554072
F193	F	1.048980	-0.006276	0.876314
F194	F	1.548980	0.493724	1.376314
F195	F	1.144972	-0.577318	0.085293
F196	F	1.644972	-0.077318	0.585293
F197	F	0.826705	0.128990	0.859743
F198	F	1.326705	0.628990	1.359743
F199	F	0.785508	-0.061120	0.058552
F200	F	1.285508	0.438880	0.558552
H201	H	0.857303	0.110349	0.579249
H202	H	1.357303	0.610349	1.079249
H203	H	0.681644	0.074174	0.193093
H204	H	1.181644	0.574174	0.693093
H205	H	0.158752	0.069954	0.228645
H206	H	0.658752	0.569954	0.728645
F207	F	0.316681	0.072567	0.260025
F208	F	0.816681	0.572567	0.760025
H209	H	0.322016	0.062963	-0.043802
H210	H	0.822016	0.562963	0.456198
H211	H	0.547543	0.063439	-0.101505
H212	H	1.047543	0.563439	0.398495
F213	F	1.149200	-0.321990	0.085625
F214	F	1.649200	0.178010	0.585625
H215	H	0.696231	0.065314	-0.090433
H216	H	1.196231	0.565314	0.409567
H217	H	1.014250	0.014824	0.288763
H218	H	1.514250	0.514824	0.788763
H219	H	0.436215	0.070947	0.170874
H220	H	0.936215	0.570947	0.670874
H221	H	1.005850	0.019939	0.452445
H222	H	1.505850	0.519939	0.952445
H223	H	0.793157	-0.683963	0.059062
H224	H	1.293157	-0.183963	0.559062
F225	F	0.409529	0.063555	-0.052960
F226	F	0.909529	0.563555	0.447040
H227	H	0.791648	-0.775422	0.058963
H228	H	1.291648	-0.275422	0.558963
F229	F	1.071212	-0.699534	0.079807
F230	F	1.571212	-0.199534	0.579807
H231	H	0.727835	-0.295122	0.054190
H232	H	1.227835	0.204878	0.554190
H233	H	0.801804	-0.160311	0.059776
H234	H	1.301804	0.339689	0.559776
H235	H	1.128679	-0.478133	0.084089
H236	H	1.628679	0.021867	0.584089
H237	H	0.723829	-0.537844	0.053895
H238	H	1.223829	-0.037844	0.553895
H239	H	0.725342	-0.446386	0.054012
H240	H	1.225342	0.053614	0.554012
