data_functionalizedCrystal
_audit_creation_method	'MofGen! by Chris Wilmer'
_symmetry_space_group_name_H-M	'P1'
_symmetry_Int_Tables_number	1
_symmetry_cell_setting	triclinic
loop_
_symmetry_equiv_pos_as_xyz
  x,y,z
_cell_length_a	19.077105
_cell_length_b	16.625546
_cell_length_c	19.077174
_cell_angle_alpha	92.270997
_cell_angle_beta	85.483752
_cell_angle_gamma	87.718759
loop_
_atom_site_label
_atom_site_type_symbol
_atom_site_fract_x
_atom_site_fract_y
_atom_site_fract_z
Zn1	Zn	1.093718	-0.391770	-0.441833
Zn2	Zn	1.088907	-0.520961	-0.323942
Zn3	Zn	0.971103	-0.380499	-0.319231
Zn4	Zn	0.975801	-0.520909	-0.437060
O5	O	1.032382	-0.453535	-0.380517
O6	O	1.191730	-0.413647	-0.430164
O7	O	1.069300	-0.497634	-0.224668
O8	O	0.987415	-0.269165	-0.335520
O9	O	1.188196	-0.508563	-0.343550
O10	O	1.077500	-0.277446	-0.425596
O11	O	0.982750	-0.394436	-0.221206
O12	O	0.873076	-0.394385	-0.330892
O13	O	0.995423	-0.508473	-0.536343
O14	O	0.876527	-0.497544	-0.417460
O15	O	1.082056	-0.413595	-0.539850
O16	O	1.073856	-0.633783	-0.338921
O17	O	0.990757	-0.633745	-0.422029
C18	C	0.849223	-0.444736	-0.373147
C19	C	0.770867	-0.440993	-0.370012
C20	C	0.735868	-0.493017	-0.413539
C21	C	0.662244	-0.489489	-0.410596
C22	C	0.623621	-0.433940	-0.364122
C23	C	0.658625	-0.381910	-0.320592
C24	C	0.732248	-0.385434	-0.323539
C25	C	0.403240	-0.417627	-0.350485
C26	C	0.329612	-0.414107	-0.347540
C27	C	0.333237	-0.521686	-0.437545
C28	C	0.406860	-0.525210	-0.440485
C29	C	0.441858	-0.473177	-0.396959
N30	N	0.548366	-0.430334	-0.361111
N31	N	0.517112	-0.476779	-0.399974
C32	C	1.032314	-0.663021	-0.380484
C33	C	1.032351	-0.752644	-0.380497
C34	C	1.032477	-1.080829	-0.380575
C35	C	1.032439	-0.989518	-0.380555
C36	C	1.032413	-0.916740	-0.380536
C37	C	1.032377	-0.825423	-0.380516
C38	C	1.216257	-0.462368	-0.387915
C39	C	1.294613	-0.466132	-0.391068
C40	C	1.039800	-0.462286	-0.564390
C41	C	1.042961	-0.466015	-0.642746
C42	C	1.032470	-0.243232	-0.380565
C43	C	1.032508	-0.153614	-0.380586
C44	C	0.999386	-0.414038	-0.677755
C45	C	1.002353	-0.417549	-0.751379
C46	C	1.048900	-0.473032	-0.789992
C47	C	1.092477	-0.525014	-0.754978
C48	C	1.089505	-0.521507	-0.681355
C49	C	1.062615	-0.489286	-1.010373
C50	C	1.065585	-0.492788	-1.084001
C51	C	0.975460	-0.385323	-1.080397
C52	C	0.972496	-0.381818	-1.006773
C53	C	1.016070	-0.433802	-0.971765
N54	N	1.051935	-0.476620	-0.865247
N55	N	1.013030	-0.430218	-0.896511
C56	C	1.025034	-0.444761	-0.197360
C57	C	1.022010	-0.440812	-0.119010
H58	H	0.627172	-0.336677	-0.282755
H59	H	0.966867	-0.375227	-0.779880
H60	H	0.760743	-0.343066	-0.288098
C61	C	0.421069	-0.373539	-0.232084
C62	C	0.441701	-0.360434	-0.302638
H63	H	0.444818	-0.338231	-0.202545
H64	H	0.371700	-0.363496	-0.223685
H65	H	0.432708	-0.427778	-0.222171
H66	H	0.430057	-0.306197	-0.312552
H67	H	0.491080	-0.370471	-0.311040
H68	H	0.934591	-0.336640	-0.975339
H69	H	0.961486	-0.368853	-0.646322
H70	H	1.098089	-0.531624	-0.981878
H71	H	0.939984	-0.343001	-1.108908
H72	H	1.124994	-0.563826	-0.652852
C73	C	1.154367	-0.598675	-1.080172
C74	C	1.116750	-0.553783	-1.126446
H75	H	1.185949	-0.636330	-1.106377
H76	H	1.180190	-0.563479	-1.052550
H77	H	1.122471	-0.626671	-1.050213
H78	H	1.148645	-0.525782	-1.156401
H79	H	1.090925	-0.588984	-1.154080
H80	H	0.767310	-0.538254	-0.451381
H81	H	0.304734	-0.564048	-0.472983
C82	C	0.673221	-0.596200	-0.499836
C83	C	0.623773	-0.546689	-0.458432
H84	H	0.649469	-0.631519	-0.529364
H85	H	0.703038	-0.563786	-0.528015
H86	H	0.700684	-0.626884	-0.470208
H87	H	0.596314	-0.516001	-0.488060
H88	H	0.593944	-0.579107	-0.430251
C89	C	0.242956	-0.394226	-0.249432
C90	C	0.287146	-0.353029	-0.296472
H91	H	0.216740	-0.356517	-0.217909
H92	H	0.211588	-0.424714	-0.274934
H93	H	0.270573	-0.429376	-0.223541
H94	H	0.259528	-0.317883	-0.322366
H95	H	0.318517	-0.322527	-0.270967
C96	C	0.403045	-0.631188	-0.529160
C97	C	0.449313	-0.586269	-0.491573
H98	H	0.429255	-0.668882	-0.560701
H99	H	0.373074	-0.659134	-0.497247
H100	H	0.375434	-0.596010	-0.555032
H101	H	0.476919	-0.621447	-0.465697
H102	H	0.479296	-0.558322	-0.523491
H103	H	1.130372	-0.570194	-0.786422
