data_functionalizedCrystal
_audit_creation_method	'MofGen! by Chris Wilmer'
_symmetry_space_group_name_H-M	'P1'
_symmetry_Int_Tables_number	1
_symmetry_cell_setting	triclinic
loop_
_symmetry_equiv_pos_as_xyz
  x,y,z
_cell_length_a	12.759401
_cell_length_b	16.120484
_cell_length_c	12.759393
_cell_angle_alpha	92.864008
_cell_angle_beta	89.977963
_cell_angle_gamma	92.925786
loop_
_atom_site_label
_atom_site_type_symbol
_atom_site_fract_x
_atom_site_fract_y
_atom_site_fract_z
Zn1	Zn	1.584983	-0.331860	-0.615215
Zn2	Zn	1.575931	-0.471295	-0.448427
Zn3	Zn	1.409279	-0.331901	-0.439549
Zn4	Zn	1.400335	-0.471234	-0.624057
O5	O	1.492632	-0.401573	-0.531812
O6	O	1.730803	-0.350365	-0.593105
O7	O	1.553780	-0.452847	-0.300231
O8	O	1.440118	-0.215230	-0.455436
O9	O	1.724152	-0.452807	-0.470567
O10	O	1.569206	-0.215200	-0.584496
O11	O	1.431341	-0.350435	-0.293709
O12	O	1.261072	-0.350376	-0.464010
O13	O	1.424874	-0.452703	-0.769903
O14	O	1.254501	-0.452743	-0.599567
O15	O	1.560534	-0.350305	-0.763406
O16	O	1.545107	-0.587952	-0.479141
O17	O	1.416097	-0.587907	-0.608175
C18	C	1.219665	-0.401558	-0.531785
C19	C	1.102888	-0.401571	-0.531800
C20	C	1.044565	-0.454828	-0.467902
C21	C	0.934840	-0.454842	-0.467931
C22	C	0.941771	-0.348336	-0.595756
C23	C	1.051494	-0.348326	-0.595733
C24	C	0.778544	-0.553142	-0.436478
C25	C	0.720217	-0.606391	-0.372564
C26	C	0.754950	-0.619090	-0.270824
C27	C	0.848009	-0.578528	-0.232977
C28	C	0.906330	-0.525272	-0.296885
C29	C	0.871598	-0.512589	-0.398641
C30	C	1.207792	-0.250026	-0.627174
C31	C	1.266115	-0.196765	-0.691078
C32	C	1.231385	-0.184058	-0.792819
C33	C	1.138324	-0.224605	-0.830661
C34	C	1.080001	-0.277866	-0.766758
C35	C	1.114739	-0.290575	-0.665018
C36	C	1.478677	-0.618180	-0.545604
C37	C	1.472804	-0.710845	-0.551539
C38	C	1.462086	-0.880506	-0.562397
C39	C	1.523366	-0.921798	-0.501244
C40	C	1.517402	-1.016203	-0.507286
C41	C	1.468048	-0.786093	-0.556357
C42	C	1.766664	-0.401588	-0.531840
C43	C	1.883440	-0.401595	-0.531852
C44	C	1.492716	-0.401492	-0.805840
C45	C	1.492751	-0.401458	-0.922615
C46	C	1.506669	-0.184119	-0.517989
C47	C	1.512651	-0.091454	-0.512099
C48	C	1.563395	-0.348132	-0.974095
C49	C	1.563415	-0.348096	-1.083817
C50	C	1.422144	-0.454721	-1.090569
C51	C	1.422120	-0.454752	-0.980849
C52	C	1.607336	-0.249733	-1.227523
C53	C	1.677995	-0.196414	-1.279008
C54	C	1.781328	-0.183631	-1.242603
C55	C	1.814021	-0.224181	-1.154717
C56	C	1.743366	-0.277506	-1.103238
C57	C	1.640020	-0.290273	-1.139640
C58	C	1.378210	-0.553115	-0.837141
C59	C	1.307560	-0.606446	-0.785661
C60	C	1.204225	-0.619237	-0.822064
C61	C	1.171535	-0.578702	-0.909955
C62	C	1.242185	-0.525371	-0.961435
C63	C	1.345519	-0.512579	-0.925025
C64	C	1.492613	-0.401592	-0.258846
C65	C	1.492796	-0.401391	-0.142057
H66	H	0.899913	-0.304985	-0.647807
H67	H	1.405148	-0.916054	-0.619284
N68	N	1.594777	-0.877217	-0.429840
N69	N	1.587232	-0.886943	-0.333502
H70	H	1.637659	-0.855457	-0.283068
H71	H	0.982094	-0.492245	-0.266070
N72	N	1.097061	-0.509232	-0.402622
N73	N	1.154885	-0.562390	-0.442851
H74	H	1.191958	-0.600817	-0.396748
H75	H	1.004218	-0.310873	-0.797573
N76	N	1.208817	-0.483966	-1.051225
N77	N	1.271912	-0.436364	-1.097188
H78	H	1.248351	-0.407128	-1.160609
N79	N	1.361164	-0.155339	-0.652402
N80	N	1.392167	-0.166691	-0.561558
H81	H	1.459293	-0.137433	-0.534242
N82	N	1.635546	-0.293690	-0.914626
N83	N	1.698614	-0.246080	-0.960610
H84	H	1.749572	-0.207627	-0.918613
N85	N	1.065979	-0.591777	-0.947138
N86	N	1.002909	-0.639393	-0.901165
H87	H	0.928358	-0.648633	-0.927424
N88	N	0.743073	-0.540188	-0.540415
N89	N	0.731806	-0.600317	-0.605857
H90	H	0.706749	-0.591168	-0.679263
H91	H	1.838859	-0.140217	-1.284530
N92	N	0.883492	-0.591506	-0.129052
N93	N	0.970820	-0.621085	-0.115306
H94	H	0.995884	-0.630253	-0.041907
H95	H	1.769986	-0.310524	-1.031686
H96	H	1.898168	-0.213774	-1.125089
H97	H	1.236086	-0.260377	-0.544332
N98	N	1.290963	-0.129637	-0.858076
N99	N	1.374041	-0.093425	-0.824277
H100	H	1.416116	-0.054991	-0.870364
H101	H	1.651367	-0.163398	-1.350565
N102	N	1.501779	-0.262767	-1.264713
N103	N	1.472612	-0.226562	-1.343183
H104	H	1.398061	-0.235767	-1.369453
H105	H	1.146705	-0.662670	-0.780145
H106	H	1.364641	-0.498112	-1.137997
H107	H	1.334189	-0.639459	-0.714103
N108	N	1.483763	-0.540031	-0.799943
N109	N	1.501195	-0.510452	-0.708826
H110	H	1.575742	-0.501211	-0.682554
N111	N	0.695357	-0.673480	-0.205547
N112	N	0.612273	-0.709683	-0.239344
H113	H	0.570181	-0.748099	-0.193248
H114	H	0.644448	-0.639416	-0.403388
H115	H	1.110040	-0.214252	-0.913504
