data_functionalizedCrystal
_audit_creation_method	'MofGen! by Chris Wilmer'
_symmetry_space_group_name_H-M	'P1'
_symmetry_Int_Tables_number	1
_symmetry_cell_setting	triclinic
loop_
_symmetry_equiv_pos_as_xyz
  x,y,z
_cell_length_a	10.968094
_cell_length_b	9.065218
_cell_length_c	8.140239
_cell_angle_alpha	89.998670
_cell_angle_beta	77.874022
_cell_angle_gamma	95.141400
loop_
_atom_site_label
_atom_site_type_symbol
_atom_site_fract_x
_atom_site_fract_y
_atom_site_fract_z
O1	O	1.657973	-0.206897	-0.332715
O2	O	1.294912	-0.226714	-0.229941
O3	O	1.483947	-0.002121	-0.283455
O4	O	1.468938	-0.431491	-0.279200
O5	O	1.483941	-0.002119	-0.556681
O6	O	1.294906	-0.226713	-0.503166
O7	O	1.657967	-0.206895	-0.605940
Zn8	Zn	1.476435	-0.216804	-0.597933
Zn9	Zn	1.476443	-0.216806	-0.237947
O10	O	1.468932	-0.431489	-0.552425
C11	C	1.248405	-0.225273	-0.353389
C12	C	1.109837	-0.220964	-0.314164
C13	C	0.904833	-0.214573	-0.397663
C14	C	1.048049	-0.219037	-0.438221
C15	C	1.482501	0.052859	-0.419657
C16	C	1.478188	0.216677	-0.418428
C17	C	1.704474	-0.208337	-0.482488
C18	C	1.843041	-0.212646	-0.521702
C19	C	1.470377	-0.486469	-0.416220
C20	C	1.474690	-0.650287	-0.417438
N21	N	1.476439	-0.216802	-0.843617
N22	N	1.476450	-0.216797	0.007734
H23	H	1.056719	-0.219310	-0.177933
C24	C	0.834110	-0.212071	-0.215996
C25	C	0.878290	-0.086326	-0.138607
C26	C	0.813163	-0.083965	0.028742
H27	H	0.846804	-0.298527	-0.158169
H28	H	0.747261	-0.209285	-0.212803
H29	H	0.965118	-0.089125	-0.141789
H30	H	0.865595	0.000150	-0.196384
H31	H	0.726314	-0.081179	0.031935
H32	H	0.825862	-0.170427	0.086553
H33	H	0.843122	0.001358	0.081267
H34	H	1.101169	-0.220686	-0.574451
H35	H	0.896166	-0.214295	-0.657923
