data_functionalizedCrystal
_audit_creation_method	'MofGen! by Chris Wilmer'
_symmetry_space_group_name_H-M	'P1'
_symmetry_Int_Tables_number	1
_symmetry_cell_setting	triclinic
loop_
_symmetry_equiv_pos_as_xyz
  x,y,z
_cell_length_a	6.817900
_cell_length_b	19.453103
_cell_length_c	19.453114
_cell_angle_alpha	96.316406
_cell_angle_beta	101.709288
_cell_angle_gamma	101.709178
loop_
_atom_site_label
_atom_site_type_symbol
_atom_site_fract_x
_atom_site_fract_y
_atom_site_fract_z
V1	V	-3.997997	-0.097914	-0.219328
O2	O	-3.995098	0.003953	-0.214817
O3	O	-3.941017	-0.193423	-0.218151
O4	O	-3.941018	-0.096738	-0.314837
O5	O	-3.995097	-0.093402	-0.117462
V6	V	-4.483849	-0.085690	-0.207105
O7	O	-4.254148	-0.124727	-0.246141
O8	O	-4.677895	-0.058877	-0.180292
O9	O	-4.317623	0.009819	-0.208282
O10	O	-4.604145	-0.187557	-0.211616
O11	O	-4.604146	-0.090202	-0.308971
O12	O	-4.317621	-0.086866	-0.111596
C13	C	-3.784208	-0.216695	-0.214774
C14	C	-3.818849	-0.294777	-0.214449
C15	C	-4.016582	-0.335044	-0.217808
C16	C	-4.049135	-0.408411	-0.217509
C17	C	-3.883937	-0.441507	-0.213837
C18	C	-3.686178	-0.401231	-0.210481
C19	C	-3.653634	-0.327867	-0.210787
N20	N	-3.779057	-0.547627	-0.170551
N21	N	-3.809984	-0.617320	-0.170259
C22	C	-3.981979	-0.662551	-0.212916
N23	N	-4.121905	-0.635454	-0.255867
N24	N	-4.090980	-0.565754	-0.256156
C25	C	-3.919205	-0.521058	-0.213505
C26	C	-4.215023	-0.782371	-0.215953
C27	C	-4.247572	-0.855741	-0.215658
C28	C	-3.884605	-0.848558	-0.208622
C29	C	-3.852066	-0.775191	-0.208924
C30	C	-4.017281	-0.742102	-0.212586
C31	C	-3.784208	-0.093363	-0.338106
C32	C	-3.818848	-0.093034	-0.416187
C33	C	-4.016587	-0.096405	-0.456456
C34	C	-4.049136	-0.096095	-0.529822
C35	C	-3.883941	-0.092429	-0.562918
C36	C	-3.686172	-0.089054	-0.522640
C37	C	-3.653625	-0.089356	-0.449274
N38	N	-3.820865	-0.129523	-0.681832
N39	N	-3.851796	-0.129237	-0.751526
C40	C	-3.981989	-0.091516	-0.783963
N41	N	-4.080118	-0.054100	-0.744075
N42	N	-4.049192	-0.054389	-0.674375
C43	C	-3.919211	-0.092100	-0.642470
C44	C	-4.215033	-0.094550	-0.903783
C45	C	-4.247572	-0.094236	-0.977150
C46	C	-3.884605	-0.087202	-0.969967
C47	C	-3.852068	-0.087509	-0.896601
C48	C	-4.017291	-0.091187	-0.863515
C49	C	-4.137773	0.033088	-0.211656
C50	C	-4.082370	0.111169	-0.211986
C51	C	-4.137773	-0.090243	-0.088323
C52	C	-4.082372	-0.090569	-0.010241
H53	H	-4.210158	-0.441203	-0.220245
H54	H	-3.492597	-0.086606	-0.416487
O55	O	-3.660082	-0.736058	-0.205775
C56	C	-3.444521	-0.658754	-0.263172
C57	C	-3.662037	-0.703058	-0.266836
H58	H	-3.446039	-0.632049	-0.312526
H59	H	-3.331959	-0.694980	-0.260538
H60	H	-3.394561	-0.616392	-0.213706
H61	H	-3.712189	-0.745423	-0.316298
H62	H	-3.774468	-0.666786	-0.269431
H63	H	-3.492614	-0.295081	-0.208052
H64	H	-3.750096	-0.084210	-0.996913
O65	O	-4.375305	-0.098017	-0.871542
C66	C	-4.517451	-0.041256	-0.783173
C67	C	-4.335784	-0.037249	-0.819611
H68	H	-4.485582	0.007876	-0.741189
H69	H	-4.536986	-0.090952	-0.756819
H70	H	-4.664362	-0.043639	-0.824578
H71	H	-4.188769	-0.034839	-0.778250
H72	H	-4.316431	0.012440	-0.845980
O73	O	-4.439624	-0.097602	-1.016357
C74	C	-4.718871	-0.162533	-1.113063
C75	C	-4.501344	-0.158800	-1.068728
H76	H	-4.768855	-0.212016	-1.155405
H77	H	-4.717569	-0.113189	-1.139777
H78	H	-4.831295	-0.165179	-1.076788
H79	H	-4.388797	-0.156177	-1.104954
H80	H	-4.502814	-0.208143	-1.042006
H81	H	-3.551675	-0.428183	-0.207492
H82	H	-4.151127	-0.099397	-0.429521
O83	O	-4.241139	-0.099251	-0.568955
C84	C	-4.456756	-0.041871	-0.646260
C85	C	-4.239225	-0.038195	-0.601962
H86	H	-4.455271	0.007479	-0.672969
H87	H	-4.569305	-0.044508	-0.610029
H88	H	-4.506710	-0.091341	-0.688618
H89	H	-4.189080	0.011270	-0.559600
H90	H	-4.126807	-0.035597	-0.638238
H91	H	-4.349551	-0.755428	-0.218933
O92	O	-4.439520	-0.894912	-0.218816
C93	C	-4.655090	-0.972124	-0.161344
C94	C	-4.437599	-0.927807	-0.157691
H95	H	-4.653618	-0.998719	-0.111924
H96	H	-4.705178	-1.014562	-0.210753
H97	H	-4.767532	-0.935854	-0.164042
H98	H	-4.325007	-0.964020	-0.154966
H99	H	-4.387683	-0.885363	-0.108290
O100	O	-4.176953	-0.302836	-0.221465
C101	C	-4.382744	-0.233948	-0.287086
C102	C	-4.201054	-0.270381	-0.283020
H103	H	-4.402315	-0.207711	-0.336857
H104	H	-4.350909	-0.191871	-0.238031
H105	H	-4.529625	-0.275341	-0.289402
H106	H	-4.054095	-0.229041	-0.280727
H107	H	-4.233066	-0.312471	-0.332074
H108	H	-3.750099	-0.875504	-0.205636
H109	H	-3.551669	-0.086066	-0.549591
H110	H	-3.691053	-0.084771	-0.863815
