data_functionalizedCrystal
_audit_creation_method	'MofGen! by Chris Wilmer'
_symmetry_space_group_name_H-M	'P1'
_symmetry_Int_Tables_number	1
_symmetry_cell_setting	triclinic
loop_
_symmetry_equiv_pos_as_xyz
  x,y,z
_cell_length_a	16.974885
_cell_length_b	11.026607
_cell_length_c	16.053811
_cell_angle_alpha	93.134322
_cell_angle_beta	91.068968
_cell_angle_gamma	95.963696
loop_
_atom_site_label
_atom_site_type_symbol
_atom_site_fract_x
_atom_site_fract_y
_atom_site_fract_z
O1	O	1.071029	0.154796	0.002873
O2	O	1.571029	0.654796	0.502873
O3	O	0.844206	0.173374	-0.012440
O4	O	1.344206	0.673374	0.487560
O5	O	0.938818	-0.012629	-0.006050
O6	O	1.438818	0.487371	0.493950
O7	O	0.976417	0.340799	-0.003517
O8	O	1.476417	0.840799	0.496483
O9	O	0.933604	-0.002432	0.132457
O10	O	1.433604	0.497568	0.632457
O11	O	0.838991	0.183570	0.126067
O12	O	1.338991	0.683570	0.626067
O13	O	1.065815	0.164993	0.141380
O14	O	1.565815	0.664993	0.641380
Zn15	Zn	0.951575	0.175901	0.155714
Zn16	Zn	1.451575	0.675901	0.655714
Zn17	Zn	0.958445	0.162466	-0.026774
Zn18	Zn	1.458445	0.662466	0.473226
O19	O	0.971202	0.350996	0.134989
O20	O	1.471202	0.850996	0.634989
C21	C	0.812109	0.177577	0.054822
C22	C	1.312109	0.677577	0.554822
C23	C	0.724237	0.174897	0.048890
C24	C	1.224237	0.674897	0.548890
C25	C	0.229915	0.159170	0.007335
C26	C	0.729915	0.659170	0.507335
C27	C	0.312480	0.161689	0.012920
C28	C	0.812480	0.661689	0.512920
C29	C	0.350913	0.168516	0.091214
C30	C	0.850913	0.668516	0.591214
C31	C	0.306775	0.172812	0.163927
C32	C	0.806775	0.672812	0.663927
C33	C	0.224211	0.170284	0.158340
C34	C	0.724211	0.670284	0.658340
C35	C	0.597535	0.176665	0.116017
C36	C	1.097535	0.676665	0.616017
C37	C	0.680105	0.179196	0.121597
C38	C	1.180105	0.679196	0.621597
C39	C	0.685805	0.168071	-0.029410
C40	C	1.185805	0.668071	0.470590
C41	C	0.603239	0.165551	-0.034989
C42	C	1.103239	0.665551	0.465011
C43	C	0.559109	0.169841	0.037724
C44	C	1.059109	0.669841	0.537724
N45	N	0.435307	0.171095	0.096925
N46	N	0.935307	0.671095	0.596925
N47	N	0.474715	0.167253	0.032012
N48	N	0.974715	0.667253	0.532012
C49	C	0.929275	-0.052764	0.062734
C50	C	1.429275	0.447236	0.562734
C51	C	0.908598	-0.187546	0.061336
C52	C	1.408598	0.312454	0.561336
C53	C	0.965691	-0.261166	0.065189
C54	C	1.465691	0.238834	0.565189
C55	C	0.944322	-0.400470	0.063743
C56	C	1.444322	0.099530	0.563743
C57	C	1.097912	0.160789	0.074115
C58	C	1.597912	0.660789	0.574115
C59	C	1.185784	0.163469	0.080042
C60	C	1.685784	0.663469	0.580042
C61	C	0.980745	0.391131	0.066203
C62	C	1.480745	0.891131	0.566203
C63	C	1.001422	0.525912	0.067597
C64	C	1.501422	1.025912	0.567597
N65	N	0.946892	0.185069	0.280258
N66	N	1.446892	0.685069	0.780258
C67	C	0.987172	0.105953	0.326673
C68	C	1.487172	0.605953	0.826673
C69	C	0.983905	0.112378	0.413859
C70	C	1.483905	0.612378	0.913859
C71	C	0.940362	0.197925	0.454629
C72	C	1.440362	0.697925	0.954629
C73	C	0.900077	0.277044	0.408208
C74	C	1.400077	0.777044	0.908208
C75	C	0.903340	0.270613	0.321023
C76	C	1.403340	0.770613	0.821023
C77	C	0.926105	0.225983	0.715076
C78	C	1.426105	0.725983	1.215076
C79	C	0.922848	0.232411	0.802267
C80	C	1.422848	0.732411	1.302267
C81	C	1.006675	0.067742	0.807912
C82	C	1.506675	0.567742	1.307912
C83	C	1.009938	0.061323	0.720725
C84	C	1.509938	0.561323	1.220725
C85	C	0.969649	0.140438	0.674312
C86	C	1.469649	0.640438	1.174312
N87	N	0.937024	0.204497	0.543747
N88	N	1.437024	0.704497	1.043747
N89	N	0.972984	0.133860	0.585195
N90	N	1.472984	0.633860	1.085195
N91	N	0.963128	0.153295	0.848681
N92	N	1.463128	0.653295	1.348681
H93	H	0.198630	0.153619	-0.056420
H94	H	0.698630	0.653619	0.443580
H95	H	1.045395	-0.008336	0.687532
H96	H	1.545395	0.491664	1.187532
H97	H	0.879619	-0.440567	0.059369
H98	H	1.379619	0.059433	0.559369
H99	H	1.016704	0.047955	0.451649
H100	H	1.516704	0.547955	0.951649
O101	O	1.029480	0.022744	0.287202
O102	O	1.529480	0.522744	0.787202
C103	C	1.064346	-0.045688	0.346870
C104	C	1.564346	0.454312	0.846870
H105	H	1.029494	-0.042606	0.406830
H106	H	1.529494	0.457394	0.906830
H107	H	1.063566	-0.144454	0.321572
H108	H	1.563566	0.355546	0.821572
H109	H	1.128170	-0.005340	0.360458
H110	H	1.628170	0.494660	0.860458
H111	H	1.030390	-0.221063	0.069562
H112	H	1.530390	0.278937	0.569562
O113	O	1.078591	-0.426134	0.072696
O114	O	1.578591	0.073866	0.572696
C115	C	1.096654	-0.359016	0.001989
C116	C	1.596654	0.140984	0.501989
H117	H	1.039848	-0.329558	-0.025822
H118	H	1.539848	0.170442	0.474178
H119	H	1.139179	-0.274729	0.021035
H120	H	1.639179	0.225271	0.521035
H121	H	1.125542	-0.418484	-0.046419
H122	H	1.625542	0.081516	0.453581
O123	O	0.355232	0.157555	-0.057790
O124	O	0.855232	0.657555	0.442210
C125	C	0.303605	0.150961	-0.128091
C126	C	0.803605	0.650961	0.371909
H127	H	0.246102	0.189201	-0.109792
H128	H	0.746102	0.689201	0.390208
H129	H	0.332806	0.206684	-0.179062
H130	H	0.832806	0.706684	0.320938
H131	H	0.290161	0.051671	-0.152267
H132	H	0.790161	0.551671	0.347733
O133	O	0.554797	0.180908	0.186730
O134	O	1.054797	0.680908	0.686730
C135	C	0.606425	0.187453	0.257028
C136	C	1.106425	0.687453	0.757028
H137	H	0.668298	0.226023	0.239014
H138	H	1.168298	0.726023	0.739014
H139	H	0.583928	0.249507	0.308442
H140	H	1.083928	0.749507	0.808442
H141	H	0.608797	0.092124	0.280472
H142	H	1.108797	0.592124	0.780472
H143	H	1.039476	0.003329	0.845709
H144	H	1.539476	0.503329	1.345709
H145	H	0.887388	0.302079	0.835458
H146	H	1.387388	0.802079	1.335458
H147	H	0.721744	0.164578	-0.088608
H148	H	1.221744	0.664578	0.411392
H149	H	0.338073	0.178363	0.227675
H150	H	0.838073	0.678363	0.727675
H151	H	0.893302	0.290404	0.677292
H152	H	1.393302	0.790404	1.177292
O153	O	0.831444	-0.235526	0.056013
O154	O	1.331444	0.264474	0.556013
C155	C	0.818787	-0.313197	-0.016771
C156	C	1.318787	0.186803	0.483229
H157	H	0.877396	-0.346167	-0.036791
H158	H	1.377396	0.153833	0.463209
H159	H	0.775050	-0.395114	-0.003553
H160	H	1.275050	0.104886	0.496447
H161	H	0.793680	-0.261119	-0.068823
H162	H	1.293680	0.238881	0.431177
H163	H	0.864618	0.346695	0.441408
H164	H	1.364618	0.846695	0.941408
H165	H	0.188281	0.173797	0.217547
H166	H	0.688281	0.673797	0.717547
H167	H	0.870538	0.335036	0.283233
H168	H	1.370538	0.835036	0.783233
H169	H	0.571954	0.159991	-0.098744
H170	H	1.071954	0.659991	0.401256
H171	H	0.711395	0.184764	0.185357
H172	H	1.211395	0.684764	0.685357
