data_functionalizedCrystal
_audit_creation_method	'MofGen! by Chris Wilmer'
_symmetry_space_group_name_H-M	'P1'
_symmetry_Int_Tables_number	1
_symmetry_cell_setting	triclinic
loop_
_symmetry_equiv_pos_as_xyz
  x,y,z
_cell_length_a	10.654562
_cell_length_b	10.489716
_cell_length_c	9.730223
_cell_angle_alpha	90.002678
_cell_angle_beta	89.996961
_cell_angle_gamma	84.509620
loop_
_atom_site_label
_atom_site_type_symbol
_atom_site_fract_x
_atom_site_fract_y
_atom_site_fract_z
O1	O	1.667893	0.179236	-0.114367
O2	O	1.302423	0.196288	-0.114349
O3	O	1.493490	0.002158	-0.114363
O4	O	1.476826	0.373365	-0.114352
O5	O	1.493488	0.002163	0.114217
O6	O	1.302421	0.196293	0.114231
O7	O	1.667891	0.179240	0.114213
Zn8	Zn	1.485156	0.187768	0.150514
Zn9	Zn	1.485158	0.187761	-0.150650
O10	O	1.476824	0.373370	0.114228
C11	C	1.255624	0.195035	-0.000056
C12	C	1.116180	0.191279	-0.000050
C13	C	1.050647	0.189530	0.124538
C14	C	0.919624	0.186010	0.124515
C15	C	0.919676	0.185995	-0.124695
C16	C	1.050699	0.189506	-0.124671
C17	C	1.116129	0.191303	0.249159
C18	C	1.050596	0.189555	0.373757
C19	C	0.919572	0.186036	0.373734
C20	C	0.854082	0.184265	0.249113
C21	C	1.492237	-0.045371	-0.000077
C22	C	1.488491	-0.187000	-0.000090
C23	C	1.605659	-0.284725	-0.000083
C24	C	1.543746	-0.362061	-0.112778
C25	C	1.543717	-0.362020	0.112584
C26	C	1.426627	-0.262471	-0.112878
C27	C	1.426615	-0.262424	0.112585
C28	C	1.364615	-0.339711	-0.000137
C29	C	1.714690	0.180493	-0.000082
C30	C	1.854134	0.184250	-0.000098
C31	C	1.478077	0.420899	-0.000061
C32	C	1.481823	0.562529	-0.000058
N33	N	1.485163	0.187771	0.356051
N34	N	1.485161	0.187747	-0.356186
C35	C	1.569789	0.101840	0.427970
C36	C	1.569786	0.101824	0.571853
C37	C	1.400526	0.273683	0.571884
C38	C	1.400524	0.273691	0.428004
C39	C	1.654428	0.015920	0.356017
C40	C	1.739062	-0.070017	0.427937
C41	C	1.739059	-0.070033	0.571820
C42	C	1.654421	0.015889	0.643783
H43	H	1.104056	0.190936	-0.226121
H44	H	0.747394	0.181396	0.249104
H45	H	1.103928	0.190988	0.475219
F46	F	1.310450	0.365147	0.351461
F47	F	1.829125	-0.161466	0.351348
H48	H	1.331618	0.343638	0.630486
H49	H	1.593202	-0.405512	0.207857
H50	H	1.377196	-0.218883	0.207871
H51	H	1.654417	0.015861	0.760942
H52	H	1.222814	0.194173	0.249192
H53	H	1.707576	-0.260093	-0.000202
F54	F	0.849832	0.184166	0.506340
F55	F	0.849973	0.184102	-0.257316
H56	H	1.593208	-0.405580	-0.208061
H57	H	1.377193	-0.219147	-0.208259
H58	H	1.262622	-0.364097	-0.000193
H59	H	1.654441	0.015927	0.238860
F60	F	1.829122	-0.161502	0.648360
