data_functionalizedCrystal
_audit_creation_method	'MofGen! by Chris Wilmer'
_symmetry_space_group_name_H-M	'P1'
_symmetry_Int_Tables_number	1
_symmetry_cell_setting	triclinic
loop_
_symmetry_equiv_pos_as_xyz
  x,y,z
_cell_length_a	29.839131
_cell_length_b	29.839134
_cell_length_c	25.639233
_cell_angle_alpha	89.986665
_cell_angle_beta	89.980415
_cell_angle_gamma	90.021992
loop_
_atom_site_label
_atom_site_type_symbol
_atom_site_fract_x
_atom_site_fract_y
_atom_site_fract_z
Zn1	Zn	-0.179141	0.686725	-0.295616
Zn2	Zn	-0.254255	0.686655	-0.208179
Zn3	Zn	-0.179115	0.611606	-0.208193
Zn4	Zn	-0.254219	0.611555	-0.295582
O5	O	-0.216683	0.649135	-0.251893
O6	O	-0.189131	0.749582	-0.284025
O7	O	-0.244292	0.676692	-0.135016
O8	O	-0.116251	0.621621	-0.219810
O9	O	-0.244317	0.749532	-0.219786
O10	O	-0.116270	0.676810	-0.284039
O11	O	-0.189086	0.621554	-0.135026
O12	O	-0.189051	0.548732	-0.219778
O13	O	-0.244256	0.621534	-0.368752
O14	O	-0.244230	0.548695	-0.283982
O15	O	-0.189096	0.676761	-0.368777
O16	O	-0.317118	0.676643	-0.219753
O17	O	-0.317091	0.621467	-0.283968
C18	C	-0.216634	0.532413	-0.251878
C19	C	-0.216625	0.482478	-0.251884
C20	C	-0.188007	0.125913	-0.285408
C21	C	-0.187971	0.313587	-0.285396
O22	O	-0.163582	0.337870	-0.313897
N23	N	-0.216654	0.337033	-0.251897
C24	C	-0.245350	0.313558	-0.218400
O25	O	-0.269750	0.337807	-0.189911
C26	C	-0.245388	0.125886	-0.218416
C27	C	-0.216700	0.102442	-0.251913
C28	C	-0.159321	0.102469	-0.318903
C29	C	-0.159329	0.055554	-0.318904
C30	C	-0.188022	0.032083	-0.285409
C31	C	-0.216708	0.055527	-0.251914
C32	C	-0.274087	0.102413	-0.184922
C33	C	-0.274095	0.055492	-0.184930
C34	C	-0.245406	0.032047	-0.218428
C35	C	-0.245409	-0.014860	-0.218420
N36	N	-0.216725	-0.038307	-0.251919
C37	C	-0.188032	-0.014835	-0.285414
C38	C	-0.245328	0.412089	-0.218394
C39	C	-0.245318	0.459007	-0.218390
C40	C	-0.187939	0.459032	-0.285386
C41	C	-0.187947	0.412113	-0.285388
C42	C	-0.216645	0.388643	-0.251893
C43	C	-0.188050	-0.113361	-0.285412
C44	C	-0.188059	-0.160281	-0.285409
C45	C	-0.245439	-0.160301	-0.218414
C46	C	-0.245429	-0.113386	-0.218416
C47	C	-0.216733	-0.089917	-0.251919
O48	O	-0.269788	-0.039173	-0.189938
O49	O	-0.163644	-0.039092	-0.313907
C50	C	-0.187999	0.172829	-0.285407
C51	C	-0.216685	0.196273	-0.251912
C52	C	-0.245378	0.172802	-0.218417
C53	C	-0.216675	0.243191	-0.251907
C54	C	-0.187982	0.266662	-0.285402
C55	C	-0.159299	0.243216	-0.318901
C56	C	-0.159306	0.196300	-0.318902
C57	C	-0.274061	0.196248	-0.184918
C58	C	-0.274051	0.243164	-0.184920
C59	C	-0.245358	0.266635	-0.218414
C60	C	-0.333405	0.649054	-0.251867
C61	C	-0.383339	0.649060	-0.251873
C62	C	-0.692984	0.677917	-0.218505
C63	C	-0.880657	0.677973	-0.218525
O64	O	-0.904923	0.702444	-0.190134
N65	N	-0.904125	0.649228	-0.251932
C66	C	-0.880671	0.620470	-0.285339
O67	O	-0.904938	0.596026	-0.313758
C68	C	-0.692999	0.620417	-0.285321
C69	C	-0.669534	0.649160	-0.251908
C70	C	-0.669519	0.706659	-0.185095
C71	C	-0.622604	0.706643	-0.185088
C72	C	-0.599153	0.677886	-0.218491
C73	C	-0.622618	0.649144	-0.251901
C74	C	-0.669546	0.591661	-0.318730
C75	C	-0.622625	0.591652	-0.318723
C76	C	-0.599160	0.620395	-0.285310
C77	C	-0.552252	0.620371	-0.285297
N78	N	-0.528785	0.649116	-0.251890
C79	C	-0.552235	0.677873	-0.218487
C80	C	-0.979201	0.620499	-0.285345
C81	C	-1.026119	0.620512	-0.285349
C82	C	-1.026102	0.678015	-0.218536
C83	C	-0.979184	0.678000	-0.218530
C84	C	-0.955734	0.649244	-0.251938
C85	C	-0.453710	0.677837	-0.218475
C86	C	-0.406790	0.677818	-0.218470
C87	C	-0.406811	0.620316	-0.285285
C88	C	-0.453726	0.620334	-0.285289
C89	C	-0.477175	0.649098	-0.251882
O90	O	-0.527958	0.595917	-0.313678
O91	O	-0.527961	0.702321	-0.190081
C92	C	-0.739900	0.677933	-0.218512
C93	C	-0.763365	0.649192	-0.251921
C94	C	-0.739914	0.620435	-0.285324
C95	C	-0.810282	0.649205	-0.251925
C96	C	-0.833733	0.677962	-0.218522
C97	C	-0.810265	0.706706	-0.185115
C98	C	-0.763350	0.706690	-0.185109
C99	C	-0.763382	0.591690	-0.318731
C100	C	-0.810297	0.591708	-0.318735
C101	C	-0.833747	0.620465	-0.285332
C102	C	-0.099504	0.649229	-0.251930
C103	C	-0.049570	0.649269	-0.251946
C104	C	-0.216675	0.649150	-0.388266
C105	C	-0.216671	0.649156	-0.446380
C106	C	-0.216731	0.766314	-0.251908
C107	C	-0.216752	0.816248	-0.251914
C108	C	-0.187864	0.677949	-0.806762
C109	C	-0.187852	0.677954	-0.861366
O110	O	-0.163412	0.702399	-0.889618
N111	N	-0.216566	0.649205	-0.888663
C112	C	-0.245291	0.620446	-0.861352
O113	O	-0.269713	0.595993	-0.889584
C114	C	-0.245301	0.620438	-0.806749
C115	C	-0.216588	0.649192	-0.779455
C116	C	-0.159154	0.706700	-0.779468
C117	C	-0.159167	0.706695	-0.724867
C118	C	-0.187891	0.677939	-0.697560
C119	C	-0.216601	0.649187	-0.724854
C120	C	-0.274024	0.591677	-0.779439
C121	C	-0.274031	0.591671	-0.724832
C122	C	-0.245318	0.620426	-0.697538
C123	C	-0.245338	0.620426	-0.642947
N124	N	-0.216624	0.649175	-0.615650
C125	C	-0.187900	0.677931	-0.642957
C126	C	-0.245268	0.620463	-0.976023
C127	C	-0.245261	0.620472	-1.030625
C128	C	-0.187821	0.677981	-1.030635
C129	C	-0.187830	0.677973	-0.976032
C130	C	-0.216554	0.649212	-0.948726
C131	C	-0.187930	0.677919	-0.528292
C132	C	-0.187947	0.677912	-0.473686
C133	C	-0.245385	0.620403	-0.473681
C134	C	-0.245370	0.620410	-0.528282
C135	C	-0.216639	0.649170	-0.555586
O136	O	-0.269764	0.595992	-0.614660
O137	O	-0.163478	0.702376	-0.614718
C138	C	-0.216658	0.649147	-0.116050
C139	C	-0.216535	0.649228	-0.057936
H140	H	-0.297428	0.177143	-0.157642
O141	O	-1.048893	0.706025	-0.186180
C142	C	-1.101809	0.766719	-0.179289
C143	C	-1.076026	0.735017	-0.215974
H144	H	-1.123760	0.790161	-0.203361
H145	H	-1.076987	0.787298	-0.155440
H146	H	-1.123794	0.746143	-0.151898
H147	H	-1.054041	0.755558	-0.243396
H148	H	-1.100872	0.714436	-0.239786
H149	H	-0.387686	0.701224	-0.191260
O150	O	-0.273265	-0.183085	-0.185806
C151	C	-0.294994	-0.197456	-0.096832
C152	C	-0.263443	-0.171632	-0.133697
H153	H	-0.287071	-0.188198	-0.054695
H154	H	-0.290070	-0.235021	-0.102547
H155	H	-0.331225	-0.188241	-0.105970
H156	H	-0.227200	-0.180809	-0.124582
H157	H	-0.268406	-0.134073	-0.127976
H158	H	-0.164683	-0.094258	-0.312694
H159	H	-0.297466	0.036384	-0.157656
O160	O	-0.476542	0.592362	-0.317667
C161	C	-0.529574	0.531740	-0.324653
C162	C	-0.503761	0.563379	-0.287920
H163	H	-0.551594	0.508305	-0.300618
H164	H	-0.504771	0.511150	-0.348514
H165	H	-0.551491	0.552366	-0.352030
H166	H	-0.481843	0.542787	-0.260511
H167	H	-0.528589	0.583970	-0.264096
O168	O	-0.131311	0.734658	-0.806047
C169	C	-0.125278	0.795351	-0.867668
C170	C	-0.156859	0.763706	-0.837613
H171	H	-0.145921	0.818850	-0.893187
H172	H	-0.101778	0.774775	-0.893269
H173	H	-0.104751	0.815874	-0.838764
H174	H	-0.177416	0.743175	-0.866479
H175	H	-0.180330	0.784307	-0.812004
O176	O	-0.131426	0.173599	-0.351494
C177	C	-0.074495	0.178593	-0.417923
C178	C	-0.106055	0.204353	-0.381045
H179	H	-0.053968	0.203447	-0.441816
H180	H	-0.095135	0.156643	-0.445258
H181	H	-0.050995	0.156614	-0.393964
H182	H	-0.129561	0.226357	-0.404961
H183	H	-0.085387	0.226275	-0.353708
O184	O	-0.273224	0.481708	-0.185829
C185	C	-0.330120	0.476719	-0.119360
C186	C	-0.298543	0.450956	-0.156215
H187	H	-0.350592	0.451867	-0.095399
H188	H	-0.353668	0.498674	-0.143287
H189	H	-0.309452	0.498694	-0.092082
H190	H	-0.319176	0.428957	-0.183500
H191	H	-0.274994	0.429030	-0.132255
H192	H	-0.829398	0.568298	-0.345943
H193	H	-0.268698	0.392984	-0.191117
H194	H	-0.268785	-0.094297	-0.191135
H195	H	-1.045220	0.597102	-0.312552
O196	O	-0.273200	0.592458	-0.554854
C197	C	-0.279195	0.531776	-0.616457
C198	C	-0.247633	0.563417	-0.586413
H199	H	-0.258536	0.508283	-0.641971
H200	H	-0.302683	0.552354	-0.642062
H201	H	-0.299737	0.511245	-0.587546
H202	H	-0.227062	0.583955	-0.615286
H203	H	-0.224174	0.542813	-0.560800
H204	H	-0.135934	0.262334	-0.346172
H205	H	-0.297448	0.121493	-0.157645
H206	H	-0.268660	0.597042	-0.953794
O207	O	-0.131450	0.032853	-0.351497
C208	C	-0.074521	0.037847	-0.417928
C209	C	-0.106079	0.063607	-0.381048
H210	H	-0.053994	0.062700	-0.441822
H211	H	-0.095162	0.015898	-0.445263
H212	H	-0.051020	0.015867	-0.393971
H213	H	-0.129586	0.085611	-0.404963
H214	H	-0.085409	0.085528	-0.353712
O215	O	-0.740629	0.734656	-0.152637
C216	C	-0.745582	0.791674	-0.086347
C217	C	-0.771365	0.760030	-0.123104
H218	H	-0.770420	0.812190	-0.062452
H219	H	-0.723604	0.815176	-0.110346
H220	H	-0.723628	0.771054	-0.059003
H221	H	-0.793343	0.780614	-0.150456
H222	H	-0.793314	0.736527	-0.099072
H223	H	-0.135956	0.121575	-0.346182
H224	H	-0.164695	-0.179367	-0.312686
H225	H	-0.688643	0.568253	-0.345936
O226	O	-0.160091	0.705825	-0.447093
C227	C	-0.134619	0.731277	-0.362983
C228	C	-0.166199	0.699656	-0.393031
H229	H	-0.139540	0.726294	-0.319269
H230	H	-0.142514	0.767509	-0.373681
H231	H	-0.098396	0.723415	-0.373758
H232	H	-0.202433	0.707478	-0.382272
H233	H	-0.158265	0.663434	-0.382330
O234	O	-0.956495	0.592517	-0.317813
C235	C	-0.961476	0.535497	-0.384098
C236	C	-0.987243	0.567159	-0.347350
H237	H	-0.986324	0.514993	-0.407995
H238	H	-0.939548	0.511983	-0.360091
H239	H	-0.939474	0.556102	-0.411439
H240	H	-1.009270	0.546590	-0.320001
H241	H	-1.009143	0.590674	-0.371389
O242	O	-0.301963	0.265865	-0.152360
C243	C	-0.358863	0.260876	-0.085895
C244	C	-0.327281	0.235113	-0.122745
H245	H	-0.379334	0.236024	-0.061934
H246	H	-0.382411	0.282827	-0.109827
H247	H	-0.338198	0.282854	-0.058618
H248	H	-0.347910	0.213110	-0.150029
H249	H	-0.303732	0.213190	-0.098780
H250	H	-0.164449	0.701387	-0.953813
H251	H	-0.164586	0.393028	-0.312664
H252	H	-0.603534	0.568235	-0.345930
O253	O	-0.301873	0.563685	-0.698288
C254	C	-0.307915	0.503033	-0.636614
C255	C	-0.276331	0.534690	-0.666649
H256	H	-0.287278	0.479589	-0.611019
H257	H	-0.328424	0.482455	-0.665485
H258	H	-0.331432	0.523645	-0.611076
H259	H	-0.252787	0.514113	-0.692188
H260	H	-0.255855	0.555269	-0.637750
H261	H	-0.164533	0.701336	-0.550516
O262	O	-0.160110	0.481905	-0.317909
C263	C	-0.134660	0.554203	-0.347571
C264	C	-0.166200	0.528352	-0.310720
H265	H	-0.139566	0.591759	-0.341764
H266	H	-0.142609	0.545023	-0.389725
H267	H	-0.098428	0.544959	-0.338480
H268	H	-0.202443	0.537581	-0.319764
H269	H	-0.158212	0.537534	-0.268577
H270	H	-0.387710	0.596901	-0.312480
H271	H	-0.829367	0.730120	-0.157916
H272	H	-0.297404	0.568262	-0.801652
H273	H	-0.472795	0.701261	-0.191274
O274	O	-0.599883	0.734611	-0.152620
C275	C	-0.604835	0.791635	-0.086337
C276	C	-0.630618	0.759987	-0.123089
H277	H	-0.629674	0.812153	-0.062444
H278	H	-0.582860	0.815136	-0.110341
H279	H	-0.582880	0.771019	-0.058991
H280	H	-0.652598	0.780567	-0.150442
H281	H	-0.652566	0.736485	-0.099053
H282	H	-0.688608	0.730079	-0.157894
H283	H	-0.744292	0.568273	-0.345933
O284	O	-0.131229	0.734638	-0.698439
C285	C	-0.074271	0.791693	-0.704232
C286	C	-0.105884	0.760064	-0.734222
H287	H	-0.053778	0.812265	-0.733150
H288	H	-0.050745	0.771105	-0.678685
H289	H	-0.094913	0.815149	-0.678653
H290	H	-0.085277	0.736601	-0.759830
H291	H	-0.129411	0.780680	-0.759736
H292	H	-0.960081	0.701406	-0.191323
H293	H	-0.164431	0.701395	-1.052878
H294	H	-0.268646	0.597063	-1.052843
O295	O	-0.273243	0.592483	-0.447069
C296	C	-0.298725	0.567008	-0.362938
C297	C	-0.267149	0.598645	-0.393013
H298	H	-0.293816	0.571985	-0.319228
H299	H	-0.290815	0.530781	-0.373630
H300	H	-0.334948	0.574859	-0.373698
H301	H	-0.230915	0.590834	-0.382269
H302	H	-0.275098	0.634863	-0.382318
