data_functionalizedCrystal
_audit_creation_method	'MofGen! by Chris Wilmer'
_symmetry_space_group_name_H-M	'P1'
_symmetry_Int_Tables_number	1
_symmetry_cell_setting	triclinic
loop_
_symmetry_equiv_pos_as_xyz
  x,y,z
_cell_length_a	10.654550
_cell_length_b	15.944551
_cell_length_c	9.730223
_cell_angle_alpha	89.994648
_cell_angle_beta	89.999957
_cell_angle_gamma	83.991834
loop_
_atom_site_label
_atom_site_type_symbol
_atom_site_fract_x
_atom_site_fract_y
_atom_site_fract_z
O1	O	1.666313	0.117976	-0.114191
O2	O	2.166313	0.617976	0.385809
O3	O	1.300689	0.129216	-0.114216
O4	O	1.800689	0.629216	0.385784
O5	O	1.493485	0.001379	-0.114190
O6	O	1.993485	0.501379	0.385810
O7	O	1.473516	0.245813	-0.114216
O8	O	1.973516	0.745813	0.385784
O9	O	1.493473	0.001376	0.114390
O10	O	1.993473	0.501376	0.614390
O11	O	1.300676	0.129213	0.114364
O12	O	1.800676	0.629213	0.614364
O13	O	1.666300	0.117973	0.114389
O14	O	2.166300	0.617973	0.614389
Zn15	Zn	1.483486	0.123592	0.150669
Zn16	Zn	1.983486	0.623592	0.650669
Zn17	Zn	1.483503	0.123597	-0.150495
Zn18	Zn	1.983503	0.623597	0.349505
O19	O	1.473504	0.245810	0.114363
O20	O	1.973504	0.745810	0.614363
C21	C	1.253895	0.128389	0.000071
C22	C	1.753895	0.628389	0.500071
C23	C	1.114484	0.125920	0.000061
C24	C	1.614484	0.625920	0.500061
C25	C	1.492650	-0.029921	0.000100
C26	C	1.992650	0.470079	0.500100
C27	C	1.490165	-0.123182	0.000100
C28	C	1.990165	0.376818	0.500100
C29	C	1.034024	0.201189	0.000057
C30	C	1.534024	0.701189	0.500057
C31	C	0.903034	0.198863	0.000081
C32	C	1.403034	0.698863	0.500081
C33	C	0.932975	0.045995	0.000108
C34	C	1.432975	0.545995	0.500108
C35	C	1.063963	0.048321	0.000094
C36	C	1.563963	0.548321	0.500094
C37	C	1.364720	-0.338764	0.000073
C38	C	1.864720	0.161236	0.500073
C39	C	1.422966	-0.399446	0.112781
C40	C	1.922966	0.100554	0.612781
C41	C	1.485668	-0.293933	0.000090
C42	C	1.985668	0.206067	0.500090
C43	C	1.423007	-0.399426	-0.112581
C44	C	1.923007	0.100574	0.387419
C45	C	1.481317	-0.458871	0.000073
C46	C	1.981317	0.041129	0.500073
C47	C	1.543948	-0.353387	0.112890
C48	C	2.043948	0.146613	0.612890
C49	C	1.543972	-0.353360	-0.112573
C50	C	2.043972	0.146640	0.387427
C51	C	1.602306	-0.414024	0.000163
C52	C	2.102306	0.085976	0.500163
C53	C	1.488172	-0.198917	0.000100
C54	C	1.988172	0.301083	0.500100
C55	C	1.478822	-0.553887	0.000072
C56	C	1.978822	-0.053887	0.500072
C57	C	1.713094	0.118800	0.000099
C58	C	2.213094	0.618800	0.500099
C59	C	1.852505	0.121269	0.000100
C60	C	2.352505	0.621269	0.500100
C61	C	1.474339	0.277110	0.000070
C62	C	1.974339	0.777110	0.500070
C63	C	1.476824	0.370371	0.000061
C64	C	1.976824	0.870371	0.500061
N65	N	1.483484	0.123589	0.356205
N66	N	1.983484	0.623589	0.856205
N67	N	1.483514	0.123594	-0.356032
N68	N	1.983514	0.623594	0.143968
C69	C	1.568883	0.067007	0.428142
C70	C	2.068883	0.567007	0.928142
C71	C	1.568896	0.067007	0.572025
C72	C	2.068896	0.567007	1.072025
C73	C	1.398106	0.180179	0.572021
C74	C	1.898106	0.680179	1.072021
C75	C	1.398089	0.180174	0.428140
C76	C	1.898089	0.680174	0.928140
H77	H	1.075154	0.264375	0.000041
H78	H	1.575154	0.764375	0.500041
Br79	Br	1.684774	-0.009789	0.330520
Br80	Br	2.184774	0.490211	0.830520
Br81	Br	1.282173	0.256962	0.330500
Br82	Br	1.782173	0.756962	0.830500
H83	H	0.837528	0.260155	0.000081
H84	H	1.337528	0.760155	0.500081
H85	H	0.891824	-0.017184	0.000143
H86	H	1.391824	0.482816	0.500143
Br87	Br	1.197393	-0.284219	0.000235
Br88	Br	1.697393	0.215781	0.500235
Br89	Br	1.337716	-0.433406	-0.271382
Br90	Br	1.837716	0.066594	0.228618
Br91	Br	1.173168	-0.053837	0.000117
Br92	Br	1.673168	0.446163	0.500117
Br93	Br	1.684793	-0.009790	0.669652
Br94	Br	2.184793	0.490210	1.169652
Br95	Br	1.337700	-0.433457	0.271588
Br96	Br	1.837700	0.066543	0.771588
H97	H	1.595056	-0.333102	0.208281
H98	H	2.095056	0.166898	0.708281
Br99	Br	1.769778	-0.468324	0.000271
Br100	Br	2.269778	0.031676	0.500271
Br101	Br	1.629175	-0.319311	-0.271386
Br102	Br	2.129175	0.180689	0.228614
H103	H	1.328581	0.226250	0.630605
H104	H	1.828581	0.726250	1.130605
