data_functionalizedCrystal
_audit_creation_method	'MofGen! by Chris Wilmer'
_symmetry_space_group_name_H-M	'P1'
_symmetry_Int_Tables_number	1
_symmetry_cell_setting	triclinic
loop_
_symmetry_equiv_pos_as_xyz
  x,y,z
_cell_length_a	15.944493
_cell_length_b	15.944551
_cell_length_c	13.101039
_cell_angle_alpha	93.361595
_cell_angle_beta	86.643455
_cell_angle_gamma	83.486891
loop_
_atom_site_label
_atom_site_type_symbol
_atom_site_fract_x
_atom_site_fract_y
_atom_site_fract_z
O1	O	1.119175	0.103464	-0.085203
O2	O	0.874619	0.116871	-0.085208
O3	O	1.003574	-0.012108	-0.085196
O4	O	0.990219	0.232443	-0.085215
O5	O	0.994322	-0.002839	0.085233
O6	O	0.865366	0.126140	0.085221
O7	O	1.109922	0.112733	0.085226
Zn8	Zn	0.986175	0.120909	0.112283
Zn9	Zn	0.998366	0.108696	-0.112265
O10	O	0.980966	0.241713	0.085214
C11	C	0.838698	0.120958	0.000006
C12	C	0.745449	0.119315	0.000004
C13	C	0.509689	0.195235	-0.000003
C14	C	0.454569	0.158865	0.084035
C15	C	0.574728	0.116271	0.000006
C16	C	0.463695	0.149707	-0.083994
C17	C	0.409818	0.113336	0.000004
C18	C	0.520832	0.079926	0.084113
C19	C	0.529966	0.070775	-0.083992
C20	C	0.474877	0.034348	0.000067
C21	C	0.669728	0.117964	0.000008
C22	C	0.314821	0.111637	0.000009
C23	C	0.998394	-0.038767	0.000018
C24	C	0.996731	-0.132013	0.000019
C25	C	0.912825	-0.346853	0.000003
C26	C	0.947227	-0.403308	0.084036
C27	C	0.993724	-0.302739	0.000011
C28	C	0.956368	-0.412430	-0.083994
C29	C	0.990814	-0.467651	-0.000001
C30	C	1.028144	-0.357962	0.084113
C31	C	1.037278	-0.367082	-0.083992
C32	C	1.071737	-0.423518	0.000061
C33	C	0.995398	-0.207736	0.000019
C34	C	0.989146	-0.562652	-0.000002
C35	C	1.145843	0.108647	0.000010
C36	C	1.239092	0.110289	0.000005
C37	C	0.986147	0.268372	-0.000003
C38	C	0.987810	0.361617	-0.000010
N39	N	0.977862	0.129243	0.265530
N40	N	1.006686	0.100355	-0.265513
C41	C	0.966551	0.140590	0.474572
C42	C	1.017994	0.089010	0.525452
C43	C	1.011700	0.095324	0.641770
C44	C	0.972843	0.134277	0.358243
H45	H	0.545799	0.050466	0.155231
H46	H	0.438614	0.179207	-0.155032
H47	H	1.058471	-0.334110	0.155234
H48	H	0.845671	-0.313527	0.000085
O49	O	1.075987	0.030487	0.473204
C50	C	1.034067	-0.024572	0.411319
H51	H	0.969314	0.008237	0.395275
H52	H	1.073123	-0.042174	0.335859
H53	H	1.025865	-0.084302	0.452778
O54	O	0.456445	-0.046856	0.000308
C55	C	0.485710	-0.083350	0.089008
H56	H	0.491589	-0.031222	0.150648
H57	H	0.439003	-0.126902	0.118343
H58	H	0.550200	-0.121436	0.069761
O59	O	0.908415	0.199037	0.526697
C60	C	0.923624	0.280759	0.500585
H61	H	0.960154	0.276451	0.422649
H62	H	0.860737	0.322014	0.497057
H63	H	0.962278	0.309894	0.560935
H64	H	0.421775	0.196076	0.155077
O65	O	0.528287	0.276404	0.000266
C66	C	0.489535	0.322569	0.089018
H67	H	0.476890	0.277146	0.150640
H68	H	0.533194	0.369178	0.118338
H69	H	0.427188	0.358714	0.069847
O70	O	0.569068	0.026535	-0.168849
C71	C	0.539927	0.063581	-0.257277
H72	H	0.514227	0.132601	-0.237146
H73	H	0.594460	0.060026	-0.318255
H74	H	0.487533	0.028073	-0.287935
O75	O	1.082783	-0.347646	-0.168638
C76	C	1.152059	-0.306639	-0.138515
H77	H	1.167792	-0.324012	-0.058079
H78	H	1.209203	-0.327514	-0.194290
H79	H	1.135200	-0.235235	-0.138820
H80	H	0.909153	-0.419545	0.155077
O81	O	0.920023	-0.440879	-0.168718
C82	C	0.836249	-0.401449	-0.168384
H83	H	0.829552	-0.339374	-0.119189
H84	H	0.820551	-0.388179	-0.250105
H85	H	0.790904	-0.444908	-0.135589
H86	H	1.138944	-0.456688	0.000110
