data_functionalizedCrystal
_audit_creation_method	'MofGen! by Chris Wilmer'
_symmetry_space_group_name_H-M	'P1'
_symmetry_Int_Tables_number	1
_symmetry_cell_setting	triclinic
loop_
_symmetry_equiv_pos_as_xyz
  x,y,z
_cell_length_a	13.897449
_cell_length_b	13.897441
_cell_length_c	12.645330
_cell_angle_alpha	89.971917
_cell_angle_beta	89.986336
_cell_angle_gamma	90.020733
loop_
_atom_site_label
_atom_site_type_symbol
_atom_site_fract_x
_atom_site_fract_y
_atom_site_fract_z
Zn1	Zn	-1.474738	-0.545398	-0.421969
Zn2	Zn	-1.474647	-0.384107	-0.599265
Zn3	Zn	-1.313427	-0.384116	-0.422020
Zn4	Zn	-1.313424	-0.545359	-0.599195
O5	O	-1.394059	-0.464745	-0.510612
O6	O	-1.609708	-0.524015	-0.445496
O7	O	-1.453224	-0.249126	-0.575803
O8	O	-1.334865	-0.405531	-0.273666
O9	O	-1.609641	-0.405514	-0.575754
O10	O	-1.453379	-0.524024	-0.273629
O11	O	-1.334777	-0.249133	-0.445582
O12	O	-1.178445	-0.405493	-0.445514
O13	O	-1.334859	-0.680346	-0.575635
O14	O	-1.178443	-0.523958	-0.575684
O15	O	-1.453376	-0.680375	-0.445428
O16	O	-1.453221	-0.405477	-0.747603
O17	O	-1.334771	-0.523948	-0.747552
C18	C	-1.143445	-0.464723	-0.510598
C19	C	-1.036231	-0.464737	-0.510618
C20	C	-1.394012	-0.464728	-0.786042
C21	C	-1.394080	-0.464753	-0.903872
C22	C	-1.394128	-0.716338	-0.510519
C23	C	-1.394157	-0.823552	-0.510479
C24	C	-1.645652	-0.464768	-0.510627
C25	C	-1.752866	-0.464777	-0.510634
C26	C	-0.839936	-0.464762	-0.510621
C27	C	-0.949168	-0.464745	-0.510616
C28	C	-1.394183	-1.019847	-0.510407
C29	C	-1.394165	-0.910615	-0.510450
C30	C	-1.394046	-0.214131	-0.510629
C31	C	-1.394204	-0.106917	-0.510370
C32	C	-1.468682	-0.390287	-0.948742
C33	C	-1.468511	-0.390021	-1.071302
C34	C	-1.292429	-0.437440	-1.071883
C35	C	-1.292812	-0.436872	-0.949285
C36	C	-1.420342	-0.566776	-0.948947
C37	C	-1.422633	-0.566259	-1.071551
C38	C	-1.394133	-0.464783	-0.234107
C39	C	-1.394164	-0.464799	-0.116277
H40	H	-1.543940	-0.407110	-1.101314
H41	H	-1.372306	-0.624707	-1.102160
H42	H	-1.366012	-0.622257	-0.919922
H43	H	-1.235322	-0.488766	-0.919606
H44	H	-1.451131	-0.314440	-1.100712
H45	H	-1.235353	-0.490023	-1.101017
N46	N	-1.264108	-0.344939	-1.110513
N47	N	-1.318673	-0.299005	-1.170726
H48	H	-1.298676	-0.233674	-1.198009
N49	N	-1.511786	-0.598049	-0.910042
N50	N	-1.558717	-0.545516	-0.848614
H51	H	-1.623301	-0.567595	-0.821132
H52	H	-1.497501	-0.586893	-1.100558
N53	N	-1.264922	-0.343333	-0.913515
N54	N	-1.184410	-0.310036	-0.938150
H55	H	-1.164710	-0.243971	-0.912895
N56	N	-1.563567	-0.411469	-0.911647
N57	N	-1.580946	-0.411588	-0.814657
H58	H	-1.647960	-0.426551	-0.788450
N59	N	-1.447106	-0.295997	-0.910194
N60	N	-1.377024	-0.283403	-0.849820
H61	H	-1.361781	-0.216812	-0.822595
