data_functionalizedCrystal
_audit_creation_method	'MofGen! by Chris Wilmer'
_symmetry_space_group_name_H-M	'P1'
_symmetry_Int_Tables_number	1
_symmetry_cell_setting	triclinic
loop_
_symmetry_equiv_pos_as_xyz
  x,y,z
_cell_length_a	10.968094
_cell_length_b	19.188924
_cell_length_c	10.065875
_cell_angle_alpha	98.757069
_cell_angle_beta	93.118877
_cell_angle_gamma	83.943566
loop_
_atom_site_label
_atom_site_type_symbol
_atom_site_fract_x
_atom_site_fract_y
_atom_site_fract_z
O1	O	1.612222	0.121715	0.265633
O2	O	1.262173	0.123713	0.183312
O3	O	1.447301	0.021341	0.226865
O4	O	1.427094	0.224088	0.222080
O5	O	1.411999	0.040944	0.445548
O6	O	1.226871	0.143316	0.401995
O7	O	1.576920	0.141318	0.484317
Zn8	Zn	1.396291	0.145430	0.477877
Zn9	Zn	1.442803	0.119602	0.189752
O10	O	1.391792	0.243691	0.440764
C11	C	1.199738	0.131889	0.282122
C12	C	1.066295	0.127037	0.250740
C13	C	1.428997	0.005113	0.336054
C14	C	1.427036	-0.072446	0.335596
C15	C	0.850590	0.130005	0.317592
C16	C	0.988506	0.135026	0.350039
C17	C	1.445364	-0.119556	0.216177
C18	C	1.443506	-0.192431	0.215729
C19	C	1.423343	-0.218194	0.334714
C20	C	1.405006	-0.171074	0.454149
C21	C	1.406852	-0.098200	0.454590
N22	N	1.474530	-0.328083	0.438839
N23	N	1.472780	-0.397311	0.438413
C24	C	1.417777	-0.437760	0.333392
N25	N	1.364609	-0.406367	0.228798
N26	N	1.366365	-0.337133	0.229222
C27	C	1.421338	-0.297213	0.334249
C28	C	1.434090	-0.563890	0.213479
C29	C	1.432224	-0.636766	0.213035
C30	C	1.393736	-0.615407	0.451460
C31	C	1.395591	-0.542533	0.451898
C32	C	1.415774	-0.516779	0.332905
C33	C	1.639356	0.133142	0.385504
C34	C	1.772800	0.137994	0.416877
C35	C	1.410097	0.259918	0.331572
C36	C	1.412060	0.337476	0.332021
N37	N	1.364556	0.163056	0.674517
N38	N	1.474546	0.101970	-0.006886
C39	C	1.431754	0.125730	0.758104
C40	C	1.407339	0.139301	0.909528
H41	H	0.815086	0.119444	0.208570
H42	H	1.380676	-0.504175	0.549145
H43	H	1.550152	0.059961	0.952580
O44	O	1.317207	0.189499	0.957738
C45	C	1.342110	0.256089	0.928793
H46	H	1.404498	0.248238	0.839672
H47	H	1.252436	0.287818	0.902975
H48	H	1.389531	0.286057	1.020322
H49	H	1.288947	0.205057	0.715055
O50	O	1.461344	-0.238108	0.099605
C51	C	1.479493	-0.199747	-0.005338
H52	H	1.513258	-0.146578	0.038857
H53	H	1.550731	-0.231197	-0.075149
H54	H	1.389171	-0.190446	-0.064582
O55	O	1.031012	0.147525	0.480066
C56	C	1.116322	0.090719	0.507459
H57	H	1.156351	0.062093	0.409420
H58	H	1.193284	0.111951	0.577804
H59	H	1.068317	0.052182	0.557303
O60	O	1.385269	-0.196172	0.569610
C61	C	1.278946	-0.232473	0.552016
H62	H	1.260682	-0.250931	0.440287
H63	H	1.292911	-0.280367	0.607668
H64	H	1.197272	-0.195479	0.593865
O65	O	1.023873	0.114567	0.120679
C66	C	0.938514	0.171353	0.093303
H67	H	0.955712	0.220774	0.167508
H68	H	0.949322	0.182010	-0.013592
H69	H	0.841487	0.157196	0.103853
O70	O	0.815114	0.150465	0.546972
C71	C	0.786751	0.095800	0.615642
H72	H	0.773201	0.046311	0.540112
H73	H	0.865231	0.083477	0.690115
H74	H	0.698889	0.113407	0.672229
O75	O	1.464661	-0.094481	0.100563
C76	C	1.362692	-0.047826	0.069253
H77	H	1.311672	-0.025871	0.164720
H78	H	1.395422	-0.002289	0.024450
H79	H	1.298527	-0.077591	-0.006730
O80	O	1.389082	-0.052533	0.570730
C81	C	1.370848	-0.090893	0.675650
H82	H	1.413220	-0.147871	0.649342
H83	H	1.416267	-0.065283	0.772875
H84	H	1.268313	-0.090542	0.689575
O85	O	1.453480	-0.538882	0.097819
C86	C	1.360669	-0.557987	0.000685
H87	H	1.276143	-0.568143	0.053189
H88	H	1.335685	-0.513152	-0.061295
H89	H	1.395128	-0.608116	-0.068382
O90	O	1.450176	-0.682612	0.097148
C91	C	1.554360	-0.730592	0.114248
H92	H	1.572063	-0.733967	0.225848
H93	H	1.537798	-0.785189	0.057985
H94	H	1.637463	-0.711421	0.072740
H95	H	1.507354	0.083723	0.717566
O96	O	1.373976	-0.640493	0.566924
C97	C	1.267639	-0.676782	0.549316
H98	H	1.249391	-0.695245	0.437587
H99	H	1.281575	-0.724672	0.604981
H100	H	1.185968	-0.639777	0.591142
