data_functionalizedCrystal
_audit_creation_method	'MofGen! by Chris Wilmer'
_symmetry_space_group_name_H-M	'P1'
_symmetry_Int_Tables_number	1
_symmetry_cell_setting	triclinic
loop_
_symmetry_equiv_pos_as_xyz
  x,y,z
_cell_length_a	10.540514
_cell_length_b	10.540535
_cell_length_c	14.586319
_cell_angle_alpha	89.994854
_cell_angle_beta	89.995975
_cell_angle_gamma	84.519401
loop_
_atom_site_label
_atom_site_type_symbol
_atom_site_fract_x
_atom_site_fract_y
_atom_site_fract_z
O1	O	1.685901	0.178747	-0.076255
O2	O	1.316484	0.195636	-0.076255
O3	O	1.509624	0.002484	-0.076246
O4	O	1.492762	0.371899	-0.076264
O5	O	1.509610	0.002481	0.076235
O6	O	1.316470	0.195633	0.076226
O7	O	1.685888	0.178744	0.076226
Cu8	Cu	1.501178	0.187188	0.090149
Cu9	Cu	1.501194	0.187191	-0.090178
O10	O	1.492748	0.371896	0.076217
C11	C	1.269174	0.194375	-0.000014
C12	C	1.128224	0.190605	-0.000014
C13	C	1.057516	0.328746	-0.000022
C14	C	0.910903	0.324871	-0.000373
C15	C	0.935895	0.115480	-0.086920
C16	C	1.082435	0.120334	-0.086988
C17	C	1.082822	0.118286	0.086417
C18	C	0.935843	0.116953	0.087555
C19	C	1.508354	-0.044821	-0.000005
C20	C	1.504574	-0.185769	-0.000003
C21	C	1.363558	-0.222427	-0.000010
C22	C	1.359581	-0.369027	-0.000372
C23	C	1.568953	-0.395098	-0.086929
C24	C	1.571954	-0.248333	-0.086986
C25	C	1.573989	-0.248474	0.086420
C26	C	1.567467	-0.394820	0.087546
C27	C	1.733198	0.180005	-0.000017
C28	C	1.874148	0.183774	-0.000023
C29	C	1.494018	0.419200	-0.000026
C30	C	1.497798	0.560148	-0.000033
N31	N	1.501176	0.187185	0.216980
N32	N	1.501206	0.187185	-0.217009
C33	C	1.586727	0.101686	0.451991
C34	C	1.586731	0.101683	0.547972
C35	C	1.415646	0.272687	0.547974
C36	C	1.415637	0.272683	0.451994
C37	C	1.501185	0.187184	0.404005
C38	C	1.501197	0.187185	0.595966
C39	C	1.501200	0.187183	0.700033
C40	C	1.501180	0.187185	0.299931
H41	H	0.894841	0.166863	0.151842
F42	F	1.324607	0.363681	0.599053
F43	F	1.286841	-0.407382	0.081027
F44	F	1.677771	0.010687	0.400921
F45	F	1.324582	0.363682	0.400920
H46	H	1.110664	0.170216	-0.152198
F47	F	1.516466	-0.192988	0.172544
F48	F	0.904227	-0.017473	0.094765
F49	F	1.709599	-0.219487	0.087524
H50	H	0.868233	0.378587	0.061903
H51	H	1.515688	-0.423431	0.151832
F52	F	1.677773	0.010682	0.599039
H53	H	1.086050	0.384783	0.062282
F54	F	1.287223	-0.406205	-0.082279
H55	H	1.087748	0.383965	-0.062250
F56	F	0.856357	0.394782	-0.082279
H57	H	1.130080	0.016393	0.087261
H58	H	1.309401	-0.180461	0.062299
H59	H	1.130443	0.018860	-0.090693
H60	H	1.310320	-0.178955	-0.062233
H61	H	0.893293	0.162296	-0.151840
H62	H	0.913583	0.011848	-0.089901
H63	H	1.675330	-0.225311	-0.090686
F64	F	1.123978	0.178387	0.172535
H65	H	1.523911	-0.208147	-0.152191
F66	F	1.701971	-0.457004	-0.090838
F67	F	1.505162	-0.435469	-0.171787
H68	H	1.668348	-0.443865	0.093054
