data_functionalizedCrystal
_audit_creation_method	'MofGen! by Chris Wilmer'
_symmetry_space_group_name_H-M	'P1'
_symmetry_Int_Tables_number	1
_symmetry_cell_setting	triclinic
loop_
_symmetry_equiv_pos_as_xyz
  x,y,z
_cell_length_a	16.625547
_cell_length_b	18.050590
_cell_length_c	16.625539
_cell_angle_alpha	90.028092
_cell_angle_beta	90.021309
_cell_angle_gamma	90.018489
loop_
_atom_site_label
_atom_site_type_symbol
_atom_site_fract_x
_atom_site_fract_y
_atom_site_fract_z
Zn1	Zn	1.232674	-0.295673	0.455992
Zn2	Zn	1.732674	0.204327	0.955992
Zn3	Zn	1.232595	-0.419867	0.321155
Zn4	Zn	1.732595	0.080133	0.821155
Zn5	Zn	1.097845	-0.295695	0.321162
Zn6	Zn	1.597845	0.204305	0.821162
Zn7	Zn	1.097816	-0.419826	0.455935
Zn8	Zn	1.597816	0.080174	0.955935
O9	O	1.165233	-0.357765	0.388561
O10	O	1.665233	0.142235	0.888561
O11	O	1.345496	-0.312156	0.438126
O12	O	1.845496	0.187844	0.938126
O13	O	1.214699	-0.403421	0.208323
O14	O	1.714699	0.096579	0.708323
O15	O	1.115775	-0.191767	0.339074
O16	O	1.615775	0.308233	0.839074
O17	O	1.345438	-0.403400	0.339062
O18	O	1.845438	0.096600	0.839062
O19	O	1.214834	-0.191751	0.438133
O20	O	1.714834	0.308249	0.938133
O21	O	1.115698	-0.312193	0.208329
O22	O	1.615698	0.187807	0.708329
O23	O	0.985008	-0.312153	0.339019
O24	O	1.485008	0.187847	0.839019
O25	O	1.115726	-0.403330	0.568775
O26	O	1.615726	0.096670	1.068775
O27	O	0.984987	-0.403351	0.438036
O28	O	1.484987	0.096649	0.938036
O29	O	1.214806	-0.312116	0.568817
O30	O	1.714806	0.187884	1.068817
O31	O	1.214671	-0.523786	0.339007
O32	O	1.714671	-0.023786	0.839007
O33	O	1.115650	-0.523756	0.438029
O34	O	1.615650	-0.023756	0.938029
C35	C	0.955742	-0.357751	0.388523
C36	C	1.455742	0.142249	0.888523
C37	C	0.866121	-0.357762	0.388526
C38	C	1.366121	0.142238	0.888526
C39	C	0.793338	-0.357764	0.388536
C40	C	1.293338	0.142236	0.888536
C41	C	0.702030	-0.357768	0.388556
C42	C	1.202030	0.142232	0.888556
C43	C	0.629253	-0.357774	0.388576
C44	C	1.129253	0.142226	0.888576
C45	C	0.537939	-0.357780	0.388596
C46	C	1.037939	0.142220	0.888596
C47	C	1.165171	-0.550717	0.388529
C48	C	1.665171	-0.050717	0.888529
C49	C	1.165218	-0.633263	0.388542
C50	C	1.665218	-0.133263	0.888542
C51	C	1.219178	-0.832703	0.334769
C52	C	1.719178	-0.332703	0.834769
C53	C	1.238871	-0.882036	0.408360
C54	C	1.738871	-0.382036	0.908360
C55	C	1.165264	-0.784393	0.388574
C56	C	1.665264	-0.284393	0.888574
C57	C	1.145653	-0.882142	0.315016
C58	C	1.645653	-0.382142	0.815016
C59	C	1.165309	-0.930378	0.388599
C60	C	1.665309	-0.430378	0.888599
C61	C	1.184994	-0.832639	0.462204
C62	C	1.684994	-0.332639	0.962204
C63	C	1.091742	-0.832741	0.368810
C64	C	1.591742	-0.332741	0.868810
C65	C	1.111407	-0.882051	0.442452
C66	C	1.611407	-0.382051	0.942452
C67	C	1.165239	-0.700295	0.388559
C68	C	1.665239	-0.200295	0.888559
C69	C	1.165333	-1.014475	0.388622
C70	C	1.665333	-0.514475	0.888622
C71	C	1.375541	-0.357780	0.388600
C72	C	1.875541	0.142220	0.888600
C73	C	1.465163	-0.357786	0.388616
C74	C	1.965163	0.142214	0.888616
C75	C	1.165272	-0.357716	0.598870
C76	C	1.665272	0.142284	1.098870
C77	C	1.165289	-0.357695	0.688491
C78	C	1.665289	0.142305	1.188491
C79	C	1.165317	-0.164059	0.388611
C80	C	1.665317	0.335941	0.888611
C81	C	1.165353	-0.081514	0.388632
C82	C	1.665353	0.418486	0.888632
C83	C	1.165240	-0.357760	0.179070
C84	C	1.665240	0.142240	0.679070
C85	C	1.165379	-0.357572	0.089449
C86	C	1.665379	0.142428	0.589449
C87	C	1.165302	-0.357679	0.761274
C88	C	1.665302	0.142321	1.261274
C89	C	1.165321	-0.357651	0.852582
C90	C	1.665321	0.142349	1.352582
C91	C	1.165340	-0.357625	0.925359
C92	C	1.665340	0.142375	1.425359
C93	C	1.165360	-0.357598	1.016673
C94	C	1.665360	0.142402	1.516673
H95	H	1.264787	-0.811034	0.289314
H96	H	1.764787	-0.311034	0.789314
N97	N	1.316888	-0.909236	0.429317
N98	N	1.816888	-0.409236	0.929317
N99	N	1.376301	-0.893439	0.386579
N100	N	1.876301	-0.393439	0.886579
H101	H	1.431400	-0.912661	0.401364
H102	H	1.931400	-0.412661	0.901364
N103	N	1.124803	-0.909404	0.236965
N104	N	1.624803	-0.409404	0.736965
N105	N	1.058570	-0.892737	0.206329
N106	N	1.558570	-0.392737	0.706329
H107	H	1.043849	-0.911988	0.151204
H108	H	1.543849	-0.411988	0.651204
H109	H	1.065833	-0.903583	0.488017
H110	H	1.565833	-0.403583	0.988017
H111	H	1.201538	-0.810987	0.524475
H112	H	1.701538	-0.310987	1.024475
H113	H	1.029565	-0.811069	0.352056
H114	H	1.529565	-0.311069	0.852056
