data_functionalizedCrystal
_audit_creation_method	'MofGen! by Chris Wilmer'
_symmetry_space_group_name_H-M	'P1'
_symmetry_Int_Tables_number	1
_symmetry_cell_setting	triclinic
loop_
_symmetry_equiv_pos_as_xyz
  x,y,z
_cell_length_a	14.908520
_cell_length_b	14.908750
_cell_length_c	14.908768
_cell_angle_alpha	90.188171
_cell_angle_beta	83.235728
_cell_angle_gamma	90.164565
loop_
_atom_site_label
_atom_site_type_symbol
_atom_site_fract_x
_atom_site_fract_y
_atom_site_fract_z
Zn1	Zn	-0.465242	-1.378562	0.457234
Zn2	Zn	-0.606941	-1.362136	0.315498
Zn3	Zn	-0.447871	-1.220508	0.314526
Zn4	Zn	-0.607939	-1.220430	0.474557
O5	O	-0.531998	-1.295409	0.390454
O6	O	-0.490890	-1.501833	0.431590
O7	O	-0.578152	-1.336507	0.189078
O8	O	-0.323885	-1.248380	0.325800
O9	O	-0.594996	-1.489765	0.327456
O10	O	-0.336647	-1.364502	0.430648
O11	O	-0.461284	-1.232453	0.188364
O12	O	-0.462253	-1.095047	0.342598
O13	O	-0.596698	-1.248249	0.598551
O14	O	-0.579854	-1.094990	0.460172
O15	O	-0.491859	-1.364427	0.585823
O16	O	-0.733364	-1.336432	0.344254
O17	O	-0.734098	-1.232321	0.461114
C18	C	-0.519278	-1.062491	0.403160
C19	C	-0.513859	-0.962847	0.408618
C20	C	-0.452127	-0.828683	0.470618
C21	C	-0.457210	-0.922307	0.465493
C22	C	-0.565429	-0.909756	0.356866
C23	C	-0.560345	-0.816131	0.361991
C24	C	-0.503691	-0.775598	0.418867
C25	C	-0.498603	-0.681972	0.423987
C26	C	-0.606826	-0.669423	0.315365
C27	C	-0.611910	-0.763047	0.310241
C28	C	-0.766479	-1.282611	0.404687
C29	C	-0.866797	-1.277220	0.410802
C30	C	-1.054492	-1.375622	0.300692
C31	C	-1.148750	-1.370560	0.306435
C32	C	-1.149573	-1.262037	0.428033
C33	C	-1.055315	-1.267100	0.422291
C34	C	-1.007778	-1.323893	0.358617
C35	C	-0.913518	-1.328951	0.352871
C36	C	-0.914343	-1.220434	0.474473
C37	C	-1.008600	-1.215371	0.480216
C38	C	-0.296604	-1.308282	0.376183
C39	C	-0.196294	-1.313768	0.370102
C40	C	-0.546327	-1.308161	0.625848
C41	C	-0.552433	-1.313596	0.726160
C42	C	-0.544759	-0.529237	0.377692
C43	C	-0.550173	-0.628880	0.372235
C44	C	-0.621879	-1.375420	0.867918
C45	C	-0.616147	-1.370320	0.773667
C46	C	-0.494450	-1.261965	0.772910
C47	C	-0.500182	-1.267065	0.867161
C48	C	-0.563898	-1.323795	0.914662
C49	C	-0.569625	-1.328899	1.008915
C50	C	-0.447932	-1.220540	1.008157
C51	C	-0.442200	-1.215441	0.913905
C52	C	-0.517745	-1.282699	1.155977
C53	C	-0.511641	-1.277269	1.055665
H54	H	-0.415221	-0.965525	0.507634
H55	H	-0.648816	-0.626191	0.273228
N56	N	-1.199127	-1.426349	0.243948
H57	H	-1.233747	-1.385581	0.206465
H58	H	-1.242636	-1.467751	0.280831
N59	N	-0.638341	-1.390086	1.060151
H60	H	-0.674203	-1.422014	1.016234
H61	H	-0.680490	-1.353426	1.103780
N62	N	-0.678676	-1.426004	0.723243
H63	H	-0.716129	-1.385168	0.688661
H64	H	-0.719851	-1.462709	0.767690
N65	N	-0.425740	-1.200774	0.721671
H66	H	-0.430913	-1.205377	0.654871
H67	H	-0.363047	-1.219141	0.733467
N68	N	-0.385396	-1.164859	1.058583
H69	H	-0.394914	-1.099150	1.046526
H70	H	-0.320705	-1.181495	1.037487
H71	H	-0.874814	-1.375192	0.301023
H72	H	-1.188294	-1.215805	0.479878
H73	H	-0.876297	-1.178309	0.521637
H74	H	-1.015786	-1.421859	0.248841
H75	H	-0.390327	-1.169250	0.875218
N76	N	-0.690587	-1.436613	0.919158
H77	H	-0.726446	-1.468548	0.875242
H78	H	-0.732741	-1.399958	0.962786
N79	N	-0.437493	-0.638250	0.485321
H80	H	-0.405600	-0.686089	0.517327
H81	H	-0.474721	-0.599666	0.531386
H82	H	-0.405987	-0.795680	0.516920
H83	H	-0.658038	-0.796062	0.263936
N84	N	-0.626532	-0.953482	0.295528
H85	H	-0.621927	-1.020847	0.300138
H86	H	-0.607571	-0.934389	0.231133
N87	N	-1.059874	-1.154119	0.548889
H88	H	-1.126676	-1.158760	0.543739
H89	H	-1.039111	-1.090224	0.537273
