data_functionalizedCrystal
_audit_creation_method	'MofGen! by Chris Wilmer'
_symmetry_space_group_name_H-M	'P1'
_symmetry_Int_Tables_number	1
_symmetry_cell_setting	triclinic
loop_
_symmetry_equiv_pos_as_xyz
  x,y,z
_cell_length_a	16.992694
_cell_length_b	9.482900
_cell_length_c	16.992695
_cell_angle_alpha	80.026204
_cell_angle_beta	90.668223
_cell_angle_gamma	99.926526
loop_
_atom_site_label
_atom_site_type_symbol
_atom_site_fract_x
_atom_site_fract_y
_atom_site_fract_z
O1	O	1.062330	0.120712	0.155377
O2	O	1.562330	0.620712	0.655377
O3	O	0.833934	0.120755	0.153542
O4	O	1.333934	0.620755	0.653542
O5	O	0.947215	0.120722	0.040261
O6	O	1.447215	0.620722	0.540261
O7	O	0.949049	0.120745	0.268659
O8	O	1.449049	0.620745	0.768659
O9	O	0.924211	-0.121064	0.063369
O10	O	1.424211	0.378936	0.563369
O11	O	0.810930	-0.121031	0.176651
O12	O	1.310930	0.378969	0.676651
O13	O	1.039326	-0.121074	0.178486
O14	O	1.539326	0.378926	0.678486
Cu15	Cu	0.923028	-0.143129	0.179678
Cu16	Cu	1.423028	0.356871	0.679678
Cu17	Cu	0.950232	0.142810	0.152350
Cu18	Cu	1.450232	0.642810	0.652350
O19	O	0.926045	-0.121041	0.291767
O20	O	1.426045	0.378959	0.791767
C21	C	0.793072	-0.000133	0.162740
C22	C	1.293072	0.499867	0.662740
C23	C	0.705589	-0.000117	0.155710
C24	C	1.205589	0.499883	0.655710
N25	N	0.903899	-0.344244	0.198900
N26	N	1.403899	0.155756	0.698900
C27	C	0.659599	-0.000111	0.223527
C28	C	1.159599	0.499889	0.723527
C29	C	0.577396	-0.000132	0.216920
C30	C	1.077396	0.499868	0.716920
C31	C	0.541186	-0.000148	0.142494
C32	C	1.041186	0.499852	0.642494
C33	C	0.587183	-0.000158	0.074672
C34	C	1.087183	0.499842	0.574672
C35	C	0.669383	-0.000147	0.081281
C36	C	1.169383	0.499853	0.581281
C37	C	0.295868	-0.000189	0.115104
C38	C	0.795868	0.499811	0.615104
C39	C	0.213662	-0.000195	0.108500
C40	C	0.713662	0.499805	0.608500
C41	C	0.203881	-0.000172	0.250749
C42	C	0.703881	0.499828	0.750749
C43	C	0.286085	-0.000153	0.257350
C44	C	0.786085	0.499847	0.757350
C45	C	0.332073	-0.000171	0.189529
C46	C	0.832073	0.499829	0.689529
N47	N	0.457163	-0.000164	0.135739
N48	N	0.957163	0.499836	0.635739
N49	N	0.416094	-0.000164	0.196286
N50	N	0.916094	0.499836	0.696286
C51	C	0.944585	-0.416455	0.158015
C52	C	1.444585	0.083545	0.658015
C53	C	0.928675	-0.583868	0.174014
C54	C	1.428675	-0.083868	0.674014
C55	C	1.080188	-0.000183	0.169288
C56	C	1.580188	0.499817	0.669288
C57	C	1.167672	-0.000190	0.176317
C58	C	1.667672	0.499810	0.676317
C59	C	0.933358	-0.000170	0.022455
C60	C	1.433358	0.499830	0.522455
C61	C	0.926329	-0.000169	-0.065030
C62	C	1.426329	0.499831	0.434970
N63	N	0.969367	0.343925	0.133123
N64	N	1.469367	0.843925	0.633123
C65	C	0.994146	-0.000183	-0.111019
C66	C	1.494146	0.499817	0.388981
C67	C	0.987538	-0.000168	-0.193222
C68	C	1.487538	0.499832	0.306778
C69	C	0.913112	-0.000149	-0.229432
C70	C	1.413112	0.499851	0.270568
C71	C	0.845291	-0.000130	-0.183436
C72	C	1.345291	0.499870	0.316564
C73	C	0.851900	-0.000135	-0.101237
C74	C	1.351900	0.499865	0.398763
C75	C	0.885720	-0.000124	-0.474748
C76	C	1.385720	0.499876	0.025252
C77	C	0.879116	-0.000124	-0.556954
C78	C	1.379116	0.499876	-0.056954
C79	C	1.021364	-0.000158	-0.566733
C80	C	1.521364	0.499842	-0.066733
C81	C	1.027966	-0.000172	-0.484531
C82	C	1.527966	0.499828	0.015469
C83	C	0.960145	-0.000145	-0.438544
C84	C	1.460145	0.499855	0.061456
N85	N	0.906356	-0.000138	-0.313455
N86	N	1.406356	0.499862	0.186545
N87	N	0.966903	-0.000146	-0.354523
N88	N	1.466903	0.499854	0.145477
C89	C	0.939903	-0.000146	0.309573
C90	C	1.439903	0.499854	0.809573
C91	C	0.946932	-0.000138	0.397057
C92	C	1.446932	0.499862	0.897057
H93	H	0.689075	-0.000097	0.284133
H94	H	1.189075	0.499903	0.784133
H95	H	0.539954	-0.000126	0.272145
H96	H	1.039954	0.499874	0.772145
F97	F	0.842971	-0.425429	0.260130
F98	F	1.342971	0.074571	0.760130
F99	F	0.344802	-0.000208	0.042921
F100	F	0.844802	0.499792	0.542921
H101	H	1.054750	-0.000207	-0.081543
H102	H	1.554750	0.499793	0.418457
F103	F	1.059718	-0.000186	-0.242164
F104	F	1.559718	0.499814	0.257836
H105	H	0.818504	-0.000132	-0.586431
H106	H	1.318504	0.499868	-0.086431
H107	H	0.315562	-0.000123	0.317954
H108	H	0.815562	0.499877	0.817954
H109	H	0.166429	-0.000161	0.305965
H110	H	0.666429	0.499839	0.805965
H111	H	0.991192	-0.354340	0.111164
H112	H	1.491192	0.145660	0.611164
H113	H	0.784693	-0.000106	-0.212926
H114	H	1.284693	0.499894	0.287074
H115	H	1.015977	-0.593964	0.086269
H116	H	1.515977	-0.093964	0.586269
H117	H	0.184184	-0.000207	0.047890
H118	H	0.684184	0.499793	0.547890
F119	F	0.813539	-0.000092	-0.425816
F120	F	1.313539	0.499908	0.074184
H121	H	1.088571	-0.000187	-0.455055
H122	H	1.588571	0.499813	0.044945
F123	F	1.093538	-0.000184	-0.615682
F124	F	1.593538	0.499816	-0.115682
H125	H	0.796677	-0.000123	-0.063793
H126	H	1.296677	0.499877	0.436207
H127	H	0.557692	-0.000191	0.014075
H128	H	1.057692	0.499809	0.514075
H129	H	0.706828	-0.000151	0.026056
H130	H	1.206828	0.499849	0.526056
H131	H	0.882059	-0.645979	0.220861
H132	H	1.382059	-0.145979	0.720861
