data_functionalizedCrystal
_audit_creation_method	'MofGen! by Chris Wilmer'
_symmetry_space_group_name_H-M	'P1'
_symmetry_Int_Tables_number	1
_symmetry_cell_setting	triclinic
loop_
_symmetry_equiv_pos_as_xyz
  x,y,z
_cell_length_a	11.169417
_cell_length_b	25.639239
_cell_length_c	11.169409
_cell_angle_alpha	90.039223
_cell_angle_beta	90.020564
_cell_angle_gamma	90.039565
loop_
_atom_site_label
_atom_site_type_symbol
_atom_site_fract_x
_atom_site_fract_y
_atom_site_fract_z
Zn1	Zn	1.834735	-0.208097	0.678485
Zn2	Zn	1.834522	-0.295547	0.477777
Zn3	Zn	1.634018	-0.208128	0.477819
Zn4	Zn	1.633929	-0.295504	0.678422
O5	O	1.734301	-0.251819	0.578126
O6	O	2.002656	-0.219701	0.651869
O7	O	1.807873	-0.283981	0.309833
O8	O	1.660770	-0.134959	0.504482
O9	O	2.002500	-0.283951	0.504410
O10	O	1.808235	-0.134935	0.651910
O11	O	1.660564	-0.219756	0.309864
O12	O	1.466056	-0.219714	0.504421
O13	O	1.660618	-0.283878	0.846380
O14	O	1.465991	-0.283909	0.651803
O15	O	1.808149	-0.219660	0.846426
O16	O	1.807787	-0.368706	0.504350
O17	O	1.660412	-0.368675	0.651763
C18	C	1.422476	-0.251811	0.578110
C19	C	1.289076	-0.251820	0.578132
C20	C	1.734099	-0.387661	0.578071
C21	C	1.734123	-0.445775	0.578088
C22	C	1.811239	-0.806142	0.501499
C23	C	1.811286	-0.860746	0.501515
O24	O	1.876644	-0.888986	0.436336
N25	N	1.734512	-0.888058	0.578205
C26	C	1.657695	-0.860762	0.654894
O27	O	1.592398	-0.889007	0.720127
C28	C	1.657655	-0.806159	0.654883
C29	C	1.734426	-0.778850	0.578178
C30	C	1.888005	-0.778834	0.424802
C31	C	1.887956	-0.724233	0.424784
C32	C	1.811143	-0.696941	0.501464
C33	C	1.734377	-0.724250	0.578161
C34	C	1.580845	-0.778864	0.731576
C35	C	1.580813	-0.724257	0.731559
C36	C	1.657583	-0.696949	0.654855
C37	C	1.657515	-0.642357	0.654823
N38	N	1.734289	-0.615046	0.578133
C39	C	1.811103	-0.642338	0.501453
C40	C	1.657785	-0.975433	0.654912
C41	C	1.657818	-1.030035	0.654918
C42	C	1.811411	-1.030016	0.501540
C43	C	1.811371	-0.975412	0.501529
C44	C	1.734559	-0.948121	0.578221
C45	C	1.810995	-0.527673	0.501422
C46	C	1.810936	-0.473067	0.501408
C47	C	1.657348	-0.473092	0.654789
C48	C	1.657402	-0.527692	0.654799
C49	C	1.734235	-0.554981	0.578112
O50	O	1.592194	-0.614083	0.719973
O51	O	1.876400	-0.614087	0.436242
C52	C	2.047343	-0.251827	0.578142
C53	C	2.180743	-0.251831	0.578149
C54	C	1.734397	-0.251761	0.891168
C55	C	1.734438	-0.251736	1.024569
C56	C	1.734536	-0.115446	0.578207
C57	C	1.734637	-0.057332	0.578242
C58	C	1.734274	-0.251839	0.266301
C59	C	1.734466	-0.251716	0.132902
H60	H	1.873562	-0.549885	0.438978
H61	H	1.518325	-0.801089	0.794031
C62	C	1.497286	-0.694722	0.814877
C63	C	1.430052	-0.730330	0.882027
C64	C	1.353086	-0.703143	0.958780
H65	H	1.543023	-0.673381	0.867308
H66	H	1.444926	-0.673472	0.768951
H67	H	1.482406	-0.751571	0.927950
H68	H	1.384290	-0.751672	0.829628
H69	H	1.300726	-0.681893	0.912854
H70	H	1.398833	-0.681802	1.011203
H71	H	1.307451	-0.727298	1.004342
H72	H	1.595226	-0.953215	0.717360
H73	H	1.594893	-0.549928	0.717262
C74	C	1.574088	-0.443360	0.737996
C75	C	1.590514	-0.389696	0.721581
C76	C	1.513854	-0.362290	0.798229
H77	H	1.493411	-0.452284	0.720452
H78	H	1.591639	-0.452240	0.818679
H79	H	1.572955	-0.380819	0.640917
H80	H	1.671175	-0.380756	0.739134
H81	H	1.531404	-0.371171	0.878912
H82	H	1.433181	-0.371219	0.780679
H83	H	1.524996	-0.325877	0.787110
H84	H	1.950473	-0.702001	0.362329
C85	C	1.894425	-0.443513	0.418081
C86	C	1.961728	-0.479106	0.350960
C87	C	2.038660	-0.451902	0.274204
H88	H	1.848660	-0.422251	0.365633
H89	H	1.946744	-0.422183	0.464003
H90	H	1.909416	-0.500427	0.305042
H91	H	2.007518	-0.500369	0.403378
H92	H	2.090978	-0.430571	0.320125
H93	H	1.992884	-0.430640	0.221763
H94	H	2.084341	-0.476047	0.228661
C95	C	1.895058	-1.059565	0.418366
C96	C	2.013755	-1.046186	0.444630
C97	C	2.090856	-1.073382	0.368030
H98	H	1.884293	-1.096007	0.429260
H99	H	1.877620	-1.050637	0.337686
H100	H	2.031187	-1.055117	0.525290
H101	H	2.024558	-1.009748	0.433728
H102	H	2.073418	-1.064454	0.287351
H103	H	2.080080	-1.109823	0.378931
H104	H	2.171400	-1.064304	0.385833
C105	C	1.971452	-0.808364	0.341405
C106	C	2.038639	-0.772751	0.274225
C107	C	2.115509	-0.799931	0.197363
H108	H	2.023854	-0.829630	0.387216
H109	H	1.925609	-0.829689	0.289006
H110	H	2.084478	-0.751435	0.326617
H111	H	1.986268	-0.751484	0.228390
H112	H	2.069667	-0.821256	0.144965
H113	H	2.167903	-0.821196	0.243184
H114	H	2.161096	-0.775772	0.151765
H115	H	1.873885	-0.953181	0.439071
C116	C	1.574411	-1.059587	0.738319
C117	C	1.507157	-1.023991	0.805483
C118	C	1.430325	-1.051193	0.882344
H119	H	1.522049	-1.080930	0.692509
H120	H	1.620283	-1.080835	0.790728
H121	H	1.461288	-1.002752	0.753080
H122	H	1.559487	-1.002647	0.851318
H123	H	1.476197	-1.072442	0.934753
H124	H	1.377971	-1.072535	0.836523
H125	H	1.384692	-1.027046	0.927931
