data_functionalizedCrystal
_audit_creation_method	'MofGen! by Chris Wilmer'
_symmetry_space_group_name_H-M	'P1'
_symmetry_Int_Tables_number	1
_symmetry_cell_setting	triclinic
loop_
_symmetry_equiv_pos_as_xyz
  x,y,z
_cell_length_a	12.645330
_cell_length_b	16.625547
_cell_length_c	16.625539
_cell_angle_alpha	90.027058
_cell_angle_beta	89.975749
_cell_angle_gamma	89.983122
loop_
_atom_site_label
_atom_site_type_symbol
_atom_site_fract_x
_atom_site_fract_y
_atom_site_fract_z
Zn1	Zn	-0.422060	-1.232707	-0.456072
Zn2	Zn	0.077940	-0.732707	0.043928
Zn3	Zn	-0.599346	-1.232622	-0.321248
Zn4	Zn	-0.099346	-0.732622	0.178752
Zn5	Zn	-0.422095	-1.097869	-0.321237
Zn6	Zn	0.077905	-0.597869	0.178763
Zn7	Zn	-0.599280	-1.097851	-0.456023
Zn8	Zn	-0.099280	-0.597851	0.043977
O9	O	-0.510695	-1.165262	-0.388645
O10	O	-0.010695	-0.665262	0.111355
O11	O	-0.445591	-1.345528	-0.438212
O12	O	0.054409	-0.845528	0.061788
O13	O	-0.575876	-1.214718	-0.208414
O14	O	-0.075876	-0.714718	0.291586
O15	O	-0.273743	-1.115799	-0.339139
O16	O	0.226257	-0.615799	0.160861
O17	O	-0.575842	-1.345465	-0.339158
O18	O	-0.075842	-0.845465	0.160842
O19	O	-0.273718	-1.214864	-0.438201
O20	O	0.226282	-0.714864	0.061799
O21	O	-0.445650	-1.115716	-0.208406
O22	O	0.054350	-0.615716	0.291594
O23	O	-0.445585	-0.985034	-0.339091
O24	O	0.054415	-0.485034	0.160909
O25	O	-0.575729	-1.115768	-0.568862
O26	O	-0.075729	-0.615768	-0.068862
O27	O	-0.575762	-0.985021	-0.438118
O28	O	-0.075762	-0.485021	0.061882
O29	O	-0.445527	-1.214846	-0.568898
O30	O	0.054473	-0.714846	-0.068898
O31	O	-0.747685	-1.214701	-0.339111
O32	O	-0.247685	-0.714701	0.160889
O33	O	-0.747636	-1.115685	-0.438129
O34	O	-0.247636	-0.615685	0.061871
C35	C	-0.510671	-0.955771	-0.388599
C36	C	-0.010671	-0.455771	0.111401
C37	C	-0.510686	-0.866150	-0.388598
C38	C	-0.010686	-0.366150	0.111402
C39	C	-0.510687	-0.793368	-0.388605
C40	C	-0.010687	-0.293368	0.111395
C41	C	-0.510691	-0.702059	-0.388622
C42	C	-0.010691	-0.202059	0.111378
C43	C	-0.510700	-0.629283	-0.388639
C44	C	-0.010700	-0.129283	0.111361
C45	C	-0.510705	-0.537969	-0.388655
C46	C	-0.010705	-0.037969	0.111345
C47	C	-0.786125	-1.165203	-0.388634
C48	C	-0.286125	-0.665203	0.111366
C49	C	-0.903955	-1.165252	-0.388656
C50	C	-0.403955	-0.665252	0.111344
C51	C	-1.071532	-1.103218	-0.451140
C52	C	-0.571532	-0.603218	0.048860
C53	C	-0.948973	-1.102901	-0.450940
C54	C	-0.448973	-0.602901	0.049060
C55	C	-0.948548	-1.142250	-0.303678
C56	C	-0.448548	-0.642250	0.196322
C57	C	-1.071146	-1.141872	-0.304057
C58	C	-0.571146	-0.641872	0.195943
C59	C	-1.071046	-1.250667	-0.410460
C60	C	-0.571046	-0.750667	0.089540
C61	C	-0.948439	-1.250144	-0.412318
C62	C	-0.448439	-0.750144	0.087682
C63	C	-0.234190	-1.165343	-0.388674
C64	C	0.265810	-0.665343	0.111326
C65	C	-0.116360	-1.165378	-0.388686
C66	C	0.383640	-0.665378	0.111314
C67	C	-0.510616	-1.165315	-0.598954
C68	C	-0.010616	-0.665315	-0.098954
C69	C	-0.510583	-1.165337	-0.688575
C70	C	-0.010583	-0.665337	-0.188575
C71	C	-0.510716	-0.375571	-0.388682
C72	C	-0.010716	0.124429	0.111318
C73	C	-0.510714	-0.465192	-0.388673
C74	C	-0.010714	0.034808	0.111327
C75	C	-0.510464	-1.165374	-1.016751
C76	C	-0.010464	-0.665374	-0.516751
C77	C	-0.510500	-1.165362	-0.925443
C78	C	-0.010500	-0.665362	-0.425443
C79	C	-0.510524	-1.165356	-0.852666
C80	C	-0.010524	-0.665356	-0.352666
C81	C	-0.510559	-1.165343	-0.761352
C82	C	-0.010559	-0.665343	-0.261352
C83	C	-0.510698	-1.165256	-0.179154
C84	C	-0.010698	-0.665256	0.320846
C85	C	-0.510433	-1.165390	-0.089534
C86	C	-0.010433	-0.665390	0.410466
H87	H	-0.918820	-1.117292	-0.513950
H88	H	-0.418820	-0.617292	-0.013950
H89	H	-0.919737	-1.039671	-0.436513
H90	H	-0.419737	-0.539671	0.063487
H91	H	-1.100803	-1.185182	-0.255937
H92	H	-0.600803	-0.685182	0.244063
H93	H	-1.099836	-1.079525	-0.285613
H94	H	-0.599836	-0.579525	0.214387
C95	C	-1.110204	-1.313233	-0.349018
C96	C	-0.610204	-0.813233	0.150982
H97	H	-1.082556	-1.364646	-0.362486
H98	H	-0.582556	-0.864646	0.137514
H99	H	-1.185272	-1.315154	-0.349929
H100	H	-0.685272	-0.815154	0.150071
H101	H	-1.086925	-1.298499	-0.296727
H102	H	-0.586925	-0.798499	0.203273
H103	H	-0.919389	-1.186089	-0.255873
H104	H	-0.419389	-0.686089	0.244127
H105	H	-0.917935	-1.080553	-0.284901
H106	H	-0.417935	-0.580553	0.215099
C107	C	-1.112704	-1.279017	-0.492748
C108	C	-0.612704	-0.779017	0.007252
H109	H	-1.084414	-1.330592	-0.504740
H110	H	-0.584414	-0.830592	-0.004740
H111	H	-1.091714	-1.241888	-0.533120
H112	H	-0.591714	-0.741888	-0.033120
H113	H	-1.187694	-1.282070	-0.491145
H114	H	-0.687694	-0.782070	0.008855
C115	C	-1.111396	-1.122401	-0.536524
C116	C	-0.611396	-0.622401	-0.036524
H117	H	-1.155726	-1.168496	-0.534854
H118	H	-0.655726	-0.668496	-0.034854
H119	H	-1.052774	-1.132658	-0.570777
H120	H	-0.552774	-0.632658	-0.070777
H121	H	-1.150344	-1.077864	-0.556608
H122	H	-0.650344	-0.577864	-0.056608
C123	C	-0.909049	-1.273588	-0.496796
C124	C	-0.409049	-0.773588	0.003204
H125	H	-0.865669	-1.231823	-0.517563
H126	H	-0.365669	-0.731823	-0.017563
H127	H	-0.967928	-1.281465	-0.531376
H128	H	-0.467928	-0.781465	-0.031376
H129	H	-0.869222	-1.321937	-0.493559
H130	H	-0.369222	-0.821937	0.006441
C131	C	-0.907057	-1.316002	-0.355336
C132	C	-0.407057	-0.816002	0.144664
H133	H	-0.861911	-1.292482	-0.316191
H134	H	-0.361911	-0.792482	0.183809
H135	H	-0.868692	-1.354882	-0.385403
H136	H	-0.368692	-0.854882	0.114597
H137	H	-0.965050	-1.341263	-0.329238
H138	H	-0.465050	-0.841263	0.170762
C139	C	-1.113260	-1.018332	-0.431901
C140	C	-0.613260	-0.518332	0.068099
H141	H	-1.157879	-1.020608	-0.385970
H142	H	-0.657879	-0.520608	0.114030
H143	H	-1.152258	-0.998531	-0.476522
H144	H	-0.652258	-0.498531	0.023478
H145	H	-1.055378	-0.983489	-0.421321
H146	H	-0.555378	-0.483489	0.078679
