data_functionalizedCrystal
_audit_creation_method	'MofGen! by Chris Wilmer'
_symmetry_space_group_name_H-M	'P1'
_symmetry_Int_Tables_number	1
_symmetry_cell_setting	triclinic
loop_
_symmetry_equiv_pos_as_xyz
  x,y,z
_cell_length_a	17.019372
_cell_length_b	17.038272
_cell_length_c	10.868271
_cell_angle_alpha	89.994627
_cell_angle_beta	93.872102
_cell_angle_gamma	87.242864
loop_
_atom_site_label
_atom_site_type_symbol
_atom_site_fract_x
_atom_site_fract_y
_atom_site_fract_z
O1	O	1.053348	0.099573	0.009191
O2	O	1.553348	0.599573	0.509191
O3	O	0.824539	0.112280	-0.015035
O4	O	1.324539	0.612280	0.484965
O5	O	0.937584	-0.007888	-0.003056
O6	O	1.437584	0.492112	0.496944
O7	O	0.940304	0.219741	-0.002787
O8	O	1.440304	0.719741	0.497213
O9	O	0.937574	-0.007892	0.201588
O10	O	1.437574	0.492108	0.701588
O11	O	0.824529	0.112276	0.189609
O12	O	1.324529	0.612276	0.689609
O13	O	1.053338	0.099569	0.213835
O14	O	1.553338	0.599569	0.713835
Zn15	Zn	0.938932	0.105921	0.234213
Zn16	Zn	1.438932	0.605921	0.734213
Zn17	Zn	0.938945	0.105927	-0.035413
Zn18	Zn	1.438945	0.605927	0.464587
O19	O	0.940293	0.219736	0.201856
O20	O	1.440293	0.719736	0.701856
C21	C	0.795113	0.111797	0.084172
C22	C	1.295113	0.611797	0.584172
C23	C	0.707447	0.110355	0.074890
C24	C	1.207447	0.610355	0.574890
C25	C	0.935105	-0.037016	0.099004
C26	C	1.435105	0.462984	0.599004
C27	C	0.927725	-0.123802	0.098222
C28	C	1.427725	0.376198	0.598222
C29	C	0.211628	0.102173	0.016717
C30	C	0.711628	0.602173	0.516717
C31	C	0.293999	0.103528	0.025454
C32	C	0.793999	0.603528	0.525454
C33	C	0.335171	0.104209	0.141376
C34	C	0.835171	0.604209	0.641376
C35	C	0.293968	0.103527	0.248566
C36	C	0.793968	0.603527	0.748566
C37	C	0.211598	0.102166	0.239827
C38	C	0.711598	0.602166	0.739827
C39	C	0.583874	0.108312	0.173342
C40	C	1.083874	0.608312	0.673342
C41	C	0.666249	0.109675	0.182073
C42	C	1.166249	0.609675	0.682073
C43	C	0.666275	0.109675	-0.041040
C44	C	1.166275	0.609675	0.458960
C45	C	0.583904	0.108319	-0.049768
C46	C	1.083904	0.608319	0.450232
C47	C	0.542708	0.107633	0.057422
C48	C	1.042708	0.607633	0.557422
C49	C	0.419368	0.105597	0.150310
C50	C	0.919368	0.605597	0.650310
C51	C	0.458513	0.106240	0.048487
C52	C	0.958513	0.606240	0.548487
C53	C	0.995484	-0.173976	0.105398
C54	C	1.495484	0.326024	0.605398
C55	C	0.988545	-0.255521	0.104651
C56	C	1.488545	0.244479	0.604651
C57	C	0.913846	-0.286889	0.096738
C58	C	1.413846	0.213111	0.596738
C59	C	0.846081	-0.236709	0.089558
C60	C	1.346081	0.263291	0.589558
C61	C	0.853021	-0.155166	0.090296
C62	C	1.353021	0.344834	0.590296
C63	C	0.889328	-0.532626	0.094125
C64	C	1.389328	-0.032626	0.594125
C65	C	0.882393	-0.614175	0.093392
C66	C	1.382393	-0.114175	0.593392
C67	C	1.024857	-0.632981	0.108483
C68	C	1.524857	-0.132981	0.608483
C69	C	1.031791	-0.551436	0.109227
C70	C	1.531791	-0.051436	0.609227
C71	C	0.964026	-0.501263	0.102041
C72	C	1.464026	-0.001263	0.602041
C73	C	0.906751	-0.370241	0.095979
C74	C	1.406751	0.129759	0.595979
C75	C	0.971122	-0.417913	0.102791
C76	C	1.471122	0.082087	0.602791
C77	C	1.082764	0.100052	0.114625
C78	C	1.582764	0.600052	0.614625
C79	C	1.170430	0.101494	0.123899
C80	C	1.670430	0.601494	0.623899
C81	C	0.942772	0.248865	0.099794
C82	C	1.442772	0.748865	0.599794
C83	C	0.950152	0.335651	0.100567
C84	C	1.450152	0.835651	0.600567
N85	N	0.938928	0.105917	0.418227
N86	N	1.438928	0.605917	0.918227
N87	N	0.938955	0.105926	-0.219426
N88	N	1.438955	0.605926	0.280574
C89	C	0.938941	0.105926	0.669235
C90	C	1.438941	0.605926	1.169235
C91	C	0.938932	0.105923	0.529556
C92	C	1.438932	0.605923	1.029556
H93	H	0.178111	0.101625	-0.077679
H94	H	0.678111	0.601625	0.422321
Cl95	Cl	0.718007	0.110530	0.327813
Cl96	Cl	1.218007	0.610530	0.827813
Cl97	Cl	1.073732	-0.318594	0.113676
Cl98	Cl	1.573732	0.181406	0.613676
H99	H	0.327539	0.104077	-0.061825
H100	H	0.827539	0.604077	0.438175
H101	H	1.092618	-0.525902	0.115671
H102	H	1.592618	-0.025902	0.615671
H103	H	0.550343	0.107742	0.260624
H104	H	1.050343	0.607742	0.760624
H105	H	1.080027	-0.673841	0.114331
H106	H	1.580027	-0.173841	0.614331
H107	H	0.452899	0.106152	0.244693
H108	H	0.952899	0.606152	0.744693
H109	H	0.424987	0.105683	-0.045896
H110	H	0.924987	0.605683	0.454104
H111	H	0.785260	-0.262256	0.083107
H112	H	1.285260	0.237744	0.583107
Cl113	Cl	0.345727	0.104381	0.394297
Cl114	Cl	0.845727	0.604381	0.894297
H115	H	0.821561	-0.639711	0.086968
H116	H	1.321561	-0.139711	0.586968
H117	H	0.797844	-0.114314	0.084453
H118	H	1.297844	0.385686	0.584453
Cl119	Cl	0.532151	0.107464	-0.195504
Cl120	Cl	1.032151	0.607464	0.304496
H121	H	1.056312	-0.148443	0.111849
H122	H	1.556312	0.351557	0.611849
H123	H	1.031941	-0.392369	0.109207
H124	H	1.531941	0.107631	0.609207
H125	H	0.699826	0.110233	-0.128308
H126	H	1.199826	0.610233	0.371692
Cl127	Cl	0.159807	0.101305	0.374577
Cl128	Cl	0.659807	0.601305	0.874577
Cl129	Cl	0.804137	-0.469561	0.085088
Cl130	Cl	1.304137	0.030439	0.585088
Cl131	Cl	0.812846	-0.409683	0.086025
Cl132	Cl	1.312846	0.090317	0.586025
