data_functionalizedCrystal
_audit_creation_method	'MofGen! by Chris Wilmer'
_symmetry_space_group_name_H-M	'P1'
_symmetry_Int_Tables_number	1
_symmetry_cell_setting	triclinic
loop_
_symmetry_equiv_pos_as_xyz
  x,y,z
_cell_length_a	15.995300
_cell_length_b	15.072220
_cell_length_c	10.654541
_cell_angle_alpha	89.990847
_cell_angle_beta	96.022132
_cell_angle_gamma	90.005543
loop_
_atom_site_label
_atom_site_type_symbol
_atom_site_fract_x
_atom_site_fract_y
_atom_site_fract_z
O1	O	1.111948	0.073815	-0.161581
O2	O	0.868283	0.073809	-0.181636
O3	O	0.995719	0.073807	0.011206
O4	O	0.984512	0.073817	-0.354423
O5	O	0.995710	-0.073758	0.011229
O6	O	0.868275	-0.073756	-0.181613
O7	O	1.111939	-0.073750	-0.161557
Zn8	Zn	0.990106	-0.097182	-0.171581
Zn9	Zn	0.990117	0.097241	-0.171612
O10	O	0.984504	-0.073748	-0.354399
C11	C	0.837079	0.000026	-0.180806
C12	C	0.744112	0.000024	-0.178354
N13	N	0.990104	-0.229871	-0.171560
C14	C	0.573903	0.000031	-0.173825
C15	C	0.527233	0.000032	-0.311133
C16	C	0.430531	0.000370	-0.308628
C17	C	0.406320	0.000036	-0.169368
C18	C	0.447062	0.084135	-0.101258
C19	C	0.543716	0.084203	-0.104733
C20	C	0.543973	-0.083612	-0.102673
C21	C	0.447029	-0.084715	-0.102686
C22	C	0.311610	0.000042	-0.166842
C23	C	0.668613	0.000030	-0.176348
C24	C	0.990118	-0.589073	-0.171602
C25	C	1.058531	-0.551439	-0.068761
C26	C	1.058349	-0.448614	-0.068381
C27	C	0.990111	-0.410869	-0.171581
C28	C	0.902587	-0.448214	-0.142987
C29	C	0.902991	-0.551072	-0.142260
C30	C	1.008444	-0.551145	-0.303342
C31	C	1.010421	-0.448281	-0.302458
C32	C	0.990103	-0.310155	-0.171572
C33	C	0.990121	-0.689786	-0.171609
C34	C	1.143144	0.000035	-0.162387
C35	C	1.236111	0.000043	-0.164839
C36	C	0.994892	0.000025	0.058005
C37	C	0.992432	0.000026	0.197415
N38	N	0.990125	0.229930	-0.171624
C39	C	0.985330	0.000036	-0.401198
C40	C	0.987791	0.000041	-0.540609
C41	C	1.144816	0.000018	0.227418
C42	C	1.219848	0.000012	0.307913
C43	C	1.217531	0.000015	0.438900
C44	C	1.140173	0.000026	0.489394
C45	C	1.065140	0.000032	0.408899
C46	C	1.067466	0.000027	0.277911
C47	C	0.912758	0.000046	0.378897
C48	C	0.915074	0.000037	0.247909
C49	C	0.835400	0.000057	0.429390
C50	C	0.760366	0.000057	0.348895
C51	C	0.762686	0.000053	0.217901
C52	C	0.840041	0.000043	0.167414
H53	H	0.402375	-0.059902	-0.362147
C54	C	0.832850	0.000058	0.573472
H55	H	0.888615	0.000043	0.614182
H56	H	0.804194	0.051519	0.597557
H57	H	0.804177	-0.051406	0.597567
H58	H	0.697387	0.000072	0.390019
H59	H	0.547161	0.060253	-0.365500
H60	H	0.575167	-0.084424	-0.001438
C61	C	0.941065	-0.584026	-0.406732
H62	H	0.901951	-0.620691	-0.369861
H63	H	0.912502	-0.534571	-0.446390
H64	H	0.967176	-0.617123	-0.467712
H65	H	1.123385	-0.423363	-0.085405
C66	C	0.680149	0.000059	0.129366
H67	H	0.633751	0.000061	0.178203
H68	H	0.677893	0.051515	0.077626
H69	H	0.677876	-0.051409	0.077662
H70	H	0.850514	-0.575968	-0.214318
C71	C	0.842597	0.000045	0.023334
H72	H	0.899413	0.000045	0.004795
H73	H	0.814973	-0.051409	-0.011838
H74	H	0.814995	0.051516	-0.011842
C75	C	0.572008	-0.169753	-0.163724
H76	H	0.553315	-0.219419	-0.119372
H77	H	0.548420	-0.172134	-0.249276
H78	H	0.631593	-0.170852	-0.160172
H79	H	1.123784	-0.576167	-0.085509
C80	C	0.552643	-0.081418	-0.385675
H81	H	0.591946	-0.116155	-0.333733
H82	H	0.504190	-0.116053	-0.411077
H83	H	0.577492	-0.062293	-0.458199
H84	H	1.046910	-0.577301	0.028450
C85	C	0.427210	0.088047	0.036969
H86	H	0.393815	0.038309	0.054409
H87	H	0.478193	0.087130	0.091407
H88	H	0.397358	0.141114	0.050359
H89	H	0.402996	0.061009	-0.361935
H90	H	1.046561	-0.424020	0.029384
C91	C	0.409132	0.169010	-0.164403
H92	H	0.434190	0.219548	-0.122513
H93	H	0.419584	0.169971	-0.250528
H94	H	0.350219	0.169879	-0.159107
H95	H	0.562323	0.147309	-0.153839
H96	H	0.886955	-0.575076	-0.046185
C97	C	1.147368	0.000012	0.083337
H98	H	1.204182	0.000010	0.064793
H99	H	1.119742	-0.051443	0.048176
H100	H	1.119765	0.051482	0.048155
C101	C	0.832108	-0.415184	-0.241469
H102	H	0.855491	-0.378232	-0.301039
H103	H	0.805139	-0.464567	-0.283758
H104	H	0.792219	-0.382355	-0.200362
C105	C	0.880412	-0.413441	-0.014675
H106	H	0.827333	-0.436408	0.001783
H107	H	0.922192	-0.431985	0.049959
H108	H	0.878019	-0.350471	-0.016618
H109	H	1.138293	0.000039	0.596052
C110	C	1.304937	-0.000004	0.252374
H111	H	1.349291	-0.000000	0.319075
H112	H	1.309001	-0.051465	0.201913
H113	H	1.309020	0.051460	0.201888
C114	C	0.410486	-0.168768	-0.169873
H115	H	0.370581	-0.152289	-0.238272
H116	H	0.454545	-0.201779	-0.200882
H117	H	0.383768	-0.204082	-0.111914
C118	C	0.425488	-0.091939	0.034459
H119	H	0.391242	-0.043138	0.052933
H120	H	0.396055	-0.145747	0.044812
H121	H	0.475879	-0.091370	0.090246
H122	H	1.278629	0.000017	0.504440
H123	H	1.070944	-0.577077	-0.330830
C124	C	1.097402	-0.415302	-0.331784
H125	H	1.121244	-0.378880	-0.264560
H126	H	1.133087	-0.464727	-0.341032
H127	H	1.091530	-0.381930	-0.407848
H128	H	0.963880	-0.422585	-0.382570
H129	H	0.575404	0.087794	-0.003907
