data_functionalizedCrystal
_audit_creation_method	'MofGen! by Chris Wilmer'
_symmetry_space_group_name_H-M	'P1'
_symmetry_Int_Tables_number	1
_symmetry_cell_setting	triclinic
loop_
_symmetry_equiv_pos_as_xyz
  x,y,z
_cell_length_a	21.395362
_cell_length_b	15.297327
_cell_length_c	21.395356
_cell_angle_alpha	99.651288
_cell_angle_beta	89.964230
_cell_angle_gamma	99.725883
loop_
_atom_site_label
_atom_site_type_symbol
_atom_site_fract_x
_atom_site_fract_y
_atom_site_fract_z
Zn1	Zn	0.914695	-0.358847	-0.397684
Zn2	Zn	1.248028	-0.025514	-0.064351
Zn3	Zn	1.581362	0.307820	0.268982
Zn4	Zn	0.896486	-0.509718	-0.311027
Zn5	Zn	1.229819	-0.176385	0.022306
Zn6	Zn	1.563153	0.156948	0.355640
Zn7	Zn	0.809918	-0.358908	-0.292893
Zn8	Zn	1.143251	-0.025574	0.040440
Zn9	Zn	1.476584	0.307759	0.373774
Zn10	Zn	0.791753	-0.509718	-0.415732
Zn11	Zn	1.125086	-0.176385	-0.082398
Zn12	Zn	1.458419	0.156948	0.250935
O13	O	0.853213	-0.434298	-0.354334
O14	O	1.186546	-0.100964	-0.021001
O15	O	1.519879	0.232369	0.312333
O16	O	0.999960	-0.378835	-0.386225
O17	O	1.333294	-0.045502	-0.052892
O18	O	1.666627	0.287832	0.280441
O19	O	0.884984	-0.489738	-0.220947
O20	O	1.218317	-0.156405	0.112387
O21	O	1.551651	0.176928	0.445720
O22	O	0.839039	-0.232645	-0.291652
O23	O	1.172373	0.100689	0.041682
O24	O	1.505706	0.434022	0.375015
O25	O	0.986582	-0.489680	-0.322559
O26	O	1.319916	-0.156346	0.010775
O27	O	1.653249	0.176987	0.344108
O28	O	0.916019	-0.232600	-0.368641
O29	O	1.249352	0.100733	-0.035308
O30	O	1.582685	0.434067	0.298025
O31	O	0.821383	-0.378938	-0.207624
O32	O	1.154716	-0.045605	0.125710
O33	O	1.488049	0.287728	0.459043
O34	O	0.719827	-0.378938	-0.309151
O35	O	1.053160	-0.045605	0.024182
O36	O	1.386494	0.287728	0.357515
O37	O	0.808080	-0.489679	-0.501013
O38	O	1.141413	-0.156346	-0.167679
O39	O	1.474746	0.176987	0.165654
O40	O	0.706481	-0.489738	-0.399401
O41	O	1.039815	-0.156405	-0.066067
O42	O	1.373148	0.176928	0.267266
O43	O	0.898405	-0.378835	-0.487753
O44	O	1.231738	-0.045502	-0.154420
O45	O	1.565072	0.287832	0.178913
O46	O	0.867370	-0.635973	-0.340058
O47	O	1.200703	-0.302640	-0.006725
O48	O	1.534037	0.030693	0.326608
O49	O	0.790423	-0.635973	-0.416984
O50	O	1.123756	-0.302640	-0.083651
O51	O	1.457090	0.030693	0.249682
C52	C	0.690419	-0.434346	-0.354267
C53	C	1.023753	-0.101012	-0.020934
C54	C	1.357086	0.232321	0.312400
C55	C	0.620773	-0.434388	-0.354256
C56	C	0.954106	-0.101054	-0.020923
C57	C	1.287440	0.232279	0.312411
C58	C	0.581118	-0.492158	-0.401198
C59	C	0.914451	-0.158824	-0.067864
C60	C	1.247785	0.174509	0.265469
C61	C	0.515685	-0.492136	-0.401223
C62	C	0.849019	-0.158802	-0.067890
C63	C	1.182352	0.174531	0.265444
C64	C	0.489909	-0.434353	-0.354296
C65	C	0.823242	-0.101020	-0.020963
C66	C	1.156576	0.232314	0.312370
C67	C	0.529573	-0.376572	-0.307350
C68	C	0.862907	-0.043238	0.025983
C69	C	1.196240	0.290095	0.359316
C70	C	0.595005	-0.376589	-0.307330
C71	C	0.928339	-0.043256	0.026003
C72	C	1.261672	0.290078	0.359337
C73	C	0.387064	-0.427095	-0.297019
C74	C	0.720398	-0.093761	0.036314
C75	C	1.053731	0.239572	0.369647
C76	C	0.321633	-0.427084	-0.297039
C77	C	0.654966	-0.093750	0.036294
C78	C	0.988299	0.239583	0.369627
C79	C	0.288095	-0.434294	-0.354358
C80	C	0.621429	-0.100961	-0.021025
C81	C	0.954762	0.232373	0.312308
C82	C	0.319995	-0.441534	-0.411662
C83	C	0.653329	-0.108201	-0.078328
C84	C	0.986662	0.225132	0.255005
C85	C	0.385427	-0.441552	-0.411641
C86	C	0.718761	-0.108219	-0.078308
C87	C	1.052094	0.225115	0.255025
C88	C	0.418960	-0.434327	-0.354313
C89	C	0.752293	-0.100994	-0.020980
C90	C	1.085626	0.232339	0.312353
C91	C	0.177490	-0.492043	-0.401331
C92	C	0.510824	-0.158710	-0.067998
C93	C	0.844157	0.174624	0.265335
C94	C	0.112057	-0.492015	-0.401357
C95	C	0.445390	-0.158681	-0.068024
C96	C	0.778724	0.174652	0.265310
C97	C	0.125946	-0.376456	-0.307479
C98	C	0.459279	-0.043122	0.025854
C99	C	0.792612	0.290211	0.359187
C100	C	0.191378	-0.376479	-0.307459
C101	C	0.524712	-0.043146	0.025875
C102	C	0.858045	0.290187	0.359208
C103	C	0.217146	-0.434278	-0.354385
C104	C	0.550479	-0.100945	-0.021051
C105	C	0.883813	0.232389	0.312282
C106	C	0.824966	-0.668710	-0.382461
C107	C	1.158300	-0.335376	-0.049128
C108	C	1.491633	-0.002043	0.284205
C109	C	0.812940	-0.768992	-0.394515
C110	C	1.146273	-0.435659	-0.061182
C111	C	1.479607	-0.102326	0.272151
C112	C	0.939427	-1.051546	-0.268396
C113	C	1.272760	-0.718213	0.064937
C114	C	1.606093	-0.384880	0.398270
C115	C	0.950726	-0.957326	-0.257068
C116	C	1.284059	-0.623993	0.076265
C117	C	1.617393	-0.290660	0.409599
C118	C	0.916281	-0.910238	-0.291429
C119	C	1.249614	-0.576905	0.041904
C120	C	1.582947	-0.243571	0.375238
C121	C	0.870534	-0.957380	-0.337120
C122	C	1.203867	-0.624046	-0.003787
C123	C	1.537200	-0.290713	0.329547
C124	C	0.859230	-1.051609	-0.348446
C125	C	1.192563	-0.718276	-0.015113
C126	C	1.525897	-0.384942	0.318221
C127	C	0.836084	-0.910301	-0.371479
C128	C	1.169417	-0.576967	-0.038145
C129	C	1.502750	-0.243634	0.295188
C130	C	0.790337	-0.957442	-0.417170
C131	C	1.123670	-0.624109	-0.083836
C132	C	1.457003	-0.290775	0.249497
C133	C	0.779035	-1.051662	-0.428494
C134	C	1.112369	-0.718329	-0.095161
C135	C	1.445702	-0.384996	0.238173
C136	C	0.813481	-1.098751	-0.394133
C137	C	1.146814	-0.765417	-0.060800
C138	C	1.480147	-0.432084	0.272533
C139	C	0.847388	-0.816071	-0.360153
C140	C	1.180721	-0.482738	-0.026819
C141	C	1.514054	-0.149404	0.306514
C142	C	0.767191	-0.816134	-0.440202
C143	C	1.100524	-0.482800	-0.106869
C144	C	1.433857	-0.149467	0.226464
C145	C	0.755891	-0.910354	-0.451531
C146	C	1.089225	-0.577021	-0.118197
C147	C	1.422558	-0.243687	0.215136
C148	C	1.016642	-0.434251	-0.354402
C149	C	1.349975	-0.100917	-0.021068
C150	C	1.683308	0.232416	0.312265
C151	C	1.086285	-0.434230	-0.354430
C152	C	1.419619	-0.100897	-0.021097
C153	C	1.752952	0.232436	0.312236
C154	C	0.853247	-0.434250	-0.517752
C155	C	1.186581	-0.100917	-0.184418
C156	C	1.519914	0.232416	0.148915
C157	C	0.853262	-0.434230	-0.587390
C158	C	1.186595	-0.100897	-0.254057
C159	C	1.519929	0.232436	0.079276
C160	C	0.881586	-0.198970	-0.326111
C161	C	1.214920	0.134363	0.007223
C162	C	1.548253	0.467696	0.340556
C163	C	0.893678	-0.098688	-0.314083
C164	C	1.227011	0.234645	0.019250
C165	C	1.560344	0.567979	0.352583
C166	C	0.886472	-0.491735	-1.096102
C167	C	1.219805	-0.158401	-0.762769
C168	C	1.553139	0.174932	-0.429435
C169	C	0.886457	-0.491763	-1.030670
C170	C	1.219791	-0.158430	-0.697337
C171	C	1.553124	0.174903	-0.364003
C172	C	0.853339	-0.434087	-0.991012
C173	C	1.186672	-0.100754	-0.657679
C174	C	1.520005	0.232580	-0.324345
C175	C	0.820219	-0.376394	-1.016793
C176	C	1.153552	-0.043061	-0.683459
C177	C	1.486886	0.290272	-0.350126
C178	C	0.820229	-0.376374	-1.082224
C179	C	1.153563	-0.043041	-0.748891
C180	C	1.486896	0.290293	-0.415558
C181	C	0.858175	-0.352835	-0.877596
C182	C	1.191509	-0.019502	-0.544263
C183	C	1.524842	0.313832	-0.210930
C184	C	0.858170	-0.352854	-0.812166
C185	C	1.191503	-0.019521	-0.478832
C186	C	1.524836	0.313813	-0.145499
C187	C	0.853303	-0.434151	-0.789199
C188	C	1.186636	-0.100818	-0.455865
C189	C	1.519970	0.232516	-0.122532
C190	C	0.848455	-0.515432	-0.831671
C191	C	1.181788	-0.182098	-0.498337
C192	C	1.515122	0.151235	-0.165004
C193	C	0.848465	-0.515411	-0.897103
C194	C	1.181799	-0.182078	-0.563769
C195	C	1.515132	0.151256	-0.230436
C196	C	0.853323	-0.434103	-0.920061
C197	C	1.186657	-0.100770	-0.586728
C198	C	1.519990	0.232563	-0.253395
C199	C	0.886401	-0.491876	-0.692477
C200	C	1.219734	-0.158542	-0.359144
C201	C	1.553068	0.174791	-0.025810
C202	C	0.886382	-0.491906	-0.627044
C203	C	1.219715	-0.158572	-0.293711
C204	C	1.553048	0.174761	0.039623
C205	C	0.820148	-0.376529	-0.613167
C206	C	1.153481	-0.043196	-0.279834
C207	C	1.486814	0.290138	0.053500
C208	C	0.820163	-0.376507	-0.678600
C209	C	1.153496	-0.043174	-0.345266
C210	C	1.486829	0.290160	-0.011933
C211	C	0.853293	-0.434179	-0.718251
C212	C	1.186626	-0.100846	-0.384917
C213	C	1.519959	0.232488	-0.051584
C214	C	0.853222	-0.434280	-0.191544
C215	C	1.186556	-0.100947	0.141789
C216	C	1.519889	0.232387	0.475122
C217	C	0.853360	-0.434046	-0.121875
C218	C	1.186693	-0.100713	0.211458
C219	C	1.520026	0.232621	0.544791
H220	H	0.602094	-0.539221	-0.439409
H221	H	0.935427	-0.205887	-0.106076
H222	H	1.268760	0.127446	0.227257
H223	H	0.844516	-0.581593	-0.931681
H224	H	1.177850	-0.248259	-0.598348
H225	H	1.511183	0.085074	-0.265014
O226	O	0.801292	-1.200378	-0.406356
O227	O	1.134626	-0.867044	-0.073023
O228	O	1.467959	-0.533711	0.260310
H229	H	0.751051	-1.225309	-0.396636
H230	H	1.084384	-0.891976	-0.063303
H231	H	1.417718	-0.558643	0.270030
O232	O	0.283829	-0.449296	-0.473486
O233	O	0.617162	-0.115963	-0.140153
O234	O	0.950496	0.217370	0.193180
H235	H	0.303352	-0.391989	-0.497429
H236	H	0.636686	-0.058656	-0.164095
H237	H	0.970019	0.274678	0.169238
O238	O	0.205292	-0.554366	-0.451947
O239	O	0.538626	-0.221033	-0.118614
O240	O	0.871959	0.112300	0.214719
H241	H	0.166723	-0.594524	-0.484602
H242	H	0.500056	-0.261190	-0.151268
H243	H	0.833390	0.072143	0.182065
O244	O	0.637778	-0.314277	-0.256694
O245	O	0.971111	0.019056	0.076639
O246	O	1.304444	0.352389	0.409972
H247	H	0.687607	-0.323995	-0.264566
H248	H	1.020940	0.009338	0.068768
H249	H	1.354273	0.342671	0.402101
H250	H	0.913432	-0.538730	-1.009680
H251	H	1.246765	-0.205397	-0.676347
H252	H	1.580099	0.127937	-0.343013
H253	H	0.844493	-0.581632	-0.812974
H254	H	1.177827	-0.248298	-0.479640
H255	H	1.511160	0.085035	-0.146307
O256	O	0.069266	-0.554445	-0.451921
O257	O	0.402600	-0.221112	-0.118587
O258	O	0.735933	0.112221	0.214746
H259	H	0.098174	-0.594686	-0.484516
H260	H	0.431508	-0.261352	-0.151183
H261	H	0.764841	0.071981	0.182150
H262	H	0.295664	-0.421194	-0.250380
H263	H	0.628997	-0.087860	0.082953
H264	H	0.962331	0.245473	0.416287
O265	O	0.729689	-1.102514	-0.477768
O266	O	1.063023	-0.769180	-0.144435
O267	O	1.396356	-0.435847	0.188899
H268	H	0.742583	-1.084380	-0.524777
H269	H	1.075916	-0.751047	-0.191444
H270	H	1.409250	-0.417714	0.141890
H271	H	0.718644	-0.948750	-0.488733
H272	H	1.051977	-0.615417	-0.155399
H273	H	1.385310	-0.282083	0.177934
H274	H	0.739141	-0.777795	-0.468181
H275	H	1.072474	-0.444462	-0.134847
H276	H	1.405808	-0.111129	0.198486
H277	H	0.967463	-1.089894	-0.240421
H278	H	1.300797	-0.756561	0.092912
H279	H	1.634130	-0.423228	0.426246
O280	O	0.922183	-0.553960	-1.138873
O281	O	1.255516	-0.220626	-0.805539
O282	O	1.588850	0.112707	-0.472206
H283	H	0.945196	-0.594092	-1.109955
H284	H	1.278530	-0.260758	-0.776622
H285	H	1.611863	0.072575	-0.443289
H286	H	0.913376	-0.538838	-0.724763
H287	H	1.246709	-0.205505	-0.391430
H288	H	1.580042	0.127829	-0.058096
O289	O	0.472897	-0.554481	-0.451834
O290	O	0.806231	-0.221148	-0.118501
O291	O	1.139564	0.112185	0.214832
H292	H	0.501807	-0.594689	-0.484452
H293	H	0.835140	-0.261356	-0.151119
H294	H	1.168473	0.071978	0.182214
O295	O	0.423235	-0.419319	-0.235193
O296	O	0.756569	-0.085986	0.098140
O297	O	1.089902	0.247347	0.431473
H298	H	0.390061	-0.414297	-0.195353
H299	H	0.723394	-0.080964	0.137980
H300	H	1.056728	0.252369	0.471314
O301	O	0.501775	-0.314266	-0.256723
O302	O	0.835109	0.019067	0.076610
O303	O	1.168442	0.352400	0.409944
H304	H	0.449612	-0.323973	-0.264615
H305	H	0.782945	0.009361	0.068718
H306	H	1.116279	0.342694	0.402051
O307	O	0.784427	-0.314316	-0.570403
O308	O	1.117760	0.019018	-0.237070
O309	O	1.451093	0.352351	0.096264
H310	H	0.789985	-0.324017	-0.520573
H311	H	1.123318	0.009317	-0.187239
H312	H	1.456652	0.342650	0.146094
O313	O	0.098154	-0.314137	-0.256858
O314	O	0.431488	0.019196	0.076475
O315	O	0.764821	0.352529	0.409808
H316	H	0.045992	-0.323836	-0.264754
H317	H	0.379325	0.009498	0.068579
H318	H	0.712659	0.342831	0.401912
O319	O	0.234153	-0.314194	-0.256815
O320	O	0.567486	0.019140	0.076519
O321	O	0.900820	0.352473	0.409852
H322	H	0.205237	-0.274019	-0.224181
H323	H	0.538571	0.059314	0.109153
H324	H	0.871904	0.392648	0.442486
H325	H	0.884635	-0.777697	-0.322950
H326	H	1.217968	-0.444364	0.010383
H327	H	1.551302	-0.111030	0.343716
H328	H	0.925483	-0.833520	-0.282202
H329	H	1.258816	-0.500186	0.051132
H330	H	1.592149	-0.166853	0.384465
O331	O	0.922106	-0.554119	-0.599240
O332	O	1.255440	-0.220786	-0.265906
O333	O	1.588773	0.112548	0.067427
H334	H	0.945152	-0.594205	-0.637805
H335	H	1.278485	-0.260872	-0.304472
H336	H	1.611818	0.072461	0.028861
O337	O	1.000069	-0.906480	-0.207797
O338	O	1.333402	-0.573147	0.125537
O339	O	1.666736	-0.239813	0.458870
H340	H	1.022128	-0.955050	-0.185811
H341	H	1.355461	-0.621717	0.147522
H342	H	1.688794	-0.288383	0.480855
O343	O	0.784459	-0.314273	-0.706403
O344	O	1.117792	0.019061	-0.373070
O345	O	1.451125	0.352394	-0.039737
H346	H	0.761431	-0.274164	-0.667835
H347	H	1.094765	0.059170	-0.334502
H348	H	1.428098	0.392503	-0.001168
O349	O	0.863409	-0.265192	-0.766358
O350	O	1.196742	0.068141	-0.433024
O351	O	1.530075	0.401475	-0.099691
H352	H	0.866785	-0.208659	-0.793319
H353	H	1.200119	0.124675	-0.459986
H354	H	1.533452	0.458008	-0.126652
H355	H	0.862181	-0.286623	-0.896288
H356	H	1.195514	0.046710	-0.562955
H357	H	1.528847	0.380044	-0.229622
H358	H	0.793265	-0.329395	-1.103207
H359	H	1.126598	0.003939	-0.769874
H360	H	1.459932	0.337272	-0.436541
O361	O	0.419839	-0.449342	-0.473439
O362	O	0.753172	-0.116009	-0.140106
O363	O	1.086506	0.217325	0.193227
H364	H	0.385532	-0.454344	-0.513303
H365	H	0.718866	-0.121011	-0.179970
H366	H	1.052199	0.212322	0.153364
O367	O	0.784501	-0.314179	-0.974023
O368	O	1.117835	0.019155	-0.640690
O369	O	1.451168	0.352488	-0.307357
H370	H	0.790063	-0.323876	-0.924193
H371	H	1.123397	0.009457	-0.590859
H372	H	1.456730	0.342791	-0.257526
