data_functionalizedCrystal
_audit_creation_method	'MofGen! by Chris Wilmer'
_symmetry_space_group_name_H-M	'P1'
_symmetry_Int_Tables_number	1
_symmetry_cell_setting	triclinic
loop_
_symmetry_equiv_pos_as_xyz
  x,y,z
_cell_length_a	15.944551
_cell_length_b	15.944551
_cell_length_c	14.421503
_cell_angle_alpha	90.003340
_cell_angle_beta	89.996859
_cell_angle_gamma	83.498738
loop_
_atom_site_label
_atom_site_type_symbol
_atom_site_fract_x
_atom_site_fract_y
_atom_site_fract_z
O1	O	1.114529	0.108320	-0.077017
O2	O	1.614529	0.608320	0.422983
O3	O	0.869980	0.121677	-0.077040
O4	O	1.369980	0.621677	0.422960
O5	O	0.998933	-0.007276	-0.077020
O6	O	1.498933	0.492724	0.422980
O7	O	0.985576	0.237273	-0.077038
O8	O	1.485576	0.737273	0.422962
O9	O	0.998911	-0.007257	0.077204
O10	O	1.498911	0.492743	0.577204
O11	O	0.869958	0.121696	0.077183
O12	O	1.369958	0.621696	0.577183
O13	O	1.114508	0.108340	0.077206
O14	O	1.614508	0.608340	0.577206
Cu15	Cu	0.992231	0.115020	0.091277
Cu16	Cu	1.492231	0.615020	0.591277
Cu17	Cu	0.992256	0.114997	-0.091110
Cu18	Cu	1.492256	0.614997	0.408890
O19	O	0.985555	0.237293	0.077186
O20	O	1.485555	0.737293	0.577186
C21	C	0.838675	0.121132	0.000069
C22	C	1.338675	0.621132	0.500069
C23	C	0.745429	0.119470	0.000060
C24	C	1.245429	0.619470	0.500060
C25	C	0.530572	0.035565	0.000084
C26	C	1.030572	0.535565	0.500084
C27	C	0.469563	0.074518	-0.075959
C28	C	0.969563	0.574518	0.424041
C29	C	0.574703	0.116462	0.000071
C30	C	1.074703	0.616462	0.500071
C31	C	0.469564	0.074556	0.076093
C32	C	0.969564	0.574556	0.576093
C33	C	0.409790	0.113551	0.000086
C34	C	0.909790	0.613551	0.500086
C35	C	0.514922	0.155437	-0.076035
C36	C	1.014922	0.655437	0.423965
C37	C	0.514929	0.155464	0.076086
C38	C	1.014929	0.655464	0.576086
C39	C	0.453937	0.194476	0.000024
C40	C	0.953937	0.694476	0.500024
C41	C	0.669705	0.118137	0.000062
C42	C	1.169705	0.618137	0.500062
C43	C	0.314789	0.111883	0.000089
C44	C	0.814789	0.611883	0.500089
C45	C	0.998367	-0.038561	0.000092
C46	C	1.498367	0.461439	0.500092
C47	C	0.996705	-0.131807	0.000093
C48	C	1.496705	0.368193	0.500093
C49	C	0.912801	-0.346663	0.000072
C50	C	1.412801	0.153337	0.500072
C51	C	0.951753	-0.407671	0.076117
C52	C	1.451753	0.092329	0.576117
C53	C	0.993698	-0.302533	0.000085
C54	C	1.493698	0.197467	0.500085
C55	C	0.951793	-0.407674	-0.075935
C56	C	1.451793	0.092326	0.424065
C57	C	0.990787	-0.467445	0.000074
C58	C	1.490787	0.032555	0.500074
C59	C	1.032672	-0.362312	0.076193
C60	C	1.532672	0.137688	0.576193
C61	C	1.032701	-0.362308	-0.075927
C62	C	1.532701	0.137692	0.424073
C63	C	1.071711	-0.423298	0.000136
C64	C	1.571711	0.076702	0.500136
C65	C	0.995372	-0.207530	0.000092
C66	C	1.495372	0.292470	0.500092
C67	C	0.989119	-0.562446	0.000073
C68	C	1.489119	-0.062446	0.500073
C69	C	1.145813	0.108885	0.000096
C70	C	1.645813	0.608885	0.500096
C71	C	1.239059	0.110547	0.000098
C72	C	1.739059	0.610547	0.500098
C73	C	0.986120	0.268577	0.000072
C74	C	1.486120	0.768577	0.500072
C75	C	0.987782	0.361823	0.000066
C76	C	1.487782	0.861823	0.500066
N77	N	0.992219	0.115035	0.219558
N78	N	1.492219	0.615035	0.719558
N79	N	0.992275	0.114975	-0.219392
N80	N	1.492275	0.614975	0.280608
C81	C	0.932581	0.174636	0.469202
C82	C	1.432581	0.674636	0.969202
C83	C	1.008481	0.190943	0.531011
C84	C	1.508481	0.690943	1.031011
C85	C	0.992240	0.115015	0.408719
C86	C	1.492240	0.615015	0.908719
C87	C	0.916359	0.098727	0.531005
C88	C	1.416359	0.598727	1.031005
C89	C	0.992253	0.114997	0.591441
C90	C	1.492253	0.614997	1.091441
C91	C	1.068178	0.131360	0.469167
C92	C	1.568178	0.631360	0.969167
C93	C	0.976007	0.039111	0.469156
C94	C	1.476007	0.539111	0.969156
C95	C	1.051961	0.055386	0.530936
C96	C	1.551961	0.555386	1.030936
C97	C	0.992231	0.115027	0.303458
C98	C	1.492231	0.615027	0.803458
C99	C	0.992270	0.114985	0.696700
C100	C	1.492270	0.614985	1.196700
H101	H	0.535052	0.189660	0.140373
H102	H	1.035052	0.689660	0.640373
N103	N	0.823860	-0.302537	0.000160
N104	N	1.323860	0.197463	0.500160
H105	H	0.814590	-0.266458	-0.057292
H106	H	1.314590	0.233542	0.442708
H107	H	0.782444	-0.346000	0.000823
H108	H	1.282444	0.154000	0.500823
N109	N	1.077944	-0.335844	0.161455
N110	N	1.577944	0.164156	0.661455
H111	H	1.128498	-0.307133	0.142184
H112	H	1.628498	0.192867	0.642184
H113	H	1.038261	-0.295429	0.199234
H114	H	1.538261	0.204571	0.699234
H115	H	0.534918	0.189620	-0.140394
H116	H	1.034918	0.689620	0.359606
H117	H	1.138919	-0.456457	0.000186
H118	H	1.638919	0.043543	0.500186
N119	N	0.831352	0.080491	0.566988
N120	N	1.331352	0.580491	1.066988
H121	H	0.792584	0.072761	0.513030
H122	H	1.292584	0.572761	1.013030
H123	H	0.838475	0.027276	0.605530
H124	H	1.338475	0.527276	1.105530
H125	H	0.449469	0.040333	0.140379
H126	H	0.949469	0.540333	0.640379
H127	H	0.917527	-0.427771	0.140401
H128	H	1.417527	0.072229	0.640401
N129	N	1.078004	-0.335653	-0.161078
N130	N	1.578004	0.164347	0.338922
H131	H	1.047400	-0.351962	-0.218492
H132	H	1.547400	0.148038	0.281508
H133	H	1.079259	-0.272472	-0.160034
H134	H	1.579259	0.227528	0.339966
N135	N	0.442932	0.029193	-0.161113
N136	N	0.942932	0.529193	0.338887
H137	H	0.471091	-0.030826	-0.161054
H138	H	0.971091	0.469174	0.338946
H139	H	0.379618	0.028952	-0.160736
H140	H	0.879618	0.528952	0.339264
N141	N	0.906468	-0.434301	-0.161089
N142	N	1.406468	0.065699	0.338911
H143	H	0.846452	-0.406136	-0.161023
H144	H	1.346452	0.093864	0.338977
H145	H	0.936488	-0.416995	-0.218474
H146	H	1.436488	0.083005	0.281526
N147	N	0.865813	0.241467	0.433299
N148	N	1.365813	0.741467	0.933299
H149	H	0.878193	0.298776	0.455804
H150	H	1.378193	0.798776	0.955804
H151	H	0.865944	0.240574	0.363274
H152	H	1.365944	0.740574	0.863274
N153	N	0.410006	0.283495	-0.000032
N154	N	0.910006	0.783495	0.499968
H155	H	0.426484	0.313925	-0.057496
H156	H	0.926484	0.813925	0.442504
H157	H	0.346878	0.281819	0.000549
H158	H	0.846878	0.781819	0.500549
N159	N	1.026693	0.275956	0.567002
N160	N	1.526693	0.775956	1.067002
H161	H	0.981593	0.320963	0.544552
H162	H	1.481593	0.820963	1.044552
H163	H	1.027127	0.275073	0.637025
H164	H	1.527127	0.775073	1.137025
H165	H	1.132368	0.145205	0.442119
H166	H	1.632368	0.645205	0.942119
H167	H	1.102474	0.004956	0.557872
H168	H	1.602474	0.504956	1.057872
H169	H	0.962240	-0.025051	0.441965
H170	H	1.462240	0.474949	0.941965
N171	N	0.574704	-0.053374	-0.000011
N172	N	1.074704	0.446626	0.499989
H173	H	0.610786	-0.062643	0.057440
H174	H	1.110786	0.437357	0.557440
H175	H	0.531245	-0.094793	-0.000675
H176	H	1.031245	0.405207	0.499325
