data_functionalizedCrystal
_audit_creation_method	'MofGen! by Chris Wilmer'
_symmetry_space_group_name_H-M	'P1'
_symmetry_Int_Tables_number	1
_symmetry_cell_setting	triclinic
loop_
_symmetry_equiv_pos_as_xyz
  x,y,z
_cell_length_a	12.837932
_cell_length_b	12.784890
_cell_length_c	9.130313
_cell_angle_alpha	89.999295
_cell_angle_beta	89.999771
_cell_angle_gamma	83.968131
loop_
_atom_site_label
_atom_site_type_symbol
_atom_site_fract_x
_atom_site_fract_y
_atom_site_fract_z
O1	O	1.350766	0.273820	-0.121799
O2	O	1.050179	0.260292	-0.121802
O3	O	1.222470	0.114556	-0.121793
O4	O	1.178475	0.419555	-0.121808
O5	O	1.222467	0.114560	0.121806
O6	O	1.050177	0.260296	0.121797
O7	O	1.350763	0.273824	0.121799
Cu8	Cu	1.200470	0.267060	0.144041
Cu9	Cu	1.200473	0.267055	-0.144043
O10	O	1.178473	0.419559	0.121791
C11	C	1.011969	0.255724	-0.000003
C12	C	0.898121	0.242095	-0.000003
C13	C	1.225330	0.075248	0.000005
C14	C	1.233844	-0.041883	0.000002
C15	C	0.758546	0.128186	0.000005
C16	C	0.865519	0.140984	0.000004
C17	C	0.823741	0.330415	-0.000005
C18	C	0.716769	0.317616	-0.000004
C19	C	0.684176	0.216498	-0.000001
C20	C	0.577201	0.203701	-0.000010
C21	C	0.535426	0.393130	-0.000008
C22	C	0.642398	0.405929	-0.000010
C23	C	1.340544	-0.210052	0.000000
C24	C	1.332551	-0.099997	0.000003
C25	C	1.143122	-0.093833	0.000002
C26	C	1.151114	-0.203888	-0.000001
C27	C	1.249829	-0.261994	-0.000004
C28	C	1.257821	-0.372052	-0.000017
C29	C	1.068392	-0.365886	-0.000008
C30	C	1.060399	-0.255831	-0.000005
C31	C	1.388973	0.278391	-0.000003
C32	C	1.502822	0.292020	-0.000012
C33	C	1.175613	0.458867	-0.000011
C34	C	1.167099	0.575999	-0.000017
N35	N	1.200475	0.267064	0.346663
N36	N	1.200476	0.267044	-0.346666
C37	C	1.276781	0.202558	0.423319
C38	C	1.276780	0.202545	0.576656
C39	C	1.124162	0.331553	0.576668
C40	C	1.124160	0.331559	0.423334
C41	C	1.364896	0.128080	0.423314
C42	C	1.364895	0.128067	0.576651
H43	H	0.550667	0.121366	-0.000014
H44	H	0.732009	0.045852	-0.000007
Cl45	Cl	1.381917	-0.445098	-0.000026
Cl46	Cl	1.476229	0.178303	0.349874
H47	H	1.406421	-0.057710	0.000009
Cl48	Cl	0.954343	-0.431191	-0.000015
H49	H	0.926069	0.069070	0.000009
Cl50	Cl	0.864735	0.457523	-0.000007
Cl51	Cl	1.019035	-0.020768	0.000017
Cl52	Cl	1.484127	0.167155	0.640914
Cl53	Cl	0.936308	-0.182774	-0.000001
H54	H	1.062018	0.384075	0.360922
Cl55	Cl	1.337972	0.006492	0.650078
Cl56	Cl	1.028228	0.412628	0.673062
H57	H	0.668951	0.488256	-0.000007
H58	H	0.474860	0.465041	-0.000014
Cl59	Cl	1.350123	0.000689	0.359050
Cl60	Cl	1.464638	-0.283103	-0.000028
