data_functionalizedCrystal
_audit_creation_method	'MofGen! by Chris Wilmer'
_symmetry_space_group_name_H-M	'P1'
_symmetry_Int_Tables_number	1
_symmetry_cell_setting	triclinic
loop_
_symmetry_equiv_pos_as_xyz
  x,y,z
_cell_length_a	10.723024
_cell_length_b	14.044220
_cell_length_c	9.198806
_cell_angle_alpha	89.995861
_cell_angle_beta	89.996352
_cell_angle_gamma	88.828373
loop_
_atom_site_label
_atom_site_type_symbol
_atom_site_fract_x
_atom_site_fract_y
_atom_site_fract_z
O1	O	1.670498	0.133040	-0.120888
O2	O	2.170498	0.633040	0.379112
O3	O	1.308620	0.145774	-0.120893
O4	O	1.808620	0.645774	0.379107
O5	O	1.484127	0.001387	-0.120876
O6	O	1.984127	0.501387	0.379124
O7	O	1.494991	0.277427	-0.120905
O8	O	1.994991	0.777427	0.379095
O9	O	1.484112	0.001387	0.120909
O10	O	1.984112	0.501387	0.620909
O11	O	1.308604	0.145774	0.120892
O12	O	1.808604	0.645774	0.620892
O13	O	1.670483	0.133039	0.120898
O14	O	2.170483	0.633039	0.620898
Cu15	Cu	1.489542	0.139407	0.142972
Cu16	Cu	1.989542	0.639407	0.642972
Cu17	Cu	1.489560	0.139407	-0.142967
Cu18	Cu	1.989560	0.639407	0.357033
O19	O	1.494975	0.277427	0.120881
O20	O	1.994975	0.777427	0.620881
C21	C	1.262020	0.144847	-0.000001
C22	C	1.762020	0.644847	0.499999
C23	C	1.123188	0.142075	-0.000003
C24	C	1.623188	0.642075	0.499997
C25	C	1.056288	0.222866	-0.000012
C26	C	1.556288	0.722866	0.499988
C27	C	0.912798	0.220002	-0.000013
C28	C	1.412798	0.720002	0.499987
C29	C	1.479364	-0.033958	0.000017
C30	C	1.979364	0.466042	0.500017
C31	C	1.465180	-0.139276	0.000019
C32	C	1.965180	0.360724	0.500019
C33	C	1.439248	-0.332106	-0.000003
C34	C	1.939248	0.167894	0.499997
C35	C	1.539849	-0.389085	-0.000006
C36	C	2.039849	0.110915	0.499994
C37	C	1.525420	-0.496383	-0.000017
C38	C	2.025420	0.003617	0.499983
C39	C	1.453675	-0.224799	0.000009
C40	C	1.953675	0.275201	0.500009
C41	C	1.717083	0.133966	0.000002
C42	C	2.217083	0.633966	0.500002
C43	C	1.855914	0.136739	-0.000006
C44	C	2.355914	0.636739	0.499994
C45	C	1.499738	0.312772	-0.000016
C46	C	1.999738	0.812772	0.499984
C47	C	1.513923	0.418090	-0.000027
C48	C	2.013923	0.918090	0.499973
N49	N	1.489539	0.139406	0.344086
N50	N	1.989539	0.639406	0.844086
N51	N	1.489573	0.139401	-0.344081
N52	N	1.989573	0.639401	0.155919
C53	C	1.563202	0.078514	0.416290
C54	C	2.063202	0.578514	0.916290
C55	C	1.563221	0.078511	0.583702
C56	C	2.063221	0.578511	1.083702
H57	H	0.855286	0.289166	-0.000027
H58	H	1.355286	0.789166	0.499973
H59	H	0.913420	0.067571	-0.000007
H60	H	1.413420	0.567571	0.499993
N61	N	1.642322	0.013091	0.661579
N62	N	2.142322	0.513091	1.161579
N63	N	1.630535	-0.074578	0.644696
N64	N	2.130535	0.425422	1.144696
H65	H	1.686401	-0.120786	0.699697
H66	H	2.186401	0.379214	1.199697
N67	N	1.642217	0.013100	0.338281
N68	N	2.142217	0.513100	0.838281
N69	N	1.595642	-0.045851	0.253341
N70	N	2.095642	0.454149	0.753341
H71	H	1.651421	-0.092054	0.198214
H72	H	2.151421	0.407946	0.698214
N73	N	1.317621	-0.372008	-0.000014
N74	N	1.817621	0.127992	0.499986
N75	N	1.305928	-0.460380	-0.000023
N76	N	1.805928	0.039620	0.499977
H77	H	1.220030	-0.488572	-0.000027
H78	H	1.720030	0.011428	0.499973
H79	H	1.074234	0.070786	-0.000032
H80	H	1.574234	0.570786	0.499968
N81	N	1.661485	-0.349183	0.000005
N82	N	2.161485	0.150817	0.500005
N83	N	1.673189	-0.260813	0.000020
N84	N	2.173189	0.239187	0.500020
H85	H	1.759090	-0.232627	0.000033
H86	H	2.259090	0.267373	0.500033
H87	H	1.426508	0.191538	0.593836
H88	H	1.926508	0.691538	1.093836
H89	H	1.426481	0.191531	0.406208
H90	H	1.926481	0.691531	0.906208
H91	H	1.105243	0.294155	-0.000011
H92	H	1.605243	0.794155	0.499989
