data_functionalizedCrystal
_audit_creation_method	'MofGen! by Chris Wilmer'
_symmetry_space_group_name_H-M	'P1'
_symmetry_Int_Tables_number	1
_symmetry_cell_setting	triclinic
loop_
_symmetry_equiv_pos_as_xyz
  x,y,z
_cell_length_a	31.640172
_cell_length_b	14.446369
_cell_length_c	14.446369
_cell_angle_alpha	60.003968
_cell_angle_beta	90.005514
_cell_angle_gamma	59.995816
loop_
_atom_site_label
_atom_site_type_symbol
_atom_site_fract_x
_atom_site_fract_y
_atom_site_fract_z
Zr1	Zr	0.407162	1.013120	-0.121343
O2	O	0.339669	1.206249	-0.269162
O3	O	0.427855	0.819998	-0.076030
O4	O	0.427851	1.013106	-0.269138
O5	O	0.339672	1.013149	0.076275
O6	O	0.497408	1.013087	-0.269118
O7	O	0.339672	1.013141	-0.076053
O8	O	0.497415	0.667652	0.076317
O9	O	0.339666	1.358584	-0.269160
O10	O	0.488587	0.899415	-0.056688
O11	O	0.436677	0.899435	0.056979
O12	O	0.436673	1.126795	-0.170381
O13	O	0.384763	1.126816	-0.056715
Zr14	Zr	0.518097	1.013103	0.121636
Zr15	Zr	0.518097	1.013089	-0.121310
Zr16	Zr	0.407162	1.013133	0.121604
Zr17	Zr	0.407157	1.256077	-0.121340
Zr18	Zr	0.518102	0.770145	0.121634
O19	O	0.497404	1.206225	0.076324
O20	O	0.497405	1.206206	-0.269115
O21	O	0.339668	1.206268	0.076278
O22	O	0.585591	0.819973	0.269455
O23	O	0.585591	0.819955	-0.075984
O24	O	0.427855	0.820017	0.269409
O25	O	0.585587	1.013073	-0.075982
O26	O	0.497408	1.013116	0.269432
O27	O	0.427851	1.013136	0.269411
O28	O	0.585587	1.013082	0.076347
O29	O	0.427845	1.358560	-0.269134
O30	O	0.497415	0.667662	0.269428
O31	O	0.585594	0.667638	0.269453
O32	O	0.585594	0.667628	0.076343
O33	O	0.339666	1.358595	-0.076049
O34	O	0.427844	1.358571	-0.076024
O35	O	0.488587	0.899427	0.170675
O36	O	0.540496	0.899407	0.057009
O37	O	0.488582	1.126787	-0.056685
O38	O	0.436673	1.126808	0.056981
C39	C	0.462636	0.709209	0.000143
C40	C	0.462638	0.606067	0.000142
C41	C	0.495210	0.459738	-0.071898
C42	C	0.495395	0.566663	-0.071590
C43	C	0.486520	0.479210	0.123673
C44	C	0.486758	0.371831	0.123283
C45	C	0.406137	0.546819	-0.050336
C46	C	0.406227	0.655292	-0.052841
C47	C	0.323866	1.013150	0.000106
C48	C	0.276771	1.013163	0.000093
C49	C	0.011864	0.894409	0.059517
C50	C	-0.165121	0.894386	0.059539
O51	O	-0.164961	0.793444	0.110053
N52	N	-0.214349	1.013075	0.000191
C53	C	-0.219331	1.131779	-0.059162
O54	O	-0.265263	1.232731	-0.109631
C55	C	-0.042346	1.131800	-0.059177
C56	C	0.006882	1.013103	0.000166
C57	C	0.061090	0.775721	0.118856
C58	C	0.105333	0.775728	0.118845
C59	C	0.100351	0.894423	0.059494
C60	C	0.051125	1.013110	0.000155
C61	C	-0.047328	1.250502	-0.118522
C62	C	-0.003077	1.250497	-0.118518
C63	C	0.046151	1.131800	-0.059175
C64	C	0.090386	1.131811	-0.059207
N65	N	0.139614	1.013122	0.000142
C66	C	0.144597	0.894427	0.059492
C67	C	-0.312248	1.131759	-0.059151
C68	C	-0.356494	1.131754	-0.059149
C69	C	-0.302282	0.894361	0.059553
C70	C	-0.258035	0.894367	0.059544
C71	C	-0.263020	1.013070	0.000197
C72	C	0.237509	0.894451	0.059463
C73	C	0.281754	0.894468	0.059443
C74	C	0.227537	1.131861	-0.059254
C75	C	0.183296	1.131844	-0.059239
C76	C	0.188285	1.013129	0.000128
O77	O	0.090265	1.232701	-0.109684
O78	O	0.190534	0.793491	0.109975
C79	C	-0.032379	0.894402	0.059528
C80	C	-0.081605	1.013089	0.000189
C81	C	-0.086587	1.131784	-0.059162
C82	C	-0.125851	1.013084	0.000191
C83	C	-0.120869	0.894390	0.059541
C84	C	-0.071640	0.775701	0.118890
C85	C	-0.027397	0.775708	0.118878
C86	C	-0.135816	1.250473	-0.118510
C87	C	-0.180057	1.250456	-0.118495
C88	C	-0.175075	1.131762	-0.059145
C89	C	0.601393	1.013073	0.000187
C90	C	0.648488	1.013060	0.000201
C91	C	0.462630	1.013095	-0.303743
C92	C	0.462630	1.013089	-0.406880
C93	C	0.462624	1.317014	0.000150
C94	C	0.462622	1.420156	0.000152
C95	C	0.495535	0.869695	-0.481854
C96	C	0.495393	0.869598	-0.374526
C97	C	0.406225	1.084332	-0.481455
C98	C	0.406405	1.083422	-0.588314
C99	C	0.485674	1.086353	-0.589865
C100	C	0.486816	1.083650	-0.481193
C101	C	0.462629	1.013128	0.304036
C102	C	0.462629	1.013134	0.407173
C103	C	0.601399	0.709170	0.000184
C104	C	0.648496	0.606016	0.000196
C105	C	0.462635	0.709225	0.304033
C106	C	0.462637	0.606089	0.407169
C107	C	0.601399	0.709187	0.304073
C108	C	0.648496	0.606038	0.407223
C109	C	0.323861	1.317035	-0.303780
C110	C	0.276764	1.420185	-0.406929
C111	C	0.323860	1.317052	0.000110
C112	C	0.276763	1.420207	0.000097
C113	C	0.462624	1.316997	-0.303739
C114	C	0.462622	1.420133	-0.406875
C115	C	0.643517	0.557577	-0.059156
C116	C	0.687765	0.460666	-0.059167
C117	C	0.736992	0.412188	0.000182
C118	C	0.741970	0.460636	0.059536
C119	C	0.697722	0.557552	0.059540
C120	C	0.697714	0.557587	0.396331
C121	C	0.741971	0.460681	0.493242
C122	C	0.737008	0.412221	0.601044
C123	C	0.687785	0.460681	0.611934
C124	C	0.643529	0.557592	0.515024
C125	C	0.227545	1.468647	-0.396037
C126	C	0.183289	1.565583	-0.492948
C127	C	0.188251	1.614048	-0.600750
C128	C	0.237474	1.565582	-0.611640
C129	C	0.281730	1.468654	-0.514730
C130	C	0.281742	1.468655	0.059440
C131	C	0.237494	1.565594	0.059424
C132	C	0.188267	1.614075	0.000072
C133	C	0.183289	1.565622	-0.059278
C134	C	0.227537	1.468693	-0.059268
C135	C	0.429743	0.459784	0.482140
C136	C	0.429880	0.566705	0.374813
C137	C	0.519045	0.479221	0.481737
C138	C	0.518870	0.371847	0.588595
C139	C	0.439598	0.546841	0.590160
C140	C	0.438451	0.655311	0.481489
H141	H	0.463928	0.501466	0.179685
H142	H	0.603438	0.597047	-0.107499
H143	H	0.223489	1.228499	-0.107580
H144	H	0.701784	0.596978	0.107878
H145	H	0.528323	0.281067	0.163701
H146	H	0.380554	1.188661	-0.666900
H147	H	0.388101	0.497035	0.479793
H148	H	0.464555	0.341884	0.179883
H149	H	0.536630	0.370069	-0.037185
H150	H	0.152242	1.693001	0.000073
H151	H	-0.139880	1.347130	-0.166843
H152	H	0.223476	1.429249	-0.107589
H153	H	0.773048	0.333310	0.679945
H154	H	0.683702	0.421231	-0.107500
H155	H	0.782057	0.421151	0.107856
H156	H	-0.067591	0.679055	0.167208
H157	H	0.445582	0.370114	0.481108
H158	H	0.381742	0.522038	0.001892
H159	H	0.773018	0.333272	0.000171
H160	H	0.223495	1.429192	-0.308268
H161	H	0.321805	1.429197	-0.523613
H162	H	0.379904	0.687428	-0.005818
H163	H	0.241509	1.605055	-0.699424
H164	H	0.701764	0.597030	0.308561
H165	H	0.527691	0.440643	0.164375
H166	H	-0.298231	0.797715	0.107872
H167	H	0.388386	0.745783	-0.143849
H168	H	0.782047	0.421235	0.484355
H169	H	0.241579	0.797781	0.107807
H170	H	0.321821	1.429189	0.107779
H171	H	0.479698	0.813686	-0.480826
H172	H	0.241557	1.605027	0.107758
H173	H	0.683752	0.421211	0.699719
H174	H	0.459925	0.687431	0.507018
H175	H	0.396895	0.745814	0.430058
H176	H	0.143203	1.605111	-0.107601
H177	H	0.321837	0.797807	0.107771
H178	H	-0.316316	1.228427	-0.107486
H179	H	0.603455	0.597028	0.523909
H180	H	0.388343	0.656064	0.320534
H181	H	0.143212	1.228497	-0.107576
H182	H	0.143213	1.605028	-0.484059
H183	H	0.386181	0.586365	-0.139912
H184	H	0.387645	1.034865	-0.429859
H185	H	0.152211	1.692973	-0.679651
H186	H	0.445867	0.529232	0.321031
H187	H	0.537322	0.281088	0.588325
H188	H	0.145413	0.679073	0.167163
H189	H	0.065155	0.679061	0.167192
H190	H	-0.217954	0.797714	0.107876
H191	H	0.544719	0.341887	0.667182
H192	H	0.463450	0.522048	0.668381
H193	H	-0.087405	1.347158	-0.166844
H194	H	0.544624	0.501463	0.508976
H195	H	0.537625	0.440656	0.430135
H196	H	0.537178	0.813391	-0.479504
H197	H	0.479380	0.656009	-0.162555
H198	H	0.479271	0.496980	-0.163096
H199	H	0.398690	0.586424	0.594265
H200	H	0.461812	1.192030	-0.668069
H201	H	0.537063	0.529188	-0.036571
H202	H	-0.396575	1.228409	-0.107487
H203	H	-0.007141	1.347161	-0.166831
H204	H	0.012683	0.679052	0.167204
H205	H	0.536928	0.813703	-0.320241
H206	H	0.479410	0.813355	-0.320745
H207	H	0.387956	1.032808	-0.588051
H208	H	-0.220139	1.347121	-0.166830
H209	H	0.380643	1.189836	-0.508692
H210	H	0.528373	1.031694	-0.429764
H211	H	0.526582	1.040443	-0.593969
H212	H	0.465340	1.188332	-0.506713
