data_functionalizedCrystal
_audit_creation_method	'MofGen! by Chris Wilmer'
_symmetry_space_group_name_H-M	'P1'
_symmetry_Int_Tables_number	1
_symmetry_cell_setting	triclinic
loop_
_symmetry_equiv_pos_as_xyz
  x,y,z
_cell_length_a	19.188879
_cell_length_b	19.288840
_cell_length_c	18.366186
_cell_angle_alpha	89.983729
_cell_angle_beta	90.016039
_cell_angle_gamma	96.874955
loop_
_atom_site_label
_atom_site_type_symbol
_atom_site_fract_x
_atom_site_fract_y
_atom_site_fract_z
O1	O	-0.087018	0.921355	-0.060687
O2	O	-0.098786	0.719090	-0.060664
O3	O	0.008757	0.826078	-0.060653
O4	O	-0.194561	0.814367	-0.060697
O5	O	0.008762	0.826060	0.060446
O6	O	-0.098781	0.719072	0.060436
O7	O	-0.087013	0.921336	0.060413
Zn8	Zn	-0.092896	0.820201	0.079651
Zn9	Zn	-0.092903	0.820225	-0.079902
O10	O	-0.194556	0.814349	0.060402
C11	C	-0.098408	0.693204	-0.000111
C12	C	-0.097280	0.616100	-0.000101
C13	C	-0.096741	0.579906	-0.066114
C14	C	-0.095673	0.507460	-0.066122
C15	C	-0.095131	0.471211	-0.000114
C16	C	-0.095674	0.507413	0.065907
C17	C	-0.096748	0.579857	0.065914
C18	C	-0.052529	0.361880	0.050456
C19	C	-0.051450	0.289438	0.050447
C20	C	-0.091819	0.247768	-0.000133
C21	C	-0.133258	0.278551	-0.050715
C22	C	-0.134333	0.350995	-0.050708
C23	C	-0.093966	0.392657	-0.000114
C24	C	-0.090124	0.133019	-0.066160
C25	C	-0.089060	0.060570	-0.066165
C26	C	-0.089054	0.060526	0.065866
C27	C	-0.090124	0.132972	0.065870
C28	C	-0.090656	0.169215	-0.000145
C29	C	-0.220570	0.814731	-0.000154
C30	C	-0.298076	0.815852	-0.000171
C31	C	-0.334456	0.816386	0.065843
C32	C	-0.407279	0.817458	0.065856
C33	C	-0.443717	0.818010	-0.000150
C34	C	-0.407330	0.817472	-0.066174
C35	C	-0.334509	0.816393	-0.066184
N36	N	-0.552732	0.859240	-0.049272
N37	N	-0.621909	0.860267	-0.049258
C38	C	-0.663121	0.821260	-0.000122
N39	N	-0.632544	0.781197	0.049009
N40	N	-0.563361	0.780173	0.048997
C41	C	-0.522679	0.819180	-0.000146
C42	C	-0.778464	0.822956	0.065911
C43	C	-0.851289	0.824024	0.065921
C44	C	-0.851337	0.824045	-0.066111
C45	C	-0.778515	0.822970	-0.066119
C46	C	-0.742082	0.822429	-0.000106
C47	C	0.034771	0.825695	-0.000099
C48	C	0.112278	0.824574	-0.000086
C49	C	-0.087391	0.947222	-0.000142
C50	C	-0.088519	1.024327	-0.000157
N51	N	-0.092891	0.820190	0.188542
N52	N	-0.092902	0.820242	-0.188793
C53	C	-0.045294	0.867580	0.226648
C54	C	-0.045291	0.867584	0.302875
C55	C	-0.092897	0.820206	0.340995
C56	C	-0.140497	0.772807	0.302881
C57	C	-0.140494	0.772800	0.226655
C58	C	-0.156516	0.810901	0.461742
C59	C	-0.156520	0.810913	0.537967
C60	C	-0.092905	0.820225	0.576103
C61	C	-0.029284	0.829540	0.538004
C62	C	-0.029281	0.829532	0.461777
C63	C	-0.092905	0.820208	0.423650
C64	C	-0.045301	0.867622	0.696863
C65	C	-0.045297	0.867622	0.773092
C66	C	-0.140509	0.772848	0.773096
C67	C	-0.140507	0.772845	0.696868
C68	C	-0.092904	0.820236	0.658756
H69	H	-0.168075	0.376055	-0.091892
H70	H	-0.097188	0.609326	0.119672
H71	H	-0.437003	0.817919	-0.119916
N72	N	-0.097270	0.616931	-0.133542
N73	N	-0.048655	0.663925	-0.148250
H74	H	-0.049023	0.690075	-0.195873
N75	N	-0.095103	0.470391	0.133333
N76	N	-0.046014	0.485038	0.177544
H77	H	-0.045613	0.458891	0.225166
H78	H	-0.006530	0.906175	0.333906
N79	N	-0.009138	0.257999	0.102127
N80	N	-0.037114	0.213748	0.146210
H81	H	-0.007232	0.191546	0.182714
N82	N	0.035706	0.839046	0.422871
N83	N	0.092503	0.847362	0.456921
H84	H	0.138402	0.854079	0.429445
H85	H	-0.436906	0.817880	0.119615
N86	N	-0.888451	0.824582	0.133357
N87	N	-0.922470	0.874133	0.148082
H88	H	-0.948717	0.874529	0.195710
H89	H	-0.006537	0.906209	0.665831
H90	H	-0.095235	0.477985	-0.119880
H91	H	-0.179268	0.734269	0.804133
H92	H	-0.304797	0.815945	0.119596
H93	H	-0.179268	0.734259	0.665841
N94	N	-0.741350	0.822456	-0.133555
N95	N	-0.694117	0.870816	-0.148290
H96	H	-0.667870	0.870456	-0.195921
H97	H	-0.304889	0.815957	-0.119943
H98	H	-0.088616	0.031013	0.119611
N99	N	-0.090694	0.170039	-0.133590
N100	N	-0.140505	0.203895	-0.148322
H101	H	-0.140911	0.230038	-0.195946
N102	N	-0.221510	0.801408	0.576869
N103	N	-0.278303	0.793087	0.542814
H104	H	-0.324205	0.786375	0.570286
H105	H	-0.179257	0.734230	0.333922
N106	N	-0.741255	0.822397	0.133344
N107	N	-0.773751	0.822863	0.192284
H108	H	-0.747475	0.822467	0.239910
N109	N	-0.888561	0.824602	-0.133529
N110	N	-0.953579	0.825563	-0.133512
H111	H	-0.979872	0.825955	-0.181128
N112	N	0.003276	0.916049	0.187730
N113	N	0.045732	0.958397	0.221768
H114	H	0.080014	0.992651	0.194281
N115	N	-0.174489	0.235986	-0.102384
N116	N	-0.173528	0.171304	-0.102383
H117	H	-0.202644	0.141240	-0.138875
N118	N	0.035696	0.839042	0.576958
N119	N	0.035688	0.839035	0.645017
H120	H	0.081578	0.845743	0.672533
H121	H	-0.088626	0.031102	-0.119923
N122	N	0.003335	0.916031	0.812007
N123	N	0.045832	0.958335	0.777965
H124	H	0.080181	0.992525	0.805449
N125	N	-0.221508	0.801395	0.422803
N126	N	-0.278305	0.793095	0.456825
H127	H	-0.324204	0.786386	0.429326
N128	N	-0.189129	0.724393	0.187740
N129	N	-0.253664	0.725134	0.196236
H130	H	-0.288015	0.690947	0.168752
N131	N	-0.090669	0.169937	0.133309
N132	N	-0.090186	0.137567	0.192241
H133	H	-0.090572	0.163673	0.239873
H134	H	-0.019654	0.395803	0.091647
