data_functionalizedCrystal
_audit_creation_method	'MofGen! by Chris Wilmer'
_symmetry_space_group_name_H-M	'P1'
_symmetry_Int_Tables_number	1
_symmetry_cell_setting	triclinic
loop_
_symmetry_equiv_pos_as_xyz
  x,y,z
_cell_length_a	10.723024
_cell_length_b	10.654549
_cell_length_c	9.798715
_cell_angle_alpha	89.997951
_cell_angle_beta	89.996609
_cell_angle_gamma	84.477394
loop_
_atom_site_label
_atom_site_type_symbol
_atom_site_fract_x
_atom_site_fract_y
_atom_site_fract_z
O1	O	1.657217	0.176146	-0.113479
O2	O	1.294067	0.193007	-0.113483
O3	O	1.483988	0.001837	-0.113475
O4	O	1.467295	0.367317	-0.113486
O5	O	1.483974	0.001836	0.113507
O6	O	1.294053	0.193007	0.113499
O7	O	1.657202	0.176146	0.113504
Zn8	Zn	1.475625	0.184576	0.149540
Zn9	Zn	1.475644	0.184577	-0.149519
O10	O	1.467281	0.367317	0.113496
C11	C	1.247560	0.191780	0.000008
C12	C	1.109005	0.188109	0.000006
C13	C	0.917229	0.074075	0.000007
C14	C	1.060433	0.077867	0.000008
C15	C	1.482754	-0.044961	0.000014
C16	C	1.479083	-0.184404	0.000009
C17	C	1.699294	-0.474421	0.000019
C18	C	1.814574	-0.422902	0.000023
C19	C	1.818027	-0.291884	0.000021
C20	C	1.706189	-0.212382	0.000020
C21	C	1.590909	-0.263902	0.000015
C22	C	1.587468	-0.394924	0.000013
C23	C	1.363804	-0.235923	0.000005
C24	C	1.360348	-0.366941	-0.000003
C25	C	1.251966	-0.156421	0.000003
C26	C	1.136683	-0.207940	-0.000011
C27	C	1.133235	-0.338966	-0.000010
C28	C	1.245068	-0.418460	-0.000007
C29	C	1.703709	0.177373	0.000010
C30	C	1.842264	0.181044	0.000003
C31	C	1.468515	0.414115	0.000003
C32	C	1.472186	0.553557	-0.000001
N33	N	1.475622	0.184575	0.353639
N34	N	1.475658	0.184568	-0.353619
C35	C	1.555364	0.103954	0.421419
C36	C	1.555384	0.103950	0.578582
H37	H	0.875391	-0.020312	0.000030
H38	H	1.044595	0.279688	-0.000003
F39	F	1.010536	-0.393786	-0.000004
F40	F	1.644628	0.013735	0.654765
H41	H	1.709011	-0.105702	0.000035
H42	H	1.045634	-0.143200	-0.000003
H43	H	0.884102	0.275431	0.000008
H44	H	1.407387	0.253599	0.588102
F45	F	1.255644	-0.016981	0.000007
F46	F	1.386397	0.274786	0.429865
H47	H	1.905630	-0.487647	0.000029
F48	F	1.144627	-0.041831	0.000003
H49	H	1.696494	-0.581104	0.000003
H50	H	1.911897	-0.249938	0.000032
F51	F	1.241408	-0.557903	0.000004
H52	H	1.623617	0.034929	0.363100
