data_functionalizedCrystal
_audit_creation_method	'MofGen! by Chris Wilmer'
_symmetry_space_group_name_H-M	'P1'
_symmetry_Int_Tables_number	1
_symmetry_cell_setting	triclinic
loop_
_symmetry_equiv_pos_as_xyz
  x,y,z
_cell_length_a	21.606444
_cell_length_b	12.970454
_cell_length_c	12.970454
_cell_angle_alpha	59.999644
_cell_angle_beta	89.999268
_cell_angle_gamma	60.001029
loop_
_atom_site_label
_atom_site_type_symbol
_atom_site_fract_x
_atom_site_fract_y
_atom_site_fract_z
Zr1	Zr	0.596221	1.128564	-0.135342
O2	O	0.497398	1.343649	-0.299961
O3	O	0.626515	0.913475	-0.084876
O4	O	0.626515	1.128567	-0.299968
O5	O	0.497399	1.128556	0.084798
O6	O	0.728365	1.128575	-0.299974
O7	O	0.497398	1.128557	-0.084869
O8	O	0.728366	0.743814	0.084786
O9	O	0.497398	1.513316	-0.299962
O10	O	0.715445	1.001952	-0.063359
O11	O	0.639436	1.001946	0.063267
O12	O	0.639435	1.255189	-0.189976
O13	O	0.563426	1.255182	-0.063351
Zr14	Zr	0.758660	1.128575	0.135248
Zr15	Zr	0.758659	1.128576	-0.135351
Zr16	Zr	0.596222	1.128563	0.135258
Zr17	Zr	0.596221	1.399164	-0.135343
Zr18	Zr	0.758660	0.857975	0.135250
O19	O	0.728366	1.343664	0.084783
O20	O	0.728365	1.343665	-0.299975
O21	O	0.497399	1.343647	0.084797
O22	O	0.857483	0.913490	0.299868
O23	O	0.857482	0.913492	-0.084890
O24	O	0.626516	0.913473	0.299882
O25	O	0.857482	1.128583	-0.084891
O26	O	0.728366	1.128572	0.299875
O27	O	0.626516	1.128564	0.299881
O28	O	0.857483	1.128582	0.084776
O29	O	0.626515	1.513326	-0.299970
O30	O	0.728366	0.743813	0.299877
O31	O	0.857483	0.743823	0.299869
O32	O	0.857483	0.743824	0.084778
O33	O	0.497399	1.513315	-0.084871
O34	O	0.626516	1.513324	-0.084879
O35	O	0.715446	1.001950	0.189883
O36	O	0.791455	1.001956	0.063258
O37	O	0.715445	1.255193	-0.063360
O38	O	0.639436	1.255187	0.063265
C39	C	0.677441	0.790090	-0.000045
C40	C	0.677440	0.675213	-0.000044
C41	C	0.474255	1.128555	-0.000034
C42	C	0.405295	1.128550	-0.000030
C43	C	0.412572	0.996364	0.066058
C44	C	0.347775	0.996368	0.066060
C45	C	0.275701	1.128560	-0.000036
C46	C	0.268426	1.260756	-0.066127
C47	C	0.333222	1.260750	-0.066120
C48	C	0.007108	1.260781	-0.066155
C49	C	-0.057690	1.260777	-0.066160
C50	C	0.021660	0.996399	0.066024
C51	C	0.086457	0.996393	0.066031
C52	C	0.079176	1.128589	-0.000053
C53	C	0.149437	1.128583	-0.000052
C54	C	0.205441	1.128567	-0.000046
C55	C	0.880626	1.128584	-0.000059
C56	C	0.949586	1.128589	-0.000063
C57	C	0.677440	1.128571	-0.338526
C58	C	0.677439	1.128572	-0.453403
C59	C	0.677441	1.467049	-0.000048
C60	C	0.677441	1.581925	-0.000049
C61	C	0.677441	1.128568	0.338433
C62	C	0.677442	1.128567	0.453309
C63	C	0.880626	0.790105	-0.000057
C64	C	0.949586	0.675233	-0.000061
C65	C	0.677441	0.790089	0.338434
C66	C	0.677442	0.675211	0.453312
C67	C	0.880627	0.790103	0.338422
C68	C	0.949587	0.675231	0.453295
C69	C	0.474254	1.467036	-0.338515
C70	C	0.405294	1.581908	-0.453389
C71	C	0.474255	1.467034	-0.000036
C72	C	0.405295	1.581906	-0.000033
C73	C	0.677440	1.467050	-0.338528
C74	C	0.677439	1.581928	-0.453405
C75	C	0.942294	0.621285	-0.066166
C76	C	1.007082	0.513366	-0.066195
C77	C	1.079162	0.459389	-0.000110
C78	C	1.086453	0.513347	0.065998
C79	C	1.021665	0.621272	0.066018
C80	C	1.021654	0.621289	0.441144
C81	C	1.086455	0.513369	0.549069
C82	C	1.079188	0.459386	0.669144
C83	C	1.007113	0.513339	0.681294
C84	C	0.942314	0.621264	0.573370
C85	C	0.333227	1.635863	-0.441237
C86	C	0.268426	1.743817	-0.549162
C87	C	0.275693	1.797805	-0.669238
C88	C	0.347768	1.743846	-0.681387
C89	C	0.412567	1.635902	-0.573463
C90	C	0.412587	1.635865	0.066062
C91	C	0.347799	1.743814	0.066060
C92	C	0.275719	1.797795	-0.000028
C93	C	0.268428	1.743832	-0.066131
C94	C	0.333216	1.635892	-0.066136
H95	H	0.471255	0.888718	0.119887
H96	H	0.222923	1.885700	-0.757106
H97	H	-0.116378	1.368429	-0.119985
F98	F	0.865616	0.678655	0.586322
H99	H	1.027613	0.665182	0.119856
F100	F	0.355491	1.801317	-0.809191
F101	F	1.029406	0.678729	0.313360
H102	H	0.027582	0.888759	0.119837
H103	H	0.471246	1.591972	-0.583372
F104	F	0.325475	1.578421	-0.313454
H105	H	0.353707	0.888729	0.119877
H106	H	0.209746	1.787732	-0.539246
F107	F	1.163155	0.455963	0.536112
F108	F	1.163172	0.455882	0.136329
H109	H	1.131958	0.371506	0.757013
F110	F	0.489294	1.578437	0.136404
F111	F	0.191709	1.801294	-0.136459
F112	F	0.999390	0.455871	0.809097
F113	F	0.191718	1.401445	-0.136462
F114	F	0.206772	1.912674	-0.000010
F115	F	0.325443	1.578468	-0.136479
F116	F	0.163162	0.855697	0.136374
H117	H	0.883608	0.665233	-0.119996
H118	H	0.327293	1.368390	-0.119920
F119	F	1.148109	0.344523	-0.000142
H120	H	0.001169	1.368423	-0.119988
H121	H	1.001131	0.469446	-0.120027
H122	H	0.353750	1.787733	0.119894
