data_functionalizedCrystal
_audit_creation_method	'MofGen! by Chris Wilmer'
_symmetry_space_group_name_H-M	'P1'
_symmetry_Int_Tables_number	1
_symmetry_cell_setting	triclinic
loop_
_symmetry_equiv_pos_as_xyz
  x,y,z
_cell_length_a	12.759401
_cell_length_b	12.759400
_cell_length_c	12.759393
_cell_angle_alpha	89.976116
_cell_angle_beta	90.020566
_cell_angle_gamma	89.998346
loop_
_atom_site_label
_atom_site_type_symbol
_atom_site_fract_x
_atom_site_fract_y
_atom_site_fract_z
Zn1	Zn	-1.606349	-0.418266	-0.594058
Zn2	Zn	-1.106349	0.081734	-0.094058
Zn3	Zn	-1.606274	-0.593981	-0.418398
Zn4	Zn	-1.106274	-0.093981	0.081602
Zn5	Zn	-1.430647	-0.418311	-0.418394
Zn6	Zn	-0.930647	0.081689	0.081606
Zn7	Zn	-1.430674	-0.593898	-0.594037
Zn8	Zn	-0.930674	-0.093898	-0.094037
O9	O	-1.518486	-0.506114	-0.506222
O10	O	-1.018486	-0.006114	-0.006222
O11	O	-1.753360	-0.441591	-0.570767
O12	O	-1.253360	0.058409	-0.070767
O13	O	-1.582935	-0.570732	-0.271377
O14	O	-1.082935	-0.070732	0.228623
O15	O	-1.453974	-0.271284	-0.441704
O16	O	-0.953974	0.228716	0.058296
O17	O	-1.753305	-0.570688	-0.441711
O18	O	-1.253305	-0.070688	0.058289
O19	O	-1.583061	-0.271251	-0.570763
O20	O	-1.083061	0.228749	-0.070763
O21	O	-1.453902	-0.441668	-0.271374
O22	O	-0.953902	0.058332	0.228626
O23	O	-1.283630	-0.441587	-0.441683
O24	O	-0.783630	0.058413	0.058317
O25	O	-1.454019	-0.570546	-0.741061
O26	O	-0.954019	-0.070546	-0.241061
O27	O	-1.283649	-0.570590	-0.570727
O28	O	-0.783649	-0.070590	-0.070727
O29	O	-1.583087	-0.441509	-0.741076
O30	O	-1.083087	0.058491	-0.241076
O31	O	-1.582960	-0.740991	-0.441690
O32	O	-1.082960	-0.240991	0.058310
O33	O	-1.453947	-0.740930	-0.570731
O34	O	-0.953947	-0.240930	-0.070731
C35	C	-1.245519	-0.506085	-0.506203
C36	C	-0.745519	-0.006085	-0.006203
C37	C	-1.128742	-0.506098	-0.506219
C38	C	-0.628742	-0.006098	-0.006219
C39	C	-1.073909	-0.438997	-0.573522
C40	C	-0.573909	0.061003	-0.073522
C41	C	-0.964185	-0.439003	-0.573527
C42	C	-0.464185	0.060997	-0.073527
C43	C	-0.964136	-0.573222	-0.438925
C44	C	-0.464136	-0.073222	0.061075
C45	C	-1.073858	-0.573209	-0.438915
C46	C	-0.573858	-0.073209	0.061085
C47	C	-1.518477	-0.779081	-0.506231
C48	C	-1.018477	-0.279081	-0.006231
C49	C	-1.518569	-0.895858	-0.506271
C50	C	-1.018569	-0.395858	-0.006271
C51	C	-1.518564	-0.506013	-0.780255
C52	C	-1.018564	-0.006013	-0.280255
C53	C	-1.518598	-0.505970	-0.897032
C54	C	-1.018598	-0.005970	-0.397032
C55	C	-0.792519	-0.506134	-0.506238
C56	C	-0.292519	-0.006134	-0.006238
C57	C	-0.909296	-0.506117	-0.506234
C58	C	-0.409296	-0.006117	-0.006234
C59	C	-1.518523	-0.232081	-0.506235
C60	C	-1.018523	0.267919	-0.006235
C61	C	-1.518539	-0.115304	-0.506241
C62	C	-1.018539	0.384696	-0.006241
C63	C	-1.451342	-0.060458	-0.439052
C64	C	-0.951342	0.439542	0.060948
C65	C	-1.451354	0.049266	-0.439069
C66	C	-0.951354	0.549266	0.060931
C67	C	-1.585770	0.049288	-0.573467
C68	C	-1.085770	0.549288	-0.073467
C69	C	-1.585752	-0.060434	-0.573454
C70	C	-1.085752	0.439566	-0.073454
C71	C	-1.585808	-0.438770	-0.951904
C72	C	-1.085808	0.061230	-0.451904
C73	C	-1.585826	-0.438725	-1.061628
C74	C	-1.085826	0.061275	-0.561628
C75	C	-1.451420	-0.573088	-1.061599
C76	C	-0.951420	-0.073088	-0.561599
C77	C	-1.451398	-0.573128	-0.951877
C78	C	-0.951398	-0.073128	-0.451877
C79	C	-1.518468	-0.506139	-0.233254
C80	C	-1.018468	-0.006139	0.266746
C81	C	-1.518638	-0.505886	-0.116478
C82	C	-1.018638	-0.005886	0.383522
H83	H	-1.118504	-0.627853	-0.384104
H84	H	-0.618504	-0.127853	0.115896
H85	H	-1.396610	-0.105130	-0.384325
H86	H	-0.896610	0.394870	0.115675
H87	H	-1.640554	-0.384002	-1.106300
H88	H	-1.140554	0.115998	-0.606300
O89	O	-1.133110	-0.366602	-0.646096
O90	O	-0.633110	0.133398	-0.146096
H91	H	-1.076543	-0.319934	-0.692886
H92	H	-0.576543	0.180066	-0.192886
O93	O	-0.905040	-0.366632	-0.646119
O94	O	-0.405040	0.133368	-0.146119
H95	H	-0.961641	-0.319971	-0.692919
H96	H	-0.461641	0.180029	-0.192919
O97	O	-1.378900	-0.645600	-0.892673
O98	O	-0.878900	-0.145600	-0.392673
H99	H	-1.325453	-0.598564	-0.842692
H100	H	-0.825453	-0.098564	-0.342692
H101	H	-1.640524	-0.384083	-0.907252
H102	H	-1.140524	0.115917	-0.407252
O103	O	-0.904942	-0.645610	-0.366338
O104	O	-0.404942	-0.145610	0.133662
H105	H	-0.819433	-0.634353	-0.377657
H106	H	-0.319433	-0.134353	0.122343
H107	H	-1.396710	-0.627768	-1.106267
H108	H	-0.896710	-0.127768	-0.606267
H109	H	-1.396634	0.093919	-0.384359
H110	H	-0.896634	0.593919	0.115641
H111	H	-1.640495	0.093975	-0.628189
H112	H	-1.140495	0.593975	-0.128189
H113	H	-1.640472	-0.105091	-0.628174
H114	H	-1.140472	0.394909	-0.128174
