data_functionalizedCrystal
_audit_creation_method	'MofGen! by Chris Wilmer'
_symmetry_space_group_name_H-M	'P1'
_symmetry_Int_Tables_number	1
_symmetry_cell_setting	triclinic
loop_
_symmetry_equiv_pos_as_xyz
  x,y,z
_cell_length_a	8.597339
_cell_length_b	9.130313
_cell_length_c	10.654562
_cell_angle_alpha	90.001229
_cell_angle_beta	84.913811
_cell_angle_gamma	97.699986
loop_
_atom_site_label
_atom_site_type_symbol
_atom_site_fract_x
_atom_site_fract_y
_atom_site_fract_z
O1	O	-2.084449	-0.141201	-0.187501
O2	O	-1.627679	-0.083569	-0.201873
O3	O	-1.866556	-0.113710	-0.012004
O4	O	-1.845572	-0.111061	-0.377369
O5	O	-1.866553	-0.357308	-0.012009
O6	O	-1.627676	-0.327168	-0.201878
O7	O	-2.084446	-0.384800	-0.187506
Cu8	Cu	-1.856061	-0.378226	-0.194692
Cu9	Cu	-1.856064	-0.090143	-0.194686
O10	O	-1.845569	-0.354660	-0.377374
C11	C	-1.569190	-0.197989	-0.200329
C12	C	-1.394915	-0.176000	-0.195709
N13	N	-1.856070	-0.580850	-0.194696
C14	C	-1.961872	-0.670852	-0.110651
C15	C	-1.961867	-0.824188	-0.110636
C16	C	-1.750254	-0.797507	-0.278721
C17	C	-1.750252	-0.644173	-0.278729
C18	C	-2.067689	-0.607529	-0.026618
C19	C	-2.173501	-0.697532	0.057432
C20	C	-2.173497	-0.850868	0.057447
C21	C	-2.067681	-0.914202	-0.026588
C22	C	-1.142936	-0.270384	-0.189043
C23	C	-1.317213	-0.292385	-0.193647
C24	C	-1.865009	-0.235311	0.034799
C25	C	-1.860387	-0.234719	0.174266
N26	N	-1.856068	0.112479	-0.194673
C27	C	-1.715396	-0.216421	0.226579
C28	C	-1.711063	-0.215886	0.357624
C29	C	-1.996725	-0.251941	0.384033
C30	C	-2.001057	-0.252487	0.252991
C31	C	-1.574726	-0.198653	0.147854
C32	C	-1.429723	-0.180352	0.200166
C33	C	-1.425390	-0.179817	0.331211
C34	C	-1.566060	-0.197582	0.409944
C35	C	-1.847112	-0.233055	0.575822
C36	C	-1.851723	-0.233638	0.436354
H37	H	-1.328116	-0.059526	-0.193929
H38	H	-1.384022	-0.408867	-0.195419
O39	O	-1.636111	-0.547109	-0.369372
H40	H	-1.559248	-0.467574	-0.315509
O41	O	-1.636162	-0.865829	-0.369370
H42	H	-1.657237	-0.839052	-0.467534
H43	H	-2.067676	-1.039058	-0.026560
O44	O	-1.579406	-0.199251	0.006514
H45	H	-1.457235	-0.183838	-0.039442
O46	O	-2.067676	-0.442144	-0.026626
H47	H	-2.159017	-0.413226	0.045934
O48	O	-1.278004	-0.161199	0.115258
H49	H	-1.305371	-0.164633	0.015346
H50	H	-2.259644	-0.645956	0.125858
O51	O	-2.287624	-0.947952	0.148086
H52	H	-2.361212	-0.878154	0.206503
O53	O	-2.148435	-0.271096	0.468953
H54	H	-2.249988	-0.283926	0.410561
H55	H	-1.307322	-0.164931	0.373798
H56	H	-1.562520	-0.197144	0.516649
O57	O	-2.157436	-0.272207	0.196553
H58	H	-2.254525	-0.284444	0.273308
