data_functionalizedCrystal
_audit_creation_method	'MofGen! by Chris Wilmer'
_symmetry_space_group_name_H-M	'P1'
_symmetry_Int_Tables_number	1
_symmetry_cell_setting	triclinic
loop_
_symmetry_equiv_pos_as_xyz
  x,y,z
_cell_length_a	18.215407
_cell_length_b	16.120484
_cell_length_c	16.120256
_cell_angle_alpha	84.383827
_cell_angle_beta	87.121873
_cell_angle_gamma	92.926015
loop_
_atom_site_label
_atom_site_type_symbol
_atom_site_fract_x
_atom_site_fract_y
_atom_site_fract_z
Zn1	Zn	1.087191	-0.356754	0.489461
Zn2	Zn	1.087099	-0.489439	0.356771
Zn3	Zn	0.970696	-0.349686	0.349706
Zn4	Zn	0.957519	-0.496486	0.496494
O5	O	1.025626	-0.423091	0.423108
O6	O	1.190162	-0.374363	0.471873
O7	O	1.077133	-0.464994	0.238871
O8	O	0.991702	-0.233658	0.362345
O9	O	1.190094	-0.471847	0.374386
O10	O	1.077291	-0.238851	0.465022
O11	O	0.991613	-0.362318	0.233681
O12	O	0.865965	-0.369151	0.369164
O13	O	0.969244	-0.483857	0.612523
O14	O	0.856284	-0.477004	0.477008
O15	O	1.064514	-0.381196	0.607357
O16	O	1.064356	-0.607339	0.381205
O17	O	0.969155	-0.612517	0.483859
C18	C	0.834422	-0.423076	0.423083
C19	C	0.752622	-0.423090	0.423093
C20	C	0.559405	-0.479330	0.479185
C21	C	0.482546	-0.479333	0.479196
C22	C	0.492597	-0.366869	0.367050
C23	C	0.569455	-0.366862	0.367044
C24	C	0.602857	-0.423098	0.423111
C25	C	0.449140	-0.423107	0.423127
C26	C	0.365805	-0.423110	0.423138
C27	C	0.686197	-0.423094	0.423101
C28	C	1.015335	-0.640257	0.434080
C29	C	1.010998	-0.733162	0.438802
C30	C	1.003084	-0.903263	0.447440
C31	C	1.048299	-0.942080	0.398789
C32	C	1.043896	-1.036730	0.403596
C33	C	1.007486	-0.808605	0.442635
C34	C	1.217577	-0.423107	0.423133
C35	C	1.299375	-0.423114	0.423144
C36	C	1.015420	-0.434101	0.641115
C37	C	1.011070	-0.438792	0.734017
C38	C	1.035977	-0.205079	0.412111
C39	C	1.040388	-0.112175	0.407425
C40	C	1.035838	-0.412064	0.205946
C41	C	1.040341	-0.407137	0.113033
C42	C	1.048307	-0.398604	0.942943
C43	C	1.003106	-0.447323	0.904101
C44	C	1.007539	-0.442575	0.809457
C45	C	1.043876	-0.403351	1.037595
H46	H	0.447170	-0.525122	0.524859
H47	H	0.961070	-0.941112	0.492697
Br48	Br	1.118330	-0.878995	0.323349
Br49	Br	0.933059	-0.522788	0.967145
Br50	Br	0.447261	-0.290553	0.290963
Br51	Br	1.118339	-0.323131	0.879898
H52	H	0.604835	-0.321066	0.321381
H53	H	0.586598	-0.525118	0.524840
