data_functionalizedCrystal
_audit_creation_method	'MofGen! by Chris Wilmer'
_symmetry_space_group_name_H-M	'P1'
_symmetry_Int_Tables_number	1
_symmetry_cell_setting	triclinic
loop_
_symmetry_equiv_pos_as_xyz
  x,y,z
_cell_length_a	13.635800
_cell_length_b	10.943925
_cell_length_c	17.982626
_cell_angle_alpha	77.760224
_cell_angle_beta	77.554083
_cell_angle_gamma	71.155711
loop_
_atom_site_label
_atom_site_type_symbol
_atom_site_fract_x
_atom_site_fract_y
_atom_site_fract_z
V1	V	1.886264	-0.179874	0.237540
O2	O	1.868357	0.007366	0.233029
O3	O	1.876438	-0.355432	0.235905
O4	O	1.800444	-0.177668	0.341144
O5	O	1.944876	-0.171628	0.127061
V6	V	2.134201	-0.157412	0.224327
O7	O	2.003349	-0.229147	0.266523
O8	O	2.242214	-0.108139	0.195344
O9	O	2.032424	0.018146	0.225962
O10	O	2.210807	-0.344652	0.228838
O11	O	2.134287	-0.165658	0.334806
O12	O	2.108417	-0.159618	0.120723
V13	V	2.386264	-0.179874	0.237540
O14	O	2.368357	0.007366	0.233029
O15	O	2.376438	-0.355432	0.235905
O16	O	2.300444	-0.177668	0.341144
O17	O	2.444876	-0.171628	0.127061
V18	V	2.634201	-0.157412	0.224327
O19	O	2.503349	-0.229147	0.266523
O20	O	2.742214	-0.108139	0.195344
O21	O	2.532424	0.018146	0.225962
O22	O	2.710807	-0.344652	0.228838
O23	O	2.634287	-0.165658	0.334806
O24	O	2.608417	-0.159618	0.120723
C25	C	1.804429	-0.398211	0.232155
C26	C	1.836627	-0.541736	0.231509
C27	C	1.967996	-0.718485	0.234714
C28	C	1.920049	-0.612148	0.170005
C29	C	1.884179	-0.646161	0.296198
C30	C	1.846015	-0.691097	0.165591
C31	C	1.810143	-0.725134	0.291841
C32	C	1.762141	-0.618825	0.227113
C33	C	1.707491	-0.171454	0.366397
C34	C	1.678061	-0.170812	0.451094
C35	C	1.936106	0.060919	0.229710
C36	C	1.893524	0.204441	0.230361
C37	C	2.033044	-0.165836	0.095466
C38	C	2.052094	-0.166472	0.010769
C39	C	1.753496	-0.176968	0.494751
C40	C	1.725853	-0.176347	0.574332
C41	C	1.622777	-0.169580	0.610254
C42	C	1.547337	-0.163420	0.566590
C43	C	1.574978	-0.164031	0.487010
C44	C	1.972944	-0.173243	-0.025146
C45	C	1.990853	-0.173854	-0.104727
C46	C	2.087914	-0.167703	-0.148392
C47	C	2.167068	-0.160926	-0.112472
C48	C	2.149156	-0.160306	-0.032893
C49	C	2.239306	-0.163425	-0.433406
C50	C	2.257214	-0.164050	-0.512990
C51	C	2.081003	-0.176973	-0.505240
C52	C	2.063091	-0.176353	-0.425661
C53	C	2.142244	-0.169570	-0.389749
C54	C	2.122824	-0.168905	-0.303458
C55	C	2.107338	-0.168376	-0.234680
C56	C	2.207491	-0.171454	0.366397
C57	C	2.178061	-0.170812	0.451094
C58	C	2.304429	-0.398211	0.232155
C59	C	2.336627	-0.541736	0.231509
C60	C	2.436106	0.060919	0.229710
C61	C	2.393524	0.204441	0.230361
C62	C	2.533044	-0.165836	0.095466
C63	C	2.552094	-0.166472	0.010769
C64	C	2.472926	-0.173224	-0.025134
C65	C	2.490807	-0.173806	-0.104717
C66	C	2.587858	-0.167645	-0.148396
C67	C	2.667030	-0.160888	-0.112488
C68	C	2.649146	-0.160297	-0.032907
C69	C	2.262189	-0.618867	0.227173
C70	C	2.346017	-0.691193	0.165672
C71	C	2.310178	-0.725146	0.291867
C72	C	2.420047	-0.612158	0.169964
C73	C	2.384177	-0.646117	0.296215
C74	C	2.468069	-0.718406	0.234701
H75	H	2.055341	-0.761997	0.237841
O76	O	2.368241	-0.179868	0.021962
H77	H	2.369092	-0.178335	0.083336
O78	O	1.864671	-0.184244	0.456017
H79	H	1.919154	-0.275662	0.481288
H80	H	1.787295	-0.181369	0.609873
H81	H	1.600284	-0.169084	0.675054
O82	O	1.436168	-0.156141	0.605340
H83	H	1.429637	-0.156770	0.668012
H84	H	1.926405	-0.179384	-0.133963
O85	O	2.771709	-0.154254	-0.159600
H86	H	2.770836	-0.155817	-0.220966
O87	O	1.958403	-0.182992	-0.378569
H88	H	1.959249	-0.181435	-0.317198
O89	O	1.868255	-0.179885	0.021943
H90	H	1.869097	-0.178331	0.083316
O91	O	2.734541	-0.153019	0.005815
H92	H	2.805028	-0.148844	-0.037932
O93	O	2.146530	-0.561260	0.222879
H94	H	2.130663	-0.578725	0.168625
O95	O	2.405415	-0.181114	-0.143436
H96	H	2.334937	-0.185326	-0.099687
H97	H	1.966182	-0.562962	0.118498
H98	H	1.830202	-0.711345	0.110334
H99	H	2.555419	-0.761647	0.237863
H100	H	1.900017	-0.625747	0.351400
O101	O	1.749122	-0.790365	0.360079
H102	H	1.773244	-0.896998	0.358626
H103	H	2.330220	-0.711663	0.110472
O104	O	1.493616	-0.157415	0.439926
H105	H	1.417306	-0.152623	0.478283
O106	O	2.481148	-0.547202	0.101638
H107	H	2.535616	-0.622246	0.067245
O108	O	2.607147	-0.168297	-0.234229
H109	H	2.535789	-0.174043	-0.251848
O110	O	2.405045	-0.618934	0.369329
H111	H	2.359000	-0.664478	0.419836
H112	H	2.264040	-0.774336	0.343368
H113	H	2.016553	-0.182490	-0.534489
O114	O	2.361905	-0.157395	-0.560084
H115	H	2.398544	-0.245824	-0.588381
O116	O	1.646458	-0.561497	0.222859
H117	H	1.630617	-0.579111	0.168636
H118	H	2.303759	-0.157898	-0.404176
O119	O	2.271756	-0.154283	-0.159562
H120	H	2.308392	-0.242711	-0.187860
O121	O	2.234521	-0.153002	0.005849
H122	H	2.305027	-0.148839	-0.037880
