data_functionalizedCrystal
_audit_creation_method	'MofGen! by Chris Wilmer'
_symmetry_space_group_name_H-M	'P1'
_symmetry_Int_Tables_number	1
_symmetry_cell_setting	triclinic
loop_
_symmetry_equiv_pos_as_xyz
  x,y,z
_cell_length_a	19.805407
_cell_length_b	19.805405
_cell_length_c	19.805399
_cell_angle_alpha	89.973385
_cell_angle_beta	89.980427
_cell_angle_gamma	90.026726
loop_
_atom_site_label
_atom_site_type_symbol
_atom_site_fract_x
_atom_site_fract_y
_atom_site_fract_z
Zn1	Zn	1.034734	-0.269479	-0.382724
Zn2	Zn	1.534734	0.230521	0.117276
Zn3	Zn	1.034648	-0.382667	-0.269538
Zn4	Zn	1.534648	0.117333	0.230462
Zn5	Zn	0.921549	-0.269498	-0.269549
Zn6	Zn	1.421549	0.230502	0.230451
Zn7	Zn	0.921512	-0.382631	-0.382685
Zn8	Zn	1.421512	0.117369	0.117315
O9	O	0.978111	-0.326069	-0.326124
O10	O	1.478111	0.173931	0.173876
O11	O	1.129439	-0.284501	-0.367722
O12	O	1.629439	0.215499	0.132278
O13	O	1.019625	-0.367678	-0.174823
O14	O	1.519625	0.132322	0.325177
O15	O	0.936615	-0.174778	-0.284583
O16	O	1.436615	0.325222	0.215417
O17	O	1.129376	-0.367660	-0.284564
O18	O	1.629376	0.132340	0.215436
O19	O	1.019771	-0.174765	-0.367732
O20	O	1.519771	0.325235	0.132268
O21	O	0.936531	-0.284533	-0.174831
O22	O	1.436531	0.215467	0.325169
O23	O	0.826827	-0.284498	-0.284544
O24	O	1.326827	0.215502	0.215456
O25	O	0.936551	-0.367598	-0.477406
O26	O	1.436551	0.132402	0.022594
O27	O	0.826800	-0.367617	-0.367665
O28	O	1.326800	0.132383	0.132335
O29	O	1.019735	-0.284466	-0.477436
O30	O	1.519735	0.215534	0.022564
O31	O	1.019589	-0.477379	-0.284526
O32	O	1.519589	0.022621	0.215474
O33	O	0.936468	-0.477353	-0.367654
O34	O	1.436468	0.022647	0.132346
C35	C	0.802255	-0.326056	-0.326102
C36	C	1.302255	0.173944	0.173898
C37	C	0.727023	-0.326067	-0.326109
C38	C	1.227023	0.173933	0.173891
C39	C	0.691682	-0.369412	-0.369319
C40	C	1.191682	0.130588	0.130681
C41	C	0.620994	-0.369413	-0.369329
C42	C	1.120994	0.130587	0.130671
C43	C	0.585647	-0.326072	-0.326124
C44	C	1.085647	0.173928	0.173876
C45	C	0.620993	-0.282722	-0.282911
C46	C	1.120993	0.217278	0.217089
C47	C	0.691680	-0.282718	-0.282906
C48	C	1.191680	0.217282	0.217094
C49	C	0.335920	-0.282737	-0.282934
C50	C	0.835920	0.217263	0.217066
C51	C	0.265227	-0.282746	-0.282941
C52	C	0.765227	0.217254	0.217059
C53	C	0.265233	-0.369432	-0.369357
C54	C	0.765233	0.130568	0.130643
C55	C	0.335920	-0.369428	-0.369351
C56	C	0.835920	0.130572	0.130649
C57	C	0.371260	-0.326076	-0.326142
C58	C	0.871260	0.173924	0.173858
C59	C	0.447908	-0.326074	-0.326133
C60	C	0.947908	0.173926	0.173867
C61	C	0.509000	-0.326076	-0.326129
C62	C	1.009000	0.173924	0.173871
C63	C	0.978034	-0.501925	-0.326099
C64	C	1.478034	-0.001925	0.173901
C65	C	0.978063	-0.577157	-0.326112
C66	C	1.478063	-0.077157	0.173888
C67	C	1.021337	-0.612436	-0.369441
C68	C	1.521337	-0.112436	0.130559
C69	C	1.021361	-0.683124	-0.369454
C70	C	1.521361	-0.183124	0.130546
C71	C	0.978114	-0.718532	-0.326133
C72	C	1.478114	-0.218532	0.173867
C73	C	0.934835	-0.683249	-0.282801
C74	C	1.434835	-0.183249	0.217199
C75	C	0.934808	-0.612561	-0.282792
C76	C	1.434808	-0.112561	0.217208
C77	C	0.934944	-0.968322	-0.282836
C78	C	1.434944	-0.468322	0.217164
C79	C	0.934976	-1.039014	-0.282846
C80	C	1.434976	-0.539014	0.217154
C81	C	1.021497	-1.038884	-0.369497
C82	C	1.521497	-0.538884	0.130503
C83	C	1.021470	-0.968197	-0.369489
C84	C	1.521470	-0.468197	0.130511
C85	C	0.978189	-0.932920	-0.326160
C86	C	1.478189	-0.432920	0.173840
C87	C	0.978162	-0.856271	-0.326147
C88	C	1.478162	-0.356271	0.173853
C89	C	0.978144	-0.795179	-0.326141
C90	C	1.478144	-0.295179	0.173859
C91	C	1.154653	-0.326082	-0.326146
C92	C	1.654653	0.173918	0.173854
C93	C	1.229885	-0.326088	-0.326156
C94	C	1.729885	0.173912	0.173844
C95	C	0.978149	-0.326026	-0.502667
C96	C	1.478149	0.173974	-0.002667
C97	C	0.978165	-0.326008	-0.577899
C98	C	1.478165	0.173992	-0.077899
C99	C	0.978207	-0.149526	-0.326163
C100	C	1.478207	0.350474	0.173837
C101	C	0.978248	-0.074294	-0.326180
C102	C	1.478248	0.425706	0.173820
C103	C	1.021480	-0.282719	-0.613259
C104	C	1.521480	0.217281	-0.113259
C105	C	1.021487	-0.282699	-0.683948
C106	C	1.521487	0.217301	-0.183948
C107	C	0.978182	-0.325973	-0.719274
C108	C	1.478182	0.174027	-0.219274
C109	C	0.934862	-0.369264	-0.683909
C110	C	1.434862	0.130736	-0.183909
C111	C	0.934852	-0.369279	-0.613222
C112	C	1.434852	0.130721	-0.113222
C113	C	0.934900	-0.369201	-0.968982
C114	C	1.434900	0.130799	-0.468982
C115	C	0.934915	-0.369183	-1.039675
C116	C	1.434915	0.130817	-0.539675
C117	C	1.021535	-0.282620	-1.039708
C118	C	1.521535	0.217380	-0.539708
C119	C	1.021525	-0.282636	-0.969021
C120	C	1.521525	0.217364	-0.469021
C121	C	0.978203	-0.325924	-0.933662
C122	C	1.478203	0.174076	-0.433662
C123	C	0.978195	-0.325944	-0.857013
C124	C	1.478195	0.174056	-0.357013
C125	C	0.978193	-0.325957	-0.795922
C126	C	1.478193	0.174043	-0.295922
C127	C	0.978112	-0.326062	-0.150268
C128	C	1.478112	0.173938	0.349732
C129	C	0.978227	-0.325890	-0.075036
C130	C	1.478227	0.174110	0.424964
H131	H	0.236450	-0.247448	-0.247758
H132	H	0.736450	0.252552	0.252242
H133	H	0.899600	-0.404495	-0.712678
H134	H	1.399600	0.095505	-0.212678
H135	H	0.720453	-0.247418	-0.247723
H136	H	1.220453	0.252582	0.252277
Cl137	Cl	1.075972	-0.228306	-0.728398
Cl138	Cl	1.575972	0.271694	-0.228398
Cl139	Cl	0.880461	-0.727762	-0.228346
Cl140	Cl	1.380461	-0.227762	0.271654
Cl141	Cl	1.075995	-0.228197	-1.084164
Cl142	Cl	1.575995	0.271803	-0.584164
Cl143	Cl	0.736111	-0.423904	-0.423634
Cl144	Cl	1.236111	0.076096	0.076366
Cl145	Cl	0.576568	-0.423907	-0.423654
Cl146	Cl	1.076568	0.076093	0.076346
H147	H	0.899648	-0.404423	-1.068436
H148	H	1.399648	0.095577	-0.568436
H149	H	0.364684	-0.247442	-0.247744
H150	H	0.864684	0.252558	0.252256
Cl151	Cl	0.220802	-0.423932	-0.423679
Cl152	Cl	0.720802	0.076068	0.076321
H153	H	0.899705	-0.939604	-0.247554
H154	H	1.399705	-0.439604	0.252446
H155	H	0.899635	-0.404459	-0.940201
H156	H	1.399635	0.095541	-0.440201
Cl157	Cl	1.075970	-0.228235	-0.924614
Cl158	Cl	1.575970	0.271765	-0.424614
Cl159	Cl	0.880403	-0.568211	-0.228319
Cl160	Cl	1.380403	-0.068211	0.271681
Cl161	Cl	1.075927	-0.228318	-0.568855
Cl162	Cl	1.575927	0.271682	-0.068855
H163	H	0.899574	-0.404523	-0.584432
H164	H	1.399574	0.095477	-0.084432
H165	H	1.056556	-0.583611	-0.404715
H166	H	1.556556	-0.083611	0.095285
Cl167	Cl	0.380352	-0.423918	-0.423666
Cl168	Cl	0.880352	0.076082	0.076334
H169	H	0.592208	-0.247430	-0.247736
H170	H	1.092208	0.252570	0.252264
H171	H	1.056605	-0.711845	-0.404732
H172	H	1.556605	-0.211845	0.095268
H173	H	1.056688	-0.939370	-0.404762
H174	H	1.556688	-0.439370	0.095238
H175	H	1.056737	-1.067616	-0.404780
H176	H	1.556737	-0.567616	0.095220
H177	H	0.899756	-1.067841	-0.247568
H178	H	1.399756	-0.567841	0.252432
