data_functionalizedCrystal
_audit_creation_method	'MofGen! by Chris Wilmer'
_symmetry_space_group_name_H-M	'P1'
_symmetry_Int_Tables_number	1
_symmetry_cell_setting	triclinic
loop_
_symmetry_equiv_pos_as_xyz
  x,y,z
_cell_length_a	17.699083
_cell_length_b	14.044220
_cell_length_c	16.176319
_cell_angle_alpha	89.992517
_cell_angle_beta	89.998611
_cell_angle_gamma	88.235946
loop_
_atom_site_label
_atom_site_type_symbol
_atom_site_fract_x
_atom_site_fract_y
_atom_site_fract_z
O1	O	1.012346	0.119850	-0.068632
O2	O	0.793044	0.135443	-0.068659
O3	O	0.899403	-0.010330	-0.068638
O4	O	0.905987	0.265624	-0.068653
O5	O	0.899387	-0.010340	0.068855
O6	O	0.793027	0.135434	0.068834
O7	O	1.012330	0.119841	0.068861
Cu8	Cu	0.902677	0.127637	0.081402
Cu9	Cu	0.902696	0.127648	-0.081200
O10	O	0.905970	0.265614	0.068840
C11	C	0.764800	0.134880	0.000084
C12	C	0.680666	0.133204	0.000074
C13	C	0.637948	0.218769	0.000069
C14	C	0.558895	0.217189	0.000080
C15	C	0.522563	0.130041	0.000089
C16	C	0.565287	0.044469	0.000096
C17	C	0.644338	0.046050	0.000092
C18	C	0.246484	0.038089	0.000117
C19	C	0.167427	0.036514	0.000120
C20	C	0.161041	0.209227	0.000106
C21	C	0.240092	0.210809	0.000101
C22	C	0.282809	0.125237	0.000112
C23	C	0.368527	0.126952	0.000102
C24	C	0.436847	0.128325	0.000094
C25	C	0.896513	-0.045643	0.000109
C26	C	0.887917	-0.150849	0.000109
C27	C	0.872202	-0.343474	0.000095
C28	C	0.933168	-0.401248	0.000100
C29	C	0.924424	-0.508431	0.000092
C30	C	0.880945	-0.236281	0.000102
C31	C	1.040574	0.120404	0.000116
C32	C	1.124707	0.122081	0.000121
C33	C	0.908860	0.300927	0.000091
C34	C	0.917456	0.406133	0.000086
N35	N	0.902668	0.127628	0.195767
N36	N	0.902710	0.127648	-0.195565
C37	C	0.949782	0.063106	0.239041
C38	C	0.949786	0.063105	0.325588
C39	C	0.902679	0.127632	0.368860
C40	C	0.855561	0.192157	0.325580
C41	C	0.855554	0.192153	0.239034
C42	C	0.855588	0.192175	0.674608
C43	C	0.855600	0.192176	0.761160
C44	C	0.949820	0.063127	0.761161
C45	C	0.949813	0.063123	0.674616
C46	C	0.902692	0.127644	0.631344
C47	C	0.902687	0.127643	0.537500
C48	C	0.902687	0.127638	0.462702
H49	H	0.667523	0.289735	0.000061
H50	H	0.991930	-0.370212	0.000052
N51	N	1.000640	-0.006473	0.807833
H52	H	1.055082	0.004367	0.792762
H53	H	0.993434	0.003351	0.869210
N54	N	0.794372	-0.384583	0.000093
H55	H	0.765944	-0.362439	0.051063
H56	H	0.766005	-0.362412	-0.050909
H57	H	0.535699	-0.026488	0.000116
H58	H	0.988144	0.010565	0.203814
H59	H	0.269670	0.281773	0.000089
H60	H	0.126251	0.278904	0.000101
N61	N	0.512819	0.309477	0.000168
H62	H	0.547831	0.364924	0.000187
H63	H	0.479841	0.312657	-0.050768
N64	N	1.000629	-0.006454	0.372262
H65	H	1.030482	-0.047316	0.331717
H66	H	1.036521	0.029819	0.408145
N67	N	0.804751	0.261747	0.372254
H68	H	0.836503	0.303668	0.408149
H69	H	0.774909	0.302556	0.331656
H70	H	0.988174	0.010583	0.639387
N71	N	0.804786	0.261769	0.807835
H72	H	0.774930	0.302640	0.767290
H73	H	0.768894	0.225528	0.843753
H74	H	0.817222	0.244712	0.639383
N75	N	0.128232	-0.057482	0.000136
H76	H	0.143384	-0.094968	-0.050826
H77	H	0.143396	-0.094883	0.051146
N78	N	0.292552	-0.054202	0.000135
H79	H	0.257538	-0.109647	0.000140
H80	H	0.325493	-0.057313	-0.050834
N81	N	0.690417	-0.046238	0.000103
H82	H	0.655407	-0.101686	0.000109
H83	H	0.723356	-0.049344	-0.050867
N84	N	0.804735	0.261739	0.192356
H85	H	0.774894	0.302618	0.232900
H86	H	0.836526	0.303592	0.156434
