data_functionalizedCrystal
_audit_creation_method	'MofGen! by Chris Wilmer'
_symmetry_space_group_name_H-M	'P1'
_symmetry_Int_Tables_number	1
_symmetry_cell_setting	triclinic
loop_
_symmetry_equiv_pos_as_xyz
  x,y,z
_cell_length_a	16.109301
_cell_length_b	16.992695
_cell_length_c	14.586319
_cell_angle_alpha	89.995905
_cell_angle_beta	89.999213
_cell_angle_gamma	87.064852
loop_
_atom_site_label
_atom_site_type_symbol
_atom_site_fract_x
_atom_site_fract_y
_atom_site_fract_z
O1	O	1.109856	0.100784	-0.076183
O2	O	1.609856	0.600784	0.423817
O3	O	0.868631	0.113326	-0.076198
O4	O	1.368631	0.613326	0.423802
O5	O	0.988277	-0.007087	-0.076183
O6	O	1.488277	0.492913	0.423817
O7	O	0.990211	0.221197	-0.076198
O8	O	1.490211	0.721197	0.423802
O9	O	0.988268	-0.007089	0.076298
O10	O	1.488268	0.492911	0.576298
O11	O	0.868622	0.113324	0.076283
O12	O	1.368622	0.613324	0.576283
O13	O	1.109847	0.100782	0.076298
O14	O	1.609847	0.600782	0.576298
Cu15	Cu	0.989234	0.107053	0.090213
Cu16	Cu	1.489234	0.607053	0.590213
Cu17	Cu	0.989244	0.107055	-0.090113
Cu18	Cu	1.489244	0.607055	0.409887
O19	O	0.990202	0.221196	0.076283
O20	O	1.490202	0.721196	0.576283
C21	C	0.837618	0.112817	0.000041
C22	C	1.337618	0.612817	0.500041
C23	C	0.745221	0.111294	0.000035
C24	C	1.245221	0.611294	0.500035
C25	C	0.527480	0.179203	0.000042
C26	C	1.027480	0.679203	0.500042
C27	C	0.440664	0.177766	0.000048
C28	C	0.940664	0.677766	0.500048
C29	C	0.451005	0.034899	0.000053
C30	C	0.951005	0.534899	0.500053
C31	C	0.537819	0.036337	0.000054
C32	C	1.037819	0.536337	0.500054
C33	C	0.576055	0.108492	0.000043
C34	C	1.076055	0.608492	0.500043
C35	C	0.402424	0.105616	0.000049
C36	C	0.902424	0.605616	0.500049
C37	C	0.308294	0.104057	0.000055
C38	C	0.808294	0.604057	0.500055
C39	C	0.670191	0.110051	0.000039
C40	C	1.170191	0.610051	0.500039
C41	C	0.985784	-0.036300	0.000057
C42	C	1.485784	0.463700	0.500057
C43	C	0.978361	-0.123343	0.000056
C44	C	1.478361	0.376657	0.500056
C45	C	1.049987	-0.173601	0.000062
C46	C	1.549987	0.326399	0.500062
C47	C	1.043007	-0.255386	0.000052
C48	C	1.543007	0.244614	0.500052
C49	C	0.964400	-0.286911	0.000045
C50	C	1.464400	0.213089	0.500045
C51	C	0.892768	-0.236645	0.000037
C52	C	1.392768	0.263355	0.500037
C53	C	0.899749	-0.154862	0.000039
C54	C	1.399749	0.345138	0.500039
C55	C	0.935467	-0.530501	0.000030
C56	C	1.435467	-0.030501	0.500030
C57	C	0.928491	-0.612291	0.000030
C58	C	1.428491	-0.112291	0.500030
C59	C	1.078731	-0.631026	0.000045
C60	C	1.578731	-0.131026	0.500045
C61	C	1.085704	-0.549240	0.000053
C62	C	1.585704	-0.049240	0.500053
C63	C	1.014073	-0.498982	0.000040
C64	C	1.514073	0.001018	0.500040
N65	N	0.957263	-0.370508	0.000038
N66	N	1.457263	0.129492	0.500038
N67	N	1.021210	-0.415387	0.000040
N68	N	1.521210	0.084613	0.500040
C69	C	1.140860	0.101291	0.000057
C70	C	1.640860	0.601291	0.500057
C71	C	1.233257	0.102814	0.000057
C72	C	1.733257	0.602814	0.500057
C73	C	0.992694	0.250408	0.000041
C74	C	1.492694	0.750408	0.500041
C75	C	1.000118	0.337451	0.000036
C76	C	1.500118	0.837451	0.500036
N77	N	0.989232	0.107051	0.217045
N78	N	1.489232	0.607051	0.717045
N79	N	0.989252	0.107051	-0.216945
N80	N	1.489252	0.607051	0.283055
C81	C	1.042231	0.053750	0.452058
C82	C	1.542231	0.553750	0.952058
C83	C	1.042233	0.053748	0.548039
C84	C	1.542233	0.553748	1.048039
C85	C	0.936247	0.160355	0.548036
C86	C	1.436247	0.660355	1.048036
C87	C	0.936241	0.160352	0.452056
C88	C	1.436241	0.660352	0.952056
C89	C	0.989238	0.107051	0.404070
C90	C	1.489238	0.607051	0.904070
C91	C	0.989246	0.107051	0.596030
C92	C	1.489246	0.607051	1.096030
C93	C	0.989248	0.107050	0.700098
C94	C	1.489248	0.607050	1.200098
C95	C	0.989235	0.107051	0.299996
C96	C	1.489235	0.607051	0.799996
H97	H	0.401118	0.235347	0.000048
H98	H	0.901118	0.735347	0.500048
H99	H	0.558608	0.237956	0.000040
H100	H	1.058608	0.737956	0.500040
C101	C	1.172172	-0.514569	0.000049
C102	C	1.672172	-0.014569	0.500049
H103	H	1.213831	-0.556215	0.000042
H104	H	1.713831	-0.056215	0.500042
H105	H	1.178018	-0.483056	0.053221
H106	H	1.678018	0.016944	0.553221
H107	H	1.178015	-0.483053	-0.053132
H108	H	1.678015	0.016947	0.446868
C109	C	0.591259	-0.041447	0.000054
C110	C	1.091259	0.458553	0.500054
H111	H	0.648438	-0.030255	0.000063
H112	H	1.148438	0.469745	0.500063
H113	H	0.579160	-0.071033	-0.053117
H114	H	1.079160	0.428967	0.446883
H115	H	0.579155	-0.071033	0.053236
H116	H	1.079155	0.428967	0.553236
H117	H	1.085384	0.010345	0.587108
H118	H	1.585384	0.510345	1.087108
C119	C	1.100517	-0.004886	0.399275
C120	C	1.600517	0.495114	0.899275
H121	H	1.132072	-0.036635	0.441606
H122	H	1.632072	0.463365	0.941606
H123	H	1.136998	0.023324	0.361825
H124	H	1.636998	0.523324	0.861825
H125	H	1.068432	-0.037536	0.361843
H126	H	1.568432	0.462464	0.861843
C127	C	0.877964	0.218989	0.600823
C128	C	1.377964	0.718989	1.100823
H129	H	0.885563	0.211363	0.664859
H130	H	1.385563	0.711363	1.164859
H131	H	0.821910	0.210462	0.585103
H132	H	1.321910	0.710462	1.085103
H133	H	0.890476	0.271322	0.585083
H134	H	1.390476	0.771322	1.085083
C135	C	0.877948	0.218988	0.399265
C136	C	1.377948	0.718988	0.899265
H137	H	0.846395	0.250740	0.441589
H138	H	1.346395	0.750740	0.941589
H139	H	0.841466	0.190772	0.361830
H140	H	1.341466	0.690772	0.861830
H141	H	0.910028	0.251636	0.361818
H142	H	1.410028	0.751636	0.861818
C143	C	0.408947	-0.044466	0.000053
C144	C	0.908947	0.455534	0.500053
H145	H	0.450312	-0.086373	0.000062
H146	H	0.950312	0.413627	0.500062
H147	H	0.375297	-0.047993	-0.053121
H148	H	0.875297	0.452007	0.446879
H149	H	0.375294	-0.047999	0.053232
H150	H	0.875294	0.452001	0.553232
C151	C	1.136455	-0.138932	0.000070
C152	C	1.636455	0.361068	0.500070
H153	H	1.178112	-0.180580	0.000063
H154	H	1.678112	0.319420	0.500063
H155	H	1.142300	-0.107421	0.053244
H156	H	1.642300	0.392579	0.553244
H157	H	1.142303	-0.107415	-0.053110
H158	H	1.642303	0.392585	0.446890
H159	H	1.137048	-0.671954	0.000053
H160	H	1.637048	-0.171954	0.500053
C161	C	1.121795	-0.310668	0.000068
C162	C	1.621795	0.189332	0.500068
H163	H	1.169610	-0.280180	0.000086
H164	H	1.669610	0.219820	0.500086
H165	H	1.122207	-0.342958	-0.053105
H166	H	1.622207	0.157042	0.446895
H167	H	1.122185	-0.342963	0.053248
H168	H	1.622185	0.157037	0.553248
C169	C	0.842020	-0.646966	0.000006
C170	C	1.342020	-0.146966	0.500006
H171	H	0.800358	-0.605321	-0.000013
H172	H	1.300358	-0.105321	0.499987
H173	H	0.836163	-0.678485	0.053176
H174	H	1.336163	-0.178485	0.553176
H175	H	0.836192	-0.678475	-0.053177
H176	H	1.336192	-0.178475	0.446823
C177	C	0.856675	-0.475228	0.000032
C178	C	1.356675	0.024772	0.500032
H179	H	0.808863	-0.505718	0.000040
H180	H	1.308863	-0.005718	0.500040
H181	H	0.856271	-0.442928	-0.053139
H182	H	1.356271	0.057072	0.446861
H183	H	0.856275	-0.442942	0.053215
H184	H	1.356275	0.057058	0.553215
H185	H	0.841423	-0.113942	0.000035
H186	H	1.341423	0.386058	0.500035
C187	C	0.806303	-0.271320	0.000031
C188	C	1.306303	0.228680	0.500031
H189	H	0.812402	-0.327226	0.000040
H190	H	1.312402	0.172774	0.500040
H191	H	0.776583	-0.254065	-0.053144
H192	H	1.276583	0.245935	0.446856
H193	H	0.776582	-0.254069	0.053210
H194	H	1.276582	0.245931	0.553210
