data_functionalizedCrystal
_audit_creation_method	'MofGen! by Chris Wilmer'
_symmetry_space_group_name_H-M	'P1'
_symmetry_Int_Tables_number	1
_symmetry_cell_setting	triclinic
loop_
_symmetry_equiv_pos_as_xyz
  x,y,z
_cell_length_a	10.654551
_cell_length_b	17.699083
_cell_length_c	16.776229
_cell_angle_alpha	89.998433
_cell_angle_beta	90.006594
_cell_angle_gamma	96.115857
loop_
_atom_site_label
_atom_site_type_symbol
_atom_site_fract_x
_atom_site_fract_y
_atom_site_fract_z
O1	O	1.665986	-0.106301	0.066280
O2	O	1.300330	-0.116428	0.066284
O3	O	1.493488	-0.001241	0.066275
O4	O	1.472827	-0.221488	0.066289
O5	O	1.493460	-0.001247	-0.066302
O6	O	1.300302	-0.116434	-0.066293
O7	O	1.665957	-0.106307	-0.066297
Zn8	Zn	1.483125	-0.111371	-0.087344
Zn9	Zn	1.483162	-0.111364	0.087331
O10	O	1.472799	-0.221494	-0.066288
C11	C	1.253531	-0.115687	-0.000004
C12	C	1.114127	-0.113462	-0.000003
C13	C	0.917635	-0.110321	-0.072271
C14	C	1.048618	-0.112419	-0.072271
C15	C	1.048643	-0.112416	0.072271
C16	C	0.917661	-0.110324	0.072270
C17	C	0.852135	-0.109270	-0.144545
C18	C	0.917609	-0.110317	-0.216818
C19	C	1.048592	-0.112415	-0.216819
C20	C	1.114102	-0.113465	-0.144545
C21	C	1.492734	0.026958	-0.000014
C22	C	1.490513	0.110990	-0.000014
C23	C	1.712756	-0.107048	-0.000007
C24	C	1.852161	-0.109273	-0.000003
C25	C	1.473553	-0.249693	0.000003
C26	C	1.475774	-0.333725	0.000008
N27	N	1.483109	-0.111376	-0.206555
C28	C	1.603893	0.158890	-0.000016
C29	C	1.601799	0.237847	-0.000009
C30	C	1.486323	0.268902	-0.000006
C31	C	1.372934	0.220996	-0.000001
C32	C	1.375030	0.142040	-0.000002
C33	C	1.364480	0.539412	0.000006
C34	C	1.362393	0.618374	0.000005
C35	C	1.591249	0.635218	-0.000001
C36	C	1.593344	0.556263	-0.000003
C37	C	1.479956	0.508364	0.000006
C38	C	1.482229	0.422751	0.000000
C39	C	1.484049	0.354514	-0.000005
C40	C	1.568729	-0.060366	-0.751724
C41	C	1.568723	-0.060372	-0.668272
C42	C	1.483169	-0.111360	-0.626555
C43	C	1.397624	-0.162352	-0.668294
C44	C	1.397637	-0.162350	-0.751745
C45	C	1.397570	-0.162363	-0.331747
C46	C	1.397561	-0.162359	-0.248290
C47	C	1.568656	-0.060385	-0.248274
C48	C	1.568669	-0.060383	-0.331725
C49	C	1.483129	-0.111377	-0.373457
C50	C	1.483139	-0.111371	-0.463945
C51	C	1.483153	-0.111363	-0.536068
N52	N	1.483188	-0.111353	0.206542
H53	H	0.864261	-0.109468	-0.275661
H54	H	0.745482	-0.107561	-0.144553
C55	C	1.266059	0.410906	0.000021
C56	C	1.239847	0.486767	0.000015
H57	H	1.189109	0.378405	0.000033
H58	H	1.313393	0.401428	-0.046210
H59	H	1.313433	0.401437	0.046255
H60	H	1.192479	0.496238	-0.046222
H61	H	1.192491	0.496250	0.046251
C62	C	1.369993	-0.265210	-0.154436
C63	C	1.303523	-0.218415	-0.202431
H64	H	1.311939	-0.299811	-0.126121
H65	H	1.422175	-0.292724	-0.186983
H66	H	1.420929	-0.234831	-0.117643
H67	H	1.252594	-0.248795	-0.239228
H68	H	1.251319	-0.190900	-0.169881
H69	H	1.327918	-0.203882	-0.365719
H70	H	1.638392	-0.018843	-0.785685
H71	H	1.638378	-0.018856	-0.634293
H72	H	1.282704	0.103040	-0.000000
C73	C	1.177195	0.230936	-0.068142
C74	C	1.245996	0.255125	0.000006
H75	H	1.098823	0.252002	-0.068134
H76	H	1.223853	0.247344	-0.114367
H77	H	1.162230	0.177057	-0.068132
H78	H	1.260968	0.309005	-0.000006
H79	H	1.199327	0.238722	0.046244
C80	C	1.035406	-0.112200	-0.359691
C81	C	1.120564	-0.113567	-0.296259
H82	H	1.079841	-0.112904	-0.408735
H83	H	0.974609	-0.155438	-0.356685
H84	H	0.994031	-0.067323	-0.356677
H85	H	1.161932	-0.158447	-0.299270
H86	H	1.181383	-0.070325	-0.299266
C87	C	0.930832	-0.110531	0.215144
C88	C	0.845681	-0.109173	0.151708
H89	H	0.886392	-0.109820	0.264186
H90	H	0.972210	-0.155399	0.212139
H91	H	0.991631	-0.067284	0.212136
H92	H	0.784888	-0.152423	0.154713
H93	H	0.804283	-0.064300	0.154714
H94	H	1.638331	-0.018861	-0.365688
H95	H	1.694124	0.276844	-0.000013
H96	H	1.638312	-0.018865	-0.214287
H97	H	1.327968	-0.203871	-0.634323
C98	C	1.799615	0.148938	0.068139
C99	C	1.730827	0.124755	-0.000016
H100	H	1.877976	0.127861	0.068143
H101	H	1.814591	0.202809	0.068133
H102	H	1.752932	0.132530	0.114365
H103	H	1.777506	0.141167	-0.046242
H104	H	1.715855	0.070872	-0.000017
C105	C	1.370074	-0.265202	-0.845588
C106	C	1.303604	-0.218395	-0.797619
H107	H	1.312020	-0.299807	-0.873903
H108	H	1.421015	-0.234836	-0.882373
H109	H	1.422251	-0.292717	-0.813016
H110	H	1.251434	-0.190876	-0.830192
H111	H	1.252641	-0.248764	-0.760830
C112	C	1.316067	-0.051529	-0.105195
C113	C	1.258081	-0.115776	-0.144540
H114	H	1.404951	-0.052959	-0.105188
H115	H	1.296155	-0.007007	-0.131894
H116	H	1.286433	-0.051059	-0.051812
H117	H	1.287708	-0.116244	-0.197924
H118	H	1.278003	-0.160310	-0.117843
C119	C	1.819357	0.580847	0.000001
C120	C	1.720278	0.522129	-0.000003
H121	H	1.897720	0.559773	0.000009
H122	H	1.813776	0.611290	-0.046229
H123	H	1.813777	0.611293	0.046236
H124	H	1.725853	0.491686	-0.046241
H125	H	1.725862	0.491673	0.046232
H126	H	1.101991	-0.113270	0.131113
H127	H	1.268353	0.643655	0.000006
C128	C	1.689676	0.763733	0.000011
C129	C	1.715891	0.687872	0.000002
H130	H	1.766624	0.796236	0.000016
H131	H	1.642315	0.773212	-0.046217
H132	H	1.642327	0.773200	0.046248
H133	H	1.763233	0.678403	-0.046239
H134	H	1.763273	0.678389	0.046234
