data_functionalizedCrystal
_audit_creation_method	'MofGen! by Chris Wilmer'
_symmetry_space_group_name_H-M	'P1'
_symmetry_Int_Tables_number	1
_symmetry_cell_setting	triclinic
loop_
_symmetry_equiv_pos_as_xyz
  x,y,z
_cell_length_a	15.944551
_cell_length_b	10.654541
_cell_length_c	9.130307
_cell_angle_alpha	90.000178
_cell_angle_beta	89.995755
_cell_angle_gamma	96.008667
loop_
_atom_site_label
_atom_site_type_symbol
_atom_site_fract_x
_atom_site_fract_y
_atom_site_fract_z
O1	O	0.117965	-1.666312	-0.121758
O2	O	0.129208	-1.300688	-0.121771
O3	O	0.001369	-1.493485	-0.121751
O4	O	0.245804	-1.473516	-0.121778
O5	O	0.001368	-1.493478	0.121848
O6	O	0.129206	-1.300682	0.121828
O7	O	0.117964	-1.666306	0.121841
Cu8	Cu	0.123585	-1.483493	0.144077
Cu9	Cu	0.123587	-1.483501	-0.144007
O10	O	0.245802	-1.473509	0.121821
C11	C	0.128382	-1.253897	0.000027
C12	C	0.125914	-1.114486	0.000022
C13	C	-0.029930	-1.492652	0.000049
C14	C	-0.123190	-1.490167	0.000049
N15	N	0.123584	-1.483497	0.346700
C16	C	-0.338772	-1.364722	0.000025
C17	C	-0.399453	-1.422972	0.120136
C18	C	-0.293942	-1.485671	0.000038
C19	C	-0.399435	-1.423006	-0.120034
C20	C	-0.458880	-1.481319	0.000021
C21	C	-0.353395	-1.543954	0.120248
C22	C	-0.353371	-1.543971	-0.120029
C23	C	-0.414034	-1.602309	0.000111
C24	C	-0.198925	-1.488175	0.000049
C25	C	-0.553896	-1.478825	0.000020
C26	C	0.277102	-1.474342	0.000018
C27	C	0.370362	-1.476827	0.000008
C28	C	0.118790	-1.713097	0.000040
C29	C	0.121258	-1.852508	0.000035
C30	C	0.278779	-1.084537	-0.000013
C31	C	0.354048	-1.004069	-0.000036
C32	C	0.351724	-0.873081	-0.000038
C33	C	0.274122	-0.822560	-0.000011
C34	C	0.198852	-0.903028	0.000012
C35	C	0.201185	-1.034017	0.000009
C36	C	0.045989	-0.932976	0.000058
C37	C	0.048311	-1.063965	0.000049
C38	C	-0.031613	-0.882455	0.000085
C39	C	-0.106885	-0.962924	0.000098
C40	C	-0.104557	-1.093919	0.000097
C41	C	-0.026958	-1.144433	0.000072
N42	N	0.123582	-1.483507	-0.346630
C43	C	0.010416	-1.654288	0.346708
C44	C	-0.046165	-1.739692	0.423378
C45	C	-0.046166	-1.739704	0.576712
C46	C	0.010420	-1.654301	0.653378
C47	C	0.067001	-1.568898	0.576707
C48	C	0.066997	-1.568897	0.423370
C49	C	0.180163	-1.398103	0.576699
C50	C	0.180169	-1.398094	0.423366
C51	C	0.236748	-1.312700	0.653366
C52	C	0.293335	-1.227301	0.576695
C53	C	0.293334	-1.227292	0.423352
C54	C	0.236750	-1.312691	0.346695
H55	H	-0.306045	-1.264329	0.000141
N56	N	-0.326535	-1.611662	0.254903
H57	H	-0.263284	-1.612886	0.254102
H58	H	-0.343743	-1.566282	0.345434
H59	H	-0.446611	-1.702790	0.000183
H60	H	-0.419808	-1.371837	-0.221585
H61	H	-0.033501	-0.775797	0.000092
N62	N	-0.326312	-1.611690	-0.254530
H63	H	-0.342879	-1.565924	-0.345215
H64	H	-0.263121	-1.613566	-0.252881
N65	N	0.432911	-0.786297	-0.000037
H66	H	0.466733	-0.802542	-0.090343
H67	H	0.419596	-0.695686	0.000027
N68	N	0.236757	-1.312712	0.818746
H69	H	0.224001	-1.227399	0.855695
H70	H	0.192337	-1.379831	0.855570
H71	H	0.010418	-1.654297	0.221855
N72	N	-0.426474	-1.355206	0.254641
H73	H	-0.456104	-1.280149	0.224006
H74	H	-0.466154	-1.414753	0.314759
H75	H	0.280679	-1.191193	-0.000044
N76	N	0.354365	-1.135172	0.340675
H77	H	0.391862	-1.183143	0.277048
H78	H	0.321857	-1.079594	0.277150
H79	H	-0.165851	-1.159430	0.000122
N80	N	0.354353	-1.135187	0.659380
H81	H	0.345762	-1.148148	0.768149
H82	H	0.414036	-1.149683	0.632581
N83	N	-0.190576	-0.908436	0.000150
H84	H	-0.180627	-0.813246	0.000160
H85	H	-0.223556	-0.937858	-0.090146
N86	N	0.437745	-1.058557	-0.000060
H87	H	0.427801	-1.153748	-0.000060
H88	H	0.470709	-1.029122	-0.090376
H89	H	0.272236	-0.715901	0.000006
H90	H	-0.025055	-1.251088	0.000055
N91	N	-0.107214	-1.831772	0.340691
H92	H	-0.098636	-1.818803	0.231921
H93	H	-0.096969	-1.920866	0.367468
N94	N	-0.107191	-1.831813	0.659417
H95	H	-0.143038	-1.885913	0.587590
H96	H	-0.074678	-1.887322	0.723022
N97	N	0.010419	-1.654299	0.818758
H98	H	-0.046766	-1.636038	0.855699
H99	H	0.023208	-1.739633	0.855573
N100	N	0.236735	-1.312687	0.181316
H101	H	0.223974	-1.227369	0.144395
H102	H	0.293928	-1.330995	0.144468
