data_functionalizedCrystal
_audit_creation_method	'MofGen! by Chris Wilmer'
_symmetry_space_group_name_H-M	'P1'
_symmetry_Int_Tables_number	1
_symmetry_cell_setting	triclinic
loop_
_symmetry_equiv_pos_as_xyz
  x,y,z
_cell_length_a	17.000371
_cell_length_b	17.019294
_cell_length_c	10.868271
_cell_angle_alpha	86.115896
_cell_angle_beta	89.995187
_cell_angle_gamma	79.505866
loop_
_atom_site_label
_atom_site_type_symbol
_atom_site_fract_x
_atom_site_fract_y
_atom_site_fract_z
O1	O	1.056070	0.028428	-0.105339
O2	O	0.824305	0.057060	-0.108373
O3	O	0.946653	-0.072538	-0.094636
O4	O	0.933722	0.158025	-0.119077
O5	O	0.946643	-0.072542	0.110009
O6	O	0.824295	0.057056	0.096272
O7	O	1.056060	0.028424	0.099306
Zn8	Zn	0.940176	0.042739	0.130281
Zn9	Zn	0.940189	0.042744	-0.139348
O10	O	0.933712	0.158021	0.085568
C11	C	0.794644	0.058596	-0.006214
C12	C	0.706281	0.063169	-0.006699
C13	C	0.674335	-0.007205	0.000764
C14	C	0.591307	-0.002903	0.000299
C15	C	0.540226	0.071773	-0.007620
C16	C	0.572177	0.142152	-0.015086
C17	C	0.655203	0.137849	-0.014630
C18	C	0.289061	0.088391	-0.009390
C19	C	0.206030	0.092688	-0.009842
C20	C	0.225166	-0.052367	0.005541
C21	C	0.308193	-0.056663	0.006004
C22	C	0.340136	0.013716	-0.001469
C23	C	0.455358	0.076171	-0.008091
C24	C	0.425003	0.009316	-0.001006
C25	C	0.946157	-0.101895	0.010796
C26	C	0.944687	-0.189363	0.020061
C27	C	0.944003	-0.230450	-0.087138
C28	C	0.942616	-0.312635	-0.078430
C29	C	0.941918	-0.353733	0.037479
C30	C	0.942599	-0.312640	0.144686
C31	C	0.943981	-0.230456	0.135976
C32	C	0.937741	-0.601876	0.069358
C33	C	0.936362	-0.684067	0.078060
C34	C	0.936377	-0.684055	-0.145056
C35	C	0.937763	-0.601870	-0.153756
C36	C	0.938440	-0.560784	-0.046549
C37	C	0.940502	-0.437739	0.046384
C38	C	0.939850	-0.476778	-0.055455
C39	C	1.085721	0.026888	-0.002856
C40	C	1.174084	0.022315	-0.002379
C41	C	0.934207	0.187378	-0.019866
C42	C	0.935678	0.274847	-0.029139
N43	N	0.940173	0.042735	0.314295
N44	N	0.940199	0.042742	-0.323362
C45	C	0.940185	0.042743	0.565300
C46	C	0.940176	0.042741	0.425623
H47	H	0.349778	-0.117472	0.012457
H48	H	0.944575	-0.196994	-0.181524
H49	H	0.938332	-0.568414	-0.248141
N50	N	0.689663	0.213752	-0.022689
H51	H	0.644707	0.261712	-0.027774
H52	H	0.723694	0.215128	0.053026
N53	N	0.400262	0.156713	-0.016633
H54	H	0.410519	0.187675	0.055945
H55	H	0.410562	0.187605	-0.095821
H56	H	0.938308	-0.568437	0.156654
H57	H	0.935790	-0.717526	0.172452
N58	N	0.150927	0.173232	-0.018416
H59	H	0.161197	0.204177	-0.097575
H60	H	0.093510	0.165198	-0.017520
N61	N	0.941993	-0.356973	-0.194048
H62	H	0.942688	-0.318475	-0.268795
H63	H	0.990779	-0.400850	-0.194127
H64	H	0.935824	-0.717516	-0.232338
H65	H	0.466596	-0.051485	0.005434
H66	H	0.942026	-0.346108	0.239061
N67	N	0.190713	-0.128272	0.013606
H68	H	0.130365	-0.114219	0.012117
H69	H	0.209406	-0.160696	-0.058820
N70	N	0.323509	0.164296	-0.017464
H71	H	0.278549	0.212254	-0.022549
H72	H	0.357542	0.165679	0.058246
N73	N	0.517087	0.222697	-0.023638
H74	H	0.459642	0.214745	-0.022791
H75	H	0.527420	0.253616	0.048947
H76	H	0.944526	-0.197002	0.223269
H77	H	0.565302	-0.060209	0.006374
N78	N	0.940591	-0.432422	-0.180444
H79	H	0.989671	-0.456513	-0.226684
H80	H	0.890997	-0.436905	-0.228646
H81	H	0.939937	-0.471211	0.140757
H82	H	0.715920	-0.068015	0.007217
