data_functionalizedCrystal
_audit_creation_method	'MofGen! by Chris Wilmer'
_symmetry_space_group_name_H-M	'P1'
_symmetry_Int_Tables_number	1
_symmetry_cell_setting	triclinic
loop_
_symmetry_equiv_pos_as_xyz
  x,y,z
_cell_length_a	14.971486
_cell_length_b	17.699103
_cell_length_c	14.048226
_cell_angle_alpha	89.988606
_cell_angle_beta	89.998499
_cell_angle_gamma	83.452595
loop_
_atom_site_label
_atom_site_type_symbol
_atom_site_fract_x
_atom_site_fract_y
_atom_site_fract_z
O1	O	1.186616	0.098632	-0.079062
O2	O	1.686616	0.598632	0.420938
O3	O	0.926176	0.110444	-0.079089
O4	O	1.426176	0.610444	0.420911
O5	O	1.063745	-0.005632	-0.079057
O6	O	1.563745	0.494368	0.420943
O7	O	1.049047	0.214708	-0.079095
O8	O	1.549047	0.714708	0.420905
O9	O	1.063729	-0.005639	0.079265
O10	O	1.563729	0.494361	0.579265
O11	O	0.926160	0.110437	0.079232
O12	O	1.426160	0.610437	0.579232
O13	O	1.186600	0.098625	0.079259
O14	O	1.686600	0.598625	0.579259
Zn15	Zn	1.056377	0.104530	0.104383
Zn16	Zn	1.556377	0.604530	0.604383
Zn17	Zn	1.056399	0.104539	-0.104212
Zn18	Zn	1.556399	0.604539	0.395788
O19	O	1.049031	0.214701	0.079227
O20	O	1.549031	0.714701	0.579227
C21	C	0.892845	0.109912	0.000068
C22	C	1.392845	0.609912	0.500068
C23	C	0.793554	0.108329	0.000059
C24	C	1.293554	0.608329	0.500059
C25	C	1.063207	-0.033834	0.000107
C26	C	1.563207	0.466166	0.500107
C27	C	1.061618	-0.117855	0.000114
C28	C	1.561618	0.382145	0.500114
C29	C	0.736099	0.176520	0.000048
C30	C	1.236099	0.676520	0.500048
C31	C	0.642805	0.175029	0.000063
C32	C	1.142805	0.675029	0.500063
C33	C	0.606966	0.105345	0.000081
C34	C	1.106966	0.605345	0.500081
C35	C	0.664428	0.037148	0.000094
C36	C	1.164428	0.537148	0.500094
C37	C	0.757720	0.038641	0.000086
C38	C	1.257720	0.538641	0.500086
C39	C	0.469976	0.034042	0.000108
C40	C	0.969976	0.534042	0.500108
C41	C	0.376677	0.032549	0.000114
C42	C	0.876677	0.532549	0.500114
C43	C	0.355060	0.170430	0.000084
C44	C	0.855060	0.670430	0.500084
C45	C	0.448353	0.171922	0.000076
C46	C	0.948353	0.671922	0.500076
C47	C	0.505808	0.103725	0.000088
C48	C	1.005808	0.603725	0.500088
C49	C	1.051908	-0.633586	-0.086250
C50	C	1.551908	-0.133586	0.413750
C51	C	1.053400	-0.554639	-0.086241
C52	C	1.553400	-0.054639	0.413759
C53	C	1.054135	-0.515183	0.000066
C54	C	1.554135	-0.015183	0.500066
C55	C	1.053387	-0.554678	0.086369
C56	C	1.553387	-0.054678	0.586369
C57	C	1.051902	-0.633625	0.086360
C58	C	1.551902	-0.133625	0.586360
C59	C	1.059379	-0.236297	0.086410
C60	C	1.559379	0.263703	0.586410
C61	C	1.060862	-0.157345	0.086413
C62	C	1.560862	0.342655	0.586413
C63	C	1.060877	-0.157312	-0.086191
C64	C	1.560877	0.342688	0.413809
C65	C	1.059391	-0.236258	-0.086201
C66	C	1.559391	0.263742	0.413799
C67	C	1.058649	-0.275747	0.000102
C68	C	1.558649	0.224253	0.500102
C69	C	1.057033	-0.361351	0.000092
C70	C	1.557033	0.138649	0.500092
C71	C	1.055744	-0.429580	0.000077
C72	C	1.555744	0.070420	0.500077
C73	C	1.219931	0.099157	0.000100
C74	C	1.719931	0.599157	0.500100
C75	C	1.319223	0.100740	0.000103
C76	C	1.819223	0.600740	0.500103
C77	C	1.049569	0.242903	0.000061
C78	C	1.549569	0.742903	0.500061
C79	C	1.051158	0.326924	0.000047
C80	C	1.551158	0.826924	0.500047
N81	N	1.056369	0.104523	0.246743
N82	N	1.556369	0.604523	0.746743
N83	N	1.056414	0.104540	-0.246573
N84	N	1.556414	0.604540	0.253427
C85	C	1.117303	0.053146	0.296576
C86	C	1.617303	0.553146	0.796576
C87	C	1.117309	0.053146	0.396234
C88	C	1.617309	0.553146	0.896234
C89	C	1.056385	0.104527	0.446057
C90	C	1.556385	0.604527	0.946057
C91	C	0.995444	0.155906	0.396217
C92	C	1.495444	0.655906	0.896217
C93	C	0.995434	0.155903	0.296562
C94	C	1.495434	0.655903	0.796562
C95	C	0.995469	0.155912	0.603932
C96	C	1.495469	0.655912	1.103932
C97	C	0.995480	0.155917	0.703594
C98	C	1.495480	0.655917	1.203594
C99	C	1.117345	0.053155	0.703604
C100	C	1.617345	0.553155	1.203604
C101	C	1.117335	0.053151	0.603948
C102	C	1.617335	0.553151	1.103948
C103	C	1.056395	0.104532	0.554115
C104	C	1.556395	0.604532	1.054115
H105	H	0.765271	0.233265	0.000033
H106	H	1.265271	0.733265	0.500033
Cl107	Cl	1.058436	-0.285930	0.194906
Cl108	Cl	1.558436	0.214070	0.694906
Cl109	Cl	0.570580	0.260759	0.000044
Cl110	Cl	1.070580	0.760759	0.500044
Cl111	Cl	0.493406	0.259526	0.000043
Cl112	Cl	0.993406	0.759526	0.500043
Cl113	Cl	1.054317	-0.505076	0.194870
Cl114	Cl	1.554317	-0.005076	0.694870
Cl115	Cl	1.050977	-0.683180	-0.194756
Cl116	Cl	1.550977	-0.183180	0.305244
Cl117	Cl	1.050964	-0.683270	0.194853
Cl118	Cl	1.550964	-0.183270	0.694853
Cl119	Cl	1.193904	-0.011448	0.233951
Cl120	Cl	1.693904	0.488552	0.733951
Cl121	Cl	0.331624	-0.055055	0.000168
Cl122	Cl	0.831624	0.444945	0.500168
H123	H	1.058788	-0.268379	-0.156481
H124	H	1.558788	0.231621	0.343519
H125	H	1.054013	-0.522491	-0.156513
H126	H	1.554013	-0.022491	0.343487
Cl127	Cl	1.193913	-0.011444	0.458882
Cl128	Cl	1.693913	0.488556	0.958882
H129	H	1.166964	0.011319	0.744183
H130	H	1.666964	0.511319	1.244183
Cl131	Cl	0.829949	-0.047089	0.000104
Cl132	Cl	1.329949	0.452911	0.500104
H133	H	1.061484	-0.125151	-0.156464
H134	H	1.561484	0.374849	0.343536
Cl135	Cl	0.282832	0.256163	0.000072
Cl136	Cl	0.782832	0.756163	0.500072
Cl137	Cl	0.542204	-0.051693	0.000124
Cl138	Cl	1.042204	0.448307	0.500124
Cl139	Cl	1.061787	-0.107744	0.194921
Cl140	Cl	1.561787	0.392256	0.694921
H141	H	1.166949	0.011317	0.563382
H142	H	1.666949	0.511317	1.063382
Cl143	Cl	0.918847	0.220497	0.458850
Cl144	Cl	1.418847	0.720497	0.958850
H145	H	0.635241	-0.019590	0.000122
H146	H	1.135241	0.480410	0.500122
H147	H	0.945868	0.197756	0.744156
H148	H	1.445868	0.697756	1.244156
H149	H	0.945842	0.197749	0.563361
H150	H	1.445842	0.697749	1.063361
H151	H	0.945814	0.197738	0.255989
H152	H	1.445814	0.697738	0.755989
