data_functionalizedCrystal
_audit_creation_method	'MofGen! by Chris Wilmer'
_symmetry_space_group_name_H-M	'P1'
_symmetry_Int_Tables_number	1
_symmetry_cell_setting	triclinic
loop_
_symmetry_equiv_pos_as_xyz
  x,y,z
_cell_length_a	25.639239
_cell_length_b	18.050591
_cell_length_c	18.050582
_cell_angle_alpha	90.020922
_cell_angle_beta	90.024638
_cell_angle_gamma	90.034692
loop_
_atom_site_label
_atom_site_type_symbol
_atom_site_fract_x
_atom_site_fract_y
_atom_site_fract_z
Zn1	Zn	-0.208240	1.135238	0.420021
Zn2	Zn	-0.295667	1.135126	0.295826
Zn3	Zn	-0.208242	1.011058	0.295832
Zn4	Zn	-0.295640	1.010983	0.419962
O5	O	-0.251947	1.073101	0.357910
O6	O	-0.219848	1.239148	0.403568
O7	O	-0.284083	1.118653	0.191902
O8	O	-0.135076	1.027609	0.312333
O9	O	-0.284081	1.239066	0.312323
O10	O	-0.135075	1.118844	0.403574
O11	O	-0.219851	1.027500	0.191906
O12	O	-0.219825	0.907123	0.312276
O13	O	-0.284034	1.027481	0.523894
O14	O	-0.284036	0.907068	0.403473
O15	O	-0.219821	1.118771	0.523938
O16	O	-0.368829	1.118580	0.312266
O17	O	-0.368809	1.027373	0.403468
C18	C	-0.251928	0.880149	0.357869
C19	C	-0.251932	0.797604	0.357869
C20	C	-0.216974	0.598161	0.308390
C21	C	-0.264661	0.548729	0.290112
C22	C	-0.251948	0.646473	0.357903
C23	C	-0.204277	0.548824	0.376179
C24	C	-0.251959	0.500488	0.357934
C25	C	-0.299660	0.598128	0.339589
C26	C	-0.239244	0.598227	0.425688
C27	C	-0.286965	0.548817	0.407435
C28	C	-0.251941	0.730571	0.357883
C29	C	-0.251971	0.416392	0.357954
C30	C	-0.387790	1.072977	0.357876
C31	C	-0.445904	1.072991	0.357886
C32	C	-0.806265	1.120717	0.310502
C33	C	-0.860869	1.120746	0.310512
O34	O	-0.889104	1.161195	0.270187
N35	N	-0.888186	1.073232	0.357959
C36	C	-0.860896	1.025691	0.405405
O37	O	-0.889145	0.985280	0.445764
C38	C	-0.806293	1.025667	0.405398
C39	C	-0.778979	1.073179	0.357943
C40	C	-0.778951	1.168226	0.263051
C41	C	-0.724350	1.168196	0.263040
C42	C	-0.697064	1.120657	0.310481
C43	C	-0.724378	1.073149	0.357932
C44	C	-0.779004	0.978131	0.452847
C45	C	-0.724397	0.978111	0.452837
C46	C	-0.697083	1.025622	0.405381
C47	C	-0.642491	1.025580	0.405362
N48	N	-0.615174	1.073094	0.357914
C49	C	-0.642460	1.120633	0.310474
C50	C	-0.975567	1.025747	0.405416
C51	C	-1.030169	1.025768	0.405420
C52	C	-1.030138	1.120823	0.310528
C53	C	-0.975535	1.120799	0.310521
C54	C	-0.948250	1.073261	0.357969
C55	C	-0.527795	1.120566	0.310455
C56	C	-0.473190	1.120530	0.310446
C57	C	-0.473226	1.025477	0.405340
C58	C	-0.527826	1.025510	0.405347
C59	C	-0.555110	1.073061	0.357901
O60	O	-0.614222	0.985154	0.445668
O61	O	-0.614205	1.161044	0.270129
C62	C	-0.115574	1.073247	0.357961
C63	C	-0.057460	1.073309	0.357982
C64	C	-0.251924	1.073131	0.551616
C65	C	-0.251914	1.073143	0.634162
C66	C	-0.251967	1.266807	0.357952
C67	C	-0.251976	1.349353	0.357970
C68	C	-0.251933	1.073115	0.164958
C69	C	-0.251795	1.073247	0.082413
C70	C	-0.286785	1.023537	0.833589
C71	C	-0.299569	1.091289	0.882987
C72	C	-0.251874	1.073180	0.785292
C73	C	-0.239076	1.005465	0.882976
C74	C	-0.251837	1.073209	0.931277
C75	C	-0.264683	1.140967	0.833603
C76	C	-0.204168	1.055097	0.833588
C77	C	-0.216933	1.122896	0.882963
C78	C	-0.251897	1.073162	0.701194
C79	C	-0.251814	1.073235	1.015374
H80	H	-0.163963	0.527126	0.391599
O81	O	-0.697837	0.931893	0.498826
C82	C	-0.666311	0.883919	0.456496
H83	H	-0.658130	0.910140	0.400240
H84	H	-0.627912	0.873924	0.486734
H85	H	-0.687399	0.828902	0.448285
H86	H	-0.163851	1.039765	0.811873
H87	H	-0.275538	1.198261	0.812006
H88	H	-0.339897	1.106602	0.904685
H89	H	-0.801161	1.206941	0.224419
H90	H	-0.550003	1.159288	0.271822
O91	O	-0.697762	1.214390	0.217051
C92	C	-0.666141	1.262328	0.259379
H93	H	-0.657952	1.236091	0.315628
H94	H	-0.627751	1.272291	0.229130
H95	H	-0.687149	1.317364	0.267605
O96	O	-0.181627	1.173002	0.908572
C97	C	-0.131537	1.154405	0.882298
H98	H	-0.135332	1.119354	0.830022
H99	H	-0.108980	1.207209	0.869066
H100	H	-0.109794	1.121616	0.926557
O101	O	-0.949085	1.167024	0.264402
C102	C	-0.984884	1.208968	0.222519
H103	H	-1.023794	1.211532	0.252949
H104	H	-0.969077	1.267481	0.214651
H105	H	-0.990730	1.181809	0.166090
O106	O	-0.322332	0.523251	0.457411
C107	C	-0.347303	0.583682	0.491895
H108	H	-0.344523	0.634481	0.454597
H109	H	-0.390068	0.569521	0.501836
H110	H	-0.327512	0.595908	0.547135
H111	H	-0.275415	0.526989	0.232800
O112	O	-1.056730	1.167034	0.264566
C113	C	-1.110781	1.156878	0.274770
H114	H	-1.118215	1.132449	0.332033
H115	H	-1.131482	1.212539	0.269886
H116	H	-1.126351	1.117435	0.230642
O117	O	-0.347739	0.623976	0.321061
C118	C	-0.347150	0.702082	0.321257
H119	H	-0.305476	0.722552	0.313098
H120	H	-0.372768	0.723606	0.274341
H121	H	-0.362730	0.723248	0.376488
H122	H	-1.052404	0.987072	0.444056
H123	H	-0.550067	0.986824	0.443991
O124	O	-0.446689	0.979410	0.451503
C125	C	-0.415049	1.021659	0.499483
H126	H	-0.431470	1.080152	0.504128
H127	H	-0.414417	0.994770	0.556613
H128	H	-0.373675	1.024219	0.476510
O129	O	-0.226238	0.937079	0.908763
C130	C	-0.263178	0.884911	0.883621
H131	H	-0.283108	0.906882	0.831621
H132	H	-0.242678	0.830488	0.870307
H133	H	-0.293616	0.875177	0.928605
H134	H	-0.801234	0.939438	0.491487
O135	O	-0.181785	0.623978	0.258287
C136	C	-0.195376	0.598737	0.186912
H137	H	-0.238745	0.584854	0.185401
H138	H	-0.186609	0.643887	0.144557
H139	H	-0.171767	0.547060	0.173061
H140	H	-0.228476	0.619985	0.482982
H141	H	-0.450952	1.159219	0.271799
O142	O	-0.322120	0.973585	0.807755
C143	C	-0.372345	0.992938	0.832943
H144	H	-0.373334	1.054541	0.846806
H145	H	-0.402182	0.980509	0.787769
H146	H	-0.382131	0.959415	0.884621
O147	O	-0.949145	0.979489	0.451528
C148	C	-0.984970	0.937576	0.493415
H149	H	-1.023904	0.935050	0.462993
H150	H	-0.969234	0.879047	0.501275
H151	H	-0.990740	0.964736	0.549847
