data_functionalizedCrystal
_audit_creation_method	'MofGen! by Chris Wilmer'
_symmetry_space_group_name_H-M	'P1'
_symmetry_Int_Tables_number	1
_symmetry_cell_setting	triclinic
loop_
_symmetry_equiv_pos_as_xyz
  x,y,z
_cell_length_a	16.625547
_cell_length_b	19.120786
_cell_length_c	16.625539
_cell_angle_alpha	92.471374
_cell_angle_beta	90.024822
_cell_angle_gamma	92.464876
loop_
_atom_site_label
_atom_site_type_symbol
_atom_site_fract_x
_atom_site_fract_y
_atom_site_fract_z
Zn1	Zn	1.218969	-0.279630	0.442286
Zn2	Zn	1.468969	-0.029630	0.692286
Zn3	Zn	1.718969	0.220370	0.942286
Zn4	Zn	1.968969	0.470370	1.192286
Zn5	Zn	1.213113	-0.397095	0.301692
Zn6	Zn	1.463113	-0.147095	0.551692
Zn7	Zn	1.713113	0.102905	0.801692
Zn8	Zn	1.963113	0.352905	1.051692
Zn9	Zn	1.084130	-0.279655	0.307455
Zn10	Zn	1.334130	-0.029655	0.557455
Zn11	Zn	1.584130	0.220345	0.807455
Zn12	Zn	1.834130	0.470345	1.057455
Zn13	Zn	1.078344	-0.397052	0.436474
Zn14	Zn	1.328344	-0.147052	0.686474
Zn15	Zn	1.578344	0.102948	0.936474
Zn16	Zn	1.828344	0.352948	1.186474
O17	O	1.148639	-0.338358	0.371977
O18	O	1.398639	-0.088358	0.621977
O19	O	1.648639	0.161642	0.871977
O20	O	1.898639	0.411642	1.121977
O21	O	1.331024	-0.295220	0.423656
O22	O	1.581024	-0.045220	0.673656
O23	O	1.831024	0.204780	0.923656
O24	O	2.081024	0.454780	1.173656
O25	O	1.195973	-0.381544	0.189623
O26	O	1.445973	-0.131544	0.439623
O27	O	1.695973	0.118456	0.689623
O28	O	1.945973	0.368456	0.939623
O29	O	1.106889	-0.181361	0.330185
O30	O	1.356889	0.068639	0.580185
O31	O	1.606889	0.318639	0.830185
O32	O	1.856889	0.568639	1.080185
O33	O	1.326721	-0.381520	0.320363
O34	O	1.576721	-0.131520	0.570363
O35	O	1.826721	0.118480	0.820363
O36	O	2.076721	0.368480	1.070363
O37	O	1.205955	-0.181343	0.429245
O38	O	1.455955	0.068657	0.679245
O39	O	1.705955	0.318657	0.929245
O40	O	1.955955	0.568657	1.179245
O41	O	1.101210	-0.295262	0.193857
O42	O	1.351210	-0.045262	0.443857
O43	O	1.601210	0.204738	0.693857
O44	O	1.851210	0.454738	0.943857
O45	O	0.970530	-0.295220	0.324550
O46	O	1.220530	-0.045220	0.574550
O47	O	1.470530	0.204780	0.824550
O48	O	1.720530	0.454780	1.074550
O49	O	1.097027	-0.381448	0.550079
O50	O	1.347027	-0.131448	0.800079
O51	O	1.597027	0.118552	1.050079
O52	O	1.847027	0.368552	1.300079
O53	O	0.966279	-0.381471	0.419339
O54	O	1.216279	-0.131471	0.669339
O55	O	1.466279	0.118529	0.919339
O56	O	1.716279	0.368529	1.169339
O57	O	1.200344	-0.295179	0.554349
O58	O	1.450344	-0.045179	0.804349
O59	O	1.700344	0.204821	1.054349
O60	O	1.950344	0.454821	1.304349
O61	O	1.190363	-0.495379	0.314727
O62	O	1.440363	-0.245379	0.564727
O63	O	1.690363	0.004621	0.814727
O64	O	1.940363	0.254621	1.064727
O65	O	1.091349	-0.495348	0.413751
O66	O	1.341349	-0.245348	0.663751
O67	O	1.591349	0.004652	0.913751
O68	O	1.841349	0.254652	1.163751
C69	C	0.939149	-0.338344	0.371940
C70	C	1.189149	-0.088344	0.621940
C71	C	1.439149	0.161656	0.871940
C72	C	1.689149	0.411656	1.121940
C73	C	0.849527	-0.338355	0.371942
C74	C	1.099527	-0.088355	0.621942
C75	C	1.349527	0.161645	0.871942
C76	C	1.599527	0.411645	1.121942
C77	C	0.776744	-0.338357	0.371952
C78	C	1.026744	-0.088357	0.621952
C79	C	1.276744	0.161643	0.871952
C80	C	1.526744	0.411643	1.121952
C81	C	0.685436	-0.338361	0.371972
C82	C	0.935436	-0.088361	0.621972
C83	C	1.185436	0.161639	0.871972
C84	C	1.435436	0.411639	1.121972
C85	C	0.612659	-0.338367	0.371992
C86	C	0.862659	-0.088367	0.621992
C87	C	1.112659	0.161633	0.871992
C88	C	1.362659	0.411633	1.121992
C89	C	0.521345	-0.338372	0.372011
C90	C	0.771345	-0.088372	0.622011
C91	C	1.021345	0.161628	0.872011
C92	C	1.271345	0.411628	1.122011
C93	C	1.139614	-0.520849	0.363000
C94	C	1.389614	-0.270849	0.613000
C95	C	1.639614	-0.020849	0.863000
C96	C	1.889614	0.229151	1.113000
C97	C	1.135827	-0.598920	0.359187
C98	C	1.385827	-0.348920	0.609187
C99	C	1.635827	-0.098920	0.859187
C100	C	1.885827	0.151080	1.109187
C101	C	1.185588	-0.635528	0.409012
C102	C	1.435588	-0.385528	0.659012
C103	C	1.685588	-0.135528	0.909012
C104	C	1.935588	0.114472	1.159012
C105	C	1.182026	-0.708884	0.405431
C106	C	1.432026	-0.458884	0.655431
C107	C	1.682026	-0.208884	0.905431
C108	C	1.932026	0.041116	1.155431
C109	C	1.128708	-0.745630	0.352019
C110	C	1.378708	-0.495630	0.602019
C111	C	1.628708	-0.245630	0.852019
C112	C	1.878708	0.004370	1.102019
C113	C	1.078941	-0.709017	0.302192
C114	C	1.328941	-0.459017	0.552192
C115	C	1.578941	-0.209017	0.802192
C116	C	1.828941	0.040983	1.052192
C117	C	1.082499	-0.635663	0.305778
C118	C	1.332499	-0.385663	0.555778
C119	C	1.582499	-0.135663	0.805778
C120	C	1.832499	0.114337	1.055778
C121	C	1.115383	-0.967116	0.338613
C122	C	1.365383	-0.717116	0.588613
C123	C	1.615383	-0.467116	0.838613
C124	C	1.865383	-0.217116	1.088613
C125	C	1.111830	-1.040475	0.335029
C126	C	1.361830	-0.790475	0.585029
C127	C	1.611830	-0.540475	0.835029
C128	C	1.861830	-0.290475	1.085029
C129	C	1.214914	-1.040337	0.438269
C130	C	1.464914	-0.790337	0.688269
C131	C	1.714914	-0.540337	0.938269
C132	C	1.964914	-0.290337	1.188269
C133	C	1.218471	-0.966981	0.441847
C134	C	1.468471	-0.716981	0.691847
C135	C	1.718471	-0.466981	0.941847
C136	C	1.968471	-0.216981	1.191847
C137	C	1.168702	-0.930375	0.392023
C138	C	1.418702	-0.680375	0.642023
C139	C	1.668702	-0.430375	0.892023
C140	C	1.918702	-0.180375	1.142023
C141	C	1.125068	-0.820611	0.348355
C142	C	1.375068	-0.570611	0.598355
C143	C	1.625068	-0.320611	0.848355
C144	C	1.875068	-0.070611	1.098355
C145	C	1.172338	-0.855395	0.395691
C146	C	1.422338	-0.605395	0.645691
C147	C	1.672338	-0.355395	0.895691
C148	C	1.922338	-0.105395	1.145691
C149	C	1.358947	-0.338372	0.372015
C150	C	1.608947	-0.088372	0.622015
C151	C	1.858947	0.161628	0.872015
C152	C	2.108947	0.411628	1.122015
C153	C	1.448568	-0.338378	0.372031
C154	C	1.698568	-0.088378	0.622031
C155	C	1.948568	0.161622	0.872031
C156	C	2.198568	0.411622	1.122031
C157	C	1.148694	-0.338306	0.582288
C158	C	1.398694	-0.088306	0.832288
C159	C	1.648694	0.161694	1.082288
C160	C	1.898694	0.411694	1.332288
C161	C	1.148717	-0.338283	0.671911
C162	C	1.398717	-0.088283	0.921911
C163	C	1.648717	0.161717	1.171911
C164	C	1.898717	0.411717	1.421911
C165	C	1.157721	-0.155154	0.381006
C166	C	1.407721	0.094846	0.631006
C167	C	1.657721	0.344846	0.881006
C168	C	1.907721	0.594846	1.131006
C169	C	1.161591	-0.077083	0.384854
C170	C	1.411591	0.172917	0.634854
C171	C	1.661591	0.422917	0.884854
C172	C	1.911591	0.672917	1.134854
C173	C	1.148633	-0.338359	0.162486
C174	C	1.398633	-0.088359	0.412486
C175	C	1.648633	0.161641	0.662486
C176	C	1.898633	0.411641	0.912486
C177	C	1.148775	-0.338184	0.072874
C178	C	1.398775	-0.088184	0.322874
C179	C	1.648775	0.161816	0.572874
C180	C	1.898775	0.411816	0.822874
C181	C	1.148758	-0.338205	1.000090
C182	C	1.398758	-0.088205	1.250090
C183	C	1.648758	0.161795	1.500090
C184	C	1.898758	0.411795	1.750090
C185	C	1.148744	-0.338229	0.908781
C186	C	1.398744	-0.088229	1.158781
C187	C	1.648744	0.161771	1.408781
C188	C	1.898744	0.411771	1.658781
C189	C	1.148738	-0.338245	0.836003
C190	C	1.398738	-0.088245	1.086003
C191	C	1.648738	0.161755	1.336003
C192	C	1.898738	0.411755	1.586003
C193	C	1.148724	-0.338268	0.744688
C194	C	1.398724	-0.088268	0.994688
C195	C	1.648724	0.161732	1.244688
C196	C	1.898724	0.411732	1.494688
H197	H	1.229009	-0.605614	0.452502
H198	H	1.479009	-0.355614	0.702502
H199	H	1.729009	-0.105614	0.952502
H200	H	1.979009	0.144386	1.202502
F201	F	1.234980	-0.747841	0.458471
F202	F	1.484980	-0.497841	0.708471
F203	F	1.734980	-0.247841	0.958471
F204	F	1.984980	0.002159	1.208471
H205	H	1.035525	-0.738942	0.258706
H206	H	1.285525	-0.488942	0.508706
H207	H	1.535525	-0.238942	0.758706
H208	H	1.785525	0.011058	1.008706
F209	F	1.275219	-0.927879	0.498696
F210	F	1.525219	-0.677879	0.748696
F211	F	1.775219	-0.427879	0.998696
F212	F	2.025219	-0.177879	1.248696
F213	F	1.267876	-1.079302	0.491294
F214	F	1.517876	-0.829302	0.741294
F215	F	1.767876	-0.579302	0.991294
F216	F	2.017876	-0.329302	1.241294
F217	F	1.055081	-1.079582	0.278176
F218	F	1.305081	-0.829582	0.528176
F219	F	1.555081	-0.579582	0.778176
F220	F	1.805081	-0.329582	1.028176
F221	F	1.062407	-0.928166	0.285591
F222	F	1.312407	-0.678166	0.535591
F223	F	1.562407	-0.428166	0.785591
F224	F	1.812407	-0.178166	1.035591
H225	H	1.081658	-0.850538	0.304865
H226	H	1.331658	-0.600538	0.554865
H227	H	1.581658	-0.350538	0.804865
H228	H	1.831658	-0.100538	1.054865
H229	H	1.041978	-0.605857	0.265206
H230	H	1.291978	-0.355857	0.515206
H231	H	1.541978	-0.105857	0.765206
H232	H	1.791978	0.144143	1.015206
F233	F	1.229078	-0.816285	0.452538
F234	F	1.479078	-0.566285	0.702538
F235	F	1.729078	-0.316285	0.952538
F236	F	1.979078	-0.066285	1.202538
