data_functionalizedCrystal
_audit_creation_method	'MofGen! by Chris Wilmer'
_symmetry_space_group_name_H-M	'P1'
_symmetry_Int_Tables_number	1
_symmetry_cell_setting	triclinic
loop_
_symmetry_equiv_pos_as_xyz
  x,y,z
_cell_length_a	15.944493
_cell_length_b	10.540514
_cell_length_c	9.016244
_cell_angle_alpha	90.000952
_cell_angle_beta	89.993227
_cell_angle_gamma	83.995102
loop_
_atom_site_label
_atom_site_type_symbol
_atom_site_fract_x
_atom_site_fract_y
_atom_site_fract_z
O1	O	1.115522	0.163358	-0.123310
O2	O	0.871086	0.183619	-0.123316
O3	O	0.998892	-0.011298	-0.123315
O4	O	0.987716	0.358275	-0.123311
O5	O	0.998873	-0.011293	0.123366
O6	O	0.871067	0.183624	0.123365
O7	O	1.115504	0.163362	0.123371
Cu8	Cu	0.993284	0.173493	0.145891
Cu9	Cu	0.993306	0.173488	-0.145837
O10	O	0.987698	0.358279	0.123369
C11	C	0.839777	0.182793	0.000023
C12	C	0.746513	0.180310	0.000021
C13	C	0.998049	-0.058588	0.000022
C14	C	0.995555	-0.199502	0.000011
C15	C	1.086960	-0.271481	0.000017
C16	C	1.084397	-0.418059	0.000586
C17	C	0.945834	-0.391143	0.140614
C18	C	0.949045	-0.244648	0.140722
C19	C	0.947714	-0.244236	-0.139810
C20	C	0.946832	-0.391203	-0.141648
C21	C	0.511431	0.295043	0.000021
C22	C	0.460498	0.233175	0.121653
C23	C	0.575765	0.175710	0.000023
C24	C	0.460521	0.233142	-0.121555
C25	C	0.410829	0.171275	0.000020
C26	C	0.526061	0.113874	0.121756
C27	C	0.526087	0.113859	-0.121561
C28	C	0.475187	0.051902	0.000101
C29	C	0.670780	0.178268	0.000027
C30	C	0.315817	0.168708	0.000027
C31	C	1.146813	0.164188	0.000028
C32	C	1.240076	0.166671	0.000021
C33	C	0.988541	0.405569	0.000029
C34	C	0.991035	0.546484	0.000031
N35	N	0.993274	0.173496	0.351078
N36	N	0.993322	0.173475	-0.351023
C37	C	0.924696	0.277420	0.586110
C38	C	0.924848	0.277804	0.414219
C39	C	1.081093	0.202407	0.413419
C40	C	1.080719	0.203141	0.585364
C41	C	0.974904	0.040312	0.585619
C42	C	0.972889	0.041205	0.413665
H43	H	1.124043	-0.243479	-0.100797
C44	C	0.940479	0.410167	0.644446
H45	H	0.988711	0.402518	0.706944
H46	H	0.892741	0.445517	0.699188
H47	H	0.949740	0.464356	0.563184
H48	H	0.554584	0.063510	0.224689
C49	C	1.151772	0.102868	0.358164
H50	H	1.204315	0.122149	0.397175
H51	H	1.153784	0.104664	0.252894
H52	H	1.140826	0.020378	0.390362
H53	H	0.881901	-0.195707	0.146716
H54	H	0.878783	-0.414450	-0.150564
C55	C	0.836265	0.254541	0.642005
H56	H	0.795761	0.318271	0.602800
H57	H	0.835156	0.258384	0.747258
H58	H	0.823313	0.172845	0.610412
H59	H	0.978147	-0.213166	-0.246402
H60	H	0.527661	0.397835	0.000135
C61	C	0.991446	-0.447217	-0.282155
H62	H	1.036819	-0.508330	-0.254606
H63	H	1.012601	-0.380710	-0.337357
H64	H	0.952438	-0.487199	-0.341173
C65	C	0.421790	0.301253	0.260561
H66	H	0.433945	0.387586	0.260415
H67	H	0.445109	0.259714	0.346929
H68	H	0.362429	0.298482	0.260013
H69	H	0.936686	0.376624	0.373073
H70	H	1.096828	0.300256	0.625454
C71	C	1.132190	-0.475104	0.137534
H72	H	1.153243	-0.408681	0.193045
H73	H	1.177858	-0.534233	0.106414
H74	H	1.094943	-0.517575	0.197657
C75	C	1.103343	0.332108	0.355243
H76	H	1.059234	0.368806	0.292980
H77	H	1.154392	0.320138	0.300286
H78	H	1.110111	0.387413	0.436585
C79	C	0.993627	-0.207130	0.283222
H80	H	1.009612	-0.281386	0.340496
H81	H	0.956341	-0.149513	0.339309
H82	H	1.042447	-0.167366	0.257766
C83	C	1.136312	-0.231339	0.136006
H84	H	1.101452	-0.170908	0.192782
H85	H	1.184959	-0.194182	0.103895
H86	H	1.152957	-0.304166	0.195256
H87	H	0.459114	-0.050968	0.000170
H88	H	0.554744	0.063499	-0.224397
C89	C	1.151826	0.104756	0.641548
H90	H	1.180818	0.064525	0.559283
H91	H	1.128364	0.042382	0.700106
H92	H	1.190175	0.146680	0.699895
H93	H	0.431888	0.283560	-0.224371
C94	C	0.890204	0.002774	0.644246
H95	H	0.865279	0.067972	0.707917
H96	H	0.899559	-0.075031	0.697796
H97	H	0.853509	-0.007743	0.563180
H98	H	1.119949	-0.461221	-0.100165
H99	H	0.859596	0.260581	0.372072
C100	C	0.987698	-0.449216	0.282496
H101	H	1.032716	-0.511457	0.256361
H102	H	0.947223	-0.488177	0.339252
H103	H	1.009002	-0.383835	0.339395
C104	C	0.853201	-0.420001	0.147155
H105	H	0.841243	-0.470471	0.064011
H106	H	0.817261	-0.342224	0.145619
H107	H	0.843957	-0.465138	0.235867
H108	H	0.908285	0.019264	0.372921
H109	H	1.019561	-0.039767	0.370689
H110	H	0.880289	-0.196056	-0.141157
H111	H	1.024940	-0.037040	0.626272
