data_functionalizedCrystal
_audit_creation_method	'MofGen! by Chris Wilmer'
_symmetry_space_group_name_H-M	'P1'
_symmetry_Int_Tables_number	1
_symmetry_cell_setting	triclinic
loop_
_symmetry_equiv_pos_as_xyz
  x,y,z
_cell_length_a	10.723024
_cell_length_b	19.188930
_cell_length_c	9.198806
_cell_angle_alpha	89.991701
_cell_angle_beta	89.996352
_cell_angle_gamma	83.806325
loop_
_atom_site_label
_atom_site_type_symbol
_atom_site_fract_x
_atom_site_fract_y
_atom_site_fract_z
O1	O	1.655155	0.097922	-0.120901
O2	O	1.291808	0.107295	-0.120908
O3	O	1.483967	0.001021	-0.120876
O4	O	1.462996	0.204196	-0.120933
O5	O	1.483952	0.001021	0.120909
O6	O	1.291793	0.107295	0.120877
O7	O	1.655140	0.097922	0.120884
Cu8	Cu	1.473465	0.102608	0.142957
Cu9	Cu	1.473483	0.102609	-0.142982
O10	O	1.462981	0.204196	0.120852
C11	C	1.245315	0.106613	-0.000016
C12	C	1.106803	0.104572	-0.000017
C13	C	0.916362	0.041179	-0.000002
C14	C	1.059522	0.043287	-0.000001
C15	C	1.483280	-0.024995	0.000021
C16	C	1.481242	-0.102512	0.000033
C17	C	1.593994	-0.146704	0.000042
C18	C	1.592079	-0.219540	0.000019
C19	C	1.477405	-0.248182	0.000016
C20	C	1.364638	-0.203981	-0.000002
C21	C	1.366556	-0.131146	0.000007
N22	N	1.389745	-0.356756	0.082298
N23	N	1.387930	-0.425947	0.082293
C24	C	1.471618	-0.467628	-0.000014
N25	N	1.557208	-0.437506	-0.082297
N26	N	1.559026	-0.368310	-0.082285
C27	C	1.475312	-0.327158	0.000005
C28	C	1.582302	-0.590797	-0.000032
C29	C	1.580382	-0.663634	-0.000065
C30	C	1.352937	-0.648073	-0.000070
C31	C	1.354860	-0.575238	-0.000053
C32	C	1.469546	-0.546604	-0.000027
C33	C	1.701633	0.098604	-0.000012
C34	C	1.840145	0.100645	-0.000020
C35	C	1.463668	0.230211	-0.000048
C36	C	1.465706	0.307729	-0.000070
N37	N	1.473462	0.102608	0.344071
N38	N	1.473496	0.102604	-0.344096
C39	C	1.554148	0.057789	0.416282
C40	C	1.554167	0.057787	0.583694
H41	H	1.125011	-0.007620	0.000005
H42	H	1.259567	-0.671393	-0.000080
H43	H	1.041321	0.155482	-0.000038
Br44	Br	1.745111	-0.279525	0.000025
Br45	Br	1.669320	-0.006165	0.687186
H46	H	1.675686	-0.567482	-0.000018
Br47	Br	0.908021	0.188105	-0.000026
H48	H	0.875629	-0.011292	0.000034
Br49	Br	1.358360	0.166569	0.552421
H50	H	1.404393	0.140974	0.406188
H51	H	1.687380	-0.123395	0.000058
Br52	Br	1.213522	-0.071168	-0.000009
Br53	Br	1.733417	-0.723611	-0.000068
Br54	Br	1.209007	-0.242849	-0.000024
H55	H	1.623208	0.019418	0.354167
Br56	Br	1.201830	-0.515260	-0.000063
