data_functionalizedCrystal
_audit_creation_method	'MofGen! by Chris Wilmer'
_symmetry_space_group_name_H-M	'P1'
_symmetry_Int_Tables_number	1
_symmetry_cell_setting	triclinic
loop_
_symmetry_equiv_pos_as_xyz
  x,y,z
_cell_length_a	10.723023
_cell_length_b	10.654550
_cell_length_c	9.198806
_cell_angle_alpha	89.997986
_cell_angle_beta	89.996513
_cell_angle_gamma	84.476225
loop_
_atom_site_label
_atom_site_type_symbol
_atom_site_fract_x
_atom_site_fract_y
_atom_site_fract_z
O1	O	1.657214	0.176142	-0.120874
O2	O	1.294065	0.193004	-0.120879
O3	O	1.483989	0.001832	-0.120871
O4	O	1.467290	0.367313	-0.120882
O5	O	1.483974	0.001832	0.120914
O6	O	1.294049	0.193003	0.120906
O7	O	1.657199	0.176142	0.120911
Cu8	Cu	1.475623	0.184572	0.142985
Cu9	Cu	1.475641	0.184573	-0.142953
O10	O	1.467275	0.367313	0.120903
C11	C	1.247557	0.191777	0.000012
C12	C	1.109002	0.188106	0.000010
C13	C	1.482755	-0.044966	0.000020
C14	C	1.479087	-0.184408	0.000015
C15	C	0.904042	0.182676	-0.125242
C16	C	1.047245	0.186470	-0.125242
C17	C	1.590911	-0.263911	0.000021
C18	C	1.587457	-0.394931	0.000011
C19	C	1.360344	-0.366933	-0.000006
C20	C	1.363800	-0.235915	-0.000006
C21	C	1.706199	-0.212404	0.000042
C22	C	1.818033	-0.291908	0.000049
C23	C	1.814578	-0.422928	0.000039
C24	C	1.699290	-0.474445	0.000021
C25	C	1.703707	0.177369	0.000016
C26	C	1.842262	0.181039	0.000009
C27	C	1.468508	0.414111	0.000009
C28	C	1.472177	0.553554	0.000005
N29	N	1.475619	0.184571	0.344099
N30	N	1.475654	0.184564	-0.344067
C31	C	1.555363	0.103950	0.416300
C32	C	1.555383	0.103946	0.583712
H33	H	1.100374	0.187885	-0.232474
O34	O	1.636778	0.021422	0.657616
C35	C	1.615070	-0.103026	0.620565
H36	H	1.567037	-0.103265	0.510025
H37	H	1.708192	-0.164270	0.615497
H38	H	1.552431	-0.142176	0.706212
O39	O	1.394236	0.267087	0.418041
C40	C	1.415926	0.391540	0.380978
H41	H	1.463939	0.391789	0.270420
H42	H	1.322800	0.452777	0.375943
H43	H	1.478577	0.430690	0.466599
H44	H	1.407383	0.253596	0.593853
H45	H	1.911896	-0.249955	0.000028
H46	H	0.850917	0.181261	-0.232473
H47	H	0.895388	0.182441	0.107240
O48	O	1.045824	0.186487	0.128080
C49	C	1.131064	0.188710	0.244538
H50	H	1.219087	0.230861	0.206037
H51	H	1.085951	0.248576	0.336663
H52	H	1.157082	0.088493	0.285085
O53	O	1.709780	-0.085160	-0.000016
C54	C	1.835510	-0.056743	0.000043
H55	H	1.897831	-0.140168	-0.045729
H56	H	1.844730	0.030065	-0.070144
H57	H	1.865638	-0.037145	0.116047
H58	H	1.905639	-0.487658	0.000031
O59	O	1.696090	-0.601737	-0.000192
C60	C	1.757203	-0.653173	-0.125436
H61	H	1.825505	-0.585842	-0.167176
H62	H	1.810712	-0.747712	-0.097282
H63	H	1.684813	-0.667560	-0.213125
H64	H	1.266481	-0.408889	-0.000018
H65	H	1.272742	-0.171182	-0.000009
H66	H	1.623617	0.034925	0.354177
