data_functionalizedCrystal
_audit_creation_method	'MofGen! by Chris Wilmer'
_symmetry_space_group_name_H-M	'P1'
_symmetry_Int_Tables_number	1
_symmetry_cell_setting	triclinic
loop_
_symmetry_equiv_pos_as_xyz
  x,y,z
_cell_length_a	18.101398
_cell_length_b	29.839131
_cell_length_c	18.101389
_cell_angle_alpha	90.028941
_cell_angle_beta	90.009745
_cell_angle_gamma	90.030787
loop_
_atom_site_label
_atom_site_type_symbol
_atom_site_fract_x
_atom_site_fract_y
_atom_site_fract_z
Zn1	Zn	1.132100	-0.178954	0.418496
Zn2	Zn	1.632100	0.321046	0.918496
Zn3	Zn	1.131987	-0.254070	0.294632
Zn4	Zn	1.631987	0.245930	0.794632
Zn5	Zn	1.008259	-0.178949	0.294689
Zn6	Zn	1.508259	0.321051	0.794689
Zn7	Zn	1.008200	-0.254052	0.418452
Zn8	Zn	1.508200	0.245948	0.918452
O9	O	1.070136	-0.216506	0.356567
O10	O	1.570136	0.283494	0.856567
O11	O	1.235718	-0.188928	0.402060
O12	O	1.735718	0.311072	0.902060
O13	O	1.115551	-0.244112	0.191007
O14	O	1.615551	0.255888	0.691007
O15	O	1.024758	-0.116083	0.311155
O16	O	1.524758	0.383917	0.811155
O17	O	1.235634	-0.244116	0.311058
O18	O	1.735634	0.255884	0.811058
O19	O	1.115744	-0.116086	0.402115
O20	O	1.615744	0.383914	0.902115
O21	O	1.024648	-0.188921	0.191049
O22	O	1.524648	0.311079	0.691049
O23	O	0.904618	-0.188902	0.311112
O24	O	1.404618	0.311098	0.811112
O25	O	1.024659	-0.244084	0.522091
O26	O	1.524659	0.255916	1.022091
O27	O	0.904575	-0.244079	0.402040
O28	O	1.404575	0.255921	0.902040
O29	O	1.115687	-0.188910	0.522123
O30	O	1.615687	0.311090	1.022123
O31	O	1.115494	-0.316935	0.311015
O32	O	1.615494	0.183065	0.811015
O33	O	1.024549	-0.316921	0.401985
O34	O	1.524549	0.183079	0.901985
C35	C	0.877726	-0.216489	0.356578
C36	C	1.377726	0.283511	0.856578
C37	C	0.795412	-0.216492	0.356600
C38	C	1.295412	0.283508	0.856600
C39	C	0.496321	-0.216518	0.356569
C40	C	0.996321	0.283482	0.856569
C41	C	0.527644	-0.251402	0.413496
C42	C	1.027644	0.248598	0.913496
C43	C	0.613262	-0.251293	0.413730
C44	C	1.113262	0.248707	0.913730
C45	C	0.644703	-0.216506	0.356584
C46	C	1.144703	0.283494	0.856584
C47	C	0.613654	-0.169189	0.377926
C48	C	1.113654	0.330811	0.877926
C49	C	0.528009	-0.169399	0.378331
C50	C	1.028009	0.330601	0.878331
C51	C	0.527867	-0.228534	0.278162
C52	C	1.027867	0.271466	0.778162
C53	C	0.613517	-0.229572	0.278581
C54	C	1.113517	0.270428	0.778581
C55	C	0.728563	-0.216496	0.356592
C56	C	1.228563	0.283504	0.856592
C57	C	0.412461	-0.216525	0.356563
C58	C	0.912461	0.283475	0.856563
C59	C	1.070023	-0.333229	0.356505
C60	C	1.570023	0.166771	0.856505
C61	C	1.070043	-0.383163	0.356503
C62	C	1.570043	0.116837	0.856503
C63	C	1.117502	-0.692773	0.403998
C64	C	1.617502	-0.192773	0.903998
C65	C	1.117582	-0.880446	0.404043
C66	C	1.617582	-0.380446	0.904043
O67	O	1.157823	-0.904683	0.444378
O68	O	1.657823	-0.404683	0.944378
N69	N	1.070262	-0.903948	0.356650
N70	N	1.570262	-0.403948	0.856650
C71	C	1.022915	-0.880529	0.309245
C72	C	1.522915	-0.380529	0.809245
O73	O	0.982662	-0.904825	0.268941
O74	O	1.482662	-0.404825	0.768941
C75	C	1.022831	-0.692857	0.309205
C76	C	1.522831	-0.192857	0.809205
C77	C	1.070160	-0.669357	0.356596
C78	C	1.570160	-0.169357	0.856596
C79	C	1.164827	-0.669274	0.451386
C80	C	1.664827	-0.169274	0.951386
C81	C	1.164809	-0.622358	0.451371
C82	C	1.664809	-0.122358	0.951371
C83	C	1.117467	-0.598943	0.403969
C84	C	1.617467	-0.098943	0.903969
C85	C	1.070142	-0.622442	0.356582
C86	C	1.570142	-0.122442	0.856582
C87	C	0.975481	-0.669439	0.261805
C88	C	1.475481	-0.169439	0.761805
C89	C	0.975463	-0.622518	0.261801
C90	C	1.475463	-0.122518	0.761801
C91	C	1.022791	-0.599018	0.309192
C92	C	1.522791	-0.099018	0.809192
C93	C	1.022782	-0.552111	0.309165
C94	C	1.522782	-0.052111	0.809165
N95	N	1.070103	-0.528609	0.356558
N96	N	1.570103	-0.028609	0.856558
C97	C	1.117445	-0.552025	0.403960
C98	C	1.617445	-0.052025	0.903960
C99	C	1.022963	-0.979060	0.309269
C100	C	1.522963	-0.479060	0.809269
C101	C	1.022985	-1.025978	0.309278
C102	C	1.522985	-0.525978	0.809278
C103	C	1.117652	-1.025892	0.404076
C104	C	1.617652	-0.525892	0.904076
C105	C	1.117633	-0.978973	0.404063
C106	C	1.617633	-0.478973	0.904063
C107	C	1.070283	-0.955558	0.356662
C108	C	1.570283	-0.455558	0.856662
C109	C	1.117405	-0.453499	0.403926
C110	C	1.617405	0.046501	0.903926
C111	C	1.117385	-0.406579	0.403905
C112	C	1.617385	0.093421	0.903905
C113	C	1.022716	-0.406669	0.309110
C114	C	1.522716	0.093331	0.809110
C115	C	1.022738	-0.453585	0.309128
C116	C	1.522738	0.046415	0.809128
C117	C	1.070085	-0.476998	0.356542
C118	C	1.570085	0.023002	0.856542
O119	O	0.982557	-0.527845	0.268857
O120	O	1.482557	-0.027845	0.768857
O121	O	1.157680	-0.527721	0.444270
O122	O	1.657680	-0.027721	0.944270
C123	C	1.117520	-0.739689	0.404013
C124	C	1.617520	-0.239689	0.904013
C125	C	1.070195	-0.763188	0.356625
C126	C	1.570195	-0.263188	0.856625
C127	C	1.022853	-0.739772	0.309223
C128	C	1.522853	-0.239772	0.809223
C129	C	1.070217	-0.810106	0.356634
C130	C	1.570217	-0.310106	0.856634
C131	C	1.117559	-0.833522	0.404036
C132	C	1.617559	-0.333522	0.904036
C133	C	1.164880	-0.810020	0.451429
C134	C	1.664880	-0.310020	0.951429
C135	C	1.164862	-0.763105	0.451415
C136	C	1.664862	-0.263105	0.951415
C137	C	0.975533	-0.763274	0.261830
C138	C	1.475533	-0.263274	0.761830
C139	C	0.975555	-0.810190	0.261848
C140	C	1.475555	-0.310190	0.761848
C141	C	1.022897	-0.833606	0.309250
C142	C	1.522897	-0.333606	0.809250
C143	C	1.263298	-0.216524	0.356558
C144	C	1.763298	0.283476	0.856558
C145	C	1.345612	-0.216532	0.356553
C146	C	1.845612	0.283468	0.856553
C147	C	1.070179	-0.216495	0.549729
C148	C	1.570179	0.283505	1.049729
C149	C	1.070197	-0.216490	0.632044
C150	C	1.570197	0.283510	1.132044
C151	C	1.070270	-0.099328	0.356646
C152	C	1.570270	0.400672	0.856646
C153	C	1.070327	-0.049393	0.356680
C154	C	1.570327	0.450607	0.856680
C155	C	1.070136	-0.216485	0.164157
C156	C	1.570136	0.283515	0.664157
C157	C	1.070262	-0.216364	0.081843
C158	C	1.570262	0.283636	0.581843
C159	C	1.070241	-0.216406	0.931135
C160	C	1.570241	0.283594	1.431135
C161	C	1.012771	-0.251010	0.899789
C162	C	1.512771	0.248990	1.399789
C163	C	1.012926	-0.251170	0.814171
C164	C	1.512926	0.248830	1.314171
C165	C	1.070218	-0.216448	0.782752
C166	C	1.570218	0.283552	1.282752
C167	C	1.148242	-0.229302	0.813834
C168	C	1.648242	0.270698	1.313834
C169	C	1.147922	-0.229529	0.899479
C170	C	1.647922	0.270471	1.399479
C171	C	1.050365	-0.168871	0.899578
C172	C	1.550365	0.331129	1.399578
C173	C	1.048629	-0.169145	0.813928
C174	C	1.548629	0.330855	1.313928
C175	C	1.070211	-0.216471	0.698893
C176	C	1.570211	0.283529	1.198893
C177	C	1.070253	-0.216384	1.014994
C178	C	1.570253	0.283616	1.514994
H179	H	0.634253	-0.286381	0.400352
H180	H	1.134253	0.213619	0.900352
C181	C	1.169724	-1.051658	0.456223
C182	C	1.669724	-0.551658	0.956223
N183	N	1.208939	-1.071067	0.495502
N184	N	1.708939	-0.571067	0.995502
H185	H	0.991210	-0.159451	0.793614
H186	H	1.491210	0.340549	1.293614
H187	H	1.155954	-0.472557	0.442540
H188	H	1.655954	0.027443	0.942540
H189	H	1.092223	-0.143089	0.919852
H190	H	1.592223	0.356911	1.419852
C191	C	0.642419	-0.197734	0.218201
C192	C	1.142419	0.302266	0.718201
N193	N	0.664186	-0.173748	0.172725
N194	N	1.164186	0.326252	0.672725
C195	C	0.974834	-0.153052	0.928756
C196	C	1.474834	0.346948	1.428756
N197	N	0.917940	-0.141143	0.950732
N198	N	1.417940	0.358857	1.450732
H199	H	0.507024	-0.286605	0.400268
H200	H	1.007024	0.213395	0.900268
H201	H	0.506134	-0.243554	0.471254
H202	H	1.006134	0.256446	0.971254
H203	H	0.954739	-0.243047	0.920392
H204	H	1.454739	0.256953	1.420392
H205	H	1.165384	-0.263682	0.792377
H206	H	1.665384	0.236318	1.292377
H207	H	1.025762	-0.286029	0.921301
H208	H	1.525762	0.213971	1.421301
H209	H	0.936941	-0.688564	0.223214
H210	H	1.436941	-0.188564	0.723214
C211	C	0.970925	-1.051822	0.257138
C212	C	1.470925	-0.551822	0.757138
N213	N	0.931708	-1.071286	0.217869
N214	N	1.431708	-0.571286	0.717869
H215	H	0.633765	-0.243343	0.471824
H216	H	1.133765	0.256657	0.971824
C217	C	0.500017	-0.133094	0.324767
C218	C	1.000017	0.366906	0.824767
N219	N	0.478937	-0.105747	0.284428
N220	N	0.978937	0.394253	0.784428
H221	H	0.936902	-0.603455	0.223202
H222	H	1.436902	-0.103455	0.723202
H223	H	1.087433	-0.141995	0.792542
H224	H	1.587433	0.358005	1.292542
H225	H	0.508049	-0.159206	0.435650
H226	H	1.008049	0.340794	0.935650
C227	C	0.923486	-0.836034	0.209710
C228	C	1.423486	-0.336034	0.709710
N229	N	0.884263	-0.855498	0.170447
N230	N	1.384263	-0.355498	0.670447
C231	C	0.641141	-0.133127	0.323641
C232	C	1.141141	0.366873	0.823641
N233	N	0.661836	-0.105967	0.282745
N234	N	1.161836	0.394033	0.782745
H235	H	0.635120	-0.158813	0.434622
H236	H	1.135120	0.341187	0.934622
C237	C	0.498656	-0.274346	0.251960
C238	C	0.998656	0.225654	0.751960
N239	N	0.476655	-0.308854	0.232234
N240	N	0.976655	0.191146	0.732234
C241	C	0.970678	-0.479435	0.256992
C242	C	1.470678	0.020565	0.756992
N243	N	0.931460	-0.498902	0.217727
N244	N	1.431460	0.001098	0.717727
C245	C	1.030640	-0.298773	0.786478
C246	C	1.530640	0.201227	1.286478
N247	N	1.043968	-0.334631	0.765620
N248	N	1.543968	0.165369	1.265620
C249	C	1.170680	-0.276475	0.926458
C250	C	1.670680	0.223525	1.426458
N251	N	1.187818	-0.311836	0.946774
N252	N	1.687818	0.188164	1.446774
H253	H	1.192192	-0.205420	0.920215
H254	H	1.692192	0.294580	1.420215
H255	H	1.192211	-0.204891	0.793484
H256	H	1.692211	0.295109	1.293484
C257	C	0.500496	-0.194210	0.220859
C258	C	1.000496	0.305790	0.720859
N259	N	0.479876	-0.168357	0.177703
N260	N	0.979876	0.331643	0.677703
C261	C	0.640957	-0.276605	0.256825
C262	C	1.140957	0.223395	0.756825
N263	N	0.661640	-0.312027	0.240435
N264	N	1.161640	0.187973	0.740435
H265	H	1.203346	-0.603228	0.489963
H266	H	1.703346	-0.103228	0.989963
C267	C	1.169455	-0.380733	0.456039
C268	C	1.669455	0.119267	0.956039
N269	N	1.208672	-0.361267	0.495305
N270	N	1.708672	0.138733	0.995305
C271	C	0.970639	-0.380903	0.256973
C272	C	1.470639	0.119097	0.756973
N273	N	0.931409	-0.361494	0.217708
N274	N	1.431409	0.138506	0.717708
C275	C	1.216917	-0.695024	0.503530
C276	C	1.716917	-0.195024	1.003530
N277	N	1.256162	-0.714416	0.542803
N278	N	1.756162	-0.214416	1.042803
H279	H	1.156172	-0.959842	0.442653
H280	H	1.656172	-0.459842	0.942653
C281	C	0.934763	-0.240301	0.785778
C282	C	1.434763	0.259699	1.285778
N283	N	0.875886	-0.232116	0.764396
N284	N	1.375886	0.267884	1.264396
C285	C	0.970864	-0.953309	0.257128
C286	C	1.470864	-0.453309	0.757128
N287	N	0.931620	-0.933916	0.217856
N288	N	1.431620	-0.433916	0.717856
H289	H	1.203401	-0.743975	0.490005
H290	H	1.703401	-0.243975	0.990005
H291	H	1.203430	-0.829094	0.490023
H292	H	1.703430	-0.329094	0.990023
H293	H	0.936980	-0.744213	0.223230
H294	H	1.436980	-0.244213	0.723230
