data_functionalizedCrystal
_audit_creation_method	'MofGen! by Chris Wilmer'
_symmetry_space_group_name_H-M	'P1'
_symmetry_Int_Tables_number	1
_symmetry_cell_setting	triclinic
loop_
_symmetry_equiv_pos_as_xyz
  x,y,z
_cell_length_a	19.188930
_cell_length_b	19.188933
_cell_length_c	18.366186
_cell_angle_alpha	89.992367
_cell_angle_beta	89.988632
_cell_angle_gamma	83.145175
loop_
_atom_site_label
_atom_site_type_symbol
_atom_site_fract_x
_atom_site_fract_y
_atom_site_fract_z
O1	O	0.087175	0.926148	-0.060534
O2	O	0.098908	0.722837	-0.060541
O3	O	-0.008614	0.830360	-0.060523
O4	O	0.194697	0.818626	-0.060552
O5	O	-0.008619	0.830342	0.060576
O6	O	0.098903	0.722819	0.060558
O7	O	0.087170	0.926130	0.060566
Zn8	Zn	0.093035	0.824472	0.079789
Zn9	Zn	0.093042	0.824496	-0.079765
O10	O	0.194692	0.818608	0.060547
C11	C	0.098525	0.696817	0.000007
C12	C	0.097384	0.619313	0.000005
C13	C	0.089241	0.066067	-0.065997
C14	C	0.090310	0.138892	-0.066000
C15	C	0.090844	0.175299	0.000011
C16	C	0.090292	0.138878	0.066030
C17	C	0.089217	0.066056	0.066031
N18	N	0.132260	0.284311	0.049140
N19	N	0.133283	0.353489	0.049134
C20	C	0.094082	0.394707	0.000012
N21	N	0.053828	0.364134	-0.049117
N22	N	0.052808	0.294949	-0.049113
C23	C	0.092009	0.254262	0.000017
C24	C	0.095787	0.510084	-0.066006
C25	C	0.096851	0.582911	-0.066007
C26	C	0.096840	0.582894	0.066025
C27	C	0.095770	0.510071	0.066024
C28	C	0.095246	0.473669	0.000006
C29	C	-0.034628	0.829971	0.000029
C30	C	-0.112132	0.828830	0.000035
C31	C	-0.157056	0.891921	0.000041
C32	C	-0.229880	0.890849	0.000029
C33	C	-0.257777	0.826683	0.000026
C34	C	-0.212843	0.763584	0.000016
C35	C	-0.140021	0.764658	0.000021
N36	N	-0.365784	0.777630	0.041237
N37	N	-0.434962	0.776614	0.041234
C38	C	-0.477185	0.823445	0.000011
N39	N	-0.447618	0.871340	-0.041200
N40	N	-0.378433	0.872358	-0.041194
C41	C	-0.336739	0.825512	0.000021
C42	C	-0.601073	0.885378	0.000004
C43	C	-0.673898	0.884304	-0.000013
C44	C	-0.656860	0.757037	-0.000018
C45	C	-0.584037	0.758113	-0.000010
C46	C	-0.556148	0.822286	0.000005
C47	C	0.220705	0.818997	-0.000006
C48	C	0.298210	0.820137	-0.000017
C49	C	0.087553	0.952150	0.000015
C50	C	0.088694	1.029655	0.000013
N51	N	0.093030	0.824460	0.188680
N52	N	0.093042	0.824513	-0.188656
C53	C	0.045443	0.872087	0.226789
C54	C	0.045440	0.872091	0.303017
C55	C	0.093036	0.824476	0.341133
C56	C	0.140627	0.776840	0.303015
C57	C	0.140624	0.776833	0.226789
C58	C	0.156652	0.815134	0.461884
C59	C	0.156656	0.815147	0.538109
C60	C	0.093045	0.824496	0.576240
C61	C	0.029427	0.833847	0.538138
C62	C	0.029424	0.833839	0.461911
C63	C	0.093044	0.824479	0.423788
C64	C	0.045450	0.872130	0.697004
C65	C	0.045446	0.872129	0.773233
C66	C	0.140639	0.776882	0.773230
C67	C	0.140637	0.776879	0.697003
C68	C	0.093043	0.824507	0.658894
H69	H	0.097291	0.612557	-0.119762
H70	H	0.088812	0.036434	-0.119754
N71	N	-0.278349	0.958897	0.000048
H72	H	-0.308936	0.961300	-0.044843
H73	H	-0.249585	0.999675	0.000086
H74	H	-0.679573	0.704792	-0.000024
N75	N	-0.005882	0.923471	0.344129
H76	H	0.001345	0.916249	0.398201
H77	H	-0.055398	0.915568	0.330825
H78	H	0.179390	0.738099	0.665973
N79	N	0.088625	0.026778	0.137231
H80	H	0.088641	0.060953	0.179048
H81	H	0.131698	-0.008901	0.140321
N82	N	0.090899	0.178177	-0.137199
H83	H	0.090404	0.144067	-0.179020
H84	H	0.134620	0.202597	-0.140072
N85	N	-0.242927	0.694376	0.000009
H86	H	-0.295877	0.703268	0.000009
H87	H	-0.226487	0.666768	0.044900
H88	H	0.208455	0.807509	0.430844
N89	N	-0.091565	0.696606	0.000031
H90	H	-0.041200	0.707023	0.000040
H91	H	-0.100557	0.668634	-0.044863
N92	N	-0.535578	0.690065	-0.000012
H93	H	-0.564299	0.649252	-0.000015
H94	H	-0.505003	0.687732	0.044883
H95	H	-0.022376	0.841451	0.430891
N96	N	-0.005891	0.923452	0.185686
H97	H	-0.036039	0.953624	0.221399
H98	H	-0.036695	0.896817	0.154075
N99	N	-0.722353	0.952357	-0.000001
H100	H	-0.772719	0.941941	-0.000009
H101	H	-0.713332	0.980344	-0.044887
N102	N	0.090867	0.178140	0.137228
H103	H	0.091634	0.229798	0.127212
H104	H	0.133949	0.159613	0.166051
H105	H	0.179390	0.738110	0.804264
N106	N	-0.126984	0.961137	0.000051
H107	H	-0.143375	0.988774	-0.044839
H108	H	-0.074039	0.952193	0.000081
H109	H	0.179380	0.738070	0.334053
H110	H	-0.022371	0.841459	0.569183
N111	N	0.095182	0.470791	0.137221
H112	H	0.095198	0.504966	0.179038
H113	H	0.138255	0.435112	0.140311
N114	N	-0.005880	0.923505	0.814337
H115	H	0.001340	0.916283	0.868410
H116	H	-0.055395	0.915600	0.801026
H117	H	0.006694	0.910909	0.665975
N118	N	0.191950	0.725460	0.185681
H119	H	0.222101	0.695292	0.221391
H120	H	0.222753	0.752087	0.154040
H121	H	-0.578365	0.937631	0.000012
H122	H	0.208457	0.807537	0.569126
H123	H	0.095358	0.480445	-0.119762
H124	H	0.097273	0.612537	0.119773
