data_functionalizedCrystal
_audit_creation_method	'MofGen! by Chris Wilmer'
_symmetry_space_group_name_H-M	'P1'
_symmetry_Int_Tables_number	1
_symmetry_cell_setting	triclinic
loop_
_symmetry_equiv_pos_as_xyz
  x,y,z
_cell_length_a	16.959455
_cell_length_b	16.625546
_cell_length_c	16.959447
_cell_angle_alpha	89.967702
_cell_angle_beta	89.983056
_cell_angle_gamma	90.019415
loop_
_atom_site_label
_atom_site_type_symbol
_atom_site_fract_x
_atom_site_fract_y
_atom_site_fract_z
Zn1	Zn	1.208391	-0.321051	-0.446898
Zn2	Zn	1.208302	-0.455898	-0.314715
Zn3	Zn	1.076213	-0.321076	-0.314736
Zn4	Zn	1.076179	-0.455838	-0.446854
O5	O	1.142271	-0.388466	-0.380801
O6	O	1.318990	-0.338953	-0.429374
O7	O	1.190757	-0.438050	-0.204107
O8	O	1.093799	-0.208240	-0.332295
O9	O	1.318925	-0.438025	-0.332260
O10	O	1.190909	-0.208222	-0.429394
O11	O	1.093713	-0.338997	-0.204122
O12	O	0.965598	-0.338938	-0.332252
O13	O	1.093740	-0.437922	-0.557471
O14	O	0.965572	-0.437947	-0.429318
O15	O	1.190876	-0.338895	-0.557503
O16	O	1.190724	-0.568723	-0.332217
O17	O	1.093653	-0.568678	-0.429298
C18	C	0.936905	-0.388439	-0.380783
C19	C	0.849048	-0.388447	-0.380794
C20	C	0.477562	-0.336870	-0.330364
C21	C	0.477584	-0.440128	-0.431283
C22	C	0.560130	-0.440117	-0.431278
C23	C	0.601395	-0.388482	-0.380815
C24	C	0.560115	-0.336858	-0.330356
C25	C	0.601416	-0.491745	-0.481731
C26	C	0.683967	-0.491736	-0.481727
C27	C	0.725234	-0.440096	-0.431267
C28	C	0.683949	-0.388470	-0.380807
C29	C	0.725215	-0.336835	-0.330343
C30	C	0.683931	-0.285204	-0.279886
C31	C	0.601382	-0.285219	-0.279895
C32	C	0.807783	-0.440082	-0.431257
C33	C	0.807768	-0.336824	-0.330335
C34	C	1.142196	-0.597957	-0.380768
C35	C	1.142237	-0.687578	-0.380780
C36	C	1.142375	-1.015753	-0.380862
C37	C	1.142334	-0.924445	-0.380842
C38	C	1.142305	-0.851668	-0.380821
C39	C	1.142265	-0.760354	-0.380801
C40	C	1.348439	-0.388493	-0.380819
C41	C	1.436296	-0.388505	-0.380827
C42	C	1.142314	-0.388399	-0.586969
C43	C	1.142332	-0.388370	-0.674826
C44	C	1.142368	-0.178157	-0.380851
C45	C	1.142409	-0.088536	-0.380873
C46	C	1.091875	-0.336713	-1.046316
C47	C	1.192928	-0.439858	-1.046288
C48	C	1.192914	-0.439877	-0.963742
C49	C	1.142379	-0.388314	-0.922479
C50	C	1.091858	-0.336732	-0.963762
C51	C	1.243429	-0.491463	-0.922452
C52	C	1.243417	-0.491485	-0.839901
C53	C	1.192885	-0.439917	-0.798637
C54	C	1.142362	-0.388332	-0.839925
C55	C	1.091827	-0.336769	-0.798663
C56	C	1.041307	-0.285180	-0.839949
C57	C	1.041326	-0.285164	-0.922498
C58	C	1.192867	-0.439933	-0.716089
C59	C	1.091810	-0.336788	-0.716109
C60	C	1.142275	-0.388474	-0.175435
C61	C	1.142410	-0.388276	-0.087578
H62	H	0.567812	-0.533789	-0.522810
C63	C	0.728643	-0.547815	-0.536598
C64	C	0.674835	-0.593023	-0.580806
C65	C	0.715962	-0.644681	-0.631370
H66	H	0.760833	-0.582976	-0.506388
H67	H	0.760845	-0.517025	-0.571133
H68	H	0.642647	-0.623810	-0.546275
H69	H	0.642643	-0.557883	-0.611031
H70	H	0.748164	-0.613891	-0.665905
H71	H	0.748151	-0.679836	-0.601154
H72	H	0.679460	-0.675355	-0.661376
H73	H	1.234066	-0.481844	-1.079889
C74	C	1.247659	-0.496071	-0.671361
C75	C	1.230418	-0.575839	-0.691426
C76	C	1.280885	-0.627578	-0.650247
H77	H	1.240462	-0.488806	-0.616277
H78	H	1.300792	-0.484331	-0.684915
H79	H	1.177299	-0.587575	-0.677868
H80	H	1.237620	-0.583130	-0.746504
H81	H	1.334017	-0.615838	-0.663800
H82	H	1.273683	-0.620305	-0.595165
H83	H	1.269199	-0.681705	-0.663861
H84	H	1.284552	-0.533493	-0.806292
H85	H	0.841361	-0.294771	-0.289245
H86	H	0.717540	-0.243167	-0.238795
C87	C	0.556417	-0.229249	-0.225153
C88	C	0.475293	-0.240326	-0.235950
C89	C	0.433844	-0.188787	-0.185531
H90	H	0.569866	-0.175056	-0.236773
H91	H	0.569873	-0.240980	-0.172002
H92	H	0.461843	-0.228590	-0.289088
H93	H	0.461820	-0.294509	-0.224324
H94	H	0.447300	-0.200518	-0.132380
H95	H	0.447300	-0.134597	-0.197155
H96	H	0.378797	-0.196301	-0.192844
H97	H	0.443980	-0.482172	-0.472364
C98	C	0.852707	-0.496001	-0.486077
C99	C	0.900140	-0.450407	-0.536806
C100	C	0.941543	-0.501895	-0.587314
H101	H	0.816400	-0.526777	-0.516206
H102	H	0.884938	-0.531074	-0.455795
H103	H	0.867912	-0.415349	-0.567086
H104	H	0.936462	-0.419634	-0.506700
H105	H	0.973774	-0.536967	-0.557031
H106	H	0.905230	-0.532668	-0.617436
H107	H	0.973737	-0.470967	-0.621734
H108	H	0.443945	-0.294831	-0.289285
C109	C	0.986572	-0.229027	-0.967280
C110	C	1.003827	-0.149254	-0.947249
C111	C	0.953409	-0.097521	-0.988496
H112	H	0.933427	-0.240718	-0.953774
H113	H	0.993823	-0.236349	-1.022360
H114	H	0.996569	-0.141936	-0.892181
H115	H	1.056962	-0.137538	-0.960757
H116	H	0.960660	-0.104843	-1.043576
H117	H	0.900268	-0.109219	-0.974987
H118	H	0.965114	-0.043389	-0.974917
C119	C	1.036854	-0.280774	-0.671455
C120	C	0.992605	-0.235609	-0.725282
C121	C	0.941964	-0.184010	-0.684176
H122	H	1.067010	-0.245584	-0.639260
H123	H	1.002348	-0.311604	-0.639260
H124	H	1.027106	-0.204781	-0.757464
H125	H	0.962433	-0.270778	-0.757479
H126	H	0.907458	-0.214840	-0.651981
H127	H	0.972126	-0.148825	-0.651983
H128	H	0.911930	-0.153365	-0.720692
H129	H	1.000158	-0.243201	-0.806343
C130	C	1.036897	-0.280752	-1.091035
C131	C	0.958680	-0.298290	-1.070928
C132	C	0.908013	-0.246748	-1.112101
H133	H	1.044036	-0.288069	-1.146120
H134	H	1.048441	-0.226568	-1.077505
H135	H	0.947140	-0.352460	-1.084464
H136	H	0.951516	-0.290968	-1.015850
H137	H	0.919557	-0.192565	-1.098570
H138	H	0.915159	-0.254070	-1.167184
H139	H	0.854938	-0.258636	-1.098459
H140	H	1.284563	-0.533452	-0.956054
