data_functionalizedCrystal
_audit_creation_method	'MofGen! by Chris Wilmer'
_symmetry_space_group_name_H-M	'P1'
_symmetry_Int_Tables_number	1
_symmetry_cell_setting	triclinic
loop_
_symmetry_equiv_pos_as_xyz
  x,y,z
_cell_length_a	12.827893
_cell_length_b	16.120444
_cell_length_c	16.120256
_cell_angle_alpha	95.616860
_cell_angle_beta	92.880277
_cell_angle_gamma	92.926466
loop_
_atom_site_label
_atom_site_type_symbol
_atom_site_fract_x
_atom_site_fract_y
_atom_site_fract_z
Zn1	Zn	1.543788	-0.356763	-0.489420
Zn2	Zn	1.877121	-0.023430	-0.156087
Zn3	Zn	2.210455	0.309903	0.177246
Zn4	Zn	1.543654	-0.489450	-0.356732
Zn5	Zn	1.876987	-0.156116	-0.023399
Zn6	Zn	2.210320	0.177217	0.309935
Zn7	Zn	1.378366	-0.349695	-0.349670
Zn8	Zn	1.711700	-0.016362	-0.016337
Zn9	Zn	2.045033	0.316972	0.316997
Zn10	Zn	1.359652	-0.496495	-0.496460
Zn11	Zn	1.692985	-0.163162	-0.163127
Zn12	Zn	2.026319	0.170171	0.170206
O13	O	1.456365	-0.423101	-0.423071
O14	O	1.789698	-0.089767	-0.089737
O15	O	2.123032	0.243566	0.243596
O16	O	1.690005	-0.374374	-0.471828
O17	O	2.023338	-0.041041	-0.138495
O18	O	2.356672	0.292293	0.194838
O19	O	1.529504	-0.465004	-0.238832
O20	O	1.862837	-0.131671	0.094501
O21	O	2.196170	0.201662	0.427834
O22	O	1.408198	-0.233667	-0.362307
O23	O	1.741532	0.099667	-0.028973
O24	O	2.074865	0.433000	0.304360
O25	O	1.689906	-0.471858	-0.374343
O26	O	2.023240	-0.138525	-0.041009
O27	O	2.356573	0.194809	0.292324
O28	O	1.529733	-0.238860	-0.464981
O29	O	1.863066	0.094474	-0.131647
O30	O	2.196400	0.427807	0.201686
O31	O	1.408068	-0.362327	-0.233644
O32	O	1.741401	-0.028994	0.099689
O33	O	2.074735	0.304339	0.433023
O34	O	1.229649	-0.369159	-0.369133
O35	O	1.562982	-0.035826	-0.035799
O36	O	1.896316	0.297508	0.297534
O37	O	1.376302	-0.483866	-0.612489
O38	O	1.709636	-0.150533	-0.279156
O39	O	2.042969	0.182801	0.054178
O40	O	1.215900	-0.477012	-0.476979
O41	O	1.549233	-0.143679	-0.143646
O42	O	1.882566	0.189654	0.189688
O43	O	1.511586	-0.381206	-0.607317
O44	O	1.844920	-0.047872	-0.273984
O45	O	2.178253	0.285461	0.059350
O46	O	1.511357	-0.607350	-0.381169
O47	O	1.844691	-0.274017	-0.047835
O48	O	2.178024	0.059316	0.285498
O49	O	1.376172	-0.612527	-0.483827
O50	O	1.709505	-0.279193	-0.150493
O51	O	2.042839	0.054140	0.182840
C52	C	1.184857	-0.423084	-0.423054
C53	C	1.518191	-0.089751	-0.089721
C54	C	1.851524	0.243583	0.243613
C55	C	1.068702	-0.423098	-0.423068
C56	C	1.402036	-0.089764	-0.089734
C57	C	1.735369	0.243569	0.243599
C58	C	1.010142	-0.476542	-0.476359
C59	C	1.343475	-0.143209	-0.143026
C60	C	1.676808	0.190124	0.190308
C61	C	0.890089	-0.476558	-0.476374
C62	C	1.223423	-0.143225	-0.143041
C63	C	1.556756	0.190109	0.190292
C64	C	1.441746	-0.640267	-0.434046
C65	C	1.775080	-0.306934	-0.100713
C66	C	2.108413	0.026399	0.232621
C67	C	1.435586	-0.733173	-0.438769
C68	C	1.768920	-0.399840	-0.105436
C69	C	2.102253	-0.066507	0.227897
C70	C	1.488565	-0.942082	-0.398748
C71	C	1.821899	-0.608749	-0.065415
C72	C	2.155232	-0.275415	0.267918
C73	C	1.424358	-0.903269	-0.447402
C74	C	1.757691	-0.569935	-0.114068
C75	C	2.091025	-0.236602	0.219265
C76	C	1.430607	-0.808619	-0.442597
C77	C	1.763941	-0.475286	-0.109264
C78	C	2.097274	-0.141952	0.224069
C79	C	1.482317	-1.036740	-0.403552
C80	C	1.815651	-0.703407	-0.070218
C81	C	2.148984	-0.370074	0.263115
C82	C	1.728933	-0.423118	-0.423088
C83	C	2.062266	-0.089785	-0.089755
C84	C	2.395600	0.243548	0.243579
C85	C	1.845085	-0.423126	-0.423095
C86	C	2.178418	-0.089793	-0.089762
C87	C	2.511752	0.243541	0.243571
C88	C	1.441872	-0.434110	-0.641078
C89	C	1.775205	-0.100777	-0.307745
C90	C	2.108539	0.232556	0.025588
C91	C	1.435696	-0.438802	-0.733980
C92	C	1.769029	-0.105469	-0.400647
C93	C	2.102362	0.227865	-0.067313
C94	C	1.471068	-0.205087	-0.412071
C95	C	1.804401	0.128246	-0.078737
C96	C	2.137735	0.461579	0.254596
C97	C	1.477334	-0.112183	-0.407383
C98	C	1.810667	0.221150	-0.074050
C99	C	2.144000	0.554484	0.259284
C100	C	1.488573	-0.398613	-0.942904
C101	C	1.821906	-0.065280	-0.609571
C102	C	2.155239	0.268053	-0.276237
C103	C	1.424387	-0.447333	-0.904065
C104	C	1.757720	-0.114000	-0.570732
C105	C	2.091054	0.219334	-0.237399
C106	C	1.430681	-0.442585	-0.809421
C107	C	1.764014	-0.109251	-0.476088
C108	C	2.097348	0.224082	-0.142754
C109	C	1.482280	-0.403360	-1.037557
C110	C	1.815613	-0.070027	-0.704224
C111	C	2.148947	0.263306	-0.370890
C112	C	1.470866	-0.412074	-0.205908
C113	C	1.804199	-0.078741	0.127425
C114	C	2.137533	0.254593	0.460759
C115	C	1.477260	-0.407147	-0.112995
C116	C	1.810594	-0.073813	0.220338
C117	C	2.143927	0.259520	0.553672
H118	H	1.029960	-0.377350	-0.377458
H119	H	1.363294	-0.044017	-0.044124
H120	H	1.696627	0.289316	0.289209
Br121	Br	1.324912	-0.966359	-0.522840
Br122	Br	1.658245	-0.633025	-0.189507
Br123	Br	1.991579	-0.299692	0.143826
Br124	Br	0.928967	-0.346862	-0.347037
Br125	Br	1.262300	-0.013529	-0.013704
Br126	Br	1.595633	0.319804	0.319630
Br127	Br	0.806201	-0.552833	-0.552417
Br128	Br	1.139535	-0.219499	-0.219083
Br129	Br	1.472868	0.113834	0.114250
Br130	Br	1.588019	-0.323141	-0.879855
Br131	Br	1.921352	0.010193	-0.546522
Br132	Br	2.254686	0.343526	-0.213188
H133	H	1.548223	-0.904231	-0.353489
H134	H	1.881557	-0.570898	-0.020155
H135	H	2.214890	-0.237564	0.313178
H136	H	1.364703	-0.492604	-0.941895
H137	H	1.698037	-0.159271	-0.608561
H138	H	2.031370	0.174062	-0.275228
Br139	Br	1.074703	-0.552793	-0.552387
Br140	Br	1.408036	-0.219460	-0.219053
Br141	Br	1.741369	0.113874	0.114280
