data_functionalizedCrystal
_audit_creation_method	'MofGen! by Chris Wilmer'
_symmetry_space_group_name_H-M	'P1'
_symmetry_Int_Tables_number	1
_symmetry_cell_setting	triclinic
loop_
_symmetry_equiv_pos_as_xyz
  x,y,z
_cell_length_a	17.038272
_cell_length_b	12.837943
_cell_length_c	11.892095
_cell_angle_alpha	94.310562
_cell_angle_beta	94.170821
_cell_angle_gamma	87.029752
loop_
_atom_site_label
_atom_site_type_symbol
_atom_site_fract_x
_atom_site_fract_y
_atom_site_fract_z
O1	O	0.200065	-1.399724	-0.093986
O2	O	0.189958	-1.097028	-0.093992
O3	O	0.081062	-1.246576	-0.093980
O4	O	0.308961	-1.250175	-0.093998
O5	O	0.090126	-1.234106	0.094026
O6	O	0.199022	-1.084557	0.094014
O7	O	0.209129	-1.387254	0.094021
Zn8	Zn	0.205514	-1.233926	0.123868
Zn9	Zn	0.193572	-1.250356	-0.123839
O10	O	0.318025	-1.237705	0.094009
C11	C	0.191076	-1.051871	0.000010
C12	C	0.180893	-0.935896	0.000008
C13	C	0.056221	-1.237069	0.000023
C14	C	-0.031301	-1.227305	0.000022
C15	C	0.208011	-1.432411	0.000016
C16	C	0.218194	-1.548386	0.000011
C17	C	-0.074719	-1.316945	0.000026
C18	C	-0.156956	-1.307766	0.000015
C19	C	-0.195773	-1.208945	0.000009
C20	C	-0.152349	-1.119299	0.000002
C21	C	-0.070114	-1.128480	0.000005
C22	C	-0.443954	-1.176511	-0.000008
C23	C	-0.526195	-1.167337	-0.000007
C24	C	-0.530796	-1.355805	0.000003
C25	C	-0.448559	-1.364977	0.000013
C26	C	-0.405143	-1.275331	0.000001
C27	C	-0.279832	-1.199560	0.000001
C28	C	-0.321086	-1.284718	0.000000
C29	C	0.342865	-1.247213	0.000003
C30	C	0.430387	-1.256977	-0.000004
N31	N	0.213665	-1.222720	0.292921
C32	C	0.303310	-0.705733	0.000015
C33	C	0.293746	-0.596764	0.000013
C34	C	0.152201	-0.608986	0.000012
C35	C	0.161765	-0.717955	0.000014
C36	C	0.237322	-0.766325	0.000013
C37	C	0.246885	-0.875296	0.000006
C38	C	0.105342	-0.887516	0.000013
C39	C	0.095777	-0.778547	0.000012
N40	N	0.185416	-1.261569	-0.292892
C41	C	0.128657	-1.339540	0.529578
C42	C	0.134361	-1.331715	0.647919
C43	C	0.230770	-1.199241	0.647947
C44	C	0.225067	-1.207066	0.529605
C45	C	0.174010	-1.277219	0.470425
C46	C	0.168311	-1.285048	0.352082
C47	C	0.264716	-1.152569	0.352111
C48	C	0.270419	-1.144745	0.470453
H49	H	-0.192303	-1.380760	0.000020
H50	H	-0.034764	-1.055485	0.000002
H51	H	0.090691	-0.569578	0.000106
O52	O	0.280262	-1.130945	0.705400
C53	C	0.314540	-0.951175	0.741614
C54	C	0.258428	-1.028407	0.676494
H55	H	0.296918	-0.868259	0.718249
H56	H	0.310808	-0.956199	0.836367
H57	H	0.377478	-0.971908	0.718375
H58	H	0.195466	-1.007726	0.699638
H59	H	0.262229	-1.023370	0.581756
O60	O	-0.283428	-1.380745	-0.000196
C61	C	-0.266913	-1.551120	-0.097547
C62	C	-0.309614	-1.442404	-0.097484
H63	H	-0.288081	-1.601009	-0.176183
H64	H	-0.200677	-1.542340	-0.097620
H65	H	-0.280411	-1.590518	-0.018826
H66	H	-0.296181	-1.402945	-0.176191
H67	H	-0.375839	-1.451254	-0.097351
O68	O	-0.572850	-1.442985	0.000052
C69	C	-0.568738	-1.630894	-0.000024
C70	C	-0.521016	-1.532241	-0.000046
H71	H	-0.526851	-1.703083	-0.000128
H72	H	-0.603545	-1.626168	0.078671
H73	H	-0.611160	-1.636463	-0.078690
H74	H	-0.478552	-1.526611	0.078566
H75	H	-0.486261	-1.537009	-0.078793
H76	H	0.034262	-0.739148	0.000025
O77	O	0.308895	-1.092134	0.294704
C78	C	0.439425	-1.045415	0.258574
C79	C	0.389485	-1.113930	0.323635
H80	H	0.504592	-1.062997	0.281959
H81	H	0.426654	-1.063060	0.163812
H82	H	0.423993	-0.959401	0.281846
H83	H	0.404889	-1.199965	0.300458
H84	H	0.402263	-1.096195	0.418382
O85	O	-0.563782	-1.071262	-0.000075
C86	C	-0.550543	-0.885292	-0.000044
C87	C	-0.507877	-0.994026	0.000008
H88	H	-0.505362	-0.822816	0.000047
H89	H	-0.592696	-0.881449	-0.078745
H90	H	-0.585162	-0.871112	0.078616
H91	H	-0.473214	-1.008277	-0.078599
H92	H	-0.465770	-0.997816	0.078760
H93	H	-0.408614	-1.103515	-0.000017
O94	O	-0.190175	-1.023380	0.000046
C95	C	-0.314823	-0.925712	-0.000022
C96	C	-0.272087	-1.034404	-0.000050
H97	H	-0.381056	-0.934590	-0.000124
H98	H	-0.293784	-0.875807	0.078675
H99	H	-0.301261	-0.886272	-0.078686
H100	H	-0.285629	-1.073934	0.078560
H101	H	-0.293130	-1.084233	-0.078800
H102	H	0.364831	-0.745116	0.000012
H103	H	-0.043120	-1.397415	0.000037
H104	H	-0.416960	-1.445447	0.000018
H105	H	0.311987	-1.087625	0.518651
H106	H	0.347480	-0.547433	0.000018
H107	H	-0.311445	-1.119099	-0.000001
O108	O	0.041201	-0.946342	-0.000187
C109	C	-0.081566	-0.996529	-0.097559
C110	C	-0.008961	-0.929876	-0.097480
H111	H	-0.122150	-0.983222	-0.176201
H112	H	-0.061806	-1.082744	-0.097635
H113	H	-0.114521	-0.972907	-0.018844
H114	H	0.024026	-0.953405	-0.176183
H115	H	-0.028773	-0.843676	-0.097346
O116	O	0.118587	-1.353069	0.294667
C117	C	-0.015439	-1.404534	0.258589
C118	C	0.040796	-1.327418	0.323639
H119	H	-0.078343	-1.383836	0.282007
H120	H	-0.011817	-1.399442	0.163825
H121	H	0.002228	-1.487471	0.281837
H122	H	0.023167	-1.244447	0.300486
H123	H	0.037166	-1.332601	0.418388
O124	O	0.079003	-1.407707	0.472259
C125	C	-0.015976	-1.538335	0.484717
C126	C	0.040213	-1.461161	0.549768
H127	H	-0.047340	-1.581589	0.547354
H128	H	-0.061388	-1.493531	0.429355
H129	H	0.019252	-1.597074	0.429268
H130	H	0.005050	-1.402403	0.605278
H131	H	0.085626	-1.506034	0.605059
H132	H	0.308407	-0.914677	0.000008
H133	H	0.097429	-1.382462	0.696078
