data_functionalizedCrystal
_audit_creation_method	'MofGen! by Chris Wilmer'
_symmetry_space_group_name_H-M	'P1'
_symmetry_Int_Tables_number	1
_symmetry_cell_setting	triclinic
loop_
_symmetry_equiv_pos_as_xyz
  x,y,z
_cell_length_a	16.959455
_cell_length_b	16.625545
_cell_length_c	16.959447
_cell_angle_alpha	90.029927
_cell_angle_beta	90.014322
_cell_angle_gamma	90.022505
loop_
_atom_site_label
_atom_site_type_symbol
_atom_site_fract_x
_atom_site_fract_y
_atom_site_fract_z
Zn1	Zn	1.208354	-0.321051	0.446911
Zn2	Zn	1.541687	0.012282	0.780244
Zn3	Zn	1.875020	0.345615	1.113578
Zn4	Zn	1.208263	-0.455899	0.314733
Zn5	Zn	1.541597	-0.122565	0.648067
Zn6	Zn	1.874930	0.210768	0.981400
Zn7	Zn	1.076182	-0.321077	0.314748
Zn8	Zn	1.409515	0.012257	0.648082
Zn9	Zn	1.742849	0.345590	0.981415
Zn10	Zn	1.076134	-0.455839	0.446872
Zn11	Zn	1.409467	-0.122505	0.780205
Zn12	Zn	1.742801	0.210828	1.113538
O13	O	1.142233	-0.388466	0.380816
O14	O	1.475567	-0.055133	0.714149
O15	O	1.808900	0.278200	1.047483
O16	O	1.318953	-0.338954	0.429387
O17	O	1.652286	-0.005621	0.762721
O18	O	1.985619	0.327713	1.096054
O19	O	1.190725	-0.438050	0.204124
O20	O	1.524058	-0.104717	0.537458
O21	O	1.857392	0.228616	0.870791
O22	O	1.093773	-0.208241	0.332303
O23	O	1.427106	0.125092	0.665636
O24	O	1.760439	0.458426	0.998969
O25	O	1.318886	-0.438026	0.332277
O26	O	1.652220	-0.104692	0.665610
O27	O	1.985553	0.228641	0.998944
O28	O	1.190879	-0.208222	0.429402
O29	O	1.524212	0.125111	0.762735
O30	O	1.857545	0.458444	1.096069
O31	O	1.093685	-0.338997	0.204135
O32	O	1.427019	-0.005664	0.537469
O33	O	1.760352	0.327670	0.870802
O34	O	0.965565	-0.338939	0.332265
O35	O	1.298898	-0.005605	0.665598
O36	O	1.632232	0.327728	0.998931
O37	O	1.093691	-0.437923	0.557488
O38	O	1.427024	-0.104590	0.890821
O39	O	1.760358	0.228744	1.224155
O40	O	0.965530	-0.437947	0.429335
O41	O	1.298863	-0.104614	0.762669
O42	O	1.632196	0.228719	1.096002
O43	O	1.190832	-0.338895	0.557517
O44	O	1.524165	-0.005562	0.890850
O45	O	1.857499	0.327771	1.224183
O46	O	1.190678	-0.568723	0.332239
O47	O	1.524012	-0.235390	0.665572
O48	O	1.857345	0.097943	0.998906
O49	O	1.093604	-0.568679	0.429321
O50	O	1.426937	-0.235346	0.762654
O51	O	1.760270	0.097988	1.095987
C52	C	0.936867	-0.388440	0.380798
C53	C	1.270200	-0.055106	0.714131
C54	C	1.603534	0.278227	1.047465
C55	C	0.849010	-0.388448	0.380809
C56	C	1.182344	-0.055114	0.714142
C57	C	1.515677	0.278219	1.047476
C58	C	0.477529	-0.336870	0.330377
C59	C	0.810862	-0.003537	0.663710
C60	C	1.144195	0.329796	0.997044
C61	C	0.477541	-0.440129	0.431300
C62	C	0.810874	-0.106796	0.764634
C63	C	1.144208	0.226538	1.097967
C64	C	0.560087	-0.440117	0.431295
C65	C	0.893420	-0.106784	0.764629
C66	C	1.226753	0.226549	1.097962
C67	C	0.601358	-0.388482	0.380830
C68	C	0.934691	-0.055149	0.714163
C69	C	1.268024	0.278184	1.047496
C70	C	0.560082	-0.336859	0.330369
C71	C	0.893416	-0.003525	0.663702
C72	C	1.226749	0.329808	0.997036
C73	C	0.601368	-0.491746	0.481750
C74	C	0.934701	-0.158412	0.815083
C75	C	1.268035	0.174921	1.148416
C76	C	0.683919	-0.491737	0.481746
C77	C	1.017252	-0.158404	0.815080
C78	C	1.350586	0.174930	1.148413
C79	C	0.725191	-0.440097	0.431284
C80	C	1.058525	-0.106764	0.764617
C81	C	1.391858	0.226570	1.097951
C82	C	0.683911	-0.388471	0.380822
C83	C	1.017244	-0.055137	0.714155
C84	C	1.350578	0.278196	1.047488
C85	C	0.725182	-0.336836	0.330356
C86	C	1.058515	-0.003502	0.663689
C87	C	1.391848	0.329831	0.997023
C88	C	0.683903	-0.285205	0.279897
C89	C	1.017236	0.048129	0.613230
C90	C	1.350570	0.381462	0.946564
C91	C	0.601355	-0.285219	0.279907
C92	C	0.934688	0.048114	0.613240
C93	C	1.268021	0.381448	0.946573
C94	C	0.807740	-0.440083	0.431275
C95	C	1.141073	-0.106750	0.764608
C96	C	1.474406	0.226584	1.097941
C97	C	0.807735	-0.336824	0.330348
C98	C	1.141069	-0.003491	0.663681
C99	C	1.474402	0.329842	0.997015
C100	C	1.142147	-0.597957	0.380791
C101	C	1.475481	-0.264624	0.714124
C102	C	1.808814	0.068709	1.047458
C103	C	1.142183	-0.687578	0.380807
C104	C	1.475516	-0.354245	0.714140
C105	C	1.808850	-0.020912	1.047474
C106	C	1.142214	-0.760361	0.380823
C107	C	1.475547	-0.427027	0.714156
C108	C	1.808880	-0.093694	1.047489
C109	C	1.142260	-0.851669	0.380840
C110	C	1.475593	-0.518336	0.714173
C111	C	1.808926	-0.185003	1.047507
C112	C	1.142301	-0.924446	0.380850
C113	C	1.475634	-0.591112	0.714183
C114	C	1.808967	-0.257779	1.047517
C115	C	1.142346	-1.015760	0.380866
C116	C	1.475679	-0.682427	0.714200
C117	C	1.809013	-0.349093	1.047533
C118	C	1.348402	-0.388494	0.380835
C119	C	1.681735	-0.055160	0.714168
C120	C	2.015068	0.278173	1.047501
C121	C	1.436258	-0.388505	0.380843
C122	C	1.769591	-0.055172	0.714176
C123	C	2.102925	0.278161	1.047509
C124	C	1.142266	-0.388400	0.586984
C125	C	1.475600	-0.055066	0.920318
C126	C	1.808933	0.278267	1.253651
C127	C	1.142280	-0.388371	0.674841
C128	C	1.475614	-0.055038	1.008174
C129	C	1.808947	0.278295	1.341508
C130	C	1.142341	-0.178157	0.380858
C131	C	1.475674	0.155176	0.714192
C132	C	1.809008	0.488509	1.047525
C133	C	1.142387	-0.088536	0.380876
C134	C	1.475720	0.244797	0.714210
C135	C	1.809054	0.578130	1.047543
C136	C	1.142246	-0.388475	0.175450
C137	C	1.475579	-0.055141	0.508783
C138	C	1.808913	0.278192	0.842116
C139	C	1.142385	-0.388276	0.087594
C140	C	1.475719	-0.054943	0.420927
C141	C	1.809052	0.278391	0.754260
C142	C	1.091798	-0.439845	1.046304
C143	C	1.425131	-0.106512	1.379638
C144	C	1.758464	0.226821	1.712971
C145	C	1.192952	-0.336727	1.046329
C146	C	1.526285	-0.003394	1.379663
C147	C	1.859618	0.329940	1.712996
C148	C	1.192931	-0.336744	0.963783
C149	C	1.526264	-0.003411	1.297117
C150	C	1.859597	0.329922	1.630450
C151	C	1.142343	-0.388313	0.922494
C152	C	1.475677	-0.054980	1.255827
C153	C	1.809010	0.278353	1.589161
C154	C	1.091777	-0.439866	0.963751
C155	C	1.425110	-0.106532	1.297084
C156	C	1.758443	0.226801	1.630417
C157	C	1.243502	-0.285199	0.922521
C158	C	1.576835	0.048135	1.255854
C159	C	1.910168	0.381468	1.589187
C160	C	1.243483	-0.285214	0.839970
C161	C	1.576817	0.048119	1.173303
C162	C	1.910150	0.381452	1.506636
C163	C	1.192891	-0.336780	0.798679
C164	C	1.526225	-0.003447	1.132012
C165	C	1.859558	0.329886	1.465345
C166	C	1.142322	-0.388334	0.839941
C167	C	1.475656	-0.055000	1.173274
C168	C	1.808989	0.278333	1.506607
C169	C	1.091735	-0.439903	0.798651
C170	C	1.425068	-0.106570	1.131985
C171	C	1.758401	0.226764	1.465318
C172	C	1.041161	-0.491453	0.839911
C173	C	1.374494	-0.158120	1.173245
C174	C	1.707828	0.175214	1.506578
C175	C	1.041185	-0.491431	0.922460
C176	C	1.374518	-0.158098	1.255793
C177	C	1.707851	0.175235	1.589127
C178	C	1.192868	-0.336802	0.716130
C179	C	1.526201	-0.003469	1.049464
C180	C	1.859534	0.329865	1.382797
C181	C	1.091714	-0.439923	0.716098
C182	C	1.425047	-0.106590	1.049431
C183	C	1.758381	0.226743	1.382764
H184	H	0.717521	-0.533777	0.522834
H185	H	1.050855	-0.200444	0.856167
H186	H	1.384188	0.132889	1.189500
O187	O	0.986587	-0.547063	0.795377
O188	O	1.319920	-0.213729	1.128710
O189	O	1.653254	0.119604	1.462043
H190	H	1.000104	-0.610347	0.811195
H191	H	1.333438	-0.277014	1.144528
H192	H	1.666771	0.056319	1.477861
O193	O	0.433027	-0.495833	0.485711
O194	O	0.766361	-0.162500	0.819045
O195	O	1.099694	0.170834	1.152378
H196	H	0.475599	-0.531736	0.520790
H197	H	0.808932	-0.198403	0.854123
H198	H	1.142265	0.134930	1.187456
O199	O	0.433009	-0.281184	0.275958
O200	O	0.766343	0.052149	0.609291
O201	O	1.099676	0.385482	0.942625
H202	H	0.475579	-0.245275	0.240871
H203	H	0.808912	0.088058	0.574204
H204	H	1.142245	0.421391	0.907538
O205	O	0.852250	-0.281130	0.275918
O206	O	1.185583	0.052203	0.609252
O207	O	1.518917	0.385536	0.942585
H208	H	0.889838	-0.317166	0.235642
H209	H	1.223171	0.016167	0.568975
H210	H	1.556505	0.349501	0.902308
H211	H	0.717516	-0.243167	0.238805
H212	H	1.050850	0.090166	0.572138
H213	H	1.384183	0.423500	0.905471
O214	O	1.037131	-0.495532	0.671573
O215	O	1.370464	-0.162199	1.004907
O216	O	1.703797	0.171134	1.338240
H217	H	1.050646	-0.558817	0.687394
H218	H	1.383979	-0.225483	1.020728
H219	H	1.717312	0.107850	1.354061
O220	O	0.556865	-0.547419	0.536200
O221	O	0.890198	-0.214086	0.869533
O222	O	1.223532	0.119248	1.202867
H223	H	0.572673	-0.610688	0.522545
H224	H	0.906007	-0.277355	0.855878
H225	H	1.239340	0.055978	1.189211
O226	O	0.852265	-0.495760	0.485692
O227	O	1.185598	-0.162427	0.819026
O228	O	1.518932	0.170907	1.152359
H229	H	0.809698	-0.531665	0.520787
H230	H	1.143032	-0.198332	0.854120
H231	H	1.476365	0.135002	1.187454
H232	H	1.000013	-0.533403	0.956061
H233	H	1.333346	-0.200070	1.289395
H234	H	1.666680	0.133263	1.622728
H235	H	1.284692	-0.243219	0.956144
H236	H	1.618025	0.090114	1.289478
H237	H	1.951359	0.423448	1.622811
H238	H	1.050620	-0.481814	1.079902
H239	H	1.383953	-0.148480	1.413235
H240	H	1.717286	0.184853	1.746569
O241	O	0.556821	-0.229565	0.225468
O242	O	0.890154	0.103768	0.558801
O243	O	1.223487	0.437101	0.892134
H244	H	0.519214	-0.188598	0.260905
H245	H	0.852547	0.144735	0.594238
H246	H	1.185880	0.478068	0.927572
H247	H	1.234142	-0.294746	1.079952
H248	H	1.567475	0.038587	1.413285
H249	H	1.900809	0.371920	1.746619
H250	H	1.284663	-0.243239	0.806382
H251	H	1.617996	0.090095	1.139716
H252	H	1.951330	0.423428	1.473049
O253	O	1.247407	-0.281209	0.671625
O254	O	1.580740	0.052124	1.004958
O255	O	1.914073	0.385457	1.338292
H256	H	1.282586	-0.245346	0.714205
H257	H	1.615919	0.087987	1.047538
H258	H	1.949252	0.421320	1.380871
