data_functionalizedCrystal
_audit_creation_method	'MofGen! by Chris Wilmer'
_symmetry_space_group_name_H-M	'P1'
_symmetry_Int_Tables_number	1
_symmetry_cell_setting	triclinic
loop_
_symmetry_equiv_pos_as_xyz
  x,y,z
_cell_length_a	10.723023
_cell_length_b	18.266242
_cell_length_c	10.723022
_cell_angle_alpha	90.006595
_cell_angle_beta	95.532613
_cell_angle_gamma	90.000630
loop_
_atom_site_label
_atom_site_type_symbol
_atom_site_fract_x
_atom_site_fract_y
_atom_site_fract_z
O1	O	-1.657177	0.060888	0.175029
O2	O	-1.294025	0.060887	0.191784
O3	O	-1.483979	0.060885	0.001830
O4	O	-1.467223	0.060890	0.364983
O5	O	-1.483984	-0.060877	0.001811
O6	O	-1.294030	-0.060875	0.191764
O7	O	-1.657182	-0.060874	0.175010
Zn8	Zn	-1.475607	-0.080207	0.183384
Zn9	Zn	-1.475600	0.080220	0.183409
O10	O	-1.467228	-0.060872	0.364964
C11	C	-1.247528	0.000006	0.190555
C12	C	-1.108973	0.000006	0.186908
C13	C	-0.904008	-0.063069	0.181502
C14	C	-1.047211	-0.063071	0.185272
N15	N	-1.475596	0.189707	0.183417
C16	C	-1.559861	0.228014	0.099473
C17	C	-1.559872	0.304659	0.099471
C18	C	-1.475596	0.342993	0.183401
C19	C	-1.391325	0.304676	0.267361
C20	C	-1.391325	0.228033	0.267369
N21	N	-1.365307	0.463332	0.198073
N22	N	-1.365311	0.536141	0.198058
C23	C	-1.475592	0.573916	0.183383
N24	N	-1.585873	0.536133	0.168700
N25	N	-1.585868	0.463318	0.168709
C26	C	-1.475587	0.426100	0.183402
C27	C	-1.559875	0.695331	0.099433
C28	C	-1.559887	0.771977	0.099439
C29	C	-1.391329	0.771993	0.267323
C30	C	-1.391328	0.695348	0.267322
C31	C	-1.475599	0.657022	0.183370
C32	C	-0.703679	0.000007	0.176239
C33	C	-0.842234	0.000007	0.179886
C34	C	-1.482762	0.000004	-0.044679
C35	C	-1.479115	0.000007	-0.183233
N36	N	-1.475612	0.810306	0.183371
C37	C	-1.581632	0.000011	-0.401412
C38	C	-1.585403	0.000008	-0.258209
C39	C	-1.468445	0.000010	0.411473
C40	C	-1.472092	0.000012	0.550027
H41	H	-1.628482	0.196811	0.031118
C42	C	-1.712107	0.000004	-0.201736
H43	H	-1.698020	-0.000004	-0.112896
H44	H	-1.758237	0.042463	-0.228717
H45	H	-1.758226	-0.042465	-0.228738
C46	C	-0.913990	0.072962	0.181791
H47	H	-0.856662	0.112536	0.180297
H48	H	-0.973678	0.075684	0.110487
H49	H	-0.955880	0.075682	0.255785
C50	C	-1.652558	0.346807	0.007122
H51	H	-1.702740	0.313004	-0.042880
H52	H	-1.704792	0.376714	0.052582
H53	H	-1.607313	0.376696	-0.045331
H54	H	-1.322706	0.196842	0.335728
C55	C	-1.298624	0.346840	0.359680
H56	H	-1.310683	0.397974	0.347645
H57	H	-1.312724	0.334290	0.443135
H58	H	-1.215265	0.334277	0.345202
C59	C	-1.652574	0.653169	0.007099
H60	H	-1.702774	0.686964	-0.042886
H61	H	-1.607348	0.623268	-0.045353
H62	H	-1.704807	0.623273	0.052580
C63	C	-1.704555	0.000013	-0.488457
H64	H	-1.685894	0.000020	-0.573287
H65	H	-1.751807	-0.042447	-0.472908
H66	H	-1.751795	0.042481	-0.472887
C67	C	-1.652582	0.814116	0.007095
H68	H	-1.702758	0.780310	-0.042907
H69	H	-1.704820	0.844018	0.052558
H70	H	-1.607344	0.844010	-0.045359
H71	H	-1.100336	-0.117072	0.186656
H72	H	-1.381103	0.000006	-0.385530
C73	C	-1.352404	0.000012	-0.239692
H74	H	-1.286211	0.000016	-0.174076
H75	H	-1.346408	-0.042446	-0.289928
H76	H	-1.346414	0.042481	-0.289896
H77	H	-1.322707	0.664156	0.335672
C78	C	-0.832251	-0.136025	0.179605
H79	H	-0.889577	-0.175598	0.181117
H80	H	-0.790349	-0.138748	0.105626
H81	H	-0.772571	-0.138743	0.250924
C82	C	-1.298640	0.814151	0.359657
H83	H	-1.310707	0.865284	0.347630
H84	H	-1.312749	0.801594	0.443106
H85	H	-1.215277	0.801594	0.345186
H86	H	-1.055857	0.054010	0.185515
