data_functionalizedCrystal
_audit_creation_method	'MofGen! by Chris Wilmer'
_symmetry_space_group_name_H-M	'P1'
_symmetry_Int_Tables_number	1
_symmetry_cell_setting	triclinic
loop_
_symmetry_equiv_pos_as_xyz
  x,y,z
_cell_length_a	16.974829
_cell_length_b	14.044190
_cell_length_c	16.053802
_cell_angle_alpha	92.795827
_cell_angle_beta	83.771117
_cell_angle_gamma	88.284627
loop_
_atom_site_label
_atom_site_type_symbol
_atom_site_fract_x
_atom_site_fract_y
_atom_site_fract_z
O1	O	1.063887	0.112705	-0.141320
O2	O	1.563887	0.612705	0.358680
O3	O	0.834083	0.128977	-0.125796
O4	O	1.334083	0.628977	0.374204
O5	O	0.945532	-0.017125	-0.133308
O6	O	1.445532	0.482875	0.366692
O7	O	0.952438	0.258807	-0.133808
O8	O	1.452438	0.758807	0.366192
O9	O	0.939395	-0.009117	0.005964
O10	O	1.439395	0.490883	0.505964
O11	O	0.827946	0.136985	0.013476
O12	O	1.327946	0.636985	0.513476
O13	O	1.057750	0.120713	-0.002047
O14	O	1.557750	0.620713	0.497953
Zn15	Zn	0.941874	0.130121	0.027827
Zn16	Zn	1.441874	0.630121	0.527827
Zn17	Zn	0.949959	0.119569	-0.155671
Zn18	Zn	1.449959	0.619569	0.344329
O19	O	0.946301	0.266816	0.005465
O20	O	1.446301	0.766816	0.505465
C21	C	0.801427	0.132510	-0.054161
C22	C	1.301427	0.632510	0.445839
C23	C	0.713264	0.131094	-0.048205
C24	C	1.213264	0.631094	0.451795
C25	C	0.216641	0.123626	-0.006527
C26	C	0.716641	0.623626	0.493473
C27	C	0.299480	0.124956	-0.012126
C28	C	0.799480	0.624956	0.487874
C29	C	0.344244	0.121248	-0.090844
C30	C	0.844244	0.621248	0.409156
C31	C	0.306166	0.116220	-0.163968
C32	C	0.806166	0.616220	0.336032
C33	C	0.223329	0.114897	-0.158369
C34	C	0.723329	0.614897	0.341631
C35	C	0.592349	0.124743	-0.115730
C36	C	1.092349	0.624743	0.384270
C37	C	0.675192	0.126063	-0.121323
C38	C	1.175192	0.626063	0.378677
C39	C	0.668499	0.134801	0.030520
C40	C	1.168499	0.634801	0.530520
C41	C	0.585661	0.133472	0.036112
C42	C	1.085661	0.633472	0.536112
C43	C	0.547590	0.128449	-0.037013
C44	C	1.047590	0.628449	0.462987
N45	N	0.428919	0.122604	-0.096568
N46	N	0.928919	0.622604	0.403432
N47	N	0.462917	0.127100	-0.031288
N48	N	0.962917	0.627100	0.468712
C49	C	0.939443	-0.048420	-0.063466
C50	C	1.439443	0.451580	0.436534
C51	C	0.930433	-0.153599	-0.062850
C52	C	1.430433	0.346401	0.437150
C53	C	0.977862	-0.404132	-0.066086
C54	C	1.477862	0.095868	0.433914
C55	C	0.913975	-0.346173	-0.061765
C56	C	1.413975	0.153827	0.438235
C57	C	0.923134	-0.239015	-0.062368
C58	C	1.423134	0.260985	0.437632
C59	C	0.968704	-0.511300	-0.065483
C60	C	1.468704	-0.011300	0.434517
C61	C	1.090406	0.117180	-0.073684
C62	C	1.590406	0.617180	0.426316
C63	C	1.178569	0.118595	-0.079646
C64	C	1.678569	0.618595	0.420354
C65	C	0.952390	0.298110	-0.064380
C66	C	1.452390	0.798110	0.435620
C67	C	0.961401	0.403289	-0.065001
C68	C	1.461401	0.903289	0.434999
N69	N	0.936361	0.137322	0.153059
N70	N	1.436361	0.637322	0.653059
N71	N	0.955477	0.112361	-0.280903
N72	N	1.455477	0.612361	0.219097
C73	C	0.983804	0.075177	0.193555
C74	C	1.483804	0.575177	0.693555
C75	C	0.979956	0.080223	0.281221
C76	C	1.479956	0.580223	0.781221
C77	C	0.928669	0.147419	0.328389
C78	C	1.428669	0.647419	0.828389
C79	C	0.881222	0.209567	0.287888
C80	C	1.381222	0.709567	0.787888
C81	C	0.885066	0.204515	0.200223
C82	C	1.385066	0.704515	0.700223
C83	C	0.911874	0.169457	0.590931
C84	C	1.411874	0.669457	1.090931
C85	C	0.908035	0.174505	0.678601
C86	C	1.408035	0.674505	1.178601
C87	C	1.006769	0.045160	0.671929
C88	C	1.506769	0.545160	1.171929
C89	C	1.010612	0.040119	0.584263
C90	C	1.510612	0.540119	1.084263
C91	C	0.963161	0.102263	0.543769
C92	C	1.463161	0.602263	1.043769
N93	N	0.924736	0.152581	0.417998
N94	N	1.424736	0.652581	0.917998
N95	N	0.967090	0.097096	0.454162
N96	N	1.467090	0.597096	0.954162
H97	H	0.180199	0.126650	0.057573
H98	H	0.680199	0.626650	0.557573
Cl99	Cl	1.039597	0.002096	0.332132
Cl100	Cl	1.539597	0.502096	0.832132
Cl101	Cl	0.818908	-0.393811	-0.055344
Cl102	Cl	1.318908	0.106189	0.444656
H103	H	0.561362	0.120649	-0.175273
H104	H	1.061362	0.620649	0.324727
Cl105	Cl	0.347338	0.131286	0.079800
Cl106	Cl	0.847338	0.631286	0.579800
H107	H	1.039431	-0.373275	-0.070237
H108	H	1.539431	0.126725	0.429763
H109	H	1.025570	0.020463	0.155156
H110	H	1.525570	0.520463	0.655156
Cl111	Cl	1.075088	-0.044356	0.524965
Cl112	Cl	1.575088	0.455644	1.024965
H113	H	1.045400	-0.005436	0.704907
H114	H	1.545400	0.494564	1.204907
Cl115	Cl	0.843556	0.258990	0.737893
Cl116	Cl	1.343556	0.758990	1.237893
Cl117	Cl	0.362442	0.111559	-0.262928
Cl118	Cl	0.862442	0.611559	0.237072
Cl119	Cl	0.816742	0.294039	0.347183
Cl120	Cl	1.316742	0.794039	0.847183
H121	H	0.873240	0.220059	0.557968
H122	H	1.373240	0.720059	1.057968
H123	H	0.711637	0.123051	-0.185428
H124	H	1.211637	0.623051	0.314572
Cl125	Cl	0.825418	0.282641	0.149315
Cl126	Cl	1.325418	0.782641	0.649315
Cl127	Cl	0.175467	0.108577	-0.250294
Cl128	Cl	0.675467	0.608577	0.249706
Cl129	Cl	0.716364	0.141124	0.122441
Cl130	Cl	1.216364	0.641124	0.622441
Cl131	Cl	0.529391	0.138156	0.135076
Cl132	Cl	1.029391	0.638156	0.635076
