data_functionalizedCrystal
_audit_creation_method	'MofGen! by Chris Wilmer'
_symmetry_space_group_name_H-M	'P1'
_symmetry_Int_Tables_number	1
_symmetry_cell_setting	triclinic
loop_
_symmetry_equiv_pos_as_xyz
  x,y,z
_cell_length_a	18.266242
_cell_length_b	9.065218
_cell_length_c	9.065215
_cell_angle_alpha	94.984709
_cell_angle_beta	90.005128
_cell_angle_gamma	89.990913
loop_
_atom_site_label
_atom_site_type_symbol
_atom_site_fract_x
_atom_site_fract_y
_atom_site_fract_z
O1	O	0.060881	-1.960409	0.216360
O2	O	0.560881	-1.460409	0.716360
O3	O	0.060882	-1.531124	0.234106
O4	O	0.560882	-1.031124	0.734106
O5	O	0.060879	-1.754642	0.010590
O6	O	0.560879	-1.254642	0.510590
O7	O	0.060884	-1.736891	0.439875
O8	O	0.560884	-1.236891	0.939875
O9	O	-0.060883	-1.754603	0.010578
O10	O	0.439117	-1.254603	0.510578
O11	O	-0.060880	-1.531085	0.234094
O12	O	0.439120	-1.031085	0.734094
O13	O	-0.060881	-1.960370	0.216347
O14	O	0.439119	-1.460370	0.716347
Zn15	Zn	-0.080213	-1.745722	0.225219
Zn16	Zn	0.419787	-1.245722	0.725219
Zn17	Zn	0.080214	-1.745772	0.225235
Zn18	Zn	0.580214	-1.245772	0.725235
O19	O	-0.060878	-1.736852	0.439863
O20	O	0.439122	-1.236852	0.939863
C21	C	0.000001	-1.476118	0.232394
C22	C	0.500001	-0.976118	0.732394
C23	C	0.000001	-1.312275	0.227295
C24	C	0.500001	-0.812275	0.727295
N25	N	-0.189700	-1.745698	0.225207
N26	N	0.310300	-1.245698	0.725207
C27	C	-0.000002	-1.752917	-0.044403
C28	C	0.499998	-1.252917	0.455597
C29	C	0.000001	-1.747819	-0.208246
C30	C	0.500001	-1.247819	0.291754
C31	C	-0.228010	-1.844705	0.126284
C32	C	0.271990	-1.344705	0.626284
C33	C	-0.304655	-1.844714	0.126277
C34	C	0.195345	-1.344714	0.626277
C35	C	-0.342987	-1.745731	0.225219
C36	C	0.157013	-1.245731	0.725219
C37	C	-0.304667	-1.646705	0.324150
C38	C	0.195333	-1.146705	0.824150
C39	C	-0.228024	-1.646688	0.324144
C40	C	0.271976	-1.146688	0.824144
N41	N	-0.463318	-1.728692	0.355533
N42	N	0.036682	-1.228692	0.855533
N43	N	-0.536126	-1.728717	0.355534
N44	N	-0.036126	-1.228717	0.855534
C45	C	-0.573909	-1.745772	0.225241
C46	C	-0.073909	-1.245772	0.725241
N47	N	-0.536134	-1.762831	0.094943
N48	N	-0.036134	-1.262831	0.594943
N49	N	-0.463320	-1.762814	0.094943
N50	N	0.036680	-1.262814	0.594943
C51	C	-0.426094	-1.745737	0.225236
C52	C	0.073906	-1.245737	0.725236
C53	C	-0.695327	-1.844795	0.126302
C54	C	-0.195327	-1.344795	0.626302
C55	C	-0.771973	-1.844794	0.126294
C56	C	-0.271973	-1.344794	0.626294
C57	C	-0.771984	-1.646792	0.324179
C58	C	-0.271984	-1.146792	0.824179
C59	C	-0.695339	-1.646785	0.324175
C60	C	-0.195339	-1.146785	0.824175
C61	C	-0.657015	-1.745795	0.225238
C62	C	-0.157015	-1.245795	0.725238
N63	N	0.189701	-1.745808	0.225235
N64	N	0.689701	-1.245808	0.725235
C65	C	0.000001	-2.015376	0.218059
C66	C	0.500001	-1.515376	0.718059
C67	C	0.000006	-2.179219	0.223159
C68	C	0.500006	-1.679219	0.723159
C69	C	0.000004	-1.738576	0.494856
C70	C	0.500004	-1.238576	0.994856
C71	C	0.000006	-1.743674	0.658699
C72	C	0.500006	-1.243674	1.158699
H73	H	-0.196809	-1.925321	0.045720
H74	H	0.303191	-1.425321	0.545720
H75	H	-0.803193	-1.566192	0.404734
H76	H	-0.303193	-1.066192	0.904734
C77	C	-0.346805	-1.953649	0.017464
C78	C	0.153195	-1.453649	0.517464
N79	N	-0.378550	-2.035705	-0.064488
N80	N	0.121450	-1.535705	0.435512
C81	C	-0.346834	-1.537816	0.432980
C82	C	0.153166	-1.037816	0.932980
N83	N	-0.378593	-1.455792	0.514949
N84	N	0.121407	-0.955792	1.014949
H85	H	-0.664122	-1.925411	0.045737
H86	H	-0.164122	-1.425411	0.545737
H87	H	-0.664145	-1.566170	0.404734
H88	H	-0.164145	-1.066170	0.904734
H89	H	-0.803166	-1.925413	0.045730
H90	H	-0.303166	-1.425413	0.545730
H91	H	-0.196831	-1.566062	0.404700
H92	H	0.303169	-1.066062	0.904700
