data_functionalizedCrystal
_audit_creation_method	'MofGen! by Chris Wilmer'
_symmetry_space_group_name_H-M	'P1'
_symmetry_Int_Tables_number	1
_symmetry_cell_setting	triclinic
loop_
_symmetry_equiv_pos_as_xyz
  x,y,z
_cell_length_a	8.559649
_cell_length_b	14.519709
_cell_length_c	7.088929
_cell_angle_alpha	83.763835
_cell_angle_beta	95.325015
_cell_angle_gamma	76.729405
loop_
_atom_site_label
_atom_site_type_symbol
_atom_site_fract_x
_atom_site_fract_y
_atom_site_fract_z
O1	O	2.103670	-0.020642	-0.158956
O2	O	2.603670	0.479358	0.341044
O3	O	1.638600	0.026977	-0.158968
O4	O	2.138600	0.526977	0.341032
O5	O	1.883467	-0.131957	-0.158944
O6	O	2.383467	0.368043	0.341056
O7	O	1.858803	0.138292	-0.158979
O8	O	2.358803	0.638292	0.341021
O9	O	1.916191	-0.153240	0.159034
O10	O	2.416191	0.346760	0.659034
O11	O	1.671324	0.005694	0.159010
O12	O	2.171324	0.505694	0.659010
O13	O	2.136393	-0.041925	0.159023
O14	O	2.636393	0.458075	0.659023
Cu15	Cu	1.906847	-0.020059	0.188050
Cu16	Cu	2.406847	0.479941	0.688050
Cu17	Cu	1.868147	0.005111	-0.187996
Cu18	Cu	2.368147	0.505111	0.312004
O19	O	1.891526	0.117009	0.158999
O20	O	2.391526	0.617009	0.658999
C21	C	1.595443	0.019944	0.000020
C22	C	2.095443	0.519944	0.500020
C23	C	1.418093	0.030686	0.000015
C24	C	1.918093	0.530686	0.500015
C25	C	1.898680	-0.176876	0.000045
C26	C	2.398680	0.323124	0.500045
C27	C	1.895236	-0.279010	0.000046
C28	C	2.395236	0.220990	0.500046
C29	C	1.882552	-0.652993	-0.000004
C30	C	2.382552	-0.152993	0.499996
C31	C	1.886074	-0.548938	0.000011
C32	C	2.386074	-0.048938	0.500011
C33	C	1.888894	-0.466005	0.000023
C34	C	2.388894	0.033995	0.500023
C35	C	1.892417	-0.361944	0.000034
C36	C	2.392417	0.138056	0.500034
C37	C	2.179551	-0.034892	0.000031
C38	C	2.679551	0.465108	0.500031
C39	C	2.356899	-0.045633	0.000022
C40	C	2.856899	0.454367	0.500022
C41	C	1.876313	0.161928	0.000005
C42	C	2.376313	0.661928	0.500005
C43	C	1.879756	0.264063	-0.000008
C44	C	2.379756	0.764063	0.499992
N45	N	1.934078	-0.037763	0.452541
N46	N	2.434078	0.462237	0.952541
N47	N	1.840929	0.022807	-0.452487
N48	N	2.340929	0.522807	0.047513
H49	H	1.440186	-0.119190	0.000023
H50	H	1.940186	0.380810	0.500023
C51	C	2.033411	-0.208145	0.514537
C52	C	2.533411	0.291855	1.014537
C53	C	2.064417	-0.122503	0.562769
C54	C	2.564417	0.377497	1.062769
H55	H	2.113882	-0.260458	0.582581
H56	H	2.613882	0.239542	1.082581
H57	H	1.930091	-0.212720	0.547281
H58	H	2.430091	0.287280	1.047281
H59	H	2.035262	-0.209344	0.381038
H60	H	2.535262	0.290656	0.881038
H61	H	2.062555	-0.121302	0.696267
H62	H	2.562555	0.378698	1.196267
H63	H	2.167765	-0.117928	0.530037
H64	H	2.667765	0.382072	1.030037
H65	H	1.334795	0.104249	-0.000005
H66	H	1.834795	0.604249	0.499995
C67	C	1.741601	0.193186	0.485516
C68	C	2.241601	0.693186	0.985516
C69	C	1.710597	0.107542	0.437291
C70	C	2.210597	0.607542	0.937291
H71	H	1.661142	0.245498	0.417450
H72	H	2.161142	0.745498	0.917450
H73	H	1.739741	0.194391	0.618994
H74	H	2.239741	0.694391	1.118994
H75	H	1.844940	0.197756	0.452775
H76	H	2.344940	0.697756	0.952775
H77	H	1.607262	0.102969	0.470045
H78	H	2.107262	0.602969	0.970045
H79	H	1.712440	0.106336	0.303783
H80	H	2.212440	0.606336	0.803783
