data_functionalizedCrystal
_audit_creation_method	'MofGen! by Chris Wilmer'
_symmetry_space_group_name_H-M	'P1'
_symmetry_Int_Tables_number	1
_symmetry_cell_setting	triclinic
loop_
_symmetry_equiv_pos_as_xyz
  x,y,z
_cell_length_a	30.700809
_cell_length_b	30.711276
_cell_length_c	30.700862
_cell_angle_alpha	59.998386
_cell_angle_beta	89.999414
_cell_angle_gamma	60.000191
loop_
_atom_site_label
_atom_site_type_symbol
_atom_site_fract_x
_atom_site_fract_y
_atom_site_fract_z
O1	O	-0.371254	-0.311651	0.012944
O2	O	-0.307913	-0.222487	-0.012907
O3	O	-0.307911	-0.311650	0.076286
O4	O	-0.371257	-0.222488	-0.076249
O5	O	-0.235466	-0.384070	0.076286
O6	O	-0.235468	-0.294907	-0.012907
O7	O	-0.298809	-0.384071	0.012944
Cu8	Cu	-0.260524	-0.346102	0.000018
Cu9	Cu	-0.346199	-0.260456	0.000019
O10	O	-0.298812	-0.294908	-0.076249
C11	C	-0.234796	-0.137097	-0.018777
C12	C	-0.261674	-0.083360	-0.015076
C13	C	-0.182374	-0.163176	-0.019143
C14	C	-0.234798	-0.215942	-0.018783
C15	C	-0.261678	-0.246507	-0.015089
C16	C	-0.182376	-0.241901	-0.019150
C17	C	-0.155920	-0.215947	-0.018777
C18	C	-0.098463	-0.246515	-0.015075
C19	C	-0.261132	-0.163172	-0.019150
C20	C	-0.574961	-0.535511	0.039265
C21	C	-0.548506	-0.588283	0.039634
C22	C	-0.496086	-0.535509	0.039262
C23	C	-0.469751	-0.588281	0.039632
C24	C	-0.496085	-0.614360	0.039265
C25	C	-0.548507	-0.509552	0.039632
C26	C	-0.765169	-0.393516	0.024987
C27	C	-0.819034	-0.364488	0.020950
C28	C	-0.846055	-0.389406	0.018925
C29	C	-0.904462	-0.357927	0.014538
C30	C	-0.819206	-0.443357	0.020941
C31	C	-0.765344	-0.472385	0.024984
C32	C	-0.738325	-0.447463	0.027007
C33	C	-0.447920	-0.790230	0.024988
C34	C	-0.423094	-0.840041	0.020951
C35	C	-0.371150	-0.865027	0.018921
C36	C	-0.344230	-0.919028	0.014536
C37	C	-0.344030	-0.840201	0.020935
C38	C	-0.368852	-0.790399	0.024981
C39	C	-0.420803	-0.765414	0.027004
C40	C	-0.447922	-0.393510	0.024977
C41	C	-0.423099	-0.364475	0.020931
C42	C	-0.371152	-0.389391	0.018903
C43	C	-0.344235	-0.357911	0.014513
C44	C	-0.344034	-0.443338	0.020916
C45	C	-0.368860	-0.472368	0.024960
C46	C	-0.420804	-0.447452	0.026995
C47	C	-0.679920	-0.478941	0.031387
C48	C	-0.633366	-0.504032	0.034880
C49	C	-0.469171	-0.504029	0.034875
C50	C	-0.447717	-0.478936	0.031380
C51	C	-0.469170	-0.668361	0.034880
C52	C	-0.447716	-0.711408	0.031386
C53	C	-0.496432	-0.071057	-0.503890
C54	C	-0.548853	-0.018285	-0.530226
C55	C	-0.496432	-0.071056	-0.425015
C56	C	-0.548854	-0.018284	-0.451470
C57	C	-0.575308	0.007793	-0.503892
C58	C	-0.470097	-0.097014	-0.451469
C59	C	-0.368666	-0.213054	-0.552051
C60	C	-0.343664	-0.242084	-0.576877
C61	C	-0.370616	-0.217167	-0.628824
C62	C	-0.343513	-0.248647	-0.655741
C63	C	-0.422570	-0.163216	-0.655945
C64	C	-0.447565	-0.134187	-0.631122
C65	C	-0.420611	-0.159108	-0.579173
C66	C	-0.765518	0.183662	-0.631659
C67	C	-0.819384	0.233473	-0.656662
C68	C	-0.846408	0.258459	-0.629712
C69	C	-0.904813	0.312461	-0.656813
C70	C	-0.819559	0.233635	-0.577758
C71	C	-0.765694	0.183833	-0.552761
C72	C	-0.738677	0.158847	-0.579717
C73	C	-0.368668	-0.213052	-0.234803
C74	C	-0.343669	-0.242086	-0.180935
C75	C	-0.370621	-0.217169	-0.153914
C76	C	-0.343519	-0.248648	-0.095506
C77	C	-0.422573	-0.163222	-0.180762
C78	C	-0.447570	-0.134193	-0.234627
C79	C	-0.420610	-0.159111	-0.261646
C80	C	-0.447720	-0.127629	-0.552258
C81	C	-0.469327	-0.102536	-0.530805
C82	C	-0.469328	-0.102535	-0.366609
C83	C	-0.447721	-0.127627	-0.320054
C84	C	-0.633714	0.061794	-0.530997
C85	C	-0.680269	0.104841	-0.552605
O86	O	0.076277	-0.384081	0.012960
O87	O	-0.076257	-0.294916	-0.012894
O88	O	0.012931	-0.384083	0.076300
O89	O	-0.012910	-0.294914	-0.076234
O90	O	0.012933	-0.311666	0.076306
O91	O	-0.076254	-0.222499	-0.012888
O92	O	0.076280	-0.311664	0.012966
Cu93	Cu	0.000013	-0.260469	0.000040
Cu94	Cu	0.000010	-0.346111	0.000033
O95	O	-0.012908	-0.222497	-0.076228
O96	O	-0.298805	0.063292	0.012964
O97	O	-0.235462	-0.063346	-0.012888
O98	O	-0.235465	-0.063353	0.076305
O99	O	-0.298803	0.063300	-0.076229
O100	O	-0.307912	-0.063350	0.076299
O101	O	-0.307909	-0.063342	-0.012895
O102	O	-0.371252	0.063295	0.012958
Cu103	Cu	-0.346196	-0.000023	0.000031
Cu104	Cu	-0.260519	-0.000027	0.000039
O105	O	-0.371250	0.063303	-0.076236
O106	O	-1.076607	0.456783	-0.692421
O107	O	-0.924074	0.330140	-0.629074
O108	O	-1.013262	0.330138	-0.629073
O109	O	-0.987418	0.456785	-0.692422
O110	O	-1.013261	0.330136	-0.701518
O111	O	-0.924072	0.330138	-0.701518
O112	O	-1.076605	0.456781	-0.764865
Cu113	Cu	-1.000338	0.393460	-0.739807
Cu114	Cu	-1.000340	0.393461	-0.654133
O115	O	-0.987417	0.456783	-0.764866
O116	O	-0.307911	-0.311650	-0.764507
O117	O	-0.371254	-0.222491	-0.701165
O118	O	-0.371252	-0.311652	-0.701162
O119	O	-0.307912	-0.222489	-0.764510
O120	O	-0.298806	-0.384074	-0.628716
O121	O	-0.298807	-0.294912	-0.628719
O122	O	-0.235464	-0.384072	-0.692061
Cu123	Cu	-0.260521	-0.346105	-0.653775
Cu124	Cu	-0.346197	-0.260458	-0.739451
O125	O	-0.235466	-0.294910	-0.692064
C126	C	-0.155920	-0.469469	0.234827
C127	C	-0.098464	-0.523208	0.261706
C128	C	-0.182375	-0.443392	0.261162
C129	C	-0.234797	-0.390619	0.155950
C130	C	-0.261676	-0.360052	0.098494
C131	C	-0.261132	-0.364662	0.182405
C132	C	-0.234797	-0.390620	0.234826
C133	C	-0.261675	-0.360052	0.261704
C134	C	-0.182375	-0.443391	0.182406
C135	C	0.018810	-0.390643	0.234846
C136	C	0.015111	-0.360079	0.261727
C137	C	0.019176	-0.443414	0.261179
C138	C	0.018812	-0.390637	0.155967
C139	C	0.015115	-0.360067	0.098511
C140	C	0.019178	-0.443408	0.182420
C141	C	0.018807	-0.469488	0.234841
C142	C	0.015106	-0.523226	0.261717
C143	C	0.019180	-0.364683	0.182425
C144	C	-0.234799	-0.215977	0.234834
C145	C	-0.261678	-0.246545	0.261708
C146	C	-0.182376	-0.241940	0.261172
C147	C	-0.234798	-0.137119	0.155964
C148	C	-0.261676	-0.083372	0.098509
C149	C	-0.182375	-0.163202	0.182421
C150	C	-0.155921	-0.215981	0.234841
C151	C	-0.098464	-0.246554	0.261721
C152	C	-0.261134	-0.163198	0.182415
C153	C	-0.039199	0.007461	-0.503869
C154	C	-0.039568	-0.018614	-0.530207
C155	C	-0.039203	-0.071390	-0.424995
C156	C	-0.039572	-0.097344	-0.451452
C157	C	-0.039201	-0.071385	-0.503874
C158	C	-0.039570	-0.018618	-0.451448
C159	C	-0.024912	0.183325	-0.552025
C160	C	-0.020873	0.233135	-0.576849
C161	C	-0.018844	0.258123	-0.628796
C162	C	-0.014454	0.312124	-0.655711
C163	C	-0.020859	0.233301	-0.655918
C164	C	-0.024906	0.183500	-0.631097
C165	C	-0.026932	0.158512	-0.579148
C166	C	-0.024920	-0.133799	-0.631644
C167	C	-0.020882	-0.162650	-0.656647
C168	C	-0.018855	-0.216605	-0.629699
C169	C	-0.014470	-0.247897	-0.656801
C170	C	-0.020872	-0.241704	-0.577746
C171	C	-0.024919	-0.212847	-0.552747
C172	C	-0.026939	-0.158893	-0.579702
C173	C	-0.024929	-0.133823	-0.234783
C174	C	-0.020887	-0.162684	-0.180915
C175	C	-0.018862	-0.216639	-0.153896
C176	C	-0.014477	-0.247936	-0.095488
C177	C	-0.020875	-0.241733	-0.180745
C178	C	-0.024915	-0.212872	-0.234610
C179	C	-0.026947	-0.158912	-0.261627
C180	C	-0.031316	0.104507	-0.552235
C181	C	-0.034811	0.061462	-0.530782
C182	C	-0.034820	-0.102682	-0.366590
C183	C	-0.031328	-0.127624	-0.320035
C184	C	-0.034816	-0.102672	-0.530980
C185	C	-0.031322	-0.127610	-0.552588
O186	O	-0.012940	-0.294936	0.371303
O187	O	0.012923	-0.384099	0.307961
O188	O	-0.076273	-0.294935	0.307950
O189	O	0.076257	-0.384100	0.371315
O190	O	-0.076265	-0.222515	0.235508
O191	O	0.012932	-0.311679	0.235520
O192	O	-0.012931	-0.222517	0.298862
Cu193	Cu	0.000001	-0.260485	0.260576
Cu194	Cu	-0.000009	-0.346130	0.346247
O195	O	0.076266	-0.311681	0.298873
C196	C	-0.574962	0.464558	-0.503864
C197	C	-0.548506	0.490518	-0.530195
C198	C	-0.496085	0.385697	-0.424987
C199	C	-0.469749	0.411776	-0.451438
C200	C	-0.496084	0.464555	-0.503857
C201	C	-0.548507	0.411779	-0.451444
C202	C	-0.765173	0.526994	-0.552039
C203	C	-0.819039	0.555852	-0.576867
C204	C	-0.846061	0.609814	-0.628812
C205	C	-0.904469	0.641114	-0.655732
C206	C	-0.819211	0.634913	-0.655928
C207	C	-0.765348	0.606050	-0.631102
C208	C	-0.738329	0.552088	-0.579155
C209	C	-0.447916	0.606561	-0.631604
C210	C	-0.423088	0.635592	-0.656601
C211	C	-0.371143	0.610674	-0.629648
C212	C	-0.344222	0.642150	-0.656742
C213	C	-0.344023	0.556716	-0.577696
C214	C	-0.368845	0.527681	-0.552704
C215	C	-0.420798	0.552613	-0.579664
C216	C	-0.447920	0.209802	-0.234786
C217	C	-0.423096	0.159988	-0.180919
C218	C	-0.371148	0.134996	-0.153895
C219	C	-0.344230	0.080987	-0.095489
C220	C	-0.344029	0.159823	-0.180737
C221	C	-0.368856	0.209637	-0.234602
C222	C	-0.420801	0.234620	-0.261624
C223	C	-0.679923	0.520797	-0.552238
C224	C	-0.633367	0.495853	-0.530781
C225	C	-0.469169	0.331687	-0.366583
C226	C	-0.447714	0.288634	-0.320030
C227	C	-0.469167	0.496035	-0.530956
C228	C	-0.447712	0.521128	-0.552558
H229	H	-0.161139	-0.284365	-0.019743
O230	O	0.019782	-0.469370	0.312530
C231	C	-0.025922	-0.426327	0.315449
H232	H	-0.058451	-0.390367	0.274652
H233	H	-0.040864	-0.451085	0.345875
H234	H	-0.015409	-0.402723	0.328179
H235	H	0.019773	-0.322218	0.161189
H236	H	-0.161137	-0.141349	-0.019737
O237	O	-0.157115	-0.292556	0.312577
C238	C	-0.185653	-0.278796	0.345006
H239	H	-0.228946	-0.238350	0.319445
H240	H	-0.184103	-0.320703	0.377075
H241	H	-0.166988	-0.266207	0.364721
H242	H	-0.346709	-0.233340	-0.256801
H243	H	-0.304205	-0.141373	0.161175
H244	H	-0.026564	-0.233284	-0.510448
O245	O	-0.342492	0.475213	-0.502278
C246	C	-0.337657	0.427093	-0.502307
H247	H	-0.340833	0.437969	-0.544003
H248	H	-0.297323	0.382159	-0.472785
H249	H	-0.370904	0.422241	-0.490158
H250	H	-0.304205	-0.141343	-0.019747
H251	H	-0.040166	-0.139808	-0.430213
O252	O	-0.418357	-0.614264	0.040372
C253	C	-0.400686	-0.579902	0.040599
H254	H	-0.425782	-0.553177	0.056962
H255	H	-0.357034	-0.612445	0.066855
H256	H	-0.404952	-0.546297	-0.001834
H257	H	-0.161134	-0.465220	0.304234
O258	O	-0.040214	0.007462	-0.581571
C259	C	-0.040444	0.059718	-0.599241
H260	H	-0.023259	0.055549	-0.563360
H261	H	-0.015133	0.062996	-0.626319
H262	H	-0.083125	0.102864	-0.622331
O263	O	-0.573935	0.541214	-0.581562
C264	C	-0.625977	0.558648	-0.599240
H265	H	-0.639001	0.539970	-0.563364
H266	H	-0.654565	0.611020	-0.626329
H267	H	-0.626447	0.539051	-0.622320
O268	O	-0.573922	-0.614240	0.040336
C269	C	-0.625955	-0.579900	0.040597
H270	H	-0.639001	-0.531000	0.023362
H271	H	-0.654544	-0.578447	0.015345
H272	H	-0.626396	-0.602484	0.083294
H273	H	-0.841239	0.253681	-0.698962
H274	H	-0.301369	-0.286012	-0.159078
H275	H	-0.161136	-0.141377	0.161182
O276	O	-0.573914	-0.458905	0.040356
C277	C	-0.625962	-0.441462	0.040576
H278	H	-0.627597	-0.482912	0.056956
H279	H	-0.637071	-0.424048	0.066813
H280	H	-0.655303	-0.403324	-0.001863
O281	O	-0.498352	-0.765963	0.027034
C282	C	-0.498231	-0.770838	0.075209
H283	H	-0.462011	-0.774676	0.091088
H284	H	-0.536208	-0.728204	0.067744
H285	H	-0.496378	-0.813576	0.105750
O286	O	-0.040306	0.007510	-0.426193
C287	C	-0.040529	0.059763	-0.460792
H288	H	-0.056896	0.077765	-0.503891
H289	H	-0.066779	0.097102	-0.454490
H290	H	0.001906	0.046678	-0.451974
O291	O	-0.293537	-0.467587	0.019045
C292	C	-0.259970	-0.482121	0.062534
H293	H	-0.278117	-0.488739	0.095786
H294	H	-0.219073	-0.526398	0.077873
H295	H	-0.255578	-0.442979	0.049111
H296	H	-0.841210	-0.463642	0.019294
O297	O	-0.342432	-0.524784	0.026940
C298	C	-0.291265	-0.540544	0.024272
H299	H	-0.279000	-0.518882	0.038143
H300	H	-0.261347	-0.592754	0.051132
H301	H	-0.292071	-0.522743	-0.018615
H302	H	-0.161128	-0.465208	0.161163
O303	O	-0.449509	-0.312091	0.019001
C304	C	-0.500683	-0.296317	0.021648
H305	H	-0.500632	-0.339164	0.041284
H306	H	-0.511714	-0.276596	0.046177
H307	H	-0.531085	-0.260438	-0.020375
H308	H	-0.743523	0.163324	-0.653612
H309	H	-0.019235	-0.142256	-0.159055
O310	O	-0.293546	-0.864577	0.019035
C311	C	-0.259974	-0.927068	0.062537
H312	H	-0.284963	-0.945685	0.077217
H313	H	-0.229575	-0.954552	0.049384
H314	H	-0.238236	-0.931498	0.096186
O315	O	0.019949	-0.469546	0.157163
C316	C	0.066147	-0.530491	0.185699
H317	H	0.081056	-0.548214	0.228989
H318	H	0.056294	-0.561005	0.184162
H319	H	0.098446	-0.531537	0.167021
O320	O	-0.342395	-0.237327	-0.501598
C321	C	-0.291187	-0.291173	-0.482981
H322	H	-0.278776	-0.289713	-0.518425
H323	H	-0.261376	-0.294117	-0.457604
H324	H	-0.291999	-0.333229	-0.457860
O325	O	-0.418726	-0.147701	-0.426035
C326	C	-0.401055	-0.165112	-0.374001
H327	H	-0.436933	-0.146437	-0.360980
H328	H	-0.373957	-0.217483	-0.345401
H329	H	-0.377987	-0.145497	-0.373546
O330	O	-0.026870	-0.081429	-0.260941
C331	C	-0.024235	-0.065462	-0.225698
H332	H	-0.004597	-0.108215	-0.182837
H333	H	0.000285	-0.045725	-0.234516
H334	H	-0.066262	-0.029536	-0.231242
H335	H	-0.490220	-0.373215	0.026628
O336	O	-0.449412	-0.864150	0.018916
C337	C	-0.454273	-0.859258	-0.029262
H338	H	-0.421845	-0.855564	-0.045151
H339	H	-0.449761	-0.901820	-0.021796
H340	H	-0.495144	-0.816437	-0.059796
O341	O	-0.026903	0.159148	-0.501572
C342	C	-0.024246	0.191726	-0.482953
H343	H	-0.038116	0.239566	-0.518396
H344	H	-0.051112	0.196157	-0.457575
H345	H	0.018636	0.165800	-0.457832
H346	H	-0.743175	-0.373219	0.026636
H347	H	-0.019230	0.253339	-0.554762
O348	O	-0.018790	0.257522	-0.706340
C349	C	0.029377	0.252665	-0.706217
H350	H	0.060186	0.214069	-0.664526
H351	H	0.044815	0.241995	-0.735806
H352	H	0.022080	0.298004	-0.718220
O353	O	-0.573915	0.385805	-0.426193
C354	C	-0.625963	0.420178	-0.460794
H355	H	-0.627600	0.446896	-0.503892
H356	H	-0.637074	0.387644	-0.454490
H357	H	-0.655303	0.453789	-0.451978
H358	H	-0.026547	0.163294	-0.653183
H359	H	-0.026568	-0.089866	-0.653596
H360	H	-0.019237	-0.142213	-0.698946
O361	O	-0.312537	-0.314047	0.157137
C362	C	-0.344974	-0.327805	0.185663
H363	H	-0.319422	-0.368252	0.228958
H364	H	-0.377046	-0.285897	0.184110
H365	H	-0.364685	-0.340389	0.166988
O366	O	-0.574263	0.007847	-0.581618
C367	C	-0.626304	0.060105	-0.599284
H368	H	-0.627930	0.078104	-0.574194
H369	H	-0.637410	0.097443	-0.642940
H370	H	-0.655655	0.047027	-0.595003
O371	O	-0.342568	0.233840	-0.260674
C372	C	-0.371411	0.296326	-0.279690
H373	H	-0.398134	0.304897	-0.255017
H374	H	-0.342381	0.308120	-0.276145
H375	H	-0.397040	0.326488	-0.323282
H376	H	-0.019230	-0.285631	-0.555806
O377	O	-0.026886	-0.237316	-0.260615
C378	C	-0.024216	-0.291135	-0.225215
H379	H	-0.038098	-0.289526	-0.191285
H380	H	-0.051066	-0.294198	-0.247528
H381	H	0.018672	-0.333199	-0.208207
H382	H	-0.019226	-0.285667	-0.158742
O383	O	-0.418388	0.385731	-0.426021
C384	C	-0.415468	0.385474	-0.380053
H385	H	-0.450865	0.387979	-0.366820
H386	H	-0.376761	0.341313	-0.346698
H387	H	-0.416415	0.426922	-0.389469
O388	O	-0.845040	-0.312070	0.018968
C389	C	-0.809640	-0.296307	0.021632
H390	H	-0.775705	-0.317971	0.007762
H391	H	-0.831950	-0.244098	-0.005230
H392	H	-0.792639	-0.314106	0.064518
H393	H	-0.445183	0.139782	-0.159066
H394	H	-0.743487	-0.516312	0.026628
O395	O	-0.342443	-0.766342	0.026907
C396	C	-0.291267	-0.799081	0.024264
H397	H	-0.291314	-0.822253	0.004633
H398	H	-0.280237	-0.765865	-0.000267
H399	H	-0.260867	-0.835599	0.066288
H400	H	-0.570092	0.003538	-0.430229
H401	H	-0.841561	0.253985	-0.555818
H402	H	-0.490217	0.230142	-0.256784
O403	O	-0.448816	-0.138918	-0.706414
C404	C	-0.500033	-0.085087	-0.725023
H405	H	-0.500128	-0.065360	-0.701896
H406	H	-0.510959	-0.049653	-0.769288
H407	H	-0.530426	-0.096718	-0.718932
O408	O	-0.739002	0.474562	-0.501588
C409	C	-0.774250	0.458606	-0.482976
H410	H	-0.808235	0.480179	-0.518423
H411	H	-0.751819	0.406380	-0.457605
H412	H	-0.791197	0.476355	-0.457851
O413	O	-0.845195	0.531581	-0.550554
C414	C	-0.888477	0.574881	-0.545690
H415	H	-0.900666	0.623181	-0.578115
H416	H	-0.923591	0.571935	-0.550207
H417	H	-0.876175	0.564540	-0.504817
O418	O	-0.293168	-0.294430	-0.550594
C419	C	-0.259508	-0.284606	-0.579444
H420	H	-0.277653	-0.233228	-0.606166
H421	H	-0.218675	-0.310089	-0.550419
H422	H	-0.254979	-0.302556	-0.605077
H423	H	-0.743837	0.163627	-0.510462
O424	O	-0.845505	0.687391	-0.706347
C425	C	-0.888813	0.735417	-0.706220
H426	H	-0.881014	0.724529	-0.664526
H427	H	-0.893573	0.780429	-0.735802
H428	H	-0.926871	0.740127	-0.718230
H429	H	-0.743490	0.626486	-0.653184
O430	O	-0.498369	0.630839	-0.657878
C431	C	-0.516985	0.684690	-0.709084
H432	H	-0.481540	0.683232	-0.721492
H433	H	-0.542362	0.687641	-0.738900
H434	H	-0.542104	0.726741	-0.708265
H435	H	-0.445174	0.679524	-0.698898
H436	H	-0.301723	0.536422	-0.555753
O437	O	-0.293599	0.135640	-0.154489
C438	C	-0.292456	0.181439	-0.155460
H439	H	-0.334183	0.218714	-0.161825
H440	H	-0.263848	0.159944	-0.115920
H441	H	-0.278413	0.202691	-0.189418
O442	O	-0.497993	-0.081723	-0.657476
C443	C	-0.497969	-0.033600	-0.662313
H444	H	-0.456276	-0.044469	-0.659138
H445	H	-0.527493	0.011334	-0.702648
H446	H	-0.510119	-0.028750	-0.629065
H447	H	-0.489870	-0.090268	-0.256484
H448	H	-0.444519	-0.142934	-0.158758
