data_functionalizedCrystal
_audit_creation_method	'MofGen! by Chris Wilmer'
_symmetry_space_group_name_H-M	'P1'
_symmetry_Int_Tables_number	1
_symmetry_cell_setting	triclinic
loop_
_symmetry_equiv_pos_as_xyz
  x,y,z
_cell_length_a	16.120530
_cell_length_b	21.395361
_cell_length_c	21.395355
_cell_angle_alpha	90.021511
_cell_angle_beta	87.079043
_cell_angle_gamma	92.874023
loop_
_atom_site_label
_atom_site_type_symbol
_atom_site_fract_x
_atom_site_fract_y
_atom_site_fract_z
Zn1	Zn	1.274542	0.298157	-0.402756
Zn2	Zn	1.774542	0.798157	0.097244
Zn3	Zn	1.274412	0.402911	-0.297968
Zn4	Zn	1.774412	0.902911	0.202032
Zn5	Zn	1.135113	0.292835	-0.292686
Zn6	Zn	1.635113	0.792835	0.207314
Zn7	Zn	1.135072	0.397577	-0.397405
Zn8	Zn	1.635072	0.897577	0.102595
O9	O	1.204785	0.347870	-0.347704
O10	O	1.704785	0.847870	0.152296
O11	O	1.391190	0.316512	-0.393305
O12	O	1.891190	0.816512	0.106695
O13	O	1.255897	0.388315	-0.209588
O14	O	1.755897	0.888315	0.290412
O15	O	1.153680	0.205866	-0.307316
O16	O	1.653680	0.705866	0.192684
O17	O	1.391095	0.393475	-0.316318
O18	O	1.891095	0.893475	0.183682
O19	O	1.256118	0.209776	-0.388183
O20	O	1.756118	0.709776	0.111817
O21	O	1.153554	0.307442	-0.205707
O22	O	1.653554	0.807442	0.294293
O23	O	1.018442	0.302270	-0.302127
O24	O	1.518442	0.802270	0.197873
O25	O	1.153610	0.384383	-0.485794
O26	O	1.653610	0.884383	0.014206
O27	O	1.018412	0.379223	-0.379064
O28	O	1.518412	0.879223	0.120936
O29	O	1.256078	0.311340	-0.489725
O30	O	1.756078	0.811340	0.010275
O31	O	1.255857	0.489879	-0.311129
O32	O	1.755857	0.989879	0.188871
O33	O	1.153484	0.485960	-0.384185
O34	O	1.653484	0.985960	0.115815
C35	C	0.988177	0.339591	-0.339442
C36	C	1.488177	0.839591	0.160558
C37	C	0.895511	0.336064	-0.335923
C38	C	1.395511	0.836064	0.164077
C39	C	1.204675	0.510654	-0.347664
C40	C	1.704675	1.010654	0.152336
C41	C	1.204704	0.580296	-0.347672
C42	C	1.704704	1.080296	0.152328
C43	C	1.204854	0.347860	-0.511129
C44	C	1.704854	0.847860	-0.011129
C45	C	1.204884	0.347856	-0.580772
C46	C	1.704884	0.847856	-0.080772
C47	C	0.725850	0.329610	-0.329503
C48	C	1.225850	0.829610	0.170497
C49	C	0.684560	0.366176	-0.365950
C50	C	1.184560	0.866176	0.134050
C51	C	0.590155	0.362585	-0.362378
C52	C	1.090155	0.862585	0.137622
C53	C	0.820264	0.333200	-0.333074
C54	C	1.320264	0.833200	0.166926
C55	C	1.422238	0.356182	-0.355998
C56	C	1.922238	0.856182	0.144002
C57	C	1.514904	0.359724	-0.359532
C58	C	2.014904	0.859724	0.140468
C59	C	1.204918	0.184452	-0.347757
C60	C	1.704918	0.684452	0.152243
C61	C	1.204975	0.114813	-0.347780
C62	C	1.704975	0.614813	0.152220
C63	C	1.258056	0.615031	-0.309674
C64	C	1.758056	1.115031	0.190326
C65	C	1.258095	0.680468	-0.309690
C66	C	1.758095	1.180468	0.190310
C67	C	1.204767	0.711167	-0.347695
C68	C	1.704767	1.211167	0.152305
C69	C	1.151410	0.676424	-0.385701
C70	C	1.651410	1.176424	0.114299
C71	C	1.151379	0.610988	-0.385689
C72	C	1.651379	1.110988	0.114311
C73	C	1.129700	0.812017	-0.349748
C74	C	1.629700	1.312017	0.150252
C75	C	1.129730	0.877451	-0.349756
C76	C	1.629730	1.377451	0.150244
C77	C	1.204864	0.912991	-0.347736
C78	C	1.704864	1.412991	0.152264
C79	C	1.279969	0.883089	-0.345695
C80	C	1.779969	1.383089	0.154305
C81	C	1.279938	0.817654	-0.345683
C82	C	1.779938	1.317654	0.154317
C83	C	1.204795	0.782120	-0.347713
C84	C	1.704795	1.282120	0.152287
C85	C	1.258263	1.018680	-0.309753
C86	C	1.758263	1.518680	0.190247
C87	C	1.258303	1.084118	-0.309773
C88	C	1.758303	1.584118	0.190227
C89	C	1.151611	1.080073	-0.385781
C90	C	1.651611	1.580073	0.114219
C91	C	1.151578	1.014636	-0.385764
C92	C	1.651578	1.514636	0.114236
C93	C	1.204903	0.983944	-0.347747
C94	C	1.704903	1.483944	0.152253
C95	C	1.258236	0.309820	-0.615533
C96	C	1.758236	0.809820	-0.115533
C97	C	1.258235	0.309793	-0.680968
C98	C	1.758235	0.809793	-0.180968
C99	C	1.204890	0.347813	-0.711641
C100	C	1.704890	0.847813	-0.211641
C101	C	1.151527	0.385851	-0.676871
C102	C	1.651527	0.885851	-0.176871
C103	C	1.151524	0.385873	-0.611437
C104	C	1.651524	0.885873	-0.111437
C105	C	1.198269	0.403976	-0.815051
C106	C	1.698269	0.903976	-0.315051
C107	C	1.198278	0.403956	-0.880484
C108	C	1.698278	0.903956	-0.380484
C109	C	1.204895	0.347747	-0.913462
C110	C	1.704895	0.847747	-0.413462
C111	C	1.211521	0.291558	-0.880998
C112	C	1.711521	0.791558	-0.380998
C113	C	1.211517	0.291579	-0.815564
C114	C	1.711517	0.791579	-0.315564
C115	C	1.204887	0.347794	-0.782593
C116	C	1.704887	0.847794	-0.282593
C117	C	1.258249	0.309679	-1.019175
C118	C	1.758249	0.809679	-0.519175
C119	C	1.258242	0.309651	-1.084612
C120	C	1.758242	0.809651	-0.584612
C121	C	1.151539	0.385715	-1.080513
C122	C	1.651539	0.885715	-0.580513
C123	C	1.151541	0.385737	-1.015078
C124	C	1.651541	0.885737	-0.515078
C125	C	1.204901	0.347721	-0.984413
C126	C	1.704901	0.847721	-0.484413
C127	C	1.204764	0.347837	-0.184915
C128	C	1.704764	0.847837	0.315085
C129	C	1.204896	0.347671	-0.115279
C130	C	1.704896	0.847671	0.384721
H131	H	0.690301	0.295612	-0.295619
H132	H	1.190301	0.795612	0.204381
N133	N	1.315581	0.581927	-0.268682
N134	N	1.815581	1.081927	0.231318
H135	H	1.349389	0.613865	-0.244616
H136	H	1.849389	1.113865	0.255384
H137	H	1.354131	0.556215	-0.295682
H138	H	1.854131	1.056215	0.204318
N139	N	1.315784	0.268766	-0.718467
N140	N	1.815784	0.768766	-0.218467
H141	H	1.375342	0.280783	-0.709364
H142	H	1.875342	0.780783	-0.209364
H143	H	1.307620	0.274540	-0.764559
H144	H	1.807620	0.774540	-0.264559
H145	H	1.107932	0.582706	-0.416631
H146	H	1.607932	1.082706	0.083369
N147	N	1.093883	0.709528	-0.426689
N148	N	1.593883	1.209528	0.073311
H149	H	1.106797	0.698603	-0.471955
H150	H	1.606797	1.198603	0.028045
H151	H	1.102020	0.756242	-0.420878
H152	H	1.602020	1.256242	0.079122
H153	H	1.301544	0.708754	-0.278748
H154	H	1.801544	1.208754	0.221252
H155	H	1.108074	0.416845	-0.583134
H156	H	1.608074	0.916845	-0.083134
H157	H	1.068513	0.783086	-0.351396
H158	H	1.568513	1.283086	0.148604
H159	H	1.216910	0.245827	-0.789134
H160	H	1.716910	0.745827	-0.289134
H161	H	1.301754	1.112399	-0.278833
H162	H	1.801754	1.612399	0.221167
H163	H	1.108091	0.416806	-0.701849
H164	H	1.608091	0.916806	-0.201849
H165	H	1.216910	0.245787	-0.907847
H166	H	1.716910	0.745787	-0.407847
H167	H	1.341091	0.793309	-0.344024
H168	H	1.841091	1.293309	0.155976
N169	N	1.093983	0.426760	-0.977592
N170	N	1.593983	0.926760	-0.477592
H171	H	1.106885	0.472018	-0.989471
H172	H	1.606885	0.972018	-0.489471
H173	H	1.102088	0.420955	-0.931496
H174	H	1.602088	0.920955	-0.431496
N175	N	1.361014	0.921411	-0.343514
N176	N	1.861014	1.421411	0.156486
H177	H	1.349641	0.967401	-0.343834
H178	H	1.849641	1.467401	0.156166
H179	H	1.398256	0.911347	-0.381187
H180	H	1.898256	1.411347	0.118813
N181	N	1.315775	0.985570	-0.268753
N182	N	1.815775	1.485570	0.231247
H183	H	1.349586	1.017507	-0.244687
H184	H	1.849586	1.517507	0.255313
H185	H	1.354325	0.959849	-0.295746
H186	H	1.854325	1.459849	0.204254
H187	H	0.720111	0.400177	-0.399837
H188	H	1.220111	0.900177	0.100163
H189	H	1.108193	1.105067	-0.416729
H190	H	1.608193	1.605067	0.083271
H191	H	1.301693	0.278720	-0.994206
H192	H	1.801693	0.778720	-0.494206
N193	N	1.094027	0.977167	-0.426743
N194	N	1.594027	1.477167	0.073257
H195	H	1.060247	1.006542	-0.450821
H196	H	1.560247	1.506542	0.049179
H197	H	1.055450	0.948587	-0.399736
H198	H	1.555450	1.448587	0.100264
N199	N	1.048723	0.909693	-0.351950
N200	N	1.548723	1.409693	0.148050
H201	H	1.020327	0.897220	-0.391399
H202	H	1.520327	1.397220	0.108601
H203	H	1.060201	0.956530	-0.351621
H204	H	1.560201	1.456530	0.148379
H205	H	1.301685	0.278863	-0.590570
H206	H	1.801685	0.778863	-0.090570
H207	H	1.301687	0.278674	-1.112913
H208	H	1.801687	0.778674	-0.612913
H209	H	1.108096	0.416665	-1.105486
H210	H	1.608096	0.916665	-0.605486
N211	N	1.191139	0.464557	-0.915497
N212	N	1.691139	0.964557	-0.415497
H213	H	1.186936	0.500167	-0.884678
H214	H	1.686936	1.000167	-0.384678
H215	H	1.139773	0.461680	-0.940677
H216	H	1.639773	0.961680	-0.440677
H217	H	1.192657	0.449728	-0.788198
H218	H	1.692657	0.949728	-0.288198
