data_functionalizedCrystal
_audit_creation_method	'MofGen! by Chris Wilmer'
_symmetry_space_group_name_H-M	'P1'
_symmetry_Int_Tables_number	1
_symmetry_cell_setting	triclinic
loop_
_symmetry_equiv_pos_as_xyz
  x,y,z
_cell_length_a	19.805407
_cell_length_b	19.077068
_cell_length_c	19.805398
_cell_angle_alpha	92.268147
_cell_angle_beta	89.986879
_cell_angle_gamma	92.327086
loop_
_atom_site_label
_atom_site_type_symbol
_atom_site_fract_x
_atom_site_fract_y
_atom_site_fract_z
Zn1	Zn	1.023860	-0.280211	-0.393534
Zn2	Zn	1.523860	0.219789	0.106466
Zn3	Zn	1.019237	-0.397912	-0.284888
Zn4	Zn	1.519237	0.102088	0.215112
Zn5	Zn	0.910687	-0.280232	-0.280359
Zn6	Zn	1.410687	0.219768	0.219641
Zn7	Zn	0.906089	-0.397872	-0.398033
Zn8	Zn	1.406089	0.102128	0.101967
O9	O	0.964968	-0.339057	-0.339203
O10	O	1.464968	0.160943	0.160797
O11	O	1.117963	-0.295832	-0.379134
O12	O	1.617963	0.204168	0.120866
O13	O	1.004827	-0.382327	-0.189571
O14	O	1.504827	0.117673	0.310429
O15	O	0.929558	-0.181738	-0.291594
O16	O	1.429558	0.318262	0.208406
O17	O	1.114567	-0.382306	-0.299312
O18	O	1.614567	0.117694	0.200688
O19	O	1.012706	-0.181722	-0.374742
O20	O	1.512706	0.318278	0.125258
O21	O	0.925075	-0.295868	-0.186244
O22	O	1.425075	0.204132	0.313756
O23	O	0.815360	-0.295830	-0.295956
O24	O	1.315360	0.204170	0.204044
O25	O	0.921723	-0.382239	-0.492152
O26	O	1.421723	0.117761	0.007848
O27	O	0.811983	-0.382260	-0.382411
O28	O	1.311983	0.117740	0.117589
O29	O	1.008248	-0.295793	-0.488846
O30	O	1.508248	0.204207	0.011154
O31	O	1.000370	-0.496398	-0.303675
O32	O	1.500370	0.003602	0.196325
O33	O	0.917240	-0.496369	-0.386802
O34	O	1.417240	0.003631	0.113198
C35	C	0.789113	-0.339043	-0.339181
C36	C	1.289113	0.160957	0.160819
C37	C	0.713880	-0.339055	-0.339188
C38	C	1.213880	0.160945	0.160812
C39	C	0.676793	-0.384126	-0.384137
C40	C	1.176793	0.115874	0.115863
C41	C	0.606104	-0.384127	-0.384147
C42	C	1.106104	0.115873	0.115853
C43	C	0.572505	-0.339060	-0.339203
C44	C	1.072505	0.160940	0.160797
C45	C	0.609597	-0.293983	-0.294252
C46	C	1.109597	0.206017	0.205748
C47	C	0.680285	-0.293979	-0.294246
C48	C	1.180285	0.206021	0.205754
C49	C	0.324524	-0.293999	-0.294275
C50	C	0.824524	0.206001	0.205725
C51	C	0.253831	-0.294008	-0.294283
C52	C	0.753831	0.205992	0.205717
C53	C	0.250343	-0.384147	-0.384176
C54	C	0.750343	0.115853	0.115824
C55	C	0.321030	-0.384143	-0.384170
C56	C	0.821030	0.115857	0.115830
C57	C	0.358117	-0.339064	-0.339221
C58	C	0.858117	0.160936	0.160779
C59	C	0.434766	-0.339062	-0.339212
C60	C	0.934766	0.160938	0.160788
C61	C	0.495857	-0.339065	-0.339209
C62	C	0.995857	0.160935	0.160791
C63	C	0.957823	-0.521921	-0.346233
C64	C	1.457823	-0.021921	0.153767
C65	C	0.954828	-0.600151	-0.349263
C66	C	1.454828	-0.100151	0.150737
C67	C	0.996735	-0.636895	-0.307442
C68	C	1.496735	-0.136895	0.192558
C69	C	0.993923	-0.710401	-0.310296
C70	C	1.493923	-0.210401	0.189704
C71	C	0.949198	-0.747160	-0.354968
C72	C	1.449198	-0.247160	0.145032
C73	C	0.907289	-0.710411	-0.396793
C74	C	1.407289	-0.210411	0.103207
C75	C	0.910106	-0.636907	-0.393942
C76	C	1.410106	-0.136907	0.106058
C77	C	0.936132	-0.966995	-0.368134
C78	C	1.436132	-0.466995	0.131866
C79	C	0.933317	-1.040504	-0.370981
C80	C	1.433317	-0.540504	0.129019
C81	C	1.019952	-1.040489	-0.284485
C82	C	1.519952	-0.540489	0.215515
C83	C	1.022762	-0.966983	-0.281635
C84	C	1.522762	-0.466983	0.218365
C85	C	0.980855	-0.930240	-0.323462
C86	C	1.480855	-0.430240	0.176538
N87	N	0.946320	-0.822295	-0.357884
N88	N	1.446320	-0.322295	0.142116
N89	N	0.983737	-0.855107	-0.320549
N90	N	1.483737	-0.355107	0.179451
C91	C	1.141510	-0.339071	-0.339226
C92	C	1.641510	0.160929	0.160774
C93	C	1.216742	-0.339077	-0.339236
C94	C	1.716742	0.160923	0.160764
C95	C	0.964988	-0.339009	-0.515744
C96	C	1.464988	0.160991	-0.015744
C97	C	0.964997	-0.338989	-0.590975
C98	C	1.464997	0.161011	-0.090975
C99	C	0.972160	-0.155479	-0.332161
C100	C	1.472160	0.344521	0.167839
C101	C	0.975225	-0.077249	-0.329160
C102	C	1.475225	0.422751	0.170840
C103	C	1.006635	-0.383896	-1.054492
C104	C	1.506635	0.116104	-0.554492
C105	C	1.006615	-0.383915	-0.983805
C106	C	1.506615	0.116085	-0.483805
C107	C	0.965084	-0.338910	-0.946734
C108	C	1.465084	0.161090	-0.446734
C109	C	0.923564	-0.293887	-0.980355
C110	C	1.423564	0.206113	-0.480355
C111	C	0.923581	-0.293872	-1.051042
C112	C	1.423581	0.206128	-0.551042
C113	C	0.923497	-0.293947	-0.695284
C114	C	1.423497	0.206053	-0.195284
C115	C	0.923485	-0.293964	-0.624593
C116	C	1.423485	0.206036	-0.124593
C117	C	1.006531	-0.383990	-0.628047
C118	C	1.506531	0.116010	-0.128047
C119	C	1.006547	-0.383975	-0.698734
C120	C	1.506547	0.116025	-0.198734
C121	C	0.965026	-0.338956	-0.732349
C122	C	1.465026	0.161044	-0.232349
C123	C	0.965046	-0.338937	-0.808996
C124	C	1.465046	0.161063	-0.308996
C125	C	0.965066	-0.338925	-0.870088
C126	C	1.465066	0.161075	-0.370088
C127	C	0.964989	-0.339053	-0.163347
C128	C	1.464989	0.160947	0.336653
C129	C	0.965120	-0.338875	-0.088109
C130	C	1.465120	0.161125	0.411891
H131	H	0.575910	-0.420830	-0.420749
H132	H	1.075910	0.079170	0.079251
F133	F	0.865504	-0.597801	-0.438455
F134	F	1.365504	-0.097801	0.061545
F135	F	0.879280	-0.246058	-0.731052
F136	F	1.379280	0.253942	-0.231052
H137	H	1.054071	-1.070413	-0.250432
H138	H	1.554071	-0.570413	0.249568
F139	F	0.363985	-0.246020	-0.246438
F140	F	0.863985	0.253980	0.253562
F141	F	0.210867	-0.432124	-0.432015
F142	F	0.710867	0.067876	0.067985
H143	H	1.059180	-0.937055	-0.245260
H144	H	1.559180	-0.437055	0.254740
F145	F	0.573837	-0.246015	-0.246423
F146	F	1.073837	0.253985	0.253577
H147	H	1.040338	-0.420650	-0.600669
H148	H	1.540338	0.079350	-0.100669
F149	F	1.050843	-0.431794	-1.093939
F150	F	1.550843	0.068206	-0.593939
H151	H	0.889746	-0.257246	-0.950167
H152	H	1.389746	0.242754	-0.450167
F153	F	1.038529	-0.749504	-0.265787
F154	F	1.538529	-0.249504	0.234213
F155	F	1.050752	-0.431875	-0.738183
F156	F	1.550752	0.068125	-0.238183
F157	F	0.218073	-0.246038	-0.246446
F158	F	0.718073	0.253962	0.253554
H159	H	0.710481	-0.257273	-0.257647
H160	H	1.210481	0.242727	0.242353
H161	H	1.033152	-0.606970	-0.271063
H162	H	1.533152	-0.106970	0.228937
F163	F	1.050802	-0.431831	-0.948031
F164	F	1.550802	0.068169	-0.448031
F165	F	0.885706	-1.079625	-0.418521
F166	F	1.385706	-0.579625	0.081479
F167	F	0.891530	-0.927900	-0.412651
F168	F	1.391530	-0.427900	0.087349
F169	F	0.859694	-0.749535	-0.444339
F170	F	1.359694	-0.249535	0.055661
F171	F	0.879279	-0.246061	-0.585141
F172	F	1.379279	0.253939	-0.085141
H173	H	0.889776	-0.257211	-1.078411
H174	H	1.389776	0.242789	-0.578411
H175	H	0.348383	-0.420844	-0.420766
H176	H	0.848383	0.079156	0.079234
F177	F	0.712545	-0.432097	-0.431970
F178	F	1.212545	0.067903	0.068030
