data_functionalizedCrystal
_audit_creation_method	'MofGen! by Chris Wilmer'
_symmetry_space_group_name_H-M	'P1'
_symmetry_Int_Tables_number	1
_symmetry_cell_setting	triclinic
loop_
_symmetry_equiv_pos_as_xyz
  x,y,z
_cell_length_a	12.594517
_cell_length_b	12.594516
_cell_length_c	12.594509
_cell_angle_alpha	89.973801
_cell_angle_beta	89.978673
_cell_angle_gamma	90.015853
loop_
_atom_site_label
_atom_site_type_symbol
_atom_site_fract_x
_atom_site_fract_y
_atom_site_fract_z
Zn1	Zn	1.627267	-0.423716	-0.601875
Zn2	Zn	1.627158	-0.601726	-0.423903
Zn3	Zn	1.449271	-0.423761	-0.423904
Zn4	Zn	1.449253	-0.601652	-0.601833
O5	O	1.538237	-0.512714	-0.512879
O6	O	1.776198	-0.447341	-0.578284
O7	O	1.603522	-0.578169	-0.274957
O8	O	1.472936	-0.274809	-0.447530
O9	O	1.776118	-0.578124	-0.447528
O10	O	1.603709	-0.274776	-0.578285
O11	O	1.472830	-0.447419	-0.274958
O12	O	1.300323	-0.447347	-0.447489
O13	O	1.472905	-0.577998	-0.750784
O14	O	1.300310	-0.578042	-0.578213
O15	O	1.603691	-0.447269	-0.750815
O16	O	1.603505	-0.750662	-0.447488
O17	O	1.472799	-0.750608	-0.578212
C18	C	1.261696	-0.512692	-0.512847
C19	C	1.143391	-0.512709	-0.512859
C20	C	1.074114	-0.441526	-0.441894
C21	C	1.003303	-0.538615	-0.415718
C22	C	1.003403	-0.415668	-0.539054
C23	C	1.074138	-0.609849	-0.486632
C24	C	1.074244	-0.486836	-0.610013
C25	C	1.003465	-0.583991	-0.583874
C26	C	1.538167	-0.789255	-0.512868
C27	C	1.538235	-0.907560	-0.512899
C28	C	1.467137	-0.976822	-0.583950
C29	C	1.441204	-1.047688	-0.486827
C30	C	1.564265	-1.047494	-0.610039
C31	C	1.512250	-0.976867	-0.415725
C32	C	1.635357	-0.976667	-0.539002
C33	C	1.609460	-1.047500	-0.441812
C34	C	1.815858	-0.512736	-0.512911
C35	C	1.934163	-0.512745	-0.512924
C36	C	1.538308	-0.512620	-0.790500
C37	C	1.538339	-0.512581	-0.908805
C38	C	1.538336	-0.235093	-0.512912
C39	C	1.538378	-0.116787	-0.512927
C40	C	1.467227	-0.583644	-0.978042
C41	C	1.564347	-0.609650	-1.048833
C42	C	1.441294	-0.486510	-1.048813
C43	C	1.635510	-0.538638	-0.978038
C44	C	1.512391	-0.415453	-0.978012
C45	C	1.609579	-0.441422	-1.048772
C46	C	1.538227	-0.512730	-0.236338
C47	C	1.538403	-0.512470	-0.118033
H48	H	0.972144	-0.560522	-0.333584
O49	O	1.733271	-0.939370	-0.565177
C50	C	1.773528	-0.877806	-0.480822
H51	H	1.732826	-0.902076	-0.403674
H52	H	1.862714	-0.891360	-0.473461
H53	H	1.757598	-0.790200	-0.497118
H54	H	1.490197	-0.945972	-0.333563
O55	O	0.966811	-0.655835	-0.655634
C56	C	1.004535	-0.629233	-0.757652
H57	H	1.079454	-0.579005	-0.750015
H58	H	1.023525	-0.704936	-0.803460
H59	H	0.941132	-0.582251	-0.801977
O60	O	1.111219	-0.707726	-0.460087
C61	C	1.223161	-0.706520	-0.460357
H62	H	1.252464	-0.621683	-0.448649
H63	H	1.254022	-0.758681	-0.393121
H64	H	1.253517	-0.738221	-0.539517
O65	O	1.590410	-1.084685	-0.707975
C66	C	1.591093	-1.196621	-0.706382
H67	H	1.538915	-1.226190	-0.638549
H68	H	1.559098	-1.228086	-0.784968
H69	H	1.675815	-1.226100	-0.694342
O70	O	1.111405	-0.460485	-0.707936
C71	C	1.075407	-0.358056	-0.735225
H72	H	1.055478	-0.312047	-0.659884
H73	H	1.140237	-0.314443	-0.780983
H74	H	1.001401	-0.364849	-0.786875
O75	O	1.681143	-1.084251	-0.369923
C76	C	1.653395	-1.048048	-0.267697
H77	H	1.565075	-1.028372	-0.265589
H78	H	1.671337	-1.112656	-0.206876
H79	H	1.701333	-0.973845	-0.247964
H80	H	1.407136	-0.643833	-0.946986
O81	O	0.966460	-0.317667	-0.565337
C82	C	1.002434	-0.242865	-0.490255
H83	H	1.076931	-0.274339	-0.449635
H84	H	1.021545	-0.164887	-0.532108
H85	H	0.937916	-0.228881	-0.428309
O86	O	1.395207	-0.939967	-0.655540
C87	C	1.344246	-1.026430	-0.705100
H88	H	1.349781	-1.099361	-0.651749
H89	H	1.257222	-1.006043	-0.719340
H90	H	1.384522	-1.043802	-0.784286
H91	H	1.586329	-0.691742	-1.079941
H92	H	1.359136	-1.078906	-0.464772
H93	H	1.717631	-0.560736	-0.947080
H94	H	1.669813	-0.381279	-1.079632
H95	H	1.490382	-0.333385	-0.946881
O96	O	1.111183	-0.369663	-0.370364
C97	C	1.172823	-0.292628	-0.423349
H98	H	1.148764	-0.289454	-0.510542
H99	H	1.159118	-0.211654	-0.385329
H100	H	1.260429	-0.314481	-0.417020
H101	H	1.359198	-0.464506	-1.079902
