data_functionalizedCrystal
_audit_creation_method	'MofGen! by Chris Wilmer'
_symmetry_space_group_name_H-M	'P1'
_symmetry_Int_Tables_number	1
_symmetry_cell_setting	triclinic
loop_
_symmetry_equiv_pos_as_xyz
  x,y,z
_cell_length_a	13.897449
_cell_length_b	13.897448
_cell_length_c	13.897441
_cell_angle_alpha	90.030599
_cell_angle_beta	90.023394
_cell_angle_gamma	90.018519
loop_
_atom_site_label
_atom_site_type_symbol
_atom_site_fract_x
_atom_site_fract_y
_atom_site_fract_z
Zn1	Zn	1.474703	-0.383963	0.545450
Zn2	Zn	1.808036	-0.050629	0.878783
Zn3	Zn	2.141369	0.282704	1.212116
Zn4	Zn	1.474597	-0.545285	0.384151
Zn5	Zn	1.807930	-0.211951	0.717484
Zn6	Zn	2.141263	0.121382	1.050818
Zn7	Zn	1.313392	-0.384007	0.384161
Zn8	Zn	1.646725	-0.050674	0.717494
Zn9	Zn	1.980058	0.282659	1.050827
Zn10	Zn	1.313373	-0.545220	0.545396
Zn11	Zn	1.646707	-0.211887	0.878730
Zn12	Zn	1.980040	0.121447	1.212063
O13	O	1.394016	-0.464619	0.464789
O14	O	1.727349	-0.131285	0.798123
O15	O	2.060683	0.202048	1.131456
O16	O	1.609670	-0.405371	0.524071
O17	O	1.943004	-0.072038	0.857405
O18	O	2.276337	0.261296	1.190738
O19	O	1.453176	-0.523937	0.249171
O20	O	1.786509	-0.190603	0.582504
O21	O	2.119842	0.142730	0.915837
O22	O	1.334842	-0.249020	0.405582
O23	O	1.668175	0.084313	0.738916
O24	O	2.001509	0.417647	1.072249
O25	O	1.609592	-0.523893	0.405566
O26	O	1.942926	-0.190560	0.738899
O27	O	2.276259	0.142773	1.072233
O28	O	1.453356	-0.248987	0.524081
O29	O	1.786690	0.084346	0.857414
O30	O	2.120023	0.417680	1.190747
O31	O	1.334739	-0.405447	0.249178
O32	O	1.668073	-0.072114	0.582511
O33	O	2.001406	0.261220	0.915844
O34	O	1.178408	-0.405384	0.405530
O35	O	1.511741	-0.072051	0.738864
O36	O	1.845074	0.261282	1.072197
O37	O	1.334811	-0.523783	0.680385
O38	O	1.668144	-0.190450	1.013718
O39	O	2.001478	0.142884	1.347052
O40	O	1.178394	-0.523826	0.523990
O41	O	1.511728	-0.190493	0.857323
O42	O	1.845061	0.142840	1.190656
O43	O	1.453339	-0.405308	0.680424
O44	O	1.786672	-0.071975	1.013758
O45	O	2.120005	0.261358	1.347091
O46	O	1.453158	-0.680258	0.405514
O47	O	1.786491	-0.346924	0.738848
O48	O	2.119825	-0.013591	1.072181
O49	O	1.334708	-0.680210	0.523980
O50	O	1.668041	-0.346877	0.857314
O51	O	2.001375	-0.013543	1.190647
C52	C	1.143402	-0.464604	0.464756
C53	C	1.476735	-0.131271	0.798089
C54	C	1.810068	0.202063	1.131422
C55	C	1.036188	-0.464621	0.464764
C56	C	1.369521	-0.131287	0.798098
C57	C	1.702855	0.202046	1.131431
C58	C	1.393946	-0.715233	0.464761
C59	C	1.727279	-0.381900	0.798095
C60	C	2.060612	-0.048566	1.131428
C61	C	1.394004	-0.822447	0.464782
C62	C	1.727337	-0.489114	0.798115
C63	C	2.060671	-0.155780	1.131448
C64	C	0.949118	-0.464624	0.464780
C65	C	1.282451	-0.131291	0.798114
C66	C	1.615785	0.202043	1.131447
C67	C	0.839886	-0.464631	0.464810
C68	C	1.173219	-0.131297	0.798143
C69	C	1.506552	0.202036	1.131476
C70	C	1.394105	-1.018742	0.464842
C71	C	1.727438	-0.685409	0.798176
C72	C	2.060772	-0.352075	1.131509
C73	C	1.394046	-0.909510	0.464812
C74	C	1.727379	-0.576176	0.798145
C75	C	2.060713	-0.242843	1.131478
C76	C	1.645609	-0.464634	0.464824
C77	C	1.978942	-0.131301	0.798157
C78	C	2.312276	0.202032	1.131490
C79	C	1.752823	-0.464641	0.464838
C80	C	2.086156	-0.131308	0.798172
C81	C	2.419490	0.202026	1.131505
C82	C	1.394085	-0.464533	0.716382
C83	C	1.727418	-0.131200	1.049716
C84	C	2.060751	0.202133	1.383049
C85	C	1.394114	-0.464497	0.823596
C86	C	1.727447	-0.131164	1.156930
C87	C	2.060780	0.202170	1.490263
C88	C	1.394113	-0.213026	0.464839
C89	C	1.727446	0.120308	0.798172
C90	C	2.060780	0.453641	1.131505
C91	C	1.394154	-0.105812	0.464859
C92	C	1.727488	0.227522	0.798193
C93	C	2.060821	0.560855	1.131526
C94	C	1.394003	-0.464634	0.214175
C95	C	1.727337	-0.131301	0.547508
C96	C	2.060670	0.202033	0.880842
C97	C	1.394161	-0.464399	0.106962
C98	C	1.727495	-0.131065	0.440295
C99	C	2.060828	0.202268	0.773628
C100	C	1.394140	-0.464432	1.019892
C101	C	1.727473	-0.131099	1.353225
C102	C	2.060807	0.202235	1.686558
C103	C	1.394122	-0.464471	0.910659
C104	C	1.727456	-0.131137	1.243993
C105	C	2.060789	0.202196	1.577326
