data_functionalizedCrystal
_audit_creation_method	'MofGen! by Chris Wilmer'
_symmetry_space_group_name_H-M	'P1'
_symmetry_Int_Tables_number	1
_symmetry_cell_setting	triclinic
loop_
_symmetry_equiv_pos_as_xyz
  x,y,z
_cell_length_a	17.077404
_cell_length_b	15.299816
_cell_length_c	17.077396
_cell_angle_alpha	80.343631
_cell_angle_beta	90.021444
_cell_angle_gamma	80.349447
loop_
_atom_site_label
_atom_site_type_symbol
_atom_site_fract_x
_atom_site_fract_y
_atom_site_fract_z
Zn1	Zn	1.254124	-0.359105	0.498025
Zn2	Zn	1.276741	-0.509936	0.389499
Zn3	Zn	1.122860	-0.359132	0.366772
Zn4	Zn	1.145525	-0.509878	0.520710
O5	O	1.199812	-0.434513	0.443752
O6	O	1.366973	-0.379127	0.483646
O7	O	1.256308	-0.489967	0.276643
O8	O	1.121321	-0.232917	0.365178
O9	O	1.383590	-0.489942	0.403913
O10	O	1.217761	-0.232898	0.461609
O11	O	1.143252	-0.379172	0.259946
O12	O	1.016017	-0.379115	0.387175
O13	O	1.159951	-0.489842	0.627542
O14	O	1.032669	-0.489867	0.500272
O15	O	1.239738	-0.379070	0.610876
O16	O	1.278286	-0.636139	0.425910
O17	O	1.181882	-0.636096	0.522309
C18	C	0.995861	-0.434488	0.443719
C19	C	0.908613	-0.434499	0.443727
C20	C	0.524164	-0.376940	0.485397
C21	C	0.606144	-0.376933	0.485387
C22	C	0.655769	-0.434532	0.443774
C23	C	0.623411	-0.492147	0.402175
C24	C	0.541434	-0.492157	0.402189
C25	C	0.794277	-0.492120	0.402145
C26	C	0.876260	-0.492108	0.402129
C27	C	0.858987	-0.376896	0.485343
C28	C	0.777010	-0.376906	0.485358
C29	C	0.744658	-0.434520	0.443757
C30	C	1.235019	-0.668843	0.479054
C31	C	1.250152	-0.769091	0.494183
C32	C	1.092167	-1.052011	0.335889
C33	C	1.077944	-0.957823	0.321677
C34	C	1.120995	-0.910635	0.364802
C35	C	1.178271	-0.957644	0.422143
C36	C	1.192490	-1.051841	0.436361
C37	C	1.221319	-0.910466	0.465273
C38	C	1.278594	-0.957475	0.522614
C39	C	1.292812	-1.051662	0.536829
C40	C	1.249761	-1.098850	0.493704
C41	C	1.207099	-0.816269	0.451055
C42	C	1.307423	-0.816099	0.551527
C43	C	1.321645	-0.910287	0.565739
C44	C	1.404560	-0.434538	0.443785
C45	C	1.491812	-0.434549	0.443799
C46	C	1.199850	-0.434446	0.648486
C47	C	1.199866	-0.434418	0.735732
C48	C	1.164490	-0.199267	0.408328
C49	C	1.149437	-0.099020	0.393233
C50	C	1.199810	-0.434514	0.239804
C51	C	1.199908	-0.434288	0.152521
C52	C	1.241412	-0.376734	0.768044
C53	C	1.241417	-0.376704	0.850020
C54	C	1.199880	-0.434363	0.899683
C55	C	1.158328	-0.492049	0.867365
C56	C	1.158319	-0.492074	0.785390
C57	C	1.158352	-0.491995	1.038227
C58	C	1.158362	-0.491972	1.120208
C59	C	1.241450	-0.376625	1.102857
C60	C	1.241441	-0.376650	1.020882
C61	C	1.199890	-0.434338	0.988570
H62	H	0.515095	-0.539070	0.368318
Cl63	Cl	1.135099	-0.757184	0.378971
Cl64	Cl	0.899657	-0.304461	0.537636
Cl65	Cl	0.714624	-0.304492	0.537668
Cl66	Cl	1.005936	-0.898733	0.249604
Cl67	Cl	1.106085	-0.564591	0.744768
H68	H	1.057117	-1.090440	0.300787
H69	H	1.124537	-0.538921	1.160642
Cl70	Cl	1.102840	-0.792228	0.347208
H71	H	1.275239	-0.329784	0.727614
H72	H	1.261340	-1.175545	0.505270
H73	H	0.483764	-0.330031	0.519278
Cl74	Cl	1.364800	-1.110757	0.608930
H75	H	1.342477	-0.777680	0.586644
Cl76	Cl	1.393645	-0.969395	0.637823
Cl77	Cl	1.293690	-0.304224	0.890644
H78	H	1.275269	-0.329704	0.980449
Cl79	Cl	0.646813	-0.304512	0.537689
Cl80	Cl	1.293685	-0.304105	1.143478
Cl81	Cl	0.938649	-0.564544	0.349841
H82	H	1.124503	-0.538956	1.011920
Cl83	Cl	1.106107	-0.564532	0.929798
H84	H	0.767940	-0.539039	0.368273
Cl85	Cl	0.685798	-0.564561	0.349865
