data_functionalizedCrystal
_audit_creation_method	'MofGen! by Chris Wilmer'
_symmetry_space_group_name_H-M	'P1'
_symmetry_Int_Tables_number	1
_symmetry_cell_setting	triclinic
loop_
_symmetry_equiv_pos_as_xyz
  x,y,z
_cell_length_a	16.625546
_cell_length_b	16.959455
_cell_length_c	16.959447
_cell_angle_alpha	90.014322
_cell_angle_beta	90.032216
_cell_angle_gamma	90.019415
loop_
_atom_site_label
_atom_site_type_symbol
_atom_site_fract_x
_atom_site_fract_y
_atom_site_fract_z
Zn1	Zn	-0.321051	1.208371	0.446898
Zn2	Zn	-0.455899	1.208288	0.314715
Zn3	Zn	-0.321077	1.076199	0.314736
Zn4	Zn	-0.455839	1.076158	0.446854
O5	O	-0.388466	1.142254	0.380801
O6	O	-0.338954	1.318970	0.429374
O7	O	-0.438050	1.190748	0.204107
O8	O	-0.208241	1.093784	0.332295
O9	O	-0.438026	1.318909	0.332260
O10	O	-0.208222	1.190890	0.429394
O11	O	-0.338997	1.093703	0.204122
O12	O	-0.338939	0.965583	0.332252
O13	O	-0.437923	1.093714	0.557471
O14	O	-0.437947	0.965553	0.429318
O15	O	-0.338895	1.190850	0.557503
O16	O	-0.568723	1.190709	0.332217
O17	O	-0.568679	1.093634	0.429298
C18	C	-0.388440	0.936888	0.380783
C19	C	-0.388448	0.849031	0.380794
C20	C	-0.336870	0.477547	0.330364
C21	C	-0.440129	0.477564	0.431283
C22	C	-0.440117	0.560110	0.431278
C23	C	-0.388482	0.601378	0.380815
C24	C	-0.336859	0.560100	0.330356
C25	C	-0.491746	0.601394	0.481731
C26	C	-0.491737	0.683945	0.481727
C27	C	-0.440097	0.725215	0.431267
C28	C	-0.388471	0.683932	0.380807
C29	C	-0.336836	0.725200	0.330343
C30	C	-0.285205	0.683918	0.279886
C31	C	-0.285219	0.601370	0.279895
C32	C	-0.440083	0.807763	0.431257
C33	C	-0.336824	0.807753	0.330335
C34	C	-0.597957	1.142179	0.380768
C35	C	-0.687578	1.142219	0.380780
C36	C	-1.015754	1.142357	0.380862
C37	C	-0.924445	1.142316	0.380842
C38	C	-0.851669	1.142288	0.380821
C39	C	-0.760355	1.142248	0.380801
C40	C	-0.178157	1.142351	0.380851
C41	C	-0.088536	1.142392	0.380873
C42	C	-0.388494	1.348422	0.380819
C43	C	-0.388505	1.436279	0.380827
C44	C	-0.388400	1.142287	0.586969
C45	C	-0.388371	1.142301	0.674826
C46	C	-0.388475	1.142267	0.175435
C47	C	-0.388276	1.142406	0.087578
C48	C	-0.439845	1.091821	1.046287
C49	C	-0.336727	1.192969	1.046316
C50	C	-0.336744	1.192948	0.963770
C51	C	-0.388313	1.142364	0.922479
C52	C	-0.439866	1.091800	0.963734
C53	C	-0.285199	1.243517	0.922509
C54	C	-0.285214	1.243498	0.839958
C55	C	-0.336780	1.192909	0.798666
C56	C	-0.388334	1.142343	0.839925
C57	C	-0.439903	1.091758	0.798634
C58	C	-0.491453	1.041187	0.839892
C59	C	-0.491431	1.041211	0.922441
C60	C	-0.336802	1.192886	0.716117
C61	C	-0.439923	1.091737	0.716080
H62	H	-0.481911	1.050537	0.682467
H63	H	-0.243219	1.284705	0.956135
H64	H	-0.243239	1.284676	0.806373
H65	H	-0.533790	0.567788	0.522810
O66	O	-0.286619	1.241920	0.676074
C67	C	-0.206249	1.224708	0.696287
H68	H	-0.202159	1.161571	0.718984
H69	H	-0.185171	1.267112	0.744208
C70	C	-0.157481	1.311461	0.595096
C71	C	-0.152456	1.233912	0.622967
H72	H	-0.124297	1.317141	0.549871
H73	H	-0.211627	1.323059	0.581480
H74	H	-0.139917	1.346788	0.635037
H75	H	-0.170029	1.198587	0.583030
H76	H	-0.098311	1.222308	0.636575
H77	H	-0.533403	1.000041	0.956041
H78	H	-0.482173	0.443959	0.472364
H79	H	-0.294831	0.443932	0.289285
H80	H	-0.533777	0.717550	0.522813
O81	O	-0.490144	0.847829	0.480377
C82	C	-0.472644	0.827671	0.559190
H83	H	-0.408239	0.804989	0.563300
H84	H	-0.515909	0.779755	0.579776
C85	C	-0.561185	0.928876	0.606872
C86	C	-0.482080	0.901024	0.611921
H87	H	-0.567009	0.974121	0.639400
H88	H	-0.572978	0.942455	0.553775
H89	H	-0.597231	0.888939	0.624026
H90	H	-0.446037	0.940957	0.594758
H91	H	-0.470281	0.887453	0.665017
H92	H	-0.243167	0.717529	0.238795
O93	O	-0.286722	1.242219	1.086386
C94	C	-0.304342	1.320985	1.066190
H95	H	-0.368762	1.324941	1.043475
H96	H	-0.261125	1.341650	1.018288
C97	C	-0.215827	1.368903	1.167420
C98	C	-0.294951	1.373764	1.139528
H99	H	-0.210031	1.401461	1.212657
H100	H	-0.203953	1.315837	1.181025
H101	H	-0.179822	1.386123	1.127495
H102	H	-0.330953	1.356535	1.179449
H103	H	-0.306830	1.426828	1.125931
O104	O	-0.541667	0.992143	0.799809
C105	C	-0.622024	1.009377	0.819972
H106	H	-0.626091	1.072521	0.842681
H107	H	-0.643090	0.966990	0.867868
C108	C	-0.670856	0.922608	0.718727
C109	C	-0.675852	1.000165	0.746613
H110	H	-0.704061	0.916923	0.673478
H111	H	-0.616718	0.910995	0.705145
H112	H	-0.688409	0.887295	0.758648
H113	H	-0.658289	1.035476	0.706696
H114	H	-0.729988	1.011784	0.760187
O115	O	-0.490005	1.042812	1.086396
C116	C	-0.542064	1.087797	1.134148
H117	H	-0.547060	1.150045	1.109274
H118	H	-0.517118	1.090543	1.196718
C119	C	-0.619742	0.972688	1.165938
C120	C	-0.625884	1.049139	1.135384
H121	H	-0.671446	0.948841	1.166704
H122	H	-0.584668	0.942380	1.133769
H123	H	-0.598951	0.974986	1.218077
H124	H	-0.646665	1.046839	1.083243
H125	H	-0.660964	1.079446	1.167544
O126	O	-0.286752	0.847803	0.281199
C127	C	-0.304262	0.827581	0.202392
H128	H	-0.368673	0.804870	0.198291
H129	H	-0.261011	0.779668	0.181814
C130	C	-0.215696	0.928787	0.154682
C131	C	-0.294809	0.900900	0.149644
H132	H	-0.209862	0.974011	0.122143
H133	H	-0.203896	0.942410	0.207776
H134	H	-0.179662	0.888852	0.137535
H135	H	-0.330840	0.940830	0.166800
H136	H	-0.306615	0.887285	0.096552
H137	H	-0.243185	0.567751	0.238815
