data_functionalizedCrystal
_audit_creation_method	'MofGen! by Chris Wilmer'
_symmetry_space_group_name_H-M	'P1'
_symmetry_Int_Tables_number	1
_symmetry_cell_setting	triclinic
loop_
_symmetry_equiv_pos_as_xyz
  x,y,z
_cell_length_a	25.639242
_cell_length_b	25.639239
_cell_length_c	13.897441
_cell_angle_alpha	89.966666
_cell_angle_beta	89.979296
_cell_angle_gamma	90.030990
loop_
_atom_site_label
_atom_site_type_symbol
_atom_site_fract_x
_atom_site_fract_y
_atom_site_fract_z
Zn1	Zn	0.799258	-0.208246	-0.545410
Zn2	Zn	0.799172	-0.295688	-0.384101
Zn3	Zn	0.711824	-0.208256	-0.384123
Zn4	Zn	0.711779	-0.295641	-0.545348
O5	O	0.755508	-0.251958	-0.464746
O6	O	0.872412	-0.219861	-0.524029
O7	O	0.787568	-0.284113	-0.249122
O8	O	0.723478	-0.135090	-0.405553
O9	O	0.872348	-0.284104	-0.405516
O10	O	0.787715	-0.135083	-0.524050
O11	O	0.723394	-0.219878	-0.249138
O12	O	0.638653	-0.219833	-0.405493
O13	O	0.723401	-0.284024	-0.680338
O14	O	0.638620	-0.284034	-0.523944
O15	O	0.787671	-0.219816	-0.680384
O16	O	0.787524	-0.368847	-0.405456
O17	O	0.723317	-0.368812	-0.523923
C18	C	0.619666	-0.251930	-0.464714
C19	C	0.561552	-0.251930	-0.464724
C20	C	0.310399	-0.218566	-0.526568
C21	C	0.365004	-0.218561	-0.526562
O22	O	0.393275	-0.190171	-0.579138
N23	N	0.392278	-0.251952	-0.464757
C24	C	0.364945	-0.285354	-0.402959
O25	O	0.393158	-0.313755	-0.350389
C26	C	0.310342	-0.285361	-0.402970
C27	C	0.283070	-0.251964	-0.464773
C28	C	0.283128	-0.185173	-0.588367
C29	C	0.228527	-0.185177	-0.588371
C30	C	0.201198	-0.218575	-0.526576
C31	C	0.228470	-0.251969	-0.464777
C32	C	0.283010	-0.318765	-0.341178
C33	C	0.228403	-0.318770	-0.341195
C34	C	0.201131	-0.285373	-0.402998
C35	C	0.146540	-0.285372	-0.402987
N36	N	0.119266	-0.251981	-0.464792
C37	C	0.146595	-0.218583	-0.526587
C38	C	0.479615	-0.285336	-0.402942
C39	C	0.534218	-0.285327	-0.402925
C40	C	0.534273	-0.218534	-0.526530
C41	C	0.479669	-0.218542	-0.526541
C42	C	0.452341	-0.251945	-0.464748
C43	C	0.031930	-0.218595	-0.526590
C44	C	-0.022676	-0.218601	-0.526586
C45	C	-0.022726	-0.285394	-0.402985
C46	C	0.031875	-0.285387	-0.402985
C47	C	0.059201	-0.251985	-0.464796
O48	O	0.118234	-0.313749	-0.350441
O49	O	0.118375	-0.190191	-0.579158
C50	C	0.755420	-0.387800	-0.464701
C51	C	0.755431	-0.445914	-0.464715
C52	C	0.755540	-0.251914	-0.716339
C53	C	0.755554	-0.251895	-0.823553
C54	C	0.891881	-0.251987	-0.464778
C55	C	0.949995	-0.251999	-0.464791
C56	C	0.789028	-0.806283	-0.403165
C57	C	0.789048	-0.860887	-0.403178
O58	O	0.817523	-0.889128	-0.350797
N59	N	0.755600	-0.888197	-0.464810
C60	C	0.722133	-0.860900	-0.526439
O61	O	0.693685	-0.889143	-0.578864
C62	C	0.722116	-0.806296	-0.526431
C63	C	0.755563	-0.778989	-0.464788
C64	C	0.822472	-0.778976	-0.341528
C65	C	0.822451	-0.724375	-0.341514
C66	C	0.788986	-0.697082	-0.403137
C67	C	0.755542	-0.724389	-0.464774
C68	C	0.688652	-0.779000	-0.588065
C69	C	0.688638	-0.724393	-0.588051
C70	C	0.722085	-0.697086	-0.526408
C71	C	0.722055	-0.642495	-0.526383
N72	N	0.755503	-0.615185	-0.464751
C73	C	0.788969	-0.642478	-0.403128
C74	C	0.722173	-0.975570	-0.526454
C75	C	0.722187	-1.030172	-0.526459
C76	C	0.789103	-1.030156	-0.403198
C77	C	0.789085	-0.975553	-0.403190
C78	C	0.755621	-0.948260	-0.464822
C79	C	0.788921	-0.527813	-0.403103
C80	C	0.788896	-0.473208	-0.403092
C81	C	0.721982	-0.473229	-0.526356
C82	C	0.722006	-0.527830	-0.526364
C83	C	0.755480	-0.555120	-0.464734
O84	O	0.693597	-0.614219	-0.578740
O85	O	0.817417	-0.614229	-0.350722
C86	C	0.755611	-0.115585	-0.464811
C87	C	0.755654	-0.057471	-0.464839
C88	C	0.755565	-0.251880	-0.910623
C89	C	0.755580	-0.251857	-1.019855
C90	C	0.755506	-0.251964	-0.214131
C91	C	0.755594	-0.251835	-0.106918
H92	H	0.206155	-0.345973	-0.290877
C93	C	0.651824	-0.694375	-0.655855
N94	N	0.624094	-0.671766	-0.706922
C95	C	-0.052671	-0.181862	-0.594580
N96	N	-0.075261	-0.154192	-0.645794
H97	H	0.849688	-0.702145	-0.291322
H98	H	0.054080	-0.312576	-0.352652
H99	H	0.694773	-0.550064	-0.576561
H100	H	0.816321	-0.953323	-0.352995
H101	H	0.054173	-0.191395	-0.576921
C102	C	-0.052798	-0.322131	-0.335016
N103	N	-0.075450	-0.349805	-0.283826
H104	H	0.556534	-0.191340	-0.576847
H105	H	0.816132	-0.450976	-0.352892
C106	C	0.825741	-0.557825	-0.335302
N107	N	0.853471	-0.580430	-0.284228
H108	H	0.849727	-0.801192	-0.291347
C109	C	0.825920	-1.060189	-0.335419
N110	N	0.853649	-1.082812	-0.284372
C111	C	0.685174	-0.443196	-0.594141
N112	N	0.657454	-0.420573	-0.645204
H113	H	0.305205	-0.345960	-0.290852
C114	C	0.685388	-1.060204	-0.594261
N115	N	0.657672	-1.082822	-0.645337
H116	H	0.206328	-0.157984	-0.638701
H117	H	0.556418	-0.312516	-0.352589
C118	C	0.685359	-0.945553	-0.594264
N119	N	0.657633	-0.922947	-0.645343
C120	C	0.651859	-0.809026	-0.655881
N121	N	0.624145	-0.831640	-0.706966
C122	C	0.313181	-0.148425	-0.656346
N123	N	0.335814	-0.120741	-0.707546
H124	H	0.457368	-0.312536	-0.352614
H125	H	0.457469	-0.191347	-0.576866
