data_functionalizedCrystal
_audit_creation_method	'MofGen! by Chris Wilmer'
_symmetry_space_group_name_H-M	'P1'
_symmetry_Int_Tables_number	1
_symmetry_cell_setting	triclinic
loop_
_symmetry_equiv_pos_as_xyz
  x,y,z
_cell_length_a	14.971486
_cell_length_b	16.109301
_cell_length_c	14.048226
_cell_angle_alpha	89.992144
_cell_angle_beta	89.998499
_cell_angle_gamma	83.537805
loop_
_atom_site_label
_atom_site_type_symbol
_atom_site_fract_x
_atom_site_fract_y
_atom_site_fract_z
O1	O	1.186791	0.108348	-0.079054
O2	O	0.926372	0.121323	-0.079081
O3	O	1.063735	-0.006187	-0.079057
O4	O	1.049427	0.235857	-0.079078
O5	O	1.063719	-0.006194	0.079264
O6	O	0.926355	0.121315	0.079241
O7	O	1.186774	0.108340	0.079267
Zn8	Zn	1.056562	0.114826	0.104391
Zn9	Zn	1.056584	0.114836	-0.104204
O10	O	1.049411	0.235850	0.079244
C11	C	0.893040	0.120739	0.000077
C12	C	0.793745	0.119000	0.000067
C13	C	0.736412	0.193908	0.000062
C14	C	0.643115	0.192269	0.000076
C15	C	0.607153	0.115721	0.000089
C16	C	0.664494	0.040807	0.000097
C17	C	0.757789	0.042447	0.000089
C18	C	0.470036	0.037395	0.000110
C19	C	0.376734	0.035755	0.000116
C20	C	0.355362	0.187217	0.000097
C21	C	0.448657	0.188857	0.000090
C22	C	0.505991	0.113942	0.000096
C23	C	1.063147	-0.037166	0.000104
C24	C	1.061410	-0.129464	0.000105
C25	C	1.138878	-0.351640	0.000098
C26	C	1.137239	-0.438362	0.000090
C27	C	0.974262	-0.418691	0.000077
C28	C	0.975902	-0.331970	0.000078
C29	C	1.058213	-0.298447	0.000094
C30	C	1.054933	-0.471890	0.000085
C31	C	1.053155	-0.565918	0.000076
C32	C	1.059992	-0.204413	0.000101
C33	C	1.220106	0.108924	0.000108
C34	C	1.319401	0.110663	0.000111
C35	C	1.049999	0.266829	0.000080
C36	C	1.051736	0.359127	0.000073
N37	N	1.056554	0.114819	0.246752
N38	N	1.056599	0.114837	-0.246565
C39	C	1.117397	0.058381	0.296580
C40	C	1.117403	0.058381	0.396238
C41	C	1.056570	0.114823	0.446065
C42	C	0.995719	0.171263	0.396230
C43	C	0.995710	0.171259	0.296574
C44	C	0.995745	0.171269	0.603944
C45	C	0.995756	0.171275	0.703607
C46	C	1.117439	0.058391	0.703608
C47	C	1.117429	0.058387	0.603952
C48	C	1.056580	0.114829	0.554123
H49	H	0.635206	-0.021520	0.000121
H50	H	0.308675	0.248215	0.000097
H51	H	1.202924	-0.481669	0.000092
H52	H	1.166939	0.012423	0.256017
H53	H	1.205901	-0.324348	0.000108
H54	H	0.477934	0.251189	0.000070
H55	H	0.946192	0.217228	0.563377
O56	O	0.341901	-0.038652	0.000007
C57	C	0.371176	-0.084321	-0.081992
H58	H	0.435880	-0.061608	-0.109336
H59	H	0.384135	-0.153544	-0.063536
H60	H	0.317187	-0.074740	-0.139409
O61	O	0.894365	-0.451357	-0.000056
C62	C	0.888535	-0.500907	-0.082062
H63	H	0.959041	-0.522434	-0.109396
H64	H	0.852895	-0.557729	-0.063621
H65	H	0.848957	-0.462627	-0.139482
O66	O	1.176424	0.003476	0.752046
C67	C	1.128555	-0.047883	0.809723
H68	H	1.058017	-0.049400	0.779703
H69	H	1.165075	-0.113909	0.810857
H70	H	1.123866	-0.021872	0.885248
H71	H	0.516716	-0.023609	0.000117
H72	H	0.910211	-0.288658	0.000072
H73	H	0.946218	0.217235	0.744171
O74	O	0.813358	-0.030396	0.000047
C75	C	0.761614	-0.098312	0.000081
H76	H	0.691975	-0.077279	-0.029889
H77	H	0.796044	-0.150801	-0.045881
H78	H	0.754982	-0.121775	0.076039
H79	H	1.166946	0.012424	0.436808
O80	O	0.587549	0.265113	0.000028
C81	C	0.639296	0.333027	0.000033
H82	H	0.708930	0.311993	-0.029947
H83	H	0.604860	0.385519	-0.045935
H84	H	0.645939	0.356485	0.075984
H85	H	1.166969	0.012432	0.563383
H86	H	0.946164	0.217216	0.256004
O87	O	0.771383	0.268248	-0.000122
C88	C	0.824721	0.273725	-0.082112
H89	H	0.802670	0.230257	-0.139415
H90	H	0.816320	0.340723	-0.109642
H91	H	0.898301	0.254625	-0.063579
O92	O	0.936588	0.225976	0.444736
C93	C	0.881419	0.181366	0.502384
H94	H	0.917067	0.116362	0.517320
H95	H	0.867267	0.216049	0.572457
H96	H	0.815313	0.175613	0.463991
