data_functionalizedCrystal
_audit_creation_method	'MofGen! by Chris Wilmer'
_symmetry_space_group_name_H-M	'P1'
_symmetry_Int_Tables_number	1
_symmetry_cell_setting	triclinic
loop_
_symmetry_equiv_pos_as_xyz
  x,y,z
_cell_length_a	21.395362
_cell_length_b	19.077068
_cell_length_c	21.395356
_cell_angle_alpha	92.271626
_cell_angle_beta	89.964230
_cell_angle_gamma	92.343691
loop_
_atom_site_label
_atom_site_type_symbol
_atom_site_fract_x
_atom_site_fract_y
_atom_site_fract_z
Zn1	Zn	0.947810	-0.279939	-0.364584
Zn2	Zn	1.281144	0.053394	-0.031251
Zn3	Zn	1.614477	0.386727	0.302082
Zn4	Zn	0.943524	-0.397635	-0.264011
Zn5	Zn	1.276858	-0.064302	0.069323
Zn6	Zn	1.610191	0.269032	0.402656
Zn7	Zn	0.843039	-0.279987	-0.259787
Zn8	Zn	1.176372	0.053347	0.073546
Zn9	Zn	1.509705	0.386680	0.406879
Zn10	Zn	0.838791	-0.397635	-0.368715
Zn11	Zn	1.172124	-0.064302	-0.035382
Zn12	Zn	1.505458	0.269032	0.297951
O13	O	0.893291	-0.338799	-0.314274
O14	O	1.226624	-0.005466	0.019059
O15	O	1.559958	0.327868	0.352392
O16	O	1.034921	-0.295532	-0.351282
O17	O	1.368254	0.037801	-0.017948
O18	O	1.701587	0.371135	0.315385
O19	O	0.930178	-0.382049	-0.175773
O20	O	1.263512	-0.048715	0.157560
O21	O	1.596845	0.284618	0.490893
O22	O	0.860508	-0.181488	-0.270193
O23	O	1.193842	0.151846	0.063141
O24	O	1.527175	0.485179	0.396474
O25	O	1.031771	-0.382003	-0.277391
O26	O	1.365105	-0.048669	0.055943
O27	O	1.698438	0.284664	0.389276
O28	O	0.937484	-0.181453	-0.347186
O29	O	1.270817	0.151880	-0.013853
O30	O	1.604150	0.485214	0.319480
O31	O	0.856352	-0.295613	-0.172670
O32	O	1.189686	0.037721	0.160663
O33	O	1.523019	0.371054	0.493996
O34	O	0.754797	-0.295613	-0.274198
O35	O	1.088130	0.037721	0.059135
O36	O	1.421463	0.371054	0.392468
O37	O	0.853269	-0.382003	-0.455845
O38	O	1.186602	-0.048669	-0.122511
O39	O	1.519935	0.284664	0.210822
O40	O	0.751676	-0.382048	-0.354227
O41	O	1.085009	-0.048715	-0.020894
O42	O	1.418342	0.284618	0.312439
O43	O	0.933365	-0.295532	-0.452810
O44	O	1.266698	0.037801	-0.119476
O45	O	1.600032	0.371135	0.213857
O46	O	0.926060	-0.496128	-0.281396
O47	O	1.259393	-0.162794	0.051937
O48	O	1.592726	0.170539	0.385270
O49	O	0.849113	-0.496128	-0.358323
O50	O	1.182446	-0.162794	-0.024989
O51	O	1.515779	0.170539	0.308344
C52	C	0.730502	-0.338836	-0.314203
C53	C	1.063835	-0.005503	0.019130
C54	C	1.397169	0.327830	0.352464
C55	C	0.660860	-0.338869	-0.314188
C56	C	0.994193	-0.005536	0.019145
C57	C	1.327526	0.327798	0.352479
C58	C	0.626536	-0.383936	-0.355801
C59	C	0.959869	-0.050603	-0.022468
C60	C	1.293202	0.282731	0.310865
C61	C	0.561101	-0.383919	-0.355829
C62	C	0.894434	-0.050585	-0.022495
C63	C	1.227768	0.282748	0.310838
C64	C	0.529992	-0.338842	-0.314232
C65	C	0.863326	-0.005509	0.019102
C66	C	1.196659	0.327825	0.352435
C67	C	0.564324	-0.293766	-0.272615
C68	C	0.897658	0.039567	0.060718
C69	C	1.230991	0.372900	0.394051
C70	C	0.629758	-0.293780	-0.272594
C71	C	0.963091	0.039553	0.060740
C72	C	1.296425	0.372887	0.394073
C73	C	0.426478	-0.333180	-0.257624
C74	C	0.759811	0.000154	0.075709
C75	C	1.093145	0.333487	0.409042
C76	C	0.361045	-0.333171	-0.257645
C77	C	0.694379	0.000162	0.075688
C78	C	1.027712	0.333496	0.409021
C79	C	0.328173	-0.338796	-0.314299
C80	C	0.661507	-0.005463	0.019034
C81	C	0.994840	0.327871	0.352367
C82	C	0.360741	-0.344444	-0.370935
C83	C	0.694075	-0.011111	-0.037601
C84	C	1.027408	0.322222	0.295732
C85	C	0.426175	-0.344458	-0.370913
C86	C	0.759508	-0.011125	-0.037579
C87	C	1.092842	0.322209	0.295754
C88	C	0.459041	-0.338822	-0.314251
C89	C	0.792374	-0.005489	0.019082
C90	C	1.125707	0.327845	0.352416
C91	C	0.222897	-0.383847	-0.355946
C92	C	0.556231	-0.050513	-0.022612
C93	C	0.889564	0.282820	0.310721
C94	C	0.157462	-0.383824	-0.355974
C95	C	0.490795	-0.050491	-0.022640
C96	C	0.824128	0.282842	0.310693
C97	C	0.160686	-0.293676	-0.272755
C98	C	0.494020	0.039658	0.060578
C99	C	0.827353	0.372991	0.393912
C100	C	0.226121	-0.293694	-0.272732
C101	C	0.559454	0.039639	0.060601
C102	C	0.892788	0.372972	0.393934
C103	C	0.257222	-0.338783	-0.314327
C104	C	0.590556	-0.005450	0.019006
C105	C	0.923889	0.327883	0.352340
C106	C	0.886677	-0.521666	-0.320780
C107	C	1.220010	-0.188332	0.012554
C108	C	1.553344	0.145001	0.345887
C109	C	0.883905	-0.599897	-0.323584
C110	C	1.217238	-0.266563	0.009750
C111	C	1.550571	0.066770	0.343083
C112	C	0.922696	-0.636626	-0.284883
C113	C	1.256029	-0.303293	0.048450
C114	C	1.589362	0.030040	0.381784
C115	C	0.920092	-0.710133	-0.287524
C116	C	1.253425	-0.376799	0.045809
C117	C	1.586759	-0.043466	0.379143
C118	C	0.878694	-0.746908	-0.328863
C119	C	1.212027	-0.413575	0.004471
C120	C	1.545361	-0.080241	0.337804
C121	C	0.839901	-0.710173	-0.367568
C122	C	1.173235	-0.376840	-0.034234
C123	C	1.506568	-0.043506	0.299099
C124	C	0.842509	-0.636668	-0.364930
C125	C	1.175842	-0.303335	-0.031596
C126	C	1.509175	0.029999	0.301737
C127	C	0.866600	-0.966747	-0.341047
C128	C	1.199933	-0.633414	-0.007714
C129	C	1.533266	-0.300081	0.325619
C130	C	0.863994	-1.040257	-0.343681
C131	C	1.197327	-0.706924	-0.010348
C132	C	1.530661	-0.373591	0.322985
C133	C	0.944186	-1.040212	-0.263638
C134	C	1.277519	-0.706879	0.069696
C135	C	1.610853	-0.373545	0.403029
C136	C	0.946787	-0.966706	-0.261001
C137	C	1.280120	-0.633372	0.072333
C138	C	1.613453	-0.300039	0.405666
C139	C	0.907997	-0.929977	-0.299708
C140	C	1.241330	-0.596644	0.033625
C141	C	1.574663	-0.263310	0.366959
N142	N	0.876030	-0.822043	-0.331562
N143	N	1.209363	-0.488710	0.001771
N144	N	1.542697	-0.155377	0.335105
N145	N	0.910664	-0.854843	-0.297012
N146	N	1.243997	-0.521510	0.036322
N147	N	1.577331	-0.188176	0.369655
C148	C	1.056716	-0.338762	-0.314347
C149	C	1.390049	-0.005429	0.018987
C150	C	1.723382	0.327905	0.352320
C151	C	1.126358	-0.338746	-0.314377
C152	C	1.459691	-0.005413	0.018956
C153	C	1.793024	0.327920	0.352289
C154	C	0.893321	-0.338762	-0.477697
C155	C	1.226654	-0.005429	-0.144363
C156	C	1.559988	0.327905	0.188970
C157	C	0.893334	-0.338746	-0.547337
C158	C	1.226667	-0.005413	-0.214004
C159	C	1.560001	0.327920	0.119329
C160	C	0.899948	-0.155218	-0.307758
C161	C	1.233281	0.178115	0.025576
C162	C	1.566615	0.511448	0.358909
C163	C	0.902785	-0.076987	-0.304980
C164	C	1.236118	0.256346	0.028353
C165	C	1.569452	0.589679	0.361686
C166	C	0.931851	-0.383606	-1.050745
C167	C	1.265184	-0.050272	-0.717411
C168	C	1.598518	0.283061	-0.384078
C169	C	0.931839	-0.383628	-0.985310
C170	C	1.265172	-0.050295	-0.651977
C171	C	1.598506	0.283039	-0.318643
C172	C	0.893398	-0.338635	-0.950972
C173	C	1.226731	-0.005301	-0.617638
C174	C	1.560064	0.328032	-0.284305
C175	C	0.854954	-0.293628	-0.982074
C176	C	1.188287	0.039705	-0.648741
C177	C	1.521620	0.373039	-0.315407
C178	C	0.854962	-0.293612	-1.047508
C179	C	1.188296	0.039721	-0.714174
C180	C	1.521629	0.373055	-0.380841
C181	C	0.890736	-0.275249	-0.845051
C182	C	1.224069	0.058084	-0.511718
C183	C	1.557403	0.391418	-0.178384
C184	C	0.890732	-0.275264	-0.779618
C185	C	1.224065	0.058069	-0.446285
C186	C	1.557399	0.391403	-0.112952
C187	C	0.893368	-0.338685	-0.749153
C188	C	1.226701	-0.005351	-0.415819
C189	C	1.560034	0.327982	-0.082486
C190	C	0.896021	-0.402092	-0.784128
C191	C	1.229354	-0.068759	-0.450794
C192	C	1.562687	0.264575	-0.117461
C193	C	0.896029	-0.402076	-0.849561
C194	C	1.229362	-0.068743	-0.516228
C195	C	1.562696	0.264591	-0.182895
C196	C	0.893384	-0.338647	-0.880020
C197	C	1.226717	-0.005314	-0.546687
C198	C	1.560051	0.328019	-0.213353
C199	C	0.931793	-0.383716	-0.647107
C200	C	1.265126	-0.050383	-0.313773
C201	C	1.598459	0.282951	0.019560
C202	C	0.931776	-0.383739	-0.581671
C203	C	1.265110	-0.050406	-0.248338
C204	C	1.598443	0.282927	0.084996
C205	C	0.854895	-0.293733	-0.578436
C206	C	1.188228	0.039600	-0.245103
C207	C	1.521561	0.372934	0.088231
C208	C	0.854908	-0.293716	-0.643871
C209	C	1.188241	0.039617	-0.310537
C210	C	1.521574	0.372951	0.022796
C211	C	0.893360	-0.338706	-0.678202
C212	C	1.226693	-0.005373	-0.344869
C213	C	1.560027	0.327960	-0.011535
C214	C	0.893299	-0.338785	-0.151486
C215	C	1.226632	-0.005452	0.181847
C216	C	1.559966	0.327882	0.515180
C217	C	0.893415	-0.338602	-0.081839
C218	C	1.226748	-0.005269	0.251494
C219	C	1.560081	0.328064	0.584828
H220	H	0.254068	-0.257000	-0.238843
H221	H	0.587401	0.076334	0.094490
H222	H	0.920734	0.409667	0.427823
Cl223	Cl	0.968862	-0.756304	-0.238871
Cl224	Cl	1.302196	-0.422971	0.094462
Cl225	Cl	1.635529	-0.089638	0.427796
Cl226	Cl	0.806551	-0.237187	-0.535275
Cl227	Cl	1.139884	0.096146	-0.201941
Cl228	Cl	1.473218	0.429479	0.131392
H229	H	0.980496	-0.936765	-0.227339
H230	H	1.313830	-0.603431	0.105994
H231	H	1.647163	-0.270098	0.439328
Cl232	Cl	0.114311	-0.440481	-0.408296
Cl233	Cl	0.447644	-0.107148	-0.074963
Cl234	Cl	0.780978	0.226185	0.258371
Cl235	Cl	0.817833	-0.920584	-0.389707
Cl236	Cl	1.151167	-0.587250	-0.056374
Cl237	Cl	1.484500	-0.253917	0.276959
H238	H	0.963148	-0.420267	-0.959988
H239	H	1.296481	-0.086934	-0.626654
H240	H	1.629814	0.246399	-0.293321
Cl241	Cl	0.992951	-1.086389	-0.214985
Cl242	Cl	1.326285	-0.753056	0.118349
Cl243	Cl	1.659618	-0.419722	0.451682
Cl244	Cl	0.811938	-1.086488	-0.395646
Cl245	Cl	1.145272	-0.753155	-0.062313
Cl246	Cl	1.478605	-0.419822	0.271021
Cl247	Cl	0.887402	-0.195552	-0.735657
Cl248	Cl	1.220736	0.137781	-0.402324
Cl249	Cl	1.554069	0.471114	-0.068990
Cl250	Cl	0.787861	-0.756405	-0.419541
Cl251	Cl	1.121194	-0.423072	-0.086207
Cl252	Cl	1.454528	-0.089738	0.247126
Cl253	Cl	0.793743	-0.590493	-0.413586
Cl254	Cl	1.127076	-0.257160	-0.080253
Cl255	Cl	1.460409	0.076173	0.253080
H256	H	0.956404	-0.606689	-0.251218
H257	H	1.289737	-0.273355	0.082116
H258	H	1.623071	0.059978	0.415449
Cl259	Cl	0.319425	-0.351512	-0.442162
Cl260	Cl	0.652758	-0.018179	-0.108829
Cl261	Cl	0.986091	0.315155	0.224504
Cl262	Cl	0.980131	-0.440275	-0.690269
Cl263	Cl	1.313464	-0.106942	-0.356936
Cl264	Cl	1.646797	0.226392	-0.023602
Cl265	Cl	0.980184	-0.440173	-1.093901
Cl266	Cl	1.313517	-0.106840	-0.760568
Cl267	Cl	1.646850	0.226494	-0.427234
Cl268	Cl	0.899359	-0.481785	-0.893527
Cl269	Cl	1.232692	-0.148451	-0.560194
Cl270	Cl	1.566026	0.184882	-0.226861
H271	H	0.898168	-0.453735	-0.759324
H272	H	1.231501	-0.120402	-0.425991
H273	H	1.564835	0.212932	-0.092657
H274	H	0.963072	-0.420393	-0.556355
H275	H	1.296406	-0.087060	-0.223022
H276	H	1.629739	0.246274	0.110311
Cl277	Cl	0.806629	-0.237063	-0.938907
Cl278	Cl	1.139963	0.096270	-0.605574
Cl279	Cl	1.473296	0.429604	-0.272240
Cl280	Cl	0.262000	-0.440524	-0.408238
Cl281	Cl	0.595333	-0.107191	-0.074905
Cl282	Cl	0.928666	0.226142	0.258428
Cl283	Cl	0.806576	-0.237147	-0.682963
Cl284	Cl	1.139909	0.096187	-0.349630
Cl285	Cl	1.473243	0.429520	-0.016297
H286	H	0.453237	-0.328596	-0.211487
H287	H	0.786570	0.004737	0.121847
H288	H	1.119904	0.338070	0.455180
H289	H	0.651855	-0.420650	-0.389672
H290	H	0.985188	-0.087317	-0.056338
H291	H	1.318521	0.246017	0.276995
H292	H	0.888631	-0.223597	-0.869850
H293	H	1.221964	0.109737	-0.536517
H294	H	1.555298	0.443070	-0.203184
H295	H	0.823662	-0.256963	-1.072824
H296	H	1.156996	0.076370	-0.739491
H297	H	1.490329	0.409703	-0.406157
Cl298	Cl	0.320109	-0.326070	-0.186448
Cl299	Cl	0.653442	0.007264	0.146886
Cl300	Cl	0.986776	0.340597	0.480219
Cl301	Cl	0.467116	-0.351554	-0.442108
Cl302	Cl	0.800449	-0.018220	-0.108775
Cl303	Cl	1.133783	0.315113	0.224559
Cl304	Cl	0.121584	-0.237003	-0.220465
Cl305	Cl	0.454918	0.096330	0.112868
Cl306	Cl	0.788251	0.429664	0.446202
Cl307	Cl	0.525217	-0.237095	-0.220325
Cl308	Cl	0.858551	0.096238	0.113008
Cl309	Cl	1.191884	0.429572	0.446342
Cl310	Cl	0.517942	-0.440579	-0.408146
Cl311	Cl	0.851275	-0.107245	-0.074813
Cl312	Cl	1.184609	0.226088	0.258520
H313	H	0.657704	-0.257079	-0.238707
H314	H	0.991038	0.076254	0.094626
H315	H	1.324371	0.409588	0.427960
