data_functionalizedCrystal
_audit_creation_method	'MofGen! by Chris Wilmer'
_symmetry_space_group_name_H-M	'P1'
_symmetry_Int_Tables_number	1
_symmetry_cell_setting	triclinic
loop_
_symmetry_equiv_pos_as_xyz
  x,y,z
_cell_length_a	17.038272
_cell_length_b	19.188930
_cell_length_c	15.500227
_cell_angle_alpha	92.813384
_cell_angle_beta	86.956295
_cell_angle_gamma	87.128169
loop_
_atom_site_label
_atom_site_type_symbol
_atom_site_fract_x
_atom_site_fract_y
_atom_site_fract_z
O1	O	1.040536	0.148564	-0.071852
O2	O	0.812914	0.146156	-0.071877
O3	O	0.933292	0.046114	-0.071847
O4	O	0.920157	0.248607	-0.071882
O5	O	0.925988	0.052159	0.072040
O6	O	0.805609	0.152202	0.072009
O7	O	1.033231	0.154610	0.072035
Cu8	Cu	0.918753	0.153958	0.085160
Cu9	Cu	0.927392	0.146808	-0.085003
O10	O	0.912852	0.254653	0.072004
C11	C	0.780140	0.146990	0.000063
C12	C	0.693368	0.140458	0.000054
C13	C	0.643067	0.200424	0.000044
C14	C	0.561535	0.194283	0.000057
C15	C	0.530306	0.128176	0.000074
C16	C	0.580613	0.068205	0.000086
C17	C	0.662143	0.074347	0.000080
C18	C	0.284614	0.106479	0.000101
C19	C	0.203078	0.100342	0.000105
C20	C	0.184005	0.226421	0.000078
C21	C	0.265538	0.232556	0.000066
C22	C	0.315838	0.172586	0.000083
C23	C	0.446967	0.121897	0.000085
C24	C	0.399174	0.178865	0.000078
C25	C	0.929214	0.023099	0.000099
C26	C	0.927937	-0.054485	0.000106
C27	C	0.998572	-0.095020	0.000118
C28	C	0.997373	-0.167919	0.000104
C29	C	0.925534	-0.200279	0.000095
C30	C	0.854890	-0.159734	0.000079
C31	C	0.856092	-0.086837	0.000084
N32	N	0.868136	-0.309638	0.049057
N33	N	0.866999	-0.378887	0.049053
C34	C	0.921909	-0.419913	0.000077
N35	N	0.978011	-0.389074	-0.048884
N36	N	0.979150	-0.319818	-0.048877
C37	C	0.924223	-0.279323	0.000089
C38	C	0.991249	-0.539494	0.000073
C39	C	0.990047	-0.612395	0.000054
C40	C	0.847562	-0.604208	0.000037
C41	C	0.848767	-0.531310	0.000048
C42	C	0.920612	-0.498957	0.000070
C43	C	1.066004	0.153776	0.000092
C44	C	1.152777	0.160308	0.000095
C45	C	0.916930	0.277667	0.000057
C46	C	0.918208	0.355250	0.000044
N47	N	0.912682	0.158986	0.204843
N48	N	0.933468	0.141775	-0.204686
C49	C	0.963709	0.116612	0.250133
C50	C	0.959125	0.120422	0.340705
C51	C	0.903518	0.166610	0.385985
C52	C	0.852486	0.208985	0.340689
C53	C	0.857067	0.205171	0.250119
C54	C	0.887017	0.180337	0.659448
C55	C	0.882442	0.184149	0.750024
C56	C	0.989080	0.095584	0.750033
C57	C	0.993659	0.091778	0.659461
C58	C	0.942624	0.134150	0.614174
C59	C	0.898833	0.170506	0.478564
C60	C	0.947306	0.130250	0.521596
H61	H	0.325559	0.057647	0.000115
H62	H	0.789070	-0.630555	0.000026
H63	H	0.791248	-0.498305	0.000043
O64	O	1.047582	0.046680	0.615711
C65	C	1.094998	-0.073241	0.588693
C66	C	1.033877	-0.022164	0.638151
H67	H	1.083949	-0.128911	0.606831
H68	H	1.089674	-0.068948	0.516117
H69	H	1.156660	-0.059664	0.606563
H70	H	0.972188	-0.035707	0.620353
H71	H	1.039270	-0.026466	0.710715
O72	O	1.061107	-0.508176	0.000041
C73	C	1.202301	-0.523986	0.000090
C74	C	1.123244	-0.559541	0.000111
H75	H	1.252558	-0.565498	0.000166
H76	H	1.209530	-0.492604	-0.060137
H77	H	1.203332	-0.487521	0.060296
H78	H	1.122157	-0.596039	-0.060053
H79	H	1.116046	-0.590879	0.060379
H80	H	1.054894	-0.200929	0.000110
H81	H	1.057074	-0.068683	0.000133
H82	H	0.837158	0.221763	0.786888
O83	O	0.710899	0.016023	0.000046
C84	C	0.721215	-0.109676	0.000121
C85	C	0.665913	-0.043681	0.000135
H86	H	0.684865	-0.157961	0.000212
H87	H	0.762898	-0.112533	-0.060112
H88	H	0.756831	-0.107382	0.060321
H89	H	0.630246	-0.045929	-0.060024
H90	H	0.624282	-0.040847	0.060408
H91	H	0.424604	0.232690	0.000070
H92	H	0.796399	-0.186087	0.000070
H93	H	1.030629	0.061085	0.786915
H94	H	0.845464	0.214840	0.622582
O95	O	0.416599	0.057691	-0.000059
C96	C	0.339337	-0.025514	-0.074557
C97	C	0.373702	0.047208	-0.074515
H98	H	0.304634	-0.034006	-0.134738
H99	H	0.389261	-0.067358	-0.074612
H100	H	0.298628	-0.028994	-0.014308
H101	H	0.414402	0.050757	-0.134753
H102	H	0.323739	0.089018	-0.074415
H103	H	0.798571	-0.053833	0.000074
H104	H	0.290958	0.286387	0.000042
O105	O	1.008783	0.079241	0.384564
C106	C	1.115025	-0.009016	0.375015
C107	C	1.058841	0.037592	0.325237
H108	H	1.155500	-0.042711	0.327071
H109	H	1.151873	0.025223	0.417375
H110	H	1.079250	-0.044100	0.417461
H111	H	1.094555	0.072683	0.282744
H112	H	1.021991	0.003312	0.282932
H113	H	1.008993	0.079004	0.213271
O114	O	0.798538	0.253836	0.384806
C115	C	0.744192	0.298936	0.524327
C116	C	0.805336	0.248121	0.474476
H117	H	0.749657	0.294322	0.596834
H118	H	0.755081	0.354725	0.506562
H119	H	0.682528	0.285344	0.506481
H120	H	0.867025	0.261649	0.492295
H121	H	0.794379	0.192346	0.492245
H122	H	0.668486	0.254256	0.000030
O123	O	0.172837	0.036080	0.000008
C124	C	0.167920	-0.076676	-0.074536
C125	C	0.202243	-0.003937	-0.074520
H126	H	0.191668	-0.109045	-0.134795
H127	H	0.185622	-0.104073	-0.014353
H128	H	0.101008	-0.070738	-0.074498
H129	H	0.269157	-0.009812	-0.074589
H130	H	0.184480	0.023434	-0.134697
H131	H	0.555180	0.014379	0.000112
O132	O	0.807466	0.246407	0.206256
C133	C	0.701182	0.334623	0.215800
C134	C	0.757324	0.287977	0.265581
H135	H	0.660616	0.368234	0.263742
H136	H	0.736909	0.369779	0.173404
H137	H	0.664419	0.300346	0.173391
H138	H	0.794099	0.322200	0.308037
H139	H	0.721550	0.252817	0.307923
H140	H	1.047569	-0.645398	0.000059
H141	H	0.992579	0.092641	0.484726
H142	H	0.520582	0.243114	0.000048
O143	O	0.844786	0.215282	0.522650
C144	C	0.732792	0.228040	0.624891
C145	C	0.793965	0.177260	0.575029
H146	H	0.691678	0.197318	0.667238
H147	H	0.764236	0.266704	0.667339
H148	H	0.697141	0.257695	0.576955
H149	H	0.829634	0.147557	0.622902
H150	H	0.762474	0.138641	0.532568
H151	H	0.143042	0.275245	0.000066
