data_functionalizedCrystal
_audit_creation_method	'MofGen! by Chris Wilmer'
_symmetry_space_group_name_H-M	'P1'
_symmetry_Int_Tables_number	1
_symmetry_cell_setting	triclinic
loop_
_symmetry_equiv_pos_as_xyz
  x,y,z
_cell_length_a	18.050589
_cell_length_b	18.215407
_cell_length_c	18.215399
_cell_angle_alpha	90.019833
_cell_angle_beta	89.976397
_cell_angle_gamma	89.971331
loop_
_atom_site_label
_atom_site_type_symbol
_atom_site_fract_x
_atom_site_fract_y
_atom_site_fract_z
Zn1	Zn	-0.295658	-1.125055	-0.416138
Zn2	Zn	0.204342	-0.625055	0.083862
Zn3	Zn	-0.419853	-1.124956	-0.293081
Zn4	Zn	0.080147	-0.624956	0.206919
Zn5	Zn	-0.295682	-1.001987	-0.293085
Zn6	Zn	0.204318	-0.501987	0.206915
Zn7	Zn	-0.419812	-1.001946	-0.416106
Zn8	Zn	0.080188	-0.501946	0.083894
O9	O	-0.357751	-1.063486	-0.354603
O10	O	0.142249	-0.563486	0.145397
O11	O	-0.312140	-1.228026	-0.399826
O12	O	0.187860	-0.728026	0.100174
O13	O	-0.403409	-1.108620	-0.190097
O14	O	0.096591	-0.608620	0.309903
O15	O	-0.191755	-1.018371	-0.309424
O16	O	0.308245	-0.518371	0.190576
O17	O	-0.403386	-1.227953	-0.309417
O18	O	0.096614	-0.727953	0.190583
O19	O	-0.191737	-1.108788	-0.399830
O20	O	0.308263	-0.608788	0.100170
O21	O	-0.312181	-1.018275	-0.190101
O22	O	0.187819	-0.518275	0.309899
O23	O	-0.312141	-0.898998	-0.309393
O24	O	0.187859	-0.398998	0.190607
O25	O	-0.403315	-1.018301	-0.519095
O26	O	0.096685	-0.518301	-0.019095
O27	O	-0.403339	-0.898967	-0.399775
O28	O	0.096661	-0.398967	0.100225
O29	O	-0.312100	-1.108748	-0.519118
O30	O	0.187900	-0.608748	-0.019118
O31	O	-0.523772	-1.108580	-0.309385
O32	O	-0.023772	-0.608580	0.190615
O33	O	-0.523742	-1.018205	-0.399771
O34	O	-0.023742	-0.518205	0.100229
C35	C	-0.357739	-0.872280	-0.354582
C36	C	0.142261	-0.372280	0.145418
C37	C	-0.357751	-0.790481	-0.354590
C38	C	0.142249	-0.290481	0.145410
C39	C	-0.550704	-1.063397	-0.354590
C40	C	-0.050704	-0.563397	0.145410
C41	C	-0.633249	-1.063427	-0.354610
C42	C	-0.133249	-0.563427	0.145390
C43	C	-0.357700	-1.063531	-0.546556
C44	C	0.142300	-0.563531	-0.046556
C45	C	-0.357678	-1.063550	-0.628355
C46	C	0.142322	-0.563550	-0.128355
C47	C	-0.832710	-1.014329	-0.403744
C48	C	-0.332710	-0.514329	0.096256
C49	C	-0.882151	-0.996389	-0.336590
C50	C	-0.382151	-0.496389	0.163410
C51	C	-0.784380	-1.063499	-0.354619
C52	C	-0.284380	-0.563499	0.145381
C53	C	-0.882021	-1.081475	-0.421781
C54	C	-0.382021	-0.581475	0.078219
C55	C	-0.930365	-1.063567	-0.354635
C56	C	-0.430365	-0.563567	0.145365
C57	C	-0.832733	-1.045524	-0.287430
C58	C	-0.332733	-0.545524	0.212570
C59	C	-0.832599	-1.130641	-0.372666
C60	C	-0.332599	-0.630641	0.127334
C61	C	-0.882017	-1.112726	-0.305466
C62	C	-0.382017	-0.612726	0.194534
C63	C	-0.700281	-1.063458	-0.354612
C64	C	-0.200281	-0.563458	0.145388
C65	C	-1.014461	-1.063609	-0.354635
C66	C	-0.514461	-0.563609	0.145365
C67	C	-0.164046	-1.063595	-0.354631
C68	C	0.335954	-0.563595	0.145369
C69	C	-0.081500	-1.063642	-0.354643
C70	C	0.418500	-0.563642	0.145357
C71	C	-0.357765	-1.255439	-0.354624
C72	C	0.142235	-0.755439	0.145376
C73	C	-0.357770	-1.337238	-0.354634
C74	C	0.142230	-0.837238	0.145366
C75	C	-0.405312	-0.602291	-0.401593
C76	C	0.094688	-0.102291	0.098407
C77	C	-0.405315	-0.525432	-0.401602
C78	C	0.094685	-0.025432	0.098398
C79	C	-0.310204	-0.525434	-0.307628
C80	C	0.189796	-0.025434	0.192372
C81	C	-0.310199	-0.602291	-0.307623
C82	C	0.189801	-0.102291	0.192377
C83	C	-0.357757	-0.640718	-0.354605
C84	C	0.142243	-0.140718	0.145395
C85	C	-0.357765	-0.487001	-0.354619
C86	C	0.142235	0.012999	0.145381
C87	C	-0.357767	-0.403668	-0.354628
C88	C	0.142233	0.096332	0.145372
C89	C	-0.357754	-0.724056	-0.354596
C90	C	0.142246	-0.224056	0.145404
C91	C	-0.310138	-1.110663	-0.816562
C92	C	0.189862	-0.610663	-0.316562
C93	C	-0.310117	-1.110672	-0.893421
C94	C	0.189883	-0.610672	-0.393421
C95	C	-0.405104	-1.016489	-0.893385
C96	C	0.094896	-0.516489	-0.393385
C97	C	-0.405121	-1.016477	-0.816528
C98	C	0.094879	-0.516477	-0.316528
C99	C	-0.357639	-1.063568	-0.778118
C100	C	0.142361	-0.563568	-0.278118
C101	C	-0.357600	-1.063589	-0.931834
C102	C	0.142400	-0.563589	-0.431834
C103	C	-0.357577	-1.063598	-1.015168
C104	C	0.142423	-0.563598	-0.515168
C105	C	-0.357661	-1.063558	-0.694779
C106	C	0.142339	-0.563558	-0.194779
C107	C	-0.357749	-1.063484	-0.163396
C108	C	0.142251	-0.563484	0.336604
C109	C	-0.357561	-1.063607	-0.081598
C110	C	0.142439	-0.563607	0.418402
H111	H	-0.903933	-0.939642	-0.321340
H112	H	-0.403933	-0.439642	0.178660
H113	H	-0.443763	-0.978151	-0.924667
H114	H	0.056237	-0.478151	-0.424667
C115	C	-0.760730	-0.994274	-0.512781
C116	C	-0.260730	-0.494274	-0.012781
C117	C	-0.803477	-0.958120	-0.459750
C118	C	-0.303477	-0.458120	0.040250
H119	H	-0.742687	-0.959571	-0.547355
H120	H	-0.242687	-0.459571	-0.047355
H121	H	-0.720145	-1.018074	-0.489653
H122	H	-0.220145	-0.518074	0.010347
H123	H	-0.790373	-1.029689	-0.537308
H124	H	-0.290373	-0.529689	-0.037308
H125	H	-0.773833	-0.922708	-0.435219
H126	H	-0.273833	-0.422708	0.064781
H127	H	-0.844068	-0.934308	-0.482880
H128	H	-0.344068	-0.434308	0.017120
H129	H	-0.271485	-0.494138	-0.269377
H130	H	0.228515	0.005862	0.230623
C131	C	-0.760518	-0.961253	-0.215696
C132	C	-0.260518	-0.461253	0.284304
C133	C	-0.803636	-1.024941	-0.210740
C134	C	-0.303636	-0.524941	0.289260
H135	H	-0.742559	-0.948543	-0.168352
H136	H	-0.242559	-0.448543	0.331648
H137	H	-0.719875	-0.969809	-0.247716
H138	H	-0.219875	-0.469809	0.252284
H139	H	-0.789884	-0.922210	-0.234371
H140	H	-0.289884	-0.422210	0.265629
H141	H	-0.774268	-1.063985	-0.192071
H142	H	-0.274268	-0.563985	0.307929
H143	H	-0.844284	-1.016388	-0.178709
H144	H	-0.344284	-0.516388	0.321291
H145	H	-0.444038	-0.494148	-0.439866
H146	H	0.055962	0.005852	0.060134
C147	C	-0.886054	-1.149935	-0.179089
C148	C	-0.386054	-0.649935	0.320911
C149	C	-0.911069	-1.168898	-0.249332
C150	C	-0.411069	-0.668898	0.250668
H151	H	-0.903996	-1.184609	-0.144434
H152	H	-0.403996	-0.684609	0.355566
H153	H	-0.833438	-1.149932	-0.178502
H154	H	-0.333438	-0.649932	0.321498
H155	H	-0.903776	-1.102406	-0.166688
H156	H	-0.403776	-0.602406	0.333312
H157	H	-0.893343	-1.216424	-0.261734
H158	H	-0.393343	-0.716424	0.238266
H159	H	-0.963696	-1.168909	-0.249920
H160	H	-0.463696	-0.668909	0.250080
C161	C	-0.829171	-1.258921	-0.342576
C162	C	-0.329171	-0.758921	0.157424
C163	C	-0.803193	-1.207230	-0.393295
C164	C	-0.303193	-0.707230	0.106705
H165	H	-0.811020	-1.306205	-0.355322
H166	H	-0.311020	-0.806205	0.144678
H167	H	-0.812322	-1.246240	-0.294838
H168	H	-0.312322	-0.746240	0.205162
H169	H	-0.881792	-1.259383	-0.343182
H170	H	-0.381792	-0.759383	0.156818
H171	H	-0.750572	-1.206765	-0.392686
H172	H	-0.250572	-0.706765	0.107314
H173	H	-0.820038	-1.219915	-0.441046
H174	H	-0.320038	-0.719915	0.058954
C175	C	-0.216188	-0.594579	-0.214724
C176	C	0.283812	-0.094579	0.285276
C177	C	-0.257924	-0.644536	-0.255967
C178	C	0.242076	-0.144536	0.244033
H179	H	-0.183921	-0.620661	-0.182834
H180	H	0.316079	-0.120661	0.317166
H181	H	-0.187823	-0.564629	-0.246835
H182	H	0.312177	-0.064629	0.253165
H183	H	-0.248519	-0.564575	-0.186523
H184	H	0.251481	-0.064575	0.313477
H185	H	-0.225593	-0.674537	-0.284172
H186	H	0.274407	-0.174537	0.215828
H187	H	-0.286291	-0.674499	-0.223852
H188	H	0.213709	-0.174499	0.276148
H189	H	-0.271474	-1.149006	-0.785291
H190	H	0.228526	-0.649006	-0.285291
C191	C	-0.499021	-0.923386	-0.824206
C192	C	0.000979	-0.423386	-0.324206
C193	C	-0.457342	-0.964710	-0.774264
C194	C	0.042658	-0.464710	-0.274264
H195	H	-0.531260	-0.891432	-0.798113
H196	H	-0.031260	-0.391432	-0.298113
H197	H	-0.466659	-0.895257	-0.854182
H198	H	0.033341	-0.395257	-0.354182
H199	H	-0.527422	-0.955447	-0.854186
H200	H	-0.027422	-0.455447	-0.354186
H201	H	-0.428937	-0.932649	-0.744288
H202	H	0.071063	-0.432649	-0.244288
H203	H	-0.489708	-0.992841	-0.744276
H204	H	0.010292	-0.492841	-0.244276
H205	H	-0.903671	-1.096652	-0.478573
H206	H	-0.403671	-0.596652	0.021427
H207	H	-0.444035	-0.633575	-0.439850
H208	H	0.055965	-0.133575	0.060150
C209	C	-0.216237	-1.203772	-0.885731
C210	C	0.283763	-0.703772	-0.385731
C211	C	-0.257905	-1.162444	-0.935678
C212	C	0.242095	-0.662444	-0.435678
H213	H	-0.184006	-1.235737	-0.911821
H214	H	0.315994	-0.735737	-0.411821
H215	H	-0.187836	-1.171720	-0.855754
H216	H	0.312164	-0.671720	-0.355754
H217	H	-0.248613	-1.231897	-0.855753
H218	H	0.251387	-0.731897	-0.355753
H219	H	-0.225530	-1.134314	-0.965653
H220	H	0.274470	-0.634314	-0.465653
H221	H	-0.286308	-1.194499	-0.965668
H222	H	0.213692	-0.694499	-0.465668
