data_functionalizedCrystal
_audit_creation_method	'MofGen! by Chris Wilmer'
_symmetry_space_group_name_H-M	'P1'
_symmetry_Int_Tables_number	1
_symmetry_cell_setting	triclinic
loop_
_symmetry_equiv_pos_as_xyz
  x,y,z
_cell_length_a	19.188930
_cell_length_b	10.654545
_cell_length_c	9.730223
_cell_angle_alpha	90.003032
_cell_angle_beta	90.008088
_cell_angle_gamma	83.813930
loop_
_atom_site_label
_atom_site_type_symbol
_atom_site_fract_x
_atom_site_fract_y
_atom_site_fract_z
O1	O	0.098045	1.665768	0.114293
O2	O	0.107391	1.300091	0.114301
O3	O	0.001132	1.493482	0.114270
O4	O	0.204305	1.472377	0.114324
O5	O	0.001132	1.493469	-0.114310
O6	O	0.107391	1.300078	-0.114279
O7	O	0.098045	1.665755	-0.114286
Zn8	Zn	0.102718	1.482914	-0.150575
Zn9	Zn	0.102718	1.482932	0.150589
O10	O	0.204305	1.472364	-0.114256
C11	C	0.106706	1.253301	0.000011
C12	C	0.104655	1.113901	0.000013
C13	C	0.103689	1.048409	-0.124587
C14	C	0.101750	0.917431	-0.124587
C15	C	0.101746	0.917446	0.124623
C16	C	0.103679	1.048424	0.124622
C17	C	-0.024884	1.492792	-0.000024
C18	C	-0.102402	1.490741	-0.000036
C19	C	-0.146585	1.604216	-0.000044
C20	C	-0.219421	1.602289	-0.000022
C21	C	-0.248071	1.486879	-0.000019
C22	C	-0.203879	1.373389	-0.000002
C23	C	-0.131044	1.375319	-0.000011
N24	N	-0.356652	1.398658	-0.077807
N25	N	-0.425843	1.396831	-0.077802
C26	C	-0.467518	1.481055	0.000009
N27	N	-0.437390	1.567193	0.077798
N28	N	-0.368193	1.569023	0.077787
C29	C	-0.327048	1.484773	-0.000009
C30	C	-0.590679	1.592448	0.000026
C31	C	-0.663516	1.590516	0.000056
C32	C	-0.647972	1.361613	0.000063
C33	C	-0.575137	1.363548	0.000046
C34	C	-0.546494	1.478970	0.000021
C35	C	0.230320	1.473054	0.000041
C36	C	0.307838	1.475105	0.000062
C37	C	0.098731	1.712545	0.000006
C38	C	0.100782	1.851945	0.000013
N39	N	0.102718	1.482911	-0.356111
C40	C	0.145457	1.558838	-0.428022
C41	C	0.145453	1.558859	-0.571905
C42	C	0.059969	1.407015	-0.571954
C43	C	0.059970	1.407002	-0.428073
N44	N	0.102713	1.482945	0.356126
H45	H	-0.123269	1.698201	-0.000060
N46	N	0.013866	1.325108	-0.350509
H47	H	0.027163	1.233667	-0.375553
H48	H	0.020369	1.336729	-0.248467
N49	N	0.100703	0.846809	0.259008
H50	H	0.144242	0.859184	0.313496
H51	H	0.057806	0.880058	0.313363
N52	N	0.104741	1.119034	-0.258979
H53	H	0.103834	1.057666	-0.337912
H54	H	0.062339	1.183803	-0.264423
H55	H	-0.255402	1.694697	-0.000024
H56	H	0.180254	1.620688	-0.630448
H57	H	-0.699490	1.682926	0.000057
N58	N	0.191550	1.640730	-0.350407
H59	H	0.185068	1.629203	-0.248347
H60	H	0.242201	1.615643	-0.375546
H61	H	0.104464	1.101749	0.226093
H62	H	0.100964	0.864113	-0.226049
H63	H	-0.227211	1.279421	0.000003
N64	N	-0.083384	1.252923	-0.000000
H65	H	-0.112583	1.179516	0.000010
H66	H	-0.052836	1.248733	-0.084744
H67	H	-0.567357	1.686431	0.000012
N68	N	0.013865	1.325143	-0.649570
H69	H	0.020350	1.336669	-0.751630
H70	H	0.027187	1.233736	-0.624430
H71	H	-0.671299	1.267644	0.000072
N72	N	-0.527477	1.241156	0.000047
H73	H	-0.556676	1.167750	0.000052
H74	H	-0.496927	1.236967	-0.084694
