data_functionalizedCrystal
_audit_creation_method	'MofGen! by Chris Wilmer'
_symmetry_space_group_name_H-M	'P1'
_symmetry_Int_Tables_number	1
_symmetry_cell_setting	triclinic
loop_
_symmetry_equiv_pos_as_xyz
  x,y,z
_cell_length_a	17.077404
_cell_length_b	17.077402
_cell_length_c	17.077396
_cell_angle_alpha	90.029784
_cell_angle_beta	90.019501
_cell_angle_gamma	90.023108
loop_
_atom_site_label
_atom_site_type_symbol
_atom_site_fract_x
_atom_site_fract_y
_atom_site_fract_z
Zn1	Zn	1.200055	-0.312503	0.443836
Zn2	Zn	1.700055	0.187497	0.943836
Zn3	Zn	1.199962	-0.443778	0.312567
Zn4	Zn	1.699962	0.056222	0.812567
Zn5	Zn	1.068786	-0.312531	0.312584
Zn6	Zn	1.568786	0.187469	0.812584
Zn7	Zn	1.068754	-0.443732	0.443790
Zn8	Zn	1.568754	0.056268	0.943790
O9	O	1.134389	-0.378136	0.378194
O10	O	1.634389	0.121864	0.878194
O11	O	1.309889	-0.329925	0.426434
O12	O	1.809889	0.170075	0.926434
O13	O	1.182536	-0.426399	0.202722
O14	O	1.682536	0.073601	0.702722
O15	O	1.086252	-0.202680	0.330021
O16	O	1.586252	0.297320	0.830021
O17	O	1.309821	-0.426372	0.329992
O18	O	1.809821	0.073628	0.829992
O19	O	1.182694	-0.202660	0.426451
O20	O	1.682694	0.297340	0.926451
O21	O	1.086162	-0.329972	0.202734
O22	O	1.586162	0.170028	0.702734
O23	O	0.958935	-0.329927	0.329976
O24	O	1.458935	0.170073	0.829976
O25	O	1.086197	-0.426293	0.553643
O26	O	1.586197	0.073707	1.053643
O27	O	0.958912	-0.426320	0.426373
O28	O	1.458912	0.073680	0.926373
O29	O	1.182663	-0.329880	0.553677
O30	O	1.682663	0.170120	1.053677
O31	O	1.182505	-0.553619	0.329948
O32	O	1.682505	-0.053619	0.829948
O33	O	1.086107	-0.553585	0.426357
O34	O	1.586107	-0.053585	0.926357
C35	C	0.930441	-0.378122	0.378172
C36	C	1.430441	0.121878	0.878172
C37	C	0.843192	-0.378135	0.378182
C38	C	1.343192	0.121865	0.878182
C39	C	0.802210	-0.428402	0.428295
C40	C	1.302210	0.071598	0.928295
C41	C	0.720229	-0.428404	0.428308
C42	C	1.220229	0.071596	0.928308
C43	C	0.679232	-0.378141	0.378202
C44	C	1.179232	0.121859	0.878202
C45	C	0.720220	-0.327869	0.328087
C46	C	1.220220	0.172131	0.828087
C47	C	0.802199	-0.327863	0.328079
C48	C	1.302199	0.172137	0.828079
C49	C	0.549350	-0.327884	0.328106
C50	C	1.049350	0.172116	0.828106
C51	C	0.467365	-0.327890	0.328112
C52	C	0.967365	0.172110	0.828112
C53	C	0.467380	-0.428424	0.428335
C54	C	0.967380	0.071576	0.928335
C55	C	0.549359	-0.428419	0.428327
C56	C	1.049359	0.071581	0.928327
C57	C	0.590341	-0.378147	0.378210
C58	C	1.090341	0.121853	0.878210
C59	C	1.134314	-0.582084	0.378163
C60	C	1.634314	-0.082084	0.878163
C61	C	1.134353	-0.669334	0.378176
C62	C	1.634353	-0.169334	0.878176
C63	C	1.184598	-0.710316	0.328029
C64	C	1.684598	-0.210316	0.828029
C65	C	1.184637	-0.792296	0.328049
C66	C	1.684637	-0.292296	0.828049
C67	C	1.134425	-0.833293	0.378212
C68	C	1.634425	-0.333293	0.878212
C69	C	1.084178	-0.792305	0.428364
C70	C	1.584178	-0.292305	0.928364
C71	C	1.084144	-0.710327	0.428348
C72	C	1.584144	-0.210327	0.928348
C73	C	1.084250	-0.963175	0.428394
C74	C	1.584250	-0.463175	0.928394
C75	C	1.084283	-1.045160	0.428410
C76	C	1.584283	-0.545160	0.928410
C77	C	1.184743	-1.045145	0.328096
C78	C	1.684743	-0.545145	0.828096
C79	C	1.184709	-0.963166	0.328079
C80	C	1.684709	-0.463166	0.828079
C81	C	1.134461	-0.922184	0.378230
C82	C	1.634461	-0.422184	0.878230
C83	C	1.339134	-0.378151	0.378216
C84	C	1.839134	0.121849	0.878216
C85	C	1.426383	-0.378157	0.378226
C86	C	1.926383	0.121843	0.878226
C87	C	1.134437	-0.378078	0.582938
C88	C	1.634437	0.121922	1.082938
C89	C	1.134457	-0.378054	0.670188
C90	C	1.634457	0.121946	1.170188
C91	C	1.134487	-0.173392	0.378243
C92	C	1.634487	0.326608	0.878243
C93	C	1.134528	-0.086142	0.378263
C94	C	1.634528	0.413858	0.878263
C95	C	1.134387	-0.378137	0.174246
C96	C	1.634387	0.121863	0.674246
C97	C	1.134519	-0.377941	0.086997
C98	C	1.634519	0.122059	0.586997
C99	C	1.184689	-0.327847	0.711197
C100	C	1.684689	0.172153	1.211197
C101	C	1.184698	-0.327821	0.793178
C102	C	1.684698	0.172179	1.293178
C103	C	1.134479	-0.378006	0.834148
C104	C	1.634479	0.121994	1.334148
C105	C	1.084242	-0.428214	0.793133
C106	C	1.584242	0.071786	1.293133
C107	C	1.084229	-0.428236	0.711154
C108	C	1.584229	0.071764	1.211154
C109	C	1.084274	-0.428167	0.964003
C110	C	1.584274	0.071833	1.464003
C111	C	1.084288	-0.428147	1.045988
C112	C	1.584288	0.071853	1.545988
C113	C	1.184742	-0.327752	1.046027
C114	C	1.684742	0.172248	1.546027
C115	C	1.184730	-0.327774	0.964048
C116	C	1.684730	0.172226	1.464048
C117	C	1.134493	-0.377984	0.923039
C118	C	1.634493	0.122016	1.423039
H119	H	0.582737	-0.469352	0.469122
H120	H	1.082737	0.030648	0.969122
F121	F	1.030771	-0.919561	0.481773
F122	F	1.530771	-0.419561	0.981773
F123	F	1.030792	-0.481622	0.836739
F124	F	1.530792	0.018378	1.336739
F125	F	0.592964	-0.274377	0.274766
F126	F	1.092964	0.225623	0.774766
H127	H	0.434009	-0.469355	0.469144
H128	H	0.934009	0.030645	0.969144
F129	F	0.423735	-0.274398	0.274782
F130	F	0.923735	0.225602	0.774782
H131	H	0.686834	-0.286941	0.287293
H132	H	1.186834	0.213059	0.787293
H133	H	0.835565	-0.286927	0.287275
H134	H	1.335565	0.213073	0.787275
H135	H	1.225483	-0.676941	0.287177
H136	H	1.725483	-0.176941	0.787177
F137	F	1.030743	-0.835940	0.481756
F138	F	1.530743	-0.335940	0.981756
F139	F	1.030668	-0.666711	0.481722
F140	F	1.530668	-0.166711	0.981722
F141	F	1.238182	-0.274366	0.920446
F142	F	1.738182	0.225634	1.420446
H143	H	1.225551	-0.825660	0.287214
H144	H	1.725551	-0.325660	0.787214
F145	F	1.030805	-0.481605	0.920361
F146	F	1.530805	0.018395	1.420361
H147	H	1.225585	-0.286983	0.677845
H148	H	1.725585	0.213017	1.177845
H149	H	1.225591	-0.929786	0.287228
H150	H	1.725591	-0.429786	0.787228
F151	F	1.238188	-0.274412	0.836819
F152	F	1.738188	0.225588	1.336819
F153	F	1.030835	-1.088791	0.481792
F154	F	1.530835	-0.588791	0.981792
F155	F	1.238209	-0.274316	1.089672
F156	F	1.738209	0.225684	1.589672
H157	H	1.043318	-0.469111	0.677766
H158	H	1.543318	0.030889	1.177766
F159	F	0.845835	-0.481903	0.481621
F160	F	1.345835	0.018097	0.981621
F161	F	0.676617	-0.481905	0.481646
F162	F	1.176617	0.018095	0.981646
H163	H	1.225660	-1.078516	0.287263
H164	H	1.725660	-0.578516	0.787263
H165	H	1.043393	-0.469010	1.079344
H166	H	1.543393	0.030990	1.579344
