data_functionalizedCrystal
_audit_creation_method	'MofGen! by Chris Wilmer'
_symmetry_space_group_name_H-M	'P1'
_symmetry_Int_Tables_number	1
_symmetry_cell_setting	triclinic
loop_
_symmetry_equiv_pos_as_xyz
  x,y,z
_cell_length_a	11.792241
_cell_length_b	11.792241
_cell_length_c	16.053802
_cell_angle_alpha	92.583059
_cell_angle_beta	87.405349
_cell_angle_gamma	84.193416
loop_
_atom_site_label
_atom_site_type_symbol
_atom_site_fract_x
_atom_site_fract_y
_atom_site_fract_z
O1	O	1.511662	0.150824	-0.069348
O2	O	1.181322	0.166856	-0.069368
O3	O	1.354508	-0.006330	-0.069352
O4	O	1.338476	0.324010	-0.069364
O5	O	1.344975	0.003163	0.069506
O6	O	1.171790	0.176349	0.069490
O7	O	1.502129	0.160317	0.069510
Zn8	Zn	1.335446	0.169840	0.091547
Zn9	Zn	1.348006	0.157333	-0.091405
O10	O	1.328943	0.333503	0.069494
C11	C	1.134265	0.170595	0.000059
C12	C	1.008252	0.167580	0.000052
C13	C	1.348735	-0.043875	0.000077
C14	C	1.345720	-0.169888	0.000076
C15	C	0.777538	0.162039	0.000076
C16	C	0.905924	0.165118	0.000062
C17	C	1.340178	-0.400602	0.000062
C18	C	1.343258	-0.272216	0.000070
C19	C	1.549187	0.156578	0.000081
C20	C	1.675200	0.159592	0.000083
C21	C	1.334717	0.371047	0.000063
C22	C	1.337732	0.497061	0.000059
N23	N	1.326882	0.178376	0.216406
N24	N	1.356578	0.148788	-0.216264
C25	C	1.400600	0.104711	0.260107
C26	C	1.394621	0.110693	0.347513
C27	C	1.314928	0.190345	0.391217
C28	C	1.241202	0.264012	0.347510
C29	C	1.247177	0.258025	0.260106
C30	C	1.288827	0.216468	0.652624
C31	C	1.282860	0.222453	0.740035
C32	C	1.436278	0.069131	0.740032
C33	C	1.442251	0.063155	0.652626
C34	C	1.368521	0.136818	0.608927
N35	N	1.308816	0.196463	0.480560
N36	N	1.374628	0.130693	0.519585
H37	H	1.454647	0.050709	0.383094
H38	H	1.217961	0.287320	0.775615
O39	O	1.217326	0.288193	0.610224
C40	C	1.153808	0.483283	0.583524
C41	C	1.234867	0.402174	0.631580
H42	H	1.167945	0.575454	0.600786
H43	H	1.171751	0.465432	0.513535
H44	H	1.061651	0.469000	0.600719
H45	H	1.327053	0.416411	0.614456
H46	H	1.216825	0.420045	0.701558
H47	H	1.496305	0.009156	0.775620
H48	H	1.465500	0.039855	0.224529
O49	O	1.163733	0.341236	0.390056
C50	C	1.002094	0.371106	0.488718
C51	C	1.089773	0.283528	0.440604
H52	H	0.942260	0.324483	0.529585
H53	H	1.048580	0.430930	0.529681
H54	H	0.950480	0.422750	0.442454
H55	H	1.141412	0.231805	0.486808
H56	H	1.043218	0.223782	0.399629
O57	O	1.175519	0.329703	0.217781
C58	C	1.022674	0.482363	0.227003
C59	C	1.103782	0.401276	0.275037
H60	H	0.964638	0.540234	0.273274
H61	H	1.074757	0.536672	0.186092
H62	H	0.968527	0.430149	0.186073
H63	H	1.157947	0.453401	0.316013
H64	H	1.051632	0.346964	0.315896
H65	H	1.507143	-0.001704	0.617044
