data_functionalizedCrystal
_audit_creation_method	'MofGen! by Chris Wilmer'
_symmetry_space_group_name_H-M	'P1'
_symmetry_Int_Tables_number	1
_symmetry_cell_setting	triclinic
loop_
_symmetry_equiv_pos_as_xyz
  x,y,z
_cell_length_a	16.992694
_cell_length_b	11.892095
_cell_length_c	16.992695
_cell_angle_alpha	85.845109
_cell_angle_beta	90.668223
_cell_angle_gamma	94.159293
loop_
_atom_site_label
_atom_site_type_symbol
_atom_site_fract_x
_atom_site_fract_y
_atom_site_fract_z
O1	O	1.055561	0.093862	0.162207
O2	O	1.388895	0.427195	0.495540
O3	O	1.722228	0.760529	0.828873
O4	O	0.827163	0.093895	0.160374
O5	O	1.160496	0.427229	0.493707
O6	O	1.493830	0.760562	0.827040
O7	O	0.940446	0.093870	0.047091
O8	O	1.273779	0.427203	0.380424
O9	O	1.607113	0.760536	0.713757
O10	O	0.942278	0.093887	0.275490
O11	O	1.275612	0.427221	0.608823
O12	O	1.608945	0.760554	0.942156
O13	O	0.931000	-0.094136	0.056520
O14	O	1.264333	0.239198	0.389854
O15	O	1.597666	0.572531	0.723187
O16	O	0.817717	-0.094110	0.169803
O17	O	1.151050	0.239223	0.503137
O18	O	1.484383	0.572557	0.836470
O19	O	1.046115	-0.094143	0.171636
O20	O	1.379448	0.239190	0.504970
O21	O	1.712782	0.572523	0.838303
Zn22	Zn	0.930416	-0.123977	0.172217
Zn23	Zn	1.263749	0.209357	0.505550
Zn24	Zn	1.597083	0.542690	0.838884
Zn25	Zn	0.942862	0.123729	0.159793
Zn26	Zn	1.276195	0.457062	0.493126
Zn27	Zn	1.609529	0.790395	0.826460
O28	O	0.932832	-0.094118	0.284920
O29	O	1.266165	0.239215	0.618253
O30	O	1.599499	0.572549	0.951586
C31	C	0.793080	-0.000103	0.162733
C32	C	1.126413	0.333230	0.496066
C33	C	1.459747	0.666563	0.829399
C34	C	0.705596	-0.000091	0.155703
C35	C	1.038929	0.333243	0.489037
C36	C	1.372263	0.666576	0.822370
N37	N	0.921928	-0.293029	0.180696
N38	N	1.255261	0.040305	0.514030
N39	N	1.588594	0.373638	0.847363
C40	C	0.659605	-0.000086	0.223521
C41	C	0.992939	0.333247	0.556854
C42	C	1.326272	0.666580	0.890188
C43	C	0.577404	-0.000102	0.216913
C44	C	0.910737	0.333231	0.550246
C45	C	1.244070	0.666564	0.883580
C46	C	0.541195	-0.000115	0.142486
C47	C	0.874528	0.333218	0.475819
C48	C	1.207861	0.666552	0.809152
C49	C	0.587191	-0.000123	0.074663
C50	C	0.920525	0.333211	0.407997
C51	C	1.253858	0.666544	0.741330
C52	C	0.669391	-0.000115	0.081272
C53	C	1.002724	0.333219	0.414606
C54	C	1.336058	0.666552	0.747939
C55	C	0.295879	-0.000147	0.115093
C56	C	0.629212	0.333186	0.448426
C57	C	0.962545	0.666519	0.781760
C58	C	0.213673	-0.000152	0.108489
C59	C	0.547007	0.333182	0.441822
C60	C	0.880340	0.666515	0.775155
C61	C	0.203891	-0.000134	0.250739
C62	C	0.537224	0.333200	0.584072
C63	C	0.870558	0.666533	0.917406
C64	C	0.286093	-0.000119	0.257341
C65	C	0.619426	0.333214	0.590675
C66	C	0.952760	0.666548	0.924008
C67	C	0.332082	-0.000133	0.189519
C68	C	0.665416	0.333201	0.522852
C69	C	0.998749	0.666534	0.856186
N70	N	0.457172	-0.000128	0.135729
N71	N	0.790505	0.333206	0.469063
N72	N	1.123839	0.666539	0.802396
N73	N	0.416103	-0.000128	0.196277
N74	N	0.749436	0.333205	0.529610
N75	N	1.082770	0.666539	0.862943
C76	C	1.010419	-0.529697	0.092262
C77	C	1.343752	-0.196363	0.425595
C78	C	1.677085	0.136970	0.758928
C79	C	1.004491	-0.648037	0.098195
C80	C	1.337825	-0.314704	0.431528
C81	C	1.671158	0.018630	0.764861
C82	C	0.904143	-0.648053	0.198490
C83	C	1.237476	-0.314719	0.531824
C84	C	1.570809	0.018614	0.865157
C85	C	0.910070	-0.529712	0.192557
C86	C	1.243403	-0.196379	0.525891
C87	C	1.576737	0.136955	0.859224
C88	C	0.963210	-0.470538	0.139442
C89	C	1.296544	-0.137205	0.472776
C90	C	1.629877	0.196128	0.806109
C91	C	0.969141	-0.352195	0.133514
C92	C	1.302474	-0.018862	0.466847
C93	C	1.635808	0.314471	0.800181
C94	C	0.868789	-0.352213	0.233805
C95	C	1.202122	-0.018880	0.567138
C96	C	1.535456	0.314454	0.900472
C97	C	0.862862	-0.470554	0.239738
C98	C	1.196195	-0.137220	0.573071
C99	C	1.529528	0.196113	0.906405
C100	C	1.080198	-0.000142	0.169277
C101	C	1.413532	0.333191	0.502611
C102	C	1.746865	0.666524	0.835944
C103	C	1.167683	-0.000147	0.176306
C104	C	1.501016	0.333186	0.509640
C105	C	1.834349	0.666519	0.842973
C106	C	0.933367	-0.000132	0.022445
C107	C	1.266701	0.333201	0.355779
C108	C	1.600034	0.666534	0.689112
C109	C	0.926339	-0.000131	-0.065039
C110	C	1.259672	0.333202	0.268294
C111	C	1.593005	0.666536	0.601627
N112	N	0.951356	0.292781	0.151308
N113	N	1.284689	0.626114	0.484641
N114	N	1.618023	0.959447	0.817975
C115	C	0.994156	-0.000142	-0.111030
C116	C	1.327489	0.333191	0.222304
C117	C	1.660823	0.666525	0.555637
C118	C	0.987548	-0.000130	-0.193231
C119	C	1.320881	0.333203	0.140102
C120	C	1.654214	0.666536	0.473436
C121	C	0.913121	-0.000116	-0.229440
C122	C	1.246454	0.333218	0.103893
C123	C	1.579787	0.666551	0.437227
C124	C	0.845298	-0.000101	-0.183444
C125	C	1.178632	0.333232	0.149890
C126	C	1.511965	0.666565	0.483223
C127	C	0.851908	-0.000105	-0.101244
C128	C	1.185241	0.333228	0.232089
C129	C	1.518575	0.666562	0.565422
C130	C	0.885727	-0.000096	-0.474755
C131	C	1.219061	0.333237	-0.141422
C132	C	1.552394	0.666570	0.191911
C133	C	0.879123	-0.000096	-0.556961
C134	C	1.212456	0.333237	-0.223627
C135	C	1.545789	0.666571	0.109706
C136	C	1.021373	-0.000123	-0.566742
C137	C	1.354706	0.333210	-0.233409
C138	C	1.688039	0.666544	0.099924
C139	C	1.027975	-0.000133	-0.484541
C140	C	1.361309	0.333200	-0.151207
C141	C	1.694642	0.666533	0.182126
C142	C	0.960153	-0.000113	-0.438552
C143	C	1.293487	0.333220	-0.105219
C144	C	1.626820	0.666554	0.228115
N145	N	0.906364	-0.000107	-0.313463
N146	N	1.239697	0.333226	0.019871
N147	N	1.573031	0.666559	0.353204
N148	N	0.966911	-0.000113	-0.354531
N149	N	1.300244	0.333220	-0.021198
N150	N	1.633578	0.666553	0.312135
C151	C	0.939911	-0.000113	0.309565
C152	C	1.273244	0.333220	0.642898
C153	C	1.606578	0.666553	0.976231
C154	C	0.946940	-0.000107	0.397049
C155	C	1.280273	0.333226	0.730382
C156	C	1.613607	0.666560	1.063716
H157	H	0.689080	-0.000075	0.284127
H158	H	1.022413	0.333258	0.617461
H159	H	1.355747	0.666591	0.950794
H160	H	0.819593	-0.518747	0.282981
H161	H	1.152927	-0.185413	0.616315
H162	H	1.486260	0.147920	0.949648
F163	F	0.344814	-0.000162	0.042909
F164	F	0.678147	0.333172	0.376243
F165	F	1.011480	0.666505	0.709576
F166	F	0.818548	-0.289241	0.284024
F167	F	1.151882	0.044092	0.617358
F168	F	1.485215	0.377426	0.950691
H169	H	0.784699	-0.000082	-0.212932
H170	H	1.118032	0.333251	0.120401
H171	H	1.451365	0.666584	0.453735
H172	H	1.054762	-0.000161	-0.081554
H173	H	1.388095	0.333172	0.251779
H174	H	1.721429	0.666506	0.585112
F175	F	1.059729	-0.000144	-0.242174
F176	F	1.393062	0.333189	0.091159
F177	F	1.726395	0.666522	0.424493
F178	F	0.779727	-0.000090	-0.052298
F179	F	1.113061	0.333244	0.281035
F180	F	1.446394	0.666577	0.614368
F181	F	0.847583	-0.711042	0.255009
F182	F	1.180916	-0.377709	0.588342
F183	F	1.514249	-0.044376	0.921675
F184	F	0.799903	-0.000086	-0.595495
F185	F	1.133237	0.333247	-0.262161
F186	F	1.466570	0.666581	0.071172
F187	F	1.066982	-0.466719	0.035741
F188	F	1.400315	-0.133385	0.369074
F189	F	1.733648	0.199948	0.702407
F190	F	1.093548	-0.000143	-0.615692
F191	F	1.426882	0.333190	-0.282359
F192	F	1.760215	0.666523	0.050974
H193	H	1.042932	-0.696201	0.059775
H194	H	1.376265	-0.362867	0.393108
H195	H	1.709599	-0.029534	0.726441
H196	H	1.088581	-0.000146	-0.455065
H197	H	1.421915	0.333188	-0.121732
H198	H	1.755248	0.666521	0.211601
H199	H	0.539961	-0.000098	0.272137
H200	H	0.873295	0.333236	0.605471
H201	H	1.206628	0.666569	0.938804
H202	H	0.557703	-0.000149	0.014064
H203	H	0.891036	0.333185	0.347397
H204	H	1.224369	0.666518	0.680730
F205	F	0.175138	-0.000185	0.029271
F206	F	0.508472	0.333149	0.362604
F207	F	0.841805	0.666482	0.695937
H208	H	0.315569	-0.000096	0.317947
H209	H	0.648902	0.333238	0.651280
H210	H	0.982236	0.666571	0.984614
F211	F	0.813544	-0.000072	-0.425821
F212	F	1.146877	0.333262	-0.092488
F213	F	1.480211	0.666595	0.240845
H214	H	0.166438	-0.000125	0.305956
H215	H	0.499771	0.333208	0.639289
H216	H	0.833105	0.666542	0.972623
H217	H	1.012413	-0.304017	0.090267
H218	H	1.345746	0.029316	0.423600
H219	H	1.679079	0.362650	0.756934
F220	F	0.718337	-0.000123	0.009091
F221	F	1.051671	0.333210	0.342425
F222	F	1.385004	0.666543	0.675758
