data_functionalizedCrystal
_audit_creation_method	'MofGen! by Chris Wilmer'
_symmetry_space_group_name_H-M	'P1'
_symmetry_Int_Tables_number	1
_symmetry_cell_setting	triclinic
loop_
_symmetry_equiv_pos_as_xyz
  x,y,z
_cell_length_a	16.992701
_cell_length_b	14.853569
_cell_length_c	15.455313
_cell_angle_alpha	92.667679
_cell_angle_beta	87.136501
_cell_angle_gamma	87.151367
loop_
_atom_site_label
_atom_site_type_symbol
_atom_site_fract_x
_atom_site_fract_y
_atom_site_fract_z
O1	O	1.044034	0.187471	-0.072141
O2	O	0.815746	0.185376	-0.072141
O3	O	0.935987	0.055624	-0.072133
O4	O	0.923793	0.317222	-0.072149
O5	O	0.929111	0.063011	0.072129
O6	O	0.808870	0.192763	0.072120
O7	O	1.037158	0.194858	0.072121
Cu8	Cu	0.922386	0.194485	0.085293
Cu9	Cu	0.930518	0.185749	-0.085313
O10	O	0.916917	0.324609	0.072112
C11	C	0.783093	0.186371	-0.000010
C12	C	0.696040	0.178322	-0.000010
C13	C	0.207021	0.124236	-0.000010
C14	C	0.288815	0.131807	-0.000005
C15	C	0.320452	0.217053	-0.000015
C16	C	0.270290	0.294733	-0.000020
C17	C	0.188496	0.287162	-0.000018
C18	C	0.564084	0.248431	-0.000014
C19	C	0.645883	0.255996	-0.000018
C20	C	0.664404	0.093069	-0.000002
C21	C	0.582608	0.085506	-0.000006
C22	C	0.532452	0.163186	-0.000006
N23	N	0.404059	0.224793	-0.000012
N24	N	0.448847	0.155446	-0.000002
C25	C	0.931996	0.025690	-0.000002
C26	C	0.930340	-0.074510	-0.000001
C27	C	0.858137	-0.115984	0.000001
C28	C	1.000987	-0.127189	-0.000009
C29	C	0.999433	-0.221333	-0.000012
C30	C	0.927230	-0.262807	-0.000011
C31	C	0.856581	-0.210137	-0.000006
C32	C	1.070082	-0.274011	-0.000026
C33	C	1.068531	-0.368161	-0.000031
C34	C	0.996326	-0.409636	-0.000023
C35	C	0.925674	-0.356960	-0.000017
C36	C	0.853471	-0.398434	-0.000016
C37	C	0.782818	-0.345759	-0.000003
C38	C	0.784376	-0.251612	0.000002
C39	C	0.994768	-0.503783	-0.000029
C40	C	0.851915	-0.492586	-0.000022
C41	C	1.069811	0.193862	-0.000012
C42	C	1.156865	0.201911	-0.000018
C43	C	0.920908	0.354543	-0.000021
C44	C	0.922565	0.454743	-0.000027
N45	N	0.916673	0.200629	0.205288
N46	N	0.936238	0.179597	-0.205308
C47	C	0.967773	0.145529	0.250686
C48	C	0.963459	0.150185	0.341493
C49	C	0.908048	0.209946	0.386901
C50	C	0.856943	0.265048	0.341497
C51	C	0.861253	0.260387	0.250691
C52	C	0.889442	0.230039	0.658482
C53	C	0.885137	0.234697	0.749294
C54	C	0.991653	0.119833	0.749283
C55	C	0.995962	0.115181	0.658476
C56	C	0.944854	0.170280	0.613080
N57	N	0.903639	0.214708	0.479721
N58	N	0.949260	0.165512	0.520261
H59	H	0.671638	0.325418	-0.000013
H60	H	0.523256	0.311685	-0.000019
C61	C	0.305093	0.388505	-0.000027
N62	N	0.331306	0.459136	-0.000036
C63	C	0.833323	0.290774	0.608558
N64	N	0.791087	0.336568	0.570952
C65	C	1.028729	0.079787	0.200745
N66	N	1.074641	0.030264	0.163132
H67	H	0.147659	0.350414	-0.000022
C68	C	0.772485	-0.538199	-0.000020
N69	N	0.712657	-0.572555	-0.000020
C70	C	0.703397	-0.391392	0.000001
N71	N	0.643578	-0.425767	0.000008
H72	H	0.726855	-0.208716	0.000010
H73	H	0.800612	-0.073092	0.000014
H74	H	0.705249	0.029827	-0.000000
C75	C	1.056914	0.049435	0.608533
N76	N	1.102825	-0.000086	0.570917
H77	H	1.059771	-0.093415	0.000007
H78	H	1.126061	-0.411041	-0.000039
C79	C	1.047862	0.059221	0.799226
N80	N	1.090199	0.013562	0.836844
C81	C	0.824176	0.300439	0.799241
N82	N	0.778263	0.349953	0.836861
H83	H	0.819641	0.305254	0.213729
H84	H	1.052293	-0.546667	-0.000047
H85	H	0.181269	0.054820	-0.000008
C86	C	0.343984	0.046358	0.000003
N87	N	0.385538	-0.018006	0.000009
H88	H	0.811822	0.313703	0.378474
H89	H	1.128863	-0.240233	0.000026
C90	C	1.019655	0.089547	0.391427
N91	N	1.061977	0.043863	0.429036
H92	H	0.556856	0.016090	0.000002
