data_functionalizedCrystal
_audit_creation_method	'MofGen! by Chris Wilmer'
_symmetry_space_group_name_H-M	'P1'
_symmetry_Int_Tables_number	1
_symmetry_cell_setting	triclinic
loop_
_symmetry_equiv_pos_as_xyz
  x,y,z
_cell_length_a	21.606444
_cell_length_b	14.560438
_cell_length_c	14.560438
_cell_angle_alpha	60.007151
_cell_angle_beta	60.000494
_cell_angle_gamma	89.999107
loop_
_atom_site_label
_atom_site_type_symbol
_atom_site_fract_x
_atom_site_fract_y
_atom_site_fract_z
Zr1	Zr	0.596249	-0.120409	1.005227
O2	O	0.497433	-0.267021	1.196803
O3	O	0.626538	-0.075483	0.813645
O4	O	0.626544	-0.267056	1.005227
O5	O	0.497425	0.075690	1.005224
O6	O	0.728394	-0.267062	1.005233
O7	O	0.497426	-0.075448	1.005222
O8	O	0.728383	0.075627	0.662529
O9	O	0.497437	-0.266999	1.347929
O10	O	0.715469	-0.056304	0.892453
O11	O	0.639459	0.056493	0.892450
O12	O	0.639467	-0.169060	1.118013
O13	O	0.563457	-0.056263	1.118010
Zr14	Zr	0.758686	0.120631	1.005242
Zr15	Zr	0.758688	-0.120417	1.005238
Zr16	Zr	0.596247	0.120639	1.005232
Zr17	Zr	0.596255	-0.120373	1.246255
Zr18	Zr	0.758680	0.120595	0.764214
O19	O	0.728397	0.075705	1.196824
O20	O	0.728399	-0.267034	1.196818
O21	O	0.497430	0.075718	1.196809
O22	O	0.857503	0.267243	0.813666
O23	O	0.857505	-0.075496	0.813660
O24	O	0.626536	0.267256	0.813651
O25	O	0.857510	-0.075468	1.005245
O26	O	0.728391	0.267278	1.005242
O27	O	0.626541	0.267284	1.005236
O28	O	0.857509	0.075670	1.005247
O29	O	0.626554	-0.267006	1.347937
O30	O	0.728381	0.267228	0.662532
O31	O	0.857498	0.267221	0.662540
O32	O	0.857500	0.075620	0.662537
O33	O	0.497435	-0.075398	1.347932
O34	O	0.626552	-0.075405	1.347940
O35	O	0.715468	0.169282	0.892457
O36	O	0.791478	0.056485	0.892460
O37	O	0.715476	-0.056271	1.118019
O38	O	0.639466	0.056526	1.118016
C39	C	0.474282	0.000122	1.005222
C40	C	0.405322	0.000126	1.005217
C41	C	0.677459	0.000067	0.703746
C42	C	0.677457	0.000052	0.601423
C43	C	0.677466	0.301625	1.005240
C44	C	0.677465	0.403957	1.005242
C45	C	0.412595	0.058979	0.887478
C46	C	0.347798	0.058980	0.887482
C47	C	0.275728	0.000120	1.005226
C48	C	0.268457	-0.058735	1.122974
C49	C	0.333253	-0.058728	1.122969
C50	C	0.007138	-0.058760	1.122996
C51	C	-0.057660	-0.058764	1.122992
C52	C	0.021683	0.058949	0.887510
C53	C	0.086480	0.058955	0.887505
C54	C	0.079203	0.000105	1.005252
C55	C	0.149464	0.000106	1.005246
C56	C	0.205468	0.000112	1.005233
C57	C	0.880653	0.000100	1.005248
C58	C	0.949613	0.000096	1.005252
C59	C	0.677469	-0.301403	1.005230
C60	C	0.677470	-0.403735	1.005228
C61	C	0.637796	0.393178	1.122979
C62	C	0.637796	0.489333	1.122973
C63	C	0.717140	0.607042	0.887481
C64	C	0.717135	0.510888	0.887489
C65	C	0.591990	0.325220	1.258939
C66	C	0.591990	0.421375	1.258933
C67	C	0.621352	-0.083166	0.636545
C68	C	0.621364	-0.083109	0.540356
C69	C	0.733589	0.083392	0.373925
C70	C	0.733579	0.083330	0.470113
C71	C	0.556558	-0.179291	0.732632
C72	C	0.556570	-0.179235	0.636443
C73	C	0.677476	0.000155	1.306723
C74	C	0.677478	0.000170	1.409046
C75	C	0.880645	0.000056	0.703759
C76	C	0.949602	0.000037	0.601441
C77	C	0.677457	0.301581	0.703751
C78	C	0.677454	0.403897	0.601430
C79	C	0.880643	0.301570	0.703764
C80	C	0.949599	0.403883	0.601448
C81	C	0.474292	-0.301348	1.306705
C82	C	0.405336	-0.403661	1.409022
C83	C	0.474290	0.000166	1.306711
C84	C	0.405333	0.000185	1.409029
C85	C	0.677478	-0.301359	1.306718
C86	C	0.677481	-0.403675	1.409039
C87	C	0.942309	-0.058856	0.553387
C88	C	1.007095	-0.058896	0.457262
C89	C	1.079173	-0.000036	0.409185
C90	C	1.086464	0.058859	0.457248
C91	C	1.021679	0.058892	0.553378
C92	C	1.021665	0.393051	0.553400
C93	C	1.086463	0.489175	0.457277
C94	C	1.079193	0.596130	0.409195
C95	C	1.007120	0.606960	0.457252
C96	C	0.942324	0.510837	0.553381
C97	C	0.333270	-0.392829	1.457081
C98	C	0.268472	-0.488953	1.553234
C99	C	0.275742	-0.595908	1.601321
C100	C	0.347815	-0.606738	1.553258
C101	C	0.412611	-0.510615	1.457112
C102	C	0.412626	0.059068	1.457092
C103	C	0.347840	0.059082	1.553244
C104	C	0.275762	0.000218	1.601324
C105	C	0.268471	-0.058673	1.553257
C106	C	0.333256	-0.058692	1.457113
C107	C	0.717129	0.510840	0.553358
C108	C	0.717120	0.606973	0.457222
C109	C	0.637759	0.489207	0.457234
C110	C	0.637765	0.393076	0.553375
C111	C	0.762950	0.578833	0.553347
C112	C	0.762941	0.674966	0.457210
H113	H	0.471275	0.106914	0.791597
H114	H	1.027628	0.106857	0.592491
Br115	Br	1.184291	0.138740	0.391983
H116	H	0.327307	-0.106639	1.417983
H117	H	0.737470	0.578865	0.643349
H118	H	0.749437	0.694115	0.791611
Br119	Br	0.510413	-0.525335	1.391895
Br120	Br	0.170668	-0.474229	1.618440
Br121	Br	0.184288	0.138831	0.727704
H122	H	0.209776	-0.106598	1.592419
Br123	Br	-0.155473	-0.138651	1.282799
Br124	Br	1.031552	0.247910	0.618639
H125	H	0.531322	0.273036	1.311144
H126	H	0.327336	-0.305750	1.417934
Br127	Br	0.031557	0.138821	0.727706
H128	H	0.001203	-0.106699	1.218873
H129	H	0.622223	0.274308	1.301122
H130	H	0.533326	0.430104	1.301135
H131	H	0.617481	0.421376	1.311132
H132	H	0.883647	0.519672	0.592488
H133	H	0.505026	-0.162493	0.792302
Br134	Br	1.167089	-0.000092	0.278720
Br135	Br	0.860718	0.564258	0.493143
Br136	Br	0.575436	-0.306663	0.636375
H137	H	1.001143	-0.106856	0.418141
Br138	Br	0.583901	0.247938	0.618639
H139	H	0.883625	-0.106801	0.592531
Br140	Br	0.583895	0.474530	0.392015
H141	H	0.732715	0.725895	0.493337
H142	H	0.471310	0.107010	1.417952
H143	H	0.209771	-0.106653	1.218843
H144	H	0.749430	0.519673	0.791615
Br145	Br	1.167139	0.726574	0.278733
H146	H	0.222975	-0.674169	1.679608
H147	H	1.145142	0.480338	0.418158
Br148	Br	0.464348	-0.165382	0.654451
H149	H	0.562135	-0.261422	0.795606
H150	H	1.001212	0.694055	0.418090
H151	H	0.327326	-0.106639	1.218844
Br152	Br	0.809733	0.196259	0.422442
Br153	Br	0.357668	-0.751900	1.618529
Br154	Br	0.357753	0.139013	1.618454
Br155	Br	0.187846	0.000256	1.731807
Br156	Br	0.864051	0.761971	0.307203
H157	H	0.353727	0.106906	0.791607
H158	H	0.779282	0.151194	0.267003
