data_functionalizedCrystal
_audit_creation_method	'MofGen! by Chris Wilmer'
_symmetry_space_group_name_H-M	'P1'
_symmetry_Int_Tables_number	1
_symmetry_cell_setting	triclinic
loop_
_symmetry_equiv_pos_as_xyz
  x,y,z
_cell_length_a	10.654550
_cell_length_b	11.792241
_cell_length_c	9.730223
_cell_angle_alpha	89.995449
_cell_angle_beta	89.999957
_cell_angle_gamma	84.339173
loop_
_atom_site_label
_atom_site_type_symbol
_atom_site_fract_x
_atom_site_fract_y
_atom_site_fract_z
O1	O	1.667388	0.159420	-0.114188
O2	O	1.301867	0.174608	-0.114213
O3	O	1.493498	0.001864	-0.114190
O4	O	1.475757	0.332164	-0.114211
O5	O	1.493485	0.001859	0.114390
O6	O	1.301854	0.174603	0.114367
O7	O	1.667376	0.159415	0.114392
Zn8	Zn	1.484613	0.167008	0.150671
Zn9	Zn	1.484629	0.167015	-0.150493
O10	O	1.475745	0.332159	0.114369
C11	C	1.255066	0.173491	0.000074
C12	C	1.115632	0.170154	0.000064
C13	C	1.035859	0.271863	0.000062
C14	C	0.904847	0.268721	0.000086
C15	C	0.933394	0.062152	0.000109
C16	C	1.064403	0.065295	0.000095
C17	C	1.492377	-0.040432	0.000099
C18	C	1.489042	-0.166453	0.000098
C19	C	1.482908	-0.397180	0.000074
C20	C	1.486316	-0.268787	0.000087
C21	C	1.714177	0.160533	0.000102
C22	C	1.853611	0.163869	0.000103
C23	C	1.476865	0.374455	0.000077
C24	C	1.480201	0.500477	0.000069
N25	N	1.484611	0.167003	0.356208
N26	N	1.484641	0.167011	-0.356029
C27	C	1.569494	0.090545	0.428144
C28	C	1.569507	0.090545	0.572027
C29	C	1.399749	0.243473	0.572025
C30	C	1.399731	0.243466	0.428145
H31	H	0.891668	-0.023220	0.000142
H32	H	0.839900	0.351543	0.000087
H33	H	1.129359	-0.017534	0.000101
O34	O	1.317397	0.317903	0.358321
C35	C	1.245079	0.514643	0.314327
C36	C	1.338410	0.430479	0.393462
H37	H	1.262017	0.605678	0.342732
H38	H	1.259642	0.501600	0.199119
H39	H	1.144409	0.498947	0.342619
H40	H	1.439117	0.446123	0.365286
H41	H	1.323737	0.443541	0.508651
O42	O	1.317133	0.317634	0.641849
C43	C	1.099222	0.382345	0.685840
C44	C	1.192645	0.298274	0.606706
H45	H	0.998554	0.366738	0.657434
H46	H	1.113709	0.369216	0.801048
H47	H	1.116255	0.473385	0.657549
H48	H	1.175669	0.207200	0.634881
H49	H	1.178136	0.311501	0.491517
O50	O	1.085415	0.373815	0.000105
C51	C	1.043266	0.578371	0.000012
C52	C	0.986982	0.462986	-0.000010
H53	H	0.963710	0.650496	-0.000110
H54	H	1.103852	0.585084	0.095687
H55	H	1.103921	0.584949	-0.095634
H56	H	0.926270	0.456331	0.095571
H57	H	0.926469	0.456324	-0.095748
O58	O	1.651809	0.016085	0.358356
C59	C	1.724074	-0.180685	0.314526
C60	C	1.630764	-0.096467	0.393595
H61	H	1.707111	-0.271701	0.343009
H62	H	1.709514	-0.167691	0.199307
H63	H	1.824751	-0.165000	0.342797
H64	H	1.530051	-0.112101	0.365439
H65	H	1.645435	-0.109480	0.508794
H66	H	1.638625	0.028285	0.630593
