data_functionalizedCrystal
_audit_creation_method	'MofGen! by Chris Wilmer'
_symmetry_space_group_name_H-M	'P1'
_symmetry_Int_Tables_number	1
_symmetry_cell_setting	triclinic
loop_
_symmetry_equiv_pos_as_xyz
  x,y,z
_cell_length_a	23.532407
_cell_length_b	23.532407
_cell_length_c	9.565339
_cell_angle_alpha	89.995586
_cell_angle_beta	90.001814
_cell_angle_gamma	82.848678
loop_
_atom_site_label
_atom_site_type_symbol
_atom_site_fract_x
_atom_site_fract_y
_atom_site_fract_z
O1	O	0.755259	0.069131	-0.116100
O2	O	0.589396	0.079134	-0.116143
O3	O	0.677329	-0.008799	-0.116094
O4	O	0.667326	0.157064	-0.116148
O5	O	0.677322	-0.008794	0.116426
O6	O	0.589389	0.079139	0.116377
O7	O	0.755252	0.069136	0.116421
Zn8	Zn	0.672319	0.074139	0.153317
Zn9	Zn	0.672329	0.074131	-0.153039
O10	O	0.667319	0.157070	0.116372
C11	C	0.568176	0.078882	0.000112
C12	C	0.504959	0.078116	0.000097
C13	C	0.105856	0.125350	0.000145
C14	C	0.046456	0.124638	0.000154
O15	O	0.009711	0.168424	0.000190
N16	N	0.023830	0.072362	0.000168
C17	C	0.060607	0.020794	0.000188
O18	O	0.035908	-0.023737	0.000203
C19	C	0.120006	0.021506	0.000190
C20	C	0.142629	0.073785	0.000161
C21	C	0.128479	0.177625	0.000118
C22	C	0.187876	0.178336	0.000106
C23	C	0.224649	0.126772	0.000122
C24	C	0.202025	0.074497	0.000149
C25	C	0.156783	-0.030062	0.000220
C26	C	0.216185	-0.029345	0.000222
C27	C	0.238808	0.022934	0.000193
C28	C	0.298194	0.023643	0.000154
N29	N	0.320820	0.075920	0.000139
C30	C	0.284048	0.127484	0.000123
C31	C	-0.064135	0.019302	0.000188
C32	C	-0.123533	0.018589	0.000177
C33	C	-0.137680	0.122434	0.000145
C34	C	-0.078281	0.123146	0.000146
C35	C	-0.041509	0.071578	0.000174
C36	C	0.408784	0.128974	0.000098
C37	C	0.468186	0.129680	0.000081
C38	C	0.482329	0.025836	0.000121
C39	C	0.422932	0.025129	0.000130
C40	C	0.386160	0.076702	0.000124
O41	O	0.334974	-0.020119	0.000123
O42	O	0.308755	0.172007	0.000127
C43	C	0.677071	-0.030013	0.000169
C44	C	0.676305	-0.093230	0.000180
C45	C	0.723539	-0.492333	0.000116
C46	C	0.722827	-0.551733	0.000105
O47	O	0.766613	-0.588478	0.000065
N48	N	0.670551	-0.574359	0.000092
C49	C	0.618983	-0.537582	0.000076
O50	O	0.574452	-0.562281	0.000063
C51	C	0.619695	-0.478182	0.000077
C52	C	0.671974	-0.455560	0.000104
C53	C	0.775814	-0.469710	0.000141
C54	C	0.776525	-0.410313	0.000154
C55	C	0.724961	-0.373540	0.000142
C56	C	0.672685	-0.396164	0.000117
C57	C	0.568127	-0.441406	0.000051
C58	C	0.568844	-0.382004	0.000051
C59	C	0.621123	-0.359381	0.000078
C60	C	0.621832	-0.299995	0.000119
N61	N	0.674109	-0.277368	0.000131
C62	C	0.725673	-0.314141	0.000143
C63	C	0.617491	-0.662324	0.000072
C64	C	0.616778	-0.721722	0.000081
C65	C	0.720623	-0.735869	0.000107
C66	C	0.721335	-0.676470	0.000108
C67	C	0.669767	-0.639698	0.000085
C68	C	0.727163	-0.189405	0.000173
C69	C	0.727869	-0.130003	0.000192
C70	C	0.624025	-0.115860	0.000158
C71	C	0.623318	-0.175257	0.000147
C72	C	0.674891	-0.212029	0.000149
O73	O	0.578070	-0.263215	0.000153
O74	O	0.770196	-0.289433	0.000138
C75	C	0.776472	0.069388	0.000163
C76	C	0.839689	0.070154	0.000169
C77	C	0.667577	0.178283	0.000105
C78	C	0.668343	0.241500	0.000086
N79	N	0.672317	0.074143	0.362396
N80	N	0.672335	0.074122	-0.362118
C81	C	0.631639	0.114796	0.453577
C82	C	0.683041	0.125556	0.546765
C83	C	0.620937	0.063388	0.546763
C84	C	0.723745	0.084929	0.453532
C85	C	0.661608	0.022738	0.453523
C86	C	0.713047	0.033476	0.546669
H87	H	0.378851	0.170970	0.000098
C88	C	0.777345	-0.776325	0.000110
H89	H	0.808585	-0.754348	0.000130
H90	H	0.779224	-0.799787	-0.080977
H91	H	0.779221	-0.799793	0.081203
H92	H	0.512280	-0.016146	0.000128
C93	C	0.695292	0.184267	0.602115
H94	H	0.666349	0.213118	0.570253
H95	H	0.731518	0.192183	0.568828
H96	H	0.695552	0.183722	0.701422
H97	H	0.767213	0.094069	0.412752
C98	C	0.510620	-0.466281	0.000005
H99	H	0.517572	-0.506924	0.000010
H100	H	0.489413	-0.453630	-0.081092
H101	H	0.489398	-0.453640	0.081088
H102	H	0.575496	-0.632386	0.000065
H103	H	0.770443	-0.111587	0.000217
C104	C	-0.148412	-0.038918	0.000195
H105	H	-0.117999	-0.069523	0.000213
H106	H	-0.171293	-0.041360	-0.080883
H107	H	-0.171284	-0.041354	0.081297
H108	H	0.246123	-0.071339	0.000245
C109	C	0.649335	-0.035956	0.398132
H110	H	0.680832	-0.052515	0.343489
H111	H	0.615755	-0.031140	0.342088
H112	H	0.643853	-0.060427	0.474657
H113	H	0.577479	0.054300	0.587719
H114	H	0.404512	-0.017441	0.000133
H115	H	0.817806	-0.499645	0.000145
C116	C	0.493068	0.187190	0.000057
H117	H	0.462657	0.217797	0.000065
H118	H	0.515943	0.189628	-0.081031
H119	H	0.515947	0.189628	0.081149
C120	C	0.783892	-0.229845	0.000187
H121	H	0.815123	-0.207856	0.000217
H122	H	0.785784	-0.253308	-0.080898
H123	H	0.785771	-0.253312	0.081282
C124	C	0.212756	0.235843	0.000085
H125	H	0.253399	0.228889	0.000074
H126	H	0.200112	0.257060	0.081163
H127	H	0.200109	0.257055	-0.081017
H128	H	0.747493	-0.000914	0.587286
H129	H	0.819097	-0.391900	0.000170
H130	H	0.763906	-0.658056	0.000129
H131	H	0.580748	-0.193677	0.000164
C132	C	0.559271	-0.746601	0.000063
H133	H	0.528666	-0.716188	0.000048
H134	H	0.556828	-0.769484	0.081140
H135	H	0.556836	-0.769471	-0.081040
H136	H	0.526850	-0.352066	0.000030
H137	H	0.582043	-0.085909	0.000154
H138	H	-0.034198	-0.022693	0.000198
C139	C	0.585210	0.161275	0.398339
H140	H	0.558406	0.143896	0.343695
H141	H	0.602548	0.187669	0.342326
H142	H	0.566027	0.180929	0.474929
C143	C	0.088035	0.234349	0.000091
H144	H	0.049416	0.226448	0.000100
H145	H	0.094869	0.255792	-0.081005
H146	H	0.094866	0.255802	0.081175
C147	C	-0.178138	0.179155	0.000140
H148	H	-0.216753	0.171239	0.000158
H149	H	-0.171317	0.200607	-0.080949
H150	H	-0.171311	0.200605	0.081231
C151	C	-0.053402	0.180653	0.000127
H152	H	-0.083814	0.211258	0.000124
H153	H	-0.030523	0.183091	-0.080955
H154	H	-0.030527	0.183093	0.081225
H155	H	0.138375	-0.072634	0.000244
