data_functionalizedCrystal
_audit_creation_method	'MofGen! by Chris Wilmer'
_symmetry_space_group_name_H-M	'P1'
_symmetry_Int_Tables_number	1
_symmetry_cell_setting	triclinic
loop_
_symmetry_equiv_pos_as_xyz
  x,y,z
_cell_length_a	13.262402
_cell_length_b	26.809956
_cell_length_c	13.339070
_cell_angle_alpha	89.991729
_cell_angle_beta	99.431904
_cell_angle_gamma	74.090536
loop_
_atom_site_label
_atom_site_type_symbol
_atom_site_fract_x
_atom_site_fract_y
_atom_site_fract_z
O1	O	1.432365	-0.152858	0.136509
O2	O	1.932365	0.347142	0.636509
O3	O	1.131110	-0.111985	0.151323
O4	O	1.631110	0.388015	0.651323
O5	O	1.247164	-0.127732	-0.003496
O6	O	1.747164	0.372268	0.496504
O7	O	1.316312	-0.137111	0.291327
O8	O	1.816312	0.362889	0.791327
O9	O	1.247140	-0.210688	-0.003472
O10	O	1.747140	0.289312	0.496528
O11	O	1.131087	-0.194941	0.151346
O12	O	1.631087	0.305059	0.651346
O13	O	1.432342	-0.235814	0.136533
O14	O	1.932342	0.264186	0.636533
Zn15	Zn	1.281711	-0.228548	0.143943
Zn16	Zn	1.781711	0.271452	0.643943
Zn17	Zn	1.281742	-0.119250	0.143912
Zn18	Zn	1.781742	0.380750	0.643912
O19	O	1.316289	-0.220067	0.291351
O20	O	1.816289	0.279933	0.791351
C21	C	1.091754	-0.148124	0.150500
C22	C	1.591754	0.351876	0.650500
C23	C	0.974514	-0.132218	0.148003
C24	C	1.474514	0.367782	0.648003
C25	C	0.919447	-0.079524	0.146816
C26	C	1.419447	0.420476	0.646816
C27	C	0.809296	-0.064580	0.144479
C28	C	1.309296	0.435420	0.644479
C29	C	0.754201	-0.102328	0.143322
C30	C	1.254201	0.397672	0.643322
C31	C	0.809268	-0.155022	0.144502
C32	C	1.309268	0.344978	0.644502
C33	C	0.919430	-0.169968	0.146847
C34	C	1.419430	0.330032	0.646847
C35	C	0.754185	-0.192772	0.143353
C36	C	1.254185	0.307228	0.643353
C37	C	0.809251	-0.245467	0.144533
C38	C	1.309251	0.254533	0.644533
C39	C	0.919403	-0.260410	0.146877
C40	C	1.419403	0.239590	0.646877
C41	C	0.974498	-0.222662	0.148034
C42	C	1.474498	0.277338	0.648034
C43	C	0.644022	-0.177826	0.141008
C44	C	1.144022	0.322174	0.641008
C45	C	0.644005	-0.268271	0.141040
C46	C	1.144005	0.231729	0.641040
C47	C	0.754156	-0.283215	0.143376
C48	C	1.254156	0.216785	0.643376
N49	N	1.281697	-0.303143	0.143964
N50	N	1.781697	0.196857	0.643964
C51	C	1.333126	-0.654747	0.075376
C52	C	1.833126	-0.154747	0.575376
C53	C	1.333146	-0.863627	0.075360
C54	C	1.833146	-0.363627	0.575360
O55	O	1.376832	-0.896559	0.017050
O56	O	1.876832	-0.396559	0.517050
N57	N	1.281741	-0.882776	0.143890
N58	N	1.781741	-0.382776	0.643890
C59	C	1.230321	-0.849699	0.212424
C60	C	1.730321	-0.349699	0.712424
O61	O	1.186589	-0.870777	0.270705
O62	O	1.686589	-0.370777	0.770705
C63	C	1.230295	-0.640819	0.212433
C64	C	1.730295	-0.140819	0.712433
C65	C	1.281712	-0.621675	0.143906
C66	C	1.781712	-0.121675	0.643906
C67	C	1.384538	-0.635603	0.006853
C68	C	1.884538	-0.135603	0.506853
C69	C	1.384538	-0.583386	0.006861
C70	C	1.884538	-0.083386	0.506861
C71	C	1.333124	-0.550314	0.075392
C72	C	1.833124	-0.050314	0.575392
C73	C	1.281712	-0.569459	0.143914
C74	C	1.781712	-0.069459	0.643914
C75	C	1.178869	-0.607743	0.280961
C76	C	1.678869	-0.107743	0.780961
C77	C	1.178864	-0.555519	0.280956
C78	C	1.678864	-0.055519	0.780956
C79	C	1.230282	-0.536376	0.212429
C80	C	1.730282	-0.036376	0.712429
C81	C	1.230298	-0.484170	0.212453
C82	C	1.730298	0.015830	0.712453
N83	N	1.281703	-0.465022	0.143923
N84	N	1.781703	0.034978	0.643923
C85	C	1.333116	-0.498094	0.075393
C86	C	1.833116	0.001906	0.575393
C87	C	1.230340	-0.959365	0.212415
C88	C	1.730340	-0.459365	0.712415
C89	C	1.230348	-1.011585	0.212414
C90	C	1.730348	-0.511585	0.712414
C91	C	1.333172	-1.025510	0.075349
C92	C	1.833172	-0.525510	0.575349
C93	C	1.333170	-0.973289	0.075356
C94	C	1.833170	-0.473289	0.575356
C95	C	1.281745	-0.940217	0.143885
C96	C	1.781745	-0.440217	0.643885
C97	C	1.333112	-0.388436	0.075416
C98	C	1.833112	0.111564	0.575416
C99	C	1.333110	-0.336214	0.075433
C100	C	1.833110	0.163786	0.575433
C101	C	1.230282	-0.322294	0.212494
C102	C	1.730282	0.177706	0.712494
C103	C	1.230288	-0.374511	0.212481
C104	C	1.730288	0.125489	0.712481
C105	C	1.281704	-0.407581	0.143933
C106	C	1.781704	0.092419	0.643933
O107	O	1.186625	-0.451208	0.270725
O108	O	1.686625	0.048792	0.770725
O109	O	1.376822	-0.477003	0.017105
O110	O	1.876822	0.022997	0.517105
C111	C	1.333126	-0.706963	0.075367
C112	C	1.833126	-0.206963	0.575367
C113	C	1.281714	-0.726108	0.143890
C114	C	1.781714	-0.226108	0.643890
C115	C	1.230300	-0.693036	0.212420
C116	C	1.730300	-0.193036	0.712420
C117	C	1.281722	-0.778328	0.143889
C118	C	1.781722	-0.278328	0.643889
C119	C	1.333135	-0.811400	0.075358
C120	C	1.833135	-0.311400	0.575358
C121	C	1.384541	-0.792252	0.006829
C122	C	1.884541	-0.292252	0.506829
C123	C	1.384540	-0.740035	0.006837
C124	C	1.884540	-0.240035	0.506837
C125	C	1.178895	-0.712184	0.280950
C126	C	1.678895	-0.212184	0.780950
C127	C	1.178901	-0.764401	0.280937
C128	C	1.678901	-0.264401	0.780937
C129	C	1.230314	-0.797473	0.212406
C130	C	1.730314	-0.297473	0.712406
C131	C	1.471699	-0.199673	0.137355
C132	C	1.971699	0.300327	0.637355
C133	C	1.588938	-0.215577	0.139852
C134	C	2.088938	0.284423	0.639852
C135	C	1.235471	-0.167624	-0.041223
C136	C	1.735471	0.332376	0.458777
C137	C	1.200654	-0.162899	-0.153674
C138	C	1.700654	0.337101	0.346326
N139	N	1.281761	-0.044657	0.143883
N140	N	1.781761	0.455343	0.643883
C141	C	1.471373	-0.199629	-0.517309
C142	C	1.971373	0.300371	-0.017309
C143	C	1.504088	-0.204073	-0.411656
C144	C	2.004088	0.295927	0.088344
C145	C	1.428233	-0.193779	-0.347155
C146	C	1.928233	0.306221	0.152845
C147	C	1.319656	-0.179042	-0.388318
C148	C	1.819656	0.320958	0.111682
C149	C	1.286937	-0.174602	-0.493981
C150	C	1.786937	0.325398	0.006019
C151	C	1.243797	-0.168752	-0.323827
C152	C	1.743797	0.331248	0.176173
C153	C	1.135220	-0.154015	-0.364990
C154	C	1.635220	0.345985	0.135010
C155	C	1.102506	-0.149575	-0.470642
C156	C	1.602506	0.350425	0.029358
C157	C	1.178362	-0.159869	-0.535143
C158	C	1.678362	0.340131	-0.035143
C159	C	1.276515	-0.173192	-0.218164
C160	C	1.776515	0.326808	0.281836
C161	C	1.092079	-0.148165	-0.194836
C162	C	1.592079	0.351835	0.305164
C163	C	1.059364	-0.143722	-0.300489
C164	C	1.559364	0.356278	0.199511
C165	C	1.327981	-0.180173	0.329078
C166	C	1.827981	0.319827	0.829078
C167	C	1.362798	-0.184896	0.441529
C168	C	1.862798	0.315104	0.941529
H169	H	0.799007	-0.326120	0.144338
H170	H	1.299007	0.173880	0.644338
Cl171	Cl	0.922871	-0.125195	-0.352249
Cl172	Cl	1.422871	0.374805	0.147751
Cl173	Cl	0.574752	-0.315728	0.139590
Cl174	Cl	1.074752	0.184272	0.639590
Cl175	Cl	1.114210	-0.513946	0.367112
Cl176	Cl	1.614210	-0.013946	0.867112
Cl177	Cl	1.165660	-0.398578	0.298643
Cl178	Cl	1.665660	0.101422	0.798643
Cl179	Cl	1.137238	-0.154224	-0.667970
Cl180	Cl	1.637238	0.345776	-0.167970
Cl181	Cl	0.740078	0.001662	0.142995
Cl182	Cl	1.240078	0.501662	0.642995
H183	H	0.599198	-0.134922	0.140049
H184	H	1.099198	0.365078	0.640049
H185	H	1.188425	-0.295359	0.268294
H186	H	1.688425	0.204641	0.768294
H187	H	1.374984	-0.320631	0.019630
H188	H	1.874984	0.179369	0.519630
Cl189	Cl	1.114257	-0.670614	0.367112
Cl190	Cl	1.614257	-0.170614	0.867112
H191	H	1.426409	-0.724453	-0.048965
H192	H	1.926409	-0.224453	0.451035
H193	H	0.664512	-0.090157	0.141419
H194	H	1.164512	0.409843	0.641419
H195	H	1.375037	-1.052446	0.019550
H196	H	1.875037	-0.552446	0.519550
Cl197	Cl	0.988714	-0.032076	0.148275
Cl198	Cl	1.488714	0.467924	0.648275
Cl199	Cl	0.996711	-0.135228	-0.113757
Cl200	Cl	1.496711	0.364772	0.386243
Cl201	Cl	1.397753	-0.430001	-0.010758
Cl202	Cl	1.897753	0.069999	0.489242
H203	H	1.014096	-0.137579	-0.504153
H204	H	1.514096	0.362421	-0.004153
Cl205	Cl	1.114223	-0.631798	0.367111
Cl206	Cl	1.614223	-0.131798	0.867111
H207	H	1.533122	-0.208013	-0.569833
H208	H	2.033122	0.291987	-0.069833
Cl209	Cl	0.988630	-0.326655	0.148381
Cl210	Cl	1.488630	0.173345	0.648381
Cl211	Cl	1.112979	-0.241447	0.150971
Cl212	Cl	1.612979	0.258553	0.650971
H213	H	1.426408	-0.819188	-0.048969
H214	H	1.926408	-0.319188	0.451031
Cl215	Cl	1.449181	-0.677171	-0.079310
Cl216	Cl	1.949181	-0.177171	0.420690
Cl217	Cl	1.449171	-0.559324	-0.079297
Cl218	Cl	1.949171	-0.059324	0.420703
H219	H	1.137035	-0.779984	0.336748
H220	H	1.637035	-0.279984	0.836748
H221	H	1.375038	-0.957706	0.019555
H222	H	1.875038	-0.457706	0.519555
H223	H	1.188493	-1.027170	0.268226
H224	H	1.688493	-0.527170	0.768226
H225	H	1.188463	-0.932440	0.268223
H226	H	1.688463	-0.432440	0.768223
Cl227	Cl	1.413007	-0.191718	-0.166430
Cl228	Cl	1.913007	0.308282	0.333570
Cl229	Cl	1.469363	-0.199363	-0.214333
Cl230	Cl	1.969363	0.300637	0.285667
H231	H	1.592491	-0.216072	-0.378149
H232	H	2.092491	0.283928	0.121851
