data_functionalizedCrystal
_audit_creation_method	'MofGen! by Chris Wilmer'
_symmetry_space_group_name_H-M	'P1'
_symmetry_Int_Tables_number	1
_symmetry_cell_setting	triclinic
loop_
_symmetry_equiv_pos_as_xyz
  x,y,z
_cell_length_a	10.654543
_cell_length_b	9.130307
_cell_length_c	10.654550
_cell_angle_alpha	89.997302
_cell_angle_beta	95.516448
_cell_angle_gamma	89.997012
loop_
_atom_site_label
_atom_site_type_symbol
_atom_site_fract_x
_atom_site_fract_y
_atom_site_fract_z
O1	O	-1.667841	-0.121641	0.176356
O2	O	-1.302362	-0.121679	0.193171
O3	O	-1.493505	-0.121650	0.002024
O4	O	-1.476698	-0.121670	0.367503
O5	O	-1.493498	0.121949	0.002024
O6	O	-1.302355	0.121920	0.193170
O7	O	-1.667834	0.121958	0.176356
Cu8	Cu	-1.485094	0.144181	0.184763
Cu9	Cu	-1.485102	-0.143903	0.184763
O10	O	-1.476691	0.121929	0.367502
C11	C	-1.255560	0.000116	0.191938
C12	C	-1.116116	0.000102	0.188249
N13	N	-1.485097	0.346804	0.184762
C14	C	-1.036631	0.000098	0.300793
C15	C	-0.905609	0.000120	0.297319
C16	C	-0.933573	0.000144	0.068749
C17	C	-1.064591	0.000132	0.072224
C18	C	-1.654424	0.346820	0.015551
C19	C	-1.739095	0.423494	-0.069050
C20	C	-1.739107	0.576828	-0.069050
C21	C	-1.654436	0.653490	0.015559
C22	C	-1.569765	0.576816	0.100160
C23	C	-1.569765	0.423479	0.100153
C24	C	-1.400434	0.576800	0.269363
C25	C	-1.400426	0.423467	0.269370
C26	C	-1.315763	0.653463	0.353971
C27	C	-1.231096	0.576788	0.438580
C28	C	-1.231088	0.423445	0.438577
C29	C	-1.315755	0.346792	0.353972
C30	C	-0.714635	0.000152	0.177595
C31	C	-0.854077	0.000135	0.181301
C32	C	-1.492267	0.000148	-0.044774
C33	C	-1.488575	0.000146	-0.184217
N34	N	-1.485106	0.653475	0.184761
C35	C	-1.601117	0.000157	-0.263706
C36	C	-1.597641	0.000139	-0.394726
C37	C	-1.369070	0.000105	-0.366758
C38	C	-1.372548	0.000112	-0.235740
C39	C	-1.477929	0.000127	0.414301
C40	C	-1.481621	0.000120	0.553744
H41	H	-1.078578	0.000084	0.395268
N42	N	-1.150330	0.000123	-0.049171
H43	H	-1.241148	0.000116	-0.029361
H44	H	-1.133546	0.090434	-0.099683
H45	H	-1.808032	0.361062	-0.137940
H46	H	-1.274605	0.000080	-0.408724
H47	H	-1.695593	0.000181	-0.221761
H48	H	-1.654433	0.221967	0.015553
N49	N	-0.819877	0.000197	0.418705
H50	H	-0.872404	0.000202	0.492728
H51	H	-0.764862	-0.090075	0.422284
N52	N	-1.830426	0.659537	-0.160296
H53	H	-1.884063	0.587713	-0.213895
H54	H	-1.886356	0.723147	-0.111682
N55	N	-1.139782	0.659464	0.529831
H56	H	-1.050526	0.632776	0.514533
H57	H	-1.152739	0.768208	0.516944
H58	H	-1.654441	0.778342	0.015543
N59	N	-0.877999	0.000184	-0.056387
H60	H	-0.782937	0.000190	-0.041514
H61	H	-0.906995	-0.090114	-0.105695
N62	N	-1.315767	0.818842	0.353973
H63	H	-1.382255	0.855786	0.287545
H64	H	-1.334724	0.855645	0.439527
N65	N	-1.139753	0.340750	0.529817
H66	H	-1.086120	0.412587	0.583407
H67	H	-1.188295	0.277125	0.585798
H68	H	-1.315761	0.221940	0.353966
H69	H	-1.689284	0.000144	-0.459441
N70	N	-1.251158	0.000090	-0.149993
H71	H	-1.177128	0.000078	-0.202511
H72	H	-1.247619	0.090395	-0.095028
