data_functionalizedCrystal
_audit_creation_method	'MofGen! by Chris Wilmer'
_symmetry_space_group_name_H-M	'P1'
_symmetry_Int_Tables_number	1
_symmetry_cell_setting	triclinic
loop_
_symmetry_equiv_pos_as_xyz
  x,y,z
_cell_length_a	6.817900
_cell_length_b	9.582860
_cell_length_c	16.255661
_cell_angle_alpha	93.082919
_cell_angle_beta	103.488922
_cell_angle_gamma	111.206767
loop_
_atom_site_label
_atom_site_type_symbol
_atom_site_fract_x
_atom_site_fract_y
_atom_site_fract_z
V1	V	-4.066850	-0.208264	-0.263715
O2	O	-4.012501	0.008764	-0.258855
O3	O	-4.057621	-0.411756	-0.261758
O4	O	-4.017900	-0.205606	-0.378800
O5	O	-4.052497	-0.198813	-0.141002
V6	V	-4.545474	-0.182240	-0.249056
O7	O	-4.338856	-0.265349	-0.295870
O8	O	-4.723666	-0.125156	-0.216901
O9	O	-4.331497	0.021252	-0.251013
O10	O	-4.717220	-0.399268	-0.253917
O11	O	-4.677224	-0.191691	-0.371769
O12	O	-4.371218	-0.184898	-0.133971
C13	C	-3.912169	-0.461346	-0.257558
C14	C	-3.985905	-0.627706	-0.256725
C15	C	-3.861499	-0.198379	-0.406856
C16	C	-3.903020	-0.197553	-0.500938
C17	C	-3.811674	-0.187680	-0.723764
C18	C	-3.992647	-0.315100	-0.793145
C19	C	-3.979106	-0.196003	-0.673188
C20	C	-3.872142	-0.067125	-0.771446
C21	C	-4.052584	-0.194499	-0.839573
C22	C	-4.159583	-0.323537	-0.741338
C23	C	-4.038994	-0.075449	-0.719624
C24	C	-4.220111	-0.202905	-0.788985
C25	C	-3.936772	-0.196871	-0.577338
C26	C	-4.094937	-0.193643	-0.935422
C27	C	-4.140293	0.070834	-0.255211
C28	C	-4.045794	0.237193	-0.256049
C29	C	-4.190961	-0.192130	-0.105911
C30	C	-4.128678	-0.192948	-0.011828
H31	H	-3.638711	-0.181409	-0.695288
C32	C	-4.064747	0.061431	-0.676340
C33	C	-4.284072	0.081319	-0.702480
C34	C	-4.309796	0.218215	-0.659192
C35	C	-4.116195	0.335222	-0.589765
C36	C	-3.896854	0.315337	-0.563622
C37	C	-3.871130	0.178441	-0.606910
H38	H	-4.427401	-0.005300	-0.753877
H39	H	-4.472168	0.232934	-0.678545
H40	H	-4.135238	0.436560	-0.557721
H41	H	-3.753526	0.401956	-0.512225
H42	H	-3.708759	0.163722	-0.587556
C43	C	-3.708529	0.079276	-0.789898
C44	C	-3.699284	0.234452	-0.754383
C45	C	-3.535658	0.380844	-0.772833
C46	C	-3.381277	0.372061	-0.826798
C47	C	-3.390517	0.216879	-0.862316
C48	C	-3.554143	0.070487	-0.843866
H49	H	-3.813571	0.240959	-0.714432
H50	H	-3.528818	0.495720	-0.746540
H51	H	-3.260151	0.480430	-0.840455
H52	H	-3.276230	0.210372	-0.902267
H53	H	-3.560982	-0.044389	-0.870160
C54	C	-3.966794	-0.451972	-0.836398
C55	C	-3.746200	-0.470277	-0.811351
C56	C	-3.720329	-0.607142	-0.854599
C57	C	-3.915052	-0.725702	-0.922896
C58	C	-4.135661	-0.707402	-0.947947
C59	C	-4.161532	-0.570536	-0.904698
H60	H	-3.602041	-0.382508	-0.760790
H61	H	-3.557019	-0.620689	-0.836054
H62	H	-3.895900	-0.827018	-0.954911
H63	H	-4.279820	-0.795170	-0.998507
H64	H	-4.324842	-0.556990	-0.923244
H65	H	-4.393230	-0.209376	-0.817327
H66	H	-4.280707	-0.432019	-0.727790
