data_functionalizedCrystal
_audit_creation_method	'MofGen! by Chris Wilmer'
_symmetry_space_group_name_H-M	'P1'
_symmetry_Int_Tables_number	1
_symmetry_cell_setting	triclinic
loop_
_symmetry_equiv_pos_as_xyz
  x,y,z
_cell_length_a	15.995350
_cell_length_b	13.339070
_cell_length_c	12.376492
_cell_angle_alpha	75.601492
_cell_angle_beta	78.709961
_cell_angle_gamma	80.439165
loop_
_atom_site_label
_atom_site_type_symbol
_atom_site_fract_x
_atom_site_fract_y
_atom_site_fract_z
O1	O	1.152819	-0.111026	-0.093902
O2	O	1.652819	0.388974	0.406098
O3	O	0.912788	-0.127124	-0.093925
O4	O	1.412788	0.372876	0.406075
O5	O	1.005255	0.028188	-0.093913
O6	O	1.505255	0.528188	0.406087
O7	O	1.060352	-0.266339	-0.093914
O8	O	1.560352	0.233661	0.406086
O9	O	0.982137	-0.010588	0.094096
O10	O	1.482137	0.489412	0.594096
O11	O	0.889669	-0.165900	0.094084
O12	O	1.389669	0.334100	0.594084
O13	O	1.129701	-0.149803	0.094107
O14	O	1.629701	0.350197	0.594107
Zn15	Zn	1.006014	-0.164008	0.123946
Zn16	Zn	1.506014	0.335992	0.623946
Zn17	Zn	1.036474	-0.112919	-0.123764
Zn18	Zn	1.536474	0.387081	0.376236
O19	O	1.037233	-0.305115	0.094095
O20	O	1.537233	0.194885	0.594095
C21	C	0.869879	-0.145846	0.000077
C22	C	1.369879	0.354154	0.500077
C23	C	0.776467	-0.143848	0.000068
C24	C	1.276467	0.356152	0.500068
N25	N	0.985232	-0.198875	0.293002
N26	N	1.485232	0.301125	0.793002
C27	C	0.984389	0.046490	0.000089
C28	C	1.484389	0.546490	0.500089
C29	C	0.956649	0.158793	0.000082
C30	C	1.456649	0.658793	0.500082
C31	C	0.437051	-0.136686	0.000092
C32	C	0.937051	0.363314	0.500092
C33	C	0.458736	-0.026160	0.000512
C34	C	0.958736	0.473840	0.500512
C35	C	0.555943	-0.028067	0.000080
C36	C	1.055943	0.471933	0.500080
C37	C	0.605439	-0.140239	0.000081
C38	C	1.105439	0.359761	0.500081
C39	C	0.590228	-0.172654	-0.107278
C40	C	1.090228	0.327346	0.392722
C41	C	0.492957	-0.169859	-0.107360
C42	C	0.992957	0.330141	0.392640
C43	C	0.466858	-0.216240	0.106442
C44	C	0.966858	0.283760	0.606442
C45	C	0.563624	-0.216505	0.107853
C46	C	1.063624	0.283495	0.607853
C47	C	0.700606	-0.142252	0.000071
C48	C	1.200606	0.357748	0.500071
C49	C	0.341886	-0.134675	0.000094
C50	C	0.841886	0.365325	0.500094
C51	C	1.172610	-0.131080	0.000103
C52	C	1.672610	0.368920	0.500103
C53	C	1.266023	-0.133076	0.000104
C54	C	1.766023	0.366924	0.500104
C55	C	1.058100	-0.323416	0.000090
C56	C	1.558100	0.176584	0.500090
C57	C	1.085841	-0.435718	0.000090
C58	C	1.585841	0.064282	0.500090
C59	C	1.172350	0.523582	0.000103
C60	C	1.672350	1.023582	0.500103
C61	C	1.198415	0.418066	0.000116
C62	C	1.698415	0.918066	0.500116
C63	C	1.137976	0.353243	0.000107
C64	C	1.637976	0.853243	0.500107
C65	C	1.051467	0.393945	0.000086
C66	C	1.551467	0.893945	0.500086
C67	C	1.025397	0.499469	0.000082
C68	C	1.525397	0.999469	0.500082
C69	C	0.991023	0.329130	0.000086
C70	C	1.491023	0.829130	0.500086
C71	C	0.904514	0.369832	0.000065
C72	C	1.404514	0.869832	0.500065
C73	C	0.878449	0.475346	0.000060
C74	C	1.378449	0.975346	0.500060
C75	C	0.938889	0.540170	0.000069
C76	C	1.438889	1.040170	0.500069
C77	C	1.017093	0.223606	0.000090
C78	C	1.517093	0.723606	0.500090
C79	C	0.870140	0.199494	0.000069
C80	C	1.370140	0.699494	0.500069
C81	C	0.844075	0.305009	0.000056
C82	C	1.344075	0.805009	0.500056
C83	C	1.105492	0.002904	0.648002
C84	C	1.605492	0.502904	1.148002
C85	C	1.120033	0.027307	0.529664
C86	C	1.620033	0.527307	1.029664
C87	C	1.086334	-0.029236	0.470493
C88	C	1.586334	0.470764	0.970493
C89	C	1.038092	-0.110187	0.529671
C90	C	1.538092	0.389813	1.029671
C91	C	1.023556	-0.134598	0.648021
C92	C	1.523556	0.365402	1.148021
C93	C	1.004397	-0.166738	0.470511
C94	C	1.504397	0.333262	0.970511
C95	C	0.956155	-0.247689	0.529689
C96	C	1.456155	0.252311	1.029689
C97	C	0.941621	-0.272096	0.648027
C98	C	1.441621	0.227904	1.148027
C99	C	0.975320	-0.215553	0.707199
C100	C	1.475320	0.284447	1.207199
C101	C	1.018933	-0.142327	0.352162
C102	C	1.518933	0.357673	0.852162
C103	C	0.936997	-0.279829	0.352180
C104	C	1.436997	0.220171	0.852180
C105	C	0.922456	-0.304232	0.470518
C106	C	1.422456	0.195768	0.970518
N107	N	1.057257	-0.078050	0.707180
N108	N	1.557257	0.421950	1.207180
H109	H	0.564946	-0.001055	0.077039
H110	H	1.064946	0.498945	0.577039
H111	H	1.132931	0.048929	0.696187
H112	H	1.632931	0.548929	1.196187
H113	H	1.268851	0.384934	0.000135
H114	H	1.768851	0.884934	0.500135
H115	H	0.583250	0.031008	-0.077012
H116	H	1.083250	0.531008	0.422988
H117	H	1.159204	0.267328	0.000118
H118	H	1.659204	0.767328	0.500118
Cl119	Cl	0.957035	-0.246229	0.855973
Cl120	Cl	1.457035	0.253771	1.355973
H121	H	0.883177	-0.370145	0.518715
H122	H	1.383177	0.129855	1.018715
H123	H	1.159311	0.093216	0.481486
H124	H	1.659311	0.593216	0.981486
H125	H	1.221549	0.576367	0.000120
H126	H	1.721549	1.076367	0.500120
Cl127	Cl	0.473216	-0.293684	-0.114884
Cl128	Cl	0.973216	0.206316	0.385116
Cl129	Cl	0.642377	-0.298601	-0.113470
Cl130	Cl	1.142377	0.201399	0.386530
Cl131	Cl	0.894634	-0.350920	0.277800
Cl132	Cl	1.394634	0.149080	0.777800
Cl133	Cl	0.769692	0.526509	0.000050
Cl134	Cl	1.269692	1.026509	0.500050
H135	H	0.420475	0.002175	0.077502
H136	H	0.920475	0.502175	0.577502
Cl137	Cl	0.880987	-0.373874	0.722424
Cl138	Cl	1.380987	0.126126	1.222424
H139	H	0.773637	0.338164	0.000039
H140	H	1.273637	0.838164	0.500039
Cl141	Cl	0.427229	0.066177	-0.117692
Cl142	Cl	0.927229	0.566177	0.382308
H143	H	0.917671	0.626091	0.000054
H144	H	1.417671	1.126091	0.500054
Cl145	Cl	0.794153	0.118007	0.000066
Cl146	Cl	1.294153	0.618007	0.500066
Cl147	Cl	1.125843	0.172451	0.000117
Cl148	Cl	1.625843	0.672451	0.500117
H149	H	1.058212	-0.076417	0.303989
H150	H	1.558212	0.423583	0.803989
Cl151	Cl	0.406739	-0.186317	0.232080
Cl152	Cl	0.906739	0.313683	0.732080
H153	H	0.475274	-0.113521	-0.187613
H154	H	0.975274	0.386479	0.312387
Cl155	Cl	0.576308	-0.180205	0.230477
Cl156	Cl	1.076308	0.319795	0.730477
Cl157	Cl	0.635608	-0.088708	-0.230639
Cl158	Cl	1.135608	0.411292	0.269361
H159	H	1.098175	-0.009363	0.374137
H160	H	1.598175	0.490637	0.874137
Cl161	Cl	0.446936	-0.342383	0.107565
Cl162	Cl	0.946936	0.157617	0.607565
Cl163	Cl	0.615448	-0.344866	0.117864
Cl164	Cl	1.115448	0.155134	0.617864
