data_functionalizedCrystal
_audit_creation_method	'MofGen! by Chris Wilmer'
_symmetry_space_group_name_H-M	'P1'
_symmetry_Int_Tables_number	1
_symmetry_cell_setting	triclinic
loop_
_symmetry_equiv_pos_as_xyz
  x,y,z
_cell_length_a	10.654534
_cell_length_b	15.538191
_cell_length_c	9.730223
_cell_angle_alpha	89.998968
_cell_angle_beta	90.004077
_cell_angle_gamma	114.124751
loop_
_atom_site_label
_atom_site_type_symbol
_atom_site_fract_x
_atom_site_fract_y
_atom_site_fract_z
O1	O	-1.606215	0.131847	-0.114300
O2	O	-1.234851	0.144431	-0.114296
O3	O	-1.492822	0.001478	-0.114305
O4	O	-1.348244	0.274799	-0.114291
O5	O	-1.492812	0.001475	0.114275
O6	O	-1.234841	0.144427	0.114284
O7	O	-1.606204	0.131843	0.114280
Zn8	Zn	-1.420521	0.138134	0.150574
Zn9	Zn	-1.420535	0.138139	-0.150590
O10	O	-1.348233	0.274795	0.114289
C11	C	-1.188478	0.143508	-0.000005
C12	C	-1.050322	0.140753	-0.000004
C13	C	-0.985417	0.139454	0.124597
C14	C	-0.855615	0.136850	0.124600
C15	C	-0.855630	0.136848	-0.124611
C16	C	-0.985434	0.139445	-0.124612
C17	C	-1.507943	-0.033521	-0.000020
C18	C	-1.553001	-0.137802	-0.000034
C19	C	-1.105368	-0.428498	0.000001
C20	C	-1.147738	-0.526489	0.000003
C21	C	-1.386058	-0.547385	-0.000000
C22	C	-1.343708	-0.449394	-0.000010
C23	C	-1.203361	-0.389958	-0.000008
C24	C	-1.441702	-0.410854	-0.000018
C25	C	-1.399355	-0.312871	-0.000020
C26	C	-1.259014	-0.253429	-0.000014
C27	C	-1.161014	-0.291975	-0.000010
C28	C	-1.582048	-0.470292	-0.000010
C29	C	-1.680041	-0.431751	-0.000018
C30	C	-1.637695	-0.333767	-0.000030
C31	C	-1.497354	-0.274325	-0.000024
C32	C	-1.735695	-0.295221	-0.000034
C33	C	-1.693348	-0.197238	-0.000036
C34	C	-1.455007	-0.176342	-0.000026
C35	C	-0.652573	0.132773	-0.000008
C36	C	-0.790714	0.135551	0.000000
C37	C	-1.333112	0.309794	0.000001
C38	C	-1.288055	0.414076	0.000006
N39	N	-1.420521	0.138130	0.356110
N40	N	-1.420548	0.138136	-0.356126
C41	C	-1.534767	0.074858	0.428032
C42	C	-1.534779	0.074858	0.571915
C43	C	-1.306292	0.201411	0.571942
C44	C	-1.306277	0.201406	0.428062
H45	H	-1.038245	0.140519	0.226060
F46	F	-1.011640	-0.228713	-0.000021
H47	H	-1.213278	0.252930	0.630539
F48	F	-1.656373	0.007514	0.648455
F49	F	-1.305633	-0.113080	-0.000037
F50	F	-0.786544	0.135468	0.257218
H51	H	-1.773144	-0.165859	-0.000041
F52	F	-0.786573	0.135437	-0.257219
H53	H	-1.213238	0.252930	0.369499
H54	H	-1.038282	0.140500	-0.226084
H55	H	-1.224538	-0.173646	-0.000008
F56	F	-0.955994	-0.365236	-0.000011
H57	H	-1.794312	-0.480157	-0.000014
F58	F	-1.043428	-0.567502	0.000019
H59	H	-1.500329	-0.595791	0.000004
H60	H	-1.616522	-0.550075	-0.000021
H61	H	-1.849965	-0.343628	-0.000022
H62	H	-1.627790	0.023334	0.369453
