data_functionalizedCrystal
_audit_creation_method	'MofGen! by Chris Wilmer'
_symmetry_space_group_name_H-M	'P1'
_symmetry_Int_Tables_number	1
_symmetry_cell_setting	triclinic
loop_
_symmetry_equiv_pos_as_xyz
  x,y,z
_cell_length_a	10.654541
_cell_length_b	11.026660
_cell_length_c	9.483300
_cell_angle_alpha	101.355736
_cell_angle_beta	80.569597
_cell_angle_gamma	96.534382
loop_
_atom_site_label
_atom_site_type_symbol
_atom_site_fract_x
_atom_site_fract_y
_atom_site_fract_z
O1	O	0.542273	1.595798	-0.120900
O2	O	0.482281	1.241989	-0.120901
O3	O	0.331302	1.427031	-0.120892
O4	O	0.693252	1.410756	-0.120909
O5	O	0.300474	1.464583	0.120886
O6	O	0.451452	1.279541	0.120877
O7	O	0.511444	1.633349	0.120877
Cu8	Cu	0.478633	1.459874	0.142953
Cu9	Cu	0.515092	1.415465	-0.142977
O10	O	0.662423	1.448307	0.120868
C11	C	0.455799	1.215461	-0.000012
C12	C	0.422806	1.080471	-0.000012
C13	C	0.479819	0.867909	-0.000019
C14	C	0.513921	1.007429	-0.000018
C15	C	0.268831	1.444613	-0.000004
C16	C	0.128612	1.441039	-0.000006
C17	C	0.148667	1.662308	0.000012
C18	C	0.092820	1.771260	0.000024
C19	C	-0.038928	1.767894	0.000020
C20	C	-0.114832	1.655565	-0.000001
C21	C	-0.058985	1.546614	-0.000013
C22	C	0.072767	1.549992	-0.000005
C23	C	-0.079038	1.325346	-0.000042
C24	C	0.052708	1.328710	-0.000027
C25	C	-0.154942	1.213017	-0.000063
C26	C	-0.099097	1.104064	-0.000065
C27	C	0.032659	1.107434	-0.000059
C28	C	0.108555	1.219759	-0.000040
C29	C	0.724895	1.430725	-0.000023
C30	C	0.865115	1.434297	-0.000030
C31	C	0.537927	1.659877	-0.000015
C32	C	0.570921	1.794866	-0.000025
N33	N	0.452991	1.491117	0.344060
C34	C	0.507529	1.424661	0.416287
C35	C	0.486188	1.450687	0.583693
N36	N	0.540734	1.384221	0.655916
H37	H	0.319568	1.039708	-0.000103
H38	H	0.423699	1.526860	0.645787
Cl39	Cl	0.730323	0.857779	-0.000020
Cl40	Cl	0.188248	1.912465	0.000042
H41	H	0.255942	1.665063	0.000036
Cl42	Cl	0.637230	1.266629	0.560055
Cl43	Cl	-0.320557	1.208771	-0.000161
H44	H	0.617169	1.048180	-0.000013
Cl45	Cl	0.604022	1.307073	0.320424
Cl46	Cl	0.356515	1.608718	0.439926
Cl47	Cl	-0.109138	1.904860	0.000022
H48	H	-0.222105	1.652832	-0.000023
H49	H	0.376574	0.827157	0.000007
Cl50	Cl	-0.194520	0.962864	-0.000109
Cl51	Cl	0.102857	0.970456	-0.000085
H52	H	0.215831	1.222515	-0.000026
