data_functionalizedCrystal
_audit_creation_method	'MofGen! by Chris Wilmer'
_symmetry_space_group_name_H-M	'P1'
_symmetry_Int_Tables_number	1
_symmetry_cell_setting	triclinic
loop_
_symmetry_equiv_pos_as_xyz
  x,y,z
_cell_length_a	16.959455
_cell_length_b	16.959453
_cell_length_c	12.759393
_cell_angle_alpha	89.966032
_cell_angle_beta	89.975981
_cell_angle_gamma	90.018936
loop_
_atom_site_label
_atom_site_type_symbol
_atom_site_fract_x
_atom_site_fract_y
_atom_site_fract_z
Zn1	Zn	1.208441	-0.314665	-0.594081
Zn2	Zn	1.208347	-0.446865	-0.418391
Zn3	Zn	1.076253	-0.314702	-0.418407
Zn4	Zn	1.076235	-0.446803	-0.594018
O5	O	1.142319	-0.380759	-0.506224
O6	O	1.319040	-0.332212	-0.570795
O7	O	1.190793	-0.429374	-0.271372
O8	O	1.093835	-0.204086	-0.441743
O9	O	1.318970	-0.429339	-0.441716
O10	O	1.190953	-0.204059	-0.570811
O11	O	1.093744	-0.332274	-0.271384
O12	O	0.965640	-0.332215	-0.441683
O13	O	1.093804	-0.429234	-0.741048
O14	O	0.965626	-0.429269	-0.570704
O15	O	1.190935	-0.332153	-0.741094
O16	O	1.190775	-0.557467	-0.441655
O17	O	1.093712	-0.557422	-0.570688
C18	C	0.936953	-0.380740	-0.506189
C19	C	0.849096	-0.380751	-0.506198
C20	C	0.807806	-0.330147	-0.439131
C21	C	0.807833	-0.431361	-0.573282
C22	C	0.725287	-0.431370	-0.573297
C23	C	0.683997	-0.380766	-0.506229
C24	C	0.725252	-0.330153	-0.439146
C25	C	0.684025	-0.481976	-0.640386
C26	C	0.601474	-0.481987	-0.640405
C27	C	0.560183	-0.431386	-0.573332
C28	C	0.601443	-0.380772	-0.506245
C29	C	0.560153	-0.330168	-0.439177
C30	C	0.601412	-0.279556	-0.372085
C31	C	0.683960	-0.279552	-0.372073
C32	C	0.477634	-0.431391	-0.573344
C33	C	0.477599	-0.330173	-0.439193
C34	C	1.142253	-0.586125	-0.506186
C35	C	1.142297	-0.673982	-0.506204
C36	C	1.192953	-1.045385	-0.573556
C37	C	1.091905	-1.045529	-0.439048
C38	C	1.091876	-0.962984	-0.439024
C39	C	1.142385	-0.921635	-0.506268
C40	C	1.192924	-0.962831	-0.573536
C41	C	1.041333	-0.921781	-0.371764
C42	C	1.041301	-0.839230	-0.371739
C43	C	1.091815	-0.797879	-0.438978
C44	C	1.142356	-0.839081	-0.506248
C45	C	1.192865	-0.797732	-0.573493
C46	C	1.243411	-0.838932	-0.640758
C47	C	1.243437	-0.921481	-0.640776
C48	C	1.091788	-0.715331	-0.438960
C49	C	1.192836	-0.715178	-0.573473
C50	C	1.348487	-0.380778	-0.506260
C51	C	1.436344	-0.380787	-0.506276
C52	C	1.142378	-0.380683	-0.780258
C53	C	1.142403	-0.380651	-0.897034
C54	C	1.142407	-0.174591	-0.506286
C55	C	1.142444	-0.086734	-0.506312
C56	C	1.192983	-0.330092	-0.951922
C57	C	1.192997	-0.330058	-1.061646
C58	C	1.091848	-0.431147	-1.061585
C59	C	1.091831	-0.431177	-0.951863
C60	C	1.142305	-0.380777	-0.233257
C61	C	1.142433	-0.380587	-0.116481
H62	H	0.841457	-0.472557	-0.627890
C63	C	0.432630	-0.275326	-0.366400
C64	C	0.351506	-0.286177	-0.380748
C65	C	0.310056	-0.235678	-0.313694
H66	H	0.446081	-0.222194	-0.381811
H67	H	0.446083	-0.286855	-0.295762
H68	H	0.338058	-0.274643	-0.451370
H69	H	0.338031	-0.339298	-0.365330
H70	H	0.323510	-0.247206	-0.243057
H71	H	0.323513	-0.182549	-0.329111
H72	H	0.255009	-0.243038	-0.323413
H73	H	0.567888	-0.523199	-0.695035
H74	H	0.567782	-0.238351	-0.317483
C75	C	0.986457	-0.966778	-0.298929
C76	C	0.935808	-1.014193	-0.358361
C77	C	0.885254	-1.055669	-0.291295
H78	H	0.956273	-0.930514	-0.258839
H79	H	1.016710	-0.999027	-0.253218
H80	H	0.905558	-0.981947	-0.404053
H81	H	0.965969	-1.050471	-0.398448
H82	H	0.915507	-1.087918	-0.245584
H83	H	0.855076	-1.019400	-0.251209
H84	H	0.850887	-1.087850	-0.331609
C85	C	1.036817	-0.485911	-1.121060
C86	C	0.958612	-0.468685	-1.094375
C87	C	0.907897	-0.519114	-1.149149
H88	H	1.048254	-0.539054	-1.103106
H89	H	1.044017	-0.478650	-1.194278
H90	H	0.951415	-0.475954	-1.021173
H91	H	0.947150	-0.415552	-1.112331
H92	H	0.915097	-0.511852	-1.222368
H93	H	0.919341	-0.572253	-1.131192
H94	H	0.854829	-0.507428	-1.131059
C95	C	1.036881	-0.670742	-0.365830
C96	C	0.992662	-0.724622	-0.306935
C97	C	0.942078	-0.683576	-0.239544
H98	H	1.002349	-0.638537	-0.405859
H99	H	1.067102	-0.638562	-0.320020
H100	H	0.962444	-0.756788	-0.352739
H101	H	1.027174	-0.756828	-0.266885
H102	H	0.972298	-0.651396	-0.193735
H103	H	0.907550	-0.651373	-0.279582
H104	H	0.912074	-0.720127	-0.199570
H105	H	0.717650	-0.523173	-0.694992
C106	C	1.247913	-0.275144	-0.892582
C107	C	1.292195	-0.230845	-0.964141
C108	C	1.342796	-0.180208	-0.909519
H109	H	1.282405	-0.305306	-0.849776
H110	H	1.217701	-0.240670	-0.849804
H111	H	1.322405	-0.265315	-1.006900
H112	H	1.257724	-0.200667	-1.006950
H113	H	1.312584	-0.145734	-0.866741
H114	H	1.377283	-0.210376	-0.866715
H115	H	1.372842	-0.150140	-0.958063
H116	H	1.050780	-1.079201	-0.384305
H117	H	0.717561	-0.238347	-0.317450
C118	C	1.037011	-0.486206	-0.892317
C119	C	1.054204	-0.564409	-0.918961
C120	C	1.003729	-0.615118	-0.864117
H121	H	0.983881	-0.474732	-0.910240
H122	H	1.044251	-0.479037	-0.819109
H123	H	1.046958	-0.571574	-0.992153
H124	H	1.107325	-0.575907	-0.901036
H125	H	1.010968	-0.607950	-0.790909
H126	H	0.950602	-0.603638	-0.882044
H127	H	1.015392	-0.668185	-0.882180
H128	H	1.234108	-1.078934	-0.628319
H129	H	1.234183	-0.288887	-1.106331
H130	H	0.841402	-0.288943	-0.384503
H131	H	1.284532	-0.805256	-0.695514
H132	H	0.444045	-0.472593	-0.627976
H133	H	1.233969	-0.681517	-0.628227
H134	H	1.284588	-0.955033	-0.695541
H135	H	1.000145	-0.805689	-0.316967
