data_functionalizedCrystal
_audit_creation_method	'MofGen! by Chris Wilmer'
_symmetry_space_group_name_H-M	'P1'
_symmetry_Int_Tables_number	1
_symmetry_cell_setting	triclinic
loop_
_symmetry_equiv_pos_as_xyz
  x,y,z
_cell_length_a	12.594517
_cell_length_b	12.594516
_cell_length_c	12.759393
_cell_angle_alpha	90.029472
_cell_angle_beta	89.978001
_cell_angle_gamma	89.973469
loop_
_atom_site_label
_atom_site_type_symbol
_atom_site_fract_x
_atom_site_fract_y
_atom_site_fract_z
Zn1	Zn	1.627195	0.423685	-0.594095
Zn2	Zn	1.627051	0.601704	-0.418421
Zn3	Zn	1.449197	0.423740	-0.418423
Zn4	Zn	1.449148	0.601621	-0.594052
O5	O	1.538148	0.512688	-0.506248
O6	O	1.776122	0.447312	-0.570808
O7	O	1.603418	0.578155	-0.271400
O8	O	1.472890	0.274787	-0.441745
O9	O	1.776016	0.578102	-0.441742
O10	O	1.603664	0.274746	-0.570810
O11	O	1.472750	0.447405	-0.271402
O12	O	1.300245	0.447324	-0.441704
O13	O	1.472806	0.577960	-0.741079
O14	O	1.300209	0.578013	-0.570738
O15	O	1.603617	0.447231	-0.741110
O16	O	1.603371	0.750639	-0.441700
O17	O	1.472666	0.750578	-0.570735
C18	C	1.261607	0.512666	-0.506217
C19	C	1.143301	0.512683	-0.506229
C20	C	1.074037	0.441504	-0.436181
C21	C	1.003207	0.538594	-0.410342
C22	C	1.003332	0.415640	-0.532085
C23	C	1.074030	0.609824	-0.480340
C24	C	1.074161	0.486804	-0.602127
C25	C	1.003363	0.583962	-0.576325
C26	C	1.538026	0.789229	-0.506236
C27	C	1.538072	0.907534	-0.506266
C28	C	1.466962	0.976793	-0.576398
C29	C	1.441014	1.047663	-0.480530
C30	C	1.564077	1.047463	-0.602150
C31	C	1.512073	0.976846	-0.410347
C32	C	1.635181	0.976640	-0.532031
C33	C	1.609270	1.047478	-0.436096
C34	C	1.815768	0.512710	-0.506280
C35	C	1.934074	0.512719	-0.506293
C36	C	1.538222	0.512580	-0.780281
C37	C	1.538254	0.512534	-0.897058
C38	C	1.538252	1.235067	-0.506281
C39	C	1.538176	1.116761	-0.506292
C40	C	1.606376	0.444457	-0.951938
C41	C	1.606402	0.444419	-1.061662
C42	C	1.470179	0.580544	-1.061617
C43	C	1.470149	0.580576	-0.951894
C44	C	1.674481	0.376416	-0.897102
C45	C	1.742610	0.308334	-0.951982
C46	C	1.742635	0.308295	-1.061706
C47	C	1.674532	0.376339	-1.116550
C48	C	1.538135	0.512718	-0.233281
C49	C	1.538309	0.512464	-0.116504
H50	H	1.105068	0.381369	-0.376871
H51	H	1.798050	0.252929	-0.907321
Br52	Br	0.951963	0.684423	-0.675107
H53	H	1.798101	0.252852	-1.106387
Br54	Br	1.709581	1.098883	-0.337156
H55	H	0.972220	0.333568	-0.553892
H56	H	0.972043	0.560505	-0.329270
Br57	Br	1.125567	0.746676	-0.443778
H58	H	1.414662	0.635994	-0.907210
H59	H	1.105350	0.464864	-0.683175
H60	H	1.674545	0.376290	-1.205895
Br61	Br	1.366589	0.925058	-0.675111
H62	H	1.358941	1.078883	-0.458759
Br63	Br	1.475329	0.925367	-0.275172
H64	H	1.717236	0.945423	-0.553848
H65	H	1.414732	0.635941	-1.106279
H66	H	1.586031	1.078482	-0.683227
H67	H	1.674470	0.376442	-0.807759
