data_functionalizedCrystal
_audit_creation_method	'MofGen! by Chris Wilmer'
_symmetry_space_group_name_H-M	'P1'
_symmetry_Int_Tables_number	1
_symmetry_cell_setting	triclinic
loop_
_symmetry_equiv_pos_as_xyz
  x,y,z
_cell_length_a	14.971486
_cell_length_b	14.853567
_cell_length_c	13.448316
_cell_angle_alpha	89.997194
_cell_angle_beta	89.998199
_cell_angle_gamma	83.624529
loop_
_atom_site_label
_atom_site_type_symbol
_atom_site_fract_x
_atom_site_fract_y
_atom_site_fract_z
O1	O	1.186969	0.117488	-0.082569
O2	O	0.926571	0.131557	-0.082595
O3	O	1.063725	-0.006709	-0.082584
O4	O	1.049814	0.255753	-0.082580
O5	O	1.063708	-0.006717	0.082800
O6	O	0.926554	0.131549	0.082789
O7	O	1.186951	0.117479	0.082815
Cu8	Cu	1.056751	0.124513	0.097903
Cu9	Cu	1.056771	0.124523	-0.097683
O10	O	1.049797	0.255745	0.082804
C11	C	0.893238	0.130924	0.000093
C12	C	0.793940	0.129038	0.000083
C13	C	0.736730	0.210265	0.000086
C14	C	0.643430	0.208488	0.000101
C15	C	0.607342	0.125483	0.000106
C16	C	0.664560	0.044249	0.000106
C17	C	0.757858	0.046027	0.000098
C18	C	0.470097	0.040549	0.000119
C19	C	0.376793	0.038771	0.000125
C20	C	0.355669	0.203010	0.000122
C21	C	0.448967	0.204788	0.000114
C22	C	0.506178	0.123554	0.000113
C23	C	1.063087	-0.040301	0.000105
C24	C	1.061198	-0.140385	0.000096
C25	C	0.971740	-0.552902	0.000106
C26	C	1.134683	-0.574213	0.000122
C27	C	1.136459	-0.480180	0.000116
C28	C	1.055874	-0.422503	0.000107
C29	C	0.973514	-0.458860	0.000103
C30	C	1.218818	-0.443816	0.000130
C31	C	1.220597	-0.349777	0.000126
C32	C	1.140012	-0.292099	0.000109
C33	C	1.057648	-0.328461	0.000104
C34	C	0.977064	-0.270784	0.000095
C35	C	0.894699	-0.307144	0.000083
C36	C	0.892928	-0.401181	0.000087
C37	C	1.141782	-0.198061	0.000105
C38	C	0.978837	-0.176741	0.000092
C39	C	1.220285	0.118113	0.000124
C40	C	1.319582	0.119998	0.000128
C41	C	1.050436	0.289338	0.000113
C42	C	1.052325	0.389421	0.000115
N43	N	1.056743	0.124505	0.235467
N44	N	1.056786	0.124524	-0.235247
C45	C	1.117494	0.063307	0.287512
C46	C	1.117500	0.063306	0.391615
C47	C	1.056758	0.124509	0.443672
C48	C	0.996001	0.185711	0.391619
C49	C	0.995991	0.185707	0.287518
C50	C	0.996025	0.185717	0.608599
C51	C	0.996036	0.185723	0.712708
C52	C	1.117534	0.063316	0.712697
C53	C	1.117525	0.063312	0.608595
C54	C	1.056768	0.124515	0.556550
H55	H	0.766104	0.277858	0.000081
H56	H	0.478346	0.272378	0.000101
H57	H	1.166967	0.013473	0.433990
H58	H	0.825871	-0.430795	0.000078
H59	H	0.946539	0.235541	0.434009
O60	O	1.183033	-0.002700	0.552442
H61	H	1.225276	-0.045265	0.606120
O62	O	1.183061	-0.002705	0.768822
H63	H	1.172857	0.007569	0.849955
O64	O	0.930505	0.251714	0.768861
H65	H	0.888242	0.294257	0.715184
O66	O	1.183005	-0.002709	0.231366
H67	H	1.225243	-0.045271	0.285051
H68	H	0.946548	0.235552	0.566228
H69	H	1.287664	-0.320181	0.000134
O70	O	0.581721	0.296097	0.000104
H71	H	0.622489	0.354114	0.000088
O72	O	1.230607	-0.158843	0.000121
H73	H	1.235319	-0.116506	-0.067285
O74	O	1.221593	-0.636420	0.000144
H75	H	1.261014	-0.623484	-0.067256
O76	O	0.891920	-0.114532	0.000091
H77	H	0.834355	-0.155617	0.000093
O78	O	0.930472	0.251717	0.231375
H79	H	0.888242	0.294284	0.285060
O80	O	0.882905	-0.592109	0.000105
H81	H	0.895204	-0.667189	0.000116
O82	O	0.819564	-0.041585	0.000101
H83	H	0.890503	-0.026405	0.000108
O84	O	0.625637	-0.045278	0.000117
H85	H	0.681096	-0.101462	0.000125
O86	O	0.293970	0.290631	0.000135
H87	H	0.223031	0.275454	0.000156
O88	O	0.807782	-0.244934	0.000081
H89	H	0.804699	-0.201579	-0.067327
O90	O	0.337864	-0.050753	0.000149
H91	H	0.360835	-0.089803	-0.067248
O92	O	0.531809	-0.047065	0.000113
H93	H	0.491043	-0.105083	0.000105
O94	O	1.305731	-0.506019	0.000155
H95	H	1.290659	-0.577516	0.000146
