data_functionalizedCrystal
_audit_creation_method	'MofGen! by Chris Wilmer'
_symmetry_space_group_name_H-M	'P1'
_symmetry_Int_Tables_number	1
_symmetry_cell_setting	triclinic
loop_
_symmetry_equiv_pos_as_xyz
  x,y,z
_cell_length_a	12.827893
_cell_length_b	12.759394
_cell_length_c	12.827885
_cell_angle_alpha	90.031578
_cell_angle_beta	89.980728
_cell_angle_gamma	89.977542
loop_
_atom_site_label
_atom_site_type_symbol
_atom_site_fract_x
_atom_site_fract_y
_atom_site_fract_z
Zn1	Zn	1.597618	0.418216	-0.590836
Zn2	Zn	1.597491	0.593932	-0.416090
Zn3	Zn	1.422859	0.418268	-0.416109
Zn4	Zn	1.422823	0.593854	-0.590790
O5	O	1.510198	0.506068	-0.503456
O6	O	1.743837	0.441537	-0.567666
O7	O	1.574287	0.570684	-0.269857
O8	O	1.446110	0.271240	-0.439314
O9	O	1.743743	0.570634	-0.439282
O10	O	1.574505	0.271202	-0.567685
O11	O	1.445986	0.441624	-0.269871
O12	O	1.276619	0.441548	-0.439270
O13	O	1.446048	0.570501	-0.737033
O14	O	1.276592	0.570551	-0.567608
O15	O	1.574469	0.441461	-0.737066
O16	O	1.574252	0.740943	-0.439238
O17	O	1.445925	0.740885	-0.567589
C18	C	1.238688	0.506047	-0.503437
C19	C	1.122535	0.506064	-0.503453
C20	C	1.070764	0.569998	-0.566860
C21	C	0.950714	0.570017	-0.566879
C22	C	1.510099	0.779035	-0.503430
C23	C	1.510152	0.895812	-0.503453
C24	C	1.643749	0.895614	-0.637226
C25	C	1.710572	0.950377	-0.704118
C26	C	1.710618	1.060098	-0.704136
C27	C	1.643831	1.115060	-0.637258
C28	C	1.577008	1.060298	-0.570366
C29	C	1.576972	0.950574	-0.570352
C30	C	1.443407	1.060495	-0.436600
C31	C	1.443365	0.950774	-0.436574
C32	C	1.376620	1.115457	-0.369721
C33	C	1.309801	1.060695	-0.302822
C34	C	1.309758	0.950967	-0.302805
C35	C	1.376542	0.896012	-0.369682
C36	C	1.782768	0.506089	-0.503477
C37	C	1.898921	0.506098	-0.503486
C38	C	1.510269	0.505967	-0.776027
C39	C	1.510299	0.505924	-0.892180
C40	C	1.510288	1.232034	-0.503497
C41	C	1.510230	1.115257	-0.503492
C42	C	1.573853	0.442058	-0.943981
C43	C	1.573886	0.442012	-1.064032
C44	C	1.510187	0.506092	-0.231947
C45	C	1.510359	0.505839	-0.115794
H46	H	0.943436	0.451362	-0.449194
H47	H	1.077981	0.451337	-0.449185
H48	H	1.643865	1.204401	-0.637288
H49	H	1.628300	0.387338	-1.108579
H50	H	1.643729	0.806273	-0.637207
C51	C	0.890583	0.643940	-0.640245
H52	H	0.938651	0.684036	-0.680017
H53	H	0.848047	0.603748	-0.685804
H54	H	0.847963	0.689651	-0.600177
C55	C	1.784036	0.889918	-0.777675
H56	H	1.774449	0.816728	-0.768079
H57	H	1.768723	0.907860	-0.847880
H58	H	1.854266	0.907858	-0.762428
H59	H	1.376518	0.806670	-0.369671
C60	C	1.784125	1.120339	-0.777711
H61	H	1.823899	1.071896	-0.817534
H62	H	1.744149	1.163146	-0.823216
H63	H	1.829693	1.163128	-0.737765
C64	C	1.436862	0.579727	-1.055634
H65	H	1.397021	0.619774	-1.103682
H66	H	1.391372	0.539527	-1.013048
H67	H	1.476864	0.625485	-1.013061
H68	H	1.376658	1.204798	-0.369745
H69	H	1.255423	1.105454	-0.248380
H70	H	1.455906	0.560560	-0.936708
H71	H	1.255339	0.906385	-0.248338
C72	C	1.647322	0.368227	-0.883843
H73	H	1.687193	0.328146	-0.931910
H74	H	1.692786	0.408467	-0.841254
H75	H	1.607305	0.322499	-0.841276
C76	C	1.130943	0.643926	-0.640181
H77	H	1.203736	0.634219	-0.630546
H78	H	1.113144	0.628655	-0.710440
H79	H	1.113085	0.714521	-0.624777
