data_functionalizedCrystal
_audit_creation_method	'MofGen! by Chris Wilmer'
_symmetry_space_group_name_H-M	'P1'
_symmetry_Int_Tables_number	1
_symmetry_cell_setting	triclinic
loop_
_symmetry_equiv_pos_as_xyz
  x,y,z
_cell_length_a	10.686285
_cell_length_b	18.215407
_cell_length_c	18.215399
_cell_angle_alpha	89.980167
_cell_angle_beta	94.390852
_cell_angle_gamma	94.367986
loop_
_atom_site_label
_atom_site_type_symbol
_atom_site_fract_x
_atom_site_fract_y
_atom_site_fract_z
Zn1	Zn	-0.502344	-1.147639	0.393704
Zn2	Zn	-0.713359	-1.157027	0.261223
Zn3	Zn	-0.502385	-1.024574	0.270649
Zn4	Zn	-0.713289	-1.034014	0.384251
O5	O	-0.607844	-1.090813	0.327457
O6	O	-0.530347	-1.251869	0.376141
O7	O	-0.685420	-1.139435	0.159487
O8	O	-0.325804	-1.033019	0.294874
O9	O	-0.685380	-1.258767	0.278808
O10	O	-0.325774	-1.123434	0.385281
O11	O	-0.530418	-1.042122	0.166413
O12	O	-0.530350	-0.922841	0.285708
O13	O	-0.685260	-1.049109	0.488492
O14	O	-0.685300	-0.929777	0.369171
O15	O	-0.530279	-1.132588	0.495436
O16	O	-0.889925	-1.148589	0.269642
O17	O	-0.889873	-1.058212	0.360030
C18	C	-0.607823	-0.899606	0.327437
C19	C	-0.607844	-0.817808	0.327444
C20	C	-0.935683	-1.105463	0.312804
C21	C	-1.075934	-1.111798	0.306560
C22	C	-0.607757	-1.090854	0.519414
C23	C	-0.607720	-1.090872	0.601214
C24	C	-0.278725	-1.076126	0.342183
C25	C	-0.138474	-1.069867	0.348459
C26	C	-0.607867	-1.282767	0.327478
C27	C	-0.607876	-1.364567	0.327486
C28	C	-0.688653	-0.633251	0.370839
C29	C	-0.688657	-0.556392	0.370848
C30	C	-0.527058	-0.549129	0.284090
C31	C	-0.527049	-0.625986	0.284086
C32	C	-0.607853	-0.668045	0.327459
C33	C	-0.607867	-0.514330	0.327472
C34	C	-0.607870	-0.430996	0.327482
C35	C	-0.607848	-0.751384	0.327450
C36	C	-0.607840	-1.090811	0.136251
C37	C	-0.607521	-1.090920	0.054467
C38	C	-0.526946	-1.134353	0.793029
C39	C	-0.526909	-1.134360	0.869890
C40	C	-0.688299	-1.047434	0.862646
C41	C	-0.688328	-1.047423	0.785788
C42	C	-0.607654	-1.090887	0.750981
C43	C	-0.607588	-1.090905	0.904700
C44	C	-0.607548	-1.090912	0.988036
C45	C	-0.607691	-1.090879	0.667640
H46	H	-1.129693	-1.152540	0.265903
H47	H	-0.754447	-0.667493	0.406158
H48	H	-1.084722	-1.029123	0.389109
H49	H	-0.754451	-0.528066	0.406173
N50	N	-0.775325	-1.000569	0.900190
H51	H	-0.826457	-0.973031	0.861888
H52	H	-0.723953	-0.964222	0.934375
H53	H	-0.461271	-0.514875	0.248777
N54	N	-0.439871	-1.181250	0.915239
H55	H	-0.452087	-1.174662	0.969211
H56	H	-0.349757	-1.165774	0.905835
N57	N	-0.775356	-1.000523	0.740430
H58	H	-0.826458	-0.972990	0.774141
H59	H	-0.833769	-1.033071	0.705923
H60	H	-0.461244	-0.654316	0.248761
H61	H	-0.461252	-1.169742	0.764692
