data_functionalizedCrystal
_audit_creation_method	'MofGen! by Chris Wilmer'
_symmetry_space_group_name_H-M	'P1'
_symmetry_Int_Tables_number	1
_symmetry_cell_setting	triclinic
loop_
_symmetry_equiv_pos_as_xyz
  x,y,z
_cell_length_a	19.288864
_cell_length_b	14.519709
_cell_length_c	18.366186
_cell_angle_alpha	89.992822
_cell_angle_beta	89.977106
_cell_angle_gamma	83.408195
loop_
_atom_site_label
_atom_site_type_symbol
_atom_site_fract_x
_atom_site_fract_y
_atom_site_fract_z
O1	O	0.921767	0.115045	-0.060785
O2	O	0.719562	0.130564	-0.060735
O3	O	0.826026	-0.011468	-0.060755
O4	O	0.815303	0.257077	-0.060765
O5	O	0.826007	-0.011475	0.060345
O6	O	0.719544	0.130557	0.060364
O7	O	0.921749	0.115038	0.060315
Zn8	Zn	0.820643	0.122797	0.079567
Zn9	Zn	0.820667	0.122806	-0.079987
O10	O	0.815285	0.257070	0.060334
C11	C	0.693675	0.130061	-0.000179
C12	C	0.616566	0.128562	-0.000160
C13	C	0.572169	0.211900	-0.000175
C14	C	0.499717	0.210492	-0.000183
C15	C	0.471665	0.125741	-0.000191
C16	C	0.516071	0.042392	-0.000172
C17	C	0.588521	0.043803	-0.000156
C18	C	0.363169	0.059120	-0.042639
C19	C	0.290720	0.057713	-0.042659
C20	C	0.248203	0.121387	-0.000234
C21	C	0.278144	0.186484	0.042200
C22	C	0.350595	0.187894	0.042215
C23	C	0.393105	0.124202	-0.000207
C24	C	0.125246	0.203203	-0.000257
C25	C	0.052792	0.201792	-0.000260
C26	C	0.069148	0.033689	-0.000257
C27	C	0.141599	0.035103	-0.000246
C28	C	0.169644	0.119863	-0.000249
C29	C	0.825517	-0.045828	-0.000205
C30	C	0.824019	-0.148200	-0.000204
C31	C	0.818507	-0.523061	-0.000222
C32	C	0.820037	-0.418762	-0.000216
C33	C	0.821263	-0.335633	-0.000212
C34	C	0.822794	-0.231329	-0.000208
C35	C	0.947636	0.115541	-0.000243
C36	C	1.024745	0.117040	-0.000267
C37	C	0.815794	0.291430	-0.000217
C38	C	0.817291	0.393802	-0.000223
N39	N	0.820632	0.122790	0.188458
N40	N	0.820684	0.122805	-0.188878
C41	C	0.867790	0.059929	0.226549
C42	C	0.867794	0.059925	0.302777
C43	C	0.820648	0.122797	0.340910
C44	C	0.773481	0.185663	0.302809
C45	C	0.773473	0.185659	0.226583
C46	C	0.811652	0.206826	0.461669
C47	C	0.811664	0.206831	0.537894
C48	C	0.820667	0.122809	0.576018
C49	C	0.829673	0.038778	0.537908
C50	C	0.829665	0.038775	0.461681
C51	C	0.820650	0.122808	0.423565
C52	C	0.867832	0.059938	0.696765
C53	C	0.867832	0.059933	0.772994
C54	C	0.773522	0.185679	0.773025
C55	C	0.773519	0.185677	0.696797
C56	C	0.820678	0.122807	0.658671
H57	H	0.906187	0.008734	0.195510
O58	O	0.009762	0.282836	-0.000305
C59	C	0.001189	0.449716	-0.000275
C60	C	0.050001	0.358002	-0.000242
H61	H	0.033703	0.510512	-0.000209
H62	H	-0.033100	0.453320	-0.050972
H63	H	-0.033179	0.453209	0.050388
H64	H	0.084413	0.354448	-0.050871
H65	H	0.084243	0.354436	0.050488
H66	H	0.463563	0.278358	-0.000193
H67	H	0.493226	-0.026613	-0.000188
O68	O	0.184631	-0.045937	-0.000272
C69	C	0.193205	-0.212817	-0.000226
C70	C	0.144392	-0.121104	-0.000217
H71	H	0.160691	-0.273613	-0.000166
H72	H	0.227548	-0.216420	-0.050911
H73	H	0.227519	-0.216311	0.050449
H74	H	0.110034	-0.117549	-0.050857
H75	H	0.110096	-0.117539	0.050502
H76	H	0.243528	0.238333	0.076747
H77	H	0.735122	0.236868	0.665780
H78	H	0.046308	-0.035317	-0.000308
H79	H	0.804308	0.275251	0.430634
H80	H	0.735092	0.236854	0.333861
H81	H	0.624670	-0.024063	-0.000145
H82	H	0.266348	0.004711	-0.077214
O83	O	0.838291	-0.042797	0.424589
C84	C	0.789146	-0.142556	0.338623
C85	C	0.779308	-0.050133	0.380566
H86	H	0.741460	-0.148526	0.303033
H87	H	0.837639	-0.145015	0.302851
H88	H	0.795607	-0.202586	0.378982
H89	H	0.772817	0.009949	0.340260
H90	H	0.730828	-0.047755	0.416350
O91	O	0.599321	0.294296	-0.000271
C92	C	0.607559	0.438380	-0.063040
C93	C	0.576753	0.345107	-0.063012
H94	H	0.589337	0.479480	-0.113767
H95	H	0.589227	0.479611	-0.012401
H96	H	0.666967	0.425068	-0.062992
H97	H	0.517344	0.358335	-0.063086
H98	H	0.595140	0.303906	-0.113646
O99	O	0.838295	-0.042832	0.574959
C100	C	0.789250	-0.142566	0.661080
C101	C	0.779385	-0.050126	0.619152
H102	H	0.741637	-0.148484	0.696832
H103	H	0.795644	-0.202653	0.620776
H104	H	0.837806	-0.144968	0.696711
H105	H	0.730828	-0.047634	0.583520
H106	H	0.773032	0.009919	0.659495
H107	H	0.906197	0.008734	0.333797
O108	O	0.404362	-0.002772	-0.083925
C109	C	0.409191	-0.130661	-0.168079
C110	C	0.362459	-0.060615	-0.121370
H111	H	0.375333	-0.177458	-0.198353
H112	H	0.439392	-0.091771	-0.209056
H113	H	0.447455	-0.174653	-0.131359
H114	H	0.324155	-0.016604	-0.158032
H115	H	0.332307	-0.099561	-0.080386
O116	O	0.913660	-0.001226	0.659837
C117	C	1.007227	-0.125913	0.667850
C118	C	0.955354	-0.056710	0.709758
H119	H	1.040960	-0.170777	0.708192
H120	H	0.977218	-0.171946	0.632202
H121	H	1.041939	-0.086197	0.632121
H122	H	0.920629	-0.096350	0.745526
H123	H	0.985407	-0.010677	0.745359
O124	O	0.802879	0.288535	0.574798
C125	C	0.785050	0.455221	0.566738
C126	C	0.794975	0.362755	0.524856
H127	H	0.778671	0.515252	0.526378
H128	H	0.736505	0.457693	0.602433
H129	H	0.832681	0.461166	0.602416
H130	H	0.747383	0.356748	0.489138
H131	H	0.843548	0.360323	0.489207
O132	O	0.727752	0.246880	0.809978
C133	C	0.687274	0.407377	0.833338
C134	C	0.739141	0.338171	0.791425
H135	H	0.696474	0.481201	0.818365
H136	H	0.631615	0.395623	0.818366
H137	H	0.695369	0.396533	0.894359
H138	H	0.731110	0.348974	0.730394
H139	H	0.794782	0.349942	0.806457
O140	O	0.379569	0.251153	0.083505
C141	C	0.359457	0.378755	0.167646
C142	C	0.326553	0.307155	0.120930
H143	H	0.316608	0.424064	0.197904
H144	H	0.397051	0.341189	0.208638
H145	H	0.389075	0.424063	0.130934
H146	H	0.296899	0.261827	0.157584
H147	H	0.288997	0.344779	0.079931
O148	O	0.152528	0.285510	-0.000377
C149	C	0.224908	0.384643	-0.063072
C150	C	0.194045	0.291410	-0.063038
H151	H	0.258493	0.389436	-0.113720
H152	H	0.180757	0.444007	-0.063122
H153	H	0.258362	0.389481	-0.012362
H154	H	0.160599	0.286482	-0.113739
H155	H	0.238229	0.232091	-0.062950
H156	H	0.906231	0.008739	0.804009
H157	H	0.735071	0.236849	0.195568
