data_functionalizedCrystal
_audit_creation_method	'MofGen! by Chris Wilmer'
_symmetry_space_group_name_H-M	'P1'
_symmetry_Int_Tables_number	1
_symmetry_cell_setting	triclinic
loop_
_symmetry_equiv_pos_as_xyz
  x,y,z
_cell_length_a	18.215407
_cell_length_b	18.215405
_cell_length_c	18.215399
_cell_angle_alpha	89.969449
_cell_angle_beta	89.981439
_cell_angle_gamma	90.016621
loop_
_atom_site_label
_atom_site_type_symbol
_atom_site_fract_x
_atom_site_fract_y
_atom_site_fract_z
Zn1	Zn	-1.125072	0.293154	0.416077
Zn2	Zn	-1.124980	0.416225	0.293006
Zn3	Zn	-1.002004	0.293159	0.293028
Zn4	Zn	-1.001970	0.416166	0.416033
O5	O	-1.063507	0.354676	0.354536
O6	O	-1.228044	0.309503	0.399761
O7	O	-1.108643	0.399928	0.190024
O8	O	-1.018382	0.190174	0.309378
O9	O	-1.227977	0.399922	0.309341
O10	O	-1.108799	0.190171	0.399782
O11	O	-1.018293	0.309512	0.190040
O12	O	-0.899016	0.309454	0.309335
O13	O	-1.018324	0.399821	0.519023
O14	O	-0.898991	0.399826	0.399707
O15	O	-1.108766	0.309445	0.519056
O16	O	-1.108610	0.519202	0.309298
O17	O	-1.018235	0.519158	0.399686
C18	C	-0.872300	0.354634	0.354519
C19	C	-0.790502	0.354634	0.354529
C20	C	-1.063429	0.545882	0.354501
C21	C	-1.063463	0.627681	0.354510
C22	C	-1.063552	0.354625	0.546489
C23	C	-1.063571	0.354604	0.628288
C24	C	-0.525473	0.307659	0.401686
C25	C	-0.602332	0.307651	0.401685
C26	C	-0.602281	0.401669	0.307389
C27	C	-0.525424	0.401680	0.307395
C28	C	-0.487022	0.354671	0.354542
C29	C	-0.640738	0.354651	0.354535
C30	C	-0.724072	0.354643	0.354533
C31	C	-0.403683	0.354680	0.354545
C32	C	-0.255460	0.354706	0.354550
C33	C	-0.337259	0.354688	0.354548
C34	C	-1.063605	0.162723	0.354588
C35	C	-1.063647	0.080924	0.354610
C36	C	-1.110632	0.815874	0.307532
C37	C	-1.110665	0.892732	0.307550
C38	C	-1.016476	0.892727	0.401593
C39	C	-1.016447	0.815869	0.401579
C40	C	-1.063524	0.777445	0.354544
C41	C	-1.063586	0.931161	0.354576
C42	C	-1.063621	1.014494	0.354596
C43	C	-1.063490	0.694106	0.354525
C44	C	-1.063504	0.354674	0.163330
C45	C	-1.063628	0.354488	0.081531
C46	C	-1.110681	0.307501	0.816500
C47	C	-1.110690	0.307480	0.893359
C48	C	-1.016513	0.401593	0.893314
C49	C	-1.016501	0.401610	0.816456
C50	C	-1.063589	0.354565	0.778052
C51	C	-1.063610	0.354527	0.931768
C52	C	-1.063619	0.354504	1.015101
C53	C	-1.063579	0.354587	0.694713
H54	H	-0.494209	0.269381	0.440076
H55	H	-0.633636	0.269370	0.440075
H56	H	-0.633558	0.439940	0.269002
H57	H	-0.978086	0.784578	0.439865
C58	C	-1.162484	0.935001	0.255830
N59	N	-1.201516	0.966837	0.216871
H60	H	-0.978146	0.924021	0.439886
H61	H	-0.494116	0.439967	0.269004
C62	C	-1.162473	0.255744	0.774257
N63	N	-1.201482	0.216756	0.742442
C64	C	-0.964691	0.453385	0.774160
N65	N	-0.925667	0.492378	0.742303
H66	H	-1.148966	0.784590	0.269234
H67	H	-1.149035	0.269154	0.924660
C68	C	-0.964717	0.453338	0.935566
N69	N	-0.925703	0.492313	0.967390
