data_functionalizedCrystal
_audit_creation_method	'MofGen! by Chris Wilmer'
_symmetry_space_group_name_H-M	'P1'
_symmetry_Int_Tables_number	1
_symmetry_cell_setting	triclinic
loop_
_symmetry_equiv_pos_as_xyz
  x,y,z
_cell_length_a	11.792241
_cell_length_b	19.288865
_cell_length_c	18.366186
_cell_angle_alpha	90.011479
_cell_angle_beta	89.995167
_cell_angle_gamma	96.335168
loop_
_atom_site_label
_atom_site_type_symbol
_atom_site_fract_x
_atom_site_fract_y
_atom_site_fract_z
O1	O	1.505472	-0.095201	-0.060488
O2	O	2.005472	0.404799	0.439512
O3	O	1.174982	-0.105012	-0.060506
O4	O	1.674982	0.394988	0.439494
O5	O	1.349777	0.000970	-0.060482
O6	O	1.849777	0.500970	0.439518
O7	O	1.330678	-0.201182	-0.060512
O8	O	1.830678	0.298818	0.439488
O9	O	1.349747	0.000975	0.060617
O10	O	1.849747	0.500975	0.560617
O11	O	1.174953	-0.105007	0.060593
O12	O	1.674953	0.394993	0.560593
O13	O	1.505442	-0.095195	0.060611
O14	O	2.005442	0.404805	0.560611
Zn15	Zn	1.340193	-0.100100	0.079829
Zn16	Zn	1.840193	0.399900	0.579829
Zn17	Zn	1.340232	-0.100107	-0.079724
Zn18	Zn	1.840232	0.399893	0.420276
O19	O	1.330648	-0.201177	0.060587
O20	O	1.830648	0.298823	0.560587
C21	C	1.132686	-0.104393	0.000042
C22	C	1.632686	0.395607	0.500042
C23	C	1.006700	-0.102548	0.000035
C24	C	1.506700	0.397452	0.500035
C25	C	1.349147	0.026852	0.000070
C26	C	1.849147	0.526852	0.500070
C27	C	1.347303	0.103966	0.000076
C28	C	1.847303	0.603966	0.500076
N29	N	1.340174	-0.100095	0.188721
N30	N	1.840174	0.399905	0.688721
C31	C	0.776039	-0.099156	0.000057
C32	C	1.276039	0.400844	0.500057
C33	C	0.904396	-0.101041	0.000045
C34	C	1.404396	0.398959	0.500045
C35	C	1.547739	-0.095814	0.000062
C36	C	2.047739	0.404186	0.500062
C37	C	1.673725	-0.097659	0.000063
C38	C	2.173725	0.402341	0.500063
C39	C	1.331277	-0.227060	0.000034
C40	C	1.831277	0.272940	0.500034
C41	C	1.333122	-0.304174	0.000023
C42	C	1.833122	0.195826	0.500023
C43	C	1.449864	0.148080	0.000085
C44	C	1.949864	0.648080	0.500085
C45	C	1.448131	0.220537	0.000074
C46	C	1.948131	0.720537	0.500074
C47	C	1.343830	0.248877	0.000067
C48	C	1.843830	0.748877	0.500067
C49	C	1.241255	0.204754	0.000054
C50	C	1.741255	0.704754	0.500054
C51	C	1.242992	0.132298	0.000058
C52	C	1.742992	0.632298	0.500058
C53	C	1.261828	0.357632	0.042481
C54	C	1.761828	0.857632	0.542481
C55	C	1.260096	0.430086	0.042482
C56	C	1.760096	0.930086	0.542482
C57	C	1.338472	0.472353	0.000051
C58	C	1.838472	0.972353	0.500051
C59	C	1.418598	0.442158	-0.042371
C60	C	1.918598	0.942158	0.457629
C61	C	1.420334	0.369703	-0.042366
C62	C	1.920334	0.869703	0.457634
C63	C	1.341936	0.327442	0.000062
C64	C	1.841936	0.827442	0.500062
C65	C	1.439161	0.595033	0.000046
C66	C	1.939161	1.095033	0.500046
C67	C	1.437423	0.667491	0.000030
C68	C	1.937423	1.167491	0.500030
C69	C	1.230545	0.651706	0.000018
C70	C	1.730545	1.151706	0.500018
C71	C	1.232285	0.579250	0.000027
C72	C	1.732285	1.079250	0.500027
C73	C	1.336596	0.550918	0.000044
C74	C	1.836596	1.050918	0.500044
N75	N	1.340259	-0.100107	-0.188615
N76	N	1.840259	0.399893	0.311385
C77	C	1.417599	-0.053190	0.226832
C78	C	1.917599	0.446810	0.726832
C79	C	1.417606	-0.053186	0.303059
C80	C	1.917606	0.446814	0.803059
C81	C	1.340200	-0.100101	0.341173
C82	C	1.840200	0.399899	0.841173
C83	C	1.262761	-0.147010	0.303053
C84	C	1.762761	0.352990	0.803053
C85	C	1.262748	-0.147007	0.226827
C86	C	1.762748	0.352993	0.726827
C87	C	1.325007	-0.163302	0.461924
C88	C	1.825007	0.336698	0.961924
C89	C	1.325027	-0.163306	0.538149
C90	C	1.825027	0.336694	1.038149
C91	C	1.340232	-0.100110	0.576281
C92	C	1.840232	0.399890	1.076281
C93	C	1.355440	-0.036907	0.538179
C94	C	1.855440	0.463093	1.038179
C95	C	1.355428	-0.036904	0.461952
C96	C	1.855428	0.463096	0.961952
C97	C	1.340204	-0.100109	0.423828
C98	C	1.840204	0.399891	0.923828
C99	C	1.417668	-0.053197	0.697047
C100	C	1.917668	0.446803	1.197047
C101	C	1.417667	-0.053193	0.773276
C102	C	1.917667	0.446807	1.273276
C103	C	1.262828	-0.147022	0.773268
C104	C	1.762828	0.352978	1.273268
C105	C	1.262823	-0.147020	0.697041
C106	C	1.762823	0.352980	1.197041
C107	C	1.340249	-0.100108	0.658934
C108	C	1.840249	0.399892	1.158934
H109	H	1.534802	0.125017	0.000097
H110	H	2.034802	0.625017	0.500097
H111	H	1.199798	-0.185218	0.804300
H112	H	1.699798	0.314782	1.304300
H113	H	1.148769	0.543331	0.000024
H114	H	1.648769	1.043331	0.500024
O115	O	1.501089	-0.002585	0.185729
O116	O	2.001089	0.497415	0.685729
H117	H	1.554921	0.030037	0.225042
H118	H	2.054921	0.530037	0.725042
O119	O	1.132364	0.084715	0.000062
O120	O	1.632364	0.584715	0.500062
H121	H	1.082434	0.094825	-0.049296
H122	H	1.582434	0.594825	0.450704
H123	H	1.312651	-0.214770	0.569166
H124	H	1.812651	0.285230	1.069166
H125	H	1.194847	0.454665	0.077020
H126	H	1.694847	0.954665	0.577020
H127	H	1.145622	0.674780	0.000010
H128	H	1.645622	1.174780	0.500010
O129	O	1.308615	-0.231468	0.420797
O130	O	1.808615	0.268532	0.920797
H131	H	1.298063	-0.275416	0.460095
H132	H	1.798063	0.224584	0.960095
H133	H	1.198002	0.323224	0.077038
H134	H	1.698002	0.823224	0.577038
O135	O	1.371848	0.031268	0.579285
O136	O	1.871848	0.531268	1.079285
H137	H	1.296070	0.036049	0.614016
H138	H	1.796070	0.536049	1.114016
H139	H	1.485574	0.345121	-0.076909
H140	H	1.985574	0.845121	0.423091
O141	O	1.371610	0.031304	0.420927
O142	O	1.871610	0.531304	0.920927
H143	H	1.295731	0.036012	0.386274
H144	H	1.795731	0.536012	0.886274
O145	O	1.501127	-0.002601	0.344180
O146	O	2.001127	0.497399	0.844180
H147	H	1.554970	0.030015	0.304875
H148	H	2.054970	0.530015	0.804875
H149	H	1.524097	0.571964	0.000057
H150	H	2.024097	1.071964	0.500057
H151	H	1.199699	-0.185203	0.195796
H152	H	1.699699	0.314797	0.695796
H153	H	1.156333	0.227833	0.000048
H154	H	1.656333	0.727833	0.500048
H155	H	1.480710	-0.014996	0.666019
H156	H	1.980710	0.485004	1.166019
O157	O	1.501191	-0.002607	0.814388
O158	O	2.001191	0.497393	1.314388
H159	H	1.555035	0.030004	0.775080
H160	H	2.055035	0.530004	1.275080
H161	H	1.531651	0.256461	0.000078
H162	H	2.031651	0.756461	0.500078
O163	O	1.179328	-0.197619	0.655927
O164	O	1.679328	0.302381	1.155927
H165	H	1.125509	-0.230247	0.695234
H166	H	1.625509	0.269753	1.195234
O167	O	1.179280	-0.197621	0.344152
O168	O	1.679280	0.302379	0.844152
H169	H	1.124280	-0.168164	0.378905
H170	H	1.624280	0.331836	0.878905
O171	O	1.503151	0.487727	-0.088142
O172	O	2.003151	0.987727	0.411858
H173	H	1.456460	0.517218	-0.127999
H174	H	1.956460	1.017218	0.372001
O175	O	1.548048	0.715077	0.000046
O176	O	2.048048	1.215077	0.500046
H177	H	1.620868	0.683200	0.000068
H178	H	2.120868	1.183200	0.500068
