data_functionalizedCrystal
_audit_creation_method	'MofGen! by Chris Wilmer'
_symmetry_space_group_name_H-M	'P1'
_symmetry_Int_Tables_number	1
_symmetry_cell_setting	triclinic
loop_
_symmetry_equiv_pos_as_xyz
  x,y,z
_cell_length_a	23.532407
_cell_length_b	23.532357
_cell_length_c	13.930277
_cell_angle_alpha	89.989902
_cell_angle_beta	89.995466
_cell_angle_gamma	82.838519
loop_
_atom_site_label
_atom_site_type_symbol
_atom_site_fract_x
_atom_site_fract_y
_atom_site_fract_z
O1	O	0.755249	0.069136	-0.079782
O2	O	0.589384	0.079140	-0.079799
O3	O	0.677333	-0.008796	-0.079770
O4	O	0.667300	0.157072	-0.079810
O5	O	0.677321	-0.008797	0.079892
O6	O	0.589372	0.079138	0.079863
O7	O	0.755237	0.069135	0.079880
Zn8	Zn	0.672303	0.074136	0.105221
Zn9	Zn	0.672319	0.074138	-0.105140
O10	O	0.667288	0.157070	0.079851
C11	C	0.568162	0.078884	0.000031
C12	C	0.504945	0.078118	0.000025
C13	C	0.677076	-0.030013	0.000064
C14	C	0.676322	-0.093232	0.000073
C15	C	0.238788	0.022922	0.000065
C16	C	0.298188	0.023633	0.000064
O17	O	0.334940	-0.020154	0.000108
N18	N	0.320805	0.075911	0.000045
C19	C	0.284018	0.127480	0.000036
O20	O	0.308710	0.172012	0.000020
C21	C	0.224619	0.126768	0.000043
C22	C	0.202006	0.074487	0.000053
C23	C	0.216174	-0.029355	0.000075
C24	C	0.156778	-0.030066	0.000074
C25	C	0.119996	0.021499	0.000062
C26	C	0.142610	0.073776	0.000051
C27	C	0.187833	0.178337	0.000041
C28	C	0.128431	0.177620	0.000049
C29	C	0.105818	0.125339	0.000058
C30	C	0.046431	0.124630	0.000038
N31	N	0.023815	0.072353	0.000057
C32	C	0.060597	0.020787	0.000069
C33	C	0.408760	0.128971	0.000022
C34	C	0.468158	0.129684	0.000008
C35	C	0.482324	0.025837	0.000038
C36	C	0.422925	0.025125	0.000045
C37	C	0.386143	0.076694	0.000041
C38	C	-0.064140	0.019297	0.000065
C39	C	-0.123542	0.018591	0.000060
C40	C	-0.137702	0.122438	0.000035
C41	C	-0.078306	0.123145	0.000035
C42	C	-0.041525	0.071570	0.000054
O43	O	0.009644	0.168394	-0.000002
O44	O	0.035897	-0.023737	0.000097
C45	C	0.671592	-0.485242	-0.087011
C46	C	0.670874	-0.544641	-0.087017
O47	O	0.670490	-0.575357	-0.161034
N48	N	0.670512	-0.574354	0.000014
C49	C	0.670861	-0.544662	0.087056
O50	O	0.670487	-0.575389	0.161081
C51	C	0.671574	-0.485263	0.087060
C52	C	0.671942	-0.455555	0.000024
C53	C	0.671959	-0.455533	-0.174040
C54	C	0.672677	-0.396138	-0.174034
C55	C	0.673028	-0.366451	-0.086999
C56	C	0.672661	-0.396160	0.000030
C57	C	0.671919	-0.455573	0.174101
C58	C	0.672632	-0.396170	0.174098
C59	C	0.673000	-0.366462	0.087062
C60	C	0.673730	-0.307078	0.087071
N61	N	0.674092	-0.277366	0.000040
C62	C	0.673741	-0.307053	-0.086995
C63	C	0.669363	-0.669404	0.087039
C64	C	0.668654	-0.728802	0.087036
C65	C	0.668666	-0.728777	-0.087037
C66	C	0.669379	-0.669378	-0.087032
C67	C	0.669725	-0.639692	0.000009
C68	C	0.675250	-0.182318	-0.086976
C69	C	0.675971	-0.122918	-0.086962
C70	C	0.675956	-0.122948	0.087110
C71	C	0.675238	-0.182344	0.087097
C72	C	0.674883	-0.212027	0.000046
O73	O	0.674113	-0.276324	0.161050
O74	O	0.674108	-0.276318	-0.161008
C75	C	0.776459	0.069390	0.000049
C76	C	0.839676	0.070156	0.000048
C77	C	0.667545	0.178288	0.000015
C78	C	0.668300	0.241506	0.000000
N79	N	0.672296	0.074134	0.248788
N80	N	0.672330	0.074136	-0.248706
C81	C	0.633373	0.113061	0.701044
C82	C	0.711280	0.035211	0.701039
C83	C	0.711273	0.035210	0.600543
C84	C	0.672316	0.074135	0.550293
C85	C	0.633367	0.113062	0.600539
C86	C	0.750226	-0.003713	0.550290
C87	C	0.750221	-0.003716	0.449788
C88	C	0.711261	0.035207	0.399536
C89	C	0.672310	0.074135	0.449788
C90	C	0.633353	0.113060	0.399538
C91	C	0.594398	0.151986	0.449789
C92	C	0.594407	0.151985	0.550287
C93	C	0.711252	0.035209	0.299037
C94	C	0.633346	0.113061	0.299033
H95	H	-0.141950	-0.023984	0.000065
O96	O	-0.028359	-0.030764	-0.000051
C97	C	0.006416	-0.033467	-0.082755
H98	H	0.009171	0.011721	-0.110329
H99	H	-0.012984	-0.059357	-0.140654
C100	C	0.063500	-0.117988	-0.023771
C101	C	0.066889	-0.062487	-0.057633
H102	H	0.100802	-0.135891	-0.008277
H103	H	0.040071	-0.116169	0.031947
H104	H	0.047332	-0.139556	-0.072026
H105	H	0.083051	-0.040918	-0.009374
H106	H	0.090323	-0.064303	-0.113342
H107	H	0.404518	-0.017447	0.000054
O108	O	0.788034	-0.041603	0.599003
C109	C	0.779092	-0.097934	0.574480
H110	H	0.757147	-0.097750	0.501507
H111	H	0.750838	-0.115396	0.631044
C112	C	0.864086	-0.136353	0.659485
C113	C	0.837137	-0.136128	0.569855
H114	H	0.899890	-0.159914	0.656636
H115	H	0.870110	-0.098402	0.676010
H116	H	0.840535	-0.150903	0.706612
H117	H	0.860684	-0.121571	0.522732
H118	H	0.831118	-0.174077	0.553321
H119	H	0.781939	-0.035411	0.408880
H120	H	0.743000	0.003522	0.741956
H121	H	0.742972	0.003519	0.258128
H122	H	0.206234	0.220910	0.000029
H123	H	0.671671	-0.479698	-0.244918
O124	O	0.518117	-0.024219	-0.000071
C125	C	0.552894	-0.026919	-0.082773
H126	H	0.555637	0.018269	-0.110358
H127	H	0.533504	-0.052821	-0.140666
C128	C	0.609999	-0.111421	-0.023765
C129	C	0.613373	-0.055920	-0.057640
H130	H	0.647305	-0.129313	-0.008264
H131	H	0.586569	-0.109604	0.031952
H132	H	0.593839	-0.132999	-0.072015
H133	H	0.629526	-0.034342	-0.009386
H134	H	0.636807	-0.057735	-0.113348
O135	O	0.134885	-0.080889	-0.000033
C136	C	0.153705	-0.112298	-0.082724
H137	H	0.194813	-0.097009	-0.110305
H138	H	0.119291	-0.105511	-0.140624
C139	C	0.114728	-0.195205	-0.023701
C140	C	0.165221	-0.176430	-0.057573
H141	H	0.121830	-0.234765	-0.008190
H142	H	0.102047	-0.174044	0.032008
H143	H	0.086055	-0.189545	-0.071958
H144	H	0.193890	-0.182084	-0.009312
H145	H	0.177908	-0.197594	-0.113273
H146	H	0.246117	-0.071348	0.000088
O147	O	0.092783	0.227769	-0.000002
C148	C	0.125485	0.274060	0.000013
H149	H	0.169905	0.259343	-0.030210
H150	H	0.129621	0.290099	0.076607
C151	C	0.041060	0.340917	-0.025492
C152	C	0.095615	0.322842	-0.062620
H153	H	0.022634	0.371010	-0.064123
H154	H	0.019027	0.309730	-0.025499
H155	H	0.044514	0.354279	0.038336
H156	H	0.092160	0.309474	-0.126442
H157	H	0.117647	0.354028	-0.062626
H158	H	0.669678	-0.645193	-0.157905
O159	O	0.676191	-0.094060	0.171622
C160	C	0.627278	-0.052961	0.176785
H161	H	0.592593	-0.066159	0.127388
H162	H	0.638975	-0.009466	0.153389
C163	C	0.647502	-0.032779	0.341428
C164	C	0.604899	-0.048992	0.280763
H165	H	0.633698	-0.030328	0.405566
H166	H	0.680456	-0.060467	0.337949
H167	H	0.657245	0.003465	0.321920
H168	H	0.595162	-0.085238	0.300264
H169	H	0.571942	-0.021310	0.284247
O170	O	0.668245	-0.757547	-0.171647
C171	C	0.619085	-0.736304	-0.224589
H172	H	0.603157	-0.690933	-0.199847
H173	H	0.584138	-0.765019	-0.212521
C174	C	0.653671	-0.791325	-0.362531
C175	C	0.634111	-0.735598	-0.332149
H176	H	0.662939	-0.790891	-0.428879
H177	H	0.686791	-0.805638	-0.326863
H178	H	0.624545	-0.815248	-0.352467
H179	H	0.663240	-0.711677	-0.342202
H180	H	0.600997	-0.721280	-0.367821
H181	H	0.486564	0.172256	-0.000013
O182	O	0.373113	0.179122	-0.000039
C183	C	0.405819	0.225411	-0.000035
H184	H	0.450237	0.210689	-0.030259
H185	H	0.409958	0.241453	0.076556
C186	C	0.321397	0.292271	-0.025546
C187	C	0.375951	0.274191	-0.062675
H188	H	0.302973	0.322362	-0.064180
H189	H	0.299362	0.261086	-0.025545
H190	H	0.324854	0.305636	0.038280
H191	H	0.372493	0.260819	-0.126494
H192	H	0.397985	0.305375	-0.062688
H193	H	0.674959	-0.206479	-0.157860
O194	O	0.674816	-0.211263	0.171576
C195	C	0.625063	-0.238876	0.176795
H196	H	0.608508	-0.245514	0.101229
H197	H	0.590797	-0.211275	0.219756
C198	C	0.659701	-0.289200	0.319351
C199	C	0.639370	-0.297358	0.226538
H200	H	0.668525	-0.325273	0.350038
H201	H	0.693220	-0.270596	0.315838
H202	H	0.631143	-0.266198	0.355139
H203	H	0.667931	-0.320353	0.190748
H204	H	0.605857	-0.315967	0.230047
O205	O	0.672907	-0.367320	-0.258634
C206	C	0.623400	-0.375152	-0.311529
H207	H	0.588741	-0.386762	-0.260549
H208	H	0.634135	-0.411176	-0.365747
C209	C	0.644205	-0.305104	-0.427548
C210	C	0.601635	-0.319358	-0.364932
H211	H	0.630781	-0.270688	-0.460494
H212	H	0.677561	-0.299828	-0.391914
H213	H	0.653147	-0.335128	-0.472721
H214	H	0.592699	-0.289337	-0.319754
H215	H	0.568278	-0.324627	-0.400560
O216	O	-0.056430	0.173979	0.000059
C217	C	-0.101636	0.219339	0.000016
H218	H	-0.141903	0.203608	0.030241
H219	H	-0.110124	0.235228	-0.076587
C220	C	-0.035698	0.287993	0.025497
C221	C	-0.085154	0.268674	0.062628
H222	H	-0.025531	0.318427	0.064115
H223	H	-0.005242	0.257434	0.025522
H224	H	-0.042778	0.301230	-0.038338
H225	H	-0.078071	0.255431	0.126457
H226	H	-0.115609	0.299232	0.062615
H227	H	0.676272	-0.098733	-0.157840
O228	O	-0.173519	0.172474	0.000069
C229	C	-0.230793	0.160629	0.000053
H230	H	-0.232811	0.115905	0.030283
H231	H	-0.247985	0.162892	-0.076543
C232	C	-0.264928	0.259978	0.025539
C233	C	-0.267407	0.205049	0.062676
H234	H	-0.287514	0.287379	0.064164
H235	H	-0.226342	0.267959	0.025547
H236	H	-0.279254	0.261856	-0.038291
H237	H	-0.253075	0.203169	0.126499
H238	H	-0.305992	0.197068	0.062680
H239	H	0.668363	-0.752987	0.157909
O240	O	0.669729	-0.640661	0.171683
C241	C	0.669241	-0.679626	0.248488
H242	H	0.686768	-0.724424	0.222961
H243	H	0.623467	-0.679713	0.275242
C244	C	0.685341	-0.606539	0.362082
C245	C	0.706872	-0.661559	0.330731
H246	H	0.708550	-0.595393	0.412816
H247	H	0.685667	-0.580286	0.310338
H248	H	0.647196	-0.606618	0.384370
H249	H	0.745013	-0.661477	0.308432
H250	H	0.706552	-0.687811	0.382473
H251	H	0.671621	-0.479751	0.244975
H252	H	0.672906	-0.372001	0.244979
H253	H	0.601621	0.144757	0.258126
H254	H	0.562682	0.183682	0.408864
O255	O	0.556550	0.189718	0.599209
C256	C	0.521594	0.159394	0.657350
H257	H	0.544539	0.114711	0.672405
H258	H	0.479522	0.155741	0.618642
C259	C	0.481067	0.246445	0.734323
C260	C	0.509250	0.191566	0.752820
H261	H	0.473450	0.266291	0.793211
H262	H	0.504616	0.266876	0.695149
H263	H	0.446010	0.243393	0.702063
H264	H	0.544310	0.194619	0.785068
H265	H	0.485707	0.171136	0.792001
H266	H	0.601655	0.144753	0.741960
