data_functionalizedCrystal
_audit_creation_method	'MofGen! by Chris Wilmer'
_symmetry_space_group_name_H-M	'P1'
_symmetry_Int_Tables_number	1
_symmetry_cell_setting	triclinic
loop_
_symmetry_equiv_pos_as_xyz
  x,y,z
_cell_length_a	19.851628
_cell_length_b	12.970454
_cell_length_c	12.970454
_cell_angle_alpha	59.999776
_cell_angle_beta	90.003352
_cell_angle_gamma	59.998287
loop_
_atom_site_label
_atom_site_type_symbol
_atom_site_fract_x
_atom_site_fract_y
_atom_site_fract_z
Zr1	Zr	0.648978	1.128404	-0.135184
O2	O	0.541412	1.343513	-0.299829
O3	O	0.681953	0.913307	-0.084711
O4	O	0.681954	1.128397	-0.299802
O5	O	0.541410	1.128424	0.084928
O6	O	0.792815	1.128377	-0.299781
O7	O	0.541411	1.128423	-0.084738
O8	O	0.792814	0.743621	0.084977
O9	O	0.541412	1.513180	-0.299830
O10	O	0.778751	1.001760	-0.063170
O11	O	0.696015	1.001775	0.063434
O12	O	0.696017	1.255016	-0.189807
O13	O	0.613281	1.255031	-0.063202
Zr14	Zr	0.825788	1.128373	0.135447
Zr15	Zr	0.825790	1.128372	-0.135151
Zr16	Zr	0.648977	1.128405	0.135414
Zr17	Zr	0.648978	1.399003	-0.135186
Zr18	Zr	0.825788	0.857773	0.135449
O19	O	0.792814	1.343470	0.084974
O20	O	0.792815	1.343468	-0.299782
O21	O	0.541410	1.343515	0.084927
O22	O	0.933354	0.913264	0.300092
O23	O	0.933356	0.913262	-0.084664
O24	O	0.681951	0.913309	0.300045
O25	O	0.933356	1.128353	-0.084665
O26	O	0.792813	1.128380	0.300065
O27	O	0.681951	1.128400	0.300044
O28	O	0.933355	1.128354	0.085001
O29	O	0.681954	1.513155	-0.299804
O30	O	0.792813	0.743622	0.300067
O31	O	0.933354	0.743597	0.300093
O32	O	0.933355	0.743595	0.085003
O33	O	0.541411	1.513181	-0.084740
O34	O	0.681953	1.513156	-0.084714
O35	O	0.778750	1.001761	0.190070
O36	O	0.861485	1.001746	0.063465
O37	O	0.778751	1.255001	-0.063172
O38	O	0.696015	1.255017	0.063433
C39	C	0.737383	0.789909	0.000133
C40	C	0.737383	0.675032	0.000134
C41	C	0.516219	1.128428	0.000090
C42	C	0.441157	1.128442	0.000076
C43	C	0.214702	1.266495	-0.068929
C44	C	0.192341	1.197470	-0.118959
C45	C	0.303751	1.128404	0.000112
C46	C	0.192371	1.197438	0.050119
C47	C	0.171019	1.128378	0.000147
C48	C	0.282378	1.059378	-0.049987
C49	C	0.282406	1.059366	0.119158
C50	C	0.260098	0.990240	0.069157
C51	C	0.380213	1.128423	0.000090
C52	C	0.094561	1.128348	0.000167
C53	C	0.958548	1.128349	0.000173
C54	C	1.033609	1.128335	0.000187
C55	C	0.737385	1.128387	-0.338346
C56	C	0.737385	1.128386	-0.453222
C57	C	0.737383	1.466868	0.000130
C58	C	0.737383	1.581744	0.000129
C59	C	0.737382	1.128390	0.338609
C60	C	0.737381	1.128391	0.453485
C61	C	0.958548	0.789869	0.000174
C62	C	1.033609	0.674979	0.000189
C63	C	0.737382	0.789911	0.338611
C64	C	0.737381	0.675035	0.453487
C65	C	0.958546	0.789871	0.338652
C66	C	1.033607	0.674982	0.453543
C67	C	0.516220	1.466906	-0.338389
C68	C	0.441159	1.581795	-0.453280
C69	C	0.516219	1.466907	0.000089
C70	C	0.441157	1.581798	0.000074
C71	C	0.737385	1.466866	-0.338348
C72	C	0.737385	1.581742	-0.453225
C73	C	1.025672	0.621033	-0.065918
C74	C	1.096193	0.513096	-0.065930
C75	C	1.174650	0.459100	0.000174
C76	C	1.182586	0.513057	0.066283
C77	C	1.112065	0.620999	0.066286
C78	C	1.112051	0.621020	0.441410
C79	C	1.182585	0.513084	0.549352
C80	C	1.174673	0.459104	0.669425
C81	C	1.096221	0.513076	0.681555
C82	C	1.025689	0.621018	0.573614
C83	C	0.362716	1.635770	-0.441147
C84	C	0.292181	1.743739	-0.549089
C85	C	0.300093	1.797725	-0.669162
C86	C	0.378545	1.743746	-0.681292
C87	C	0.449077	1.635786	-0.573351
C88	C	0.449094	1.635755	0.066170
C89	C	0.378573	1.743722	0.066152
C90	C	0.300116	1.797721	0.000044
C91	C	0.292180	1.743759	-0.066060
C92	C	0.362701	1.635802	-0.066048
H93	H	0.153531	1.255832	-0.219621
H94	H	0.512948	1.591840	-0.583245
N95	N	0.945568	0.676114	0.586040
N96	N	0.938525	0.627893	0.693261
H97	H	0.881941	0.666799	0.702048
H98	H	0.961794	0.664995	-0.119763
H99	H	1.246475	0.469078	0.120101
N100	N	0.354607	1.580650	-0.318514
N101	N	0.284555	1.628878	-0.307722
H102	H	0.278821	1.589960	-0.221115
H103	H	1.118539	0.664909	0.120126
N104	N	0.331086	0.986246	0.245402
N105	N	0.346221	1.052690	0.274635
H106	H	0.380598	1.001063	0.363798
N107	N	1.120159	0.676122	0.318777
N108	N	1.190212	0.627915	0.307985
H109	H	1.195946	0.666827	0.221378
H110	H	1.246457	0.469151	0.539453
H111	H	0.242654	1.885633	-0.757044
H112	H	0.321073	1.001056	-0.092381
H113	H	1.232112	0.371211	0.757306
N114	N	0.354571	1.580685	-0.133550
N115	N	0.317761	1.520490	-0.105515
H116	H	0.312012	1.481569	-0.153192
H117	H	0.278704	0.873382	0.127544
N118	N	1.088061	0.458011	-0.133468
N119	N	1.018002	0.506229	-0.192467
H120	H	1.012256	0.467328	-0.240166
H121	H	0.242700	1.885627	0.000045
H122	H	0.153570	1.255828	0.092397
N123	N	0.212058	1.798848	-0.536658
N124	N	0.205014	1.750614	-0.429439
H125	H	0.148429	1.789531	-0.420655
N126	N	1.246665	0.348810	0.000169
N127	N	1.297455	0.372807	-0.042602
H128	H	1.348304	0.294900	-0.042609
H129	H	1.089792	0.469110	0.779333
N130	N	0.386633	1.798859	-0.803938
N131	N	0.456674	1.750654	-0.814771
H132	H	0.462386	1.789571	-0.901392
N133	N	0.191555	1.412971	-0.142287
N134	N	0.149745	1.496803	-0.256917
H135	H	0.133399	1.600250	-0.308730
N136	N	0.529225	1.580621	0.133713
N137	N	0.536284	1.628834	0.192711
H138	H	0.592875	1.589907	0.240414
N139	N	0.212029	1.798946	-0.133580
N140	N	0.149079	1.895330	-0.133566
H141	H	0.092469	1.934306	-0.181247
H142	H	0.385050	1.787639	0.119986
