data_functionalizedCrystal
_audit_creation_method	'MofGen! by Chris Wilmer'
_symmetry_space_group_name_H-M	'P1'
_symmetry_Int_Tables_number	1
_symmetry_cell_setting	triclinic
loop_
_symmetry_equiv_pos_as_xyz
  x,y,z
_cell_length_a	12.811445
_cell_length_b	12.811415
_cell_length_c	14.586319
_cell_angle_alpha	84.565349
_cell_angle_beta	84.565073
_cell_angle_gamma	83.528277
loop_
_atom_site_label
_atom_site_type_symbol
_atom_site_fract_x
_atom_site_fract_y
_atom_site_fract_z
O1	O	1.393289	0.141406	-0.203829
O2	O	1.087772	0.156771	-0.179708
O3	O	1.248216	-0.003670	-0.179703
O4	O	1.232844	0.301847	-0.203834
O5	O	1.248205	-0.003673	-0.027221
O6	O	1.087761	0.156769	-0.027226
O7	O	1.393277	0.141403	-0.051347
Cu8	Cu	1.240518	0.149086	-0.025364
Cu9	Cu	1.240531	0.149089	-0.205691
O10	O	1.232833	0.301845	-0.051352
C11	C	1.048659	0.155908	-0.100144
C12	C	0.932130	0.153326	-0.090243
C13	C	0.713167	0.148496	-0.237890
C14	C	0.603677	0.146071	-0.228590
C15	C	0.603659	0.146056	-0.062345
C16	C	0.713148	0.148482	-0.071644
C17	C	0.767898	0.149700	-0.159420
C18	C	0.877391	0.152118	-0.168718
C19	C	0.877369	0.152112	-0.002474
C20	C	0.767880	0.149686	0.006826
C21	C	1.247349	-0.042779	-0.100140
C22	C	1.244769	-0.159309	-0.090240
C23	C	1.239915	-0.378266	-0.237889
C24	C	1.237491	-0.487756	-0.228592
C25	C	1.237490	-0.487779	-0.062347
C26	C	1.239914	-0.378290	-0.071644
C27	C	1.241128	-0.323537	-0.159419
C28	C	1.243559	-0.214046	-0.168716
C29	C	1.243551	-0.214071	-0.002471
C30	C	1.241127	-0.323560	0.006826
C31	C	1.432391	0.142267	-0.130913
C32	C	1.548920	0.144849	-0.140820
C33	C	1.233700	0.340954	-0.130917
C34	C	1.236280	0.457484	-0.140823
N35	N	1.240516	0.149083	0.101468
N36	N	1.240541	0.149083	-0.332523
C37	C	1.311585	0.078064	0.336473
C38	C	1.311588	0.078061	0.432454
C39	C	1.169465	0.220106	0.432465
C40	C	1.169458	0.220103	0.336487
C41	C	1.240524	0.149083	0.288493
C42	C	1.240534	0.149084	0.480452
C43	C	1.240537	0.149081	0.584520
C44	C	1.240520	0.149083	0.184419
H45	H	0.921967	0.153110	-0.240190
H46	H	1.111607	0.277930	0.471552
H47	H	0.921943	0.153090	0.061423
N48	N	1.236206	-0.546777	-0.313236
H49	H	1.170218	-0.583986	-0.308381
H50	H	1.237390	-0.495401	-0.370196
H51	H	1.240913	-0.333687	-0.309359
H52	H	1.244542	-0.169499	0.061425
H53	H	0.559061	0.145074	0.009117
N54	N	1.388246	0.001472	0.484199
H55	H	1.347952	-0.045211	0.531260
H56	H	1.433242	-0.043438	0.439161
N57	N	0.708824	0.148378	0.101493
H58	H	0.630988	0.148095	0.095380
H59	H	0.735197	0.083077	0.140481
H60	H	1.369449	0.020234	0.297399
N61	N	1.244875	-0.154988	-0.263382
H62	H	1.243736	-0.206277	-0.311681
H63	H	1.180892	-0.101335	-0.266138
H64	H	0.559119	0.145093	-0.292489
H65	H	1.240134	-0.368154	0.078290
H66	H	1.111587	0.277935	0.297419
N67	N	0.772230	0.149794	-0.332554
H68	H	0.720943	0.148657	-0.380855
H69	H	0.809436	0.215789	-0.344757
N70	N	1.236201	-0.546845	0.032315
H71	H	1.234488	-0.624511	0.026293
H72	H	1.301626	-0.535931	0.062247
