data_functionalizedCrystal
_audit_creation_method	'MofGen! by Chris Wilmer'
_symmetry_space_group_name_H-M	'P1'
_symmetry_Int_Tables_number	1
_symmetry_cell_setting	triclinic
loop_
_symmetry_equiv_pos_as_xyz
  x,y,z
_cell_length_a	17.699083
_cell_length_b	17.699083
_cell_length_c	16.776229
_cell_angle_alpha	89.992455
_cell_angle_beta	89.998886
_cell_angle_gamma	83.283015
loop_
_atom_site_label
_atom_site_type_symbol
_atom_site_fract_x
_atom_site_fract_y
_atom_site_fract_z
O1	O	1.004078	0.095713	-0.066178
O2	O	1.504078	0.595713	0.433822
O3	O	0.783700	0.108165	-0.066204
O4	O	1.283700	0.608165	0.433796
O5	O	0.900116	-0.008250	-0.066183
O6	O	1.400116	0.491750	0.433817
O7	O	0.887663	0.212128	-0.066199
O8	O	1.387663	0.712128	0.433801
O9	O	0.900100	-0.008257	0.066393
O10	O	1.400100	0.491743	0.566393
O11	O	0.783685	0.108158	0.066372
O12	O	1.283685	0.608158	0.566372
O13	O	1.004063	0.095706	0.066398
O14	O	1.504063	0.595706	0.566398
Zn15	Zn	0.893871	0.101931	0.087435
Zn16	Zn	1.393871	0.601931	0.587435
Zn17	Zn	0.893892	0.101940	-0.087241
Zn18	Zn	1.393892	0.601940	0.412759
O19	O	0.887648	0.212121	0.066378
O20	O	1.387648	0.712121	0.566378
C21	C	0.755495	0.107716	0.000081
C22	C	1.255495	0.607716	0.500081
C23	C	0.671477	0.106377	0.000071
C24	C	1.171477	0.606377	0.500071
C25	C	0.622856	0.174710	0.000066
C26	C	1.122856	0.674710	0.500066
C27	C	0.543913	0.173448	0.000077
C28	C	1.043913	0.673448	0.500077
C29	C	0.513592	0.103852	0.000086
C30	C	1.013592	0.603852	0.500086
C31	C	0.562219	0.035513	0.000093
C32	C	1.062219	0.535513	0.500093
C33	C	0.641161	0.036776	0.000088
C34	C	1.141161	0.536776	0.500088
C35	C	0.243856	0.030418	0.000113
C36	C	0.743856	0.530418	0.500113
C37	C	0.164908	0.029160	0.000115
C38	C	0.664908	0.529160	0.500115
C39	C	0.146608	0.167090	0.000101
C40	C	0.646608	0.667090	0.500101
C41	C	0.225550	0.168353	0.000097
C42	C	0.725550	0.668353	0.500097
C43	C	0.274170	0.100015	0.000108
C44	C	0.774170	0.600015	0.500108
C45	C	0.359769	0.101384	0.000098
C46	C	0.859769	0.601384	0.500098
C47	C	0.427995	0.102481	0.000090
C48	C	0.927995	0.602481	0.500090
C49	C	0.899662	-0.036451	0.000105
C50	C	1.399662	0.463549	0.500105
C51	C	0.898323	-0.120469	0.000105
C52	C	1.398323	0.379531	0.500105
C53	C	0.966656	-0.169090	0.000114
C54	C	1.466656	0.330910	0.500114
C55	C	0.965394	-0.248033	0.000107
C56	C	1.465394	0.251967	0.500107
C57	C	0.895798	-0.278354	0.000096
C58	C	1.395798	0.221646	0.500096
C59	C	0.827459	-0.229727	0.000085
C60	C	1.327459	0.270273	0.500085
C61	C	0.828722	-0.150785	0.000086
C62	C	1.328722	0.349215	0.500086
C63	C	0.822364	-0.548090	0.000078
C64	C	1.322364	-0.048090	0.500078
C65	C	0.821106	-0.627038	0.000078
C66	C	1.321106	-0.127038	0.500078
C67	C	0.959036	-0.645338	0.000099
C68	C	1.459036	-0.145338	0.500099
C69	C	0.960299	-0.566396	0.000100
C70	C	1.460299	-0.066396	0.500100
C71	C	0.891961	-0.517776	0.000084
C72	C	1.391961	-0.017776	0.500084
C73	C	0.893330	-0.432177	0.000090
C74	C	1.393330	0.067823	0.500090
C75	C	0.894427	-0.363951	0.000096
C76	C	1.394427	0.136049	0.500096
C77	C	1.032268	0.096156	0.000112
C78	C	1.532268	0.596156	0.500112
C79	C	1.116286	0.097494	0.000116
C80	C	1.616286	0.597494	0.500116
C81	C	0.888102	0.240322	0.000087
C82	C	1.388102	0.740322	0.500087
C83	C	0.889440	0.324340	0.000082
C84	C	1.389440	0.824340	0.500082
N85	N	0.893863	0.101924	0.206646
N86	N	1.393863	0.601924	0.706646
N87	N	0.893906	0.101941	-0.206452
N88	N	1.393906	0.601941	0.293548
C89	C	0.945428	0.050396	0.248372
C90	C	1.445428	0.550396	0.748372
C91	C	0.945432	0.050396	0.331824
C92	C	1.445432	0.550396	0.831824
C93	C	0.893875	0.101927	0.373549
C94	C	1.393875	0.601927	0.873549
C95	C	0.842305	0.153457	0.331817
C96	C	1.342305	0.653457	0.831817
C97	C	0.842297	0.153454	0.248366
C98	C	1.342297	0.653454	0.748366
C99	C	0.842332	0.153472	0.668364
C100	C	1.342332	0.653472	1.168364
C101	C	0.842345	0.153473	0.751820
C102	C	1.342345	0.653473	1.251820
C103	C	0.945466	0.050414	0.751822
C104	C	1.445466	0.550414	1.251822
C105	C	0.945459	0.050411	0.668372
C106	C	1.445459	0.550411	1.168372
C107	C	0.893887	0.101938	0.626647
C108	C	1.393887	0.601938	1.126647
C109	C	0.893882	0.101937	0.536158
C110	C	1.393882	0.601937	1.036158
C111	C	0.893882	0.101932	0.464036
C112	C	1.393882	0.601932	0.964036
H113	H	0.140225	-0.027517	0.000124
H114	H	0.640225	0.472483	0.500124
C115	C	0.785626	0.210167	0.622473
C116	C	1.285626	0.710167	1.122473
H117	H	0.793001	0.202788	0.566797
H118	H	1.293001	0.702788	1.066797
H119	H	0.793766	0.260665	0.636148
H120	H	1.293766	0.760665	1.136148
H121	H	0.735125	0.202021	0.636152
H122	H	1.235125	0.702021	1.136152
H123	H	0.764429	-0.651721	0.000071
H124	H	1.264429	-0.151721	0.500071
H125	H	0.987419	0.008438	0.365798
H126	H	1.487419	0.508438	0.865798
H127	H	0.680748	-0.018868	0.000091
H128	H	1.180748	0.481132	0.500091
H129	H	0.504328	0.229092	0.000072
H130	H	1.004328	0.729092	0.500072
C131	C	0.785616	0.210146	0.797716
C132	C	1.285616	0.710146	1.297716
H133	H	0.754892	0.240826	0.760915
H134	H	1.254892	0.740826	1.260915
H135	H	0.812772	0.241626	0.830266
H136	H	1.312772	0.741626	1.330266
H137	H	0.754173	0.182940	0.830274
H138	H	1.254173	0.682940	1.330274
H139	H	0.770792	-0.254420	0.000071
H140	H	1.270792	0.245580	0.500071
C141	C	0.656202	0.251268	0.000055
C142	C	1.156202	0.751268	0.500055
H143	H	0.615936	0.291783	0.000062
H144	H	1.115936	0.791783	0.500062
H145	H	0.686615	0.254632	-0.046178
H146	H	1.186615	0.754632	0.453822
H147	H	0.686618	0.254624	0.046292
H148	H	1.186618	0.754624	0.546292
C149	C	1.036854	-0.533047	0.000108
C150	C	1.536854	-0.033047	0.500108
H151	H	1.077372	-0.573311	0.000105
H152	H	1.577372	-0.073311	0.500105
H153	H	1.040211	-0.502636	0.046340
H154	H	1.540211	-0.002636	0.546340
H155	H	1.040215	-0.502629	-0.046131
H156	H	1.540215	-0.002629	0.453869
H157	H	0.987444	0.008452	0.634402
H158	H	1.487444	0.508452	1.134402
H159	H	0.773078	-0.111198	0.000078
H160	H	1.273078	0.388802	0.500078
H161	H	0.800322	0.195412	0.365793
H162	H	1.300322	0.695412	0.865793
H163	H	0.250232	0.225025	0.000085
H164	H	0.750232	0.725025	0.500085
C165	C	0.785580	0.210137	0.202467
C166	C	1.285580	0.710137	0.702467
H167	H	0.754880	0.240833	0.239267
H168	H	1.254880	0.740833	0.739267
H169	H	0.754124	0.182949	0.169921
H170	H	1.254124	0.682949	0.669921
H171	H	0.812747	0.241611	0.169905
H172	H	1.312747	0.741611	0.669905
H173	H	0.283434	-0.025228	0.000123
H174	H	0.783434	0.474772	0.500123
C175	C	0.093124	0.242262	0.000100
C176	C	0.593124	0.742262	0.500100
H177	H	0.041766	0.231546	0.000113
H178	H	0.541766	0.731546	0.500113
H179	H	0.102298	0.270807	-0.046137
H180	H	0.602298	0.770807	0.453863
H181	H	0.102306	0.270802	0.046334
H182	H	0.602306	0.770802	0.546334
C183	C	1.043214	-0.135744	0.000126
C184	C	1.543214	0.364256	0.500126
H185	H	1.083729	-0.176010	0.000123
H186	H	1.583729	0.323990	0.500123
H187	H	1.046571	-0.105334	0.046359
H188	H	1.546571	0.394666	0.546359
H189	H	1.046578	-0.105325	-0.046112
H190	H	1.546578	0.394675	0.453888
C191	C	1.002140	-0.006290	0.202483
C192	C	1.502140	0.493710	0.702483
H193	H	1.032845	-0.036983	0.239289
H194	H	1.532845	0.463017	0.739289
H195	H	1.033591	0.020893	0.169918
H196	H	1.533591	0.520893	0.669918
H197	H	0.974966	-0.037767	0.169940
H198	H	1.474966	0.462233	0.669940
H199	H	0.537526	-0.021154	0.000112
H200	H	1.037526	0.478846	0.500112
C201	C	1.002188	-0.006273	0.797722
C202	C	1.502188	0.493727	1.297722
H203	H	0.994805	0.001100	0.853398
H204	H	1.494805	0.501100	1.353398
H205	H	1.052681	0.001883	0.784039
H206	H	1.552681	0.501883	1.284039
H207	H	0.994059	-0.056779	0.784052
H208	H	1.494059	0.443221	1.284052
H209	H	1.021038	-0.287618	0.000116
H210	H	1.521038	0.212382	0.500116
H211	H	0.766718	-0.508512	0.000065
H212	H	1.266718	-0.008512	0.500065
C213	C	1.034210	-0.698819	0.000107
C214	C	1.534210	-0.198819	0.500107
H215	H	1.075838	-0.669453	0.000123
H216	H	1.575838	-0.169453	0.500123
H217	H	1.036595	-0.729989	-0.046126
H218	H	1.536595	-0.229989	0.453874
H219	H	1.036577	-0.730000	0.046345
H220	H	1.536577	-0.230000	0.546345
