data_functionalizedCrystal
_audit_creation_method	'MofGen! by Chris Wilmer'
_symmetry_space_group_name_H-M	'P1'
_symmetry_Int_Tables_number	1
_symmetry_cell_setting	triclinic
loop_
_symmetry_equiv_pos_as_xyz
  x,y,z
_cell_length_a	17.639617
_cell_length_b	17.641144
_cell_length_c	12.759401
_cell_angle_alpha	78.791584
_cell_angle_beta	101.229682
_cell_angle_gamma	92.183191
loop_
_atom_site_label
_atom_site_type_symbol
_atom_site_fract_x
_atom_site_fract_y
_atom_site_fract_z
Zn1	Zn	1.222111	-0.068145	0.941349
Zn2	Zn	1.722111	0.431855	1.441349
Zn3	Zn	1.247698	-0.195104	0.806710
Zn4	Zn	1.747698	0.304896	1.306710
Zn5	Zn	1.095131	-0.093758	0.738391
Zn6	Zn	1.595131	0.406242	1.238391
Zn7	Zn	1.120711	-0.220713	0.955050
Zn8	Zn	1.620711	0.279287	1.455050
O9	O	1.171413	-0.144430	0.860375
O10	O	1.671413	0.355570	1.360375
O11	O	1.331791	-0.063550	0.946347
O12	O	1.831791	0.436450	1.446347
O13	O	1.227462	-0.181661	0.650627
O14	O	1.727462	0.318339	1.150627
O15	O	1.090562	0.015904	0.730988
O16	O	1.590562	0.515904	1.230988
O17	O	1.350590	-0.156826	0.847428
O18	O	1.850590	0.343174	1.347428
O19	O	1.183854	0.034721	0.880101
O20	O	1.683854	0.534721	1.380101
O21	O	1.115372	-0.107203	0.600434
O22	O	1.615372	0.392797	1.100434
O23	O	0.992238	-0.132035	0.744273
O24	O	1.492238	0.367965	1.244273
O25	O	1.134158	-0.200473	1.100253
O26	O	1.634158	0.299527	1.600253
O27	O	1.011031	-0.225308	0.903452
O28	O	1.511031	0.274692	1.403452
O29	O	1.208657	-0.088383	1.090187
O30	O	1.708657	0.411617	1.590187
O31	O	1.252266	-0.304765	0.860713
O32	O	1.752266	0.195235	1.360713
O33	O	1.158969	-0.323579	0.969698
O34	O	1.658969	0.176421	1.469698
C35	C	0.974076	-0.184230	0.817937
C36	C	1.474076	0.315770	1.317937
C37	C	0.889658	-0.201275	0.799812
C38	C	1.389658	0.298725	1.299812
C39	C	1.211190	-0.341721	0.924133
C40	C	1.711190	0.158279	1.424133
C41	C	1.228276	-0.426109	0.951459
C42	C	1.728276	0.073891	1.451459
C43	C	1.041884	-0.752875	0.652971
C44	C	1.541884	-0.252875	1.152971
C45	C	1.057951	-0.832167	0.678653
C46	C	1.557951	-0.332167	1.178653
C47	C	1.154986	-0.812467	0.833967
C48	C	1.654986	-0.312467	1.333967
C49	C	1.138923	-0.733172	0.808301
C50	C	1.638923	-0.233172	1.308301
C51	C	1.082372	-0.703382	0.717801
C52	C	1.582372	-0.203382	1.217801
C53	C	1.179412	-0.683679	0.873131
C54	C	1.679412	-0.183679	1.373131
C55	C	1.163353	-0.604390	0.847464
C56	C	1.663353	-0.104390	1.347464
C57	C	1.106807	-0.574593	0.756967
C58	C	1.606807	-0.074593	1.256967
C59	C	1.066314	-0.624093	0.692134
C60	C	1.566314	-0.124093	1.192134
C61	C	1.235967	-0.713469	0.963626
C62	C	1.735967	-0.213469	1.463626
C63	C	1.276455	-0.663977	1.028456
C64	C	1.776455	-0.163977	1.528456
C65	C	1.260393	-0.584687	1.002794
C66	C	1.760393	-0.084687	1.502794
C67	C	1.203846	-0.554890	0.912297
C68	C	1.703846	-0.054890	1.412297
C69	C	1.300886	-0.535188	1.067627
C70	C	1.800886	-0.035188	1.567627
C71	C	1.284827	-0.455898	1.041959
C72	C	1.784827	0.044102	1.541959
C73	C	1.187788	-0.475601	0.886629
C74	C	1.687788	0.024399	1.386629
C75	C	0.563136	-0.014924	0.998320
C76	C	1.063136	0.485076	1.498320
C77	C	0.483817	-0.030960	0.981274
C78	C	0.983817	0.469040	1.481274
C79	C	0.503381	-0.127927	0.878024
C80	C	1.003381	0.372073	1.378024
C81	C	0.582704	-0.111902	0.895066
C82	C	1.082704	0.388098	1.395066
C83	C	0.612575	-0.055399	0.955213
C84	C	1.112575	0.444601	1.455213
C85	C	0.632143	-0.152377	0.851959
C86	C	1.132143	0.347623	1.351959
C87	C	0.711459	-0.136351	0.868995
C88	C	1.211459	0.363649	1.368995
C89	C	0.741336	-0.079849	0.929137
C90	C	1.241336	0.420151	1.429137
C91	C	0.691891	-0.039373	0.972249
C92	C	1.191891	0.460627	1.472249
C93	C	0.602270	-0.208875	0.791805
C94	C	1.102270	0.291125	1.291805
C95	C	0.651709	-0.249351	0.748699
C96	C	1.151709	0.250649	1.248699
C97	C	0.731027	-0.233328	0.765741
C98	C	1.231027	0.266672	1.265741
C99	C	0.760904	-0.176827	0.825883
C100	C	1.260904	0.323173	1.325883
C101	C	0.780472	-0.273804	0.722629
C102	C	1.280472	0.226196	1.222629
C103	C	0.859787	-0.257778	0.739664
C104	C	1.359787	0.242222	1.239664
C105	C	0.840219	-0.160800	0.842919
C106	C	1.340219	0.339200	1.342919
C107	C	1.369520	-0.104475	0.902980
C108	C	1.869520	0.395525	1.402980
C109	C	1.453941	-0.087448	0.921136
C110	C	1.953941	0.412552	1.421136
C111	C	1.171407	-0.144428	1.134406
C112	C	1.671407	0.355572	1.634406
C113	C	1.171405	-0.144427	1.251182
C114	C	1.671405	0.355573	1.751182
C115	C	1.131501	0.053636	0.796395
C116	C	1.631501	0.553636	1.296395
C117	C	1.114492	0.138039	0.769131
C118	C	1.614492	0.638039	1.269131
C119	C	1.113050	-0.105660	1.279918
C120	C	1.613050	0.394340	1.779918
C121	C	1.113053	-0.105667	1.389645
C122	C	1.613053	0.394333	1.889645
C123	C	1.229771	-0.183207	1.441891
C124	C	1.729771	0.316793	1.941891
C125	C	1.229765	-0.183205	1.332167
C126	C	1.729765	0.316795	1.832167
C127	C	1.045666	-0.060889	1.249754
C128	C	1.545666	0.439111	1.749754
C129	C	1.045668	-0.060896	1.359481
C130	C	1.545668	0.439104	1.859481
C131	C	1.171415	-0.144447	1.587413
C132	C	1.671415	0.355553	2.087413
C133	C	1.171414	-0.144436	1.470633
C134	C	1.671414	0.355564	1.970633
H135	H	1.141732	-0.451347	0.812942
H136	H	1.641732	0.048653	1.312942
Br137	Br	0.494624	-0.230619	0.768673
Br138	Br	0.994624	0.269381	1.268673
H139	H	1.277274	-0.214786	1.308778
H140	H	1.777274	0.285214	1.808778
Br141	Br	1.085008	-0.466986	0.722131
Br142	Br	1.585008	0.033014	1.222131
H143	H	0.990011	-0.088499	1.212419
H144	H	1.490011	0.411501	1.712419
Br145	Br	1.308968	-0.235836	1.551804
Br146	Br	1.808968	0.264164	2.051804
H147	H	0.900042	-0.290737	0.704563
H148	H	1.400042	0.209263	1.204563
Br149	Br	0.848978	-0.058088	0.952246
Br150	Br	1.348978	0.441912	1.452246
Br151	Br	0.959620	-0.114805	1.407539
Br152	Br	1.459620	0.385195	1.907539
Br153	Br	1.062026	0.039304	1.170501
Br154	Br	1.562026	0.539304	1.670501
Br155	Br	0.603685	0.061750	1.079965
Br156	Br	1.103685	0.561750	1.579965
Br157	Br	1.052030	0.042428	1.383074
Br158	Br	1.552030	0.542428	1.883074
Br159	Br	1.231734	-0.852903	0.956780
Br160	Br	1.731734	-0.352903	1.456780
Br161	Br	0.732439	0.037301	1.053894
Br162	Br	1.232439	0.537301	1.553894
Br163	Br	0.416720	0.023984	1.039772
Br164	Br	0.916720	0.523984	1.539772
H165	H	1.020258	-0.599839	0.618446
H166	H	1.520258	-0.099839	1.118446
H167	H	0.995828	-0.728620	0.579283
H168	H	1.495828	-0.228620	1.079283
H169	H	1.024976	-0.872463	0.625855
H170	H	1.524976	-0.372463	1.125855
H171	H	0.479048	-0.173929	0.829048
H172	H	0.979048	0.326071	1.329048
H173	H	1.322501	-0.688242	1.102139
H174	H	1.822501	-0.188242	1.602139
Br175	Br	1.339782	-0.388723	1.129936
Br176	Br	1.839782	0.111277	1.629936
Br177	Br	1.377641	-0.575624	1.190431
Br178	Br	1.877641	-0.075624	1.690431
Br179	Br	0.739920	-0.350472	0.640984
Br180	Br	1.239920	0.149528	1.140984
H181	H	1.249041	-0.778032	0.984519
H182	H	1.749041	-0.278032	1.484519
Br183	Br	0.611161	-0.326026	0.667066
Br184	Br	1.111161	0.173974	1.167066
H185	H	0.864542	-0.114793	0.891902
H186	H	1.364542	0.385207	1.391902
