data_functionalizedCrystal
_audit_creation_method	'MofGen! by Chris Wilmer'
_symmetry_space_group_name_H-M	'P1'
_symmetry_Int_Tables_number	1
_symmetry_cell_setting	triclinic
loop_
_symmetry_equiv_pos_as_xyz
  x,y,z
_cell_length_a	13.897448
_cell_length_b	10.685909
_cell_length_c	10.686551
_cell_angle_alpha	90.350469
_cell_angle_beta	85.592616
_cell_angle_gamma	94.348259
loop_
_atom_site_label
_atom_site_type_symbol
_atom_site_fract_x
_atom_site_fract_y
_atom_site_fract_z
Zn1	Zn	-0.466500	-1.972195	-0.561925
Zn2	Zn	-0.639184	-1.955955	-0.352164
Zn3	Zn	-0.464680	-1.746320	-0.368294
Zn4	Zn	-0.614525	-1.762393	-0.577986
O5	O	-0.546222	-1.859216	-0.465092
O6	O	-0.500488	-2.145576	-0.520628
O7	O	-0.625594	-1.914624	-0.178761
O8	O	-0.329943	-1.776353	-0.394008
O9	O	-0.627358	-2.133645	-0.366517
O10	O	-0.331279	-1.942302	-0.536269
O11	O	-0.497387	-1.760606	-0.190611
O12	O	-0.473476	-1.572917	-0.409581
O13	O	-0.585330	-1.803746	-0.751398
O14	O	-0.583566	-1.584725	-0.563641
O15	O	-0.476577	-1.957887	-0.739599
O16	O	-0.770892	-1.930208	-0.382090
O17	O	-0.752775	-1.787999	-0.548001
C18	C	-0.525648	-1.533307	-0.490105
C19	C	-0.516869	-1.393883	-0.500836
C20	C	-0.796833	-1.859121	-0.465063
C21	C	-0.904050	-1.859199	-0.465083
C22	C	-1.100349	-1.859337	-0.465152
C23	C	-0.991114	-1.859257	-0.465118
C24	C	-0.294634	-1.859347	-0.465146
C25	C	-0.187422	-1.859402	-0.465169
C26	C	-0.528406	-1.884421	-0.792287
C27	C	-0.520814	-1.895162	-0.931718
C28	C	-0.566869	-1.186397	-0.439973
C29	C	-0.575646	-1.325820	-0.429247
C30	C	-0.563904	-1.834181	-0.139164
C31	C	-0.571240	-1.823683	0.000285
H32	H	-0.459831	-1.345487	-0.570342
H33	H	-0.620223	-1.754273	-0.951261
O34	O	-0.651198	-1.389903	-0.337177
H35	H	-0.646461	-1.493027	-0.342906
H36	H	-0.471835	-1.964585	-0.980178
