data_functionalizedCrystal
_audit_creation_method	'MofGen! by Chris Wilmer'
_symmetry_space_group_name_H-M	'P1'
_symmetry_Int_Tables_number	1
_symmetry_cell_setting	triclinic
loop_
_symmetry_equiv_pos_as_xyz
  x,y,z
_cell_length_a	18.215407
_cell_length_b	18.215405
_cell_length_c	21.395356
_cell_angle_alpha	89.973989
_cell_angle_beta	89.978290
_cell_angle_gamma	90.017245
loop_
_atom_site_label
_atom_site_type_symbol
_atom_site_fract_x
_atom_site_fract_y
_atom_site_fract_z
Zn1	Zn	1.125111	-0.293111	-0.354237
Zn2	Zn	1.375111	-0.043111	-0.104237
Zn3	Zn	1.625111	0.206889	0.145763
Zn4	Zn	1.875111	0.456889	0.395763
Zn5	Zn	1.125016	-0.416179	-0.249463
Zn6	Zn	1.375016	-0.166179	0.000537
Zn7	Zn	1.625016	0.083821	0.250537
Zn8	Zn	1.875016	0.333821	0.500537
Zn9	Zn	1.002035	-0.293119	-0.249477
Zn10	Zn	1.252035	-0.043119	0.000523
Zn11	Zn	1.502035	0.206881	0.250523
Zn12	Zn	1.752035	0.456881	0.500523
Zn13	Zn	1.002014	-0.416128	-0.354206
Zn14	Zn	1.252014	-0.166128	-0.104206
Zn15	Zn	1.502014	0.083872	0.145794
Zn16	Zn	1.752014	0.333872	0.395794
O17	O	1.063544	-0.354634	-0.301846
O18	O	1.313544	-0.104634	-0.051846
O19	O	1.563544	0.145366	0.198154
O20	O	1.813544	0.395366	0.448154
O21	O	1.228083	-0.309454	-0.340345
O22	O	1.478083	-0.059454	-0.090345
O23	O	1.728083	0.190546	0.159655
O24	O	1.978083	0.440546	0.409655
O25	O	1.108671	-0.399879	-0.161787
O26	O	1.358671	-0.149879	0.088213
O27	O	1.608671	0.100121	0.338213
O28	O	1.858671	0.350121	0.588213
O29	O	1.018410	-0.190133	-0.263393
O30	O	1.268410	0.059867	-0.013393
O31	O	1.518410	0.309867	0.236607
O32	O	1.768410	0.559867	0.486607
O33	O	1.228013	-0.399871	-0.263368
O34	O	1.478013	-0.149871	-0.013368
O35	O	1.728013	0.100129	0.236632
O36	O	1.978013	0.350129	0.486632
O37	O	1.108834	-0.190127	-0.340360
O38	O	1.358834	0.059873	-0.090360
O39	O	1.608834	0.309873	0.159640
O40	O	1.858834	0.559873	0.409640
O41	O	1.018318	-0.309467	-0.161798
O42	O	1.268318	-0.059467	0.088202
O43	O	1.518318	0.190533	0.338202
O44	O	1.768318	0.440533	0.588202
O45	O	0.899048	-0.309418	-0.263363
O46	O	1.149048	-0.059418	-0.013363
O47	O	1.399048	0.190582	0.236637
O48	O	1.649048	0.440582	0.486637
O49	O	1.018374	-0.399785	-0.441888
O50	O	1.268374	-0.149785	-0.191888
O51	O	1.518374	0.100215	0.058112
O52	O	1.768374	0.350215	0.308112
O53	O	0.899033	-0.399793	-0.340307
O54	O	1.149033	-0.149793	-0.090307
O55	O	1.399033	0.100207	0.159693
O56	O	1.649033	0.350207	0.409693
O57	O	1.108813	-0.309405	-0.441911
O58	O	1.358813	-0.059405	-0.191911
O59	O	1.608813	0.190595	0.058089
O60	O	1.858813	0.440595	0.308089
O61	O	1.108651	-0.519156	-0.263338
O62	O	1.358651	-0.269156	-0.013338
O63	O	1.608651	-0.019156	0.236662
O64	O	1.858651	0.230844	0.486662
O65	O	1.018282	-0.519119	-0.340293
O66	O	1.268282	-0.269119	-0.090293
O67	O	1.518282	-0.019119	0.159707
O68	O	1.768282	0.230881	0.409707
C69	C	0.872338	-0.354602	-0.301834
C70	C	1.122338	-0.104602	-0.051834
C71	C	1.372338	0.145398	0.198166
C72	C	1.622338	0.395398	0.448166
C73	C	0.790539	-0.354606	-0.301843
C74	C	1.040539	-0.104606	-0.051843
C75	C	1.290539	0.145394	0.198157
C76	C	1.540539	0.395394	0.448157
C77	C	0.525512	-0.307644	-0.341992
C78	C	0.775512	-0.057644	-0.091992
C79	C	1.025512	0.192356	0.158008
C80	C	1.275512	0.442356	0.408008
C81	C	0.602371	-0.307632	-0.341990
C82	C	0.852371	-0.057632	-0.091990
C83	C	1.102371	0.192368	0.158010
C84	C	1.352371	0.442368	0.408010
C85	C	0.602317	-0.401648	-0.261714
C86	C	0.852317	-0.151648	-0.011714
C87	C	1.102317	0.098352	0.238286
C88	C	1.352317	0.348352	0.488286
C89	C	0.525460	-0.401663	-0.261719
C90	C	0.775460	-0.151663	-0.011719
C91	C	1.025460	0.098337	0.238281
C92	C	1.275460	0.348337	0.488281
C93	C	0.487059	-0.354657	-0.301857
C94	C	0.737059	-0.104657	-0.051857
C95	C	0.987059	0.145343	0.198143
C96	C	1.237059	0.395343	0.448143
C97	C	0.640776	-0.354630	-0.301850
C98	C	0.890776	-0.104630	-0.051850
C99	C	1.140776	0.145370	0.198150
C100	C	1.390776	0.395370	0.448150
C101	C	0.724109	-0.354617	-0.301847
C102	C	0.974109	-0.104617	-0.051847
C103	C	1.224109	0.145383	0.198153
C104	C	1.474109	0.395383	0.448153
C105	C	0.403720	-0.354670	-0.301861
C106	C	0.653720	-0.104670	-0.051861
C107	C	0.903720	0.145330	0.198139
C108	C	1.153720	0.395330	0.448139
C109	C	1.063474	-0.545840	-0.301824
C110	C	1.313474	-0.295840	-0.051824
C111	C	1.563474	-0.045840	0.198176
C112	C	1.813474	0.204160	0.448176
C113	C	1.063511	-0.627639	-0.301836
C114	C	1.313511	-0.377639	-0.051836
C115	C	1.563511	-0.127639	0.198164
C116	C	1.813511	0.122361	0.448164
C117	C	1.110617	-0.815769	-0.341967
C118	C	1.360617	-0.565769	-0.091967
C119	C	1.610617	-0.315769	0.158033
C120	C	1.860617	-0.065769	0.408033
C121	C	1.110643	-0.892628	-0.341979
C122	C	1.360643	-0.642628	-0.091979
C123	C	1.610643	-0.392628	0.158021
C124	C	1.860643	-0.142628	0.408021
C125	C	1.016563	-0.892747	-0.261764
C126	C	1.266563	-0.642747	-0.011764
C127	C	1.516563	-0.392747	0.238236
C128	C	1.766563	-0.142747	0.488236
C129	C	1.016533	-0.815890	-0.261756
C130	C	1.266533	-0.565890	-0.011756
C131	C	1.516533	-0.315890	0.238244
C132	C	1.766533	-0.065890	0.488244
C133	C	1.063564	-0.777403	-0.301856
C134	C	1.313564	-0.527403	-0.051856
C135	C	1.563564	-0.277403	0.198144
C136	C	1.813564	-0.027403	0.448144
C137	C	1.063621	-0.931119	-0.301876
C138	C	1.313621	-0.681119	-0.051876
C139	C	1.563621	-0.431119	0.198124
C140	C	1.813621	-0.181119	0.448124
C141	C	1.063649	-1.014452	-0.301889
C142	C	1.313649	-0.764452	-0.051889
C143	C	1.563649	-0.514452	0.198111
C144	C	1.813649	-0.264452	0.448111
C145	C	1.063535	-0.694064	-0.301845
C146	C	1.313535	-0.444064	-0.051845
C147	C	1.563535	-0.194064	0.198155
C148	C	1.813535	0.055936	0.448155
C149	C	1.255497	-0.354667	-0.301859
C150	C	1.505497	-0.104667	-0.051859
C151	C	1.755497	0.145333	0.198141
C152	C	2.005497	0.395333	0.448141
C153	C	1.337296	-0.354681	-0.301864
C154	C	1.587296	-0.104681	-0.051864
C155	C	1.837296	0.145319	0.198136
C156	C	2.087296	0.395319	0.448136
C157	C	1.063602	-0.354588	-0.465269
C158	C	1.313602	-0.104588	-0.215269
C159	C	1.563602	0.145412	0.034731
C160	C	1.813602	0.395412	0.284731
C161	C	1.063627	-0.354569	-0.534911
C162	C	1.313627	-0.104569	-0.284911
C163	C	1.563627	0.145431	-0.034911
C164	C	1.813627	0.395431	0.215089
C165	C	1.063635	-0.162681	-0.301881
C166	C	1.313635	0.087319	-0.051881
C167	C	1.563635	0.337319	0.198119
C168	C	1.813635	0.587319	0.448119
C169	C	1.063674	-0.080882	-0.301896
C170	C	1.313674	0.169118	-0.051896
C171	C	1.563674	0.419118	0.198104
C172	C	1.813674	0.669118	0.448104
C173	C	1.016592	-0.307486	-0.567619
C174	C	1.266592	-0.057486	-0.317619
C175	C	1.516592	0.192514	-0.067619
C176	C	1.766592	0.442514	0.182381
C177	C	1.016590	-0.307473	-0.633055
C178	C	1.266590	-0.057473	-0.383055
C179	C	1.516590	0.192527	-0.133055
C180	C	1.766590	0.442527	0.116945
C181	C	1.063635	-0.354534	-0.665779
C182	C	1.313635	-0.104534	-0.415779
C183	C	1.563635	0.145466	-0.165779
C184	C	1.813635	0.395466	0.084221
C185	C	1.110673	-0.401626	-0.633062
C186	C	1.360673	-0.151626	-0.383062
C187	C	1.610673	0.098374	-0.133062
C188	C	1.860673	0.348374	0.116938
C189	C	1.110668	-0.401643	-0.567628
C190	C	1.360668	-0.151643	-0.317628
C191	C	1.610668	0.098357	-0.067628
C192	C	1.860668	0.348357	0.182372
C193	C	1.129943	-0.360326	-0.769464
C194	C	1.379943	-0.110326	-0.519464
C195	C	1.629943	0.139674	-0.269464
C196	C	1.879943	0.389674	-0.019464
C197	C	1.129948	-0.360304	-0.834897
C198	C	1.379948	-0.110304	-0.584897
C199	C	1.629948	0.139696	-0.334897
C200	C	1.879948	0.389696	-0.084897
C201	C	1.063647	-0.354484	-0.867600
C202	C	1.313647	-0.104484	-0.617600
C203	C	1.563647	0.145516	-0.367600
C204	C	1.813647	0.395516	-0.117600
C205	C	0.997339	-0.348672	-0.834862
C206	C	1.247339	-0.098672	-0.584862
C207	C	1.497339	0.151328	-0.334862
C208	C	1.747339	0.401328	-0.084862
C209	C	0.997335	-0.348690	-0.769428
C210	C	1.247335	-0.098690	-0.519428
C211	C	1.497335	0.151310	-0.269428
C212	C	1.747335	0.401310	-0.019428
C213	C	1.063644	-0.354521	-0.736731
C214	C	1.313644	-0.104521	-0.486731
C215	C	1.563644	0.145479	-0.236731
C216	C	1.813644	0.395479	0.013269
C217	C	1.016606	-0.307384	-0.971261
C218	C	1.266606	-0.057384	-0.721261
C219	C	1.516606	0.192616	-0.471261
C220	C	1.766606	0.442616	-0.221261
C221	C	1.016602	-0.307376	-1.036698
C222	C	1.266602	-0.057376	-0.786698
C223	C	1.516602	0.192624	-0.536698
C224	C	1.766602	0.442624	-0.286698
C225	C	1.110691	-0.401525	-1.036704
C226	C	1.360691	-0.151525	-0.786704
C227	C	1.610691	0.098475	-0.536704
C228	C	1.860691	0.348475	-0.286704
C229	C	1.110689	-0.401537	-0.971269
C230	C	1.360689	-0.151537	-0.721269
C231	C	1.610689	0.098463	-0.471269
C232	C	1.860689	0.348463	-0.221269
C233	C	1.063647	-0.354463	-0.938551
C234	C	1.313647	-0.104463	-0.688551
C235	C	1.563647	0.145537	-0.438551
C236	C	1.813647	0.395537	-0.188551
C237	C	1.063529	-0.354626	-0.139058
C238	C	1.313529	-0.104626	0.110942
C239	C	1.563529	0.145374	0.360942
C240	C	1.813529	0.395374	0.610942
C241	C	1.063647	-0.354439	-0.069417
C242	C	1.313647	-0.104439	0.180583
C243	C	1.563647	0.145561	0.430583
C244	C	1.813647	0.395561	0.680583
H245	H	0.633676	-0.269351	-0.374672
H246	H	0.883676	-0.019351	-0.124672
H247	H	1.133676	0.230649	0.125328
H248	H	1.383676	0.480649	0.375328
H249	H	1.183940	-0.365033	-0.861547
H250	H	1.433940	-0.115033	-0.611547
H251	H	1.683940	0.134967	-0.361547
H252	H	1.933940	0.384967	-0.111547
H253	H	0.978214	-0.784650	-0.229093
H254	H	1.228214	-0.534650	0.020907
H255	H	1.478214	-0.284650	0.270907
H256	H	1.728214	-0.034650	0.520907
H257	H	1.148911	-0.784435	-0.374620
H258	H	1.398911	-0.534435	-0.124620
H259	H	1.648911	-0.284435	0.125380
H260	H	1.898911	-0.034435	0.375380
H261	H	0.943350	-0.343929	-0.861488
H262	H	1.193350	-0.093929	-0.611488
H263	H	1.443350	0.156071	-0.361488
H264	H	1.693350	0.406071	-0.111488
H265	H	0.633592	-0.439917	-0.229033
H266	H	0.883592	-0.189917	0.020967
H267	H	1.133592	0.060083	0.270967
H268	H	1.383592	0.310083	0.520967
H269	H	1.148991	-0.439875	-0.944637
H270	H	1.398991	-0.189875	-0.694637
H271	H	1.648991	0.060125	-0.444637
H272	H	1.898991	0.310125	-0.194637
H273	H	1.148957	-0.923862	-0.374642
H274	H	1.398957	-0.673862	-0.124642
H275	H	1.648957	-0.423862	0.125358
H276	H	1.898957	-0.173862	0.375358
H277	H	0.978285	-0.269158	-0.540985
H278	H	1.228285	-0.019158	-0.290985
H279	H	1.478285	0.230842	-0.040985
H280	H	1.728285	0.480842	0.209015
H281	H	0.978273	-0.924093	-0.229114
H282	H	1.228273	-0.674093	0.020886
H283	H	1.478273	-0.424093	0.270886
H284	H	1.728273	-0.174093	0.520886
H285	H	1.148977	-0.439944	-0.659710
H286	H	1.398977	-0.189944	-0.409710
H287	H	1.648977	0.060056	-0.159710
H288	H	1.898977	0.310056	0.090290
H289	H	0.494151	-0.439950	-0.229037
H290	H	0.744151	-0.189950	0.020963
H291	H	0.994151	0.060050	0.270963
H292	H	1.244151	0.310050	0.520963
H293	H	1.183938	-0.365059	-0.742842
H294	H	1.433938	-0.115059	-0.492842
H295	H	1.683938	0.134941	-0.242842
H296	H	1.933938	0.384941	0.007158
H297	H	1.148973	-0.439983	-0.540997
H298	H	1.398973	-0.189983	-0.290997
H299	H	1.648973	0.060017	-0.040997
H300	H	1.898973	0.310017	0.209003
H301	H	0.978290	-0.269129	-0.659692
H302	H	1.228290	-0.019129	-0.409692
H303	H	1.478290	0.230871	-0.159692
H304	H	1.728290	0.480871	0.090308
H305	H	0.943344	-0.343959	-0.742775
H306	H	1.193344	-0.093959	-0.492775
H307	H	1.443344	0.156041	-0.242775
H308	H	1.693344	0.406041	0.007225
H309	H	0.978301	-0.269054	-0.944621
H310	H	1.228301	-0.019054	-0.694621
H311	H	1.478301	0.230946	-0.444621
H312	H	1.728301	0.480946	-0.194621
H313	H	0.978296	-0.269038	-1.063328
H314	H	1.228296	-0.019038	-0.813328
H315	H	1.478296	0.230962	-0.563328
H316	H	1.728296	0.480962	-0.313328
H317	H	0.494249	-0.269369	-0.374675
H318	H	0.744249	-0.019369	-0.124675
H319	H	0.994249	0.230631	0.125325
H320	H	1.244249	0.480631	0.375325
H321	H	1.148998	-0.439842	-1.063347
H322	H	1.398998	-0.189842	-0.813347
H323	H	1.648998	0.060158	-0.563347
H324	H	1.898998	0.310158	-0.313347
