data_functionalizedCrystal
_audit_creation_method	'MofGen! by Chris Wilmer'
_symmetry_space_group_name_H-M	'P1'
_symmetry_Int_Tables_number	1
_symmetry_cell_setting	triclinic
loop_
_symmetry_equiv_pos_as_xyz
  x,y,z
_cell_length_a	14.971490
_cell_length_b	14.971486
_cell_length_c	14.048226
_cell_angle_alpha	89.996181
_cell_angle_beta	89.992815
_cell_angle_gamma	83.614888
loop_
_atom_site_label
_atom_site_type_symbol
_atom_site_fract_x
_atom_site_fract_y
_atom_site_fract_z
O1	O	-1.186943	-0.116577	0.079213
O2	O	-0.686943	0.383423	0.579213
O3	O	-0.926544	-0.130532	0.079203
O4	O	-0.426544	0.369468	0.579203
O5	O	-1.063723	0.006645	0.079201
O6	O	-0.563723	0.506645	0.579201
O7	O	-1.049764	-0.253755	0.079214
O8	O	-0.549764	0.246245	0.579214
O9	O	-1.063710	0.006647	-0.079120
O10	O	-0.563710	0.506647	0.420880
O11	O	-0.926530	-0.130531	-0.079118
O12	O	-0.426530	0.369469	0.420882
O13	O	-1.186930	-0.116576	-0.079109
O14	O	-0.686930	0.383424	0.420891
Zn15	Zn	-1.056728	-0.123553	-0.104250
Zn16	Zn	-0.556728	0.376447	0.395750
Zn17	Zn	-1.056745	-0.123555	0.104345
Zn18	Zn	-0.556745	0.376445	0.604345
O19	O	-1.049751	-0.253753	-0.079107
O20	O	-0.549751	0.246247	0.420893
C21	C	-0.893212	-0.129907	0.000041
C22	C	-0.393212	0.370093	0.500041
C23	C	-0.793915	-0.128035	0.000038
C24	C	-0.293915	0.371965	0.500038
C25	C	-0.366217	-0.119958	0.086356
C26	C	0.133783	0.380042	0.586356
C27	C	-0.459517	-0.121714	0.086354
C28	C	0.040483	0.378286	0.586354
C29	C	-0.506156	-0.122597	0.000050
C30	C	-0.006156	0.377403	0.500050
C31	C	-0.459490	-0.121715	-0.086257
C32	C	0.040510	0.378285	0.413743
C33	C	-0.366193	-0.119952	-0.086253
C34	C	0.133807	0.380048	0.413747
C35	C	-0.653952	-0.125391	-0.086258
C36	C	-0.153952	0.374609	0.413742
C37	C	-0.747256	-0.127156	-0.086263
C38	C	-0.247256	0.372844	0.413737
C39	C	-0.747277	-0.127153	0.086348
C40	C	-0.247277	0.372847	0.586348
C41	C	-0.653979	-0.125390	0.086352
C42	C	-0.153979	0.374610	0.586352
C43	C	-0.607320	-0.124510	0.000045
C44	C	-0.107320	0.375490	0.500045
C45	C	-1.063092	0.039971	0.000041
C46	C	-0.563092	0.539971	0.500041
C47	C	-1.061221	0.139268	0.000042
C48	C	-0.561221	0.639268	0.500042
C49	C	-0.220261	-0.117202	0.000053
C50	C	0.279739	0.382798	0.500053
C51	C	-0.319558	-0.119078	0.000056
C52	C	0.180442	0.380922	0.500056
C53	C	-1.050382	-0.287079	0.000056
C54	C	-0.550382	0.212921	0.500056
C55	C	-1.052252	-0.386376	0.000061
C56	C	-0.552252	0.113624	0.500061
N57	N	-1.056723	-0.123552	-0.246611
N58	N	-0.556723	0.376448	0.253389
C59	C	-1.141810	0.196492	0.000044
C60	C	-0.641810	0.696492	0.500044
C61	C	-1.140047	0.289791	0.000053
C62	C	-0.640047	0.789791	0.500053
C63	C	-1.057694	0.325865	0.000054
C64	C	-0.557694	0.825865	0.500054
C65	C	-0.977099	0.268633	0.000055
C66	C	-0.477099	0.768633	0.500055
C67	C	-0.978863	0.175336	0.000052
C68	C	-0.478863	0.675336	0.500052
C69	C	-0.973428	0.463096	0.000058
C70	C	-0.473428	0.963096	0.500058
C71	C	-0.971663	0.556400	0.000059
C72	C	-0.471663	1.056400	0.500059
C73	C	-1.134612	0.577552	0.000060
C74	C	-0.634612	1.077552	0.500060
C75	C	-1.136376	0.484254	0.000057
C76	C	-0.636376	0.984254	0.500057
C77	C	-1.055780	0.427029	0.000056
C78	C	-0.555780	0.927029	0.500056
C79	C	-1.111025	-0.177894	-0.296420
C80	C	-0.611025	0.322106	0.203580
C81	C	-1.111037	-0.177890	-0.396078
C82	C	-0.611037	0.322110	0.103922
C83	C	-1.056741	-0.123548	-0.445924
C84	C	-0.556741	0.376452	0.054076
C85	C	-1.002436	-0.069200	-0.396109
C86	C	-0.502436	0.430800	0.103891
C87	C	-1.002430	-0.069200	-0.296453
C88	C	-0.502430	0.430800	0.203547
C89	C	-1.002451	-0.069206	-0.603823
C90	C	-0.502451	0.430794	-0.103823
C91	C	-1.002455	-0.069207	-0.703486
C92	C	-0.502455	0.430793	-0.203486
C93	C	-1.111058	-0.177896	-0.703448
C94	C	-0.611058	0.322104	-0.203448
C95	C	-1.111052	-0.177896	-0.603792
C96	C	-0.611052	0.322104	-0.103792
C97	C	-1.056746	-0.123549	-0.553983
C98	C	-0.556746	0.376451	-0.053983
N99	N	-1.056758	-0.123549	0.246706
N100	N	-0.556758	0.376451	0.746706
H101	H	-0.328203	-0.119246	-0.156528
H102	H	0.171797	0.380754	0.343472
H103	H	-0.785226	-0.127880	-0.156539
H104	H	-0.285226	0.372120	0.343461
H105	H	-1.200236	0.624149	0.000063
H106	H	-0.700236	1.124149	0.500063
F107	F	-0.509130	-0.122653	-0.178108
F108	F	-0.009130	0.377347	0.321892
H109	H	-1.203435	0.454886	0.000050
H110	H	-0.703435	0.954886	0.500050
F111	F	-0.884014	0.594790	0.000058
F112	F	-0.384014	1.094790	0.500058
F113	F	-1.168814	-0.235734	-0.243378
F114	F	-0.668814	0.264266	0.256622
H115	H	-0.497504	-0.122424	0.156628
H116	H	0.002496	0.377576	0.656628
F117	F	-0.887648	0.402194	0.000059
F118	F	-0.387648	0.902194	0.500059
H119	H	-0.616007	-0.124677	0.156628
H120	H	-0.116007	0.375323	0.656628
H121	H	-0.785271	-0.127871	0.156623
H122	H	-0.285271	0.372129	0.656623
H123	H	-0.958231	-0.024950	-0.436702
H124	H	-0.458231	0.475050	0.063298
F125	F	-0.604298	-0.124445	-0.178117
F126	F	-0.104298	0.375555	0.321883
F127	F	-1.229463	0.158109	0.000034
F128	F	-0.729463	0.658109	0.500034
F129	F	-1.225821	0.350690	0.000054
F130	F	-0.725821	0.850690	0.500054
F131	F	-0.889452	0.307028	0.000066
F132	F	-0.389452	0.807028	0.500066
H133	H	-0.958230	-0.024950	-0.563271
H134	H	-0.458230	0.475050	-0.063271
H135	H	-0.913239	0.128744	0.000050
H136	H	-0.413239	0.628744	0.500050
F137	F	-0.316588	-0.119024	0.178214
F138	F	0.183412	0.380976	0.678214
F139	F	-1.168832	-0.235729	-0.449084
F140	F	-0.668832	0.264271	0.050916
F141	F	-1.168822	-0.235750	-0.550743
F142	F	-0.668822	0.264250	-0.050743
F143	F	-1.168858	-0.235734	-0.756459
F144	F	-0.668858	0.264266	-0.256459
H145	H	-0.958241	-0.024959	-0.744068
H146	H	-0.458241	0.475041	-0.244068
H147	H	-0.958211	-0.024949	-0.255899
H148	H	-0.458211	0.475051	0.244101
