data_functionalizedCrystal
_audit_creation_method	'MofGen! by Chris Wilmer'
_symmetry_space_group_name_H-M	'P1'
_symmetry_Int_Tables_number	1
_symmetry_cell_setting	triclinic
loop_
_symmetry_equiv_pos_as_xyz
  x,y,z
_cell_length_a	16.625546
_cell_length_b	12.759401
_cell_length_c	12.759393
_cell_angle_alpha	90.020566
_cell_angle_beta	89.964881
_cell_angle_gamma	89.979323
loop_
_atom_site_label
_atom_site_type_symbol
_atom_site_fract_x
_atom_site_fract_y
_atom_site_fract_z
Zn1	Zn	-0.321001	-1.606210	-0.593976
Zn2	Zn	0.178999	-1.106210	-0.093976
Zn3	Zn	-0.455855	-1.606077	-0.418282
Zn4	Zn	0.044145	-1.106077	0.081718
Zn5	Zn	-0.321036	-1.430508	-0.418312
Zn6	Zn	0.178964	-0.930508	0.081688
Zn7	Zn	-0.455791	-1.430476	-0.593920
Zn8	Zn	0.044209	-0.930476	-0.093920
O9	O	-0.388421	-1.518318	-0.506123
O10	O	0.111579	-1.018318	-0.006123
O11	O	-0.338902	-1.753213	-0.570680
O12	O	0.161098	-1.253213	-0.070680
O13	O	-0.438013	-1.582745	-0.271265
O14	O	0.061987	-1.082745	0.228735
O15	O	-0.208199	-1.453884	-0.441650
O16	O	0.291801	-0.953884	0.058350
O17	O	-0.437979	-1.753116	-0.441599
O18	O	0.062021	-1.253116	0.058401
O19	O	-0.208173	-1.582971	-0.570710
O20	O	0.291827	-1.082971	-0.070710
O21	O	-0.338962	-1.453756	-0.271287
O22	O	0.161038	-0.953756	0.228713
O23	O	-0.338900	-1.283483	-0.441596
O24	O	0.161100	-0.783483	0.058404
O25	O	-0.437870	-1.453830	-0.740949
O26	O	0.062130	-0.953830	-0.240949
O27	O	-0.437904	-1.283460	-0.570615
O28	O	0.062096	-0.783460	-0.070615
O29	O	-0.338840	-1.582940	-0.740990
O30	O	0.161160	-1.082940	-0.240990
O31	O	-0.568679	-1.582714	-0.441545
O32	O	-0.068679	-1.082714	0.058455
O33	O	-0.568632	-1.453701	-0.570585
O34	O	-0.068632	-0.953701	-0.070585
C35	C	-0.388399	-1.245350	-0.506103
C36	C	0.111601	-0.745350	-0.006103
C37	C	-0.388409	-1.128574	-0.506120
C38	C	0.111591	-0.628574	-0.006120
C39	C	-0.336911	-1.073763	-0.573436
C40	C	0.163089	-0.573763	-0.073436
C41	C	-0.336916	-0.964039	-0.573441
C42	C	0.163084	-0.464039	-0.073441
C43	C	-0.439924	-0.963946	-0.438812
C44	C	0.060076	-0.463946	0.061188
C45	C	-0.439914	-1.073668	-0.438802
C46	C	0.060086	-0.573668	0.061198
C47	C	-0.597912	-1.518218	-0.506079
C48	C	-0.097912	-1.018218	-0.006079
C49	C	-0.687533	-1.518272	-0.506095
C50	C	-0.187533	-1.018272	-0.006095
C51	C	-1.015709	-1.518455	-0.506204
C52	C	-0.515709	-1.018455	-0.006204
C53	C	-0.924400	-1.518401	-0.506177
C54	C	-0.424400	-1.018401	-0.006177
C55	C	-0.851624	-1.518363	-0.506149
C56	C	-0.351624	-1.018363	-0.006149
C57	C	-0.760309	-1.518310	-0.506123
C58	C	-0.260309	-1.018310	-0.006123
C59	C	-0.178112	-1.518446	-0.506190
C60	C	0.321888	-1.018446	-0.006190
C61	C	-0.088491	-1.518501	-0.506218
C62	C	0.411509	-1.018501	-0.006218
C63	C	-0.388344	-1.518396	-0.780156
C64	C	0.111656	-1.018396	-0.280156
C65	C	-0.388311	-1.518430	-0.896933
C66	C	0.111689	-1.018430	-0.396933
C67	C	-0.388436	-0.792351	-0.506138
C68	C	0.111564	-0.292351	-0.006138
C69	C	-0.388424	-0.909128	-0.506135
C70	C	0.111576	-0.409128	-0.006135
C71	C	-0.336738	-1.585663	-0.951818
C72	C	0.163262	-1.085663	-0.451818
C73	C	-0.336703	-1.585681	-1.061542
C74	C	0.163297	-1.085681	-0.561542
C75	C	-0.439821	-1.451230	-1.061486
C76	C	0.060179	-0.951230	-0.561486
C77	C	-0.439851	-1.451208	-0.951764
C78	C	0.060149	-0.951208	-0.451764
C79	C	-0.388440	-1.518300	-0.233155
C80	C	0.111560	-1.018300	0.266845
C81	C	-0.388246	-1.518470	-0.116379
C82	C	0.111754	-1.018470	0.383621
H83	H	-0.294980	-0.919417	-0.628255
H84	H	0.205020	-0.419417	-0.128255
H85	H	-0.481858	-0.919228	-0.384005
H86	H	0.018142	-0.419228	0.115995
Br87	Br	-0.509841	-1.359947	-0.877270
Br88	Br	-0.009841	-0.859947	-0.377270
Br89	Br	-0.509798	-1.148061	-0.347424
Br90	Br	-0.009798	-0.648061	0.152576
H91	H	-0.481785	-1.396502	-1.106144
H92	H	0.018215	-0.896502	-0.606144
Br93	Br	-0.266714	-1.676937	-1.136025
Br94	Br	0.233286	-1.176937	-0.636025
Br95	Br	-0.267010	-1.148275	-0.664792
Br96	Br	0.232990	-0.648275	-0.164792
Br97	Br	-0.266789	-1.676890	-0.877406
Br98	Br	0.233211	-1.176890	-0.377406
