data_functionalizedCrystal
_audit_creation_method	'MofGen! by Chris Wilmer'
_symmetry_space_group_name_H-M	'P1'
_symmetry_Int_Tables_number	1
_symmetry_cell_setting	triclinic
loop_
_symmetry_equiv_pos_as_xyz
  x,y,z
_cell_length_a	9.065218
_cell_length_b	11.026607
_cell_length_c	8.140239
_cell_angle_alpha	89.998310
_cell_angle_beta	89.997198
_cell_angle_gamma	96.800951
loop_
_atom_site_label
_atom_site_type_symbol
_atom_site_fract_x
_atom_site_fract_y
_atom_site_fract_z
O1	O	2.004900	0.178453	-0.136613
O2	O	1.579265	0.193091	-0.136615
O3	O	1.756806	0.008731	-0.136608
O4	O	1.827358	0.362813	-0.136620
O5	O	1.756793	0.008729	0.136619
O6	O	1.579252	0.193088	0.136612
O7	O	2.004886	0.178451	0.136614
Zn8	Zn	1.792067	0.185769	0.179994
Zn9	Zn	1.792084	0.185772	-0.179994
O10	O	1.827345	0.362810	0.136608
C11	C	1.523921	0.191683	-0.000001
C12	C	1.359029	0.187476	-0.000002
C13	C	1.743784	-0.036624	0.000004
C14	C	1.704984	-0.171765	-0.000002
C15	C	1.812117	-0.244393	-0.000004
C16	C	1.772018	-0.384068	-0.000011
C17	C	2.060230	0.179859	-0.000003
C18	C	2.225122	0.184065	-0.000013
C19	C	1.840368	0.408165	-0.000008
C20	C	1.879168	0.543306	-0.000012
N21	N	1.792066	0.185767	0.425677
N22	N	1.792095	0.185765	-0.425677
H23	H	1.933525	-0.203167	0.000006
O24	O	1.627243	-0.433432	0.000056
C25	C	1.619435	-0.561900	0.000004
H26	H	1.727045	-0.590321	0.051732
H27	H	1.602947	-0.597319	-0.131081
C28	C	1.355646	-0.581089	0.043612
C29	C	1.487810	-0.615996	0.107159
H30	H	1.274451	-0.614460	0.109703
H31	H	1.360905	-0.494538	0.043641
H32	H	1.341927	-0.610607	-0.065624
H33	H	1.501537	-0.586465	0.216384
H34	H	1.482551	-0.702544	0.107151
O35	O	2.023966	-0.407391	-0.000229
C36	C	2.052800	-0.334724	-0.141756
H37	H	1.944516	-0.304507	-0.188934
H38	H	2.103464	-0.390024	-0.240844
C39	C	2.295128	-0.258574	-0.040825
C40	C	2.162134	-0.221453	-0.098762
H41	H	2.362575	-0.188705	-0.014308
H42	H	2.275705	-0.307535	0.054522
H43	H	2.337329	-0.304659	-0.123408
H44	H	2.119926	-0.175382	-0.016171
H45	H	2.181552	-0.172481	-0.194094
H46	H	1.583576	-0.212990	-0.000014
