data_functionalizedCrystal
_audit_creation_method	'MofGen! by Chris Wilmer'
_symmetry_space_group_name_H-M	'P1'
_symmetry_Int_Tables_number	1
_symmetry_cell_setting	triclinic
loop_
_symmetry_equiv_pos_as_xyz
  x,y,z
_cell_length_a	11.792241
_cell_length_b	10.654550
_cell_length_c	10.268362
_cell_angle_alpha	90.001331
_cell_angle_beta	89.994572
_cell_angle_gamma	95.660827
loop_
_atom_site_label
_atom_site_type_symbol
_atom_site_fract_x
_atom_site_fract_y
_atom_site_fract_z
O1	O	0.159421	-1.667390	-0.108204
O2	O	0.659421	-1.167390	0.391796
O3	O	0.174609	-1.301869	-0.108228
O4	O	0.674609	-0.801869	0.391772
O5	O	0.001865	-1.493500	-0.108206
O6	O	0.501865	-0.993500	0.391794
O7	O	0.332165	-1.475759	-0.108225
O8	O	0.832165	-0.975759	0.391775
O9	O	0.001858	-1.493483	0.108395
O10	O	0.501858	-0.993483	0.608395
O11	O	0.174602	-1.301852	0.108373
O12	O	0.674602	-0.801852	0.608373
O13	O	0.159414	-1.667374	0.108397
O14	O	0.659414	-1.167374	0.608397
Cu15	Cu	0.167007	-1.484611	0.128162
Cu16	Cu	0.667007	-0.984611	0.628162
Cu17	Cu	0.167016	-1.484631	-0.127993
Cu18	Cu	0.667016	-0.984631	0.372007
O19	O	0.332158	-1.475743	0.108375
O20	O	0.832158	-0.975743	0.608375
C21	C	-0.040432	-1.492377	0.000094
C22	C	0.459568	-0.992377	0.500094
C23	C	-0.166453	-1.489042	0.000092
C24	C	0.333547	-0.989042	0.500092
C25	C	0.173491	-1.255066	0.000070
C26	C	0.673491	-0.755066	0.500070
C27	C	0.170154	-1.115632	0.000061
C28	C	0.670154	-0.615632	0.500061
C29	C	0.160533	-1.714177	0.000097
C30	C	0.660533	-1.214177	0.500097
C31	C	0.163869	-1.853611	0.000097
C32	C	0.663869	-1.353611	0.500097
C33	C	-0.397180	-1.482908	0.000070
C34	C	0.102820	-0.982908	0.500070
C35	C	-0.268787	-1.486316	0.000082
C36	C	0.231213	-0.986316	0.500082
C37	C	0.374455	-1.476865	0.000073
C38	C	0.874455	-0.976865	0.500073
C39	C	0.500477	-1.480201	0.000066
C40	C	1.000477	-0.980201	0.500066
N41	N	0.167001	-1.484606	0.308328
N42	N	0.667001	-0.984606	0.808328
C43	C	0.271863	-1.035859	0.000059
C44	C	0.771863	-0.535859	0.500059
C45	C	0.268721	-0.904847	0.000081
C46	C	0.768721	-0.404847	0.500081
C47	C	0.062152	-0.933394	0.000103
C48	C	0.562152	-0.433394	0.500103
C49	C	0.065295	-1.064403	0.000090
C50	C	0.565295	-0.564403	0.500090
N51	N	0.167014	-1.484646	-0.308159
N52	N	0.667014	-0.984646	0.191841
C53	C	0.167014	-1.484625	0.573999
C54	C	0.667014	-0.984625	1.073999
C55	C	0.167010	-1.484611	0.426161
C56	C	0.667010	-0.984611	0.926161
H57	H	0.357246	-1.077564	0.000045
H58	H	0.857246	-0.577564	0.500045
O59	O	-0.050943	-0.878143	0.000125
O60	O	0.449057	-0.378143	0.500125
H61	H	-0.036044	-0.773641	0.000122
H62	H	0.463956	-0.273641	0.500122
O63	O	0.378426	-0.818810	0.000084
O64	O	0.878426	-0.318810	0.500084
H65	H	0.358630	-0.719103	0.000115
H66	H	0.858630	-0.219103	0.500115
O67	O	-0.044409	-1.150460	0.000095
O68	O	0.455591	-0.650460	0.500095
H69	H	-0.117852	-1.092831	0.000100
H70	H	0.382148	-0.592831	0.500100
