data_functionalizedCrystal
_audit_creation_method	'MofGen! by Chris Wilmer'
_symmetry_space_group_name_H-M	'P1'
_symmetry_Int_Tables_number	1
_symmetry_cell_setting	triclinic
loop_
_symmetry_equiv_pos_as_xyz
  x,y,z
_cell_length_a	10.654562
_cell_length_b	15.995292
_cell_length_c	9.730223
_cell_angle_alpha	90.001861
_cell_angle_beta	89.996961
_cell_angle_gamma	83.979360
loop_
_atom_site_label
_atom_site_type_symbol
_atom_site_fract_x
_atom_site_fract_y
_atom_site_fract_z
O1	O	1.666251	0.117652	-0.114370
O2	O	1.300625	0.128846	-0.114351
O3	O	1.493471	0.001417	-0.114363
O4	O	1.473405	0.245082	-0.114358
O5	O	1.493468	0.001420	0.114217
O6	O	1.300623	0.128849	0.114228
O7	O	1.666249	0.117656	0.114210
Zn8	Zn	1.483435	0.123253	0.150511
Zn9	Zn	1.483438	0.123249	-0.150652
O10	O	1.473403	0.245085	0.114222
C11	C	1.253837	0.128024	-0.000059
C12	C	1.114427	0.125558	-0.000053
C13	C	1.048911	0.124410	0.124535
C14	C	0.917920	0.122099	0.124512
C15	C	0.917972	0.122090	-0.124698
C16	C	1.048962	0.124394	-0.124674
C17	C	1.048879	0.124419	0.268415
C18	C	0.917887	0.122109	0.268392
C19	C	1.492653	-0.029782	-0.000077
C20	C	1.490204	-0.122749	-0.000087
C21	C	1.481204	-0.460540	-0.000074
C22	C	1.620395	-0.436415	0.000430
C23	C	1.623040	-0.339724	-0.000090
C24	C	1.485670	-0.292958	-0.000079
C25	C	1.416082	-0.322467	-0.130602
C26	C	1.414407	-0.419268	-0.130706
C27	C	1.411562	-0.419138	0.129232
C28	C	1.416720	-0.322615	0.130952
C29	C	1.488187	-0.198247	-0.000087
C30	C	1.478683	-0.555251	-0.000075
C31	C	1.713037	0.118478	-0.000085
C32	C	1.852446	0.120944	-0.000100
C33	C	1.474221	0.276284	-0.000068
C34	C	1.476669	0.369251	-0.000066
N35	N	1.483442	0.123255	0.356048
N36	N	1.483441	0.123240	-0.356189
C37	C	1.568856	0.066849	0.427969
C38	C	1.568853	0.066839	0.571852
C39	C	1.398018	0.179649	0.571880
C40	C	1.398016	0.179654	0.428000
C41	C	1.667490	0.001721	0.427953
C42	C	1.667487	0.001711	0.571836
H43	H	1.677539	-0.320380	0.093471
F44	F	1.307106	0.239669	0.648468
F45	F	1.110360	0.048788	0.340633
H46	H	1.462602	-0.445804	-0.228282
F47	F	1.694693	-0.315247	-0.122608
F48	F	1.482941	-0.297955	0.257166
F49	F	1.281016	-0.439068	-0.138446
F50	F	1.468482	-0.455788	0.258542
F51	F	1.285661	-0.280289	0.141268
H52	H	1.637788	-0.059108	0.616452
H53	H	1.309107	-0.433726	0.130119
H54	H	1.328455	0.225577	0.369443
H55	H	1.674044	-0.464098	0.094033
F56	F	1.640588	-0.082398	0.376900
F57	F	0.880261	0.042359	0.326977
H58	H	1.758401	0.022118	0.383323
H59	H	1.763806	0.016060	0.610883
H60	H	1.102303	0.125316	-0.226125
H61	H	0.864654	0.121142	-0.226160
F62	F	0.856370	0.197744	0.340589
H63	H	1.077636	0.185486	0.313060
H64	H	1.673748	-0.465123	-0.092653
H65	H	1.314996	-0.291190	-0.135447
H66	H	1.464408	-0.302126	-0.227744
