data_functionalizedCrystal
_audit_creation_method	'MofGen! by Chris Wilmer'
_symmetry_space_group_name_H-M	'P1'
_symmetry_Int_Tables_number	1
_symmetry_cell_setting	triclinic
loop_
_symmetry_equiv_pos_as_xyz
  x,y,z
_cell_length_a	27.731994
_cell_length_b	26.809956
_cell_length_c	14.519709
_cell_angle_alpha	89.996594
_cell_angle_beta	83.150340
_cell_angle_gamma	90.002666
loop_
_atom_site_label
_atom_site_type_symbol
_atom_site_fract_x
_atom_site_fract_y
_atom_site_fract_z
O1	O	0.641471	0.041410	0.109480
O2	O	1.141471	0.541410	0.609480
O3	O	0.500754	0.041426	0.126217
O4	O	1.000754	0.541426	0.626217
O5	O	0.574844	0.041413	-0.016456
O6	O	1.074844	0.541413	0.483544
O7	O	0.567382	0.041423	0.252153
O8	O	1.067382	0.541423	0.752153
O9	O	0.574830	-0.041546	-0.016434
O10	O	1.074830	0.458454	0.483566
O11	O	0.500740	-0.041533	0.126239
O12	O	1.000740	0.458467	0.626239
O13	O	0.641458	-0.041550	0.109502
O14	O	1.141458	0.458450	0.609502
Zn15	Zn	0.571097	-0.054713	0.117874
Zn16	Zn	1.071097	0.445287	0.617874
Zn17	Zn	0.571115	0.054590	0.117845
Zn18	Zn	1.071115	0.554590	0.617845
O19	O	0.567368	-0.041536	0.252175
O20	O	1.067368	0.458464	0.752175
C21	C	0.482738	-0.000051	0.125884
C22	C	0.982738	0.499949	0.625884
C23	C	0.429077	-0.000045	0.124850
C24	C	0.929077	0.499955	0.624850
N25	N	0.571088	-0.129309	0.117893
N26	N	1.071088	0.370691	0.617893
C27	C	0.096320	-0.045286	0.118345
C28	C	0.596320	0.454714	0.618345
C29	C	-0.105357	-0.045291	0.114412
C30	C	0.394643	0.454709	0.614412
O31	O	-0.131439	-0.083750	0.113874
O32	O	0.368561	0.416250	0.613874
N33	N	-0.130567	-0.000070	0.113911
N34	N	0.369433	0.499930	0.613911
C35	C	-0.105354	0.045155	0.114388
C36	C	0.394646	0.545155	0.614388
O37	O	-0.131423	0.083619	0.113863
O38	O	0.368577	0.583619	0.613863
C39	C	0.096323	0.045161	0.118315
C40	C	0.596323	0.545161	0.618315
C41	C	0.121529	-0.000063	0.118825
C42	C	0.621529	0.499937	0.618825
C43	C	0.121526	-0.090506	0.118854
C44	C	0.621526	0.409494	0.618854
C45	C	0.171942	-0.090504	0.119842
C46	C	0.671942	0.409496	0.619842
C47	C	0.197151	-0.045282	0.120322
C48	C	0.697151	0.454718	0.620322
C49	C	0.171945	-0.000061	0.119813
C50	C	0.671945	0.499939	0.619813
C51	C	0.121536	0.090386	0.118785
C52	C	0.621536	0.590386	0.618785
C53	C	0.171958	0.090383	0.119765
C54	C	0.671958	0.590383	0.619765
C55	C	0.197164	0.045159	0.120274
C56	C	0.697164	0.545159	0.620274
C57	C	0.247570	0.045163	0.121281
C58	C	0.747570	0.545163	0.621281
N59	N	0.272780	-0.000058	0.121781
N60	N	0.772780	0.499942	0.621781
C61	C	0.247570	-0.045281	0.121302
C62	C	0.747570	0.454719	0.621302
C63	C	-0.211237	0.045149	0.112329
C64	C	0.288763	0.545149	0.612329
C65	C	-0.261656	0.045148	0.111349
C66	C	0.238344	0.545148	0.611349
C67	C	-0.261656	-0.045299	0.111371
C68	C	0.238344	0.454701	0.611371
C69	C	-0.211236	-0.045297	0.112357
C70	C	0.288764	0.454703	0.612357
C71	C	-0.186027	-0.000072	0.112829
C72	C	0.313973	0.499928	0.612829
C73	C	0.353447	-0.045273	0.123378
C74	C	0.853447	0.454727	0.623378
C75	C	0.403867	-0.045267	0.124370
C76	C	0.903867	0.454733	0.624370
C77	C	0.403863	0.045179	0.124343
C78	C	0.903863	0.545179	0.624343
C79	C	0.353447	0.045174	0.123356
C80	C	0.853447	0.545174	0.623356
C81	C	0.328241	-0.000056	0.122870
C82	C	0.828241	0.499944	0.622870
O83	O	0.273684	0.083601	0.121809
O84	O	0.773684	0.583601	0.621809
O85	O	0.273650	-0.083738	0.121806
O86	O	0.773650	0.416262	0.621806
C87	C	0.045904	-0.045287	0.117357
C88	C	0.545904	0.454713	0.617357
C89	C	0.020697	-0.000067	0.116848
C90	C	0.520697	0.499933	0.616848
C91	C	0.045907	0.045155	0.117328
C92	C	0.545907	0.545155	0.617328
C93	C	-0.029722	-0.000068	0.115868
C94	C	0.470278	0.499932	0.615868
C95	C	-0.054931	-0.045291	0.115388
C96	C	0.445069	0.454709	0.615388
C97	C	-0.029721	-0.090512	0.115889
C98	C	0.470279	0.409488	0.615889
C99	C	0.020694	-0.090510	0.116877
C100	C	0.520694	0.409490	0.616877
C101	C	0.020697	0.090376	0.116827
C102	C	0.520697	0.590376	0.616827
C103	C	-0.029719	0.090371	0.115840
C104	C	0.470281	0.590371	0.615840
C105	C	-0.054928	0.045148	0.115360
C106	C	0.445072	0.545148	0.615360
C107	C	0.603918	-0.473941	0.054685
C108	C	1.103918	0.026059	0.554685
C109	C	0.603929	-0.682818	0.054671
C110	C	1.103929	-0.182818	0.554671
O111	O	0.631823	-0.709827	0.000935
O112	O	1.131823	-0.209827	0.500935
N113	N	0.571118	-0.708936	0.117825
N114	N	1.071118	-0.208936	0.617825
C115	C	0.538299	-0.682831	0.180983
C116	C	1.038299	-0.182831	0.680983
O117	O	0.510388	-0.709838	0.234692
O118	O	1.010388	-0.209838	0.734692
C119	C	0.538286	-0.473954	0.180992
C120	C	1.038286	0.026046	0.680992
C121	C	0.571102	-0.447839	0.117840
C122	C	1.071102	0.052161	0.617840
C123	C	0.636732	-0.447826	-0.008463
C124	C	1.136732	0.052174	0.491537
C125	C	0.636730	-0.395610	-0.008455
C126	C	1.136730	0.104390	0.491545
C127	C	0.603915	-0.369508	0.054700
C128	C	1.103915	0.130492	0.554700
C129	C	0.571101	-0.395623	0.117847
C130	C	1.071101	0.104377	0.617847
C131	C	0.505465	-0.447850	0.244145
C132	C	1.005465	0.052150	0.744145
C133	C	0.505464	-0.395627	0.244140
C134	C	1.005464	0.104373	0.744140
C135	C	0.538280	-0.369513	0.180988
C136	C	1.038280	0.130487	0.680988
C137	C	0.538284	-0.317305	0.181010
C138	C	1.038284	0.182695	0.681010
N139	N	0.571096	-0.291188	0.117856
N140	N	1.071096	0.208812	0.617856
C141	C	0.603911	-0.317289	0.054701
C142	C	1.103911	0.182711	0.554701
C143	C	0.538309	-0.792494	0.180975
C144	C	1.038309	-0.292494	0.680975
C145	C	0.538313	-0.844713	0.180974
C146	C	1.038313	-0.344713	0.680974
C147	C	0.603943	-0.844697	0.054660
C148	C	1.103943	-0.344697	0.554660
C149	C	0.603941	-0.792477	0.054666
C150	C	1.103941	-0.292477	0.554666
C151	C	0.571120	-0.766377	0.117821
C152	C	1.071120	-0.266377	0.617821
C153	C	0.603906	-0.207631	0.054722
C154	C	1.103906	0.292369	0.554722
C155	C	0.603903	-0.155410	0.054738
C156	C	1.103903	0.344590	0.554738
C157	C	0.538272	-0.155431	0.181047
C158	C	1.038272	0.344569	0.681047
C159	C	0.538276	-0.207647	0.181035
C160	C	1.038276	0.292353	0.681035
C161	C	0.571095	-0.233746	0.117865
C162	C	1.071095	0.266254	0.617865
O163	O	0.510402	-0.290264	0.234711
O164	O	1.010402	0.209736	0.734711
O165	O	0.631811	-0.290273	0.000986
O166	O	1.131811	0.209727	0.500986
C167	C	0.603919	-0.526157	0.054677
C168	C	1.103919	-0.026157	0.554677
C169	C	0.571105	-0.552272	0.117825
C170	C	1.071105	-0.052272	0.617825
C171	C	0.538290	-0.526170	0.180980
C172	C	1.038290	-0.026170	0.680980
C173	C	0.571109	-0.604491	0.117824
C174	C	1.071109	-0.104491	0.617824
C175	C	0.603924	-0.630592	0.054669
C176	C	1.103924	-0.130592	0.554669
C177	C	0.636736	-0.604475	-0.008485
C178	C	1.136736	-0.104475	0.491515
C179	C	0.636734	-0.552259	-0.008478
C180	C	1.136734	-0.052259	0.491522
C181	C	0.505478	-0.552288	0.244134
C182	C	1.005478	-0.052288	0.744134
C183	C	0.505483	-0.604504	0.244122
C184	C	1.005483	-0.104504	0.744122
C185	C	0.538298	-0.630606	0.180967
C186	C	1.038298	-0.130606	0.680967
C187	C	0.659474	-0.000071	0.109834
C188	C	1.159474	0.499929	0.609834
C189	C	0.713135	-0.000074	0.110869
C190	C	1.213135	0.499926	0.610869
C191	C	0.574489	-0.000067	-0.050799
C192	C	1.074489	0.499933	0.449201
C193	C	0.573447	-0.000067	-0.153162
C194	C	1.073447	0.499933	0.346838
N195	N	0.571128	0.129186	0.117819
N196	N	1.071128	0.629186	0.617819
C197	C	0.569611	-0.000053	-0.527989
C198	C	1.069611	0.499947	-0.027989
C199	C	0.570676	-0.000057	-0.423700
C200	C	1.070676	0.499943	0.076300
C201	C	0.571529	-0.000061	-0.340579
C202	C	1.071529	0.499939	0.159421
C203	C	0.572594	-0.000063	-0.236283
C204	C	1.072594	0.499937	0.263717
C205	C	0.567723	-0.000056	0.286518
C206	C	1.067723	0.499944	0.786518
C207	C	0.568765	-0.000052	0.388880
C208	C	1.068765	0.499948	0.888880
H209	H	0.424388	-0.082096	0.124788
H210	H	0.924388	0.417904	0.624788
Br211	Br	-0.063945	-0.151884	0.115244
Br212	Br	0.436055	0.348116	0.615244
H213	H	0.511595	-0.865972	0.232407
H214	H	1.011595	-0.365972	0.732407
H215	H	0.041218	0.127202	0.117215
H216	H	0.541218	0.627202	0.617215
Br217	Br	-0.295860	0.106526	0.110680
Br218	Br	0.204140	0.606526	0.610680
Br219	Br	-0.177032	0.106533	0.112970
Br220	Br	0.322968	0.606533	0.612970
Br221	Br	0.493744	-0.243087	0.266756
Br222	Br	0.993744	0.256913	0.766756
H223	H	0.511555	-0.134171	0.232470
H224	H	1.011555	0.365829	0.732470
H225	H	0.663457	-0.531000	-0.059902
H226	H	1.163457	-0.031000	0.440098
H227	H	0.041213	-0.127336	0.117292
H228	H	0.541213	0.372664	0.617292
Br229	Br	0.460945	-0.639940	0.329841
Br230	Br	0.960945	-0.139940	0.829841
H231	H	0.101021	0.127212	0.118369
H232	H	0.601021	0.627212	0.618369
H233	H	0.663457	-0.625735	-0.059906
H234	H	1.163457	-0.125735	0.440094
H235	H	0.663451	-0.374350	-0.059881
H236	H	1.163451	0.125650	0.440119
H237	H	0.424398	0.081998	0.124738
H238	H	0.924398	0.581998	0.624738
Br239	Br	0.460939	-0.516871	0.329851
Br240	Br	0.960939	-0.016871	0.829851
Br241	Br	0.206168	0.151764	0.120400
Br242	Br	0.706168	0.651764	0.620400
H243	H	0.332922	0.081999	0.122956
H244	H	0.832922	0.581999	0.622956
H245	H	0.192461	-0.127330	0.120251
H246	H	0.692461	0.372670	0.620251
Br247	Br	0.319247	-0.106657	0.122716
Br248	Br	0.819247	0.393343	0.622716
H249	H	0.101006	-0.127333	0.118461
H250	H	0.601006	0.372667	0.618461
Br251	Br	-0.063921	0.151752	0.115157
Br252	Br	0.436079	0.651752	0.615157
H253	H	0.630628	-0.134149	0.003312
H254	H	1.130628	0.365851	0.503312
Br255	Br	0.648446	-0.243043	-0.031010
Br256	Br	1.148446	0.256957	0.468990
H257	H	-0.190717	-0.082122	0.112773
H258	H	0.309283	0.417878	0.612773
H259	H	0.663454	-0.469073	-0.059895
H260	H	1.163454	0.030927	0.440105
H261	H	-0.282190	-0.082120	0.110982
H262	H	0.217810	0.417880	0.610982
Br263	Br	0.460917	-0.360209	0.329851
Br264	Br	0.960917	0.139791	0.829851
Br265	Br	0.648479	-0.757041	-0.031043
Br266	Br	1.148479	-0.257041	0.468957
Br267	Br	0.493764	-0.757078	0.266693
Br268	Br	0.993764	-0.257078	0.766693
Br269	Br	0.648477	-0.880131	-0.031049
Br270	Br	1.148477	-0.380131	0.468951
H271	H	0.478742	-0.469105	0.295568
H272	H	0.978742	0.030895	0.795568
