data_functionalizedCrystal
_audit_creation_method	'MofGen! by Chris Wilmer'
_symmetry_space_group_name_H-M	'P1'
_symmetry_Int_Tables_number	1
_symmetry_cell_setting	triclinic
loop_
_symmetry_equiv_pos_as_xyz
  x,y,z
_cell_length_a	14.395555
_cell_length_b	14.395555
_cell_length_c	14.395555
_cell_angle_alpha	89.997290
_cell_angle_beta	120.001333
_cell_angle_gamma	59.997670
loop_
_atom_site_label
_atom_site_type_symbol
_atom_site_fract_x
_atom_site_fract_y
_atom_site_fract_z
Zr1	Zr	1.016683	-0.121835	-0.894977
O2	O	1.210505	-0.270183	-0.746642
O3	O	0.822879	-0.076357	-0.940446
O4	O	1.016684	-0.270161	-0.940445
O5	O	1.016693	0.076495	-0.746648
O6	O	1.016664	-0.270146	-1.093326
O7	O	1.016700	-0.076379	-0.746643
O8	O	0.669983	0.076535	-1.093328
O9	O	1.363374	-0.270186	-0.746646
O10	O	0.902572	-0.056952	-1.073936
O11	O	0.902582	0.057125	-0.959847
O12	O	1.130762	-0.171055	-0.959846
O13	O	1.130771	-0.056978	-0.845757
Zr14	Zr	1.016641	0.122005	-1.138813
Zr15	Zr	1.016652	-0.121811	-1.138804
Zr16	Zr	1.016672	0.121981	-0.894986
Zr17	Zr	1.260492	-0.121839	-0.894985
Zr18	Zr	0.772832	0.122009	-1.138805
O19	O	1.210445	0.076527	-1.093344
O20	O	1.210460	-0.270149	-1.093332
O21	O	1.210489	0.076493	-0.746654
O22	O	0.822819	0.270353	-1.287149
O23	O	0.822835	-0.076322	-1.287136
O24	O	0.822864	0.270319	-0.940458
O25	O	1.016631	-0.076325	-1.287142
O26	O	1.016640	0.270331	-1.093345
O27	O	1.016660	0.270316	-0.940464
O28	O	1.016624	0.076549	-1.287148
O29	O	1.363349	-0.270166	-0.940456
O30	O	0.669975	0.270337	-1.093334
O31	O	0.669950	0.270356	-1.287144
O32	O	0.669959	0.076554	-1.287137
O33	O	1.363365	-0.076384	-0.746653
O34	O	1.363341	-0.076365	-0.940463
O35	O	0.902562	0.171225	-1.073944
O36	O	0.902553	0.057148	-1.188033
O37	O	1.130742	-0.056955	-1.073943
O38	O	1.130751	0.057122	-0.959854
C39	C	0.711694	0.000090	-1.016886
C40	C	0.608190	0.000091	-1.016883
C41	C	1.016701	0.000055	-0.711905
C42	C	1.016714	0.000045	-0.608394
C43	C	1.016648	0.305062	-1.016906
C44	C	1.016644	0.408569	-1.016909
C45	C	0.547603	0.062295	-0.954680
C46	C	0.561870	-0.044990	-0.909592
C47	C	0.409528	0.107343	-1.061943
C48	C	0.623884	-0.107256	-0.971732
C49	C	0.471478	0.045154	-1.124143
C50	C	0.485792	-0.062195	-1.079082
C51	C	1.321630	0.000080	-1.016904
C52	C	1.425134	0.000079	-1.016907
C53	C	1.016676	-0.304892	-1.016884
C54	C	1.016680	-0.408399	-1.016881
C55	C	0.892225	0.531372	-1.079111
C56	C	0.954412	0.562203	-1.124197
C57	C	0.954461	0.562161	-0.971847
C58	C	1.078832	0.438037	-1.062058
C59	C	1.078863	0.437998	-0.909648
C60	C	1.141141	0.468756	-0.954707
C61	C	1.141138	-0.062162	-0.485596
C62	C	1.078949	-0.107239	-0.454756
C63	C	1.078913	0.045105	-0.454804
C64	C	0.954525	-0.045095	-0.578918
C65	C	0.954506	0.107309	-0.578962
C66	C	0.892227	0.062258	-0.548195
C67	C	1.016644	0.000104	-0.321875
C68	C	1.016692	0.000080	-0.425354
C69	C	0.711655	0.000120	-1.321876
C70	C	0.608138	0.000132	-1.425384
C71	C	0.711680	0.305067	-1.016897
C72	C	0.608172	0.408575	-1.016897
C73	C	0.711641	0.305097	-1.321886
C74	C	0.608120	0.408615	-1.425398
C75	C	1.321683	-0.304927	-0.711904
C76	C	1.425204	-0.408445	-0.608392
C77	C	1.321669	0.000050	-0.711914
C78	C	1.425186	0.000039	-0.608407
C79	C	1.321644	-0.304897	-1.016894
C80	C	1.425152	-0.408405	-1.016893
C81	C	0.547564	0.062317	-1.548184
C82	C	0.409450	0.107376	-1.579044
C83	C	0.561861	-0.044970	-1.578949
C84	C	0.471324	0.045254	-1.454880
C85	C	0.623810	-0.107152	-1.454789
C86	C	0.485705	-0.062120	-1.485575
C87	C	0.547595	0.406956	-0.954685
C88	C	0.409476	0.499990	-1.061968
C89	C	0.561828	0.499980	-0.909651
C90	C	0.471353	0.500247	-1.124244
C91	C	0.623779	0.500222	-0.971850
C92	C	0.485669	0.593274	-1.079197
C93	C	0.547505	0.531411	-1.423786
C94	C	0.409397	0.562217	-1.516778
C95	C	0.561668	0.562254	-1.516851
C96	C	0.471312	0.438058	-1.517027
C97	C	0.623658	0.438098	-1.517085
C98	C	0.485558	0.468830	-1.610095
H99	H	0.574833	0.114819	-0.902006
O100	O	0.611148	-0.095519	-0.789457
H101	H	0.700202	-0.184038	-0.751664
H102	H	0.458844	-0.114877	-1.131683
O103	O	0.422236	0.095679	-1.244259
H104	H	0.424601	0.171168	-1.251051
O105	O	0.611067	0.501191	-0.789513
H106	H	0.610522	0.578195	-0.782237
O107	O	0.745181	-0.227468	-0.921111
H108	H	0.821631	-0.226514	-0.921455
H109	H	0.317910	0.198049	-1.100041
H110	H	0.574629	0.115008	-1.573629
O111	O	0.745050	0.367236	-1.515811
H112	H	0.783396	0.417951	-1.514671
H113	H	0.901820	0.615723	-1.214896
H114	H	0.787017	0.556821	-1.131788
O115	O	1.148415	0.367371	-1.112677
H116	H	1.147806	0.290577	-1.112334
H117	H	0.317787	0.615702	-1.517681
O118	O	0.745259	-0.227247	-1.383858
H119	H	0.766228	-0.248743	-1.298513
O120	O	0.611189	-0.095467	-1.649777
H121	H	0.635791	-0.043660	-1.676623
O122	O	1.280612	0.434766	-0.885017
H123	H	1.331927	0.384164	-0.922652
O124	O	1.148456	0.367084	-0.789545
H125	H	1.096599	0.417767	-0.752327
H126	H	0.598694	0.615885	-1.517846
O127	O	0.583431	0.565077	-1.318119
H128	H	0.495293	0.615539	-1.317240
O129	O	0.884806	0.633024	-0.921361
H130	H	0.781545	0.659874	-0.973156
O131	O	0.884909	0.227430	-0.649838
H132	H	0.884726	0.226384	-0.727025
O133	O	1.280488	-0.131934	-0.451907
H134	H	1.331837	-0.220941	-0.401405
H135	H	1.131539	-0.197937	-0.401234
H136	H	0.901978	-0.083294	-0.632276
O137	O	0.752766	0.131945	-0.582158
H138	H	0.701446	0.094311	-0.632750
H139	H	0.433978	0.384662	-1.516176
H140	H	0.574690	0.327188	-0.902155
O141	O	0.288095	0.501245	-1.112460
H142	H	0.313024	0.424843	-1.060667
H143	H	1.131521	0.083199	-0.401299
O144	O	0.288031	0.227491	-1.649993
H145	H	0.312930	0.278980	-1.676874
O146	O	0.421806	0.499174	-1.244451
H147	H	0.499557	0.421764	-1.243495
H148	H	0.433911	0.083462	-1.401540
H149	H	0.458694	-0.114736	-1.459914
O150	O	0.449838	0.698776	-1.148984
H151	H	0.411474	0.699502	-1.237941
O152	O	0.745188	0.498915	-0.921336
H153	H	0.783581	0.497741	-0.832259
H154	H	0.458509	0.443181	-1.689728
