data_functionalizedCrystal
_audit_creation_method	'MofGen! by Chris Wilmer'
_symmetry_space_group_name_H-M	'P1'
_symmetry_Int_Tables_number	1
_symmetry_cell_setting	triclinic
loop_
_symmetry_equiv_pos_as_xyz
  x,y,z
_cell_length_a	18.215407
_cell_length_b	16.120531
_cell_length_c	18.215398
_cell_angle_alpha	87.131202
_cell_angle_beta	89.980536
_cell_angle_gamma	87.067235
loop_
_atom_site_label
_atom_site_type_symbol
_atom_site_fract_x
_atom_site_fract_y
_atom_site_fract_z
Zn1	Zn	1.110174	0.331928	-0.430943
Zn2	Zn	1.360174	0.581928	-0.180943
Zn3	Zn	1.610174	0.831928	0.069057
Zn4	Zn	1.860174	1.081928	0.319057
Zn5	Zn	1.103827	0.471344	-0.314104
Zn6	Zn	1.353827	0.721344	-0.064104
Zn7	Zn	1.603827	0.971344	0.185896
Zn8	Zn	1.853827	1.221344	0.435896
Zn9	Zn	0.987107	0.331949	-0.307891
Zn10	Zn	1.237107	0.581949	-0.057891
Zn11	Zn	1.487107	0.831949	0.192109
Zn12	Zn	1.737107	1.081949	0.442109
Zn13	Zn	0.980818	0.471303	-0.437127
Zn14	Zn	1.230818	0.721303	-0.187127
Zn15	Zn	1.480818	0.971303	0.062873
Zn16	Zn	1.730818	1.221303	0.312873
O17	O	1.045482	0.401631	-0.372516
O18	O	1.295482	0.651631	-0.122516
O19	O	1.545482	0.901631	0.127484
O20	O	1.795482	1.151631	0.377484
O21	O	1.212316	0.350430	-0.415456
O22	O	1.462316	0.600430	-0.165456
O23	O	1.712316	0.850430	0.084544
O24	O	1.962316	1.100430	0.334544
O25	O	1.088319	0.452878	-0.210297
O26	O	1.338319	0.702878	0.039703
O27	O	1.588319	0.952878	0.289703
O28	O	1.838319	1.202878	0.539703
O29	O	1.008720	0.215280	-0.319026
O30	O	1.258720	0.465280	-0.069026
O31	O	1.508720	0.715280	0.180974
O32	O	1.758720	0.965280	0.430974
O33	O	1.207653	0.452858	-0.329615
O34	O	1.457653	0.702858	-0.079615
O35	O	1.707653	0.952858	0.170385
O36	O	1.957653	1.202858	0.420385
O37	O	1.099137	0.215265	-0.409431
O38	O	1.349137	0.465265	-0.159431
O39	O	1.599137	0.715265	0.090569
O40	O	1.849137	0.965265	0.340569
O41	O	1.002565	0.350466	-0.205732
O42	O	1.252565	0.600466	0.044268
O43	O	1.502565	0.850466	0.294268
O44	O	1.752565	1.100466	0.544268
O45	O	0.883289	0.350427	-0.325023
O46	O	1.133289	0.600427	-0.075023
O47	O	1.383289	0.850427	0.174977
O48	O	1.633289	1.100427	0.424977
O49	O	0.998002	0.452789	-0.539290
O50	O	1.248002	0.702789	-0.289290
O51	O	1.498002	0.952789	-0.039290
O52	O	1.748002	1.202789	0.210710
O53	O	0.878669	0.452810	-0.419972
O54	O	1.128669	0.702810	-0.169972
O55	O	1.378669	0.952810	0.080028
O56	O	1.628669	1.202810	0.330028
O57	O	1.093039	0.350391	-0.534746
O58	O	1.343039	0.600391	-0.284746
O59	O	1.593039	0.850391	-0.034746
O60	O	1.843039	1.100391	0.215254
O61	O	1.082222	0.588005	-0.335612
O62	O	1.332222	0.838005	-0.085612
O63	O	1.582222	1.088005	0.164388
O64	O	1.832222	1.338005	0.414388
O65	O	0.991848	0.587975	-0.425997
O66	O	1.241848	0.837975	-0.175997
O67	O	1.491848	1.087975	0.074003
O68	O	1.741848	1.337975	0.324003
C69	C	0.854276	0.401617	-0.372495
C70	C	1.104276	0.651617	-0.122495
C71	C	1.354276	0.901617	0.127505
C72	C	1.604276	1.151617	0.377505
C73	C	0.772476	0.401631	-0.372504
C74	C	1.022476	0.651631	-0.122504
C75	C	1.272476	0.901631	0.127496
C76	C	1.522476	1.151631	0.377496
C77	C	1.035684	0.618240	-0.382166
C78	C	1.285684	0.868240	-0.132166
C79	C	1.535684	1.118240	0.117834
C80	C	1.785684	1.368240	0.367834
C81	C	1.031559	0.710906	-0.386318
C82	C	1.281559	0.960906	-0.136318
C83	C	1.531559	1.210906	0.113682
C84	C	1.781559	1.460906	0.363682
C85	C	0.581892	0.455025	-0.421889
C86	C	0.831892	0.705025	-0.171889
C87	C	1.081892	0.955025	0.078111
C88	C	1.331892	1.205025	0.328111
C89	C	0.505033	0.455028	-0.421898
C90	C	0.755033	0.705028	-0.171898
C91	C	1.005033	0.955028	0.078102
C92	C	1.255033	1.205028	0.328102
C93	C	0.509822	0.348252	-0.323161
C94	C	0.759822	0.598252	-0.073161
C95	C	1.009822	0.848252	0.176839
C96	C	1.259822	1.098252	0.426839
C97	C	0.586680	0.348246	-0.323156
C98	C	0.836680	0.598246	-0.073156
C99	C	1.086680	0.848246	0.176844
C100	C	1.336680	1.098246	0.426844
C101	C	0.622713	0.401637	-0.372519
C102	C	0.872713	0.651637	-0.122519
C103	C	1.122713	0.901637	0.127481
C104	C	1.372713	1.151637	0.377481
C105	C	0.468996	0.401646	-0.372533
C106	C	0.718996	0.651646	-0.122533
C107	C	0.968996	0.901646	0.127467
C108	C	1.218996	1.151646	0.377467
C109	C	0.385662	0.401648	-0.372543
C110	C	0.635662	0.651648	-0.122543
C111	C	0.885662	0.901648	0.127457
C112	C	1.135662	1.151648	0.377457
C113	C	0.706052	0.401634	-0.372510
C114	C	0.956052	0.651634	-0.122510
C115	C	1.206052	0.901634	0.127490
C116	C	1.456052	1.151634	0.377490
C117	C	1.024034	0.880569	-0.393915
C118	C	1.274034	1.130569	-0.143915
C119	C	1.524034	1.380569	0.106085
C120	C	1.774034	1.630569	0.356085
C121	C	1.066957	0.921853	-0.351077
C122	C	1.316957	1.171853	-0.101077
C123	C	1.566957	1.421853	0.148923
C124	C	1.816957	1.671853	0.398923
C125	C	1.062770	1.016259	-0.355303
C126	C	1.312770	1.266259	-0.105303
C127	C	1.562770	1.516259	0.144697
C128	C	1.812770	1.766259	0.394697
C129	C	1.028220	0.786154	-0.389689
C130	C	1.278220	1.036154	-0.139689
C131	C	1.528220	1.286154	0.110311
C132	C	1.778220	1.536154	0.360311
C133	C	1.237434	0.401646	-0.372539
C134	C	1.487434	0.651646	-0.122539
C135	C	1.737434	0.901646	0.127461
C136	C	1.987434	1.151646	0.377461
C137	C	1.319232	0.401652	-0.372548
C138	C	1.569232	0.651652	-0.122548
C139	C	1.819232	0.901652	0.127452
C140	C	2.069232	1.151652	0.377452
C141	C	1.045527	0.401583	-0.564467
C142	C	1.295527	0.651583	-0.314467
C143	C	1.545527	0.901583	-0.064467
C144	C	1.795527	1.151583	0.185533
C145	C	1.045547	0.401563	-0.646265
C146	C	1.295547	0.651563	-0.396265
C147	C	1.545547	0.901563	-0.146265
C148	C	1.795547	1.151563	0.103735
C149	C	1.055312	1.184176	-0.362832
C150	C	1.305312	1.434176	-0.112832
C151	C	1.555312	1.684176	0.137168
C152	C	1.805312	1.934176	0.387168
C153	C	1.059434	1.091510	-0.358671
C154	C	1.309434	1.341510	-0.108671
C155	C	1.559434	1.591510	0.141329
C156	C	1.809434	1.841510	0.391329
C157	C	1.090237	0.454786	-0.913700
C158	C	1.340237	0.704786	-0.663700
C159	C	1.590237	0.954786	-0.413700
C160	C	1.840237	1.204786	-0.163700
C161	C	1.090225	0.454815	-0.836842
C162	C	1.340225	0.704815	-0.586842
C163	C	1.590225	0.954815	-0.336842
C164	C	1.840225	1.204815	-0.086842
C165	C	1.000919	0.348179	-0.832073
C166	C	1.250919	0.598179	-0.582073
C167	C	1.500919	0.848179	-0.332073
C168	C	1.750919	1.098179	-0.082073
C169	C	1.000928	0.348154	-0.908929
C170	C	1.250928	0.598154	-0.658929
C171	C	1.500928	0.848154	-0.408929
C172	C	1.750928	1.098154	-0.158929
C173	C	1.045592	0.401457	-0.949740
C174	C	1.295592	0.651457	-0.699740
C175	C	1.545592	0.901457	-0.449740
C176	C	1.795592	1.151457	-0.199740
C177	C	1.045570	0.401510	-0.796027
C178	C	1.295570	0.651510	-0.546027
C179	C	1.545570	0.901510	-0.296027
C180	C	1.795570	1.151510	-0.046027
C181	C	1.045556	0.401541	-0.712694
C182	C	1.295556	0.651541	-0.462694
C183	C	1.545556	0.901541	-0.212694
C184	C	1.795556	1.151541	0.037306
C185	C	1.045605	0.401427	-1.033078
C186	C	1.295605	0.651427	-0.783078
C187	C	1.545605	0.901427	-0.533078
C188	C	1.795605	1.151427	-0.283078
C189	C	1.045481	0.401619	-0.181310
C190	C	1.295481	0.651619	0.068690
C191	C	1.545481	0.901619	0.318690
C192	C	1.795481	1.151619	0.568690
C193	C	1.045615	0.401404	-0.099502
C194	C	1.295615	0.651404	0.150498
C195	C	1.545615	0.901404	0.400498
C196	C	1.795615	1.151404	0.650498
H197	H	0.471801	0.498501	-0.462101
H198	H	0.721801	0.748501	-0.212101
H199	H	0.971801	0.998501	0.037899
H200	H	1.221801	1.248501	0.287899
H201	H	1.106849	0.886297	-0.311227
H202	H	1.356849	1.136297	-0.061227
H203	H	1.606849	1.386297	0.188773
H204	H	1.856849	1.636297	0.438773
N205	N	0.955298	0.293723	-0.790398
N206	N	1.205298	0.543723	-0.540398
N207	N	1.455298	0.793723	-0.290398
N208	N	1.705298	1.043723	-0.040398
N209	N	0.887141	0.299242	-0.799212
N210	N	1.137141	0.549242	-0.549212
N211	N	1.387141	0.799242	-0.299212
N212	N	1.637141	1.049242	-0.049212
H213	H	0.854921	0.260777	-0.769782
H214	H	1.104921	0.510777	-0.519782
H215	H	1.354921	0.760777	-0.269782
H216	H	1.604921	1.010777	-0.019782
H217	H	0.984144	0.916123	-0.433760
H218	H	1.234144	1.166123	-0.183760
H219	H	1.484144	1.416123	0.066240
H220	H	1.734144	1.666123	0.316240
H221	H	1.126604	0.498189	-0.946926
H222	H	1.376604	0.748189	-0.696926
H223	H	1.626604	0.998189	-0.446926
H224	H	1.876604	1.248189	-0.196926
N225	N	1.135830	0.509299	-0.800040
N226	N	1.385830	0.759299	-0.550040
N227	N	1.635830	1.009299	-0.300040
N228	N	1.885830	1.259299	-0.050040
N229	N	1.175698	0.556887	-0.836490
N230	N	1.425698	0.806887	-0.586490
N231	N	1.675698	1.056887	-0.336490
N232	N	1.925698	1.306887	-0.086490
H233	H	1.207908	0.595371	-0.810500
H234	H	1.457908	0.845371	-0.560500
H235	H	1.707908	1.095371	-0.310500
H236	H	1.957908	1.345371	-0.060500
N237	N	0.955323	0.293663	-0.945735
N238	N	1.205323	0.543663	-0.695735
N239	N	1.455323	0.793663	-0.445735
N240	N	1.705323	1.043663	-0.195735
N241	N	0.963685	0.216737	-0.933727
N242	N	1.213685	0.466737	-0.683727
N243	N	1.463685	0.716737	-0.433727
N244	N	1.713685	0.966737	-0.183727
H245	H	0.931476	0.178254	-0.959720
H246	H	1.181476	0.428254	-0.709720
H247	H	1.431476	0.678254	-0.459720
H248	H	1.681476	0.928254	-0.209720
N249	N	0.473002	0.293722	-0.272746
N250	N	0.723002	0.543722	-0.022746
N251	N	0.973002	0.793722	0.227254
N252	N	1.223002	1.043722	0.477254
N253	N	0.404380	0.293734	-0.272756
N254	N	0.654380	0.543734	-0.022756
N255	N	0.904380	0.793734	0.227244
N256	N	1.154380	1.043734	0.477244
H257	H	0.378375	0.255222	-0.237148
H258	H	0.628375	0.505222	0.012852
H259	H	0.878375	0.755222	0.262852
H260	H	1.128375	1.005222	0.512852
H261	H	0.619917	0.304765	-0.282953
H262	H	0.869917	0.554765	-0.032953
H263	H	1.119917	0.804765	0.217047
H264	H	1.369917	1.054765	0.467047
N265	N	0.618688	0.509568	-0.472313
N266	N	0.868688	0.759568	-0.222313
N267	N	1.118688	1.009568	0.027687
N268	N	1.368688	1.259568	0.277687
N269	N	0.582228	0.557232	-0.516389
N270	N	0.832228	0.807232	-0.266389
N271	N	1.082228	1.057232	-0.016389
N272	N	1.332228	1.307232	0.233611
H273	H	0.608213	0.595754	-0.552004
H274	H	0.858213	0.845754	-0.302004
H275	H	1.108213	1.095754	-0.052004
H276	H	1.358213	1.345754	0.197996
