data_functionalizedCrystal
_audit_creation_method	'MofGen! by Chris Wilmer'
_symmetry_space_group_name_H-M	'P1'
_symmetry_Int_Tables_number	1
_symmetry_cell_setting	triclinic
loop_
_symmetry_equiv_pos_as_xyz
  x,y,z
_cell_length_a	14.853567
_cell_length_b	23.532407
_cell_length_c	13.330367
_cell_angle_alpha	89.990692
_cell_angle_beta	89.995418
_cell_angle_gamma	83.241804
loop_
_atom_site_label
_atom_site_type_symbol
_atom_site_fract_x
_atom_site_fract_y
_atom_site_fract_z
O1	O	1.195556	0.074353	-0.083365
O2	O	0.932999	0.083210	-0.083383
O3	O	1.072195	-0.004116	-0.083355
O4	O	1.056360	0.161678	-0.083393
O5	O	1.072175	-0.004118	0.083492
O6	O	0.932979	0.083208	0.083464
O7	O	1.195536	0.074351	0.083482
Cu8	Cu	1.064255	0.078779	0.098707
Cu9	Cu	1.064279	0.078782	-0.098609
O10	O	1.056340	0.161677	0.083454
C11	C	0.899405	0.082808	0.000038
C12	C	0.799334	0.081605	0.000032
C13	C	1.071782	-0.025335	0.000071
C14	C	1.070569	-0.088557	0.000078
C15	C	0.387423	0.024648	0.000067
C16	C	0.365008	0.128393	0.000043
C17	C	0.459029	0.129524	0.000039
C18	C	0.517252	0.078216	0.000048
C19	C	0.481454	0.025777	0.000061
C20	C	0.494835	0.181961	0.000016
C21	C	0.588861	0.183094	0.000012
C22	C	0.647086	0.131786	0.000028
C23	C	0.611283	0.079345	0.000042
C24	C	0.669506	0.028037	0.000051
C25	C	0.633704	-0.024404	0.000072
C26	C	0.539679	-0.025531	0.000077
C27	C	0.741111	0.132913	0.000023
C28	C	0.763536	0.029166	0.000044
C29	C	1.145338	-0.487334	0.000029
C30	C	1.144212	-0.546739	0.000021
O31	O	1.213524	-0.583181	-0.000011
N32	N	1.061460	-0.569726	0.000016
C33	C	0.979829	-0.533305	0.000008
O34	O	0.909339	-0.558312	0.000002
C35	C	0.980957	-0.473901	0.000009
C36	C	1.063714	-0.450917	0.000024
C37	C	1.228089	-0.464349	0.000043
C38	C	1.229214	-0.404948	0.000052
C39	C	1.147590	-0.368531	0.000048
C40	C	1.064839	-0.391516	0.000034
C41	C	0.899327	-0.437481	-0.000006
C42	C	0.900461	-0.378073	-0.000006
C43	C	0.983218	-0.355089	0.000009
C44	C	0.984341	-0.295698	0.000039
N45	N	1.067092	-0.272711	0.000044
C46	C	1.148717	-0.309128	0.000048
C47	C	0.977469	-0.658058	0.000005
C48	C	0.976340	-0.717461	0.000012
C49	C	1.140723	-0.730890	0.000023
C50	C	1.141851	-0.671486	0.000023
C51	C	1.060220	-0.635070	0.000011
C52	C	1.151075	-0.184380	0.000069
C53	C	1.152194	-0.124974	0.000083
C54	C	0.987811	-0.111549	0.000067
C55	C	0.986692	-0.170951	0.000058
C56	C	1.068331	-0.207365	0.000056
O57	O	0.915065	-0.259221	0.000067
O58	O	1.219196	-0.284112	0.000041
C59	C	1.229130	0.074753	0.000058
C60	C	1.329200	0.075956	0.000058
C61	C	1.056753	0.182895	0.000026
C62	C	1.057966	0.246118	0.000011
N63	N	1.064245	0.078777	0.237489
N64	N	1.064296	0.078779	-0.237390
C65	C	1.002641	0.117434	0.710099
C66	C	1.125942	0.040124	0.710092
C67	C	1.125932	0.040123	0.605074
C68	C	1.064276	0.078778	0.552563
C69	C	1.002631	0.117435	0.605071
C70	C	1.187582	0.001470	0.552558
C71	C	1.187575	0.001467	0.447533
C72	C	1.125914	0.040120	0.395021
C73	C	1.064266	0.078778	0.447535
C74	C	1.002610	0.117434	0.395025
C75	C	0.940957	0.156089	0.447537
C76	C	0.940970	0.156088	0.552559
C77	C	1.125901	0.040122	0.289999
C78	C	1.002600	0.117434	0.289997
H79	H	0.810936	-0.012615	0.000056
H80	H	0.831937	-0.456183	-0.000024
O81	O	0.821187	-0.342676	-0.000194
C82	C	0.727090	-0.267779	-0.086605
C83	C	0.816889	-0.307842	-0.086533
H84	H	0.723594	-0.239598	-0.156392
H85	H	0.667719	-0.294386	-0.086681
H86	H	0.723505	-0.239667	-0.016745
H87	H	0.820562	-0.335962	-0.156381
H88	H	0.876217	-0.281201	-0.086404
O89	O	0.906362	-0.193350	-0.000081
C90	C	0.809680	-0.252580	-0.086580
C91	C	0.900693	-0.227266	-0.086523
H92	H	0.805058	-0.279997	-0.156472
H93	H	0.805020	-0.280105	-0.016812
H94	H	0.751547	-0.216337	-0.086528
H95	H	0.958878	-0.263472	-0.086611
H96	H	0.905274	-0.199726	-0.156286
H97	H	1.217554	-0.214023	0.000064
O98	O	0.880964	0.193578	0.603527
C99	C	0.723918	0.226787	0.635659
C100	C	0.791772	0.184289	0.577886
H101	H	0.651791	0.219299	0.614934
H102	H	0.734445	0.220145	0.719751
H103	H	0.735294	0.272411	0.615009
H104	H	0.780437	0.138648	0.598453
H105	H	0.781228	0.190980	0.493808
H106	H	1.209239	-0.652777	0.000035
H107	H	0.921355	-0.081888	0.000067
H108	H	0.952441	0.148906	0.752857
O109	O	0.690357	-0.074206	-0.000055
C110	C	0.809494	-0.133146	-0.086527
C111	C	0.745396	-0.076722	-0.086495
H112	H	0.853996	-0.135205	-0.156416
H113	H	0.854141	-0.135215	-0.016756
H114	H	0.767743	-0.170813	-0.086461
H115	H	0.787075	-0.039024	-0.086596
H116	H	0.700746	-0.074704	-0.156260
O117	O	0.623785	0.233983	-0.000062
C118	C	0.758698	0.281705	-0.000046
C119	C	0.719266	0.224034	0.000020
H120	H	0.835899	0.273680	0.000041
H121	H	0.734748	0.307064	-0.069900
H122	H	0.734629	0.307068	0.069750
H123	H	0.743318	0.198623	-0.069729
H124	H	0.743212	0.198718	0.069920
H125	H	0.770257	0.175610	0.000007
O126	O	0.898084	-0.622766	0.000052
C127	C	0.734922	-0.615728	-0.000013
C128	C	0.824755	-0.655756	-0.000040
H129	H	0.675612	-0.642384	-0.000108
H130	H	0.731265	-0.587598	0.069830
H131	H	0.731388	-0.587561	-0.069820
H132	H	0.828349	-0.683958	0.069720
H133	H	0.828374	-0.683846	-0.069929
O134	O	0.942672	0.155040	0.239147
C135	C	0.820334	0.231696	0.250238
C136	C	0.888166	0.189148	0.307949
H137	H	0.776235	0.259276	0.305839
H138	H	0.858945	0.260234	0.201085
H139	H	0.775560	0.207045	0.201054
H140	H	0.932956	0.213752	0.357187
H141	H	0.849498	0.160610	0.357039
O142	O	1.232667	-0.102743	0.000049
C143	C	1.395593	-0.122344	0.000117
C144	C	1.304525	-0.147593	0.000135
H145	H	1.453714	-0.158593	0.000208
H146	H	1.400302	-0.094880	-0.069720
H147	H	1.400176	-0.094858	0.069930
H148	H	1.299880	-0.175105	-0.069631
H149	H	1.299855	-0.175024	0.070018
O150	O	0.308490	0.178245	-0.000148
C151	C	0.260594	0.266586	-0.086576
C152	C	0.324643	0.210142	-0.086498
H153	H	0.273644	0.292397	-0.156372
H154	H	0.187225	0.256803	-0.086638
H155	H	0.273540	0.292364	-0.016725
H156	H	0.311778	0.184337	-0.156337
H157	H	0.397990	0.219965	-0.086384
H158	H	0.890760	0.187565	0.404771
O159	O	1.185786	0.002497	0.760992
C160	C	1.239442	-0.096471	0.793208
C161	C	1.171637	-0.053916	0.735476
H162	H	1.228014	-0.142091	0.772617
H163	H	1.311603	-0.089023	0.772531
H164	H	1.228866	-0.089799	0.877284
H165	H	1.182130	-0.060563	0.651388
H166	H	1.099501	-0.061375	0.756237
O167	O	1.247421	-0.036158	0.603463
C168	C	1.301071	-0.135127	0.635680
C169	C	1.233275	-0.092571	0.577939
H170	H	1.289645	-0.180746	0.615081
H171	H	1.373234	-0.127679	0.615017
H172	H	1.290482	-0.128456	0.719754
H173	H	1.243781	-0.099216	0.493852
H174	H	1.161136	-0.100030	0.598685
O175	O	0.505005	-0.076503	-0.000047
C176	C	0.495347	-0.165499	-0.086508
C177	C	0.534698	-0.107801	-0.086474
H178	H	0.519322	-0.190815	-0.156387
H179	H	0.519379	-0.190902	-0.016727
H180	H	0.418146	-0.157475	-0.086463
H181	H	0.611899	-0.115773	-0.086554
H182	H	0.510595	-0.082418	-0.156249
H183	H	0.358269	-0.018049	0.000088
O184	O	1.247249	-0.036213	0.396522
C185	C	1.266816	-0.114172	0.278361
C186	C	1.199195	-0.071452	0.335983
H187	H	1.227991	-0.142682	0.229418
H188	H	1.311751	-0.089723	0.228998
H189	H	1.310776	-0.141764	0.334074
H190	H	1.155175	-0.043850	0.280343
H191	H	1.154323	-0.095937	0.385362
O192	O	1.309685	-0.382720	0.000014
C193	C	1.472608	-0.402333	0.000079
C194	C	1.381535	-0.427576	0.000103
H195	H	1.530724	-0.438586	0.000172
H196	H	1.477321	-0.374872	-0.069761
H197	H	1.477198	-0.374845	0.069890
H198	H	1.376884	-0.455089	-0.069660
H199	H	1.376862	-0.455003	0.069989
H200	H	0.447423	0.223733	-0.000001
H201	H	1.294561	-0.493994	0.000043
H202	H	1.207187	-0.760552	0.000023
H203	H	0.908951	-0.736168	0.000017
H204	H	1.176102	0.008652	0.247249
