data_functionalizedCrystal
_audit_creation_method	'MofGen! by Chris Wilmer'
_symmetry_space_group_name_H-M	'P1'
_symmetry_Int_Tables_number	1
_symmetry_cell_setting	triclinic
loop_
_symmetry_equiv_pos_as_xyz
  x,y,z
_cell_length_a	10.654550
_cell_length_b	9.065218
_cell_length_c	9.730223
_cell_angle_alpha	89.997438
_cell_angle_beta	89.999957
_cell_angle_gamma	84.750408
loop_
_atom_site_label
_atom_site_type_symbol
_atom_site_fract_x
_atom_site_fract_y
_atom_site_fract_z
O1	O	1.668660	0.207235	-0.114181
O2	O	2.168660	0.707235	0.385819
O3	O	1.303260	0.226979	-0.114206
O4	O	1.803260	0.726979	0.385794
O5	O	1.493512	0.002423	-0.114190
O6	O	1.993512	0.502423	0.385810
O7	O	1.478407	0.431790	-0.114197
O8	O	1.978407	0.931790	0.385803
O9	O	1.493500	0.002417	0.114390
O10	O	1.993500	0.502417	0.614390
O11	O	1.303247	0.226972	0.114374
O12	O	1.803247	0.726972	0.614374
O13	O	1.668647	0.207228	0.114399
O14	O	2.168647	0.707228	0.614399
Zn15	Zn	1.485945	0.217099	0.150678
Zn16	Zn	1.985945	0.717099	0.650678
Zn17	Zn	1.485962	0.217108	-0.150486
Zn18	Zn	1.985962	0.717108	0.349514
O19	O	1.478395	0.431784	0.114383
O20	O	1.978395	0.931784	0.614383
C21	C	1.256450	0.225526	0.000081
C22	C	1.756450	0.725526	0.500081
C23	C	1.116989	0.221188	0.000071
C24	C	1.616989	0.721188	0.500071
C25	C	1.492055	-0.052559	0.000097
C26	C	1.992055	0.447441	0.500097
C27	C	1.487714	-0.216378	0.000091
C28	C	1.987714	0.283622	0.500091
C29	C	1.038027	0.353403	0.000073
C30	C	1.538027	0.853403	0.500073
C31	C	0.906990	0.349319	0.000097
C32	C	1.406990	0.849319	0.500097
C33	C	0.933890	0.080794	0.000112
C34	C	1.433890	0.580794	0.500112
C35	C	1.064924	0.084879	0.000098
C36	C	1.564924	0.584879	0.500098
C37	C	1.715457	0.208681	0.000109
C38	C	2.215457	0.708681	0.500109
C39	C	1.854918	0.213019	0.000109
C40	C	2.354918	0.713019	0.500109
C41	C	1.479852	0.486766	0.000092
C42	C	1.979852	0.986766	0.500092
C43	C	1.484193	0.650585	0.000090
C44	C	1.984193	1.150585	0.500090
N45	N	1.485943	0.217093	0.356215
N46	N	1.985943	0.717093	0.856215
N47	N	1.485973	0.217102	-0.356022
N48	N	1.985973	0.717102	0.143978
C49	C	1.570217	0.117702	0.428148
C50	C	2.070217	0.617702	0.928148
C51	C	1.570229	0.117703	0.572031
C52	C	2.070229	0.617703	1.072031
C53	C	1.401691	0.316498	0.572035
C54	C	1.901691	0.816498	1.072035
C55	C	1.401674	0.316489	0.428155
C56	C	1.901674	0.816489	0.928155
H57	H	1.080414	0.464395	0.000062
H58	H	1.580414	0.964395	0.500062
H59	H	1.129219	-0.022793	0.000100
H60	H	1.629219	0.477207	0.500100
H61	H	1.638832	0.036766	0.369577
H62	H	2.138832	0.536766	0.869577
C63	C	1.308980	0.425832	0.349017
C64	C	1.808980	0.925832	0.849017
H65	H	1.321034	0.411581	0.253024
H66	H	1.821034	0.911581	0.753024
H67	H	1.323738	0.524456	0.372583
H68	H	1.823738	1.024456	0.872583
H69	H	1.224975	0.408890	0.372605
H70	H	1.724975	0.908890	0.872605
C71	C	1.662927	0.008375	0.651157
C72	C	2.162927	0.508375	1.151157
H73	H	1.650862	0.022600	0.747151
H74	H	2.150862	0.522600	1.247151
H75	H	1.746925	0.025315	0.627567
H76	H	2.246925	0.525315	1.127567
H77	H	1.648163	-0.090253	0.627583
H78	H	2.148163	0.409747	1.127583
C79	C	0.820137	0.494756	0.000089
C80	C	1.320137	0.994756	0.500089
H81	H	0.869917	0.576515	0.000061
H82	H	1.369917	1.076515	0.500061
H83	H	0.768468	0.498754	0.079805
H84	H	1.268468	0.998754	0.579805
H85	H	0.768456	0.498736	-0.079626
H86	H	1.268456	0.998736	0.420374
C87	C	1.309014	0.425838	0.651173
C88	C	1.809014	0.925838	1.151173
H89	H	1.321102	0.411621	0.747166
H90	H	1.821102	0.911621	1.247166
H91	H	1.225009	0.408901	0.627612
H92	H	1.725009	0.908901	1.127612
H93	H	1.323776	0.524463	0.627576
H94	H	1.823776	1.024463	1.127576
H95	H	0.891482	-0.030185	0.000141
H96	H	1.391482	0.469815	0.500141
