data_functionalizedCrystal
_audit_creation_method	'MofGen! by Chris Wilmer'
_symmetry_space_group_name_H-M	'P1'
_symmetry_Int_Tables_number	1
_symmetry_cell_setting	triclinic
loop_
_symmetry_equiv_pos_as_xyz
  x,y,z
_cell_length_a	12.594517
_cell_length_b	18.050589
_cell_length_c	18.050583
_cell_angle_alpha	89.968090
_cell_angle_beta	89.993527
_cell_angle_gamma	90.024107
loop_
_atom_site_label
_atom_site_type_symbol
_atom_site_fract_x
_atom_site_fract_y
_atom_site_fract_z
Zn1	Zn	1.627124	-0.295688	-0.419746
Zn2	Zn	1.626993	-0.419901	-0.295565
Zn3	Zn	1.449144	-0.295720	-0.295591
Zn4	Zn	1.449073	-0.419832	-0.419735
O5	O	1.538083	-0.357785	-0.357659
O6	O	1.776053	-0.312180	-0.403267
O7	O	1.603376	-0.403471	-0.191644
O8	O	1.472838	-0.191791	-0.312075
O9	O	1.775956	-0.403439	-0.312032
O10	O	1.603600	-0.191768	-0.403292
O11	O	1.472711	-0.312236	-0.191663
O12	O	1.300189	-0.312168	-0.312064
O13	O	1.472717	-0.403321	-0.523661
O14	O	1.300136	-0.403353	-0.403272
O15	O	1.603531	-0.312113	-0.523669
O16	O	1.603307	-0.523816	-0.312021
O17	O	1.472589	-0.523765	-0.403248
C18	C	1.261542	-0.357757	-0.357670
C19	C	1.143237	-0.357763	-0.357693
C20	C	1.073986	-0.407455	-0.407205
C21	C	1.003196	-0.339741	-0.425470
C22	C	1.003228	-0.425532	-0.339412
C23	C	1.074005	-0.290013	-0.375993
C24	C	1.074043	-0.375850	-0.289903
C25	C	1.003285	-0.308090	-0.308142
C26	C	1.537955	-0.550737	-0.357647
C27	C	1.537997	-0.633283	-0.357666
C28	C	1.466983	-0.832733	-0.407258
C29	C	1.441043	-0.882182	-0.339494
C30	C	1.538102	-0.784413	-0.357676
C31	C	1.564094	-0.882046	-0.425448
C32	C	1.538201	-0.930398	-0.357691
C33	C	1.512111	-0.832775	-0.289876
C34	C	1.635207	-0.832635	-0.375876
C35	C	1.609304	-0.882062	-0.308065
C36	C	1.538042	-0.700315	-0.357668
C37	C	1.538261	-1.014495	-0.357692
C38	C	1.815704	-0.357814	-0.357648
C39	C	1.934010	-0.357826	-0.357644
C40	C	1.538130	-0.357706	-0.551365
C41	C	1.538151	-0.357672	-0.633911
C42	C	1.538241	-0.164079	-0.357688
C43	C	1.538309	-0.081534	-0.357700
C44	C	1.609358	-0.308049	-0.833366
C45	C	1.512282	-0.289868	-0.882771
C46	C	1.538193	-0.357659	-0.785041
C47	C	1.635309	-0.375793	-0.882718
C48	C	1.538243	-0.357646	-0.931026
C49	C	1.441065	-0.339443	-0.833359
C50	C	1.564158	-0.425400	-0.833302
C51	C	1.467014	-0.407245	-0.882684
C52	C	1.538166	-0.357665	-0.700943
C53	C	1.538259	-0.357640	-1.015123
C54	C	1.538098	-0.357810	-0.164707
C55	C	1.538284	-0.357635	-0.082162
H56	H	0.972077	-0.324465	-0.482777
H57	H	1.717417	-0.391136	-0.904403
C58	C	1.115483	-0.213668	-0.396700
C59	C	1.226645	-0.214538	-0.396533
C60	C	1.264893	-0.144228	-0.415616
H61	H	1.090823	-0.178301	-0.361762
H62	H	1.090695	-0.200755	-0.444707
H63	H	1.251423	-0.227442	-0.348533
H64	H	1.251333	-0.249890	-0.431471
H65	H	1.240105	-0.131315	-0.463623
H66	H	1.240226	-0.108866	-0.380676
H67	H	1.340319	-0.144811	-0.415512
C68	C	1.593216	-0.910804	-0.501925
C69	C	1.518457	-0.885793	-0.553596
C70	C	1.545248	-0.912258	-0.624057
H71	H	1.593660	-0.963424	-0.501374
H72	H	1.661659	-0.893088	-0.515229
H73	H	1.450032	-0.903513	-0.540297
H74	H	1.518002	-0.833176	-0.554171
H75	H	1.613691	-0.894542	-0.637360
H76	H	1.545692	-0.964878	-0.623498
H77	H	1.494535	-0.895287	-0.659125
H78	H	0.972134	-0.482817	-0.323972
C79	C	0.962199	-0.251914	-0.252382
C80	C	0.998235	-0.181140	-0.271839
C81	C	0.960394	-0.129371	-0.220500
H82	H	0.987507	-0.264231	-0.204361
H83	H	0.886769	-0.252481	-0.252390
H84	H	1.073649	-0.180576	-0.271824
H85	H	0.972930	-0.168801	-0.319852
H86	H	0.884964	-0.129938	-0.220508
H87	H	0.985704	-0.141694	-0.172482
H88	H	0.984830	-0.081344	-0.233698
C89	C	1.115520	-0.396393	-0.213538
C90	C	1.078125	-0.466835	-0.194126
C91	C	1.116325	-0.485796	-0.123788
H92	H	1.091383	-0.361150	-0.178298
H93	H	1.190946	-0.396726	-0.214237
H94	H	1.002715	-0.466497	-0.193421
H95	H	1.102259	-0.502093	-0.229347
H96	H	1.191751	-0.486129	-0.124487
H97	H	1.092185	-0.450549	-0.088555
H98	H	1.090966	-0.533595	-0.110611
H99	H	1.406784	-0.449192	-0.904202
H100	H	1.105033	-0.449397	-0.449130
H101	H	1.406752	-0.811073	-0.449129
H102	H	1.669489	-0.903584	-0.266093
H103	H	1.358971	-0.903962	-0.324114
H104	H	1.490071	-0.811221	-0.232552
C105	C	1.744578	-0.803629	-0.396576
C106	C	1.771331	-0.828533	-0.467610
C107	C	1.872069	-0.801818	-0.486716
H108	H	1.795420	-0.821236	-0.361924
H109	H	1.743916	-0.751002	-0.396015
H110	H	1.772001	-0.881149	-0.468165
H111	H	1.720516	-0.810928	-0.502278
H112	H	1.871407	-0.749190	-0.486155
H113	H	1.922902	-0.819426	-0.452060
H114	H	1.890230	-0.818705	-0.534917
H115	H	1.669442	-0.266069	-0.811709
H116	H	1.490336	-0.232576	-0.904500
C117	C	1.331637	-0.318869	-0.804431
C118	C	1.332906	-0.319068	-0.726870
C119	C	1.232128	-0.300108	-0.700195
H120	H	1.280973	-0.353854	-0.821633
H121	H	1.313085	-0.270875	-0.821740
H122	H	1.351445	-0.367056	-0.709569
H123	H	1.383548	-0.284082	-0.709648
H124	H	1.213576	-0.252113	-0.717504
H125	H	1.181472	-0.335095	-0.717402
H126	H	1.232978	-0.300234	-0.647568
C127	C	1.593673	-0.501745	-0.804340
C128	C	1.695450	-0.520454	-0.829290
C129	C	1.722694	-0.590772	-0.802616
H130	H	1.543946	-0.537181	-0.821943
H131	H	1.592861	-0.501313	-0.751712
H132	H	1.696255	-0.520891	-0.881907
H133	H	1.745200	-0.485036	-0.811689
H134	H	1.721881	-0.590340	-0.749988
H135	H	1.672959	-0.626202	-0.820221
H136	H	1.791755	-0.603472	-0.819535
