data_functionalizedCrystal
_audit_creation_method	'MofGen! by Chris Wilmer'
_symmetry_space_group_name_H-M	'P1'
_symmetry_Int_Tables_number	1
_symmetry_cell_setting	triclinic
loop_
_symmetry_equiv_pos_as_xyz
  x,y,z
_cell_length_a	10.686220
_cell_length_b	18.101395
_cell_length_c	10.686551
_cell_angle_alpha	85.593544
_cell_angle_beta	90.308082
_cell_angle_gamma	94.412841
loop_
_atom_site_label
_atom_site_type_symbol
_atom_site_fract_x
_atom_site_fract_y
_atom_site_fract_z
Zn1	Zn	1.972201	-0.180552	-0.562382
Zn2	Zn	1.955907	-0.314596	-0.352620
Zn3	Zn	1.746310	-0.199497	-0.368699
Zn4	Zn	1.762338	-0.313095	-0.578398
O5	O	1.859189	-0.251935	-0.465525
O6	O	2.145585	-0.191033	-0.521125
O7	O	1.914577	-0.307884	-0.179207
O8	O	1.776386	-0.093345	-0.394418
O9	O	2.133614	-0.289514	-0.367014
O10	O	1.942347	-0.079426	-0.536716
O11	O	1.760587	-0.223322	-0.191020
O12	O	1.572891	-0.221866	-0.409948
O13	O	1.803703	-0.286956	-0.751819
O14	O	1.584666	-0.305327	-0.564013
O15	O	1.957888	-0.189578	-0.740052
O16	O	1.930118	-0.418036	-0.382544
O17	O	1.787904	-0.416933	-0.548422
C18	C	1.533261	-0.265490	-0.490464
C19	C	1.393831	-0.271305	-0.501162
C20	C	1.859018	-0.444354	-0.465501
C21	C	1.859063	-0.526665	-0.465524
C22	C	1.859343	-0.825742	-0.465570
C23	C	1.770109	-0.793732	-0.570159
C24	C	1.769626	-0.708148	-0.569891
C25	C	1.859204	-0.677366	-0.465548
C26	C	1.813255	-0.716429	-0.336079
C27	C	1.812677	-0.802072	-0.336708
C28	C	1.994649	-0.786916	-0.489270
C29	C	1.994091	-0.701157	-0.492229
C30	C	1.859127	-0.593511	-0.465527
C31	C	1.859417	-0.909597	-0.465582
C32	C	2.186389	-0.238328	-0.440489
C33	C	2.325822	-0.232529	-0.429821
C34	C	1.884401	-0.235986	-0.792725
C35	C	1.895145	-0.229190	-0.932159
C36	C	1.859396	-0.058762	-0.465574
C37	C	1.859485	0.023558	-0.465595
C38	C	1.834147	-0.267765	-0.139591
C39	C	1.823646	-0.274343	-0.000140
H40	H	1.374265	-0.194883	-0.360556
C41	C	1.329011	-0.321441	-0.593493
C42	C	1.198966	-0.317422	-0.586136
C43	C	1.139215	-0.363588	-0.671181
H44	H	1.348821	-0.371235	-0.573459
H45	H	1.356874	-0.305679	-0.676219
H46	H	1.171114	-0.333188	-0.503428
H47	H	1.179120	-0.267638	-0.606181
H48	H	1.167078	-0.347825	-0.753907
H49	H	1.159034	-0.413379	-0.651140
H50	H	1.050975	-0.360862	-0.666209
H51	H	2.034561	-0.802503	-0.581535
C52	C	1.730873	-0.332786	-0.935703
C53	C	1.609194	-0.320307	-0.977009
C54	C	1.523702	-0.374138	-0.917683
H55	H	1.735539	-0.329795	-0.847426
H56	H	1.750744	-0.380764	-0.955738
H57	H	1.589328	-0.272341	-0.956965
H58	H	1.604487	-0.323305	-1.065277
H59	H	1.543574	-0.422116	-0.937719
H60	H	1.528380	-0.371142	-0.829410
H61	H	1.441135	-0.365682	-0.945710
H62	H	1.799551	-0.681391	-0.666208
H63	H	1.715034	-0.700458	-0.314229
H64	H	1.964588	-0.185333	-0.980633
H65	H	2.028557	-0.674945	-0.587462
H66	H	1.713467	-0.827546	-0.315451
H67	H	1.799836	-0.808581	-0.666812
H68	H	1.670643	-0.820464	-0.555499
C69	C	1.636102	-0.687974	-0.549935
C70	C	1.555547	-0.752886	-0.538075
C71	C	1.432534	-0.734333	-0.519665
H72	H	1.610983	-0.656830	-0.619701
H73	H	1.632418	-0.662510	-0.475704
H74	H	1.559226	-0.778339	-0.612298
H75	H	1.580626	-0.784039	-0.468308
H76	H	1.428850	-0.708868	-0.445434
H77	H	1.407427	-0.703187	-0.589435
H78	H	1.377864	-0.778372	-0.511605
C79	C	2.088325	-0.672613	-0.396828
C80	C	2.027228	-0.632775	-0.311372
C81	C	2.113988	-0.606478	-0.223452
H82	H	2.152440	-0.640978	-0.438835
H83	H	2.124493	-0.713440	-0.353129
H84	H	1.991079	-0.591953	-0.355066
H85	H	1.963119	-0.664394	-0.269335
H86	H	2.150156	-0.647305	-0.179753
H87	H	2.178099	-0.574846	-0.265470
H88	H	2.072544	-0.579451	-0.165453
H89	H	1.874301	-0.823621	-0.256670
C90	C	2.083476	-0.814643	-0.387659
C91	C	2.087796	-0.891652	-0.389711
C92	C	2.169613	-0.917224	-0.296138
H93	H	2.054419	-0.803372	-0.307985
H94	H	2.165115	-0.791030	-0.402483
H95	H	2.006174	-0.915257	-0.374878
H96	H	2.116867	-0.902943	-0.469364
H97	H	2.251253	-0.893611	-0.310962
H98	H	2.140548	-0.905947	-0.216470
H99	H	2.172564	-0.969475	-0.297525
H100	H	1.875757	-0.696831	-0.256471
