data_functionalizedCrystal
_audit_creation_method	'MofGen! by Chris Wilmer'
_symmetry_space_group_name_H-M	'P1'
_symmetry_Int_Tables_number	1
_symmetry_cell_setting	triclinic
loop_
_symmetry_equiv_pos_as_xyz
  x,y,z
_cell_length_a	25.639242
_cell_length_b	16.120484
_cell_length_c	25.639233
_cell_angle_alpha	92.880745
_cell_angle_beta	89.977834
_cell_angle_gamma	92.921537
loop_
_atom_site_label
_atom_site_type_symbol
_atom_site_fract_x
_atom_site_fract_y
_atom_site_fract_z
Zn1	Zn	0.788711	-0.332111	-0.306301
Zn2	Zn	0.784221	-0.471505	-0.223297
Zn3	Zn	0.701287	-0.332098	-0.218864
Zn4	Zn	0.696820	-0.471475	-0.310686
O5	O	0.742760	-0.401797	-0.264787
O6	O	0.861280	-0.350620	-0.295310
O7	O	0.773210	-0.453021	-0.149544
O8	O	0.716633	-0.215433	-0.226773
O9	O	0.857981	-0.453032	-0.234327
O10	O	0.780862	-0.215442	-0.291012
O11	O	0.712279	-0.350599	-0.146287
O12	O	0.627530	-0.350569	-0.231025
O13	O	0.709019	-0.452980	-0.383269
O14	O	0.624248	-0.452968	-0.298485
O15	O	0.776530	-0.350590	-0.380047
O16	O	0.768879	-0.588168	-0.238579
O17	O	0.704665	-0.588145	-0.302783
C18	C	0.735814	-0.618407	-0.271649
C19	C	0.732891	-0.711074	-0.274603
C20	C	0.606918	-0.401764	-0.264750
C21	C	0.548804	-0.401770	-0.264748
C22	C	0.727556	-0.880736	-0.280005
C23	C	0.758057	-0.922018	-0.249577
C24	C	0.755089	-1.016424	-0.252583
C25	C	0.730524	-0.786322	-0.277000
C26	C	0.186737	-0.455206	-0.299885
C27	C	0.132133	-0.455211	-0.299893
O28	O	0.102449	-0.500602	-0.329736
N29	N	0.106520	-0.401820	-0.264822
C30	C	0.135515	-0.348415	-0.229743
O31	O	0.108715	-0.303003	-0.199913
C32	C	0.190118	-0.348407	-0.229738
C33	C	0.215728	-0.401806	-0.264808
C34	C	0.212347	-0.508600	-0.334952
C35	C	0.266948	-0.508596	-0.334943
C36	C	0.295938	-0.455197	-0.299866
C37	C	0.270329	-0.401802	-0.264799
C38	C	0.219113	-0.294998	-0.194662
C39	C	0.273720	-0.294994	-0.194660
C40	C	0.299329	-0.348393	-0.229730
C41	C	0.353920	-0.348399	-0.229712
N42	N	0.379533	-0.401789	-0.264784
C43	C	0.350542	-0.455188	-0.299861
C44	C	0.020844	-0.348437	-0.229758
C45	C	-0.033759	-0.348449	-0.229760
C46	C	-0.037138	-0.455243	-0.299911
C47	C	0.017466	-0.455235	-0.299906
C48	C	0.046456	-0.401827	-0.264829
C49	C	0.465208	-0.455176	-0.299838
C50	C	0.519813	-0.455170	-0.299825
C51	C	0.523187	-0.348372	-0.229676
C52	C	0.468586	-0.348382	-0.229688
C53	C	0.439598	-0.401786	-0.264773
O54	O	0.383638	-0.303028	-0.199886
O55	O	0.377349	-0.500586	-0.329690
C56	C	0.879132	-0.401831	-0.264824
C57	C	0.937245	-0.401845	-0.264839
C58	C	0.742777	-0.401783	-0.401159
C59	C	0.742784	-0.401776	-0.459273
C60	C	0.749747	-0.184342	-0.257909
C61	C	0.752724	-0.091675	-0.254978
C62	C	0.777985	-0.348304	-0.817960
C63	C	0.777992	-0.348280	-0.872563
O64	O	0.807876	-0.302914	-0.899377
N65	N	0.742848	-0.401581	-0.901550
C66	C	0.707691	-0.454902	-0.875930
O67	O	0.677799	-0.500236	-0.905599
C68	C	0.707682	-0.454920	-0.821327
C69	C	0.742832	-0.401622	-0.792343
C70	C	0.813132	-0.295009	-0.788976
C71	C	0.813125	-0.295034	-0.734376
C72	C	0.777972	-0.348352	-0.708760
C73	C	0.742825	-0.401647	-0.737744
C74	C	0.672523	-0.508237	-0.795708
C75	C	0.672516	-0.508250	-0.741101
C76	C	0.707666	-0.454952	-0.712118
C77	C	0.707665	-0.454990	-0.657527
N78	N	0.742809	-0.401689	-0.628541
C79	C	0.777963	-0.348370	-0.654157
C80	C	0.707713	-0.454859	-0.990599
C81	C	0.707724	-0.454845	-1.045201
C82	C	0.778025	-0.348222	-1.041831
C83	C	0.778016	-0.348241	-0.987228
C84	C	0.742857	-0.401558	-0.961613
C85	C	0.777946	-0.348426	-0.539494
C86	C	0.777938	-0.348458	-0.484889
C87	C	0.707635	-0.455077	-0.488264
C88	C	0.707645	-0.455049	-0.542864
C89	C	0.742803	-0.401717	-0.568477
O90	O	0.677795	-0.500331	-0.630678
O91	O	0.807846	-0.303037	-0.624481
C92	C	0.742775	-0.401752	-0.128943
C93	C	0.742876	-0.401523	-0.070822
H94	H	0.786399	-0.886458	-0.221269
H95	H	0.699216	-0.916293	-0.308311
H96	H	0.540662	-0.498657	-0.328384
H97	H	0.188748	-0.552085	-0.363519
O98	O	-0.058717	-0.296675	-0.195700
C99	C	-0.141332	-0.249337	-0.164617
C100	C	-0.113137	-0.308023	-0.203214
H101	H	-0.185335	-0.258478	-0.170686
H102	H	-0.131114	-0.263899	-0.122896
H103	H	-0.128413	-0.182136	-0.171719
H104	H	-0.126041	-0.375243	-0.196159
H105	H	-0.123355	-0.293388	-0.244921
O106	O	0.437132	-0.507130	-0.333940
C107	C	0.439559	-0.613019	-0.403539
C108	C	0.471418	-0.554236	-0.364942
H109	H	0.467267	-0.651106	-0.428621
H110	H	0.412601	-0.656618	-0.380904
H111	H	0.415220	-0.574799	-0.429691
H112	H	0.495787	-0.592388	-0.338780
H113	H	0.498343	-0.510634	-0.387609
O114	O	-0.065226	-0.507191	-0.334008
C115	C	-0.062829	-0.613075	-0.403613
C116	C	-0.030954	-0.554306	-0.365021
H117	H	-0.035133	-0.651171	-0.428704
H118	H	-0.089786	-0.656669	-0.380973
H119	H	-0.087169	-0.574845	-0.429756
H120	H	-0.006583	-0.592469	-0.338868
H121	H	-0.004029	-0.510710	-0.387693
O122	O	0.042402	-0.506986	-0.333998
C123	C	0.103688	-0.518359	-0.404960
C124	C	0.075497	-0.459657	-0.366369
H125	H	0.130443	-0.480117	-0.431149
H126	H	0.127886	-0.561881	-0.382319
H127	H	0.073572	-0.556543	-0.430004
H128	H	0.105577	-0.421420	-0.341315
H129	H	0.051289	-0.416191	-0.389041
O130	O	0.638396	-0.560127	-0.823796
C131	C	0.608469	-0.701934	-0.844994
C132	C	0.647142	-0.643256	-0.813150
H133	H	0.615534	-0.769156	-0.836407
H134	H	0.566772	-0.687344	-0.833766
H135	H	0.614494	-0.692735	-0.888420
H136	H	0.641165	-0.652422	-0.769716
H137	H	0.688825	-0.657860	-0.824423
H138	H	0.287794	-0.552078	-0.363502
O139	O	0.048923	-0.296536	-0.195626
C140	C	0.046500	-0.190585	-0.126064
C141	C	0.014641	-0.249332	-0.164681
H142	H	0.018797	-0.152393	-0.101042
H143	H	0.070814	-0.228754	-0.099856
H144	H	0.073482	-0.147074	-0.148734
H145	H	-0.012370	-0.292855	-0.142053
H146	H	-0.009638	-0.211112	-0.190888
O147	O	0.673605	-0.506744	-1.073297
C148	C	0.643692	-0.648552	-1.094509
C149	C	0.682357	-0.589873	-1.062656
H150	H	0.650762	-0.715775	-1.085925
H151	H	0.601993	-0.633974	-1.083284
H152	H	0.649722	-0.639344	-1.137933
H153	H	0.676375	-0.599048	-1.019224
H154	H	0.724043	-0.604465	-1.073924
H155	H	0.198271	-0.251516	-0.166103
O156	O	0.638437	-0.560088	-0.716160
C157	C	0.627782	-0.672707	-0.658110
C158	C	0.666430	-0.614040	-0.686315
H159	H	0.650399	-0.716353	-0.633982
H160	H	0.601677	-0.634481	-0.631289
H161	H	0.602651	-0.710758	-0.688214
H162	H	0.691594	-0.575976	-0.656249
H163	H	0.692498	-0.652313	-0.713146
H164	H	0.297321	-0.251497	-0.166098
H165	H	0.447734	-0.304901	-0.201130
O166	O	0.551434	-0.296528	-0.195655
C167	C	0.637057	-0.249227	-0.164546
C168	C	0.605130	-0.307975	-0.203107
H169	H	0.680475	-0.258474	-0.170551
H170	H	0.628517	-0.182006	-0.171673
H171	H	0.625807	-0.263750	-0.122837
H172	H	0.616360	-0.293527	-0.244831
H173	H	0.613673	-0.375178	-0.195935
O174	O	0.812121	-0.296738	-0.564431
C175	C	0.883108	-0.285513	-0.625708
C176	C	0.844426	-0.344136	-0.597512
H177	H	0.909244	-0.323810	-0.652452
H178	H	0.860542	-0.241909	-0.649916
H179	H	0.908201	-0.247413	-0.595596
H180	H	0.819323	-0.382290	-0.627588
H181	H	0.867024	-0.387685	-0.573294
O182	O	0.812031	-0.296556	-0.456758
C183	C	0.841983	-0.154750	-0.435593
C184	C	0.803337	-0.213435	-0.467468
H185	H	0.834974	-0.087536	-0.444250
H186	H	0.835946	-0.163844	-0.392157
H187	H	0.883667	-0.169438	-0.446805
H188	H	0.761638	-0.198784	-0.456302
H189	H	0.809419	-0.204330	-0.510897
O190	O	0.847286	-0.243174	-0.706304
C191	C	0.917031	-0.137446	-0.708745
C192	C	0.878364	-0.196127	-0.740596
H193	H	0.942175	-0.099405	-0.736457
H194	H	0.894450	-0.093797	-0.681806
H195	H	0.943117	-0.175742	-0.684388
H196	H	0.852268	-0.157898	-0.764983
H197	H	0.900977	-0.239778	-0.767501
O198	O	0.673480	-0.506708	-0.571074
C199	C	0.602505	-0.517863	-0.633021
C200	C	0.641183	-0.459275	-0.601119
H201	H	0.576376	-0.479536	-0.657312
H202	H	0.625076	-0.561441	-0.660015
H203	H	0.577405	-0.555993	-0.605318
H204	H	0.666293	-0.421091	-0.628782
H205	H	0.618580	-0.415752	-0.574118
O206	O	0.847211	-0.243120	-0.813873
C207	C	0.857888	-0.130556	-0.871962
C208	C	0.819230	-0.189256	-0.843794
H209	H	0.835281	-0.087004	-0.896169
H210	H	0.882993	-0.092414	-0.841879
H211	H	0.884016	-0.168842	-0.898723
H212	H	0.793069	-0.151034	-0.817035
H213	H	0.794161	-0.227401	-0.873906
O214	O	0.812177	-0.296384	-0.959154
C215	C	0.881928	-0.190666	-0.961590
C216	C	0.843260	-0.249341	-0.993443
H217	H	0.907076	-0.152628	-0.989300
H218	H	0.859348	-0.147014	-0.934652
H219	H	0.908011	-0.228966	-0.937232
H220	H	0.817168	-0.211107	-1.017832
H221	H	0.865872	-0.292994	-1.020348
H222	H	0.806648	-0.304805	-1.062697
H223	H	0.679081	-0.498281	-0.969747
H224	H	0.679016	-0.498490	-0.467398
