data_functionalizedCrystal
_audit_creation_method	'MofGen! by Chris Wilmer'
_symmetry_space_group_name_H-M	'P1'
_symmetry_Int_Tables_number	1
_symmetry_cell_setting	triclinic
loop_
_symmetry_equiv_pos_as_xyz
  x,y,z
_cell_length_a	14.971482
_cell_length_b	8.559649
_cell_length_c	13.448316
_cell_angle_alpha	89.994831
_cell_angle_beta	89.993798
_cell_angle_gamma	76.695636
loop_
_atom_site_label
_atom_site_type_symbol
_atom_site_fract_x
_atom_site_fract_y
_atom_site_fract_z
O1	O	1.172525	0.208175	-0.082674
O2	O	1.672525	0.708175	0.417326
O3	O	0.910396	0.233114	-0.082679
O4	O	1.410396	0.733114	0.417321
O5	O	1.064554	-0.011914	-0.082675
O6	O	1.564554	0.488086	0.417325
O7	O	1.018367	0.453203	-0.082678
O8	O	1.518367	0.953203	0.417322
O9	O	1.064538	-0.011929	0.082709
O10	O	1.564538	0.488071	0.582709
O11	O	0.910380	0.233099	0.082705
O12	O	1.410380	0.733099	0.582705
O13	O	1.172508	0.208160	0.082710
O14	O	1.672508	0.708160	0.582710
Cu15	Cu	1.041443	0.220628	0.097808
Cu16	Cu	1.541443	0.720628	0.597808
Cu17	Cu	1.041462	0.220646	-0.097777
Cu18	Cu	1.541462	0.720646	0.402223
O19	O	1.018350	0.453188	0.082706
O20	O	1.518350	0.953188	0.582706
C21	C	0.877140	0.231992	0.000013
C22	C	1.377140	0.731992	0.500013
C23	C	0.778074	0.228653	0.000011
C24	C	1.278074	0.728653	0.500011
C25	C	0.731530	0.227072	0.090163
C26	C	1.231530	0.727072	0.590163
C27	C	0.638451	0.223909	0.090164
C28	C	1.138451	0.723909	0.590164
C29	C	0.591916	0.222339	0.000012
C30	C	1.091916	0.722339	0.500012
C31	C	0.638468	0.223915	-0.090147
C32	C	1.138468	0.723915	0.409853
C33	C	0.731547	0.227066	-0.090147
C34	C	1.231547	0.727066	0.409853
C35	C	0.444461	0.217350	-0.090140
C36	C	0.944461	0.717350	0.409860
C37	C	0.351374	0.214202	-0.090141
C38	C	0.851374	0.714202	0.409859
C39	C	0.351364	0.214193	0.090170
C40	C	0.851364	0.714193	0.590170
C41	C	0.444444	0.217345	0.090170
C42	C	0.944444	0.717345	0.590170
C43	C	0.490988	0.218924	0.000011
C44	C	0.990988	0.718924	0.500011
C45	C	1.068046	-0.071445	0.000015
C46	C	1.568046	0.428555	0.500015
C47	C	1.078465	-0.248805	0.000010
C48	C	1.578465	0.251195	0.500010
C49	C	1.205764	0.209282	0.000016
C50	C	1.705764	0.709282	0.500016
C51	C	1.304830	0.212621	0.000011
C52	C	1.804830	0.712621	0.500011
C53	C	1.014858	0.512719	0.000014
C54	C	1.514858	1.012719	0.500014
C55	C	1.004439	0.690079	0.000013
C56	C	1.504439	1.190079	0.500013
N57	N	1.041436	0.220614	0.235373
N58	N	1.541436	0.720614	0.735373
N59	N	1.041477	0.220647	-0.235342
N60	N	1.541477	0.720647	0.264658
C61	C	1.109713	0.112161	0.287414
C62	C	1.609713	0.612161	0.787414
C63	C	1.109718	0.112159	0.391518
C64	C	1.609718	0.612159	0.891518
C65	C	1.041450	0.220621	0.443577
C66	C	1.541450	0.720621	0.943577
C67	C	0.973166	0.329080	0.391528
C68	C	1.473166	0.829080	0.891528
C69	C	0.973158	0.329072	0.287427
C70	C	1.473158	0.829072	0.787427
C71	C	0.973190	0.329090	0.608508
C72	C	1.473190	0.829090	1.108508
C73	C	0.973200	0.329100	0.712617
C74	C	1.473200	0.829100	1.212617
C75	C	1.109751	0.112178	0.712599
C76	C	1.609751	0.612178	1.212599
C77	C	1.109743	0.112170	0.608498
C78	C	1.609743	0.612170	1.108498
C79	C	1.041459	0.220632	0.556456
C80	C	1.541459	0.720632	1.056456
H81	H	0.769410	0.228364	0.163575
H82	H	1.269410	0.728364	0.663575
H83	H	1.165349	0.023865	0.754978
H84	H	1.665349	0.523865	1.254978
H85	H	0.917608	0.417419	0.754998
H86	H	1.417608	0.917419	1.254998
O87	O	0.899540	0.446074	0.447678
O88	O	1.399540	0.946074	0.947678
H89	H	0.852058	0.521483	0.393998
H90	H	1.352058	1.021483	0.893998
H91	H	0.313463	0.212908	0.163581
H92	H	0.813463	0.712908	0.663581
H93	H	0.917559	0.417384	0.245055
H94	H	1.417559	0.917384	0.745055
H95	H	1.165335	0.023861	0.566111
H96	H	1.665335	0.523861	1.066111
H97	H	0.917584	0.417406	0.566139
H98	H	1.417584	0.917406	1.066139
H99	H	1.149817	-0.332176	0.000019
H100	H	1.649817	0.167824	0.500019
O101	O	1.183373	-0.004785	0.447653
O102	O	1.683373	0.495215	0.947653
H103	H	1.230854	-0.080182	0.393963
H104	H	1.730854	0.419818	0.893963
H105	H	0.600562	0.222595	0.163575
H106	H	1.100562	0.722595	0.663575
O107	O	1.183342	-0.004829	0.231265
O108	O	1.683342	0.495171	0.731265
H109	H	1.230814	-0.080256	0.284947
H110	H	1.730814	0.419744	0.784947
H111	H	0.482328	0.218633	0.163580
H112	H	0.982328	0.718633	0.663580
H113	H	0.313488	0.212924	-0.163550
H114	H	0.813488	0.712924	0.336450
H115	H	0.482354	0.218637	-0.163557
H116	H	0.982354	0.718637	0.336443
O117	O	0.588287	0.222200	-0.187386
O118	O	1.088287	0.722200	0.312614
H119	H	0.590713	0.331603	-0.230627
H120	H	1.090713	0.831603	0.269373
O121	O	0.781754	0.228782	-0.187381
O122	O	1.281754	0.728782	0.312619
H123	H	0.733758	0.227177	-0.250070
H124	H	1.233758	0.727177	0.249930
O125	O	0.909925	-0.199517	0.000013
O126	O	1.409925	0.300483	0.500013
H127	H	0.901559	-0.122700	-0.067401
H128	H	1.401559	0.377300	0.432599
