data_functionalizedCrystal
_audit_creation_method	'MofGen! by Chris Wilmer'
_symmetry_space_group_name_H-M	'P1'
_symmetry_Int_Tables_number	1
_symmetry_cell_setting	triclinic
loop_
_symmetry_equiv_pos_as_xyz
  x,y,z
_cell_length_a	19.288864
_cell_length_b	19.288859
_cell_length_c	18.366186
_cell_angle_alpha	90.003625
_cell_angle_beta	90.022894
_cell_angle_gamma	83.134987
loop_
_atom_site_label
_atom_site_type_symbol
_atom_site_fract_x
_atom_site_fract_y
_atom_site_fract_z
O1	O	0.921351	0.086649	0.060779
O2	O	1.421351	0.586649	0.560779
O3	O	0.719090	0.098338	0.060729
O4	O	1.219090	0.598338	0.560729
O5	O	0.826067	-0.008637	0.060755
O6	O	1.326067	0.491363	0.560755
O7	O	0.814374	0.193624	0.060752
O8	O	1.314374	0.693624	0.560752
O9	O	0.826049	-0.008643	-0.060344
O10	O	1.326049	0.491357	0.439656
O11	O	0.719072	0.098332	-0.060371
O12	O	1.219072	0.598332	0.439629
O13	O	0.921333	0.086644	-0.060320
O14	O	1.421333	0.586644	0.439680
Zn15	Zn	0.820199	0.092487	-0.079573
Zn16	Zn	1.320199	0.592487	0.420427
Zn17	Zn	0.820223	0.092494	0.079981
Zn18	Zn	1.320223	0.592494	0.579981
O19	O	0.814356	0.193619	-0.060347
O20	O	1.314356	0.693619	0.439653
C21	C	0.693204	0.097959	0.000173
C22	C	1.193204	0.597959	0.500173
C23	C	0.616101	0.096830	0.000153
C24	C	1.116101	0.596830	0.500153
C25	C	0.571403	0.159598	0.000164
C26	C	1.071403	0.659598	0.500164
C27	C	0.498956	0.158537	0.000172
C28	C	0.998956	0.658537	0.500172
C29	C	0.471210	0.094705	0.000184
C30	C	0.971210	0.594705	0.500184
C31	C	0.515918	0.031929	0.000170
C32	C	1.015918	0.531929	0.500170
C33	C	0.588363	0.032991	0.000154
C34	C	1.088363	0.532991	0.500154
C35	C	0.362955	0.044528	0.042636
C36	C	0.862955	0.544528	0.542636
C37	C	0.290511	0.043468	0.042656
C38	C	0.790511	0.543468	0.542656
C39	C	0.247765	0.091425	0.000228
C40	C	0.747765	0.591425	0.500228
C41	C	0.277470	0.140455	-0.042210
C42	C	0.777470	0.640455	0.457790
C43	C	0.349915	0.141517	-0.042225
C44	C	0.849915	0.641517	0.457775
C45	C	0.392656	0.093546	0.000200
C46	C	0.892656	0.593546	0.500200
C47	C	0.124511	0.153048	0.000247
C48	C	0.624511	0.653048	0.500247
C49	C	0.052063	0.151984	0.000250
C50	C	0.552063	0.651984	0.500250
C51	C	0.069026	0.025374	0.000255
C52	C	0.569026	0.525374	0.500255
C53	C	0.141472	0.026439	0.000244
C54	C	0.641472	0.526439	0.500244
C55	C	0.169210	0.090278	0.000243
C56	C	0.669210	0.590278	0.500243
C57	C	0.825682	-0.034516	0.000207
C58	C	1.325682	0.465484	0.500207
C59	C	0.824555	-0.111620	0.000212
C60	C	1.324555	0.388380	0.500212
C61	C	0.947218	0.087022	0.000237
C62	C	1.447218	0.587022	0.500237
C63	C	1.024322	0.088151	0.000261
C64	C	1.524322	0.588151	0.500261
C65	C	0.814740	0.219498	0.000203
C66	C	1.314740	0.719498	0.500203
C67	C	0.815868	0.296602	0.000203
C68	C	1.315868	0.796602	0.500203
N69	N	0.820188	0.092482	-0.188464
N70	N	1.320188	0.592482	0.311536
C71	C	0.760724	0.860642	0.000204
C72	C	1.260724	1.360642	0.500204
C73	C	0.759659	0.788196	0.000198
C74	C	1.259659	1.288196	0.500198
C75	C	0.822428	0.743489	0.000214
C76	C	1.322428	1.243489	0.500214
C77	C	0.886268	0.771234	0.000217
C78	C	1.386268	1.271234	0.500217
C79	C	0.887331	0.843679	0.000216
C80	C	1.387331	1.343679	0.500216
C81	C	0.869248	0.622219	0.042651
C82	C	1.369248	1.122219	0.542651
C83	C	0.868181	0.549775	0.042657
C84	C	1.368181	1.049775	0.542657
C85	C	0.819151	0.520043	0.000214
C86	C	1.319151	1.020043	0.500214
C87	C	0.771174	0.562765	-0.042225
C88	C	1.271174	1.062765	0.457775
C89	C	0.772238	0.635210	-0.042226
C90	C	1.272238	1.135210	0.457774
C91	C	0.821282	0.664933	0.000215
C92	C	1.321282	1.164933	0.500215
C93	C	0.754160	0.413752	0.000199
C94	C	1.254160	0.913752	0.500199
C95	C	0.753098	0.341303	0.000188
C96	C	1.253098	0.841303	0.500188
C97	C	0.879708	0.324343	0.000215
C98	C	1.379708	0.824343	0.500215
C99	C	0.880769	0.396790	0.000218
C100	C	1.380769	0.896790	0.500218
C101	C	0.817993	0.441490	0.000214
C102	C	1.317993	0.941490	0.500214
C103	C	0.867573	0.045137	-0.226552
C104	C	1.367573	0.545137	0.273448
C105	C	0.867577	0.045134	-0.302780
C106	C	1.367577	0.545134	0.197220
C107	C	0.820204	0.092488	-0.340917
C108	C	1.320204	0.592488	0.159083
C109	C	0.772810	0.139837	-0.302819
C110	C	1.272810	0.639837	0.197181
C111	C	0.772802	0.139834	-0.226593
C112	C	1.272802	0.639834	0.273407
C113	C	0.810904	0.155776	-0.461679
C114	C	1.310904	0.655776	0.038321
C115	C	0.810917	0.155780	-0.537904
C116	C	1.310917	0.655780	-0.037904
C117	C	0.820223	0.092497	-0.576024
C118	C	1.320223	0.592497	-0.076024
C119	C	0.829532	0.029207	-0.537910
C120	C	1.329532	0.529207	-0.037910
C121	C	0.829525	0.029204	-0.461683
C122	C	1.329525	0.529204	0.038317
C123	C	0.820206	0.092496	-0.423571
C124	C	1.320206	0.592496	0.076429
C125	C	0.867616	0.045144	-0.696768
C126	C	1.367616	0.545144	-0.196768
C127	C	0.867615	0.045140	-0.772997
C128	C	1.367615	0.545140	-0.272997
C129	C	0.772851	0.139849	-0.773034
C130	C	1.272851	0.639849	-0.273034
C131	C	0.772848	0.139847	-0.696806
C132	C	1.272848	0.639847	-0.196806
C133	C	0.820234	0.092495	-0.658678
C134	C	1.320234	0.592495	-0.158678
N135	N	0.820240	0.092494	0.188872
N136	N	1.320240	0.592494	0.688872
H137	H	0.462556	0.209652	0.000179
H138	H	0.962556	0.709652	0.500179
O139	O	0.381962	0.194368	-0.088024
O140	O	0.881962	0.694368	0.411976
H141	H	0.340074	0.227530	-0.117539
H142	H	0.840074	0.727530	0.382461
O143	O	0.039114	-0.043478	0.000263
O144	O	0.539114	0.456522	0.500263
H145	H	0.006545	-0.046996	0.049630
H146	H	0.506545	0.453004	0.549630
H147	H	0.906165	0.006578	-0.333798
H148	H	1.406165	0.506578	0.166202
O149	O	0.258473	-0.009418	0.088416
O150	O	0.758473	0.490582	0.588416
H151	H	0.300368	-0.042599	0.117901
H152	H	0.800368	0.457401	0.617901
H153	H	0.909178	0.646420	0.077215
H154	H	1.409178	1.146420	0.577215
O155	O	0.231378	0.192183	-0.087981
O156	O	0.731378	0.692183	0.412019
H157	H	0.176012	0.183204	-0.080851
H158	H	0.676012	0.683204	0.419149
H159	H	0.906156	0.006579	-0.195510
H160	H	1.406156	0.506579	0.304490
O161	O	0.918696	-0.005955	-0.655640
O162	O	1.418696	0.494045	-0.155640
H163	H	0.910729	0.001996	-0.596236
H164	H	1.410729	0.501996	-0.096236
O165	O	0.839552	-0.039051	-0.420571
O166	O	1.339552	0.460949	0.079429
H167	H	0.846019	-0.083059	-0.459878
H168	H	1.346019	0.416941	0.040122
O169	O	0.839566	-0.039057	-0.579011
O170	O	1.339566	0.460943	-0.079011
H171	H	0.837997	-0.028426	-0.638419
H172	H	1.337997	0.471574	-0.138419
O173	O	0.684246	0.311385	0.000172
O174	O	1.184246	0.811385	0.500172
H175	H	0.680746	0.278778	0.049524
H176	H	1.180746	0.778778	0.549524
H177	H	0.703044	0.450149	0.000190
H178	H	1.203044	0.950149	0.500190
O179	O	0.154437	0.221897	0.000231
O180	O	0.654437	0.721897	0.500231
H181	H	0.111181	0.265368	0.000226
H182	H	0.611181	0.765368	0.500226
H183	H	0.731248	0.538559	-0.076786
H184	H	1.231248	1.038559	0.423214
O185	O	0.721748	0.190920	-0.655717
O186	O	1.221748	0.690920	-0.155717
H187	H	0.688810	0.223854	-0.695039
H188	H	1.188810	0.723854	-0.195039
H189	H	0.177866	-0.024674	0.000240
H190	H	0.677866	0.475326	0.500240
H191	H	0.937375	0.734829	0.000229
H192	H	1.437375	1.234829	0.500229
O193	O	0.003847	0.219687	0.000259
O194	O	0.503847	0.719687	0.500259
H195	H	0.035310	0.264253	0.000262
H196	H	0.535310	0.764253	0.500262
H197	H	0.397755	0.005473	0.077190
H198	H	0.897755	0.505473	0.577190
O199	O	0.721698	0.190906	-0.185504
O200	O	1.221698	0.690906	0.314496
H201	H	0.688757	0.223838	-0.224825
H202	H	1.188757	0.723838	0.275175
H203	H	0.803341	0.207314	-0.568931
H204	H	1.303341	0.707314	-0.068931
O205	O	0.721773	0.190934	-0.814170
O206	O	1.221773	0.690934	-0.314170
H207	H	0.730462	0.245054	-0.799522
H208	H	1.230462	0.745054	-0.299522
H209	H	0.803313	0.207312	-0.430648
H210	H	1.303313	0.707312	0.069352
O211	O	0.947409	0.276128	0.000229
O212	O	1.447409	0.776128	0.500229
H213	H	0.977953	0.285962	-0.049127
H214	H	1.477953	0.785962	0.450873
H215	H	0.932747	0.419373	0.000229
H216	H	1.432747	0.919373	0.500229
O217	O	0.485998	-0.036922	0.000183
O218	O	0.985998	0.463078	0.500183
H219	H	0.428112	-0.027116	0.000203
H220	H	0.928112	0.472884	0.500203
H221	H	0.707679	0.765608	0.000184
H222	H	1.207679	1.265608	0.500184
H223	H	0.734236	0.178392	-0.333873
H224	H	1.234236	0.678392	0.166127
O225	O	0.919936	0.503697	0.088412
O226	O	1.419936	1.003697	0.588412
H227	H	0.954222	0.536538	0.117908
H228	H	1.454222	1.036538	0.617908
H229	H	0.624757	-0.018124	0.000146
H230	H	1.124757	0.481876	0.500146
H231	H	0.709607	0.897034	0.000199
H232	H	1.209607	1.397034	0.500199
H233	H	0.906200	0.006582	-0.804009
H234	H	1.406200	0.506582	-0.304009
H235	H	0.593982	0.211581	0.000165
H236	H	1.093982	0.711581	0.500165
H237	H	0.733175	0.669992	-0.076783
H238	H	1.233175	1.169992	0.423217
O239	O	0.956180	0.873603	0.000238
O240	O	1.456180	1.373603	0.500238
H241	H	0.999650	0.830348	0.000254
H242	H	1.499650	1.330348	0.500254
