data_functionalizedCrystal
_audit_creation_method	'MofGen! by Chris Wilmer'
_symmetry_space_group_name_H-M	'P1'
_symmetry_Int_Tables_number	1
_symmetry_cell_setting	triclinic
loop_
_symmetry_equiv_pos_as_xyz
  x,y,z
_cell_length_a	6.817900
_cell_length_b	9.170630
_cell_length_c	27.923559
_cell_angle_alpha	87.540508
_cell_angle_beta	98.965071
_cell_angle_gamma	112.460426
loop_
_atom_site_label
_atom_site_type_symbol
_atom_site_fract_x
_atom_site_fract_y
_atom_site_fract_z
V1	V	-4.016867	-0.217905	-0.141942
O2	O	-3.963718	0.008190	-0.148739
O3	O	-4.007740	-0.429875	-0.131835
O4	O	-3.946226	-0.215554	-0.208016
O5	O	-4.025658	-0.207615	-0.072031
V6	V	-4.498288	-0.190743	-0.134690
O7	O	-4.282736	-0.277487	-0.157850
O8	O	-4.682615	-0.131162	-0.118782
O9	O	-4.284208	0.021226	-0.144797
O10	O	-4.668834	-0.416838	-0.127892
O11	O	-4.606893	-0.201034	-0.204601
O12	O	-4.345722	-0.193094	-0.068616
C13	C	-3.863015	-0.481517	-0.127238
C14	C	-3.936691	-0.654812	-0.119415
C15	C	-3.784546	-0.208128	-0.224414
C16	C	-3.808333	-0.207609	-0.278370
C17	C	-4.020323	-0.347438	-0.613770
C18	C	-4.109849	-0.345579	-0.816559
O19	O	-4.176115	-0.466839	-0.843474
N20	N	-4.056828	-0.202481	-0.841100
C21	C	-3.981433	-0.059838	-0.814941
O22	O	-3.938411	0.061917	-0.840467
C23	C	-3.891923	-0.061700	-0.612153
C24	C	-3.944929	-0.204806	-0.587615
C25	C	-4.073326	-0.490533	-0.589232
C26	C	-4.050934	-0.490996	-0.538538
C27	C	-3.975540	-0.348364	-0.512382
C28	C	-3.922537	-0.205269	-0.536921
C29	C	-3.816544	0.080940	-0.585995
C30	C	-3.794176	0.080462	-0.535295
C31	C	-3.847181	-0.062644	-0.510757
C32	C	-3.824751	-0.063100	-0.460071
N33	N	-3.877771	-0.206198	-0.435530
C34	C	-3.953166	-0.348830	-0.461686
C35	C	-4.028428	-0.058871	-0.921407
C36	C	-4.050802	-0.058405	-0.972103
C37	C	-4.179220	-0.344146	-0.973718
C38	C	-4.156831	-0.344610	-0.923020
C39	C	-4.081449	-0.201969	-0.896866
C40	C	-3.906135	-0.349791	-0.355224
C41	C	-3.883727	-0.350241	-0.304525
C42	C	-3.755322	-0.064501	-0.302915
C43	C	-3.777717	-0.064050	-0.353609
C44	C	-3.853135	-0.206708	-0.379763
O45	O	-3.758522	0.058095	-0.433125
O46	O	-3.996221	-0.470569	-0.436150
C47	C	-4.042715	-0.346975	-0.664465
C48	C	-3.989712	-0.203880	-0.689003
C49	C	-3.914318	-0.061249	-0.662848
C50	C	-4.012086	-0.203414	-0.739700
C51	C	-4.087480	-0.346046	-0.765855
C52	C	-4.140501	-0.489144	-0.741314
C53	C	-4.118109	-0.489607	-0.690620
C54	C	-3.861297	0.081849	-0.687389
C55	C	-3.883692	0.082301	-0.738083
C56	C	-3.959086	-0.060331	-0.764238
C57	C	-4.092277	0.072861	-0.149392
C58	C	-3.997838	0.246154	-0.157218
C59	C	-4.170746	-0.200525	-0.052215
C60	C	-4.126196	-0.201037	0.001741
H61	H	-3.993810	-0.706052	-0.195572
Cl62	Cl	-3.817030	0.262226	-0.768925
H63	H	-3.732796	0.196620	-0.514003
H64	H	-3.926889	-0.466780	-0.284548
H65	H	-3.693928	0.051626	-0.281610
Cl66	Cl	-3.942871	-0.728585	-0.060200
Cl67	Cl	-3.766437	0.261180	-0.654514
Cl68	Cl	-4.000940	-0.529135	-0.388095
Cl69	Cl	-4.223476	-0.524521	-0.892177
Cl70	Cl	-4.117613	-0.670912	-0.507697
Cl71	Cl	-4.168114	-0.669867	-0.622104
Cl72	Cl	-3.984118	0.121510	-1.002945
Cl73	Cl	-4.273969	-0.523452	-1.006608
H74	H	-3.967043	0.057291	-0.900116
H75	H	-4.161275	-0.606139	-0.670645
Cl76	Cl	-3.749896	0.260858	-0.616831
Cl77	Cl	-3.711057	0.115858	-0.384458
H78	H	-4.201882	-0.605280	-0.762619
