data_functionalizedCrystal
_audit_creation_method	'MofGen! by Chris Wilmer'
_symmetry_space_group_name_H-M	'P1'
_symmetry_Int_Tables_number	1
_symmetry_cell_setting	triclinic
loop_
_symmetry_equiv_pos_as_xyz
  x,y,z
_cell_length_a	18.050590
_cell_length_b	25.639239
_cell_length_c	18.050582
_cell_angle_alpha	90.024638
_cell_angle_beta	89.999233
_cell_angle_gamma	90.027853
loop_
_atom_site_label
_atom_site_type_symbol
_atom_site_fract_x
_atom_site_fract_y
_atom_site_fract_z
Zn1	Zn	1.135238	-0.208335	0.419591
Zn2	Zn	1.135126	-0.295763	0.295396
Zn3	Zn	1.011058	-0.208327	0.295449
Zn4	Zn	1.010983	-0.295725	0.419579
O5	O	1.073101	-0.252037	0.357504
O6	O	1.239148	-0.219952	0.403099
O7	O	1.118653	-0.284177	0.191479
O8	O	1.027609	-0.135163	0.311944
O9	O	1.239066	-0.284185	0.311854
O10	O	1.118844	-0.135169	0.403150
O11	O	1.027500	-0.219938	0.191517
O12	O	0.907123	-0.219901	0.311932
O13	O	1.027481	-0.284120	0.523505
O14	O	0.907068	-0.284112	0.403130
O15	O	1.118771	-0.219915	0.523514
O16	O	1.118580	-0.368923	0.311843
O17	O	1.027373	-0.368895	0.403079
C18	C	0.880149	-0.252002	0.357536
C19	C	0.797603	-0.251999	0.357567
C20	C	0.598144	-0.287017	0.407043
C21	C	0.548764	-0.239344	0.425320
C22	C	0.646473	-0.252028	0.357531
C23	C	0.548772	-0.299728	0.339253
C24	C	0.500488	-0.252061	0.357497
C25	C	0.598180	-0.204330	0.375844
C26	C	0.598192	-0.264747	0.289745
C27	C	0.548834	-0.217041	0.307997
C28	C	0.730571	-0.252010	0.357552
C29	C	0.416391	-0.252073	0.357476
C30	C	1.072976	-0.387880	0.357470
C31	C	1.072991	-0.445994	0.357480
C32	C	1.120717	-0.806359	0.310078
C33	C	1.120746	-0.860963	0.310088
O34	O	1.161195	-0.889202	0.269748
N35	N	1.073232	-0.888277	0.357553
C36	C	1.025691	-0.860982	0.405017
O37	O	0.985280	-0.889228	0.445391
C38	C	1.025667	-0.806379	0.405010
C39	C	1.073179	-0.779069	0.357536
C40	C	1.168226	-0.779049	0.262609
C41	C	1.168196	-0.724448	0.262598
C42	C	1.120657	-0.697158	0.310057
C43	C	1.073149	-0.724468	0.357526
C44	C	0.978131	-0.779086	0.452477
C45	C	0.978111	-0.724479	0.452466
C46	C	1.025622	-0.697169	0.404993
C47	C	1.025580	-0.642578	0.404973
N48	N	1.073094	-0.615265	0.357508
C49	C	1.120633	-0.642555	0.310050
C50	C	1.025747	-0.975653	0.405028
C51	C	1.025767	-1.030255	0.405032
C52	C	1.120823	-1.030233	0.310104
C53	C	1.120799	-0.975629	0.310097
C54	C	1.073261	-0.948340	0.357563
C55	C	1.120566	-0.527890	0.310030
C56	C	1.120529	-0.473284	0.310022
C57	C	1.025477	-0.473312	0.404952
C58	C	1.025510	-0.527913	0.404958
C59	C	1.073061	-0.555200	0.357495
O60	O	0.985154	-0.614305	0.445295
O61	O	1.161044	-0.614302	0.269689
C62	C	1.266807	-0.252074	0.357472
C63	C	1.349353	-0.252089	0.357459
C64	C	1.073130	-0.252014	0.551210
C65	C	1.073143	-0.252004	0.633755
C66	C	1.073247	-0.115664	0.357554
C67	C	1.073309	-0.057550	0.357576
C68	C	1.073115	-0.252023	0.164552
C69	C	1.073247	-0.251885	0.082006
C70	C	1.023537	-0.286871	0.833201
C71	C	1.091289	-0.299661	0.882573
C72	C	1.073179	-0.251965	0.784886
C73	C	1.005465	-0.239161	0.882595
C74	C	1.073209	-0.251927	0.930871
C75	C	1.140967	-0.264779	0.833171
C76	C	1.055097	-0.204257	0.833188
C77	C	1.122895	-0.217028	0.882538
C78	C	1.073162	-0.251988	0.700787
C79	C	1.073234	-0.251904	1.014968
H80	H	0.527052	-0.228597	0.482631
H81	H	0.619791	-0.163992	0.391354
H82	H	0.939438	-0.801313	0.491131
H83	H	1.039765	-0.163939	0.811479
O84	O	1.172943	-0.181729	0.908252
C85	C	1.136155	-0.143825	0.951256
H86	H	1.075285	-0.142252	0.934575
H87	H	1.162756	-0.104072	0.941572
H88	H	1.140677	-0.154499	1.012393
H89	H	1.159487	-0.953396	0.271440
O90	O	0.937192	-0.226193	0.908583
C91	C	0.942358	-0.180384	0.951519
H92	H	1.001459	-0.175758	0.972801
H93	H	0.902660	-0.183120	1.000486
H94	H	0.927132	-0.145235	0.915992
O95	O	1.214390	-0.697864	0.216591
C96	C	1.262328	-0.666247	0.258901
H97	H	1.236091	-0.658056	0.315160
H98	H	1.272291	-0.627858	0.228648
H99	H	1.317364	-0.687260	0.267106
H100	H	1.159288	-0.550101	0.271383
O101	O	0.523032	-0.181758	0.258040
C102	C	0.444928	-0.182452	0.258159
H103	H	0.424586	-0.221598	0.280139
H104	H	0.423681	-0.176557	0.199282
H105	H	0.423360	-0.149763	0.295151
O106	O	1.214430	-0.805473	0.216432
C107	C	1.256364	-0.769648	0.174554
H108	H	1.225923	-0.730745	0.171972
H109	H	1.264329	-0.785433	0.116043
H110	H	1.312748	-0.763798	0.201782
O111	O	1.167034	-1.056829	0.264125
C112	C	1.156878	-1.110878	0.274332
H113	H	1.132449	-1.118310	0.331604
H114	H	1.212539	-1.131584	0.269427
H115	H	1.117435	-1.126445	0.230219
H116	H	0.527066	-0.340054	0.323809
H117	H	1.159219	-0.451050	0.271361
O118	O	0.623949	-0.322196	0.457146
C119	C	0.598747	-0.308611	0.528522
H120	H	0.584901	-0.265247	0.530030
H121	H	0.643906	-0.317361	0.570876
H122	H	0.547056	-0.332239	0.542377
H123	H	0.987072	-1.052487	0.443682
O124	O	0.979595	-0.949203	0.451236
C125	C	0.995793	-0.962503	0.525266
H126	H	1.024365	-1.002130	0.526825
H127	H	0.942173	-0.964396	0.558529
H128	H	1.033938	-0.931739	0.550306
O129	O	0.624084	-0.277672	0.221415
C130	C	0.597802	-0.327593	0.201780
H131	H	0.583115	-0.350274	0.254068
H132	H	0.642632	-0.349396	0.169851
H133	H	0.546409	-0.323478	0.165544
O134	O	0.931863	-0.698052	0.498602
C135	C	0.889954	-0.733870	0.540515
H136	H	0.887420	-0.772805	0.510098
H137	H	0.831428	-0.718127	0.548407
H138	H	0.917124	-0.739642	0.596933
O139	O	0.979332	-0.554364	0.451140
C140	C	0.937352	-0.518565	0.493010
H141	H	0.967745	-0.479621	0.495585
H142	H	0.929405	-0.534319	0.551524
H143	H	0.880962	-0.512808	0.465779
O144	O	1.109452	-0.347767	0.908549
C145	C	1.051089	-0.367113	0.952599
H146	H	1.016565	-0.333154	0.974264
H147	H	1.074914	-0.389887	1.001307
H148	H	1.014595	-0.393939	0.917849
O149	O	1.209371	-0.277725	0.807511
C150	C	1.257230	-0.286769	0.867880
H151	H	1.235326	-0.265581	0.918906
H152	H	1.314962	-0.271630	0.853941
H153	H	1.260104	-0.330410	0.879607
O154	O	0.979410	-0.446771	0.451132
C155	C	1.021659	-0.415135	0.499097
H156	H	1.080152	-0.431561	0.503719
H157	H	0.994769	-0.414501	0.556236
H158	H	1.024219	-0.373762	0.476122
H159	H	0.981596	-0.316429	0.811539
