data_functionalizedCrystal
_audit_creation_method	'MofGen! by Chris Wilmer'
_symmetry_space_group_name_H-M	'P1'
_symmetry_Int_Tables_number	1
_symmetry_cell_setting	triclinic
loop_
_symmetry_equiv_pos_as_xyz
  x,y,z
_cell_length_a	14.519709
_cell_length_b	11.295483
_cell_length_c	12.837942
_cell_angle_alpha	94.530417
_cell_angle_beta	90.745457
_cell_angle_gamma	94.107320
loop_
_atom_site_label
_atom_site_type_symbol
_atom_site_fract_x
_atom_site_fract_y
_atom_site_fract_z
O1	O	1.241202	0.098867	-0.128949
O2	O	0.974110	0.098903	-0.144951
O3	O	1.101733	0.098879	0.013963
O4	O	1.113579	0.098892	-0.287864
O5	O	1.090522	-0.099170	0.000027
O6	O	0.962899	-0.099145	-0.158888
O7	O	1.229991	-0.099181	-0.142885
Cu8	Cu	1.095421	-0.117247	-0.152159
Cu9	Cu	1.108680	0.116969	-0.135678
O10	O	1.102368	-0.099157	-0.301800
C11	C	0.934081	-0.000116	-0.151173
C12	C	0.831507	-0.000103	-0.148937
N13	N	1.086102	-0.281981	-0.163750
C14	C	1.185082	-0.531290	-0.040579
C15	C	1.178047	-0.655952	-0.049346
C16	C	1.064993	-0.655971	-0.190046
C17	C	1.072028	-0.531308	-0.181279
C18	C	1.132075	-0.468972	-0.106544
C19	C	1.139115	-0.344308	-0.097782
C20	C	1.026057	-0.344328	-0.238477
C21	C	1.019022	-0.468991	-0.247244
C22	C	0.455897	-0.000157	-0.140712
C23	C	0.560403	-0.000142	-0.142996
C24	C	0.643699	-0.000129	-0.144824
C25	C	0.748212	-0.000115	-0.147109
C26	C	1.270021	-0.000159	-0.136663
C27	C	1.372595	-0.000165	-0.138899
C28	C	1.092126	-0.000144	0.045623
C29	C	1.080192	-0.000141	0.160723
N30	N	1.118005	0.281703	-0.124078
C31	C	1.111975	-0.000131	-0.333460
C32	C	1.123909	-0.000127	-0.448558
C33	C	1.223663	-0.000135	0.401415
C34	C	1.212454	-0.000132	0.509562
C35	C	1.046567	-0.000122	0.485166
C36	C	1.057776	-0.000125	0.377019
C37	C	1.146327	-0.000134	0.335148
C38	C	1.157534	-0.000146	0.226998
C39	C	0.991648	-0.000127	0.202605
C40	C	0.980440	-0.000124	0.310751
H41	H	1.188011	-0.293555	-0.036932
H42	H	0.908344	-0.000112	0.344859
O43	O	1.229582	-0.716618	0.014580
C44	C	1.287317	-0.788695	-0.046150
H45	H	1.256658	-0.807379	-0.128505
H46	H	1.358818	-0.740638	-0.049981
C47	C	1.332868	-0.884158	0.105083
C48	C	1.295208	-0.907115	0.003935
H49	H	1.337740	-0.957204	0.135979
H50	H	1.293974	-0.835596	0.145999
H51	H	1.392449	-0.844108	0.101877
H52	H	1.235625	-0.947151	0.007144
H53	H	1.334092	-0.955687	-0.036980
O54	O	1.243427	-0.470914	0.032097
C55	C	1.288728	-0.552651	0.088418
H56	H	1.245795	-0.641522	0.083438
H57	H	1.359457	-0.565897	0.053646
C58	C	1.353397	-0.394841	0.209756
C59	C	1.300661	-0.503990	0.203647
H60	H	1.360762	-0.364823	0.280833
H61	H	1.322880	-0.339772	0.171809
H62	H	1.412332	-0.405894	0.180773
H63	H	1.241724	-0.492933	0.232617
H64	H	1.331168	-0.559056	0.241601
H65	H	0.928675	-0.000136	0.148636
O66	O	1.287562	0.000074	0.573992
C67	C	1.291831	0.102632	0.644507
H68	H	1.252196	0.174325	0.610036
H69	H	1.259743	0.079445	0.721563
C70	C	1.442063	0.061083	0.706348
C71	C	1.393389	0.149141	0.664006
H72	H	1.504708	0.089770	0.718381
H73	H	1.439186	-0.008015	0.658844
H74	H	1.415313	0.041769	0.770556
H75	H	1.420132	0.168443	0.599793
H76	H	1.396273	0.218243	0.711500
O77	O	1.006606	-0.716672	-0.262498
C78	C	0.940744	-0.788760	-0.211886
H79	H	0.969303	-0.807410	-0.132155
H80	H	0.874664	-0.740730	-0.201301
C81	C	0.884410	-0.884288	-0.376526
C82	C	0.919490	-0.907202	-0.278604
H83	H	0.871295	-0.957347	-0.417682
H84	H	0.928780	-0.835718	-0.410626
H85	H	0.829347	-0.844260	-0.367692
H86	H	0.974557	-0.947216	-0.287438
H87	H	0.875128	-0.955782	-0.244507
O88	O	0.960561	-0.529498	-0.319729
C89	C	0.869494	-0.499025	-0.300528
H90	H	0.863681	-0.464750	-0.215109
H91	H	0.851537	-0.426672	-0.352845
C92	C	0.809264	-0.651874	-0.429182
C93	C	0.802123	-0.609786	-0.324266
H94	H	0.767705	-0.720193	-0.443829
H95	H	0.870618	-0.672401	-0.442121
H96	H	0.794301	-0.591568	-0.472767
H97	H	0.817097	-0.670085	-0.280683
H98	H	0.740770	-0.589271	-0.311320
O99	O	0.974662	-0.283849	-0.302710
C100	C	0.996944	-0.314343	-0.407521
H101	H	1.068904	-0.348601	-0.410611
H102	H	0.944412	-0.386715	-0.442935
C103	C	0.906659	-0.161534	-0.466205
C104	C	0.995045	-0.203602	-0.470001
H105	H	0.905484	-0.093227	-0.504748
H106	H	0.891644	-0.140993	-0.395593
H107	H	0.862892	-0.221855	-0.495715
H108	H	1.038808	-0.143287	-0.440480
H109	H	1.010068	-0.224131	-0.540611
H110	H	1.229636	-0.000157	0.192909
O111	O	1.309744	-0.000092	0.360910
C112	C	1.375600	-0.000129	0.442590
H113	H	1.345418	0.037367	0.518743
H114	H	1.394534	-0.095146	0.451157
C115	C	1.499800	0.031478	0.323834
C116	C	1.462733	0.077541	0.417366
H117	H	1.553550	0.079383	0.308274
H118	H	1.455432	0.031498	0.268804
H119	H	1.515571	-0.047702	0.330986
H120	H	1.446951	0.156713	0.410209
H121	H	1.507100	0.077535	0.472394
H122	H	0.974474	-0.000102	0.519278
