data_functionalizedCrystal
_audit_creation_method	'MofGen! by Chris Wilmer'
_symmetry_space_group_name_H-M	'P1'
_symmetry_Int_Tables_number	1
_symmetry_cell_setting	triclinic
loop_
_symmetry_equiv_pos_as_xyz
  x,y,z
_cell_length_a	12.759401
_cell_length_b	13.897448
_cell_length_c	12.759393
_cell_angle_alpha	90.033346
_cell_angle_beta	90.018496
_cell_angle_gamma	90.017853
loop_
_atom_site_label
_atom_site_type_symbol
_atom_site_fract_x
_atom_site_fract_y
_atom_site_fract_z
Zn1	Zn	1.606234	-0.383954	0.593968
Zn2	Zn	1.606119	-0.545283	0.418283
Zn3	Zn	1.430536	-0.384004	0.418308
Zn4	Zn	1.430515	-0.545209	0.593924
O5	O	1.518351	-0.464613	0.506121
O6	O	1.753239	-0.405365	0.570671
O7	O	1.582788	-0.523942	0.271265
O8	O	1.453899	-0.249016	0.441638
O9	O	1.753155	-0.523893	0.441596
O10	O	1.582983	-0.248979	0.570695
O11	O	1.453788	-0.405451	0.271283
O12	O	1.283512	-0.405379	0.441596
O13	O	1.453864	-0.523766	0.740951
O14	O	1.283497	-0.523815	0.570621
O15	O	1.582964	-0.405293	0.740984
O16	O	1.582768	-0.680255	0.441554
O17	O	1.453753	-0.680201	0.570597
C18	C	1.245383	-0.464595	0.506107
C19	C	1.128607	-0.464611	0.506125
C20	C	1.073764	-0.526379	0.573198
C21	C	0.964040	-0.526391	0.573209
C22	C	0.964011	-0.402864	0.439067
C23	C	1.073733	-0.402847	0.439062
C24	C	1.128638	-0.588142	0.640261
C25	C	1.073796	-0.649917	0.707338
C26	C	0.964072	-0.649929	0.707349
C27	C	0.909190	-0.588167	0.640284
C28	C	1.518274	-0.715227	0.506090
C29	C	1.518337	-0.822441	0.506113
C30	C	1.518448	-1.018736	0.506178
C31	C	1.518383	-0.909503	0.506145
C32	C	1.792384	-0.464631	0.506136
C33	C	1.909161	-0.464639	0.506142
C34	C	1.518424	-0.464515	0.780154
C35	C	1.518456	-0.464474	0.896931
C36	C	1.518456	-0.213020	0.506174
C37	C	1.518501	-0.105806	0.506197
C38	C	1.518338	-0.464640	0.233154
C39	C	1.518510	-0.464410	0.116377
C40	C	1.585687	-0.402779	0.951812
C41	C	1.585712	-0.402744	1.061536
C42	C	1.451271	-0.526107	1.061489
C43	C	1.451242	-0.526137	0.951767
C44	C	1.652901	-0.341116	0.896976
C45	C	1.720139	-0.279417	0.951856
C46	C	1.720164	-0.279382	1.061580
C47	C	1.652951	-0.341046	1.116424
H48	H	1.118488	-0.700195	0.761947
H49	H	0.919422	-0.700221	0.761974
H50	H	1.396549	-0.576311	1.106152
H51	H	0.819845	-0.588173	0.640308
N52	N	0.907938	-0.339784	0.370575
N53	N	0.809973	-0.339808	0.370590
H54	H	0.770370	-0.295258	0.322215
H55	H	1.774904	-0.229136	1.106261
N56	N	1.652896	-0.341144	0.784897
N57	N	1.712913	-0.286090	0.735945
H58	H	1.712911	-0.286112	0.656789
N59	N	1.129744	-0.339736	0.370556
N60	N	1.080740	-0.284596	0.310684
H61	H	1.120297	-0.240016	0.262306
N62	N	1.788773	-0.216427	0.895824
N63	N	1.788741	-0.216462	0.797859
H64	H	1.837213	-0.171972	0.758287
H65	H	1.652964	-0.341002	1.205769
N66	N	1.382554	-0.589155	0.895717
N67	N	1.322552	-0.644209	0.944687
H68	H	1.274035	-0.688714	0.905102
H69	H	1.217981	-0.588141	0.640258
