data_functionalizedCrystal
_audit_creation_method	'MofGen! by Chris Wilmer'
_symmetry_space_group_name_H-M	'P1'
_symmetry_Int_Tables_number	1
_symmetry_cell_setting	triclinic
loop_
_symmetry_equiv_pos_as_xyz
  x,y,z
_cell_length_a	16.992694
_cell_length_b	19.188930
_cell_length_c	15.455313
_cell_angle_alpha	92.650876
_cell_angle_beta	87.142206
_cell_angle_gamma	86.906503
loop_
_atom_site_label
_atom_site_type_symbol
_atom_site_fract_x
_atom_site_fract_y
_atom_site_fract_z
O1	O	1.043326	0.145160	-0.072038
O2	O	1.376659	0.478493	0.261295
O3	O	1.709993	0.811827	0.594628
O4	O	0.815047	0.143535	-0.072064
O5	O	1.148381	0.476869	0.261270
O6	O	1.481714	0.810202	0.594603
O7	O	0.935773	0.043078	-0.072033
O8	O	1.269107	0.376412	0.261300
O9	O	1.602440	0.709745	0.594633
O10	O	0.922600	0.245617	-0.072069
O11	O	1.255933	0.578950	0.261265
O12	O	1.589266	0.912284	0.594598
O13	O	0.928870	0.048798	0.072227
O14	O	1.262203	0.382131	0.405561
O15	O	1.595537	0.715464	0.738894
O16	O	0.808144	0.149255	0.072197
O17	O	1.141477	0.482588	0.405530
O18	O	1.474810	0.815921	0.738864
O19	O	1.036422	0.150879	0.072222
O20	O	1.369756	0.484213	0.405556
O21	O	1.703089	0.817546	0.738889
Cu22	Cu	0.921653	0.150589	0.085382
Cu23	Cu	1.254986	0.483923	0.418715
Cu24	Cu	1.588319	0.817256	0.752048
Cu25	Cu	0.929817	0.143825	-0.085223
Cu26	Cu	1.263150	0.477159	0.248110
Cu27	Cu	1.596484	0.810492	0.581444
O28	O	0.915696	0.251336	0.072192
O29	O	1.249030	0.584670	0.405525
O30	O	1.582363	0.918003	0.738859
C31	C	0.782390	0.144306	0.000064
C32	C	1.115724	0.477639	0.333397
C33	C	1.449057	0.810972	0.666730
C34	C	0.695368	0.138072	0.000055
C35	C	1.028701	0.471406	0.333388
C36	C	1.362035	0.804739	0.666721
C37	C	0.644922	0.198212	0.000045
C38	C	0.978255	0.531545	0.333378
C39	C	1.311588	0.864878	0.666712
C40	C	0.563155	0.192351	0.000058
C41	C	0.896488	0.525685	0.333391
C42	C	1.229821	0.859018	0.666725
C43	C	0.531836	0.126351	0.000075
C44	C	0.865169	0.459685	0.333408
C45	C	1.198502	0.793018	0.666741
C46	C	0.582288	0.066208	0.000087
C47	C	0.915622	0.399541	0.333420
C48	C	1.248955	0.732874	0.666754
C49	C	0.664053	0.072069	0.000080
C50	C	0.997387	0.405402	0.333413
C51	C	1.330720	0.738735	0.666747
C52	C	0.288320	0.102059	0.000102
C53	C	0.621653	0.435393	0.333435
C54	C	0.954987	0.768726	0.666769
C55	C	0.206548	0.096203	0.000106
C56	C	0.539882	0.429536	0.333439
C57	C	0.873215	0.762869	0.666773
C58	C	0.187420	0.222347	0.000079
C59	C	0.520754	0.555681	0.333412
C60	C	0.854087	0.889014	0.666745
C61	C	0.269188	0.228202	0.000067
C62	C	0.602522	0.561536	0.333400
C63	C	0.935855	0.894869	0.666733
C64	C	0.319633	0.168059	0.000084
C65	C	0.652967	0.501392	0.333417
C66	C	0.986300	0.834726	0.666750
N67	N	0.448257	0.120360	0.000085
N68	N	0.781590	0.453693	0.333418
N69	N	1.114923	0.787026	0.666752
N70	N	0.403210	0.174051	0.000079
N71	N	0.736544	0.507385	0.333413
N72	N	1.069877	0.840718	0.666746
C73	C	0.931895	0.019902	0.000099
C74	C	1.265228	0.353235	0.333433
C75	C	1.598562	0.686569	0.666766
C76	C	0.930614	-0.057677	0.000107
C77	C	1.263947	0.275656	0.333440
C78	C	1.597280	0.608989	0.666773
C79	C	1.001452	-0.098455	0.000119
C80	C	1.334785	0.234878	0.333452
C81	C	1.668119	0.568211	0.666785
C82	C	1.000250	-0.171350	0.000105
C83	C	1.333583	0.161983	0.333438
C84	C	1.666916	0.495317	0.666771
C85	C	0.928204	-0.203463	0.000096
C86	C	1.261537	0.129870	0.333429
C87	C	1.594870	0.463204	0.666763
C88	C	0.857356	-0.162676	0.000079
C89	C	1.190690	0.170658	0.333413
C90	C	1.524023	0.503991	0.666746
C91	C	0.858561	-0.089783	0.000085
C92	C	1.191895	0.243551	0.333418
C93	C	1.525228	0.576884	0.666751
N94	N	0.870784	-0.312744	0.049185
N95	N	1.204117	0.020589	0.382518
N96	N	1.537450	0.353922	0.715851
N97	N	0.869644	-0.381990	0.049181
N98	N	1.202977	-0.048656	0.382515
N99	N	1.536310	0.284677	0.715848
C100	C	0.924569	-0.423085	0.000078
C101	C	1.257902	-0.089752	0.333412
C102	C	1.591235	0.243582	0.666745
N103	N	0.980688	-0.392319	-0.049011
N104	N	1.314021	-0.058986	0.284323
N105	N	1.647355	0.274347	0.617656
N106	N	0.981830	-0.323067	-0.049004
N107	N	1.315164	0.010266	0.284330
N108	N	1.648497	0.343599	0.617663
C109	C	0.926889	-0.282503	0.000090
C110	C	1.260222	0.050831	0.333423
C111	C	1.593556	0.384164	0.666756
C112	C	0.994108	-0.542904	0.000074
C113	C	1.327441	-0.209571	0.333407
C114	C	1.660775	0.123762	0.666740
C115	C	0.992903	-0.615801	0.000054
C116	C	1.326236	-0.282467	0.333388
C117	C	1.659569	0.050866	0.666721
C118	C	0.850007	-0.607124	0.000038
C119	C	1.183340	-0.273791	0.333371
C120	C	1.516674	0.059542	0.666704
C121	C	0.851215	-0.534230	0.000048
C122	C	1.184548	-0.200897	0.333382
C123	C	1.517881	0.132437	0.666715
C124	C	0.923267	-0.502124	0.000070
C125	C	1.256601	-0.168791	0.333404
C126	C	1.589934	0.164542	0.666737
C127	C	1.069079	0.150109	0.000093
C128	C	1.402413	0.483442	0.333426
C129	C	1.735746	0.816776	0.666760
C130	C	1.156102	0.156342	0.000096
C131	C	1.489435	0.489675	0.333430
C132	C	1.822769	0.823009	0.666763
C133	C	0.919575	0.274513	0.000057
C134	C	1.252908	0.607846	0.333391
C135	C	1.586242	0.941179	0.666724
C136	C	0.920856	0.352092	0.000044
C137	C	1.254190	0.685425	0.333378
C138	C	1.587523	1.018758	0.666711
N139	N	0.915916	0.155346	0.205376
N140	N	1.249249	0.488680	0.538709
N141	N	1.582583	0.822013	0.872042
N142	N	0.935560	0.139063	-0.205217
N143	N	1.268893	0.472396	0.128116
N144	N	1.602226	0.805730	0.461450
C145	C	0.967222	0.112686	0.250783
C146	C	1.300556	0.446020	0.584116
C147	C	1.633889	0.779353	0.917449
C148	C	0.962891	0.116291	0.341590
C149	C	1.296225	0.449624	0.674923
C150	C	1.629558	0.782958	1.008256
C151	C	0.907257	0.162559	0.386988
C152	C	1.240590	0.495893	0.720321
C153	C	1.573924	0.829226	1.053654
C154	C	0.855945	0.205221	0.341574
C155	C	1.189279	0.538554	0.674908
C156	C	1.522612	0.871888	1.008241
C157	C	0.860273	0.201613	0.250769
C158	C	1.193606	0.534946	0.584102
C159	C	1.526940	0.868279	0.917436
C160	C	0.888576	0.178116	0.658564
C161	C	1.221909	0.511450	0.991898
C162	C	1.555243	0.844783	1.325231
C163	C	0.884253	0.181723	0.749376
C164	C	1.217587	0.515056	1.082709
C165	C	1.550920	0.848390	1.416043
C166	C	0.991199	0.092792	0.749385
C167	C	1.324532	0.426125	1.082718
C168	C	1.657866	0.759458	1.416052
C169	C	0.995525	0.089190	0.658578
C170	C	1.328859	0.422524	0.991911
C171	C	1.662192	0.755857	1.325245
C172	C	0.944211	0.131849	0.613173
C173	C	1.277544	0.465183	0.946506
C174	C	1.610877	0.798516	1.279839
N175	N	0.902830	0.166246	0.479807
N176	N	1.236164	0.499580	0.813140
N177	N	1.569497	0.832913	1.146473
N178	N	0.948634	0.128158	0.520355
N179	N	1.281968	0.461491	0.853688
N180	N	1.615301	0.794825	1.187022
H181	H	0.181052	0.042455	0.000119
H182	H	0.514386	0.375788	0.333452
H183	H	0.847719	0.709122	0.666785
H184	H	0.705127	0.023097	0.000088
H185	H	1.038460	0.356430	0.333421
H186	H	1.371793	0.689764	0.666754
Cl187	Cl	1.089310	-0.222624	0.000119
Cl188	Cl	1.422644	0.110709	0.333452
Cl189	Cl	1.755977	0.444042	0.666786
Cl190	Cl	1.065467	0.031025	0.601506
Cl191	Cl	1.398800	0.364358	0.934839
Cl192	Cl	1.732134	0.697691	1.268173
H193	H	0.818493	0.236350	0.213800
H194	H	1.151826	0.569683	0.547133
H195	H	1.485160	0.903017	0.880466
H196	H	1.052778	-0.516763	0.000088
H197	H	1.386111	-0.183430	0.333421
H198	H	1.719444	0.149904	0.666755
Cl199	Cl	0.766784	-0.203045	0.000061
Cl200	Cl	1.100118	0.130288	0.333395
Cl201	Cl	1.433451	0.463621	0.666728
Cl202	Cl	1.092033	-0.058099	0.000122
Cl203	Cl	1.425367	0.275235	0.333456
Cl204	Cl	1.758700	0.608568	0.666789
Cl205	Cl	0.351726	0.026450	0.000122
Cl206	Cl	0.685059	0.359783	0.333456
Cl207	Cl	1.018393	0.693116	0.666789
Cl208	Cl	0.824071	0.231746	0.601489
Cl209	Cl	1.157404	0.565079	0.934823
Cl210	Cl	1.490738	0.898413	1.268156
H211	H	0.800874	-0.056581	0.000075
H212	H	1.134207	0.276752	0.333408
H213	H	1.467541	0.610086	0.666742
H214	H	0.838947	0.219403	0.786335
H215	H	1.172280	0.552736	1.119668
H216	H	1.505613	0.886070	1.453002
H217	H	1.050591	-0.649002	0.000059
H218	H	1.383924	-0.315668	0.333393
H219	H	1.717257	0.017665	0.666726
H220	H	1.032976	0.058060	0.786362
H221	H	1.366309	0.391393	1.119696
H222	H	1.699643	0.724727	1.453029
H223	H	0.791346	-0.633270	0.000026
H224	H	1.124679	-0.299937	0.333360
H225	H	1.458013	0.033397	0.666693
Cl226	Cl	1.027391	0.062660	0.398674
Cl227	Cl	1.360724	0.395993	0.732008
Cl228	Cl	1.694058	0.729326	1.065341
H229	H	0.556781	0.012469	0.000113
H230	H	0.890115	0.345803	0.333446
H231	H	1.223448	0.679136	0.666780
H232	H	0.793530	-0.501027	0.000043
H233	H	1.126863	-0.167694	0.333377
H234	H	1.460197	0.165639	0.666710
H235	H	0.810642	0.242891	0.378543
H236	H	1.143976	0.576225	0.711876
H237	H	1.477309	0.909558	1.045209
Cl238	Cl	0.499739	0.267959	0.000040
Cl239	Cl	0.833073	0.601292	0.333374
Cl240	Cl	1.166406	0.934625	0.666707
H241	H	1.012529	0.075013	0.213826
H242	H	1.345862	0.408346	0.547159
H243	H	1.679196	0.741680	0.880492
H244	H	0.670415	0.251956	0.000031
H245	H	1.003748	0.585289	0.333364
H246	H	1.337081	0.918623	0.666697
H247	H	0.294682	0.281946	0.000043
H248	H	0.628015	0.615279	0.333377
H249	H	0.961349	0.948613	0.666710
H250	H	0.146339	0.271312	0.000067
H251	H	0.479673	0.604646	0.333400
H252	H	0.813006	0.937979	0.666733
