data_functionalizedCrystal
_audit_creation_method	'MofGen! by Chris Wilmer'
_symmetry_space_group_name_H-M	'P1'
_symmetry_Int_Tables_number	1
_symmetry_cell_setting	triclinic
loop_
_symmetry_equiv_pos_as_xyz
  x,y,z
_cell_length_a	21.395362
_cell_length_b	12.759400
_cell_length_c	21.395364
_cell_angle_alpha	90.009960
_cell_angle_beta	90.034975
_cell_angle_gamma	90.030564
loop_
_atom_site_label
_atom_site_type_symbol
_atom_site_fract_x
_atom_site_fract_y
_atom_site_fract_z
Zn1	Zn	0.957874	-0.417983	0.354606
Zn2	Zn	1.291207	-0.084650	0.687939
Zn3	Zn	1.624540	0.248684	1.021272
Zn4	Zn	0.957822	-0.593636	0.249837
Zn5	Zn	1.291155	-0.260302	0.583170
Zn6	Zn	1.624489	0.073031	0.916504
Zn7	Zn	0.853105	-0.418020	0.249807
Zn8	Zn	1.186438	-0.084687	0.583140
Zn9	Zn	1.519772	0.248647	0.916474
Zn10	Zn	0.853087	-0.593669	0.354542
Zn11	Zn	1.186420	-0.260336	0.687875
Zn12	Zn	1.519754	0.072997	1.021208
O13	O	0.905472	-0.505827	0.302198
O14	O	1.238805	-0.172494	0.635531
O15	O	1.572139	0.160840	0.968864
O16	O	1.045545	-0.441254	0.340747
O17	O	1.378878	-0.107921	0.674081
O18	O	1.712211	0.225412	1.007414
O19	O	0.943917	-0.570341	0.162155
O20	O	1.277250	-0.237008	0.495488
O21	O	1.610583	0.096325	0.828822
O22	O	0.867032	-0.270994	0.263723
O23	O	1.200365	0.062339	0.597057
O24	O	1.533699	0.395673	0.930390
O25	O	1.045507	-0.570305	0.263774
O26	O	1.378840	-0.236972	0.597107
O27	O	1.712173	0.096361	0.930441
O28	O	0.944005	-0.270967	0.340718
O29	O	1.277338	0.062366	0.674052
O30	O	1.610672	0.395700	1.007385
O31	O	0.866982	-0.441317	0.162133
O32	O	1.200315	-0.107984	0.495467
O33	O	1.533648	0.225349	0.828800
O34	O	0.765425	-0.441350	0.263661
O35	O	1.098758	-0.108016	0.596994
O36	O	1.432091	0.225317	0.930328
O37	O	0.867001	-0.570363	0.442228
O38	O	1.200335	-0.237029	0.775561
O39	O	1.533668	0.096304	1.108895
O40	O	0.765412	-0.570399	0.340609
O41	O	1.098745	-0.237065	0.673942
O42	O	1.432078	0.096268	1.007276
O43	O	0.943988	-0.441287	0.442275
O44	O	1.277321	-0.107953	0.775608
O45	O	1.610654	0.225380	1.108942
O46	O	0.943899	-0.740661	0.263712
O47	O	1.277233	-0.407328	0.597045
O48	O	1.610566	-0.073995	0.930378
O49	O	0.866951	-0.740686	0.340638
O50	O	1.200285	-0.407353	0.673971
O51	O	1.533618	-0.074019	1.007305
C52	C	0.742684	-0.505883	0.302125
C53	C	1.076018	-0.172549	0.635458
C54	C	1.409351	0.160784	0.968792
C55	C	0.673043	-0.505932	0.302109
C56	C	1.006376	-0.172598	0.635442
C57	C	1.339710	0.160735	0.968776
C58	C	0.905435	-0.778794	0.302185
C59	C	1.238768	-0.445461	0.635518
C60	C	1.572101	-0.112128	0.968851
C61	C	0.905476	-0.895571	0.302200
C62	C	1.238810	-0.562238	0.635533
C63	C	1.572143	-0.228904	0.968867
C64	C	0.640339	-0.573216	0.342116
C65	C	0.973673	-0.239883	0.675449
C66	C	1.307006	0.093450	1.008782
C67	C	0.574904	-0.573191	0.342144
C68	C	0.908237	-0.239857	0.675477
C69	C	1.241571	0.093476	1.008810
C70	C	0.542175	-0.505891	0.302154
C71	C	0.875508	-0.172558	0.635487
C72	C	1.208841	0.160776	0.968820
C73	C	0.574886	-0.438593	0.262144
C74	C	0.908220	-0.105260	0.595477
C75	C	1.241553	0.228073	0.928811
C76	C	0.640320	-0.438614	0.262122
C77	C	0.973654	-0.105280	0.595455
C78	C	1.306987	0.228053	0.928788
C79	C	0.438457	-0.497421	0.245748
C80	C	0.771791	-0.164088	0.579081
C81	C	1.105124	0.169246	0.912415
C82	C	0.373024	-0.497408	0.245769
C83	C	0.706358	-0.164075	0.579103
C84	C	1.039691	0.169259	0.912436
C85	C	0.340354	-0.505823	0.302223
C86	C	0.673687	-0.172489	0.635556
C87	C	1.007021	0.160844	0.968889
C88	C	0.373125	-0.514272	0.358657
C89	C	0.706458	-0.180939	0.691990
C90	C	1.039791	0.152395	1.025323
C91	C	0.438559	-0.514292	0.358634
C92	C	0.771892	-0.180959	0.691968
C93	C	1.105225	0.152374	1.025301
C94	C	0.471222	-0.505861	0.302174
C95	C	0.804556	-0.172528	0.635507
C96	C	1.137889	0.160805	0.968840
C97	C	0.236698	-0.573083	0.342263
C98	C	0.570031	-0.239750	0.675597
C99	C	0.903365	0.093584	1.008930
C100	C	0.171261	-0.573050	0.342292
C101	C	0.504595	-0.239717	0.675625
C102	C	0.837928	0.093617	1.008959
C103	C	0.171245	-0.438458	0.262287
C104	C	0.504578	-0.105125	0.595620
C105	C	0.837911	0.228208	0.928954
C106	C	0.236680	-0.438486	0.262263
C107	C	0.570013	-0.105153	0.595597
C108	C	0.903347	0.228181	0.928930
C109	C	0.269403	-0.505804	0.302251
C110	C	0.602736	-0.172470	0.635584
C111	C	0.936069	0.160863	0.968917
C112	C	0.945588	-0.950385	0.262189
C113	C	1.278921	-0.617052	0.595522
C114	C	1.612254	-0.283719	0.928856
C115	C	0.945626	-1.060109	0.262208
C116	C	1.278959	-0.726776	0.595542
C117	C	1.612293	-0.393443	0.928875
C118	C	0.865436	-1.060195	0.342252
C119	C	1.198770	-0.726862	0.675585
C120	C	1.532103	-0.393528	1.008918
C121	C	0.865402	-0.950473	0.342235
C122	C	1.198735	-0.617140	0.675568
C123	C	1.532068	-0.283806	1.008902
C124	C	0.985662	-0.895483	0.222154
C125	C	1.318996	-0.562150	0.555487
C126	C	1.652329	-0.228817	0.888821
C127	C	1.025776	-0.950298	0.182139
C128	C	1.359110	-0.616964	0.515473
C129	C	1.692443	-0.283631	0.848806
C130	C	1.025815	-1.060022	0.182159
C131	C	1.359148	-0.726688	0.515492
C132	C	1.692481	-0.393355	0.848825
C133	C	0.985739	-1.114931	0.222193
C134	C	1.319072	-0.781598	0.555526
C135	C	1.652406	-0.448265	0.888860
C136	C	1.068895	-0.505772	0.302271
C137	C	1.402229	-0.172439	0.635604
C138	C	1.735562	0.160895	0.968938
C139	C	1.138537	-0.505749	0.302302
C140	C	1.471870	-0.172415	0.635636
C141	C	1.805203	0.160918	0.968969
C142	C	0.905498	-0.505824	0.465621
C143	C	1.238832	-0.172491	0.798954
C144	C	1.572165	0.160842	1.132288
C145	C	0.905510	-0.505823	0.535262
C146	C	1.238843	-0.172490	0.868596
C147	C	1.572176	0.160843	1.201929
C148	C	0.905526	-0.231794	0.302225
C149	C	1.238860	0.101540	0.635558
C150	C	1.572193	0.434873	0.968891
C151	C	0.905550	-0.115017	0.302236
C152	C	1.238883	0.218316	0.635569
C153	C	1.572216	0.551650	0.968903
C154	C	0.865456	-0.438645	0.567954
C155	C	1.198789	-0.105312	0.901288
C156	C	1.532122	0.228021	1.234621
C157	C	0.865444	-0.438651	0.633390
C158	C	1.198778	-0.105318	0.966723
C159	C	1.532111	0.228016	1.300056
C160	C	0.905498	-0.505823	0.666131
C161	C	1.238832	-0.172490	0.999464
C162	C	1.572165	0.160843	1.332797
C163	C	0.945555	-0.573014	0.633431
C164	C	1.278888	-0.239681	0.966764
C165	C	1.612222	0.093652	1.300098
C166	C	0.945561	-0.573014	0.567997
C167	C	1.278894	-0.239681	0.901330
C168	C	1.612227	0.093652	1.234663
C169	C	0.961937	-0.514097	0.769836
C170	C	1.295270	-0.180763	1.103170
C171	C	1.628604	0.152570	1.436503
C172	C	0.961933	-0.514089	0.835269
C173	C	1.295266	-0.180756	1.168603
C174	C	1.628599	0.152577	1.501936
C175	C	0.905480	-0.505829	0.867951
C176	C	1.238814	-0.172496	1.201285
C177	C	1.572147	0.160837	1.534618
C178	C	0.849031	-0.497555	0.835192
C179	C	1.182364	-0.164222	1.168526
C180	C	1.515698	0.169112	1.501859
C181	C	0.849037	-0.497555	0.769758
C182	C	1.182370	-0.164222	1.103092
C183	C	1.515703	0.169112	1.436425
C184	C	0.905496	-0.505831	0.737083
C185	C	1.238830	-0.172498	1.070416
C186	C	1.572163	0.160835	1.403750
C187	C	0.865411	-0.438654	0.971596
C188	C	1.198744	-0.105321	1.304929
C189	C	1.532078	0.228013	1.638262
C190	C	0.865399	-0.438667	1.037032
C191	C	1.198732	-0.105334	1.370366
C192	C	1.532065	0.228000	1.703699
C193	C	0.945515	-0.573025	1.037072
C194	C	1.278848	-0.239691	1.370406
C195	C	1.612181	0.093642	1.703739
C196	C	0.945521	-0.573017	0.971637
C197	C	1.278855	-0.239684	1.304970
C198	C	1.612188	0.093649	1.638304
C199	C	0.905470	-0.505826	0.938903
C200	C	1.238804	-0.172493	1.272236
C201	C	1.572137	0.160840	1.605569
C202	C	0.905447	-0.505850	1.139410
C203	C	1.238780	-0.172517	1.472744
C204	C	1.572113	0.160817	1.806077
C205	C	0.905452	-0.505841	1.069769
C206	C	1.238785	-0.172508	1.403102
C207	C	1.572119	0.160825	1.736436
H208	H	0.666978	-0.628030	0.374677
H209	H	1.000312	-0.294697	0.708011
H210	H	1.333645	0.038636	1.041344
H211	H	0.144597	-0.383657	0.229729
H212	H	0.477931	-0.050323	0.563062
H213	H	0.811264	0.283010	0.896396
H214	H	0.263342	-0.627892	0.374826
H215	H	0.596676	-0.294559	0.708160
H216	H	0.930009	0.038775	1.041493
H217	H	0.803063	-0.490822	0.861801
H218	H	1.136396	-0.157488	1.195134
H219	H	1.469729	0.175845	1.528467
Cl220	Cl	0.533782	-0.657784	0.392442
Cl221	Cl	0.867116	-0.324451	0.725775
Cl222	Cl	1.200449	0.008883	1.059108
H223	H	0.832777	-0.383966	1.063649
H224	H	1.166111	-0.050632	1.396982
H225	H	1.499444	0.282701	1.730316
Cl226	Cl	0.815058	-0.354194	0.930441
Cl227	Cl	1.148392	-0.020860	1.263774
Cl228	Cl	1.481725	0.312473	1.597108
Cl229	Cl	0.479754	-0.524907	0.429576
Cl230	Cl	0.813087	-0.191574	0.762910
Cl231	Cl	1.146421	0.141760	1.096243
Cl232	Cl	1.076248	-1.128929	0.131861
Cl233	Cl	1.409582	-0.795595	0.465194
Cl234	Cl	1.742915	-0.462262	0.798528
H235	H	0.832808	-1.104911	0.374845
H236	H	1.166142	-0.771578	0.708178
H237	H	1.499475	-0.438245	1.041512
Cl238	Cl	0.985792	-0.757545	0.222303
Cl239	Cl	1.319125	-0.424212	0.555636
Cl240	Cl	1.652458	-0.090879	0.888969
Cl241	Cl	0.130148	-0.657639	0.392595
Cl242	Cl	0.463481	-0.324305	0.725928
Cl243	Cl	0.796814	0.009028	1.059262
Cl244	Cl	0.332061	-0.524845	0.429632
Cl245	Cl	0.665394	-0.191511	0.762966
Cl246	Cl	0.998727	0.141822	1.096299
H247	H	0.803074	-0.490820	0.743089
H248	H	1.136407	-0.157486	1.076422
H249	H	1.469741	0.175847	1.409755
Cl250	Cl	1.076160	-0.881271	0.131820
Cl251	Cl	1.409493	-0.547937	0.465153
Cl252	Cl	1.742827	-0.214604	0.798486
H253	H	0.985779	-1.204276	0.222210
H254	H	1.319112	-0.870943	0.555544
H255	H	1.652445	-0.537609	0.888877
Cl256	Cl	0.814976	-0.881558	0.392537
Cl257	Cl	1.148309	-0.548225	0.725870
Cl258	Cl	1.481643	-0.214892	1.059204
H259	H	0.832841	-0.383937	0.541306
H260	H	1.166174	-0.050604	0.874639
H261	H	1.499507	0.282730	1.207973
Cl262	Cl	0.815101	-0.354169	0.674497
Cl263	Cl	1.148434	-0.020836	1.007830
Cl264	Cl	1.481768	0.312498	1.341163
H265	H	0.465052	-0.490564	0.199774
H266	H	0.798386	-0.157231	0.533107
H267	H	1.131719	0.176102	0.866440
Cl268	Cl	0.995865	-0.657478	1.078226
Cl269	Cl	1.329198	-0.324145	1.411560
Cl270	Cl	1.662531	0.009189	1.744893
H271	H	0.978139	-0.627718	0.945019
H272	H	1.311473	-0.294385	1.278352
H273	H	1.644806	0.038948	1.611686
Cl274	Cl	1.032895	-0.524503	0.876445
Cl275	Cl	1.366229	-0.191170	1.209779
Cl276	Cl	1.699562	0.142164	1.543112
Cl277	Cl	1.032912	-0.524489	0.728757
Cl278	Cl	1.366246	-0.191156	1.062091
Cl279	Cl	1.699579	0.142178	1.395424
Cl280	Cl	0.331834	-0.486785	0.174825
Cl281	Cl	0.665167	-0.153452	0.508158
Cl282	Cl	0.998501	0.179882	0.841492
H283	H	0.666947	-0.383819	0.229543
H284	H	1.000281	-0.050486	0.562876
H285	H	1.333614	0.282847	0.896210
H286	H	0.978167	-0.627707	0.660093
H287	H	1.311500	-0.294373	0.993426
H288	H	1.644834	0.038960	1.326760
H289	H	0.548234	-0.383796	0.229585
H290	H	0.881567	-0.050463	0.562918
H291	H	1.214900	0.282871	0.896252
H292	H	0.263308	-0.383701	0.229682
H293	H	0.596641	-0.050367	0.563016
H294	H	0.929974	0.282966	0.896349
Cl295	Cl	0.995920	-0.657472	0.526896
Cl296	Cl	1.329253	-0.324138	0.860230
Cl297	Cl	1.662586	0.009195	1.193563
