data_functionalizedCrystal
_audit_creation_method	'MofGen! by Chris Wilmer'
_symmetry_space_group_name_H-M	'P1'
_symmetry_Int_Tables_number	1
_symmetry_cell_setting	triclinic
loop_
_symmetry_equiv_pos_as_xyz
  x,y,z
_cell_length_a	15.995292
_cell_length_b	19.188930
_cell_length_c	14.472310
_cell_angle_alpha	89.993787
_cell_angle_beta	89.985801
_cell_angle_gamma	83.306699
loop_
_atom_site_label
_atom_site_type_symbol
_atom_site_fract_x
_atom_site_fract_y
_atom_site_fract_z
O1	O	1.110698	0.089798	-0.076877
O2	O	1.444031	0.423131	0.256457
O3	O	1.777365	0.756465	0.589790
O4	O	0.866875	0.100954	-0.076874
O5	O	1.200209	0.434287	0.256459
O6	O	1.533542	0.767621	0.589792
O7	O	0.995823	-0.006263	-0.076857
O8	O	1.329156	0.327070	0.256476
O9	O	1.662489	0.660404	0.589809
O10	O	0.981750	0.197015	-0.076893
O11	O	1.315084	0.530348	0.256440
O12	O	1.648417	0.863682	0.589773
O13	O	0.995790	-0.006257	0.076825
O14	O	1.329123	0.327077	0.410158
O15	O	1.662456	0.660410	0.743491
O16	O	0.866842	0.100960	0.076808
O17	O	1.200175	0.434293	0.410141
O18	O	1.533509	0.767627	0.743474
O19	O	1.110665	0.089804	0.076805
O20	O	1.443998	0.423138	0.410139
O21	O	1.777332	0.756471	0.743472
Cu22	Cu	0.988750	0.095383	0.090839
Cu23	Cu	1.322084	0.428716	0.424172
Cu24	Cu	1.655417	0.762049	0.757506
Cu25	Cu	0.988790	0.095375	-0.090908
Cu26	Cu	1.322123	0.428709	0.242426
Cu27	Cu	1.655456	0.762042	0.575759
O28	O	0.981717	0.197021	0.076789
O29	O	1.315051	0.530354	0.410122
O30	O	1.648384	0.863688	0.743455
C31	C	0.835665	0.100503	-0.000033
C32	C	1.168998	0.433836	0.333301
C33	C	1.502331	0.767170	0.666634
C34	C	0.742717	0.099142	-0.000031
C35	C	1.076050	0.432475	0.333302
C36	C	1.409383	0.765808	0.666636
C37	C	0.404997	0.094138	-0.000041
C38	C	0.738330	0.427471	0.333293
C39	C	1.071663	0.760804	0.666626
C40	C	0.428026	0.171524	-0.000397
C41	C	0.761359	0.504857	0.332936
C42	C	1.094692	0.838190	0.666269
C43	C	0.524696	0.172995	-0.000047
C44	C	0.858029	0.506328	0.333286
C45	C	1.191362	0.839661	0.666619
C46	C	0.572543	0.096621	-0.000036
C47	C	0.905877	0.429954	0.333297
C48	C	1.239210	0.763287	0.666630
C49	C	0.543564	0.057935	0.087727
C50	C	0.876898	0.391268	0.421061
C51	C	1.210231	0.724601	0.754394
C52	C	0.446777	0.057003	0.087797
C53	C	0.780111	0.390336	0.421130
C54	C	1.113444	0.723670	0.754464
C55	C	0.446965	0.055416	-0.086968
C56	C	0.780299	0.388749	0.246365
C57	C	1.113632	0.722082	0.579699
C58	C	0.543448	0.058284	-0.088124
C59	C	0.876781	0.391617	0.245209
C60	C	1.210114	0.724950	0.578542
C61	C	0.667234	0.098020	-0.000031
C62	C	1.000568	0.431353	0.333302
C63	C	1.333901	0.764687	0.666636
C64	C	0.310306	0.092736	-0.000040
C65	C	0.643639	0.426069	0.333294
C66	C	0.976973	0.759403	0.666627
C67	C	0.995351	-0.032272	-0.000014
C68	C	1.328684	0.301061	0.333320
C69	C	1.662017	0.634395	0.666653
C70	C	0.993983	-0.109780	-0.000006
C71	C	1.327316	0.223554	0.333328
C72	C	1.660649	0.556887	0.666661
C73	C	1.069645	-0.154524	-0.000002
C74	C	1.402978	0.178809	0.333331
C75	C	1.736311	0.512143	0.666665
C76	C	1.068360	-0.227351	-0.000017
C77	C	1.401693	0.105982	0.333316
C78	C	1.735026	0.439316	0.666650
C79	C	0.991408	-0.255430	-0.000017
C80	C	1.324741	0.077903	0.333317
C81	C	1.658074	0.411236	0.666650
C82	C	0.915736	-0.210676	-0.000026
C83	C	1.249069	0.122657	0.333308
C84	C	1.582402	0.455991	0.666641
C85	C	0.917023	-0.137851	-0.000020
C86	C	1.250356	0.195483	0.333313
C87	C	1.583690	0.528816	0.666646
N88	N	0.932576	-0.363573	0.052285
N89	N	1.265909	-0.030239	0.385618
N90	N	1.599243	0.303094	0.718951
N91	N	0.931358	-0.432754	0.052281
N92	N	1.264692	-0.099421	0.385615
N93	N	1.598025	0.233913	0.718948
C94	C	0.987524	-0.474848	-0.000035
C95	C	1.320858	-0.141515	0.333298
C96	C	1.654191	0.191819	0.666631
N97	N	1.044967	-0.445148	-0.052337
N98	N	1.378300	-0.111815	0.280996
N99	N	1.711634	0.221518	0.614329
N100	N	1.046187	-0.375961	-0.052330
N101	N	1.379521	-0.042627	0.281003
N102	N	1.712854	0.290706	0.614337
C103	C	0.990003	-0.334396	-0.000023
C104	C	1.323337	-0.001063	0.333310
C105	C	1.656670	0.332271	0.666643
C106	C	1.061798	-0.598560	-0.000049
C107	C	1.395132	-0.265227	0.333284
C108	C	1.728465	0.068106	0.666618
C109	C	1.060510	-0.671388	-0.000070
C110	C	1.393843	-0.338055	0.333264
C111	C	1.727177	-0.004721	0.666597
C112	C	0.907884	-0.654711	-0.000069
C113	C	1.241217	-0.321378	0.333264
C114	C	1.574551	0.011955	0.666597
C115	C	0.909174	-0.581885	-0.000058
C116	C	1.242508	-0.248552	0.333275
C117	C	1.575841	0.084782	0.666609
C118	C	0.986134	-0.553814	-0.000044
C119	C	1.319467	-0.220481	0.333290
C120	C	1.652801	0.112853	0.666623
C121	C	1.141875	0.090255	-0.000038
C122	C	1.475209	0.423589	0.333295
C123	C	1.808542	0.756922	0.666629
C124	C	1.234823	0.091616	-0.000046
C125	C	1.568157	0.424950	0.333287
C126	C	1.901490	0.758283	0.666621
C127	C	0.982190	0.223030	-0.000057
C128	C	1.315523	0.556363	0.333276
C129	C	1.648856	0.889697	0.666610
C130	C	0.983558	0.300538	-0.000071
C131	C	1.316891	0.633871	0.333262
C132	C	1.650224	0.967205	0.666596
N133	N	0.988729	0.095387	0.218670
N134	N	1.322062	0.428721	0.552003
N135	N	1.655396	0.762054	0.885337
N136	N	0.988818	0.095365	-0.218739
N137	N	1.322151	0.428698	0.114595
N138	N	1.655484	0.762032	0.447928
C139	C	0.988788	0.095373	0.592761
C140	C	1.322122	0.428706	0.926094
C141	C	1.655455	0.762039	1.259428
C142	C	0.919561	0.152550	0.553586
C143	C	1.252895	0.485883	0.886920
C144	C	1.586228	0.819216	1.220253
C145	C	0.919720	0.152758	0.446498
C146	C	1.253053	0.486092	0.779831
C147	C	1.586386	0.819425	1.113165
C148	C	0.988758	0.095380	0.407170
C149	C	1.322092	0.428713	0.740503
C150	C	1.655425	0.762047	1.073837
C151	C	1.076067	0.111276	0.446003
C152	C	1.409400	0.444610	0.779336
C153	C	1.742734	0.777943	1.112670
C154	C	1.075678	0.111683	0.553124
C155	C	1.409011	0.445016	0.886458
C156	C	1.742344	0.778350	1.219791
C157	C	0.971487	0.022129	0.553304
C158	C	1.304820	0.355463	0.886637
C159	C	1.638154	0.688796	1.219970
C160	C	0.969482	0.022618	0.446176
C161	C	1.302815	0.355951	0.779510
C162	C	1.636148	0.689285	1.112843
C163	C	0.988747	0.095383	0.302282
C164	C	1.322080	0.428716	0.635615
C165	C	1.655413	0.762049	0.968949
C166	C	0.988806	0.095371	0.697649
C167	C	1.322139	0.428705	1.030983
C168	C	1.655473	0.762038	1.364316
H169	H	0.432434	0.000263	0.091792
H170	H	0.765767	0.333597	0.425125
H171	H	1.099101	0.666930	0.758459
H172	H	0.853081	-0.233543	-0.000028
H173	H	1.186414	0.099791	0.333306
H174	H	1.519748	0.433124	0.666639
H175	H	1.124463	-0.575704	-0.000042
H176	H	1.457797	-0.242370	0.333292
H177	H	1.791130	0.090963	0.666625
H178	H	1.122126	-0.707819	-0.000072
H179	H	1.455459	-0.374486	0.333262
H180	H	1.788793	-0.041152	0.666595
H181	H	0.561928	0.086451	-0.153051
H182	H	0.895261	0.419784	0.180282
H183	H	1.228595	0.753118	0.513615
H184	H	0.909218	0.006840	0.580375
H185	H	1.242552	0.340173	0.913709
H186	H	1.575885	0.673507	1.247042
Cl187	Cl	0.821897	-0.081597	-0.000024
Cl188	Cl	1.155230	0.251736	0.333309
Cl189	Cl	1.488563	0.585069	0.666642
H190	H	0.854443	0.143237	0.579377
H191	H	1.187777	0.476570	0.912710
H192	H	1.521110	0.809904	1.246044
Cl193	Cl	0.811143	-0.690004	-0.000074
Cl194	Cl	1.144477	-0.356671	0.333259
Cl195	Cl	1.477810	-0.023337	0.666592
H196	H	0.418564	0.079601	-0.153487
H197	H	0.751897	0.412935	0.179846
H198	H	1.085231	0.746268	0.513180
H199	H	0.575638	0.001734	0.090999
H200	H	0.908971	0.335067	0.424332
H201	H	1.242305	0.668401	0.757665
H202	H	1.016649	-0.021923	0.419409
H203	H	1.349982	0.311410	0.752743
H204	H	1.683316	0.644744	1.086076
Cl205	Cl	0.814050	-0.525632	-0.000058
Cl206	Cl	1.147384	-0.192298	0.333275
Cl207	Cl	1.480717	0.141035	0.666608
H208	H	1.091726	0.164083	0.419156
H209	H	1.425060	0.497416	0.752489
H210	H	1.758393	0.830749	1.085822
Cl211	Cl	0.383035	0.217329	0.096212
Cl212	Cl	0.716368	0.550662	0.429545
Cl213	Cl	1.049701	0.883995	0.762879
H214	H	0.854813	0.143289	0.420245
H215	H	1.188146	0.476623	0.753578
H216	H	1.521480	0.809956	1.086912
Cl217	Cl	1.163485	-0.283612	-0.000013
Cl218	Cl	1.496818	0.049722	0.333320
Cl219	Cl	1.830152	0.383055	0.666654
H220	H	1.021974	-0.020420	0.578637
H221	H	1.355308	0.312913	0.911970
H222	H	1.688641	0.646247	1.245303
H223	H	1.128787	0.071679	0.579036
H224	H	1.462120	0.405012	0.912370
H225	H	1.795453	0.738346	1.245703
Cl226	Cl	0.936347	0.235998	0.595096
Cl227	Cl	1.269680	0.569332	0.928429
Cl228	Cl	1.603014	0.902665	1.261762
H229	H	0.433181	-0.001546	-0.087553
H230	H	0.766514	0.331788	0.245780
H231	H	1.099848	0.665121	0.579114
Cl232	Cl	0.870325	0.003989	0.406994
Cl233	Cl	1.203658	0.337322	0.740328
Cl234	Cl	1.536991	0.670655	1.073661
Cl235	Cl	0.574356	0.099419	0.188557
Cl236	Cl	0.907689	0.432752	0.521890
Cl237	Cl	1.241022	0.766086	0.855224
Cl238	Cl	0.936701	0.236683	0.406899
Cl239	Cl	1.270035	0.570016	0.740232
Cl240	Cl	1.603368	0.903350	1.073565
H241	H	1.132311	-0.131674	0.000006
H242	H	1.465644	0.201659	0.333340
H243	H	1.798978	0.534993	0.666673
Cl244	Cl	0.594660	-0.027788	-0.096294
Cl245	Cl	0.927993	0.305546	0.237040
Cl246	Cl	1.261326	0.638879	0.570373
H247	H	0.543625	0.203288	-0.062962
H248	H	0.876958	0.536621	0.270371
H249	H	1.210291	0.869955	0.603704
H250	H	1.090965	0.165098	0.578090
H251	H	1.424298	0.498432	0.911423
H252	H	1.757631	0.831765	1.244757
Cl253	Cl	1.157488	0.048690	0.406674
Cl254	Cl	1.490821	0.382023	0.740008
Cl255	Cl	1.824155	0.715356	1.073341
H256	H	0.399934	0.201349	-0.063337
H257	H	0.733267	0.534683	0.269996
H258	H	1.066601	0.868016	0.603329
H259	H	0.542974	0.203480	0.062962
H260	H	0.876307	0.536813	0.396295
H261	H	1.209641	0.870147	0.729629
H262	H	0.419848	0.083801	0.153394
H263	H	0.753181	0.417134	0.486728
H264	H	1.086515	0.750467	0.820061
