data_functionalizedCrystal
_audit_creation_method	'MofGen! by Chris Wilmer'
_symmetry_space_group_name_H-M	'P1'
_symmetry_Int_Tables_number	1
_symmetry_cell_setting	triclinic
loop_
_symmetry_equiv_pos_as_xyz
  x,y,z
_cell_length_a	12.759401
_cell_length_b	13.897448
_cell_length_c	12.759401
_cell_angle_alpha	90.009687
_cell_angle_beta	90.006940
_cell_angle_gamma	90.019217
loop_
_atom_site_label
_atom_site_type_symbol
_atom_site_fract_x
_atom_site_fract_y
_atom_site_fract_z
Zn1	Zn	1.606099	-0.384144	0.594007
Zn2	Zn	1.606024	-0.545407	0.418321
Zn3	Zn	1.430441	-0.384132	0.418342
Zn4	Zn	1.430381	-0.545403	0.593959
O5	O	1.518236	-0.464771	0.506157
O6	O	1.753110	-0.405543	0.570713
O7	O	1.582726	-0.524010	0.271303
O8	O	1.453799	-0.249152	0.441673
O9	O	1.753055	-0.524022	0.441638
O10	O	1.582855	-0.249161	0.570733
O11	O	1.453726	-0.405522	0.271318
O12	O	1.283412	-0.405518	0.441626
O13	O	1.453696	-0.524015	0.740986
O14	O	1.283368	-0.524003	0.570651
O15	O	1.582796	-0.405539	0.741021
O16	O	1.582668	-0.680388	0.441591
O17	O	1.453624	-0.680385	0.570631
C18	C	1.245269	-0.464760	0.506136
C19	C	1.128492	-0.464778	0.506152
C20	C	1.073635	-0.526567	0.573230
C21	C	0.963911	-0.526571	0.573251
C22	C	0.963911	-0.402993	0.439108
C23	C	1.073633	-0.402986	0.439093
C24	C	1.518160	-0.715386	0.506127
C25	C	1.518223	-0.822600	0.506149
C26	C	1.518333	-1.018895	0.506215
C27	C	1.518269	-0.909662	0.506181
C28	C	1.792270	-0.464784	0.506179
C29	C	1.909046	-0.464789	0.506188
C30	C	1.518248	-0.464778	0.780190
C31	C	1.518253	-0.464781	0.896967
C32	C	1.518342	-0.213178	0.506211
C33	C	1.518387	-0.105964	0.506233
C34	C	1.585467	-0.403100	0.951849
C35	C	1.585458	-0.403098	1.061573
C36	C	1.451018	-0.526466	1.061523
C37	C	1.451023	-0.526462	0.951801
C38	C	1.518224	-0.464786	1.233190
C39	C	1.518239	-0.464783	1.116413
H40	H	1.118298	-0.576880	0.627837
H41	H	1.396282	-0.576689	0.907115
H42	H	1.118300	-0.352663	0.384470
Cl43	Cl	1.366511	-0.604009	1.130466
H44	H	0.919251	-0.576884	0.627873
Cl45	Cl	0.894938	-0.325318	0.354806
H46	H	1.640207	-0.352872	0.907206
Cl47	Cl	1.669968	-0.325562	1.130563
