data_functionalizedCrystal
_audit_creation_method	'MofGen! by Chris Wilmer'
_symmetry_space_group_name_H-M	'P1'
_symmetry_Int_Tables_number	1
_symmetry_cell_setting	triclinic
loop_
_symmetry_equiv_pos_as_xyz
  x,y,z
_cell_length_a	12.827892
_cell_length_b	19.805407
_cell_length_c	19.805399
_cell_angle_alpha	90.021064
_cell_angle_beta	89.977471
_cell_angle_gamma	89.985623
loop_
_atom_site_label
_atom_site_type_symbol
_atom_site_fract_x
_atom_site_fract_y
_atom_site_fract_z
Zn1	Zn	-0.416086	-1.034788	-0.382770
Zn2	Zn	0.083914	-0.534788	0.117230
Zn3	Zn	-0.590841	-1.034724	-0.269592
Zn4	Zn	-0.090841	-0.534724	0.230408
Zn5	Zn	-0.416111	-0.921602	-0.269592
Zn6	Zn	0.083889	-0.421602	0.230408
Zn7	Zn	-0.590782	-0.921587	-0.382736
Zn8	Zn	-0.090782	-0.421587	0.117264
O9	O	-0.503455	-0.978175	-0.326173
O10	O	-0.003455	-0.478175	0.173827
O11	O	-0.439281	-1.129496	-0.367771
O12	O	0.060719	-0.629496	0.132229
O13	O	-0.567698	-1.019698	-0.174875
O14	O	-0.067698	-0.519698	0.325125
O15	O	-0.269872	-0.936649	-0.284620
O16	O	0.230128	-0.436649	0.215380
O17	O	-0.567673	-1.129449	-0.284620
O18	O	-0.067673	-0.629449	0.215380
O19	O	-0.269853	-1.019806	-0.367771
O20	O	0.230147	-0.519806	0.132229
O21	O	-0.439325	-0.936588	-0.174875
O22	O	0.060675	-0.436588	0.325125
O23	O	-0.439268	-0.826884	-0.284586
O24	O	0.060732	-0.326884	0.215414
O25	O	-0.567573	-0.936624	-0.477457
O26	O	-0.067573	-0.436624	0.022543
O27	O	-0.567598	-0.826873	-0.367713
O28	O	-0.067598	-0.326873	0.132287
O29	O	-0.439224	-1.019792	-0.477482
O30	O	0.060776	-0.519792	0.022518
O31	O	-0.737069	-1.019684	-0.284586
O32	O	-0.237069	-0.519684	0.215414
O33	O	-0.737026	-0.936563	-0.367713
O34	O	-0.237026	-0.436563	0.132287
C35	C	-0.503430	-0.802319	-0.326146
C36	C	-0.003430	-0.302319	0.173854
C37	C	-0.503445	-0.727087	-0.326151
C38	C	-0.003445	-0.227087	0.173849
C39	C	-0.570366	-0.691755	-0.369364
C40	C	-0.070366	-0.191755	0.130636
C41	C	-0.570366	-0.621067	-0.369371
C42	C	-0.070366	-0.121067	0.130629
C43	C	-0.503449	-0.585712	-0.326162
C44	C	-0.003449	-0.085712	0.173838
C45	C	-0.436521	-0.621049	-0.282948
C46	C	0.063479	-0.121049	0.217052
C47	C	-0.436516	-0.691736	-0.282944
C48	C	0.063484	-0.191736	0.217056
C49	C	-0.436536	-0.335975	-0.282962
C50	C	0.063464	0.164025	0.217038
C51	C	-0.436548	-0.265283	-0.282968
C52	C	0.063452	0.234717	0.217032
C53	C	-0.570385	-0.265306	-0.369390
C54	C	-0.070385	0.234694	0.130610
C55	C	-0.570381	-0.335993	-0.369386
C56	C	-0.070381	0.164007	0.130614
C57	C	-0.503449	-0.371324	-0.326174
C58	C	-0.003449	0.128676	0.173826
C59	C	-0.503449	-0.447973	-0.326168
C60	C	-0.003449	0.052027	0.173832
C61	C	-0.503454	-0.509065	-0.326165
C62	C	-0.003454	-0.009065	0.173835
C63	C	-0.774965	-0.978133	-0.326161
C64	C	-0.274965	-0.478133	0.173839
C65	C	-0.891118	-0.978177	-0.326178
C66	C	-0.391118	-0.478177	0.173822
C67	C	-0.942889	-1.019357	-0.285090
C68	C	-0.442889	-0.519357	0.214910
C69	C	-1.062940	-1.019403	-0.285107
C70	C	-0.562940	-0.519403	0.214893
C71	C	-0.230885	-0.978236	-0.326199
C72	C	0.269115	-0.478236	0.173801
C73	C	-0.114732	-0.978262	-0.326211
C74	C	0.385268	-0.478262	0.173789
C75	C	-0.503389	-0.978213	-0.502715
C76	C	-0.003389	-0.478213	-0.002715
C77	C	-0.503361	-0.978229	-0.577947
C78	C	-0.003361	-0.478229	-0.077947
C79	C	-0.503474	-0.154718	-0.326193
C80	C	-0.003474	0.345282	0.173807
C81	C	-0.503464	-0.229950	-0.326185
C82	C	-0.003464	0.270050	0.173815
C83	C	-0.436526	-1.021536	-0.613306
C84	C	0.063474	-0.521536	-0.113306
C85	C	-0.436496	-1.021543	-0.683994
C86	C	0.063504	-0.521543	-0.183994
C87	C	-0.503306	-0.978246	-0.719323
C88	C	-0.003306	-0.478246	-0.219323
C89	C	-0.570144	-0.934935	-0.683960
C90	C	-0.070144	-0.434935	-0.183960
C91	C	-0.570168	-0.934925	-0.613272
C92	C	-0.070168	-0.434925	-0.113272
C93	C	-0.570047	-0.934973	-0.969033
C94	C	-0.070047	-0.434973	-0.469033
C95	C	-0.570019	-0.934988	-1.039725
C96	C	-0.070019	-0.434988	-0.539725
C97	C	-0.436374	-1.021591	-1.039755
C98	C	0.063626	-0.521591	-0.539755
C99	C	-0.436399	-1.021581	-0.969068
C100	C	0.063601	-0.521581	-0.469068
C101	C	-0.503232	-0.978268	-0.933711
C102	C	-0.003232	-0.478268	-0.433711
C103	C	-0.503263	-0.978260	-0.857062
C104	C	-0.003263	-0.478260	-0.357062
C105	C	-0.503282	-0.978257	-0.795970
C106	C	-0.003282	-0.478257	-0.295970
C107	C	-0.503445	-0.978176	-0.150317
C108	C	-0.003445	-0.478176	0.349683
C109	C	-0.503179	-0.978291	-0.075085
C110	C	-0.003179	-0.478291	0.424915
H111	H	-0.624860	-0.592303	-0.404559
H112	H	-0.124860	-0.092303	0.095441
Cl113	Cl	-1.046005	-0.923822	-0.380522
Cl114	Cl	-0.546005	-0.423822	0.119478
H115	H	-0.935671	-0.942958	-0.361370
H116	H	-0.435671	-0.442958	0.138630
H117	H	-0.382044	-0.364733	-0.247771
H118	H	0.117956	0.135267	0.252229
H119	H	-0.624538	-0.899680	-0.712730
H120	H	-0.124538	-0.399680	-0.212730
H121	H	-0.382125	-1.056795	-0.584546
H122	H	0.117875	-0.556795	-0.084546
H123	H	-0.382075	-1.056809	-0.712780
H124	H	0.117925	-0.556809	-0.212780
H125	H	-0.381998	-1.056840	-0.940307
H126	H	0.118002	-0.556840	-0.440307
H127	H	-0.382031	-0.592257	-0.247769
H128	H	0.117969	-0.092257	0.252231
Cl129	Cl	-0.654066	-0.880522	-0.924593
Cl130	Cl	-0.154066	-0.380522	-0.424593
H131	H	-0.381952	-1.056856	-1.068551
H132	H	0.118048	-0.556856	-0.568551
Cl133	Cl	-0.352381	-0.736154	-0.228618
Cl134	Cl	0.147619	-0.236154	0.271382
Cl135	Cl	-0.654015	-0.880553	-1.084138
Cl136	Cl	-0.154015	-0.380553	-0.584138
H137	H	-0.624875	-0.364776	-0.404569
H138	H	-0.124875	0.135224	0.095431
H139	H	-0.898339	-1.054581	-0.249903
H140	H	-0.398339	-0.554581	0.250097
Cl141	Cl	-1.131673	-1.073834	-0.230791
Cl142	Cl	-0.631673	-0.573834	0.269209
H143	H	-0.624581	-0.899654	-0.584485
H144	H	-0.124581	-0.399654	-0.084485
H145	H	-0.624861	-0.720536	-0.404547
H146	H	-0.124861	-0.220536	0.095453
Cl147	Cl	-0.352415	-0.220838	-0.228645
Cl148	Cl	0.147585	0.279162	0.271355
Cl149	Cl	-0.654529	-0.220886	-0.423715
Cl150	Cl	-0.154529	0.279114	0.076285
