data_functionalizedCrystal
_audit_creation_method	'MofGen! by Chris Wilmer'
_symmetry_space_group_name_H-M	'P1'
_symmetry_Int_Tables_number	1
_symmetry_cell_setting	triclinic
loop_
_symmetry_equiv_pos_as_xyz
  x,y,z
_cell_length_a	16.109296
_cell_length_b	27.732048
_cell_length_c	15.186229
_cell_angle_alpha	89.991324
_cell_angle_beta	90.001331
_cell_angle_gamma	96.949028
loop_
_atom_site_label
_atom_site_type_symbol
_atom_site_fract_x
_atom_site_fract_y
_atom_site_fract_z
O1	O	-1.102364	0.062118	-0.073197
O2	O	-0.852364	0.312118	0.176803
O3	O	-0.602364	0.562118	0.426803
O4	O	-0.352364	0.812118	0.676803
O5	O	-0.860206	0.069852	-0.073209
O6	O	-0.610206	0.319852	0.176791
O7	O	-0.360206	0.569852	0.426791
O8	O	-0.110206	0.819852	0.676791
O9	O	-0.988806	-0.004380	-0.073186
O10	O	-0.738806	0.245620	0.176814
O11	O	-0.488806	0.495620	0.426814
O12	O	-0.238806	0.745620	0.676814
O13	O	-0.973764	0.136350	-0.073220
O14	O	-0.723764	0.386350	0.176780
O15	O	-0.473764	0.636350	0.426780
O16	O	-0.223764	0.886350	0.676780
O17	O	-0.988798	-0.004381	0.073272
O18	O	-0.738798	0.245619	0.323272
O19	O	-0.488798	0.495619	0.573272
O20	O	-0.238798	0.745619	0.823272
O21	O	-0.860197	0.069851	0.073248
O22	O	-0.610197	0.319851	0.323248
O23	O	-0.360197	0.569851	0.573248
O24	O	-0.110197	0.819851	0.823248
O25	O	-1.102356	0.062117	0.073260
O26	O	-0.852356	0.312117	0.323260
O27	O	-0.602356	0.562117	0.573260
O28	O	-0.352356	0.812117	0.823260
Zn29	Zn	-0.981275	0.065984	0.096508
Zn30	Zn	-0.731275	0.315984	0.346508
Zn31	Zn	-0.481275	0.565984	0.596508
Zn32	Zn	-0.231275	0.815984	0.846508
Zn33	Zn	-0.981286	0.065985	-0.096456
Zn34	Zn	-0.731286	0.315985	0.153544
Zn35	Zn	-0.481286	0.565985	0.403544
Zn36	Zn	-0.231286	0.815985	0.653544
O37	O	-0.973756	0.136349	0.073237
O38	O	-0.723756	0.386349	0.323237
O39	O	-0.473756	0.636349	0.573237
O40	O	-0.223756	0.886349	0.823237
C41	C	-0.829231	0.069539	0.000018
C42	C	-0.579231	0.319539	0.250018
C43	C	-0.329231	0.569539	0.500018
C44	C	-0.079231	0.819539	0.750018
C45	C	-0.736947	0.068601	0.000015
C46	C	-0.486947	0.318601	0.250015
C47	C	-0.236947	0.568601	0.500015
C48	C	0.013053	0.818601	0.750015
C49	C	-0.427440	0.109582	0.000022
C50	C	-0.177440	0.359582	0.250022
C51	C	0.072560	0.609582	0.500022
C52	C	0.322560	0.859582	0.750022
C53	C	-0.514150	0.110468	0.000016
C54	C	-0.264150	0.360468	0.250016
C55	C	-0.014150	0.610468	0.500016
C56	C	0.235850	0.860468	0.750016
C57	C	-0.535113	0.022395	0.000026
C58	C	-0.285113	0.272395	0.250026
C59	C	-0.035113	0.522395	0.500026
C60	C	0.214887	0.772395	0.750026
C61	C	-0.448405	0.021510	0.000025
C62	C	-0.198405	0.271510	0.250025
C63	C	0.051595	0.521510	0.500025
C64	C	0.301595	0.771510	0.750025
C65	C	-0.394571	0.065105	0.000028
C66	C	-0.144571	0.315105	0.250028
C67	C	0.105429	0.565105	0.500028
C68	C	0.355429	0.815105	0.750028
C69	C	-0.567988	0.066876	0.000022
C70	C	-0.317988	0.316876	0.250022
C71	C	-0.067988	0.566876	0.500022
C72	C	0.182012	0.816876	0.750022
C73	C	-0.662003	0.067836	0.000016
C74	C	-0.412003	0.317836	0.250016
C75	C	-0.162003	0.567836	0.500016
C76	C	0.087997	0.817836	0.750016
C77	C	-0.300550	0.064145	0.000032
C78	C	-0.050550	0.314145	0.250032
C79	C	0.199450	0.564145	0.500032
C80	C	0.449450	0.814145	0.750032
C81	C	-0.988486	-0.022389	0.000045
C82	C	-0.738486	0.227611	0.250045
C83	C	-0.488486	0.477611	0.500045
C84	C	-0.238486	0.727611	0.750045
C85	C	-0.987535	-0.076048	0.000053
C86	C	-0.737535	0.173952	0.250053
C87	C	-0.487535	0.423952	0.500053
C88	C	-0.237535	0.673952	0.750053
C89	C	-1.057544	-0.414571	0.000011
C90	C	-0.807544	-0.164571	0.250011
C91	C	-0.557544	0.085429	0.500011
C92	C	-0.307544	0.335429	0.750011
C93	C	-1.054016	-0.616245	-0.000002
C94	C	-0.804016	-0.366245	0.249998
C95	C	-0.554016	-0.116245	0.499998
C96	C	-0.304016	0.133755	0.749998
O97	O	-1.118034	-0.647234	-0.000037
O98	O	-0.868034	-0.397234	0.249963
O99	O	-0.618034	-0.147234	0.499963
O100	O	-0.368034	0.102766	0.749963
N101	N	-0.977762	-0.635687	-0.000005
N102	N	-0.727762	-0.385687	0.249995
N103	N	-0.477762	-0.135687	0.499995
N104	N	-0.227762	0.114313	0.749995
C105	C	-0.902384	-0.604707	-0.000010
C106	C	-0.652384	-0.354707	0.249990
C107	C	-0.402384	-0.104707	0.499990
C108	C	-0.152384	0.145293	0.749990
O109	O	-0.837444	-0.625871	-0.000022
O110	O	-0.587444	-0.375871	0.249978
O111	O	-0.337444	-0.125871	0.499978
O112	O	-0.087444	0.124129	0.749978
C113	C	-0.905912	-0.403034	-0.000004
C114	C	-0.655912	-0.153034	0.249996
C115	C	-0.405912	0.096966	0.499996
C116	C	-0.155912	0.346966	0.749996
C117	C	-0.982172	-0.383595	0.000008
C118	C	-0.732172	-0.133595	0.250008
C119	C	-0.482172	0.116405	0.500008
C120	C	-0.232172	0.366405	0.750008
C121	C	-1.133797	-0.395131	0.000022
C122	C	-0.883797	-0.145131	0.250022
C123	C	-0.633797	0.104869	0.500022
C124	C	-0.383797	0.354869	0.750022
C125	C	-1.134678	-0.344716	0.000030
C126	C	-0.884678	-0.094716	0.250030
C127	C	-0.634678	0.155284	0.500030
C128	C	-0.384678	0.405284	0.750030
C129	C	-1.059306	-0.313740	0.000027
C130	C	-0.809306	-0.063740	0.250027
C131	C	-0.559306	0.186260	0.500027
C132	C	-0.309306	0.436260	0.750027
C133	C	-0.983053	-0.333179	0.000016
C134	C	-0.733053	-0.083179	0.250016
C135	C	-0.483053	0.166821	0.500016
C136	C	-0.233053	0.416821	0.750016
C137	C	-0.830535	-0.372055	-0.000016
C138	C	-0.580535	-0.122055	0.249984
C139	C	-0.330535	0.127945	0.499984
C140	C	-0.080535	0.377945	0.749984
C141	C	-0.831424	-0.321634	-0.000017
C142	C	-0.581424	-0.071634	0.249983
C143	C	-0.331424	0.178366	0.499983
C144	C	-0.081424	0.428366	0.749983
C145	C	-0.907684	-0.302195	-0.000005
C146	C	-0.657684	-0.052195	0.249995
C147	C	-0.407684	0.197805	0.499995
C148	C	-0.157684	0.447805	0.749995
C149	C	-0.908562	-0.251787	0.000021
C150	C	-0.658562	-0.001787	0.250021
C151	C	-0.408562	0.248213	0.500021
C152	C	-0.158562	0.498213	0.750021
N153	N	-0.984816	-0.232345	0.000024
N154	N	-0.734816	0.017655	0.250024
N155	N	-0.484816	0.267655	0.500024
N156	N	-0.234816	0.517655	0.750024
C157	C	-1.060188	-0.263321	0.000027
C158	C	-0.810188	-0.013321	0.250027
C159	C	-0.560188	0.236679	0.500027
C160	C	-0.310188	0.486679	0.750027
C161	C	-0.900537	-0.710589	-0.000012
C162	C	-0.650537	-0.460589	0.249988
C163	C	-0.400537	-0.210589	0.499988
C164	C	-0.150537	0.039411	0.749988
C165	C	-0.899654	-0.761007	-0.000012
C166	C	-0.649654	-0.511007	0.249988
C167	C	-0.399654	-0.261007	0.499988
C168	C	-0.149654	-0.011007	0.749988
C169	C	-1.051287	-0.772542	-0.000005
C170	C	-0.801287	-0.522542	0.249995
C171	C	-0.551287	-0.272542	0.499995
C172	C	-0.301287	-0.022542	0.749995
C173	C	-1.052169	-0.722122	0.000002
C174	C	-0.802169	-0.472122	0.250002
C175	C	-0.552169	-0.222122	0.500002
C176	C	-0.302169	0.027878	0.750002
C177	C	-0.976791	-0.691147	-0.000009
C178	C	-0.726791	-0.441147	0.249991
C179	C	-0.476791	-0.191147	0.499991
C180	C	-0.226791	0.058853	0.749991
C181	C	-1.062033	-0.157445	0.000044
C182	C	-0.812033	0.092555	0.250044
C183	C	-0.562033	0.342555	0.500044
C184	C	-0.312033	0.592555	0.750044
C185	C	-1.062907	-0.107024	0.000056
C186	C	-0.812907	0.142976	0.250056
C187	C	-0.562907	0.392976	0.500056
C188	C	-0.312907	0.642976	0.750056
C189	C	-0.911275	-0.095494	0.000044
C190	C	-0.661275	0.154506	0.250044
C191	C	-0.411275	0.404506	0.500044
C192	C	-0.161275	0.654506	0.750044
C193	C	-0.910400	-0.145910	0.000037
C194	C	-0.660400	0.104090	0.250037
C195	C	-0.410400	0.354090	0.500037
C196	C	-0.160400	0.604090	0.750037
C197	C	-0.985786	-0.176885	0.000034
C198	C	-0.735786	0.073115	0.250034
C199	C	-0.485786	0.323115	0.500034
C200	C	-0.235786	0.573115	0.750034
O201	O	-0.844578	-0.220770	0.000046
O202	O	-0.594578	0.029230	0.250046
O203	O	-0.344578	0.279230	0.500046
O204	O	-0.094578	0.529230	0.750046
O205	O	-1.125119	-0.242148	0.000019
O206	O	-0.875119	0.007852	0.250019
O207	O	-0.625119	0.257852	0.500019
O208	O	-0.375119	0.507852	0.750019
C209	C	-1.056663	-0.464986	0.000003
C210	C	-0.806663	-0.214986	0.250003
C211	C	-0.556663	0.035014	0.500003
C212	C	-0.306663	0.285014	0.750003
C213	C	-0.980410	-0.484426	-0.000008
C214	C	-0.730410	-0.234426	0.249992
C215	C	-0.480410	0.015574	0.499992
C216	C	-0.230410	0.265574	0.749992
C217	C	-0.905037	-0.453450	-0.000011
C218	C	-0.655037	-0.203450	0.249989
C219	C	-0.405037	0.046550	0.499989
C220	C	-0.155037	0.296550	0.749989
C221	C	-0.979527	-0.534844	-0.000008
C222	C	-0.729527	-0.284844	0.249992
C223	C	-0.479527	-0.034844	0.499992
C224	C	-0.229527	0.215156	0.749992
C225	C	-1.054899	-0.565820	-0.000005
C226	C	-0.804899	-0.315820	0.249995
C227	C	-0.554899	-0.065820	0.499995
C228	C	-0.304899	0.184180	0.749995
C229	C	-1.131154	-0.546378	-0.000002
C230	C	-0.881154	-0.296378	0.249998
C231	C	-0.631154	-0.046378	0.499998
C232	C	-0.381154	0.203622	0.749998
C233	C	-1.132035	-0.495962	0.000006
C234	C	-0.882035	-0.245962	0.250006
C235	C	-0.632035	0.004038	0.500006
C236	C	-0.382035	0.254038	0.750006
C237	C	-0.828783	-0.472892	-0.000014
C238	C	-0.578783	-0.222892	0.249986
C239	C	-0.328783	0.027108	0.499986
C240	C	-0.078783	0.277108	0.749986
C241	C	-0.827908	-0.523308	-0.000021
C242	C	-0.577908	-0.273308	0.249979
C243	C	-0.327908	-0.023308	0.499979
C244	C	-0.077908	0.226692	0.749979
C245	C	-0.903280	-0.554284	-0.000018
C246	C	-0.653280	-0.304284	0.249982
C247	C	-0.403280	-0.054284	0.499982
C248	C	-0.153280	0.195716	0.749982
C249	C	-0.133330	0.062433	0.000033
C250	C	0.116670	0.312433	0.250033
C251	C	0.366670	0.562433	0.500033
C252	C	0.616670	0.812433	0.750033
C253	C	-0.225612	0.063380	0.000036
C254	C	0.024388	0.313380	0.250036
C255	C	0.274388	0.563380	0.500036
C256	C	0.524388	0.813380	0.750036
C257	C	-0.974076	0.154358	0.000004
C258	C	-0.724076	0.404358	0.250004
C259	C	-0.474076	0.654358	0.500004
C260	C	-0.224076	0.904358	0.750004
C261	C	-0.975026	0.208017	-0.000009
C262	C	-0.725026	0.458017	0.249991
C263	C	-0.475026	0.708017	0.499991
C264	C	-0.225026	0.958017	0.749991
N265	N	-0.981274	0.065983	0.228200
N266	N	-0.731274	0.315983	0.478200
N267	N	-0.481274	0.565983	0.728200
N268	N	-0.231274	0.815983	0.978200
N269	N	-0.981295	0.065983	-0.228149
N270	N	-0.731295	0.315983	0.021851
N271	N	-0.481295	0.565983	0.271851
N272	N	-0.231295	0.815983	0.521851
C273	C	-1.038237	0.033123	0.453933
C274	C	-0.788237	0.283123	0.703933
C275	C	-0.538237	0.533123	0.953933
C276	C	-0.288237	0.783123	1.203933
C277	C	-1.038240	0.033122	0.546123
C278	C	-0.788240	0.283122	0.796123
C279	C	-0.538240	0.533122	1.046123
C280	C	-0.288240	0.783122	1.296123
C281	C	-0.924325	0.098843	0.546112
C282	C	-0.674325	0.348843	0.796112
C283	C	-0.424325	0.598843	1.046112
C284	C	-0.174325	0.848843	1.296112
C285	C	-0.924319	0.098842	0.453924
C286	C	-0.674319	0.348842	0.703924
C287	C	-0.424319	0.598842	0.953924
C288	C	-0.174319	0.848842	1.203924
C289	C	-0.981280	0.065982	0.407837
C290	C	-0.731280	0.315982	0.657837
C291	C	-0.481280	0.565982	0.907837
C292	C	-0.231280	0.815982	1.157837
C293	C	-0.981288	0.065983	0.592215
C294	C	-0.731288	0.315983	0.842215
C295	C	-0.481288	0.565983	1.092215
C296	C	-0.231288	0.815983	1.342215
C297	C	-0.981291	0.065982	0.692171
C298	C	-0.731291	0.315982	0.942171
C299	C	-0.481291	0.565982	1.192171
C300	C	-0.231291	0.815982	1.442171
C301	C	-0.981277	0.065983	0.307874
C302	C	-0.731277	0.315983	0.557874
C303	C	-0.481277	0.565983	0.807874
C304	C	-0.231277	0.815983	1.057874
H305	H	-0.578956	-0.013098	0.000026
H306	H	-0.328956	0.236902	0.250026
H307	H	-0.078956	0.486902	0.500026
H308	H	0.171044	0.736902	0.750026
H309	H	-0.877951	0.125597	0.583645
H310	H	-0.627951	0.375597	0.833645
H311	H	-0.377951	0.625597	1.083645
H312	H	-0.127951	0.875597	1.333645
H313	H	-1.084616	0.006367	0.416412
H314	H	-0.834616	0.256367	0.666412
H315	H	-0.584616	0.506367	0.916412
H316	H	-0.334616	0.756367	1.166412
H317	H	-0.837556	-0.776829	-0.000006
H318	H	-0.587556	-0.526829	0.249994
H319	H	-0.337556	-0.276829	0.499994
H320	H	-0.087556	-0.026829	0.749994
H321	H	-1.084618	0.006365	0.583652
H322	H	-0.834618	0.256365	0.833652
H323	H	-0.584618	0.506365	1.083652
H324	H	-0.334618	0.756365	1.333652
H325	H	-0.540907	0.146686	0.000010
H326	H	-0.290907	0.396686	0.250010
H327	H	-0.040907	0.646686	0.500010
H328	H	0.209093	0.896686	0.750010
H329	H	-0.421644	-0.014711	0.000027
H330	H	-0.171644	0.235289	0.250027
H331	H	0.078356	0.485289	0.500027
H332	H	0.328356	0.735289	0.750027
H333	H	-1.125010	-0.091200	0.000068
H334	H	-0.875010	0.158800	0.250068
H335	H	-0.625010	0.408800	0.500068
H336	H	-0.375010	0.658800	0.750068
H337	H	-0.877934	0.125600	0.416389
H338	H	-0.627934	0.375600	0.666389
H339	H	-0.377934	0.625600	0.916389
H340	H	-0.127934	0.875600	1.166389
H341	H	-0.383610	0.145080	0.000023
H342	H	-0.133610	0.395080	0.250023
H343	H	0.116390	0.645080	0.500023
H344	H	0.366390	0.895080	0.750023
H345	H	-1.123419	-0.182659	0.000038
H346	H	-0.873419	0.067341	0.250038
H347	H	-0.623419	0.317341	0.500038
H348	H	-0.373419	0.567341	0.750038
H349	H	-1.192525	-0.571608	0.000004
H350	H	-0.942525	-0.321608	0.250004
H351	H	-0.692525	-0.071608	0.500004
H352	H	-0.442525	0.178392	0.750004
H353	H	-1.195178	-0.420348	0.000021
H354	H	-0.945178	-0.170348	0.250021
H355	H	-0.695178	0.079652	0.500021
H356	H	-0.445178	0.329652	0.750021
H357	H	-1.196777	-0.328893	0.000036
H358	H	-0.946777	-0.078893	0.250036
H359	H	-0.696777	0.171107	0.500036
H360	H	-0.446777	0.421107	0.750036
H361	H	-0.848304	-0.161738	0.000052
H362	H	-0.598304	0.088262	0.250052
H363	H	-0.348304	0.338262	0.500052
H364	H	-0.098304	0.588262	0.750052
H365	H	-1.114266	-0.706299	0.000010
H366	H	-0.864266	-0.456299	0.250010
H367	H	-0.614266	-0.206299	0.500010
H368	H	-0.364266	0.043701	0.750010
H369	H	-0.839152	-0.685372	-0.000020
H370	H	-0.589152	-0.435372	0.249980
H371	H	-0.339152	-0.185372	0.499980
H372	H	-0.089152	0.064628	0.749980
H373	H	-0.768437	-0.387873	-0.000031
H374	H	-0.518437	-0.137873	0.249969
H375	H	-0.268437	0.112127	0.499969
H376	H	-0.018437	0.362127	0.749969
H377	H	-1.112658	-0.797771	-0.000002
H378	H	-0.862658	-0.547771	0.249998
H379	H	-0.612658	-0.297771	0.499998
H380	H	-0.362658	-0.047771	0.749998
H381	H	-0.849909	-0.070264	0.000045
H382	H	-0.599909	0.179736	0.250045
H383	H	-0.349909	0.429736	0.500045
H384	H	-0.099909	0.679736	0.750045
H385	H	-0.770041	-0.296415	-0.000026
H386	H	-0.520041	-0.046415	0.249974
H387	H	-0.270041	0.203585	0.499974
H388	H	-0.020041	0.453585	0.749974
H389	H	-1.194133	-0.480140	0.000015
H390	H	-0.944133	-0.230140	0.250015
H391	H	-0.694133	0.019860	0.500015
H392	H	-0.444133	0.269860	0.750015
H393	H	-0.765804	-0.539130	-0.000023
H394	H	-0.515804	-0.289130	0.249977
H395	H	-0.265804	-0.039130	0.499977
H396	H	-0.015804	0.210870	0.749977
H397	H	-0.767404	-0.447676	-0.000018
H398	H	-0.517404	-0.197676	0.249982
H399	H	-0.267404	0.052324	0.499982
H400	H	-0.017404	0.302324	0.749982
