data_functionalizedCrystal
_audit_creation_method	'MofGen! by Chris Wilmer'
_symmetry_space_group_name_H-M	'P1'
_symmetry_Int_Tables_number	1
_symmetry_cell_setting	triclinic
loop_
_symmetry_equiv_pos_as_xyz
  x,y,z
_cell_length_a	12.827892
_cell_length_b	11.169417
_cell_length_c	12.827885
_cell_angle_alpha	90.019767
_cell_angle_beta	89.970214
_cell_angle_gamma	89.985670
loop_
_atom_site_label
_atom_site_type_symbol
_atom_site_fract_x
_atom_site_fract_y
_atom_site_fract_z
Zn1	Zn	-0.416012	-1.834897	-0.590862
Zn2	Zn	-0.590789	-1.834776	-0.416123
Zn3	Zn	-0.416060	-1.634190	-0.416135
Zn4	Zn	-0.590708	-1.634173	-0.590821
O5	O	-0.503392	-1.734509	-0.503485
O6	O	-0.439211	-2.002831	-0.567695
O7	O	-0.567665	-1.808124	-0.269888
O8	O	-0.269817	-1.660872	-0.439335
O9	O	-0.567619	-2.002742	-0.439315
O10	O	-0.269782	-1.808331	-0.567707
O11	O	-0.439292	-1.660754	-0.269897
O12	O	-0.439213	-1.466238	-0.439295
O13	O	-0.567481	-1.660844	-0.737063
O14	O	-0.567527	-1.466226	-0.567636
O15	O	-0.439132	-1.808315	-0.737093
O16	O	-0.737015	-1.808108	-0.439275
O17	O	-0.736955	-1.660726	-0.567625
C18	C	-0.503367	-1.422684	-0.503463
C19	C	-0.503382	-1.289284	-0.503478
C20	C	-0.774902	-1.734434	-0.503467
C21	C	-0.891055	-1.734512	-0.503494
C22	C	-0.942835	-1.807528	-0.440053
C23	C	-1.062885	-1.807610	-0.440079
C24	C	-0.230822	-1.734617	-0.503527
C25	C	-0.114669	-1.734663	-0.503544
C26	C	-0.503292	-1.734591	-0.776056
C27	C	-0.503249	-1.734626	-0.892209
C28	C	-0.503409	-1.047551	-0.503500
C29	C	-0.503394	-1.180951	-0.503485
C30	C	-0.439726	-1.807607	-0.944009
C31	C	-0.439680	-1.807645	-1.064059
C32	C	-0.503417	-1.734497	-0.231975
C33	C	-0.503165	-1.734695	-0.115823
H34	H	-1.107414	-1.870118	-0.385762
N35	N	-1.055696	-1.651847	-0.575488
H36	H	-1.010336	-1.700604	-0.623903
H37	H	-1.106817	-1.603192	-0.617775
H38	H	-0.935602	-1.672066	-0.557832
H39	H	-0.385371	-1.870057	-0.899479
N40	N	-0.367642	-1.890422	-1.123054
H41	H	-0.377822	-1.878718	-1.200451
H42	H	-0.292997	-1.871786	-1.104041
N43	N	-0.575216	-1.651914	-1.056846
H44	H	-0.623628	-1.700696	-1.011556
H45	H	-0.532648	-1.596358	-1.011624
N46	N	-0.883842	-1.890266	-0.368084
H47	H	-0.806444	-1.878482	-0.378269
H48	H	-0.902932	-1.871669	-0.293422
N49	N	-0.575242	-1.651898	-0.951193
H50	H	-0.649936	-1.670480	-0.932249
H51	H	-0.558941	-1.566159	-0.932230
