data_functionalizedCrystal
_audit_creation_method	'MofGen! by Chris Wilmer'
_symmetry_space_group_name_H-M	'P1'
_symmetry_Int_Tables_number	1
_symmetry_cell_setting	triclinic
loop_
_symmetry_equiv_pos_as_xyz
  x,y,z
_cell_length_a	10.654544
_cell_length_b	10.654545
_cell_length_c	15.455313
_cell_angle_alpha	92.693355
_cell_angle_beta	87.291807
_cell_angle_gamma	84.485139
loop_
_atom_site_label
_atom_site_type_symbol
_atom_site_fract_x
_atom_site_fract_y
_atom_site_fract_z
O1	O	1.673301	0.170951	-0.072148
O2	O	1.307822	0.187758	-0.072144
O3	O	1.498964	-0.003385	-0.072146
O4	O	1.482160	0.362094	-0.072147
O5	O	1.488033	0.007500	0.072117
O6	O	1.296892	0.198643	0.072118
O7	O	1.662371	0.181836	0.072114
Cu8	Cu	1.478633	0.191233	0.085288
Cu9	Cu	1.491560	0.178360	-0.085318
O10	O	1.471229	0.372979	0.072115
C11	C	1.255559	0.191966	-0.000013
C12	C	1.116116	0.188274	-0.000012
C13	C	1.104174	0.200156	0.157267
C14	C	1.032693	0.204366	0.235904
C15	C	0.901675	0.200895	0.235900
C16	C	0.842135	0.193209	0.157251
C17	C	0.913616	0.189000	0.078614
C18	C	1.044636	0.192475	0.078627
C19	C	0.925559	0.177109	-0.078663
C20	C	1.056576	0.180589	-0.078661
C21	C	0.866019	0.169424	-0.157312
C22	C	0.937499	0.165223	-0.235950
C23	C	1.068524	0.168696	-0.235943
C24	C	1.128057	0.176379	-0.157298
C25	C	1.492265	-0.044740	-0.000016
C26	C	1.488572	-0.184184	-0.000021
C27	C	1.500505	-0.196060	-0.157300
C28	C	1.504741	-0.267507	-0.235939
C29	C	1.501272	-0.398526	-0.235940
C30	C	1.493562	-0.458099	-0.157294
C31	C	1.489326	-0.386652	-0.078655
C32	C	1.492800	-0.255631	-0.078662
C33	C	1.477385	-0.374775	0.078623
C34	C	1.480863	-0.243757	0.078625
C35	C	1.469676	-0.434348	0.157269
C36	C	1.465449	-0.362901	0.235910
C37	C	1.468919	-0.231875	0.235908
C38	C	1.476627	-0.172309	0.157265
C39	C	1.714634	0.177627	-0.000019
C40	C	1.854078	0.181319	-0.000026
C41	C	1.477929	0.414334	-0.000016
C42	C	1.481621	0.553777	-0.000017
N43	N	1.469550	0.200287	0.205284
N44	N	1.500653	0.169297	-0.205314
C45	C	1.550783	0.119113	0.250677
C46	C	1.543925	0.125971	0.341485
C47	C	1.455841	0.214010	0.386898
C48	C	1.374600	0.295187	0.341498
C49	C	1.381452	0.288322	0.250692
C50	C	1.426264	0.243609	0.658480
C51	C	1.419420	0.250471	0.749292
C52	C	1.588745	0.081252	0.749273
C53	C	1.595595	0.074400	0.658465
C54	C	1.514349	0.155573	0.613073
N55	N	1.448832	0.221025	0.479718
N56	N	1.521353	0.148551	0.520255
H57	H	1.210853	0.203001	0.157278
C58	C	0.661958	0.275510	-0.114476
C59	C	0.721996	0.165639	-0.157290
H60	H	0.573042	0.273186	-0.114460
H61	H	0.687222	0.280669	-0.056400
H62	H	0.684880	0.347187	-0.143542
H63	H	0.699082	0.093962	-0.128219
H64	H	0.696722	0.160467	-0.215376
C65	C	1.049666	0.323341	0.369964
C66	C	1.098135	0.212813	0.322355
H67	H	1.090059	0.328545	0.423337
H68	H	1.064662	0.394563	0.337650
H69	H	0.961406	0.321861	0.381204
H70	H	1.186394	0.214297	0.311110
H71	H	1.083149	0.141572	0.354676
H72	H	1.511016	-0.218988	-0.299972
C73	C	1.200524	0.324282	0.777304
C74	C	1.322580	0.347233	0.799219
H75	H	1.140744	0.384010	0.808133
H76	H	1.192973	0.331827	0.716736
H77	H	1.185071	0.241449	0.792194
H78	H	1.338036	0.430063	0.784323
H79	H	1.330135	0.339699	0.859801
H80	H	0.843474	0.204332	0.299933
H81	H	1.234737	0.179216	-0.157284
C82	C	1.712015	-0.041946	0.332346
C83	C	1.633239	0.036762	0.391382
H84	H	1.767163	-0.097013	0.363151
H85	H	1.662029	-0.090301	0.296947
H86	H	1.760293	0.008100	0.296910
H87	H	1.584953	-0.013285	0.426813
H88	H	1.683230	0.085120	0.426796
C89	C	1.628257	-0.104501	0.556864
C90	C	1.692083	-0.022962	0.608783
H91	H	1.687732	-0.164774	0.526259
H92	H	1.572581	-0.146853	0.592463
H93	H	1.581188	-0.057172	0.516649
H94	H	1.739144	-0.070291	0.649003
H95	H	1.747781	0.019393	0.573181
H96	H	0.735455	0.190367	0.157255
C97	C	1.352021	-0.168240	0.369953
C98	C	1.464252	-0.153339	0.322351
H99	H	1.349142	-0.119762	0.423322
H100	H	1.281955	-0.140265	0.337631
H101	H	1.348865	-0.254800	0.381202
H102	H	1.467403	-0.066780	0.311097
H103	H	1.534337	-0.181307	0.354680
C104	C	1.346837	-0.490172	0.327144
C105	C	1.456973	-0.428386	0.322350
H106	H	1.341612	-0.530608	0.380507
H107	H	1.275349	-0.430360	0.323877
H108	H	1.348870	-0.551465	0.280303
H109	H	1.454936	-0.367086	0.369187
H110	H	1.528479	-0.488204	0.325625
H111	H	1.479460	-0.065629	0.157255
H112	H	1.504709	-0.456698	-0.299975
H113	H	1.315302	0.354421	0.213733
C114	C	1.105858	0.267407	-0.370007
C115	C	1.147095	0.164075	-0.322383
H116	H	1.154368	0.264557	-0.423370
H117	H	1.019319	0.264225	-0.381263
H118	H	1.115940	0.343520	-0.337690
H119	H	1.137004	0.087961	-0.354698
H120	H	1.233655	0.167245	-0.311130
C121	C	1.658485	-0.133370	0.777230
C122	C	1.678031	-0.007984	0.799171
H123	H	1.713611	-0.188465	0.808032
H124	H	1.573435	-0.146645	0.792129
H125	H	1.675177	-0.150041	0.716649
H126	H	1.661330	0.008689	0.859752
H127	H	1.763101	0.005297	0.784278
H128	H	1.360113	0.309706	0.621529
H129	H	1.302873	0.366866	0.378478
H130	H	1.622516	0.047428	0.213708
H131	H	1.503344	-0.089380	-0.157307
C132	C	0.741960	0.154611	-0.305790
C133	C	0.872052	0.156778	-0.322393
H134	H	0.701554	0.149406	-0.359158
H135	H	0.726992	0.083376	-0.273482
H136	H	0.709104	0.229594	-0.273480
H137	H	0.904909	0.081790	-0.354698
H138	H	0.887028	0.228019	-0.354715
H139	H	1.466844	-0.541030	0.157263
H140	H	1.490723	-0.564780	-0.157302
