data_functionalizedCrystal
_audit_creation_method	'MofGen! by Chris Wilmer'
_symmetry_space_group_name_H-M	'P1'
_symmetry_Int_Tables_number	1
_symmetry_cell_setting	triclinic
loop_
_symmetry_equiv_pos_as_xyz
  x,y,z
_cell_length_a	30.570245
_cell_length_b	30.570259
_cell_length_c	30.568919
_cell_angle_alpha	89.999042
_cell_angle_beta	60.001382
_cell_angle_gamma	119.999903
loop_
_atom_site_label
_atom_site_type_symbol
_atom_site_fract_x
_atom_site_fract_y
_atom_site_fract_z
O1	O	0.313100	-0.372835	-0.013027
O2	O	0.223524	-0.309226	0.012940
O3	O	0.313097	-0.309217	-0.076637
O4	O	0.223527	-0.372844	0.076550
O5	O	0.385848	-0.236465	-0.076631
O6	O	0.296275	-0.236474	0.012947
O7	O	0.385851	-0.300083	-0.013021
Zn8	Zn	0.352614	-0.256727	-0.000036
Zn9	Zn	0.256761	-0.352581	-0.000045
O10	O	0.296278	-0.300092	0.076557
C11	C	0.128235	-0.080463	0.031433
C12	C	0.154311	-0.107031	0.031805
C13	C	0.049019	-0.159678	0.031438
C14	C	0.075215	-0.186126	0.031811
C15	C	0.128231	-0.159677	0.031439
C16	C	0.075219	-0.107031	0.031804
C17	C	0.134461	0.005152	0.024998
C18	C	0.163455	0.059251	0.020936
C19	C	0.217655	0.086384	0.018899
C20	C	0.249097	0.145041	0.014493
C21	C	0.242866	0.059422	0.020928
C22	C	0.213872	0.005326	0.024992
C23	C	0.159672	-0.021807	0.027024
C24	C	0.214050	-0.159472	0.025012
C25	C	0.243211	-0.184407	0.020958
C26	C	0.218177	-0.236573	0.018926
C27	C	0.249794	-0.263611	0.014527
C28	C	0.163976	-0.263812	0.020954
C29	C	0.134815	-0.238879	0.025011
C30	C	0.159854	-0.186709	0.027038
C31	C	-0.030166	-0.159472	0.025009
C32	C	-0.080204	-0.184406	0.020947
C33	C	-0.105303	-0.236571	0.018915
C34	C	-0.159559	-0.263610	0.014515
C35	C	-0.080369	-0.263808	0.020942
C36	C	-0.030332	-0.238877	0.025002
C37	C	-0.005233	-0.186709	0.027036
O38	O	-0.177322	-0.236472	0.012935
O39	O	-0.304540	-0.300083	-0.013035
O40	O	-0.304547	-0.300083	0.076544
O41	O	-0.177314	-0.236472	-0.076643
O42	O	-0.304551	-0.372839	0.076550
O43	O	-0.304543	-0.372839	-0.013029
O44	O	-0.177326	-0.309229	0.012941
Zn45	Zn	-0.240935	-0.352586	-0.000043
Zn46	Zn	-0.240930	-0.256726	-0.000051
O47	O	-0.177318	-0.309229	-0.076637
C48	C	0.049029	-0.159691	-0.321486
C49	C	0.075225	-0.186141	-0.348050
C50	C	0.128247	-0.080480	-0.400703
C51	C	0.154323	-0.107050	-0.427147
C52	C	0.128242	-0.159695	-0.400695
C53	C	0.075230	-0.107046	-0.348058
C54	C	-0.030156	-0.159481	-0.235876
C55	C	-0.080199	-0.184414	-0.181778
C56	C	-0.105299	-0.236578	-0.154642
C57	C	-0.159556	-0.263613	-0.095985
C58	C	-0.080366	-0.263819	-0.181599
C59	C	-0.030328	-0.238888	-0.235695
C60	C	-0.005223	-0.186719	-0.262831
C61	C	0.134458	-0.239089	-0.400480
C62	C	0.163448	-0.264198	-0.425411
C63	C	0.217649	-0.237132	-0.477575
C64	C	0.249086	-0.264353	-0.504607
C65	C	0.242865	-0.184959	-0.504817
C66	C	0.213875	-0.159853	-0.479889
C67	C	0.159674	-0.186918	-0.427721
C68	C	0.134474	0.005136	-0.400506
C69	C	0.163474	0.059236	-0.425442
C70	C	0.217675	0.086366	-0.477606
C71	C	0.249117	0.145023	-0.504647
C72	C	0.242885	0.059405	-0.504838
C73	C	0.213890	0.005307	-0.479904
C74	C	0.159685	-0.021825	-0.427738
C75	C	0.447877	-0.499854	-0.027247
C76	C	0.417172	-0.557554	-0.023538
C77	C	0.500891	-0.473287	-0.027615
C78	C	0.447872	-0.420644	-0.027238
C79	C	0.417162	-0.393651	-0.023520
C80	C	0.500886	-0.394197	-0.027607
C81	C	0.527086	-0.420644	-0.027240
C82	C	0.581071	-0.393652	-0.023523
C83	C	0.421798	-0.473287	-0.027614
C84	C	0.624685	-0.371846	-0.020519
C85	C	0.392365	-0.604170	-0.020540
C86	C	0.392351	-0.371845	-0.020514
C87	C	0.679402	-0.344489	-0.016752
C88	C	0.361244	-0.662652	-0.016780
C89	C	0.361224	-0.344487	-0.016745
O90	O	0.385874	0.317572	-0.013062
O91	O	0.296297	0.164386	0.012907
O92	O	0.385866	0.253952	-0.076671
O93	O	0.296305	0.228006	0.076516
O94	O	0.313112	0.253952	-0.076672
O95	O	0.223543	0.164386	0.012907
O96	O	0.313120	0.317572	-0.013063
Zn97	Zn	0.256780	0.240979	-0.000078
Zn98	Zn	0.352637	0.240979	-0.000077
O99	O	0.223551	0.228006	0.076516
O100	O	0.313158	0.317558	-0.541127
O101	O	0.223568	0.164370	-0.477508
O102	O	0.313158	0.253933	-0.477520
O103	O	0.223568	0.227995	-0.541116
O104	O	0.385895	0.253922	-0.550282
O105	O	0.296305	0.164359	-0.550270
O106	O	0.385896	0.317547	-0.613889
Zn107	Zn	0.352649	0.240951	-0.593632
Zn108	Zn	0.256814	0.240966	-0.497765
O109	O	0.296306	0.227984	-0.613877
O110	O	0.385846	-0.300126	-0.613818
O111	O	0.296288	-0.236499	-0.550224
O112	O	0.385848	-0.236506	-0.550209
O113	O	0.296286	-0.300119	-0.613834
O114	O	0.313087	-0.309257	-0.477449
O115	O	0.223527	-0.309250	-0.477464
O116	O	0.313084	-0.372877	-0.541058
Zn117	Zn	0.256753	-0.352615	-0.497708
Zn118	Zn	0.352620	-0.256762	-0.593574
O119	O	0.223525	-0.372870	-0.541073
C120	C	0.161517	-0.420674	0.338351
C121	C	0.192225	-0.393684	0.365347
C122	C	0.108505	-0.473320	0.364796
C123	C	0.161517	-0.420668	0.259135
C124	C	0.192223	-0.393671	0.201432
C125	C	0.108504	-0.473314	0.285700
C126	C	0.082308	-0.499886	0.338346
C127	C	0.028324	-0.557588	0.365336
C128	C	0.187593	-0.394224	0.285705
C129	C	-0.015289	-0.604206	0.387142
C130	C	0.217034	-0.371878	0.387156
C131	C	0.217032	-0.371861	0.154814
C132	C	-0.070004	-0.662690	0.414498
C133	C	0.248158	-0.344522	0.414518
C134	C	0.248155	-0.344498	0.096330
C135	C	-0.552170	-0.499867	0.338335
C136	C	-0.582882	-0.557569	0.365331
C137	C	-0.578248	-0.473298	0.364779
C138	C	-0.472947	-0.420652	0.259122
C139	C	-0.418954	-0.393658	0.201422
C140	C	-0.499145	-0.394204	0.285685
C141	C	-0.552166	-0.420652	0.338328
C142	C	-0.582875	-0.393658	0.365316
C143	C	-0.499149	-0.473298	0.285692
C144	C	-0.607685	-0.371849	0.387119
C145	C	-0.607696	-0.604188	0.387140
C146	C	-0.375333	-0.371850	0.154805
C147	C	-0.638809	-0.344490	0.414473
C148	C	-0.638825	-0.662672	0.414501
C149	C	-0.320609	-0.344490	0.096323
C150	C	0.082347	0.213823	0.338311
C151	C	0.028362	0.217540	0.365304
C152	C	0.108547	0.213455	0.364758
C153	C	0.161553	0.213817	0.259097
C154	C	0.192256	0.217527	0.201395
C155	C	0.187633	0.213449	0.285664
C156	C	0.161560	0.213823	0.338309
C157	C	0.192271	0.217540	0.365302
C158	C	0.108540	0.213449	0.285665
C159	C	0.217083	0.220544	0.387109
C160	C	-0.015251	0.220544	0.387112
C161	C	0.217062	0.220526	0.154777
C162	C	0.248211	0.224311	0.414467
C163	C	-0.069966	0.224312	0.414471
C164	C	0.248181	0.224288	0.096293
C165	C	0.560353	-0.080436	-0.400692
C166	C	0.534156	-0.107001	-0.427142
C167	C	0.481143	-0.159654	-0.321481
C168	C	0.455067	-0.186098	-0.348052
C169	C	0.481144	-0.159647	-0.400698
C170	C	0.534156	-0.107008	-0.348046
C171	C	0.639534	0.005174	-0.400480
C172	C	0.689572	0.059273	-0.425411
C173	C	0.714667	0.086409	-0.477576
C174	C	0.768919	0.145066	-0.504610
C175	C	0.689734	0.059451	-0.504818
C176	C	0.639700	0.005355	-0.479888
C177	C	0.614600	-0.021781	-0.427719
C178	C	0.474921	-0.159434	-0.480092
C179	C	0.445931	-0.184366	-0.505201
C180	C	0.391734	-0.236531	-0.478136
C181	C	0.360296	-0.263565	-0.505356
C182	C	0.366523	-0.263773	-0.425962
C183	C	0.395513	-0.238844	-0.400856
C184	C	0.449710	-0.186674	-0.427921
C185	C	0.474921	-0.159455	-0.235864
C186	C	0.445926	-0.184392	-0.181763
C187	C	0.391728	-0.236557	-0.154634
C188	C	0.360290	-0.263599	-0.095976
C189	C	0.366518	-0.263790	-0.181595
C190	C	0.395508	-0.238856	-0.235694
C191	C	0.449710	-0.186689	-0.262826
O192	O	-0.213281	-0.835650	0.449755
O193	O	-0.086061	-0.682464	0.386147
O194	O	-0.086055	-0.772032	0.386139
O195	O	-0.213286	-0.746082	0.449762
O196	O	-0.086053	-0.772037	0.458896
O197	O	-0.086059	-0.682469	0.458904
O198	O	-0.213279	-0.835654	0.522512
Zn199	Zn	-0.149669	-0.759062	0.502260
Zn200	Zn	-0.149671	-0.759056	0.406399
O201	O	-0.213285	-0.746086	0.522520
C202	C	0.481139	0.272435	-0.400731
C203	C	0.534152	0.272803	-0.427178
C204	C	0.481146	0.272441	-0.321518
C205	C	0.534159	0.272809	-0.348086
C206	C	0.560352	0.272435	-0.400731
C207	C	0.455066	0.272809	-0.348085
C208	C	0.395320	0.266007	-0.400524
C209	C	0.366155	0.261948	-0.425458
C210	C	0.391182	0.259909	-0.477622
C211	C	0.359560	0.255505	-0.504659
C212	C	0.445380	0.261933	-0.504861
C213	C	0.474545	0.265994	-0.479929
C214	C	0.449513	0.268029	-0.427761
C215	C	0.639531	0.266001	-0.480122
C216	C	0.689569	0.261942	-0.505228
C217	C	0.714668	0.259908	-0.478160
C218	C	0.768920	0.255504	-0.505378
C219	C	0.689737	0.261938	-0.425987
C220	C	0.639704	0.266000	-0.400883
C221	C	0.614600	0.268029	-0.427951
C222	C	0.395333	0.266019	-0.235903
C223	C	0.366170	0.261959	-0.181803
C224	C	0.391204	0.259926	-0.154670
C225	C	0.359589	0.255528	-0.096013
C226	C	0.445397	0.261948	-0.181630
C227	C	0.474560	0.266005	-0.235728
C228	C	0.449526	0.268041	-0.262862
H229	H	0.053294	-0.085700	0.032402
H230	H	-0.477234	-0.494636	0.264363
C231	C	0.397435	0.273613	-0.319269
N232	N	0.354029	0.274218	-0.297564
C233	C	0.563766	0.273601	-0.485614
N234	N	0.586069	0.274199	-0.529625
H235	H	0.086582	-0.494640	0.264366
C236	C	0.306895	-0.321178	-0.151750
N237	N	0.261989	-0.364402	-0.129269
C238	C	0.397437	-0.244534	-0.319238
N239	N	0.354032	-0.288547	-0.297537
C240	C	-0.469527	-0.335770	0.256863
N241	N	-0.447223	-0.291761	0.235154
H242	H	0.086638	0.212894	0.264323
H243	H	0.379136	-0.494619	-0.028207
H244	H	0.086576	-0.494648	0.408055
H245	H	0.230250	-0.350967	0.264380
C246	C	-0.002905	-0.268853	-0.265348
N247	N	0.017750	-0.291423	-0.287683
C248	C	0.534543	-0.102048	-0.509869
N249	N	0.579449	-0.058824	-0.532297
H250	H	-0.620910	-0.494630	0.408034
H251	H	0.556084	-0.085666	-0.470399
H252	H	0.556072	-0.085673	-0.326710
C253	C	0.075196	-0.268841	0.027243
N254	N	0.030290	-0.291408	0.028924
C255	C	0.245259	0.212638	0.256849
N256	N	0.288660	0.212025	0.235147
C257	C	0.211955	-0.078237	-0.485583
N258	N	0.255361	-0.056537	-0.529597
H259	H	0.086622	0.212861	0.408014
C260	C	0.473663	-0.154433	-0.152110
N261	N	0.494553	-0.131867	-0.129773
C262	C	0.534542	-0.102069	-0.265706
N263	N	0.579446	-0.058843	-0.288182
H264	H	0.053319	-0.229385	-0.326702
H265	H	0.619101	-0.016918	-0.358002
C266	C	0.716987	0.259709	-0.562616
N267	N	0.737641	0.258026	-0.605842
H268	H	0.322031	0.260305	-0.403278
C269	C	0.302830	-0.154440	0.018726
N270	N	0.347736	-0.131872	0.017044
H271	H	-0.100500	-0.162224	0.019297
H272	H	0.709868	0.081217	-0.403228
C273	C	0.306563	0.259743	-0.152154
N274	N	0.261665	0.258073	-0.129820
H275	H	0.234421	-0.016643	-0.502080
C276	C	0.717343	0.089308	-0.562203
N277	N	0.738135	0.111795	-0.605425
H278	H	-0.009735	-0.116996	0.026668
H279	H	0.556089	0.273414	-0.326756
C280	C	0.306899	-0.321160	-0.396191
N281	N	0.261991	-0.364384	-0.373766
C282	C	0.473666	-0.154395	-0.562589
N283	N	0.494552	-0.131824	-0.605814
C284	C	0.472907	0.259687	-0.562247
N285	N	0.493643	0.257995	-0.605469
C286	C	0.717352	0.259700	-0.396213
N287	N	0.738150	0.258015	-0.373786
C288	C	0.612277	0.268228	-0.343493
N289	N	0.591617	0.269903	-0.300265
H290	H	0.619402	-0.016593	-0.502070
C291	C	0.074835	-0.024694	0.027240
N292	N	0.029925	-0.047172	0.028927
C293	C	0.472937	0.259710	-0.151781
N294	N	0.493680	0.258028	-0.129298
C295	C	0.135722	0.088904	0.018703
N296	N	0.114833	0.111240	0.017023
C297	C	0.302495	0.089276	0.018683
N298	N	0.347408	0.111760	0.016992
H299	H	0.053284	-0.229383	0.032412
H300	H	0.374947	0.267678	-0.257995
H301	H	0.196967	-0.085701	0.032407
H302	H	0.374986	-0.261026	-0.358377
C303	C	0.302495	-0.155186	-0.562202
N304	N	0.347409	-0.132759	-0.605423
H305	H	0.234398	-0.016626	0.026648
C306	C	0.530499	-0.502110	-0.028403
N307	N	0.552794	-0.523820	-0.028987
H308	H	0.374976	-0.261031	-0.257645
H309	H	0.518673	0.267643	-0.502109
C310	C	-0.107979	-0.321203	-0.151740
N311	N	-0.128774	-0.364425	-0.129253
H312	H	0.234437	-0.116995	0.026669
H313	H	0.374936	0.267668	-0.358047
H314	H	0.518685	0.267649	-0.257676
C315	C	0.136441	-0.321199	0.018717
N316	N	0.115700	-0.364422	0.017031
H317	H	0.619097	0.267657	-0.502167
H318	H	-0.100808	-0.306287	0.019285
C319	C	0.045608	-0.078232	-0.319244
N320	N	0.023296	-0.056530	-0.297541
H321	H	0.142941	0.081183	-0.403265
C322	C	-0.107619	-0.154447	-0.152130
N323	N	-0.128276	-0.131877	-0.129798
H324	H	-0.010032	-0.261056	0.026652
H325	H	0.090335	-0.016954	-0.358031
H326	H	-0.009719	-0.117003	-0.257969
H327	H	0.090323	-0.261132	-0.358003
C328	C	0.135709	-0.321585	-0.395439
N329	N	0.114820	-0.364809	-0.372865
H330	H	0.522805	-0.350944	-0.028195
H331	H	0.234405	-0.117374	-0.502072
C332	C	0.302512	0.089252	-0.562224
N333	N	0.347422	0.111733	-0.605448
