data_functionalizedCrystal
_audit_creation_method	'MofGen! by Chris Wilmer'
_symmetry_space_group_name_H-M	'P1'
_symmetry_Int_Tables_number	1
_symmetry_cell_setting	triclinic
loop_
_symmetry_equiv_pos_as_xyz
  x,y,z
_cell_length_a	8.497374
_cell_length_b	12.759401
_cell_length_c	12.759393
_cell_angle_alpha	89.978838
_cell_angle_beta	89.981690
_cell_angle_gamma	90.002826
loop_
_atom_site_label
_atom_site_type_symbol
_atom_site_fract_x
_atom_site_fract_y
_atom_site_fract_z
Zn1	Zn	0.627890	-1.606355	0.594153
Zn2	Zn	0.891744	-1.606291	0.418514
Zn3	Zn	0.627980	-1.430657	0.418484
Zn4	Zn	0.891630	-1.430687	0.594147
O5	O	0.759811	-1.518497	0.506324
O6	O	0.662901	-1.753367	0.570869
O7	O	0.856840	-1.582953	0.271489
O8	O	0.407206	-1.453978	0.441777
O9	O	0.856753	-1.753320	0.441827
O10	O	0.407140	-1.583062	0.570840
O11	O	0.663054	-1.453916	0.271467
O12	O	0.662943	-1.283640	0.441771
O13	O	0.856559	-1.454029	0.741169
O14	O	0.856646	-1.283662	0.570830
O15	O	0.662790	-1.583092	0.741173
O16	O	1.112491	-1.582983	0.441822
O17	O	1.112407	-1.453967	0.570859
C18	C	0.759793	-1.245530	0.506297
C19	C	0.759823	-1.128753	0.506311
C20	C	0.759652	-1.518571	0.780358
C21	C	0.759584	-1.518602	0.897135
C22	C	0.759830	-1.792531	0.506352
C23	C	0.759838	-1.909307	0.506364
C24	C	1.169691	-1.518484	0.506340
C25	C	1.348335	-1.518512	0.506322
C26	C	0.759856	-1.518485	0.233357
C27	C	0.759479	-1.518657	0.116581
C28	C	0.860837	-0.964206	0.573442
C29	C	0.860834	-1.073930	0.573413
C30	C	0.658820	-1.073847	0.439226
C31	C	0.658832	-0.964125	0.439250
C32	C	0.977463	-0.964254	0.650917
C33	C	0.977460	-1.073978	0.650888
C34	C	0.658679	-1.585814	0.952001
C35	C	0.658622	-1.585839	1.061725
C36	C	0.860388	-1.451437	1.061707
C37	C	0.860436	-1.451408	0.951985
C38	C	0.542195	-1.663413	0.952012
C39	C	0.542138	-1.663438	1.061736
H40	H	0.576607	-0.919431	0.384616
O41	O	0.958522	-1.386253	0.898577
C42	C	1.060494	-1.446028	0.835131
H43	H	1.004890	-1.525652	0.818693
H44	H	1.081660	-1.403202	0.757974
H45	H	1.177386	-1.457565	0.877418
H46	H	0.574858	-1.744814	1.091523
O47	O	0.403652	-1.628547	1.102212
C48	C	0.375982	-1.525097	1.067990
H49	H	0.444404	-1.510080	0.992600
H50	H	0.244870	-1.513880	1.052761
H51	H	0.416294	-1.467678	1.130935
H52	H	0.942495	-1.396728	1.106380
H53	H	1.093475	-1.107992	0.621622
O54	O	0.594648	-1.755605	0.911535
C55	C	0.749968	-1.774032	0.945735
H56	H	0.772449	-1.728509	1.021119
H57	H	0.766828	-1.861356	0.960966
H58	H	0.836222	-1.747133	0.882776
H59	H	0.576586	-1.118493	0.384583
H60	H	0.420022	-1.641625	0.922236
O61	O	0.938382	-1.109694	0.747907
C62	C	0.800728	-1.171032	0.741259
H63	H	0.787294	-1.202216	0.658026
H64	H	0.809422	-1.239577	0.798298
H65	H	0.694159	-1.120905	0.762077
H66	H	0.933835	-0.930267	0.728261
H67	H	1.099612	-0.934467	0.629014
