data_functionalizedCrystal
_audit_creation_method	'MofGen! by Chris Wilmer'
_symmetry_space_group_name_H-M	'P1'
_symmetry_Int_Tables_number	1
_symmetry_cell_setting	triclinic
loop_
_symmetry_equiv_pos_as_xyz
  x,y,z
_cell_length_a	27.440280
_cell_length_b	27.440279
_cell_length_c	27.440280
_cell_angle_alpha	60.005133
_cell_angle_beta	90.007570
_cell_angle_gamma	60.011417
loop_
_atom_site_label
_atom_site_type_symbol
_atom_site_fract_x
_atom_site_fract_y
_atom_site_fract_z
Zr1	Zr	0.469675	0.533229	-0.063780
O2	O	0.391882	0.634884	-0.141585
O3	O	0.493498	0.431584	-0.039944
O4	O	0.493522	0.533231	-0.141594
O5	O	0.391866	0.533230	0.040266
O6	O	0.573725	0.533222	-0.141584
O7	O	0.391858	0.533236	-0.039935
O8	O	0.573682	0.351393	0.040249
O9	O	0.391909	0.715060	-0.141567
O10	O	0.563542	0.473381	-0.029752
O11	O	0.503694	0.473384	0.030093
O12	O	0.503722	0.593061	-0.089587
O13	O	0.443874	0.593064	-0.029741
Zr14	Zr	0.597602	0.533205	0.064147
Zr15	Zr	0.597589	0.533214	-0.063764
Zr16	Zr	0.469687	0.533220	0.064131
Zr17	Zr	0.469718	0.661100	-0.063752
Zr18	Zr	0.597559	0.405334	0.064119
O19	O	0.573778	0.634850	0.040311
O20	O	0.573759	0.634862	-0.141562
O21	O	0.391900	0.634871	0.040288
O22	O	0.675394	0.431550	0.141952
O23	O	0.675376	0.431562	-0.039921
O24	O	0.493517	0.431571	0.141929
O25	O	0.675410	0.533203	-0.039899
O26	O	0.573754	0.533202	0.141961
O27	O	0.493551	0.533211	0.141951
O28	O	0.675418	0.533197	0.040302
O29	O	0.493584	0.715048	-0.141554
O30	O	0.573692	0.351386	0.141922
O31	O	0.675367	0.351374	0.141934
O32	O	0.675357	0.351381	0.040262
O33	O	0.391919	0.715052	-0.039895
O34	O	0.493594	0.715040	-0.039882
O35	O	0.563554	0.473373	0.089954
O36	O	0.623403	0.473370	0.030108
O37	O	0.563582	0.593050	-0.029726
O38	O	0.503734	0.593052	0.030119
C39	C	0.533584	0.373269	0.000149
C40	C	0.533566	0.318985	0.000137
C41	C	0.502390	0.084228	0.031426
C42	C	0.502378	0.135258	0.031418
O43	O	0.475822	0.161635	0.057997
N44	N	0.533610	0.160781	0.000172
C45	C	0.564861	0.135267	-0.031064
O46	O	0.591426	0.161662	-0.057642
C47	C	0.564876	0.084234	-0.031052
C48	C	0.533637	0.058718	0.000191
C49	C	0.471154	0.058711	0.062667
C50	C	0.471165	0.007685	0.062674
C51	C	0.502412	-0.017824	0.031440
C52	C	0.533648	0.007693	0.000198
C53	C	0.596130	0.058718	-0.062284
C54	C	0.596142	0.007681	-0.062269
C55	C	0.564903	-0.017835	-0.031026
C56	C	0.564906	-0.068842	-0.031030
N57	N	0.533674	-0.094366	0.000217
C58	C	0.502427	-0.068857	0.031451
C59	C	0.564828	0.242438	-0.031085
C60	C	0.564810	0.293474	-0.031101
C61	C	0.502329	0.293460	0.031382
C62	C	0.502343	0.242427	0.031394
C63	C	0.533596	0.216915	0.000161
C64	C	0.502452	-0.176014	0.031463
C65	C	0.502463	-0.227042	0.031465
C66	C	0.564948	-0.227026	-0.031015
C67	C	0.564934	-0.176000	-0.031020
C68	C	0.533684	-0.150497	0.000224
O69	O	0.591451	-0.095254	-0.057593
O70	O	0.475873	-0.095264	0.058031
C71	C	0.373637	0.533235	0.000163
C72	C	0.319334	0.533242	0.000157
C73	C	0.013862	0.470734	0.031433
C74	C	-0.037157	0.470730	0.031438
O75	O	-0.036989	0.417600	0.058019
N76	N	-0.093899	0.533201	0.000205
C77	C	-0.099622	0.595680	-0.031031
O78	O	-0.152570	0.648816	-0.057597
C79	C	-0.048604	0.595683	-0.031033
C80	C	0.008138	0.533208	0.000198
C81	C	0.070601	0.408264	0.062661
C82	C	0.121616	0.408268	0.062655
C83	C	0.115891	0.470742	0.031420
C84	C	0.059152	0.533212	0.000192
C85	C	-0.054328	0.658161	-0.062265
C86	C	-0.003304	0.658159	-0.062263
C87	C	0.053438	0.595683	-0.031032
C88	C	0.104443	0.595690	-0.031050
N89	N	0.161185	0.533219	0.000184
C90	C	0.166909	0.470745	0.031419
C91	C	-0.206761	0.595668	-0.031025
C92	C	-0.257778	0.595666	-0.031027
C93	C	-0.195309	0.470716	0.031443
C94	C	-0.144291	0.470719	0.031442
C95	C	-0.150018	0.533197	0.000209
C96	C	0.274042	0.470758	0.031403
C97	C	0.325058	0.470768	0.031392
C98	C	0.262585	0.595717	-0.031076
C99	C	0.211573	0.595708	-0.031068
C100	C	0.217305	0.533223	0.000176
O101	O	0.104321	0.648792	-0.057615
O102	O	0.219859	0.417618	0.057986
C103	C	0.693639	0.533198	0.000204
C104	C	0.747942	0.533192	0.000210
C105	C	0.533622	0.533228	-0.159814
C106	C	0.533617	0.533232	-0.214115
C107	C	0.533692	0.693164	0.000219
C108	C	0.533710	0.747449	0.000230
C109	C	0.489451	0.533212	-0.448808
C110	C	0.489448	0.533214	-0.397789
O111	O	0.451882	0.533195	-0.371393
N112	N	0.533630	0.533214	-0.372270
C113	C	0.577821	0.533205	-0.397770
O114	O	0.615402	0.533205	-0.371379
C115	C	0.577826	0.533199	-0.448786
C116	C	0.533637	0.533206	-0.474306
C117	C	0.445266	0.533219	-0.474328
C118	C	0.445268	0.533218	-0.525344
C119	C	0.489455	0.533212	-0.550842
C120	C	0.533640	0.533206	-0.525323
C121	C	0.622019	0.533185	-0.474283
C122	C	0.622020	0.533178	-0.525303
C123	C	0.577832	0.533185	-0.550822
C124	C	0.577829	0.533199	-0.601837
N125	N	0.533647	0.533199	-0.627356
C126	C	0.489460	0.533205	-0.601858
C127	C	0.577809	0.533217	-0.290632
C128	C	0.577802	0.533229	-0.239619
C129	C	0.489429	0.533236	-0.239641
C130	C	0.489434	0.533230	-0.290657
C131	C	0.533626	0.533217	-0.316151
C132	C	0.489468	0.533206	-0.708997
C133	C	0.489473	0.533208	-0.760020
C134	C	0.577847	0.533197	-0.759992
C135	C	0.577841	0.533198	-0.708976
C136	C	0.533648	0.533200	-0.683478
O137	O	0.615377	0.533215	-0.628264
O138	O	0.451890	0.533197	-0.628251
C139	C	0.533654	0.533205	0.160181
C140	C	0.533660	0.533202	0.214483
C141	C	0.693585	0.373251	0.000169
C142	C	0.747870	0.318960	0.000163
C143	C	0.533600	0.373258	0.160146
C144	C	0.533587	0.318970	0.214436
C145	C	0.693601	0.373239	0.160166
C146	C	0.747892	0.318945	0.214462
C147	C	0.373675	0.693194	-0.159799
C148	C	0.319385	0.747489	-0.214095
C149	C	0.373691	0.693183	0.000198
C150	C	0.319406	0.747474	0.000204
C151	C	0.533676	0.693175	-0.159779
C152	C	0.533689	0.747464	-0.214069
C153	C	0.742116	0.293470	-0.031091
C154	C	0.793117	0.242465	-0.031108
C155	C	0.849872	0.216947	0.000134
C156	C	0.855625	0.242442	0.031389
C157	C	0.804624	0.293449	0.031402
C158	C	0.564828	0.293469	0.271183
C159	C	0.564814	0.242467	0.322199
C160	C	0.533562	0.216962	0.316466
C161	C	0.502318	0.242467	0.259713
C162	C	0.502329	0.293472	0.208699
C163	C	0.804632	0.293446	0.208722
C164	C	0.855649	0.242437	0.259734
C165	C	0.849923	0.216925	0.316487
C166	C	0.793176	0.242429	0.322226
C167	C	0.742161	0.293440	0.271214
C168	C	0.262644	0.772994	-0.208355
C169	C	0.211628	0.824018	-0.259367
C170	C	0.217354	0.849533	-0.316120
C171	C	0.274100	0.824026	-0.321859
C172	C	0.325115	0.773006	-0.270847
C173	C	0.325160	0.772969	0.031453
C174	C	0.274159	0.823988	0.031455
C175	C	0.217404	0.849508	0.000212
C176	C	0.211651	0.824011	-0.031041
C177	C	0.262652	0.772996	-0.031047
C178	C	0.564946	0.772952	-0.208317
C179	C	0.564970	0.823955	-0.259323
C180	C	0.533732	0.849472	-0.316080
C181	C	0.502474	0.823978	-0.321831
C182	C	0.502454	0.772973	-0.270825
H183	H	0.477022	-0.247814	0.056907
F184	F	0.469178	0.745856	-0.276956
F185	F	0.163053	0.903834	-0.370407
F186	F	0.151244	0.851176	-0.064289
H187	H	0.891395	0.175412	0.000119
H188	H	0.409284	0.533221	-0.453571
H189	H	0.695908	0.314246	-0.056539
F190	F	0.916032	0.215275	0.064638
F191	F	0.280185	0.851187	-0.382264
H192	H	0.371315	0.752240	-0.275528
H193	H	-0.303976	0.646539	-0.056466
H194	H	0.257959	0.752239	-0.056492
H195	H	0.590424	0.844707	-0.254629
H196	H	0.613795	0.533213	-0.311389
F197	F	0.810757	0.320568	0.064673
H198	H	0.476886	0.314238	0.056816
F199	F	0.398240	0.533221	-0.552497
H200	H	0.371368	0.752195	0.056898
F201	F	0.624827	0.533234	-0.212471
H202	H	0.278854	0.844739	0.056907
F203	F	0.442438	0.533218	-0.787178
H204	H	0.590259	0.221706	0.368404
F205	F	0.469079	0.320603	0.148305
F206	F	0.533556	0.162676	0.370766
H207	H	-0.211432	0.646549	-0.056462
H208	H	0.476873	0.221693	0.255055
F209	F	0.163129	0.903802	0.000224
H210	H	0.658002	0.533179	-0.453512
F211	F	0.786982	0.215338	-0.064373
F212	F	0.810740	0.320592	0.148326
H213	H	0.590277	0.314230	0.275862
H214	H	-0.007974	0.709037	-0.087690
F215	F	0.437920	-0.019468	0.095932
F216	F	-0.189225	0.404225	0.064687
F217	F	0.904223	0.162633	0.370774
F218	F	0.076706	0.341764	0.095911
H219	H	0.453483	0.533206	-0.688242
H220	H	0.901850	0.221677	0.255051
F221	F	0.787091	0.215269	0.382631
F222	F	0.681774	0.320569	0.277333
H223	H	0.257970	0.752222	-0.162149
H224	H	0.590384	0.752185	-0.162107
H225	H	0.165427	0.844778	-0.254683
F226	F	0.182000	0.341773	0.095899
F227	F	0.385447	0.404270	0.064632
F228	F	0.442403	0.533236	-0.317811
H229	H	0.533753	0.891004	-0.357607
F230	F	0.469226	0.851147	-0.382241
H231	H	0.477004	-0.155254	0.056903
H232	H	0.445709	0.079474	0.088105
F233	F	0.442402	0.533241	-0.212494
F234	F	0.669059	0.533163	-0.552430
H235	H	0.590386	-0.247802	-0.056448
F236	F	0.469096	0.215275	0.064648
F237	F	0.598050	0.320634	-0.064364
H238	H	0.165370	0.646580	-0.056506
H239	H	0.613822	0.533195	-0.780762
F240	F	0.598088	0.215297	-0.064336
H241	H	0.278718	0.419877	0.056845
H242	H	0.621567	0.079485	-0.087725
H243	H	0.621594	-0.013090	-0.087702
H244	H	0.590364	-0.155218	-0.056468
H245	H	-0.100521	0.709035	-0.087695
F246	F	-0.083905	0.404225	0.064682
F247	F	0.256504	0.662203	-0.064310
F248	F	0.624867	0.533201	-0.681822
