data_functionalizedCrystal
_audit_creation_method	'MofGen! by Chris Wilmer'
_symmetry_space_group_name_H-M	'P1'
_symmetry_Int_Tables_number	1
_symmetry_cell_setting	triclinic
loop_
_symmetry_equiv_pos_as_xyz
  x,y,z
_cell_length_a	15.944545
_cell_length_b	14.421503
_cell_length_c	12.837942
_cell_angle_alpha	90.001076
_cell_angle_beta	90.837444
_cell_angle_gamma	89.990135
loop_
_atom_site_label
_atom_site_type_symbol
_atom_site_fract_x
_atom_site_fract_y
_atom_site_fract_z
O1	O	1.125206	0.077051	-0.133657
O2	O	1.458539	0.410384	0.199676
O3	O	1.791873	0.743717	0.533010
O4	O	0.881975	0.077066	-0.150147
O5	O	1.215308	0.410399	0.183186
O6	O	1.548641	0.743732	0.516520
O7	O	0.998197	0.077053	0.009001
O8	O	1.331530	0.410386	0.342334
O9	O	1.664864	0.743719	0.675668
O10	O	1.008984	0.077063	-0.292805
O11	O	1.342317	0.410397	0.040528
O12	O	1.675650	0.743730	0.373862
O13	O	0.998213	-0.077171	0.008991
O14	O	1.331547	0.256163	0.342324
O15	O	1.664880	0.589496	0.675657
O16	O	0.881991	-0.077158	-0.150157
O17	O	1.215325	0.256175	0.183176
O18	O	1.548658	0.589509	0.516509
O19	O	1.125222	-0.077173	-0.133667
O20	O	1.458556	0.256161	0.199666
O21	O	1.791889	0.589494	0.532999
Cu22	Cu	1.003608	-0.091247	-0.141913
Cu23	Cu	1.336942	0.242086	0.191420
Cu24	Cu	1.670275	0.575420	0.524753
Cu25	Cu	1.003589	0.091140	-0.141901
Cu26	Cu	1.336922	0.424473	0.191432
Cu27	Cu	1.670256	0.757807	0.524766
O28	O	1.009000	-0.077160	-0.292815
O29	O	1.342334	0.256173	0.040518
O30	O	1.675667	0.589507	0.373851
C31	C	0.850634	-0.000044	-0.149469
C32	C	1.183968	0.333289	0.183864
C33	C	1.517301	0.666622	0.517198
C34	C	0.757224	-0.000039	-0.147420
C35	C	1.090557	0.333295	0.185913
C36	C	1.423891	0.666628	0.519247
C37	C	0.478210	-0.000052	-0.042650
C38	C	0.811544	0.333281	0.290683
C39	C	1.144877	0.666614	0.624016
C40	C	0.532841	-0.076093	-0.093167
C41	C	0.866174	0.257240	0.240166
C42	C	1.199507	0.590574	0.573500
C43	C	0.420996	-0.000055	-0.140113
C44	C	0.754329	0.333279	0.193220
C45	C	1.087662	0.666612	0.526554
C46	C	0.532807	0.075959	-0.093183
C47	C	0.866140	0.409293	0.240150
C48	C	1.199474	0.742626	0.573484
C49	C	0.586196	-0.000045	-0.143698
C50	C	0.919529	0.333288	0.189635
C51	C	1.252863	0.666621	0.522969
C52	C	0.474396	-0.076158	-0.190604
C53	C	0.807729	0.257175	0.142730
C54	C	1.141062	0.590508	0.476063
C55	C	0.474358	0.075962	-0.190605
C56	C	0.807691	0.409296	0.142728
C57	C	1.141024	0.742629	0.476061
C58	C	0.528961	-0.000097	-0.241193
C59	C	0.862294	0.333236	0.092140
C60	C	1.195628	0.666570	0.425473
C61	C	0.325828	-0.000061	-0.138045
C62	C	0.659161	0.333272	0.195288
C63	C	0.992495	0.666606	0.528621
C64	C	0.681361	-0.000046	-0.145773
C65	C	1.014695	0.333288	0.187560
C66	C	1.348028	0.666621	0.520893
N67	N	1.003628	-0.219528	-0.141921
N68	N	1.336961	0.113805	0.191412
N69	N	1.670295	0.447138	0.524745
C70	C	1.057381	-0.469163	-0.068315
C71	C	1.390714	-0.135830	0.265018
C72	C	1.724047	0.197504	0.598352
C73	C	0.979870	-0.530956	-0.048180
C74	C	1.313204	-0.197623	0.285154
C75	C	1.646537	0.135710	0.618487
C76	C	1.003608	-0.408690	-0.141909
C77	C	1.336942	-0.075356	0.191425
C78	C	1.670275	0.257977	0.524758
C79	C	1.081096	-0.530991	-0.161984
C80	C	1.414429	-0.197657	0.171350
C81	C	1.747763	0.135676	0.504683
C82	C	1.003596	-0.591411	-0.141894
C83	C	1.336929	-0.258078	0.191439
C84	C	1.670263	0.075255	0.524772
C85	C	0.926056	-0.469122	-0.121727
C86	C	1.259389	-0.135789	0.211606
C87	C	1.592723	0.197545	0.544940
C88	C	1.027335	-0.469151	-0.235572
C89	C	1.360668	-0.135818	0.097762
C90	C	1.694001	0.197516	0.431095
C91	C	0.949773	-0.530916	-0.215476
C92	C	1.283106	-0.197583	0.117857
C93	C	1.616439	0.135750	0.451191
C94	C	1.003617	-0.303429	-0.141914
C95	C	1.336950	0.029905	0.191419
C96	C	1.670283	0.363238	0.524752
C97	C	1.003579	-0.696670	-0.141889
C98	C	1.336912	-0.363337	0.191444
C99	C	1.670246	-0.030003	0.524777
C100	C	1.156563	-0.000061	-0.134346
C101	C	1.489896	0.333272	0.198988
C102	C	1.823230	0.666606	0.532321
C103	C	1.249973	-0.000060	-0.136395
C104	C	1.583306	0.333273	0.196939
C105	C	1.916640	0.666606	0.530272
C106	C	0.994561	-0.000058	0.047617
C107	C	1.327895	0.333275	0.380950
C108	C	1.661228	0.666608	0.714283
C109	C	0.983693	-0.000056	0.162694
C110	C	1.317027	0.333277	0.496027
C111	C	1.650360	0.666611	0.829361
N112	N	1.003575	0.219421	-0.141885
N113	N	1.336908	0.552754	0.191448
N114	N	1.670242	0.886088	0.524782
C115	C	1.012636	-0.000047	-0.331431
C116	C	1.345969	0.333286	0.001902
C117	C	1.679303	0.666620	0.335236
C118	C	1.023504	-0.000043	-0.446509
C119	C	1.356837	0.333290	-0.113175
C120	C	1.690171	0.666624	0.220158
C121	C	1.114346	-0.000045	0.403647
C122	C	1.447679	0.333289	0.736980
C123	C	1.781013	0.666622	1.070314
C124	C	1.104138	-0.000043	0.511773
C125	C	1.437472	0.333291	0.845107
C126	C	1.770805	0.666624	1.178440
C127	C	0.953072	-0.000043	0.487075
C128	C	1.286405	0.333290	0.820408
C129	C	1.619738	0.666624	1.153742
C130	C	0.963279	-0.000045	0.378949
C131	C	1.296612	0.333288	0.712282
C132	C	1.629946	0.666622	1.045615
C133	C	1.043919	-0.000047	0.337239
C134	C	1.377252	0.333286	0.670572
C135	C	1.710585	0.666619	1.003906
C136	C	1.054126	-0.000056	0.229111
C137	C	1.387459	0.333277	0.562444
C138	C	1.720792	0.666610	0.895777
C139	C	0.903059	-0.000050	0.204414
C140	C	1.236393	0.333283	0.537748
C141	C	1.569726	0.666617	0.871081
C142	C	0.892852	-0.000048	0.312541
C143	C	1.226185	0.333286	0.645874
C144	C	1.559519	0.666619	0.979207
H145	H	0.448694	0.140254	-0.231726
H146	H	0.782028	0.473587	0.101607
H147	H	1.115361	0.806921	0.434941
H148	H	1.119786	-0.000061	0.195153
H149	H	1.453120	0.333272	0.528486
H150	H	1.786453	0.666605	0.861819
H151	H	0.845713	-0.000059	0.150332
H152	H	1.179046	0.333274	0.483666
H153	H	1.512379	0.666607	0.816999
Br154	Br	0.575507	0.183099	-0.024546
Br155	Br	0.908841	0.516432	0.308787
Br156	Br	1.242174	0.849766	0.642121
Br157	Br	0.816787	-0.424025	-0.093264
Br158	Br	1.150121	-0.090692	0.240069
Br159	Br	1.483454	0.242642	0.573403
H160	H	1.180006	-0.000056	0.369687
H161	H	1.513339	0.333278	0.703020
H162	H	1.846673	0.666611	1.036353
H163	H	1.161488	-0.000037	0.565840
H164	H	1.494821	0.333296	0.899173
H165	H	1.828154	0.666629	1.232506
Br166	Br	0.783418	-0.000033	0.369157
Br167	Br	1.116751	0.333300	0.702490
Br168	Br	1.450084	0.666634	1.035823
H169	H	1.047435	-0.441982	-0.314761
H170	H	1.380768	-0.108649	0.018572
H171	H	1.714102	0.224684	0.351905
Br172	Br	1.133083	-0.423966	0.035466
Br173	Br	1.466416	-0.090633	0.368799
Br174	Br	1.799750	0.242700	0.702133
Br175	Br	0.431880	-0.183423	-0.259166
Br176	Br	0.765214	0.149911	0.074167
Br177	Br	1.098547	0.483244	0.407500
Br178	Br	1.190323	-0.576295	-0.190292
Br179	Br	1.523656	-0.242962	0.143042
Br180	Br	1.856990	0.090372	0.476375
Br181	Br	0.873886	-0.575827	-0.319207
Br182	Br	1.207219	-0.242493	0.014126
Br183	Br	1.540553	0.090840	0.347460
H184	H	0.455842	-0.000129	0.041286
H185	H	0.789176	0.333204	0.374619
H186	H	1.122509	0.666538	0.707952
H187	H	0.551172	-0.000138	-0.325194
H188	H	0.884506	0.333195	0.008139
H189	H	1.217839	0.666528	0.341472
H190	H	0.887418	-0.000031	0.521054
H191	H	1.220752	0.333302	0.854388
H192	H	1.554085	0.666636	1.187721
Br193	Br	0.575581	-0.183250	-0.024575
Br194	Br	0.908914	0.150084	0.308758
Br195	Br	1.242248	0.483417	0.642091
H196	H	0.959792	-0.558105	0.031035
H197	H	1.293125	-0.224772	0.364368
H198	H	1.626458	0.108562	0.697701
