data_functionalizedCrystal
_audit_creation_method	'MofGen! by Chris Wilmer'
_symmetry_space_group_name_H-M	'P1'
_symmetry_Int_Tables_number	1
_symmetry_cell_setting	triclinic
loop_
_symmetry_equiv_pos_as_xyz
  x,y,z
_cell_length_a	17.019372
_cell_length_b	27.731996
_cell_length_c	15.500227
_cell_angle_alpha	92.797931
_cell_angle_beta	91.029586
_cell_angle_gamma	83.007937
loop_
_atom_site_label
_atom_site_type_symbol
_atom_site_fract_x
_atom_site_fract_y
_atom_site_fract_z
O1	O	1.045595	0.061749	0.005875
O2	O	1.545595	0.561749	0.505875
O3	O	0.816710	0.069074	-0.011166
O4	O	1.316710	0.569074	0.488834
O5	O	0.938282	-0.004942	-0.002096
O6	O	1.438282	0.495058	0.497904
O7	O	0.924024	0.135765	-0.003195
O8	O	1.424024	0.635765	0.496805
O9	O	0.930905	-0.000468	0.141242
O10	O	1.430905	0.499532	0.641242
O11	O	0.809333	0.073547	0.132173
O12	O	1.309333	0.573547	0.632173
O13	O	1.038218	0.066223	0.149213
O14	O	1.538218	0.566223	0.649213
Cu15	Cu	0.923102	0.070294	0.153781
Cu16	Cu	1.423102	0.570294	0.653781
Cu17	Cu	0.931826	0.065003	-0.015733
Cu18	Cu	1.431826	0.565003	0.484267
O19	O	0.916647	0.140239	0.140144
O20	O	1.416647	0.640239	0.640144
C21	C	0.783749	0.070945	0.058325
C22	C	1.283749	0.570945	0.558325
C23	C	0.696525	0.069851	0.051831
C24	C	1.196525	0.569851	0.551831
C25	C	0.934300	-0.020714	0.069554
C26	C	1.434300	0.479286	0.569554
C27	C	0.933417	-0.074376	0.069498
C28	C	1.433417	0.425624	0.569498
C29	C	0.203410	0.063521	0.011131
C30	C	0.703410	0.563521	0.511131
C31	C	0.285366	0.064550	0.017244
C32	C	0.785366	0.564550	0.517244
C33	C	0.322314	0.067506	0.098434
C34	C	0.822314	0.567506	0.598434
C35	C	0.277302	0.069430	0.173517
C36	C	0.777302	0.569430	0.673517
C37	C	0.195349	0.068397	0.167404
C38	C	0.695349	0.568397	0.667404
C39	C	0.569560	0.070742	0.120801
C40	C	1.069560	0.570742	0.620801
C41	C	0.651519	0.071775	0.126909
C42	C	1.151519	0.571775	0.626909
C43	C	0.659577	0.066895	-0.029366
C44	C	1.159577	0.566895	0.470634
C45	C	0.577621	0.065866	-0.035472
C46	C	1.077621	0.565866	0.464528
C47	C	0.532617	0.067786	0.039611
C48	C	1.032617	0.567786	0.539611
C49	C	0.406085	0.068559	0.104684
C50	C	0.906085	0.568559	0.604684
C51	C	0.448848	0.066730	0.033361
C52	C	0.948848	0.566730	0.533361
C53	C	0.931890	-0.409567	-0.009092
C54	C	1.431890	0.090433	0.490908
C55	C	0.928540	-0.611246	-0.009356
C56	C	1.428540	-0.111246	0.490644
O57	O	0.931493	-0.639394	-0.075841
O58	O	1.431493	-0.139394	0.424159
N59	N	0.924103	-0.634027	0.068746
N60	N	1.424103	-0.134027	0.568746
C61	C	0.920497	-0.606385	0.146919
C62	C	1.420497	-0.106385	0.646919
O63	O	0.916638	-0.630388	0.213343
O64	O	1.416638	-0.130388	0.713343
C65	C	0.923841	-0.404706	0.147182
C66	C	1.423841	0.095294	0.647182
C67	C	0.928287	-0.381928	0.069076
C68	C	1.428287	0.118072	0.569076
C69	C	0.936334	-0.386789	-0.087192
C70	C	1.436334	0.113211	0.412808
C71	C	0.937176	-0.336372	-0.087125
C72	C	1.437176	0.163628	0.412875
C73	C	0.933573	-0.308734	-0.008957
C74	C	1.433573	0.191266	0.491043
C75	C	0.929129	-0.331512	0.069143
C76	C	1.429129	0.168488	0.569143
C77	C	0.920230	-0.377064	0.225354
C78	C	1.420230	0.122936	0.725354
C79	C	0.921065	-0.326641	0.225413
C80	C	1.421065	0.173359	0.725413
C81	C	0.925510	-0.303863	0.147307
C82	C	1.425510	0.196137	0.647307
C83	C	0.926367	-0.253456	0.147378
C84	C	1.426367	0.246544	0.647378
N85	N	0.930805	-0.230675	0.069276
N86	N	1.430805	0.269325	0.569276
C87	C	0.934407	-0.258314	-0.008892
C88	C	1.434407	0.241686	0.491108
C89	C	0.918743	-0.712269	0.146776
C90	C	1.418743	-0.212269	0.646776
C91	C	0.917909	-0.762689	0.146710
C92	C	1.417909	-0.262689	0.646710
C93	C	0.925950	-0.767547	-0.009566
C94	C	1.425950	-0.267547	0.490434
C95	C	0.926790	-0.717127	-0.009499
C96	C	1.426790	-0.217127	0.490501
C97	C	0.923181	-0.689488	0.068674
C98	C	1.423181	-0.189488	0.568674
C99	C	0.936175	-0.152435	-0.008744
C100	C	1.436175	0.347565	0.491256
C101	C	0.937020	-0.102015	-0.008670
C102	C	1.437020	0.397985	0.491330
C103	C	0.928975	-0.097161	0.147605
C104	C	1.428975	0.402839	0.647605
C105	C	0.928134	-0.147578	0.147531
C106	C	1.428134	0.352422	0.647531
C107	C	0.931732	-0.175214	0.069350
C108	C	1.431732	0.324786	0.569350
O109	O	0.923408	-0.225278	0.213827
O110	O	1.423408	0.274722	0.713827
O111	O	0.938249	-0.234300	-0.075307
O112	O	1.438249	0.265700	0.424693
C113	C	0.931048	-0.459983	-0.009159
C114	C	1.431048	0.040017	0.490841
C115	C	0.926604	-0.482761	0.068941
C116	C	1.426604	0.017239	0.568941
C117	C	0.923001	-0.455123	0.147109
C118	C	1.423001	0.044877	0.647109
C119	C	0.925769	-0.533181	0.068876
C120	C	1.425769	-0.033181	0.568876
C121	C	0.929372	-0.560819	-0.009292
C122	C	1.429372	-0.060819	0.490708
C123	C	0.933809	-0.538038	-0.087394
C124	C	1.433809	-0.038038	0.412606
C125	C	0.934651	-0.487622	-0.087326
C126	C	1.434651	0.012378	0.412674
C127	C	0.918564	-0.477904	0.225211
C128	C	1.418564	0.022096	0.725211
C129	C	0.917723	-0.528321	0.225137
C130	C	1.417723	-0.028321	0.725137
C131	C	0.921326	-0.555959	0.146970
C132	C	1.421326	-0.055959	0.646970
C133	C	1.071180	0.064351	0.079721
C134	C	1.571180	0.564351	0.579721
C135	C	1.158404	0.065446	0.086209
C136	C	1.658404	0.565446	0.586209
C137	C	0.920628	0.156011	0.068491
C138	C	1.420628	0.656011	0.568491
C139	C	0.921511	0.209672	0.068543
C140	C	1.421511	0.709672	0.568543
N141	N	0.916972	0.074015	0.273009
N142	N	1.416972	0.574015	0.773009
N143	N	0.937963	0.061278	-0.134960
N144	N	1.437963	0.561278	0.365040
C145	C	0.968503	0.042663	0.322130
C146	C	1.468503	0.542663	0.822130
C147	C	0.963874	0.045482	0.412357
C148	C	1.463874	0.545482	0.912357
C149	C	0.907717	0.079655	0.453462
C150	C	1.407717	0.579655	0.953462
C151	C	0.856180	0.111007	0.404334
C152	C	1.356180	0.611007	0.904334
C153	C	0.860805	0.108186	0.314108
C154	C	1.360805	0.608186	0.814108
C155	C	0.891052	0.089810	0.725686
C156	C	1.391052	0.589810	1.225686
C157	C	0.886431	0.092630	0.815919
C158	C	1.386431	0.592630	1.315919
C159	C	0.994126	0.027103	0.823935
C160	C	1.494126	0.527103	1.323935
C161	C	0.998750	0.024287	0.733707
C162	C	1.498750	0.524287	1.233707
C163	C	0.947210	0.055638	0.684587
C164	C	1.447210	0.555638	1.184587
C165	C	0.902985	0.082537	0.545689
C166	C	1.402985	0.582537	1.045689
C167	C	0.951938	0.052752	0.592361
C168	C	1.451938	0.552752	1.092361
H169	H	0.173332	0.061117	-0.054983
H170	H	0.673332	0.561117	0.445017
H171	H	0.322007	0.062980	-0.043893
H172	H	0.822007	0.562980	0.456107
F173	F	0.914723	-0.448495	0.308412
F174	F	1.414723	0.051505	0.808412
F175	F	0.316627	0.072575	0.259927
F176	F	0.816627	0.572575	0.759927
H177	H	0.818842	0.133715	0.274114
H178	H	1.318842	0.633715	0.774114
H179	H	0.914109	-0.546862	0.288746
H180	H	1.414109	-0.046862	0.788746
F181	F	0.538304	0.062719	-0.121886
F182	F	1.038304	0.562719	0.378114
F183	F	0.521672	0.072796	0.200712
F184	F	1.021672	0.572796	0.700712
H185	H	0.810451	0.138830	0.437807
H186	H	1.310451	0.638830	0.937807
H187	H	0.938270	-0.469081	-0.150929
H188	H	1.438270	0.030919	0.349071
F189	F	0.931520	-0.692890	-0.092630
F190	F	1.431520	-0.192890	0.407370
H191	H	0.696228	0.065330	-0.090494
H192	H	1.196228	0.565330	0.409506
H193	H	0.918114	-0.304139	0.289071
H194	H	1.418114	0.195861	0.789071
F195	F	0.941902	-0.312136	-0.170257
F196	F	1.441902	0.187864	0.329743
F197	F	0.826658	0.129004	0.859659
F198	F	1.326658	0.629004	1.359659
F199	F	0.690840	0.074922	0.213327
F200	F	1.190840	0.574922	0.713327
F201	F	0.836202	0.123177	0.673416
F202	F	1.336202	0.623177	1.173416
F203	F	1.058519	-0.012083	0.689962
F204	F	1.558519	0.487917	1.189962
F205	F	1.028278	0.006294	0.278392
F206	F	1.528278	0.506294	0.778392
H207	H	0.436177	0.070968	0.170790
H208	H	0.936177	0.570968	0.670790
H209	H	0.997659	0.024927	0.558891
H210	H	1.497659	0.524927	1.058891
H211	H	0.158705	0.069969	0.228540
H212	H	0.658705	0.569969	0.728540
H213	H	0.857262	0.110362	0.579164
H214	H	1.357262	0.610362	1.079164
H215	H	1.005835	0.019953	0.452351
H216	H	1.505835	0.519953	0.952351
H217	H	1.036086	0.001578	0.863937
H218	H	1.536086	0.501578	1.363937
F219	F	0.940005	-0.181841	-0.091954
F220	F	1.440005	0.318159	0.408046
H221	H	0.418762	0.064320	-0.032744
H222	H	0.918762	0.564320	0.467256
H223	H	0.939265	-0.409287	-0.150849
H224	H	1.439265	0.090713	0.349151
F225	F	0.941754	-0.077776	-0.091805
F226	F	1.441754	0.422224	0.408195
H227	H	0.928884	-0.790059	-0.073213
H228	H	1.428884	-0.290059	0.426787
F229	F	0.914897	-0.682860	0.229983
F230	F	1.414897	-0.182860	0.729983
F231	F	0.913191	-0.786926	0.229843
F232	F	1.413191	-0.286926	0.729843
H233	H	0.916612	-0.395601	0.288957
H234	H	1.416612	0.104399	0.788957
H235	H	0.924522	-0.166125	0.211133
H236	H	1.424522	0.333875	0.711133
H237	H	0.926045	-0.074649	0.211247
H238	H	1.426045	0.425351	0.711247
H239	H	0.936746	-0.560551	-0.151040
H240	H	1.436746	-0.060551	0.348960
