data_functionalizedCrystal
_audit_creation_method	'MofGen! by Chris Wilmer'
_symmetry_space_group_name_H-M	'P1'
_symmetry_Int_Tables_number	1
_symmetry_cell_setting	triclinic
loop_
_symmetry_equiv_pos_as_xyz
  x,y,z
_cell_length_a	12.759401
_cell_length_b	18.050589
_cell_length_c	12.759393
_cell_angle_alpha	89.969379
_cell_angle_beta	89.981504
_cell_angle_gamma	90.028382
loop_
_atom_site_label
_atom_site_type_symbol
_atom_site_fract_x
_atom_site_fract_y
_atom_site_fract_z
Zn1	Zn	1.606157	-0.295612	-0.593988
Zn2	Zn	2.106157	0.204388	-0.093988
Zn3	Zn	1.606010	-0.419823	-0.418311
Zn4	Zn	2.106010	0.080177	0.081689
Zn5	Zn	1.430459	-0.295651	-0.418328
Zn6	Zn	1.930459	0.204349	0.081672
Zn7	Zn	1.430406	-0.419766	-0.593953
Zn8	Zn	1.930406	0.080234	-0.093953
O9	O	1.518258	-0.357713	-0.506145
O10	O	2.018258	0.142287	-0.006145
O11	O	1.753158	-0.312097	-0.570692
O12	O	2.253158	0.187903	-0.070692
O13	O	1.582683	-0.403391	-0.271292
O14	O	2.082683	0.096609	0.228708
O15	O	1.453849	-0.191722	-0.441651
O16	O	1.953849	0.308278	0.058349
O17	O	1.753050	-0.403354	-0.441623
O18	O	2.253050	0.096646	0.058377
O19	O	1.582934	-0.191693	-0.570708
O20	O	2.082934	0.308307	-0.070708
O21	O	1.453706	-0.312163	-0.271304
O22	O	1.953706	0.187837	0.228696
O23	O	1.283431	-0.312108	-0.441617
O24	O	1.783431	0.187892	0.058383
O25	O	1.453759	-0.403256	-0.740979
O26	O	1.953759	0.096744	-0.240979
O27	O	1.283392	-0.403294	-0.570648
O28	O	1.783392	0.096706	-0.070648
O29	O	1.582882	-0.312041	-0.741005
O30	O	2.082882	0.187959	-0.241005
O31	O	1.582632	-0.523740	-0.441589
O32	O	2.082632	-0.023740	0.058411
O33	O	1.453616	-0.523698	-0.570632
O34	O	1.953616	-0.023698	-0.070632
C35	C	1.245290	-0.357699	-0.506131
C36	C	1.745290	0.142301	-0.006131
C37	C	1.128514	-0.357711	-0.506149
C38	C	1.628514	0.142289	-0.006149
C39	C	1.518131	-0.550665	-0.506127
C40	C	2.018131	-0.050665	-0.006127
C41	C	1.518173	-0.633211	-0.506155
C42	C	2.018173	-0.133211	-0.006155
C43	C	1.073659	-0.405268	-0.573225
C44	C	1.573659	0.094732	-0.073225
C45	C	0.963935	-0.405277	-0.573236
C46	C	1.463935	0.094723	-0.073236
C47	C	0.963930	-0.310171	-0.439088
C48	C	1.463930	0.189829	0.060912
C49	C	1.073652	-0.310159	-0.439083
C50	C	1.573652	0.189841	0.060917
C51	C	1.128521	-0.452820	-0.640292
C52	C	1.628521	0.047180	-0.140292
C53	C	1.073666	-0.500382	-0.707372
C54	C	1.573666	-0.000382	-0.207372
C55	C	0.963942	-0.500391	-0.707383
C56	C	1.463942	-0.000391	-0.207383
C57	C	0.909072	-0.452839	-0.640314
C58	C	1.409072	0.047161	-0.140314
C59	C	1.448083	-0.832666	-0.576304
C60	C	1.948083	-0.332666	-0.076304
C61	C	1.422469	-0.882114	-0.480436
C62	C	1.922469	-0.382114	0.019564
C63	C	1.518276	-0.784341	-0.506169
C64	C	2.018276	-0.284341	-0.006169
C65	C	1.543942	-0.881974	-0.602048
C66	C	2.043942	-0.381974	-0.102048
C67	C	1.518374	-0.930326	-0.506191
C68	C	2.018374	-0.430326	-0.006191
C69	C	1.492611	-0.832703	-0.410250
C70	C	1.992611	-0.332703	0.089750
C71	C	1.614129	-0.832558	-0.531927
C72	C	2.114129	-0.332558	-0.031927
C73	C	1.588551	-0.881985	-0.435992
C74	C	2.088551	-0.381985	0.064008
C75	C	1.518217	-0.700243	-0.506158
C76	C	2.018217	-0.200243	-0.006158
C77	C	1.518433	-1.014423	-0.506191
C78	C	2.018433	-0.514423	-0.006191
C79	C	1.792291	-0.357727	-0.506160
C80	C	2.292291	0.142273	-0.006160
C81	C	1.909068	-0.357733	-0.506166
C82	C	2.409068	0.142267	-0.006166
C83	C	1.518331	-0.357638	-0.780178
C84	C	2.018331	0.142362	-0.280178
C85	C	1.518363	-0.357606	-0.896955
C86	C	2.018363	0.142394	-0.396955
C87	C	1.518414	-0.164007	-0.506185
C88	C	2.018414	0.335993	-0.006185
C89	C	1.518480	-0.081462	-0.506203
C90	C	2.018480	0.418538	-0.006203
C91	C	1.585606	-0.310106	-0.951832
C92	C	2.085606	0.189894	-0.451832
C93	C	1.585631	-0.310079	-1.061557
C94	C	2.085631	0.189921	-0.561557
C95	C	1.451166	-0.405059	-1.061516
C96	C	1.951166	0.094941	-0.561516
C97	C	1.451136	-0.405081	-0.951794
C98	C	1.951136	0.094919	-0.451794
C99	C	1.652833	-0.262631	-0.896993
C100	C	2.152833	0.237369	-0.396993
C101	C	1.720083	-0.215128	-0.951871
C102	C	2.220083	0.284872	-0.451871
C103	C	1.720108	-0.215101	-1.061595
C104	C	2.220108	0.284899	-0.561595
C105	C	1.652883	-0.262577	-1.116442
C106	C	2.152883	0.237423	-0.616442
C107	C	1.518245	-0.357734	-0.233178
C108	C	2.018245	0.142266	0.266822
C109	C	1.518417	-0.357557	-0.116401
C110	C	2.018417	0.142443	0.383599
H111	H	1.217863	-0.452820	-0.640288
H112	H	1.717863	0.047180	-0.140288
Br113	Br	1.349008	-0.796569	-0.675024
Br114	Br	1.849008	-0.296569	-0.175024
Br115	Br	1.811291	-0.150684	-0.877440
Br116	Br	2.311291	0.349316	-0.377440
H117	H	0.919247	-0.271458	-0.384483
H118	H	1.419247	0.228542	0.115517
Br119	Br	1.687563	-0.917851	-0.337045
Br120	Br	2.187563	-0.417851	0.162955
H121	H	1.695124	-0.810777	-0.553739
H122	H	2.195124	-0.310777	-0.053739
Br123	Br	1.580057	-0.918054	-0.737175
Br124	Br	2.080057	-0.418054	-0.237175
Br125	Br	1.148105	-0.245615	-0.348053
Br126	Br	1.648105	0.254385	0.151947
Br127	Br	1.811375	-0.150635	-1.136070
Br128	Br	2.311375	0.349365	-0.636070
Br129	Br	1.287434	-0.918391	-0.444123
Br130	Br	1.787434	-0.418391	0.055877
H131	H	1.470848	-0.811149	-0.329152
H132	H	1.970848	-0.311149	0.170848
H133	H	1.652822	-0.262649	-0.807650
H134	H	2.152822	0.237351	-0.307650
H135	H	1.652896	-0.262543	-1.205786
H136	H	2.152896	0.237457	-0.705786
Br137	Br	1.148127	-0.564906	-0.798397
Br138	Br	1.648127	-0.064906	-0.298397
Br139	Br	0.889498	-0.564928	-0.798429
Br140	Br	1.389498	-0.064928	-0.298429
Br141	Br	1.359940	-0.469488	-1.135951
Br142	Br	1.859940	0.030512	-0.635951
H143	H	1.396364	-0.443749	-0.907112
H144	H	1.896364	0.056251	-0.407112
Br145	Br	0.760160	-0.452845	-0.640343
Br146	Br	1.260160	0.047155	-0.140343
