data_functionalizedCrystal
_audit_creation_method	'MofGen! by Chris Wilmer'
_symmetry_space_group_name_H-M	'P1'
_symmetry_Int_Tables_number	1
_symmetry_cell_setting	triclinic
loop_
_symmetry_equiv_pos_as_xyz
  x,y,z
_cell_length_a	27.732048
_cell_length_b	15.021413
_cell_length_c	15.944493
_cell_angle_alpha	90.009890
_cell_angle_beta	83.058849
_cell_angle_gamma	89.998251
loop_
_atom_site_label
_atom_site_type_symbol
_atom_site_fract_x
_atom_site_fract_y
_atom_site_fract_z
O1	O	0.641351	-0.073907	0.099936
O2	O	0.500621	-0.073932	0.115133
O3	O	0.574844	-0.073926	-0.014794
O4	O	0.567128	-0.073913	0.229863
O5	O	0.574832	0.074138	-0.014775
O6	O	0.500609	0.074132	0.115152
O7	O	0.641339	0.074157	0.099955
Zn8	Zn	0.570972	0.097653	0.107556
Zn9	Zn	0.570988	-0.097428	0.107532
O10	O	0.567117	0.074152	0.229882
C11	C	0.482607	0.000097	0.114824
C12	C	0.428948	0.000086	0.113863
C13	C	0.574522	0.000102	-0.046075
C14	C	0.573577	0.000091	-0.139311
N15	N	0.570965	0.230791	0.107572
C16	C	0.090431	0.000129	0.184594
C17	C	-0.111244	0.000137	0.181030
O18	O	-0.142227	0.000179	0.245709
N19	N	-0.130692	0.000131	0.103989
C20	C	-0.099718	0.000129	0.027833
O21	O	-0.120887	0.000133	-0.037777
C22	C	0.101956	0.000128	0.031398
C23	C	0.121401	0.000124	0.108444
C24	C	0.109877	0.000127	0.261634
C25	C	0.160292	0.000120	0.262524
C26	C	0.191262	0.000115	0.186374
C27	C	0.171817	0.000118	0.109334
C28	C	0.132929	0.000132	-0.044757
C29	C	0.183350	0.000134	-0.043859
C30	C	0.202795	0.000131	0.033187
C31	C	0.253202	0.000106	0.034074
N32	N	0.272650	0.000112	0.111116
C33	C	0.241680	0.000117	0.187266
C34	C	-0.205600	0.000128	0.025967
C35	C	-0.256018	0.000127	0.025075
C36	C	-0.267540	0.000136	0.178273
C37	C	-0.217121	0.000131	0.179163
C38	C	-0.186152	0.000134	0.103008
C39	C	0.347558	0.000101	0.189129
C40	C	0.397978	0.000091	0.190013
C41	C	0.409496	0.000086	0.036816
C42	C	0.359080	0.000092	0.035932
C43	C	0.328111	0.000103	0.112096
O44	O	0.284214	0.000074	-0.030569
O45	O	0.262859	0.000132	0.252866
C46	C	0.040015	0.000136	0.183704
C47	C	0.020570	0.000138	0.106664
C48	C	0.051540	0.000133	0.030514
C49	C	-0.029849	0.000137	0.105772
C50	C	-0.060819	0.000141	0.181922
C51	C	-0.041370	0.000147	0.258964
C52	C	0.009045	0.000140	0.259854
C53	C	0.032091	0.000127	-0.046528
C54	C	-0.018325	0.000133	-0.047412
C55	C	-0.049295	0.000138	0.028738
C56	C	0.659353	0.000127	0.100264
C57	C	0.713012	0.000131	0.101225
N58	N	0.570999	-0.230565	0.107509
C59	C	0.536640	0.470471	0.167623
C60	C	0.580315	0.529815	0.183359
C61	C	0.570978	0.412398	0.107551
C62	C	0.527314	0.529796	0.091834
C63	C	0.570986	0.587822	0.107533
C64	C	0.614675	0.470435	0.123325
C65	C	0.561645	0.470411	0.031767
C66	C	0.605352	0.529727	0.047471
C67	C	0.570972	0.311340	0.107564
C68	C	0.570996	0.688877	0.107519
C69	C	0.617266	0.000115	-0.375643
C70	C	0.593712	-0.072892	-0.425912
C71	C	0.571825	0.000101	-0.310010
C72	C	0.593690	0.073088	-0.425869
C73	C	0.570137	0.000115	-0.474897
C74	C	0.548283	-0.072966	-0.359051
C75	C	0.548268	0.073079	-0.359005
C76	C	0.524681	0.000054	-0.409241
C77	C	0.572799	0.000092	-0.215022
C78	C	0.569159	0.000118	-0.569881
C79	C	0.567438	0.000121	0.261163
C80	C	0.568383	0.000127	0.354400
H81	H	0.322348	0.000113	0.251149
H82	H	0.612885	0.134806	-0.455044
N83	N	0.113083	0.000131	-0.123467
N84	N	0.140749	0.000132	-0.191445
H85	H	0.126734	0.000132	-0.247039
N86	N	0.590217	0.562555	0.263750
N87	N	0.559984	0.611245	0.306407
H88	H	0.566973	0.634365	0.363186
N89	N	0.666364	0.000048	-0.356660
N90	N	0.681523	0.062755	-0.315444
H91	H	0.716198	0.062706	-0.302036
N92	N	0.480994	0.562523	0.075147
N93	N	0.473699	0.644495	0.071850
H94	H	0.440986	0.667609	0.060070
N95	N	-0.275886	0.000133	-0.053619
N96	N	-0.320901	0.000139	-0.054414
H97	H	-0.334932	0.000150	-0.109994
N98	N	0.661012	0.437855	0.140082
N99	N	0.668481	0.355904	0.142821
H100	H	0.701205	0.332891	0.154656
N101	N	-0.173969	0.000141	-0.051831
N102	N	-0.175748	0.062550	-0.103210
H103	H	-0.153411	0.062558	-0.158155
N104	N	0.417832	0.000082	0.268725
N105	N	0.390171	0.000087	0.336709
H106	H	0.404190	0.000080	0.392298
N107	N	0.441138	0.000107	-0.040964
N108	N	0.439367	0.062529	-0.092332
H109	H	0.461716	0.062552	-0.147265
N110	N	0.641816	0.562192	-0.016270
N111	N	0.630061	0.609765	-0.074826
H112	H	0.655814	0.632699	-0.119840
H113	H	0.612907	-0.134608	-0.455116
H114	H	0.529109	-0.134754	-0.329988
N115	N	0.500255	0.437807	0.231399
N116	N	0.494185	0.355845	0.241230
H117	H	0.468490	0.332773	0.286273
H118	H	0.485509	0.000007	-0.424194
N119	N	0.214977	0.000146	-0.121660
N120	N	0.197604	0.000153	-0.190439
H121	H	0.219939	0.000162	-0.245387
N122	N	0.339222	0.000081	-0.042774
N123	N	0.366882	0.000071	-0.110759
H124	H	0.352861	0.000071	-0.166348
H125	H	0.176120	0.000117	0.325263
H126	H	-0.292765	0.000140	0.240277
N127	N	0.551729	0.437643	-0.048600
N128	N	0.579156	0.457689	-0.113917
H129	H	0.572149	0.434545	-0.170677
H130	H	0.024872	0.000139	0.322593
H131	H	0.529089	0.134797	-0.329786
H132	H	0.084665	0.000134	0.323648
H133	H	-0.201293	0.000133	0.241901
H134	H	-0.066595	0.000147	0.320968
H135	H	-0.034152	0.000129	-0.110157
H136	H	0.057303	0.000126	-0.108540
