data_functionalizedCrystal
_audit_creation_method	'MofGen! by Chris Wilmer'
_symmetry_space_group_name_H-M	'P1'
_symmetry_Int_Tables_number	1
_symmetry_cell_setting	triclinic
loop_
_symmetry_equiv_pos_as_xyz
  x,y,z
_cell_length_a	11.792241
_cell_length_b	9.065218
_cell_length_c	7.540329
_cell_angle_alpha	90.001757
_cell_angle_beta	90.001242
_cell_angle_gamma	95.395350
loop_
_atom_site_label
_atom_site_type_symbol
_atom_site_fract_x
_atom_site_fract_y
_atom_site_fract_z
O1	O	1.508028	-0.202222	-0.147302
O2	O	1.841361	0.131112	0.186031
O3	O	2.174695	0.464445	0.519364
O4	O	1.177802	-0.223063	-0.147343
O5	O	1.511136	0.110270	0.185990
O6	O	1.844469	0.443604	0.519324
O7	O	1.349741	0.002064	-0.147318
O8	O	1.683074	0.335397	0.186015
O9	O	2.016408	0.668731	0.519348
O10	O	1.336089	-0.427349	-0.147327
O11	O	1.669423	-0.094015	0.186006
O12	O	2.002756	0.239318	0.519340
O13	O	1.349730	0.002067	0.147647
O14	O	1.683064	0.335400	0.480980
O15	O	2.016397	0.668734	0.814313
O16	O	1.177792	-0.223060	0.147622
O17	O	1.511125	0.110273	0.480955
O18	O	1.844459	0.443607	0.814289
O19	O	1.508018	-0.202219	0.147663
O20	O	1.841351	0.131115	0.480996
O21	O	2.174684	0.464448	0.814329
Cu22	Cu	1.342904	-0.212639	0.174575
Cu23	Cu	1.676237	0.120694	0.507908
Cu24	Cu	2.009571	0.454027	0.841242
Cu25	Cu	1.342916	-0.212643	-0.174255
Cu26	Cu	1.676249	0.120691	0.159078
Cu27	Cu	2.009583	0.454024	0.492411
O28	O	1.336079	-0.427346	0.147638
O29	O	1.669412	-0.094012	0.480971
O30	O	2.002746	0.239321	0.814305
C31	C	1.135499	-0.221752	0.000134
C32	C	1.468832	0.111581	0.333468
C33	C	1.802166	0.444914	0.666801
C34	C	1.009464	-0.217834	0.000119
C35	C	1.342797	0.115499	0.333452
C36	C	1.676130	0.448833	0.666785
C37	C	1.348424	0.057040	0.000161
C38	C	1.681757	0.390373	0.333495
C39	C	2.015090	0.723707	0.666828
C40	C	1.344501	0.220846	0.000152
C41	C	1.677834	0.554179	0.333486
C42	C	2.011167	0.887513	0.666819
N43	N	1.342903	-0.212636	0.419923
N44	N	1.676237	0.120697	0.753257
N45	N	2.009570	0.454031	1.086590
C46	C	0.778711	-0.210629	0.000170
C47	C	1.112045	0.122705	0.333503
C48	C	1.445378	0.456038	0.666836
C49	C	0.907119	-0.214632	0.000142
C50	C	1.240452	0.118701	0.333475
C51	C	1.573785	0.452035	0.666808
C52	C	1.550321	-0.203529	0.000181
C53	C	1.883654	0.129804	0.333515
C54	C	2.216988	0.463137	0.666848
C55	C	1.676356	-0.207448	0.000185
C56	C	2.009690	0.125886	0.333519
C57	C	2.343023	0.459219	0.666852
C58	C	1.337396	-0.482322	0.000154
C59	C	1.670730	-0.148988	0.333488
C60	C	2.004063	0.184345	0.666821
C61	C	1.341319	-0.646128	0.000152
C62	C	1.674652	-0.312794	0.333485
C63	C	2.007986	0.020539	0.666818
N64	N	1.342925	-0.212634	-0.419604
N65	N	1.676259	0.120699	-0.086270
N66	N	2.009592	0.454033	0.247063
