data_functionalizedCrystal
_audit_creation_method	'MofGen! by Chris Wilmer'
_symmetry_space_group_name_H-M	'P1'
_symmetry_Int_Tables_number	1
_symmetry_cell_setting	triclinic
loop_
_symmetry_equiv_pos_as_xyz
  x,y,z
_cell_length_a	14.519731
_cell_length_b	14.044190
_cell_length_c	13.101039
_cell_angle_alpha	93.663707
_cell_angle_beta	86.635759
_cell_angle_gamma	88.440315
loop_
_atom_site_label
_atom_site_type_symbol
_atom_site_fract_x
_atom_site_fract_y
_atom_site_fract_z
O1	O	1.238534	0.119144	-0.085228
O2	O	1.738534	0.619144	0.414772
O3	O	0.971239	0.133757	-0.085231
O4	O	1.471239	0.633757	0.414769
O5	O	1.100870	-0.011540	-0.085210
O6	O	1.600870	0.488460	0.414790
O7	O	1.108903	0.264441	-0.085250
O8	O	1.608903	0.764441	0.414750
O9	O	1.091571	-0.001098	0.085219
O10	O	1.591571	0.498902	0.585219
O11	O	0.961940	0.144200	0.085197
O12	O	1.461940	0.644200	0.585197
O13	O	1.229235	0.129586	0.085200
O14	O	1.729235	0.629586	0.585200
Zn15	Zn	1.094111	0.138551	0.112258
Zn16	Zn	1.594111	0.638551	0.612258
Zn17	Zn	1.106363	0.124793	-0.112289
Zn18	Zn	1.606363	0.624793	0.387711
O19	O	1.099604	0.274884	0.085178
O20	O	1.599604	0.774884	0.585178
C21	C	0.932175	0.138294	-0.000017
C22	C	1.432175	0.638294	0.499983
C23	C	0.829629	0.136242	-0.000017
C24	C	1.329629	0.636242	0.499983
C25	C	0.746350	0.134574	-0.000021
C26	C	1.246350	0.634574	0.499979
C27	C	0.641874	0.132491	-0.000021
C28	C	1.141874	0.632491	0.499979
C29	C	0.558601	0.130838	-0.000021
C30	C	1.058601	0.630838	0.499979
C31	C	0.454118	0.128754	-0.000023
C32	C	0.954118	0.628754	0.499977
C33	C	1.092707	-0.041639	0.000007
C34	C	1.592707	0.458361	0.500007
C35	C	1.082227	-0.146883	0.000016
C36	C	1.582227	0.353117	0.500016
C37	C	1.137394	-0.397075	-0.000023
C38	C	1.637394	0.102925	0.499977
C39	C	1.063084	-0.339577	-0.000017
C40	C	1.563084	0.160423	0.499983
C41	C	1.073738	-0.232353	0.000001
C42	C	1.573738	0.267647	0.500001
C43	C	1.126742	-0.504309	-0.000042
C44	C	1.626742	-0.004309	0.499958
C45	C	1.268299	0.125050	-0.000016
C46	C	1.768299	0.625050	0.499984
C47	C	1.370845	0.127101	-0.000023
C48	C	1.870845	0.627101	0.499977
C49	C	1.107767	0.304983	-0.000041
C50	C	1.607767	0.804983	0.499959
C51	C	1.118248	0.410226	-0.000057
C52	C	1.618248	0.910226	0.499943
N53	N	1.085755	0.147940	0.265505
N54	N	1.585755	0.647940	0.765505
N55	N	1.114725	0.115396	-0.265536
N56	N	1.614725	0.615396	0.234464
C57	C	1.074388	0.160722	0.474545
C58	C	1.574388	0.660722	0.974545
C59	C	1.126089	0.102617	0.525430
C60	C	1.626089	0.602617	1.025430
C61	C	1.119765	0.109729	0.641747
C62	C	1.619765	0.609729	1.141747
C63	C	1.080712	0.153611	0.358218
C64	C	1.580712	0.653611	0.858218
H65	H	0.991464	-0.370880	-0.000024
H66	H	1.491464	0.129120	0.499976
H67	H	1.209008	-0.365773	-0.000012
H68	H	1.709008	0.134227	0.499988
H69	H	1.175102	0.047530	0.481636
H70	H	1.675102	0.547530	0.981636
H71	H	1.025380	0.215807	0.518334
H72	H	1.525380	0.715807	1.018334
