data_functionalizedCrystal
_audit_creation_method	'MofGen! by Chris Wilmer'
_symmetry_space_group_name_H-M	'P1'
_symmetry_Int_Tables_number	1
_symmetry_cell_setting	triclinic
loop_
_symmetry_equiv_pos_as_xyz
  x,y,z
_cell_length_a	27.435584
_cell_length_b	27.434948
_cell_length_c	27.431174
_cell_angle_alpha	60.005483
_cell_angle_beta	60.011353
_cell_angle_gamma	59.993028
loop_
_atom_site_label
_atom_site_type_symbol
_atom_site_fract_x
_atom_site_fract_y
_atom_site_fract_z
O1	O	0.067437	-0.712144	0.595551
O2	O	0.567437	-0.212144	1.095551
O3	O	0.025356	-0.554453	0.479848
O4	O	0.525356	-0.054453	0.979848
O5	O	0.125206	-0.654236	0.479781
O6	O	0.625206	-0.154236	0.979781
O7	O	-0.032412	-0.612361	0.595618
O8	O	0.467588	-0.112361	1.095618
O9	O	0.158328	-0.621117	0.512835
O10	O	0.658328	-0.121117	1.012835
O11	O	0.058479	-0.521333	0.512902
O12	O	0.558479	-0.021333	1.012902
O13	O	0.100560	-0.679025	0.628605
O14	O	0.600560	-0.179025	1.128605
Zn15	Zn	0.084778	-0.594921	0.576001
Zn16	Zn	0.584778	-0.094921	1.076001
Zn17	Zn	0.041138	-0.638557	0.532452
Zn18	Zn	0.541138	-0.138557	1.032452
O19	O	0.000710	-0.579241	0.628672
O20	O	0.500710	-0.079241	1.128672
N21	N	0.114563	-0.565144	0.605726
N22	N	0.614563	-0.065144	1.105726
N23	N	0.011358	-0.668338	0.502727
N24	N	0.511358	-0.168338	1.002727
C25	C	0.156385	-0.523520	0.904506
C26	C	0.656385	-0.023520	1.404506
C27	C	0.413419	-0.523497	0.647322
C28	C	0.913419	-0.023497	1.147322
C29	C	0.156253	-0.523488	0.647384
C30	C	0.656253	-0.023488	1.147384
C31	C	0.156238	-0.266354	0.647407
C32	C	0.656238	0.233646	1.147407
C33	C	0.197637	-0.390463	0.688753
C34	C	0.697637	0.109537	1.188753
C35	C	0.197646	-0.482126	0.688741
C36	C	0.697646	0.017874	1.188741
C37	C	0.220575	-0.459215	0.711654
C38	C	0.720575	0.040785	1.211654
C39	C	0.320555	-0.441991	0.659023
C40	C	0.820555	0.058009	1.159023
C41	C	0.383051	-0.462825	0.638179
C42	C	0.883051	0.037175	1.138179
C43	C	0.383069	-0.563942	0.676737
C44	C	0.883069	-0.063942	1.176737
C45	C	0.320575	-0.543107	0.697583
C46	C	0.820575	-0.043107	1.197583
C47	C	0.212704	-0.359206	0.627313
C48	C	0.712704	0.140794	1.127313
C49	C	0.191849	-0.296705	0.606496
C50	C	0.691849	0.203295	1.106496
C51	C	0.140866	-0.296722	0.708562
C52	C	0.640866	0.203278	1.208562
C53	C	0.161721	-0.359223	0.729379
C54	C	0.661721	0.140777	1.229379
C55	C	0.136200	-0.467030	0.703858
C56	C	0.636200	0.032970	1.203858
C57	C	0.115361	-0.487857	0.683021
C58	C	0.615361	0.012143	1.183021
C59	C	0.217408	-0.538877	0.631968
C60	C	0.717408	-0.038877	1.131968
C61	C	0.238249	-0.518050	0.652796
C62	C	0.738249	-0.018050	1.152796
C63	C	0.136259	-0.467047	0.811668
C64	C	0.636259	0.032953	1.311668
C65	C	0.115461	-0.487892	0.874167
C66	C	0.615461	0.012108	1.374167
C67	C	0.217537	-0.538923	0.874131
C68	C	0.717537	-0.038923	1.374131
C69	C	0.238333	-0.518080	0.811631
C70	C	0.738333	-0.018080	1.311631
C71	C	0.197693	-0.482140	0.780401
C72	C	0.697693	0.017860	1.280401
C73	C	0.289320	-0.482131	0.688723
C74	C	0.789320	0.017869	1.188723
C75	C	0.132699	-0.546027	0.973247
C76	C	0.632699	-0.046027	1.473247
C77	C	0.482158	-0.545613	0.624075
C78	C	0.982158	-0.045613	1.124075
C79	C	0.132521	-0.546006	0.624886
C80	C	0.632521	-0.046006	1.124886
C81	C	0.132917	-0.197607	0.625310
C82	C	0.632917	0.302393	1.125310
C83	C	-0.098217	-0.686189	0.484419
C84	C	0.401783	-0.186189	0.984419
C85	C	-0.006438	-0.686322	0.392891
C86	C	0.493562	-0.186322	0.892891
C87	C	-0.006621	-0.777944	0.484592
C88	C	0.493379	-0.277944	0.984592
C89	C	-0.006606	-0.686315	0.484649
C90	C	0.493394	-0.186315	0.984649
C91	C	-0.029470	-0.709193	0.461638
C92	C	0.470530	-0.209193	0.961638
N93	N	0.538410	-0.565162	0.605628
N94	N	1.038410	-0.065162	1.105628
O95	O	0.742647	-0.575135	0.458625
O96	O	1.242647	-0.075135	0.958625
O97	O	0.742821	-0.691181	0.616169
O98	O	1.242821	-0.191181	1.116169
O99	O	0.742757	-0.690917	0.516248
O100	O	1.242757	-0.190917	1.016248
O101	O	0.742711	-0.575399	0.558546
O102	O	1.242711	-0.075399	1.058546
O103	O	0.643472	-0.657878	0.549405
O104	O	1.143472	-0.157878	1.049405
O105	O	0.643536	-0.658142	0.649326
O106	O	1.143536	-0.158142	1.149326
O107	O	0.643362	-0.542096	0.491782
O108	O	1.143362	-0.042096	0.991782
Zn109	Zn	0.627685	-0.594873	0.575818
Zn110	Zn	1.127685	-0.094873	1.075818
Zn111	Zn	0.758498	-0.638404	0.532133
Zn112	Zn	1.258498	-0.138404	1.032133
O113	O	0.643426	-0.542360	0.591702
O114	O	1.143426	-0.042360	1.091702
N115	N	0.847774	-0.668115	0.502317
N116	N	1.347774	-0.168115	1.002317
N117	N	0.114542	-0.141354	0.605766
N118	N	0.614542	0.358646	1.105766
O119	O	-0.032397	0.062987	0.595660
O120	O	0.467603	0.562987	1.095660
O121	O	0.125155	0.062987	0.479633
O122	O	0.625155	0.562987	0.979633
O123	O	0.025219	0.062974	0.479910
O124	O	0.525219	0.562974	0.979910
O125	O	0.067539	0.063001	0.595383
O126	O	0.567539	0.563001	1.095383
O127	O	0.058343	-0.036320	0.513009
O128	O	0.558343	0.463680	1.013009
O129	O	0.158279	-0.036306	0.512732
O130	O	0.658279	0.463694	1.012732
O131	O	0.000728	-0.036306	0.628759
O132	O	0.500728	0.463694	1.128759
Zn133	Zn	0.084763	-0.052071	0.576000
Zn134	Zn	0.584763	0.447929	1.076000
Zn135	Zn	0.041120	0.078752	0.532392
Zn136	Zn	0.541120	0.578752	1.032392
O137	O	0.100664	-0.036292	0.628482
O138	O	0.600664	0.463708	1.128482
N139	N	0.011333	0.168036	0.502628
N140	N	0.511333	0.668036	1.002628
N141	N	0.114782	-0.565197	1.029501
N142	N	0.614782	-0.065197	1.529501
O143	O	0.104681	-0.712124	1.233827
O144	O	0.604681	-0.212124	1.733827
O145	O	-0.011334	-0.554523	1.233839
O146	O	0.488666	-0.054523	1.733839
O147	O	-0.011066	-0.654443	1.233797
O148	O	0.488934	-0.154443	1.733797
O149	O	0.104414	-0.612204	1.233869
O150	O	0.604414	-0.112204	1.733869
O151	O	0.022028	-0.621336	1.134509
O152	O	0.522028	-0.121336	1.634509
O153	O	0.021760	-0.521417	1.134551
O154	O	0.521760	-0.021417	1.634551
O155	O	0.137775	-0.679018	1.134539
O156	O	0.637775	-0.179018	1.634539
Zn157	Zn	0.085022	-0.594961	1.118780
Zn158	Zn	0.585022	-0.094961	1.618780
Zn159	Zn	0.041420	-0.638580	1.249597
Zn160	Zn	0.541420	-0.138580	1.749597
O161	O	0.137508	-0.579098	1.134580
O162	O	0.637508	-0.079098	1.634580
N163	N	0.011658	-0.668350	1.338876
N164	N	0.511658	-0.168350	1.838876
C165	C	0.037974	-0.518023	0.480435
C166	C	0.537974	-0.018023	0.980435
C167	C	0.161625	-0.641592	0.480351
C168	C	0.661625	-0.141592	0.980351
C169	C	0.087941	-0.715455	0.628017
C170	C	0.587941	-0.215455	1.128017
C171	C	-0.035710	-0.591885	0.628101
C172	C	0.464290	-0.091885	1.128101
C173	C	0.693199	-0.690642	0.652596
C174	C	1.193199	-0.190642	1.152596
C175	C	0.693122	-0.690315	0.528855
C176	C	1.193122	-0.190315	1.028855
C177	C	0.692981	-0.542634	0.455356
C178	C	1.192981	-0.042634	0.955356
C179	C	0.693062	-0.542961	0.579095
C180	C	1.193062	-0.042961	1.079095
C181	C	0.161524	0.013463	0.480164
C182	C	0.661524	0.513463	0.980164
C183	C	0.037807	0.013324	0.480547
C184	C	0.537807	0.513324	0.980547
C185	C	-0.035683	0.013341	0.628188
C186	C	0.464317	0.513341	1.128188
C187	C	0.088076	0.013357	0.627845
C188	C	0.588076	0.513357	1.127845
C189	C	-0.010764	-0.518114	1.184196
C190	C	0.489236	-0.018114	1.684196
C191	C	-0.010426	-0.641846	1.184125
C192	C	0.489574	-0.141846	1.684125
C193	C	0.137205	-0.715426	1.184182
C194	C	0.637205	-0.215426	1.684182
C195	C	0.136875	-0.591687	1.184231
C196	C	0.636875	-0.091687	1.684231
H197	H	0.103160	-0.437777	0.786243
H198	H	0.603160	0.062223	1.286243
C199	C	-0.110587	-0.603135	1.184023
C200	C	0.389413	-0.103135	1.684023
C201	C	-0.059385	-0.654018	1.184041
C202	C	0.440615	-0.154018	1.684041
H203	H	-0.140812	-0.610652	1.183975
H204	H	0.359188	-0.110652	1.683975
H205	H	-0.101280	-0.570577	1.149419
H206	H	0.398720	-0.070577	1.649419
H207	H	-0.124398	-0.593674	1.218668
H208	H	0.375602	-0.093674	1.718668
H209	H	-0.045571	-0.663476	1.149394
H210	H	0.454429	-0.163476	1.649394
H211	H	-0.068692	-0.686585	1.218648
H212	H	0.431308	-0.186585	1.718648
H213	H	0.206895	-0.650521	0.443974
H214	H	0.706895	-0.150521	0.943974
C215	C	0.059426	-0.803009	0.693104
C216	C	0.559426	-0.303009	1.193104
C217	C	0.100066	-0.776604	0.677077
C218	C	0.600066	-0.276604	1.177077
H219	H	0.066910	-0.840758	0.723394
H220	H	0.566910	-0.340758	1.223394
H221	H	0.063896	-0.808184	0.659172
H222	H	0.563896	-0.308184	1.159172
H223	H	0.019911	-0.777996	0.707624
H224	H	0.519911	-0.277996	1.207624
H225	H	0.139581	-0.801616	0.662553
H226	H	0.639581	-0.301616	1.162553
H227	H	0.095601	-0.771432	0.711016
H228	H	0.595601	-0.271432	1.211016
H229	H	0.295144	-0.575796	0.721768
H230	H	0.795144	-0.075796	1.221768
H231	H	0.097136	0.013366	0.664120
H232	H	0.597136	0.513366	1.164120
H233	H	0.693053	-0.506675	0.588146
H234	H	1.193053	-0.006675	1.088146
C235	C	-0.133731	-0.521591	0.655861
C236	C	0.366269	-0.021591	1.155861
C237	C	-0.096821	-0.579839	0.677213
C238	C	0.403179	-0.079839	1.177213
H239	H	-0.171456	-0.514154	0.686183
H240	H	0.328544	-0.014154	1.186183
H241	H	-0.138942	-0.517108	0.621943
H242	H	0.361058	-0.017108	1.121943
H243	H	-0.115829	-0.494010	0.644986
H244	H	0.384171	0.005990	1.144986
H245	H	-0.114721	-0.607421	0.688084
H246	H	0.385279	-0.107421	1.188084
H247	H	-0.091612	-0.584328	0.711141
H248	H	0.408388	-0.084328	1.211141
C249	C	0.165126	-0.813488	1.184151
C250	C	0.665126	-0.313488	1.684151
C251	C	0.186379	-0.776528	1.184177
C252	C	0.686379	-0.276528	1.684177
H253	H	0.195484	-0.851210	1.184151
H254	H	0.695484	-0.351210	1.684151
H255	H	0.154285	-0.795619	1.149522
H256	H	0.654285	-0.295619	1.649522
H257	H	0.131201	-0.818708	1.218770
H258	H	0.631201	-0.318708	1.718770
H259	H	0.220302	-0.771305	1.149556
H260	H	0.720302	-0.271305	1.649556
H261	H	0.197229	-0.794401	1.218810
H262	H	0.697229	-0.294401	1.718810
H263	H	-0.047187	-0.472851	1.184199
H264	H	0.452813	0.027149	1.684199
C265	C	-0.096822	0.013351	0.728436
C266	C	0.403178	0.513351	1.228436
C267	C	-0.096763	0.013342	0.677366
C268	C	0.403237	0.513342	1.177366
H269	H	-0.134530	0.013348	0.758797
H270	H	0.365470	0.513348	1.258797
H271	H	-0.089544	0.047978	0.719035
H272	H	0.410456	0.547978	1.219035
H273	H	-0.066437	-0.021274	0.742117
H274	H	0.433563	0.478726	1.242117
H275	H	-0.127146	0.047969	0.663683
H276	H	0.372854	0.547969	1.163683
H277	H	-0.104048	-0.021288	0.686767
H278	H	0.395952	0.478712	1.186767
H279	H	0.692924	-0.506199	0.410112
H280	H	1.192924	-0.006199	0.910112
C281	C	0.693273	-0.718566	0.750647
C282	C	1.193273	-0.218566	1.250647
C283	C	0.693264	-0.739827	0.713675
C284	C	1.193264	-0.239827	1.213675
H285	H	0.693317	-0.748933	0.788353
H286	H	1.193317	-0.248933	1.288353
H287	H	0.658635	-0.684657	0.755895
H288	H	1.158635	-0.184657	1.255895
H289	H	0.727881	-0.707698	0.732770
H290	H	1.227881	-0.207698	1.232770
H291	H	0.658654	-0.750691	0.731551
H292	H	1.158654	-0.250691	1.231551
H293	H	0.727906	-0.773747	0.708430
H294	H	1.227906	-0.273747	1.208430
C295	C	0.164349	-0.521222	1.184258
C296	C	0.664349	-0.021222	1.684258
C297	C	0.185855	-0.579493	1.184248
C298	C	0.685855	-0.079493	1.684248
H299	H	0.194589	-0.513694	1.184265
H300	H	0.694589	-0.013694	1.684265
H301	H	0.130406	-0.516771	1.218879
H302	H	0.630406	-0.016771	1.718879
H303	H	0.153474	-0.493682	1.149631
H304	H	0.653474	0.006318	1.649631
H305	H	0.196725	-0.607033	1.218878
H306	H	0.696725	-0.107033	1.718878
H307	H	0.219809	-0.583949	1.149624
H308	H	0.719809	-0.083949	1.649624
H309	H	0.693140	-0.726605	0.519802
H310	H	1.193140	-0.226605	1.019802
H311	H	0.206679	0.013739	0.443646
H312	H	0.706679	0.513739	0.943646
C313	C	-0.032672	0.013276	0.453096
C314	C	0.467328	0.513276	0.953096
C315	C	0.025590	0.013291	0.431580
C316	C	0.525590	0.513291	0.931580
H317	H	-0.040209	0.013246	0.422869
H318	H	0.459791	0.513246	0.922869
H319	H	-0.060211	0.047909	0.463948
H320	H	0.439789	0.547909	0.963948
H321	H	-0.037103	-0.021343	0.487060
H322	H	0.462897	0.478657	0.987060
H323	H	0.030020	0.047912	0.397618
H324	H	0.530020	0.547912	0.897618
H325	H	0.053137	-0.021345	0.420720
H326	H	0.553137	0.478655	0.920720
H327	H	0.250633	-0.568176	0.899553
H328	H	0.750633	-0.068176	1.399553
C329	C	0.016652	-0.435338	0.867915
C330	C	0.516652	0.064662	1.367915
C331	C	0.047926	-0.471288	0.908529
C332	C	0.547926	0.028712	1.408529
H333	H	-0.025040	-0.425086	0.889131
H334	H	0.474960	0.074914	1.389131
H335	H	0.026883	-0.456539	0.843539
H336	H	0.526883	0.043461	1.343539
H337	H	0.026897	-0.400004	0.843538
H338	H	0.526897	0.099996	1.343538
H339	H	0.037685	-0.506624	0.932903
H340	H	0.537685	-0.006624	1.432903
H341	H	0.037691	-0.450087	0.932916
H342	H	0.537691	0.049913	1.432916
C343	C	-0.022144	-0.446206	0.417653
C344	C	0.477856	0.053794	0.917653
C345	C	0.025847	-0.456876	0.431374
C346	C	0.525847	0.043124	0.931374
H347	H	-0.029627	-0.408458	0.387361
H348	H	0.470373	0.091542	0.887361
H349	H	-0.056664	-0.446365	0.452366
H350	H	0.443336	0.053635	0.952366
H351	H	-0.012681	-0.476556	0.403916
H352	H	0.487319	0.023444	0.903916
H353	H	0.016383	-0.426528	0.445115
H354	H	0.516383	0.073472	0.945115
H355	H	0.060374	-0.456712	0.396654
H356	H	0.560374	0.043288	0.896654
H357	H	0.288361	-0.530376	0.786177
H358	H	0.788361	-0.030376	1.286177
H359	H	0.065328	-0.475552	0.695316
H360	H	0.565328	0.024448	1.195316
C361	C	0.320374	-0.587216	0.583599
C362	C	0.820374	-0.087216	1.083599
C363	C	0.262043	-0.578366	0.592460
C364	C	0.762043	-0.078366	1.092460
H365	H	0.347930	-0.611592	0.559204
H366	H	0.847930	-0.111592	1.059204
H367	H	0.326395	-0.606304	0.621050
H368	H	0.826395	-0.106304	1.121050
H369	H	0.326360	-0.549751	0.564522
H370	H	0.826360	-0.049751	1.064522
H371	H	0.256056	-0.615831	0.611541
H372	H	0.756056	-0.115831	1.111541
H373	H	0.256020	-0.559279	0.555002
H374	H	0.756020	-0.059279	1.055002
H375	H	0.103135	-0.437780	0.733124
H376	H	0.603135	0.062220	1.233124
H377	H	0.408519	-0.613593	0.683941
H378	H	0.908519	-0.113593	1.183941
C379	C	0.376755	-0.360781	0.602151
C380	C	0.876755	0.139219	1.102151
C381	C	0.417387	-0.418702	0.605528
C382	C	0.917387	0.081298	1.105528
H383	H	0.397955	-0.333542	0.581989
H384	H	0.897955	0.166458	1.081989
H385	H	0.352396	-0.359186	0.641301
H386	H	0.852396	0.140814	1.141301
H387	H	0.352364	-0.350330	0.580861
H388	H	0.852364	0.149670	1.080861
H389	H	0.441775	-0.429155	0.626821
H390	H	0.941775	0.070845	1.126821
H391	H	0.441756	-0.420299	0.566370
H392	H	0.941756	0.079701	1.066370
C393	C	0.320850	-0.482525	0.604946
C394	C	0.820850	0.017475	1.104946
C395	C	0.305789	-0.534631	0.636189
C396	C	0.805789	-0.034631	1.136189
H397	H	0.362545	-0.492761	0.594692
H398	H	0.862545	0.007239	1.094692
H399	H	0.299642	-0.458156	0.629337
H400	H	0.799642	0.041844	1.129337
H401	H	0.310583	-0.461324	0.569613
H402	H	0.810583	0.038676	1.069613
H403	H	0.316052	-0.555830	0.671523
H404	H	0.816052	-0.055830	1.171523
H405	H	0.327004	-0.559009	0.611797
H406	H	0.827004	-0.059009	1.111797
H407	H	0.295112	-0.392340	0.651807
H408	H	0.795112	0.107660	1.151807
H409	H	0.241946	-0.384640	0.594232
H410	H	0.741946	0.115360	1.094232
H411	H	0.204115	-0.271255	0.556464
H412	H	0.704115	0.228745	1.056464
H413	H	0.149444	-0.384673	0.779411
H414	H	0.649444	0.115327	1.279411
C415	C	0.092580	-0.303013	0.811543
C416	C	0.592580	0.196987	1.311543
C417	C	0.101391	-0.262379	0.753216
C418	C	0.601391	0.237621	1.253216
H419	H	0.068206	-0.281811	0.839110
H420	H	0.568206	0.218189	1.339110
H421	H	0.130047	-0.327385	0.817527
H422	H	0.630047	0.172615	1.317527
H423	H	0.073500	-0.327395	0.817550
H424	H	0.573500	0.172605	1.317550
H425	H	0.120475	-0.238000	0.747208
H426	H	0.620475	0.262000	1.247208
H427	H	0.063917	-0.237997	0.747230
H428	H	0.563917	0.262003	1.247230
