data_functionalizedCrystal
_audit_creation_method	'MofGen! by Chris Wilmer'
_symmetry_space_group_name_H-M	'P1'
_symmetry_Int_Tables_number	1
_symmetry_cell_setting	triclinic
loop_
_symmetry_equiv_pos_as_xyz
  x,y,z
_cell_length_a	16.109295
_cell_length_b	10.065875
_cell_length_c	16.109301
_cell_angle_alpha	81.214708
_cell_angle_beta	96.539666
_cell_angle_gamma	81.258551
loop_
_atom_site_label
_atom_site_type_symbol
_atom_site_fract_x
_atom_site_fract_y
_atom_site_fract_z
O1	O	-1.115293	0.113403	0.094630
O2	O	-0.615293	0.613403	0.594630
O3	O	-0.873233	0.113427	0.107932
O4	O	-0.373233	0.613427	0.607932
O5	O	-1.000911	0.113400	-0.019749
O6	O	-0.500911	0.613400	0.480251
O7	O	-0.987615	0.113430	0.222311
O8	O	-0.487615	0.613430	0.722311
O9	O	-0.976565	-0.113583	0.004696
O10	O	-0.476565	0.386417	0.504696
O11	O	-0.848886	-0.113557	0.132376
O12	O	-0.348886	0.386443	0.632376
O13	O	-1.090947	-0.113581	0.119075
O14	O	-0.590947	0.386419	0.619075
Zn15	Zn	-0.966051	-0.149607	0.129607
Zn16	Zn	-0.466051	0.350393	0.629607
Zn17	Zn	-0.998129	0.149454	0.097400
Zn18	Zn	-0.498129	0.649454	0.597400
O19	O	-0.963268	-0.113554	0.246755
O20	O	-0.463268	0.386446	0.746755
C21	C	-0.830085	-0.000062	0.119616
C22	C	-0.330085	0.499938	0.619616
C23	C	-0.737790	-0.000054	0.118002
C24	C	-0.237790	0.499946	0.618002
N25	N	-0.944165	-0.353708	0.151586
N26	N	-0.444165	0.146292	0.651586
C27	C	-0.515517	-0.000059	0.190014
C28	C	-0.015517	0.499941	0.690014
C29	C	-0.428795	-0.000068	0.188493
C30	C	0.071205	0.499932	0.688493
C31	C	-0.448668	-0.000080	0.037005
C32	C	0.051332	0.499920	0.537005
C33	C	-0.535387	-0.000082	0.038528
C34	C	-0.035387	0.499918	0.538528
C35	C	-0.568810	-0.000064	0.115035
C36	C	-0.068810	0.499936	0.615035
C37	C	-0.395369	-0.000071	0.111990
C38	C	0.104631	0.499929	0.611990
C39	C	-0.301342	-0.000080	0.110340
C40	C	0.198658	0.499920	0.610340
C41	C	-0.662842	-0.000058	0.116686
C42	C	-0.162842	0.499942	0.616686
C43	C	-0.990508	-0.421497	0.105042
C44	C	-0.490508	0.078503	0.605042
C45	C	-0.973671	-0.578660	0.121965
C46	C	-0.473671	-0.078660	0.621965
C47	C	-0.134094	-0.000087	0.107395
C48	C	0.365906	0.499913	0.607395
C49	C	-0.226388	-0.000082	0.109023
C50	C	0.273612	0.499918	0.609023
C51	C	-0.988199	-0.000092	-0.038501
C52	C	-0.488199	0.499908	0.461499
C53	C	-0.986584	-0.000094	-0.130796
C54	C	-0.486584	0.499906	0.369204
N55	N	-1.020021	0.353555	0.075414
N56	N	-0.520021	0.853555	0.575414
C57	C	-1.058593	-0.000079	-0.353072
C58	C	-0.558593	0.499921	0.146928
C59	C	-1.057070	-0.000068	-0.439793
C60	C	-0.557070	0.499932	0.060207
C61	C	-0.905582	-0.000058	-0.419917
C62	C	-0.405582	0.499942	0.080083
C63	C	-0.907107	-0.000060	-0.333198
C64	C	-0.407107	0.499940	0.166802
C65	C	-0.983614	-0.000077	-0.299777
C66	C	-0.483614	0.499923	0.200223
C67	C	-0.980567	-0.000064	-0.473218
C68	C	-0.480567	0.499936	0.026782
C69	C	-0.978915	-0.000052	-0.567245
C70	C	-0.478915	0.499948	-0.067245
C71	C	-0.985267	-0.000087	-0.205744
C72	C	-0.485267	0.499913	0.294256
C73	C	-0.975981	-0.000059	0.265507
C74	C	-0.475981	0.499941	0.765507
C75	C	-0.977597	-0.000048	0.357801
C76	C	-0.477597	0.499952	0.857801
H77	H	-0.385407	-0.000067	0.249549
H78	H	0.114593	0.499933	0.749549
N79	N	-0.904593	-0.655891	0.191343
N80	N	-0.404593	-0.155891	0.691343
H81	H	-0.930145	-0.715168	0.234413
H82	H	-0.430145	-0.215168	0.734413
H83	H	-0.876002	-0.588975	0.220013
H84	H	-0.376002	-0.088975	0.720013
N85	N	-0.551562	-0.000066	0.272532
N86	N	-0.051562	0.499934	0.772532
H87	H	-0.614585	-0.000065	0.262122
H88	H	-0.114585	0.499935	0.762122
H89	H	-0.541086	0.084079	0.296284
H90	H	-0.041086	0.584079	0.796284
N91	N	-0.412610	-0.000083	-0.045505
N92	N	0.087390	0.499917	0.454495
H93	H	-0.441069	0.084057	-0.087414
H94	H	0.058931	0.584057	0.412586
H95	H	-0.423022	-0.084285	-0.069223
H96	H	0.076978	0.415715	0.430777
N97	N	-0.823066	-0.000067	-0.455964
N98	N	-0.323066	0.499933	0.044036
H99	H	-0.775798	-0.000065	-0.409041
H100	H	-0.275798	0.499935	0.090959
H101	H	-0.828154	0.084075	-0.500571
H102	H	-0.328154	0.584075	-0.000571
N103	N	-1.137940	-0.000089	-0.497271
N104	N	-0.637940	0.499911	0.002729
H105	H	-1.125369	-0.000082	-0.557280
H106	H	-0.625369	0.499918	-0.057280
H107	H	-1.180309	0.084049	-0.495508
H108	H	-0.680309	0.584049	0.004492
H109	H	-0.578780	-0.000090	-0.022532
H110	H	-0.078780	0.499910	0.477468
N111	N	-1.059558	-0.344268	0.035640
N112	N	-0.559558	0.155732	0.535640
H113	H	-1.061790	-0.242942	0.033380
H114	H	-0.561790	0.257058	0.533380
H115	H	-1.115935	-0.369138	0.047739
H116	H	-0.615935	0.130862	0.547739
N117	N	-1.089090	-0.569224	0.006024
N118	N	-0.589090	-0.069224	0.506024
H119	H	-1.091329	-0.467898	0.003767
H120	H	-0.591329	0.032102	0.503767
H121	H	-1.145458	-0.594113	0.018142
H122	H	-0.645458	-0.094113	0.518142
H123	H	-0.892020	-0.412024	0.203960
H124	H	-0.392020	0.087976	0.703960
N125	N	-1.141107	-0.000096	-0.317023
N126	N	-0.641107	0.499904	0.182977
H127	H	-1.188375	-0.000093	-0.363947
H128	H	-0.688375	0.499907	0.136053
H129	H	-1.154064	0.084048	-0.290531
H130	H	-0.654064	0.584048	0.209469
H131	H	-0.846047	-0.000054	-0.289803
H132	H	-0.346047	0.499946	0.210197
