data_functionalizedCrystal
_audit_creation_method	'MofGen! by Chris Wilmer'
_symmetry_space_group_name_H-M	'P1'
_symmetry_Int_Tables_number	1
_symmetry_cell_setting	triclinic
loop_
_symmetry_equiv_pos_as_xyz
  x,y,z
_cell_length_a	25.639242
_cell_length_b	29.839131
_cell_length_c	25.639233
_cell_angle_alpha	89.980415
_cell_angle_beta	89.977834
_cell_angle_gamma	90.036947
loop_
_atom_site_label
_atom_site_type_symbol
_atom_site_fract_x
_atom_site_fract_y
_atom_site_fract_z
Zn1	Zn	0.799215	-0.178962	-0.295739
Zn2	Zn	1.299215	0.321038	0.204261
Zn3	Zn	0.799134	-0.254076	-0.208302
Zn4	Zn	1.299134	0.245924	0.291698
Zn5	Zn	0.711791	-0.178955	-0.208303
Zn6	Zn	1.211791	0.321045	0.291697
Zn7	Zn	0.711732	-0.254059	-0.295692
Zn8	Zn	1.211732	0.245941	0.204308
O9	O	0.755468	-0.216513	-0.252009
O10	O	1.255468	0.283487	0.247991
O11	O	0.872370	-0.188935	-0.284160
O12	O	1.372370	0.311065	0.215840
O13	O	0.787539	-0.244115	-0.135137
O14	O	1.287539	0.255885	0.364863
O15	O	0.723447	-0.116089	-0.219922
O16	O	1.223447	0.383911	0.280078
O17	O	0.872310	-0.244122	-0.219920
O18	O	1.372310	0.255878	0.280080
O19	O	0.787677	-0.116094	-0.284161
O20	O	1.287677	0.383906	0.215839
O21	O	0.723369	-0.188924	-0.135138
O22	O	1.223369	0.311076	0.364862
O23	O	0.638618	-0.188908	-0.219876
O24	O	1.138618	0.311092	0.280124
O25	O	0.723346	-0.244093	-0.368864
O26	O	1.223346	0.255907	0.131136
O27	O	0.638575	-0.244087	-0.284081
O28	O	1.138575	0.255913	0.215919
O29	O	0.787619	-0.188919	-0.368898
O30	O	1.287619	0.311081	0.131102
O31	O	0.787482	-0.316941	-0.219875
O32	O	1.287482	0.183059	0.280125
O33	O	0.723268	-0.316929	-0.284080
O34	O	1.223268	0.183071	0.215920
C35	C	0.619626	-0.216495	-0.251974
C36	C	1.119626	0.283505	0.248026
C37	C	0.561512	-0.216499	-0.251971
C38	C	1.061512	0.283501	0.248029
C39	C	0.201135	-0.245293	-0.285409
C40	C	0.701135	0.254707	0.214591
C41	C	0.146531	-0.245295	-0.285417
C42	C	0.646531	0.254705	0.214583
O43	O	0.118282	-0.269755	-0.313817
O44	O	0.618282	0.230245	0.186183
N45	N	0.119229	-0.216525	-0.252043
N46	N	0.619229	0.283475	0.247957
C47	C	0.146535	-0.187748	-0.218663
C48	C	0.646535	0.312252	0.281337
O49	O	0.118299	-0.163276	-0.190277
O50	O	0.618299	0.336724	0.309723
C51	C	0.201138	-0.187743	-0.218658
C52	C	0.701138	0.312257	0.281342
C53	C	0.228437	-0.216518	-0.252030
C54	C	0.728437	0.283482	0.247970
C55	C	0.228434	-0.274065	-0.318778
C56	C	0.728434	0.225935	0.181222
C57	C	0.283034	-0.274063	-0.318769
C58	C	0.783034	0.225937	0.181231
C59	C	0.310336	-0.245288	-0.285390
C60	C	0.810336	0.254712	0.214610
C61	C	0.283037	-0.216516	-0.252021
C62	C	0.783037	0.283484	0.247979
C63	C	0.228443	-0.158963	-0.185281
C64	C	0.728443	0.341037	0.314719
C65	C	0.283050	-0.158961	-0.185279
C66	C	0.783050	0.341039	0.314721
C67	C	0.310349	-0.187736	-0.218651
C68	C	0.810349	0.312264	0.281349
C69	C	0.364940	-0.187739	-0.218633
C70	C	0.864940	0.312261	0.281367
N71	N	0.392241	-0.216509	-0.252006
N72	N	0.892241	0.283491	0.247994
C73	C	0.364939	-0.245283	-0.285385
C74	C	0.864939	0.254717	0.214615
C75	C	0.031864	-0.187759	-0.218677
C76	C	0.531864	0.312241	0.281323
C77	C	-0.022738	-0.187766	-0.218679
C78	C	0.477262	0.312234	0.281321
C79	C	-0.022739	-0.245313	-0.285434
C80	C	0.477261	0.254687	0.214566
C81	C	0.031865	-0.245308	-0.285429
C82	C	0.531865	0.254692	0.214571
C83	C	0.059166	-0.216529	-0.252051
C84	C	0.559166	0.283471	0.247949
C85	C	0.479604	-0.245277	-0.285363
C86	C	0.979604	0.254723	0.214637
C87	C	0.534210	-0.245273	-0.285350
C88	C	1.034210	0.254727	0.214650
C89	C	0.534206	-0.187724	-0.218597
C90	C	1.034206	0.312276	0.281403
C91	C	0.479605	-0.187729	-0.218609
C92	C	0.979605	0.312271	0.281391
C93	C	0.452306	-0.216507	-0.251996
C94	C	0.952306	0.283493	0.248004
O95	O	0.393223	-0.163290	-0.190249
O96	O	0.893223	0.336710	0.309751
O97	O	0.393182	-0.269746	-0.313771
O98	O	0.893182	0.230254	0.186229
C99	C	0.755374	-0.333236	-0.251983
C100	C	1.255374	0.166764	0.248017
C101	C	0.755381	-0.383170	-0.251990
C102	C	1.255381	0.116830	0.248010
C103	C	0.788965	-0.692807	-0.218627
C104	C	1.288965	-0.192807	0.281373
C105	C	0.789030	-0.880480	-0.218647
C106	C	1.289030	-0.380480	0.281353
O107	O	0.817509	-0.904740	-0.190260
O108	O	1.317509	-0.404740	0.309740
N109	N	0.755577	-0.903955	-0.252049
N110	N	1.255577	-0.403955	0.247951
C111	C	0.722108	-0.880509	-0.285450
C112	C	1.222108	-0.380509	0.214550
O113	O	0.693659	-0.904782	-0.313865
O114	O	1.193659	-0.404782	0.186135
C115	C	0.722046	-0.692837	-0.285432
C116	C	1.222046	-0.192837	0.214568
C117	C	0.755498	-0.669364	-0.252024
C118	C	1.255498	-0.169364	0.247976
C119	C	0.822415	-0.669335	-0.185222
C120	C	1.322415	-0.169335	0.314778
C121	C	0.822396	-0.622419	-0.185215
C122	C	1.322396	-0.122419	0.314785
C123	C	0.788928	-0.598976	-0.218613
C124	C	1.288928	-0.098976	0.281387
C125	C	0.755479	-0.622449	-0.252018
C126	C	1.255479	-0.122449	0.247982
C127	C	0.688580	-0.669391	-0.318836
C128	C	1.188580	-0.169391	0.181164
C129	C	0.688568	-0.622470	-0.318829
C130	C	1.188568	-0.122470	0.181171
C131	C	0.722020	-0.598998	-0.285422
C132	C	1.222020	-0.098998	0.214578
C133	C	0.721993	-0.552090	-0.285409
C134	C	1.221993	-0.052090	0.214591
N135	N	0.755446	-0.528615	-0.252007
N136	N	1.255446	-0.028615	0.247993
C137	C	0.788914	-0.552058	-0.218609
C138	C	1.288914	-0.052058	0.281391
C139	C	0.722141	-0.979039	-0.285457
C140	C	1.222141	-0.479039	0.214543
C141	C	0.722156	-1.025957	-0.285461
C142	C	1.222156	-0.525957	0.214539
C143	C	0.789079	-1.025925	-0.218658
C144	C	1.289079	-0.525925	0.281342
C145	C	0.789062	-0.979007	-0.218652
C146	C	1.289062	-0.479007	0.281348
C147	C	0.755595	-0.955565	-0.252055
C148	C	1.255595	-0.455565	0.247945
C149	C	0.788872	-0.453533	-0.218597
C150	C	1.288872	0.046467	0.281403
C151	C	0.788849	-0.406613	-0.218592
C152	C	1.288849	0.093387	0.281408
C153	C	0.721928	-0.406649	-0.285396
C154	C	1.221928	0.093351	0.214604
C155	C	0.721949	-0.453564	-0.285400
C156	C	1.221949	0.046436	0.214600
C157	C	0.755425	-0.477005	-0.251999
C158	C	1.255425	0.022995	0.248001
O159	O	0.693533	-0.527802	-0.313784
O160	O	1.193533	-0.027802	0.186216
O161	O	0.817366	-0.527777	-0.190207
O162	O	1.317366	-0.027777	0.309793
C163	C	0.788984	-0.739723	-0.218633
C164	C	1.288984	-0.239723	0.281367
C165	C	0.755535	-0.763195	-0.252038
C166	C	1.255535	-0.263195	0.247962
C167	C	0.722067	-0.739752	-0.285436
C168	C	1.222067	-0.239752	0.214564
C169	C	0.755549	-0.810113	-0.252042
C170	C	1.255549	-0.310113	0.247958
C171	C	0.789017	-0.833556	-0.218644
C172	C	1.289017	-0.333556	0.281356
C173	C	0.822470	-0.810081	-0.185242
C174	C	1.322470	-0.310081	0.314758
C175	C	0.822451	-0.763166	-0.185235
C176	C	1.322451	-0.263166	0.314765
C177	C	0.688614	-0.763227	-0.318838
C178	C	1.188614	-0.263227	0.181162
C179	C	0.688635	-0.810143	-0.318841
C180	C	1.188635	-0.310143	0.181159
C181	C	0.722102	-0.833585	-0.285443
C182	C	1.222102	-0.333585	0.214557
C183	C	0.891841	-0.216531	-0.252045
C184	C	1.391841	0.283469	0.247955
C185	C	0.949955	-0.216539	-0.252060
C186	C	1.449955	0.283461	0.247940
C187	C	0.755485	-0.216505	-0.388382
C188	C	1.255485	0.283495	0.111618
C189	C	0.755492	-0.216502	-0.446496
C190	C	1.255492	0.283498	0.053504
C191	C	0.755577	-0.099335	-0.252047
C192	C	1.255577	0.400665	0.247953
C193	C	0.755624	-0.049400	-0.252063
C194	C	1.255624	0.450600	0.247937
C195	C	0.789002	-0.187687	-0.806883
C196	C	1.289002	0.312313	-0.306883
C197	C	0.789008	-0.187675	-0.861488
C198	C	1.289008	0.312325	-0.361488
O199	O	0.817457	-0.163229	-0.889744
O200	O	1.317457	0.336771	-0.389744
N201	N	0.755550	-0.216396	-0.888779
N202	N	1.255550	0.283604	-0.388779
C203	C	0.722079	-0.245129	-0.861463
C204	C	1.222079	0.254871	-0.361463
O205	O	0.693621	-0.269558	-0.889691
O206	O	1.193621	0.230442	-0.389691
C207	C	0.722071	-0.245139	-0.806860
C208	C	1.222071	0.254861	-0.306860
C209	C	0.755535	-0.216419	-0.779571
C210	C	1.255535	0.283581	-0.279571
C211	C	0.822463	-0.158969	-0.779594
C212	C	1.322463	0.341031	-0.279594
C213	C	0.822457	-0.158982	-0.724994
C214	C	1.322457	0.341018	-0.224994
C215	C	0.788990	-0.187714	-0.697682
C216	C	1.288990	0.312286	-0.197682
C217	C	0.755529	-0.216432	-0.724971
C218	C	1.255529	0.283568	-0.224971
C219	C	0.688598	-0.273869	-0.779545
C220	C	1.188598	0.226131	-0.279545
C221	C	0.688592	-0.273876	-0.724938
C222	C	1.188592	0.226124	-0.224938
C223	C	0.722056	-0.245156	-0.697650
C224	C	1.222056	0.254844	-0.197650
C225	C	0.722056	-0.245176	-0.643058
C226	C	1.222056	0.254824	-0.143058
N227	N	0.755514	-0.216455	-0.615767
N228	N	1.255514	0.283545	-0.115767
C229	C	0.788981	-0.187723	-0.643079
C230	C	1.288981	0.312277	-0.143079
C231	C	0.722100	-0.245106	-0.976134
C232	C	1.222100	0.254894	-0.476134
C233	C	0.722110	-0.245099	-1.030736
C234	C	1.222110	0.254901	-0.530736
C235	C	0.789039	-0.187644	-1.030757
C236	C	1.289039	0.312356	-0.530757
C237	C	0.789030	-0.187653	-0.976153
C238	C	1.289030	0.312347	-0.476153
C239	C	0.755558	-0.216384	-0.948843
C240	C	1.255558	0.283616	-0.448843
C241	C	0.788967	-0.187753	-0.528414
C242	C	1.288967	0.312247	-0.028414
C243	C	0.788959	-0.187770	-0.473808
C244	C	1.288959	0.312230	0.026192
C245	C	0.722029	-0.245223	-0.473793
C246	C	1.222029	0.254777	0.026207
C247	C	0.722038	-0.245208	-0.528393
C248	C	1.222038	0.254792	-0.028393
C249	C	0.755509	-0.216470	-0.555702
C250	C	1.255509	0.283530	-0.055702
O251	O	0.693620	-0.269609	-0.614767
O252	O	1.193620	0.230391	-0.114767
O253	O	0.817430	-0.163295	-0.614845
O254	O	1.317430	0.336705	-0.114845
C255	C	0.755482	-0.216488	-0.116167
C256	C	1.255482	0.283512	0.383833
C257	C	0.755576	-0.216365	-0.058053
C258	C	1.255576	0.283635	0.441947
H259	H	0.457384	-0.268709	-0.312552
H260	H	0.957384	0.231291	0.187448
F261	F	0.858040	-0.694277	-0.149673
F262	F	1.358040	-0.194277	0.350327
H263	H	0.661390	-0.829250	-0.346045
H264	H	1.161390	-0.329250	0.153955
F265	F	0.563272	-0.157102	-0.183075
F266	F	1.063272	0.342898	0.316925
H267	H	0.849716	-0.135570	-0.801826
H268	H	1.349716	0.364430	-0.301826
F269	F	0.824587	-0.157164	-0.557470
F270	F	1.324587	0.342836	-0.057470
F271	F	0.652980	-0.694362	-0.354398
F272	F	1.152980	-0.194362	0.145602
F273	F	0.858072	-0.128411	-0.695958
F274	F	1.358072	0.371589	-0.195958
F275	F	0.824657	-0.157064	-1.059834
F276	F	1.324657	0.342936	-0.559834
F277	F	0.652991	-0.738284	-0.354387
F278	F	1.152991	-0.238284	0.145613
H279	H	0.694866	-0.268490	-1.052950
H280	H	1.194866	0.231510	-0.552950
H281	H	0.849691	-0.744058	-0.158032
H282	H	1.349691	-0.244058	0.341968
H283	H	0.849719	-0.829176	-0.158047
H284	H	1.349719	-0.329176	0.341953
F285	F	0.824697	-1.050883	-0.183112
F286	F	1.324697	-0.550883	0.316888
H287	H	0.816279	-0.164266	-0.953939
H288	H	1.316279	0.335734	-0.453939
H289	H	-0.044978	-0.268742	-0.312615
H290	H	0.455022	0.231258	0.187385
H291	H	0.816089	-0.387503	-0.191385
H292	H	1.316089	0.112497	0.308615
F293	F	0.060916	-0.157129	-0.183146
F294	F	0.560916	0.342871	0.316854
H295	H	0.054088	-0.268739	-0.312604
H296	H	0.554088	0.231261	0.187396
F297	F	0.686475	-0.275690	-0.947072
F298	F	1.186475	0.224310	-0.447072
F299	F	0.824501	-0.478473	-0.183048
F300	F	1.324501	0.021527	0.316952
H301	H	0.661347	-0.297256	-0.801754
H302	H	1.161347	0.202744	-0.301754
F303	F	0.824579	-0.157202	-0.444769
F304	F	1.324579	0.342798	0.055231
F305	F	-0.051785	-0.157145	-0.183154
F306	F	0.448215	0.342855	0.316846
H307	H	0.661328	-0.297268	-0.702705
H308	H	1.161328	0.202732	-0.202705
H309	H	0.457377	-0.164299	-0.191433
H310	H	0.957377	0.335701	0.308567
F311	F	0.686426	-0.275778	-0.557437
F312	F	1.186426	0.224222	-0.057437
F313	F	0.312103	-0.128328	-0.149753
F314	F	0.812103	0.371672	0.350247
F315	F	0.858006	-0.597444	-0.149664
F316	F	1.358006	-0.097444	0.350336
H317	H	0.206226	-0.135532	-0.158104
H318	H	0.706226	0.364468	0.341896
H319	H	0.694912	-1.045065	-0.312660
H320	H	1.194912	-0.545065	0.187340
F321	F	0.563260	-0.275902	-0.320869
F322	F	1.063260	0.224098	0.179131
F323	F	0.312080	-0.304688	-0.354291
F324	F	0.812080	0.195312	0.145709
H325	H	0.694783	-0.268617	-0.451545
H326	H	1.194783	0.231383	0.048455
F327	F	0.824665	-0.954030	-0.183095
F328	F	1.324665	-0.454030	0.316905
H329	H	0.694887	-0.959956	-0.312658
H330	H	1.194887	-0.459956	0.187342
H331	H	0.206210	-0.297497	-0.345962
H332	H	0.706210	0.202503	0.154038
H333	H	0.661316	-0.603386	-0.346032
H334	H	1.161316	-0.103386	0.153968
F335	F	0.686337	-0.478546	-0.320946
F336	F	1.186337	0.021454	0.179054
H337	H	0.694677	-0.387554	-0.312587
H338	H	1.194677	0.112446	0.187413
