data_functionalizedCrystal
_audit_creation_method	'MofGen! by Chris Wilmer'
_symmetry_space_group_name_H-M	'P1'
_symmetry_Int_Tables_number	1
_symmetry_cell_setting	triclinic
loop_
_symmetry_equiv_pos_as_xyz
  x,y,z
_cell_length_a	12.759401
_cell_length_b	13.897447
_cell_length_c	12.759393
_cell_angle_alpha	90.032074
_cell_angle_beta	90.019125
_cell_angle_gamma	90.019174
loop_
_atom_site_label
_atom_site_type_symbol
_atom_site_fract_x
_atom_site_fract_y
_atom_site_fract_z
Zn1	Zn	1.606220	-0.383967	0.593995
Zn2	Zn	1.606100	-0.545297	0.418314
Zn3	Zn	1.430522	-0.384016	0.418333
Zn4	Zn	1.430496	-0.545221	0.593953
O5	O	1.518334	-0.464625	0.506149
O6	O	1.753225	-0.405379	0.570700
O7	O	1.582769	-0.523955	0.271295
O8	O	1.453890	-0.249028	0.441660
O9	O	1.753137	-0.523907	0.441628
O10	O	1.582975	-0.248992	0.570719
O11	O	1.453773	-0.405463	0.271309
O12	O	1.283498	-0.405389	0.441620
O13	O	1.453846	-0.523778	0.740980
O14	O	1.283478	-0.523826	0.570647
O15	O	1.582949	-0.405306	0.741011
O16	O	1.582744	-0.680268	0.441587
O17	O	1.453729	-0.680213	0.570629
C18	C	1.245367	-0.464605	0.506132
C19	C	1.128590	-0.464620	0.506149
C20	C	0.963983	-0.402890	0.439093
C21	C	1.073707	-0.402870	0.439083
C22	C	1.073744	-0.526388	0.573238
C23	C	0.964022	-0.526402	0.573253
C24	C	0.909105	-0.341142	0.372015
C25	C	0.963943	-0.279373	0.304927
C26	C	1.073667	-0.279353	0.304917
C27	C	1.128553	-0.341102	0.371994
C28	C	1.518249	-0.715240	0.506124
C29	C	1.518309	-0.822453	0.506149
C30	C	1.518359	-0.909523	0.506173
C31	C	1.518433	-1.018756	0.506200
C32	C	1.792368	-0.464646	0.506167
C33	C	1.909144	-0.464655	0.506174
C34	C	1.518408	-0.464528	0.780182
C35	C	1.518439	-0.464486	0.896959
C36	C	1.518449	-0.213032	0.506196
C37	C	1.518498	-0.105818	0.506216
C38	C	1.518322	-0.464653	0.233181
C39	C	1.518494	-0.464422	0.116405
C40	C	1.585673	-0.402792	0.951839
C41	C	1.585698	-0.402757	1.061563
C42	C	1.451253	-0.526120	1.061518
C43	C	1.451223	-0.526149	0.951796
C44	C	1.652889	-0.341130	0.897002
C45	C	1.720129	-0.279431	0.951882
C46	C	1.720154	-0.279396	1.061606
C47	C	1.652939	-0.341060	1.116450
H48	H	0.919372	-0.576694	0.627879
O49	O	1.126776	-0.219320	0.239656
C50	C	1.115153	-0.096773	0.106635
C51	C	1.054880	-0.164724	0.180478
H52	H	1.057050	-0.052599	0.058785
H53	H	1.166461	-0.140947	0.051542
H54	H	1.166580	-0.046417	0.154972
H55	H	1.003395	-0.215093	0.132225
H56	H	1.003638	-0.120489	0.235573
H57	H	1.396529	-0.576323	1.106181
O58	O	1.785310	-0.219355	1.114962
C59	C	1.799541	-0.089119	1.238912
C60	C	1.725626	-0.157040	1.178539
H61	H	1.751317	-0.038733	1.290346
H62	H	1.847551	-0.044985	1.180912
H63	H	1.854490	-0.133410	1.290231
H64	H	1.670614	-0.112823	1.127219
H65	H	1.677690	-0.201178	1.236596
O66	O	1.127219	-0.586341	0.638287
C67	C	1.296271	-0.641020	0.697757
C68	C	1.235844	-0.573087	0.624021
H69	H	1.384105	-0.630314	0.686264
H70	H	1.274752	-0.718804	0.679163
H71	H	1.274681	-0.624187	0.782498
H72	H	1.257402	-0.589834	0.539256
H73	H	1.257369	-0.495324	0.642706
H74	H	1.652879	-0.341153	0.807659
O75	O	1.785378	-0.219619	0.898449
C76	C	1.844871	-0.164947	0.729437
C77	C	1.770943	-0.232753	0.789815
H78	H	1.833211	-0.175528	0.641596
H79	H	1.929609	-0.181884	0.750934
H80	H	1.826470	-0.087172	0.751093
H81	H	1.789250	-0.310551	0.768191
H82	H	1.686228	-0.215733	0.768312
O83	O	1.385903	-0.586189	0.898641
C84	C	1.252556	-0.708547	0.910166
C85	C	1.326488	-0.640608	0.970494
H86	H	1.204484	-0.752548	0.968232
H87	H	1.300731	-0.759056	0.858827
H88	H	1.197666	-0.664275	0.858763
H89	H	1.381392	-0.684802	1.021953
H90	H	1.278248	-0.590096	1.021766
O91	O	0.802520	-0.340991	0.372115
C92	C	0.645107	-0.248528	0.399212
C93	C	0.765811	-0.248576	0.399165
H94	H	0.615391	-0.173813	0.421058
H95	H	0.615263	-0.303217	0.458714
H96	H	0.615307	-0.268512	0.317817
H97	H	0.795701	-0.228568	0.480516
H98	H	0.795584	-0.193907	0.339607
H99	H	0.919248	-0.229094	0.250322
H100	H	1.217898	-0.341071	0.371990
H101	H	1.652953	-0.341015	1.205795
