data_functionalizedCrystal
_audit_creation_method	'MofGen! by Chris Wilmer'
_symmetry_space_group_name_H-M	'P1'
_symmetry_Int_Tables_number	1
_symmetry_cell_setting	triclinic
loop_
_symmetry_equiv_pos_as_xyz
  x,y,z
_cell_length_a	14.519709
_cell_length_b	15.995292
_cell_length_c	12.996460
_cell_angle_alpha	89.997047
_cell_angle_beta	90.000034
_cell_angle_gamma	83.574380
loop_
_atom_site_label
_atom_site_type_symbol
_atom_site_fract_x
_atom_site_fract_y
_atom_site_fract_z
O1	O	1.223644	0.109763	-0.085425
O2	O	1.723644	0.609763	0.414575
O3	O	0.955141	0.122689	-0.085456
O4	O	1.455141	0.622689	0.414544
O5	O	1.096760	-0.005654	-0.085441
O6	O	1.596760	0.494346	0.414559
O7	O	1.082025	0.238106	-0.085440
O8	O	1.582025	0.738106	0.414560
O9	O	1.096745	-0.005661	0.085692
O10	O	1.596745	0.494339	0.585692
O11	O	0.955126	0.122682	0.085678
O12	O	1.455126	0.622682	0.585678
O13	O	1.223629	0.109756	0.085708
O14	O	1.723629	0.609756	0.585708
Cu15	Cu	1.089376	0.116218	0.101319
Cu16	Cu	1.589376	0.616218	0.601319
Cu17	Cu	1.089394	0.116227	-0.101067
Cu18	Cu	1.589394	0.616227	0.398933
O19	O	1.082010	0.238099	0.085694
O20	O	1.582010	0.738099	0.585694
C21	C	0.920775	0.122083	0.000107
C22	C	1.420775	0.622083	0.500107
C23	C	0.818397	0.120278	0.000095
C24	C	1.318397	0.620278	0.500095
C25	C	1.096153	-0.036854	0.000123
C26	C	1.596153	0.463146	0.500123
C27	C	1.094355	-0.129810	0.000115
C28	C	1.594355	0.370190	0.500115
C29	C	0.443515	0.113632	0.000142
C30	C	0.943515	0.613632	0.500142
C31	C	0.547819	0.115478	0.000128
C32	C	1.047819	0.615478	0.500128
C33	C	0.630953	0.116955	0.000117
C34	C	1.130953	0.616955	0.500117
C35	C	0.735264	0.118801	0.000106
C36	C	1.235264	0.618801	0.500106
C37	C	1.087745	-0.467558	0.000124
C38	C	1.587745	0.032442	0.500124
C39	C	1.189962	-0.444093	0.000518
C40	C	1.689962	0.055907	0.500518
C41	C	1.191905	-0.347414	0.000128
C42	C	1.691905	0.152586	0.500128
C43	C	1.091025	-0.299997	0.000120
C44	C	1.591025	0.200003	0.500120
C45	C	1.039930	-0.329171	-0.097609
C46	C	1.539930	0.170829	0.402391
C47	C	1.038699	-0.425963	-0.097687
C48	C	1.538699	0.074037	0.402313
C49	C	1.036595	-0.425831	0.096924
C50	C	1.536595	0.074169	0.596924
C51	C	1.040383	-0.329333	0.098212
C52	C	1.540383	0.170667	0.598212
C53	C	1.092873	-0.205298	0.000114
C54	C	1.592873	0.294702	0.500114
C55	C	1.085894	-0.562257	0.000122
C56	C	1.585894	-0.062257	0.500122
C57	C	1.257995	0.110362	0.000143
C58	C	1.757995	0.610362	0.500143
C59	C	1.360373	0.112167	0.000149
C60	C	1.860373	0.612167	0.500149
C61	C	1.082617	0.269299	0.000127
C62	C	1.582617	0.769299	0.500127
C63	C	1.084415	0.362254	0.000129
C64	C	1.584415	0.862254	0.500129
N65	N	1.089371	0.116212	0.243666
N66	N	1.589371	0.616212	0.743666
N67	N	1.089407	0.116226	-0.243414
N68	N	1.589407	0.616226	0.256586
C69	C	1.089393	0.116227	0.663480
C70	C	1.589393	0.616227	1.163480
C71	C	1.089384	0.116226	0.546675
C72	C	1.589384	0.616226	1.046675
C73	C	1.089382	0.116220	0.453577
C74	C	1.589382	0.616220	0.953577
C75	C	1.089373	0.116217	0.336764
C76	C	1.589373	0.616217	0.836764
H77	H	1.231922	-0.328332	0.070183
H78	H	1.731922	0.171668	0.570183
C79	C	0.940907	-0.284948	0.106184
C80	C	1.440907	0.215052	0.606184
C81	C	0.903751	-0.221004	0.023390
C82	C	1.403751	0.278996	0.523390
C83	C	0.804271	-0.176617	0.031354
C84	C	1.304271	0.323383	0.531354
C85	C	0.741947	-0.196174	0.122112
C86	C	1.241947	0.303826	0.622112
C87	C	0.779102	-0.260121	0.204913
C88	C	1.279102	0.239879	0.704913
C89	C	0.878582	-0.304508	0.196949
C90	C	1.378582	0.195492	0.696949
H91	H	0.949889	-0.206524	-0.043801
H92	H	1.449889	0.293476	0.456199
H93	H	0.776768	-0.129280	-0.029941
H94	H	1.276768	0.370720	0.470059
H95	H	0.668306	-0.163317	0.128007
H96	H	1.168306	0.336683	0.628007
H97	H	0.732965	-0.274601	0.272104
H98	H	1.232965	0.225399	0.772104
H99	H	0.906086	-0.351845	0.258244
H100	H	1.406086	0.148155	0.758244
C101	C	1.243194	-0.481851	0.095186
C102	C	1.743194	0.018149	0.595186
C103	C	1.194504	-0.534456	0.173295
C104	C	1.694504	-0.034456	0.673295
C105	C	1.247738	-0.572225	0.267964
C106	C	1.747738	-0.072225	0.767964
C107	C	1.349663	-0.557390	0.284523
C108	C	1.849663	-0.057390	0.784523
C109	C	1.398359	-0.504783	0.206411
C110	C	1.898359	-0.004783	0.706411
C111	C	1.345125	-0.467013	0.111742
C112	C	1.845125	0.032987	0.611742
H113	H	1.119048	-0.545440	0.161040
H114	H	1.619048	-0.045440	0.661040
H115	H	1.211690	-0.611168	0.325787
H116	H	1.711690	-0.111168	0.825787
H117	H	1.389070	-0.585349	0.354602
H118	H	1.889070	-0.085349	0.854602
H119	H	1.473815	-0.493799	0.218667
H120	H	1.973815	0.006201	0.718667
H121	H	1.381173	-0.428070	0.053919
H122	H	1.881173	0.071930	0.553919
C123	C	1.087879	-0.302005	-0.195857
C124	C	1.587879	0.197995	0.304143
C125	C	1.190340	-0.333709	-0.216189
C126	C	1.690340	0.166291	0.283811
C127	C	1.238296	-0.306546	-0.314434
C128	C	1.738296	0.193454	0.185566
C129	C	1.183791	-0.247680	-0.392349
C130	C	1.683791	0.252320	0.107651
C131	C	1.081324	-0.215973	-0.372020
C132	C	1.581324	0.284027	0.127980
C133	C	1.033368	-0.243136	-0.273774
C134	C	1.533368	0.256864	0.226226
H135	H	1.230694	-0.377288	-0.158510
H136	H	1.730694	0.122712	0.341490
H137	H	1.314149	-0.330018	-0.329483
H138	H	1.814149	0.169982	0.170517
H139	H	1.219290	-0.227572	-0.465076
H140	H	1.719290	0.272428	0.034924
H141	H	1.040971	-0.172393	-0.429699
H142	H	1.540971	0.327607	0.070301
H143	H	0.957515	-0.219664	-0.258725
H144	H	1.457515	0.280336	0.241275
C145	C	0.934953	-0.444886	0.097819
C146	C	1.434953	0.055114	0.597819
C147	C	0.912353	-0.536628	0.101734
C148	C	1.412353	-0.036628	0.601734
C149	C	0.810716	-0.555689	0.102621
C150	C	1.310716	-0.055689	0.602621
C151	C	0.731680	-0.483008	0.099592
C152	C	1.231680	0.016992	0.599592
C153	C	0.754278	-0.391261	0.095676
C154	C	1.254278	0.108739	0.595676
C155	C	0.855915	-0.372200	0.094790
C156	C	1.355915	0.127800	0.594790
H157	H	0.970862	-0.590435	0.103977
H158	H	1.470862	-0.090435	0.603977
H159	H	0.793988	-0.623606	0.105520
H160	H	1.293988	-0.123606	0.605520
H161	H	0.656442	-0.497119	0.100248
H162	H	1.156442	0.002881	0.600248
H163	H	0.695769	-0.337453	0.093434
H164	H	1.195769	0.162547	0.593434
H165	H	0.872643	-0.304282	0.091891
H166	H	1.372643	0.195718	0.591891
H167	H	0.965696	-0.297414	-0.101248
H168	H	1.465696	0.202586	0.398752
C169	C	1.079785	-0.463928	0.197029
C170	C	1.579785	0.036072	0.697029
C171	C	1.182660	-0.457693	0.220983
C172	C	1.682660	0.042307	0.720983
C173	C	1.225834	-0.495787	0.321097
C174	C	1.725834	0.004213	0.821097
C175	C	1.166134	-0.540116	0.397257
C176	C	1.666134	-0.040116	0.897257
C177	C	1.063253	-0.546354	0.373305
C178	C	1.563253	-0.046354	0.873305
C179	C	1.020079	-0.508260	0.273191
C180	C	1.520079	-0.008260	0.773191
H181	H	1.226859	-0.424876	0.164604
H182	H	1.726859	0.075124	0.664604
H183	H	1.301994	-0.491169	0.338828
H184	H	1.801994	0.008831	0.838828
H185	H	1.198094	-0.568315	0.471367
H186	H	1.698094	-0.068315	0.971367
H187	H	1.019054	-0.579171	0.429685
H188	H	1.519054	-0.079171	0.929685
H189	H	0.943919	-0.512877	0.255460
H190	H	1.443919	-0.012877	0.755460
H191	H	1.077588	-0.310715	0.170511
H192	H	1.577588	0.189285	0.670511
C193	C	1.246289	-0.322459	-0.094673
C194	C	1.746289	0.177541	0.405327
C195	C	1.348484	-0.358123	-0.108781
C196	C	1.848484	0.141877	0.391219
C197	C	1.402866	-0.333169	-0.203592
C198	C	1.902866	0.166831	0.296408
C199	C	1.355052	-0.272552	-0.284295
C200	C	1.855052	0.227448	0.215705
C201	C	1.252851	-0.236884	-0.270189
C202	C	1.752851	0.263116	0.229811
C203	C	1.198470	-0.261838	-0.175379
C204	C	1.698470	0.238162	0.324621
H205	H	1.383884	-0.402998	-0.049038
H206	H	1.883884	0.097002	0.450962
H207	H	1.478522	-0.359573	-0.214033
H208	H	1.978522	0.140427	0.285967
H209	H	1.395309	-0.254080	-0.354479
H210	H	1.895309	0.245920	0.145521
H211	H	1.217452	-0.192009	-0.329932
H212	H	1.717452	0.307991	0.170068
H213	H	1.122813	-0.235434	-0.164937
H214	H	1.622813	0.264566	0.335063
H215	H	1.229149	-0.473049	-0.069166
H216	H	1.729149	0.026951	0.430834
H217	H	1.074098	-0.452723	-0.170734
H218	H	1.574098	0.047277	0.329266
H219	H	0.963753	-0.440625	-0.102121
H220	H	1.463753	0.059375	0.397879
