data_functionalizedCrystal
_audit_creation_method	'MofGen! by Chris Wilmer'
_symmetry_space_group_name_H-M	'P1'
_symmetry_Int_Tables_number	1
_symmetry_cell_setting	triclinic
loop_
_symmetry_equiv_pos_as_xyz
  x,y,z
_cell_length_a	18.215407
_cell_length_b	12.759394
_cell_length_c	18.215399
_cell_angle_alpha	89.976418
_cell_angle_beta	89.982632
_cell_angle_gamma	90.011299
loop_
_atom_site_label
_atom_site_type_symbol
_atom_site_fract_x
_atom_site_fract_y
_atom_site_fract_z
Zn1	Zn	1.125128	-0.418349	-0.416090
Zn2	Zn	1.625128	0.081651	0.083910
Zn3	Zn	1.125060	-0.594046	-0.293033
Zn4	Zn	1.625060	-0.094046	0.206967
Zn5	Zn	1.002061	-0.418374	-0.293042
Zn6	Zn	1.502061	0.081626	0.206958
Zn7	Zn	1.002050	-0.593979	-0.416063
Zn8	Zn	1.502050	-0.093979	0.083937
O9	O	1.063575	-0.506187	-0.354557
O10	O	1.563575	-0.006187	0.145443
O11	O	1.228104	-0.441673	-0.399773
O12	O	1.728104	0.058327	0.100227
O13	O	1.108720	-0.570782	-0.190050
O14	O	1.608720	-0.070782	0.309950
O15	O	1.018419	-0.271350	-0.309380
O16	O	1.518419	0.228650	0.190620
O17	O	1.228054	-0.570758	-0.309364
O18	O	1.728054	-0.070758	0.190636
O19	O	1.108836	-0.271331	-0.399782
O20	O	1.608836	0.228669	0.100218
O21	O	1.018353	-0.441716	-0.190057
O22	O	1.518353	0.058284	0.309943
O23	O	0.899075	-0.441651	-0.309354
O24	O	1.399075	0.058349	0.190646
O25	O	1.018401	-0.570642	-0.519051
O26	O	1.518401	-0.070642	-0.019051
O27	O	0.899068	-0.570667	-0.399737
O28	O	1.399068	-0.070667	0.100263
O29	O	1.108826	-0.441608	-0.519071
O30	O	1.608826	0.058392	-0.019071
O31	O	1.108710	-0.741058	-0.309338
O32	O	1.608710	-0.241058	0.190662
O33	O	1.018335	-0.741009	-0.399728
O34	O	1.518335	-0.241009	0.100272
C35	C	0.872369	-0.506155	-0.354544
C36	C	1.372369	-0.006155	0.145456
C37	C	0.790570	-0.506166	-0.354556
C38	C	1.290570	-0.006166	0.145444
C39	C	1.063534	-0.779155	-0.354545
C40	C	1.563534	-0.279155	0.145455
C41	C	1.063584	-0.895931	-0.354564
C42	C	1.563584	-0.395931	0.145436
C43	C	0.602401	-0.439090	-0.401707
C44	C	1.102401	0.060910	0.098293
C45	C	0.525542	-0.439099	-0.401709
C46	C	1.025542	0.060901	0.098291
C47	C	0.525501	-0.573313	-0.307420
C48	C	1.025501	-0.073313	0.192580
C49	C	0.602358	-0.573298	-0.307415
C50	C	1.102358	-0.073298	0.192585
C51	C	0.640806	-0.506188	-0.354562
C52	C	1.140806	-0.006188	0.145438
C53	C	0.487090	-0.506212	-0.354570
C54	C	0.987090	-0.006212	0.145430
C55	C	0.403757	-0.506223	-0.354573
C56	C	0.903757	-0.006223	0.145427
C57	C	0.724145	-0.506176	-0.354559
C58	C	1.224145	-0.006176	0.145441
C59	C	1.157665	-0.895754	-0.448771
C60	C	1.657665	-0.395754	0.051229
C61	C	1.204728	-0.950526	-0.495880
C62	C	1.704728	-0.450526	0.004120
C63	C	1.204772	-1.060247	-0.495896
C64	C	1.704772	-0.560247	0.004104
C65	C	1.157746	-1.115199	-0.448799
C66	C	1.657746	-0.615199	0.051201
C67	C	1.110682	-1.060427	-0.401690
C68	C	1.610682	-0.560427	0.098310
C69	C	1.110645	-0.950703	-0.401678
C70	C	1.610645	-0.450703	0.098322
C71	C	1.016599	-1.060605	-0.307489
C72	C	1.516599	-0.560605	0.192511
C73	C	1.016557	-0.950883	-0.307468
C74	C	1.516557	-0.450883	0.192532
C75	C	0.969572	-1.115557	-0.260392
C76	C	1.469572	-0.615557	0.239608
C77	C	0.922511	-1.060785	-0.213278
C78	C	1.422511	-0.560785	0.286722
C79	C	0.922470	-0.951057	-0.213264
C80	C	1.422470	-0.451057	0.286736
C81	C	0.969494	-0.896111	-0.260359
C82	C	1.469494	-0.396111	0.239641
C83	C	1.255528	-0.506220	-0.354570
C84	C	1.755528	-0.006220	0.145430
C85	C	1.337327	-0.506234	-0.354576
C86	C	1.837327	-0.006234	0.145424
C87	C	1.063620	-0.506115	-0.546510
C88	C	1.563620	-0.006115	-0.046510
C89	C	1.063639	-0.506084	-0.628309
C90	C	1.563639	-0.006084	-0.128309
C91	C	1.063636	-0.232154	-0.354585
C92	C	1.563636	0.267846	0.145415
C93	C	1.063662	-0.115377	-0.354597
C94	C	1.563662	0.384623	0.145403
C95	C	1.110740	-0.438833	-0.816514
C96	C	1.610740	0.061167	-0.316514
C97	C	1.110749	-0.438802	-0.893373
C98	C	1.610749	0.061198	-0.393373
C99	C	1.016590	-0.573172	-0.893342
C100	C	1.516590	-0.073172	-0.393342
C101	C	1.016578	-0.573197	-0.816484
C102	C	1.516578	-0.073197	-0.316484
C103	C	1.063657	-0.506029	-0.778073
C104	C	1.563657	-0.006029	-0.278073
C105	C	1.063678	-0.505973	-0.931789
C106	C	1.563678	-0.005973	-0.431789
C107	C	1.063687	-0.505941	-1.015122
C108	C	1.563687	-0.005941	-0.515122
C109	C	1.063647	-0.506060	-0.694734
C110	C	1.563647	-0.006060	-0.194734
C111	C	1.063573	-0.506183	-0.163351
C112	C	1.563573	-0.006183	0.336649
C113	C	1.063696	-0.505918	-0.081552
C114	C	1.563696	-0.005918	0.418448
H115	H	0.494276	-0.384460	-0.440098
H116	H	0.994276	0.115540	0.059902
H117	H	0.633703	-0.384442	-0.440095
H118	H	1.133703	0.115558	0.059905
C119	C	0.969447	-0.775421	-0.260349
C120	C	1.469447	-0.275421	0.239651
H121	H	1.004188	-0.750542	-0.295149
H122	H	1.504188	-0.250542	0.204851
H123	H	0.982183	-0.750615	-0.212867
H124	H	1.482183	-0.250615	0.287133
H125	H	0.921937	-0.750646	-0.273044
H126	H	1.421937	-0.250646	0.226956
H127	H	0.494188	-0.627952	-0.269036
H128	H	0.994188	-0.127952	0.230964
C129	C	1.162547	-0.364900	-0.935660
C130	C	1.662547	0.135100	-0.435660
H131	H	1.155810	-0.374498	-0.986935
H132	H	1.655810	0.125502	-0.486935
H133	H	1.211986	-0.380296	-0.923067
H134	H	1.711986	0.119704	-0.423067
H135	H	1.151791	-0.294306	-0.923072
H136	H	1.651791	0.205694	-0.423072
C137	C	0.964811	-0.647061	-0.935593
C138	C	1.464811	-0.147061	-0.435593
H139	H	0.936764	-0.687078	-0.901689
H140	H	1.436764	-0.187078	-0.401689
H141	H	0.992959	-0.692832	-0.965573
H142	H	1.492959	-0.192832	-0.465573
H143	H	0.932756	-0.606853	-0.965576
H144	H	1.432756	-0.106853	-0.465576
C145	C	0.964785	-0.647113	-0.774192
C146	C	1.464785	-0.147113	-0.274192
H147	H	0.971516	-0.637498	-0.722917
H148	H	1.471516	-0.137498	-0.222917
H149	H	0.975540	-0.717703	-0.786776
H150	H	1.475540	-0.217703	-0.286776
H151	H	0.915341	-0.631719	-0.786782
H152	H	1.415341	-0.131719	-0.286782
H153	H	0.633629	-0.627938	-0.269020
H154	H	1.133629	-0.127938	0.230980
H155	H	1.157779	-1.204541	-0.448823
H156	H	1.657779	-0.704541	0.051177
C157	C	1.157620	-0.775063	-0.448755
C158	C	1.657620	-0.275063	0.051245
H159	H	1.192362	-0.750181	-0.483552
H160	H	1.692362	-0.250181	0.016448
H161	H	1.170355	-0.750266	-0.401271
H162	H	1.670355	-0.250266	0.098729
H163	H	1.110110	-0.750284	-0.461448
H164	H	1.610110	-0.250284	0.038552
C165	C	1.162515	-0.364938	-0.774264
C166	C	1.662515	0.135062	-0.274264
H167	H	1.190551	-0.324907	-0.808169
H168	H	1.690551	0.175093	-0.308169
H169	H	1.194571	-0.405132	-0.744279
H170	H	1.694571	0.094868	-0.244279
H171	H	1.134359	-0.319166	-0.744287
H172	H	1.634359	0.180834	-0.244287
C173	C	1.256456	-0.890078	-0.547679
C174	C	1.756456	-0.390078	-0.047679
H175	H	1.249697	-0.816887	-0.540920
H176	H	1.749697	-0.316887	-0.040920
H177	H	1.245673	-0.908027	-0.597121
H178	H	1.745673	-0.408027	-0.097121
H179	H	1.305917	-0.908019	-0.536942
H180	H	1.805917	-0.408019	-0.036942
C181	C	1.256543	-1.120499	-0.547711
C182	C	1.756543	-0.620499	-0.047711
H183	H	1.284547	-1.072062	-0.575754
H184	H	1.784547	-0.572062	-0.075754
H185	H	1.228394	-1.163309	-0.579758
H186	H	1.728394	-0.663309	-0.079758
H187	H	1.288639	-1.163286	-0.519580
H188	H	1.788639	-0.663286	-0.019580
C189	C	0.870785	-1.121227	-0.161481
C190	C	1.370785	-0.621227	0.338519
H191	H	0.842748	-1.072895	-0.133423
H192	H	1.342748	-0.572895	0.366577
H193	H	0.898966	-1.164036	-0.129447
H194	H	1.398966	-0.664036	0.370553
H195	H	0.838718	-1.164029	-0.189623
H196	H	1.338718	-0.664029	0.310377
C197	C	0.870698	-0.890815	-0.161444
C198	C	1.370698	-0.390815	0.338556
H199	H	0.842704	-0.939260	-0.133397
H200	H	1.342704	-0.439260	0.366603
H201	H	0.838605	-0.848019	-0.189563
H202	H	1.338605	-0.348019	0.310437
H203	H	0.898853	-0.848015	-0.129388
H204	H	1.398853	-0.348015	0.370612
C205	C	0.969615	-1.236247	-0.260407
C206	C	1.469615	-0.736247	0.239593
H207	H	0.934865	-1.261127	-0.225617
H208	H	1.434865	-0.761127	0.274383
H209	H	1.017120	-1.261032	-0.247721
H210	H	1.517120	-0.761032	0.252279
H211	H	0.956872	-1.261041	-0.307894
H212	H	1.456872	-0.761041	0.192106
