data_functionalizedCrystal
_audit_creation_method	'MofGen! by Chris Wilmer'
_symmetry_space_group_name_H-M	'P1'
_symmetry_Int_Tables_number	1
_symmetry_cell_setting	triclinic
loop_
_symmetry_equiv_pos_as_xyz
  x,y,z
_cell_length_a	12.811457
_cell_length_b	15.944493
_cell_length_c	11.892095
_cell_angle_alpha	93.894412
_cell_angle_beta	91.498327
_cell_angle_gamma	83.760055
loop_
_atom_site_label
_atom_site_type_symbol
_atom_site_fract_x
_atom_site_fract_y
_atom_site_fract_z
O1	O	1.389179	0.115885	0.048426
O2	O	1.085817	0.126420	0.017326
O3	O	1.245814	-0.001049	0.033719
O4	O	1.229182	0.243354	0.032033
O5	O	1.232474	0.009563	0.220360
O6	O	1.072476	0.137032	0.203966
O7	O	1.375839	0.126496	0.235067
Zn8	Zn	1.222040	0.133449	0.249150
Zn9	Zn	1.239616	0.119468	0.003243
O10	O	1.215841	0.253965	0.218673
C11	C	1.040327	0.130811	0.106666
C12	C	0.924658	0.128072	0.094807
C13	C	0.692759	0.134481	0.276021
C14	C	0.584077	0.131909	0.264884
C15	C	0.598611	0.120348	0.061397
C16	C	0.707293	0.122921	0.072534
C17	C	0.754362	0.129989	0.179850
C18	C	0.863046	0.132568	0.190985
C19	C	0.877579	0.121001	-0.012500
C20	C	0.768897	0.118429	-0.023637
C21	C	1.238465	-0.027044	0.126965
C22	C	1.236428	-0.120313	0.126742
C23	C	1.330604	-0.355196	0.136418
C24	C	1.286395	-0.411468	0.039188
C25	C	1.232651	-0.291068	0.126368
C26	C	1.273220	-0.400982	0.223199
C27	C	1.229009	-0.456011	0.126013
C28	C	1.188473	-0.346116	0.029066
C29	C	1.175307	-0.335622	0.213160
C30	C	1.131027	-0.391864	0.115901
C31	C	1.234751	-0.196049	0.126572
C32	C	1.226901	-0.551027	0.125801
C33	C	1.421328	0.122106	0.145724
C34	C	1.536998	0.124844	0.157576
C35	C	1.223191	0.279961	0.125425
C36	C	1.225229	0.373229	0.125641
N37	N	1.210052	0.142990	0.416976
N38	N	1.251612	0.109920	-0.164582
C39	C	1.335029	0.043478	0.666429
C40	C	1.326657	0.050154	0.783913
C41	C	1.184932	0.163012	0.769430
C42	C	1.193304	0.156337	0.651946
C43	C	1.268356	0.096569	0.600450
C44	C	1.276732	0.089898	0.482964
C45	C	1.135003	0.202751	0.468482
C46	C	1.126631	0.209427	0.585966
H47	H	0.927748	0.117348	-0.090810
H48	H	1.152696	-0.322109	-0.053054
H49	H	1.414985	-0.338788	0.144975
H50	H	1.123820	0.211668	0.811373
N51	N	1.113210	-0.291888	0.310605
H52	H	1.053354	-0.252437	0.280853
H53	H	1.084238	-0.335567	0.355152
H54	H	1.337845	0.041234	0.441037
H55	H	1.380947	0.006922	0.837630
H56	H	0.901367	0.138328	0.278367
N57	N	1.348545	-0.455169	-0.058248
H58	H	1.378742	-0.411593	-0.101920
H59	H	1.407518	-0.495438	-0.028461
N60	N	1.019202	-0.413440	0.104351
H61	H	0.987317	-0.393410	0.031024
H62	H	1.018497	-0.476684	0.104978
N63	N	1.320666	-0.432936	0.331868
H64	H	1.396015	-0.419867	0.339504
H65	H	1.279403	-0.404257	0.397596
N66	N	1.415982	-0.020972	0.610878
H67	H	1.456955	-0.053589	0.670504
H68	H	1.379579	-0.061269	0.558049
N69	N	0.743527	0.142116	0.391763
H70	H	0.729896	0.092240	0.435172
H71	H	0.821707	0.143092	0.384130
N72	N	0.547823	0.112712	-0.054335
H73	H	0.494591	0.163342	-0.064349
H74	H	0.603398	0.110227	-0.113510
H75	H	0.730558	0.112670	-0.111010
N76	N	1.045686	0.273883	0.641521
H77	H	1.082023	0.314231	0.694342
H78	H	1.004741	0.306444	0.581827
N79	N	1.063081	0.260023	0.397329
H80	H	1.106364	0.294836	0.352665
H81	H	1.020437	0.224653	0.343927
N82	N	0.517633	0.136750	0.368612
H83	H	0.564040	0.141041	0.438287
H84	H	0.464229	0.188212	0.367951
