data_functionalizedCrystal
_audit_creation_method	'MofGen! by Chris Wilmer'
_symmetry_space_group_name_H-M	'P1'
_symmetry_Int_Tables_number	1
_symmetry_cell_setting	triclinic
loop_
_symmetry_equiv_pos_as_xyz
  x,y,z
_cell_length_a	13.897448
_cell_length_b	11.169417
_cell_length_c	11.169406
_cell_angle_alpha	89.969315
_cell_angle_beta	89.949141
_cell_angle_gamma	90.018942
loop_
_atom_site_label
_atom_site_type_symbol
_atom_site_fract_x
_atom_site_fract_y
_atom_site_fract_z
Zn1	Zn	-0.383759	1.835033	-0.678506
Zn2	Zn	-0.545138	1.834858	-0.477812
Zn3	Zn	-0.383862	1.634280	-0.477841
Zn4	Zn	-0.545017	1.634301	-0.678458
O5	O	-0.464444	1.734618	-0.578154
O6	O	-0.405174	2.002960	-0.651891
O7	O	-0.523838	1.808169	-0.309866
O8	O	-0.248867	1.660975	-0.504493
O9	O	-0.523738	2.002831	-0.504442
O10	O	-0.248791	1.808468	-0.651920
O11	O	-0.405349	1.660805	-0.309888
O12	O	-0.405232	1.466333	-0.504446
O13	O	-0.523533	1.661011	-0.846414
O14	O	-0.523632	1.466349	-0.651838
O15	O	-0.405057	1.808488	-0.846450
O16	O	-0.680104	1.808189	-0.504395
O17	O	-0.680015	1.660841	-0.651809
C18	C	-0.464431	1.422793	-0.578140
C19	C	-0.464449	1.289393	-0.578163
C20	C	-0.715059	1.734530	-0.578119
C21	C	-0.822272	1.734603	-0.578145
C22	C	-1.018567	1.734729	-0.578220
C23	C	-0.909335	1.734655	-0.578182
C24	C	-0.212851	1.734739	-0.578215
C25	C	-0.105637	1.734790	-0.578241
C26	C	-0.464270	1.734771	-0.891197
C27	C	-0.464196	1.734837	-1.024597
C28	C	-0.464458	2.047660	-0.578169
C29	C	-0.464464	2.181060	-0.578175
C30	C	-0.464548	1.734534	-0.266329
C31	C	-0.464351	1.734702	-0.132930
