data_functionalizedCrystal
_audit_creation_method	'MofGen! by Chris Wilmer'
_symmetry_space_group_name_H-M	'P1'
_symmetry_Int_Tables_number	1
_symmetry_cell_setting	triclinic
loop_
_symmetry_equiv_pos_as_xyz
  x,y,z
_cell_length_a	10.723024
_cell_length_b	9.130313
_cell_length_c	10.723024
_cell_angle_alpha	89.999893
_cell_angle_beta	84.467869
_cell_angle_gamma	89.999421
loop_
_atom_site_label
_atom_site_type_symbol
_atom_site_fract_x
_atom_site_fract_y
_atom_site_fract_z
O1	O	-1.657181	0.121807	-0.175022
O2	O	-1.294029	0.121807	-0.191775
O3	O	-1.483982	0.121802	-0.001822
O4	O	-1.467229	0.121812	-0.364974
O5	O	-1.483980	-0.121797	-0.001827
O6	O	-1.294027	-0.121792	-0.191780
O7	O	-1.657179	-0.121792	-0.175027
Cu8	Cu	-1.475603	-0.144034	-0.183404
Cu9	Cu	-1.475605	0.144050	-0.183398
O10	O	-1.467226	-0.121786	-0.364980
C11	C	-1.247528	0.000008	-0.190558
C12	C	-1.108974	0.000008	-0.186911
C13	C	-1.033991	0.000011	-0.293198
C14	C	-0.890788	0.000011	-0.289431
N15	N	-1.475610	-0.346657	-0.183407
C16	C	-1.559743	-0.423311	-0.099325
C17	C	-1.559739	-0.576648	-0.099310
C18	C	-1.391466	-0.576663	-0.267471
C19	C	-1.391465	-0.423329	-0.267479
C20	C	-1.643888	-0.346640	-0.015254
C21	C	-1.728029	-0.423294	0.068834
C22	C	-1.728025	-0.576631	0.068849
C23	C	-1.643881	-0.653313	-0.015224
C24	C	-0.703680	0.000008	-0.176243
C25	C	-0.842234	0.000008	-0.179891
C26	C	-1.482762	0.000004	0.044675
C27	C	-1.479114	0.000009	0.183229
N28	N	-1.475608	0.346672	-0.183384
C29	C	-1.468447	0.000015	-0.411477
C30	C	-1.472094	0.000019	-0.550031
C31	C	-1.585401	0.000011	0.258212
C32	C	-1.581634	0.000017	0.401415
H33	H	-1.067152	0.000042	-0.093125
H34	H	-1.672624	0.000012	0.465848
H35	H	-1.385328	0.000019	0.225051
H36	H	-1.679187	0.000002	0.216390
Br37	Br	-1.277280	-0.680729	-0.381565
Br38	Br	-1.643904	-0.138540	-0.015279
H39	H	-0.826355	0.000020	-0.380421
H40	H	-1.796527	-0.639041	0.137325
Br41	Br	-1.320422	-0.000002	0.342592
Br42	Br	-1.842204	-0.319232	0.182943
Br43	Br	-1.103683	0.000007	-0.449524
Br44	Br	-1.643868	-0.861415	-0.015184
Br45	Br	-1.277273	-0.319293	-0.381587
H46	H	-0.906659	0.000014	-0.088896
