data_functionalizedCrystal
_audit_creation_method	'MofGen! by Chris Wilmer'
_symmetry_space_group_name_H-M	'P1'
_symmetry_Int_Tables_number	1
_symmetry_cell_setting	triclinic
loop_
_symmetry_equiv_pos_as_xyz
  x,y,z
_cell_length_a	16.959455
_cell_length_b	13.897448
_cell_length_c	13.897441
_cell_angle_alpha	90.029627
_cell_angle_beta	90.018627
_cell_angle_gamma	90.014639
loop_
_atom_site_label
_atom_site_type_symbol
_atom_site_fract_x
_atom_site_fract_y
_atom_site_fract_z
Zn1	Zn	1.208430	-0.384072	0.545382
Zn2	Zn	1.708430	0.115928	1.045382
Zn3	Zn	1.208349	-0.545391	0.384083
Zn4	Zn	1.708349	-0.045391	0.884083
Zn5	Zn	1.076249	-0.384103	0.384100
Zn6	Zn	1.576249	0.115897	0.884100
Zn7	Zn	1.076229	-0.545318	0.545336
Zn8	Zn	1.576229	-0.045318	1.045336
O9	O	1.142314	-0.464721	0.464725
O10	O	1.642314	0.035279	0.964725
O11	O	1.319030	-0.405489	0.523998
O12	O	1.819030	0.094511	1.023998
O13	O	1.190799	-0.524039	0.249104
O14	O	1.690799	-0.024039	0.749104
O15	O	1.093826	-0.249117	0.405521
O16	O	1.593826	0.250883	0.905521
O17	O	1.318970	-0.524009	0.405492
O18	O	1.818970	-0.024009	0.905492
O19	O	1.190939	-0.249094	0.524014
O20	O	1.690939	0.250906	1.024014
O21	O	1.093746	-0.405542	0.249116
O22	O	1.593746	0.094458	0.749116
O23	O	0.965635	-0.405471	0.405476
O24	O	1.465635	0.094529	0.905476
O25	O	1.093792	-0.523885	0.680324
O26	O	1.593792	-0.023885	1.180324
O27	O	0.965621	-0.523915	0.523935
O28	O	1.465621	-0.023915	1.023935
O29	O	1.190920	-0.405418	0.680358
O30	O	1.690920	0.094582	1.180358
O31	O	1.190780	-0.680363	0.405447
O32	O	1.690780	-0.180363	0.905447
O33	O	1.093712	-0.680309	0.523919
O34	O	1.593712	-0.180309	1.023919
C35	C	0.936948	-0.464689	0.464703
C36	C	1.436948	0.035311	0.964703
C37	C	0.849091	-0.464699	0.464717
C38	C	1.349091	0.035301	0.964717
C39	C	1.142257	-0.715335	0.464697
C40	C	1.642257	-0.215335	0.964697
C41	C	1.142304	-0.822549	0.464718
C42	C	1.642304	-0.322549	0.964718
C43	C	0.477599	-0.402997	0.403172
C44	C	0.977599	0.097003	0.903172
C45	C	0.477633	-0.526525	0.526333
C46	C	0.977633	-0.026525	1.026333
C47	C	0.560178	-0.526511	0.526327
C48	C	1.060178	-0.026511	1.026327
C49	C	0.601438	-0.464740	0.464742
C50	C	1.101438	0.035260	0.964742
C51	C	0.560153	-0.402983	0.403163
C52	C	1.060153	0.097017	0.903163
C53	C	0.601471	-0.588274	0.587899
C54	C	1.101471	-0.088274	1.087899
C55	C	0.684021	-0.588263	0.587895
C56	C	1.184021	-0.088263	1.087895
C57	C	0.725283	-0.526487	0.526313
C58	C	1.225283	-0.026487	1.026313
C59	C	0.683992	-0.464726	0.464732
C60	C	1.183992	0.035274	0.964732
C61	C	0.725252	-0.402955	0.403147
C62	C	1.225252	0.097045	0.903147
C63	C	0.683962	-0.341189	0.341570
C64	C	1.183962	0.158811	0.841570
C65	C	0.601414	-0.341206	0.341581
C66	C	1.101414	0.158794	0.841581
C67	C	0.807831	-0.526470	0.526302
C68	C	1.307831	-0.026470	1.026302
C69	C	0.807805	-0.402942	0.403137
C70	C	1.307805	0.097058	0.903137
C71	C	1.142387	-1.018844	0.464778
C72	C	1.642387	-0.518844	0.964778
C73	C	1.142339	-0.909612	0.464747
C74	C	1.642339	-0.409612	0.964747
C75	C	1.348482	-0.464754	0.464748
C76	C	1.848482	0.035246	0.964748
C77	C	1.436339	-0.464768	0.464758
C78	C	1.936339	0.035232	0.964758
C79	C	1.142363	-0.464640	0.716318
C80	C	1.642363	0.035360	1.216318
C81	C	1.142383	-0.464605	0.823532
C82	C	1.642383	0.035395	1.323532
C83	C	1.142394	-0.213128	0.464774
C84	C	1.642394	0.286872	0.964774
C85	C	1.142428	-0.105914	0.464795
C86	C	1.642428	0.394086	0.964795
C87	C	1.142312	-0.464732	0.214111
C88	C	1.642312	0.035268	0.714111
C89	C	1.142444	-0.464495	0.106898
C90	C	1.642444	0.035505	0.606898
C91	C	1.142399	-0.464578	0.910602
C92	C	1.642399	0.035422	1.410602
C93	C	1.142422	-0.464535	1.019835
C94	C	1.642422	0.035465	1.519835
H95	H	0.841394	-0.352634	0.352992
H96	H	1.341394	0.147366	0.852992
Br97	Br	0.863864	-0.610296	0.609855
Br98	Br	1.363864	-0.110296	1.109855
H99	H	0.717567	-0.290900	0.291423
H100	H	1.217567	0.209100	0.791423
H101	H	0.567789	-0.290921	0.291448
H102	H	1.067789	0.209079	0.791448
Br103	Br	0.421567	-0.319168	0.319615
Br104	Br	0.921567	0.180832	0.819615
H105	H	0.444034	-0.576821	0.576468
H106	H	0.944034	-0.076821	1.076468
Br107	Br	0.545472	-0.672136	0.671437
Br108	Br	1.045472	-0.172136	1.171437
Br109	Br	0.740050	-0.672085	0.671462
Br110	Br	1.240050	-0.172085	1.171462
