data_functionalizedCrystal
_audit_creation_method	'MofGen! by Chris Wilmer'
_symmetry_space_group_name_H-M	'P1'
_symmetry_Int_Tables_number	1
_symmetry_cell_setting	triclinic
loop_
_symmetry_equiv_pos_as_xyz
  x,y,z
_cell_length_a	16.120530
_cell_length_b	21.295417
_cell_length_c	16.120297
_cell_angle_alpha	87.132998
_cell_angle_beta	89.871860
_cell_angle_gamma	87.125778
loop_
_atom_site_label
_atom_site_type_symbol
_atom_site_fract_x
_atom_site_fract_y
_atom_site_fract_z
Zn1	Zn	1.247391	-0.318915	0.534523
Zn2	Zn	1.580724	0.014418	0.867857
Zn3	Zn	1.914057	0.347751	1.201190
Zn4	Zn	1.254326	-0.419125	0.395453
Zn5	Zn	1.587659	-0.085792	0.728786
Zn6	Zn	1.920993	0.247542	1.062120
Zn7	Zn	1.115383	-0.308278	0.388443
Zn8	Zn	1.448716	0.025055	0.721776
Zn9	Zn	1.782049	0.358389	1.055109
Zn10	Zn	1.108282	-0.418545	0.527422
Zn11	Zn	1.441616	-0.085212	0.860756
Zn12	Zn	1.774949	0.248121	1.194089
O13	O	1.181345	-0.366216	0.461460
O14	O	1.514679	-0.032883	0.794794
O15	O	1.848012	0.300451	1.128127
O16	O	1.364676	-0.336903	0.521981
O17	O	1.698010	-0.003569	0.855314
O18	O	2.031343	0.329764	1.188648
O19	O	1.241769	-0.400212	0.278158
O20	O	1.575102	-0.066878	0.611491
O21	O	1.908435	0.266455	0.944825
O22	O	1.132963	-0.221604	0.407859
O23	O	1.466296	0.111729	0.741192
O24	O	1.799630	0.445063	1.074526
O25	O	1.369771	-0.410526	0.419806
O26	O	1.703105	-0.077193	0.753140
O27	O	2.036438	0.256140	1.086473
O28	O	1.229949	-0.229419	0.515184
O29	O	1.563282	0.103914	0.848517
O30	O	1.896615	0.437248	1.181850
O31	O	1.139688	-0.318773	0.273008
O32	O	1.473021	0.014560	0.606341
O33	O	1.806354	0.347894	0.939674
O34	O	0.998075	-0.318211	0.400973
O35	O	1.331409	0.015122	0.734306
O36	O	1.664742	0.348456	1.067640
O37	O	1.120862	-0.409538	0.644729
O38	O	1.454195	-0.076205	0.978062
O39	O	1.787528	0.257128	1.311396
O40	O	0.992859	-0.399224	0.503081
O41	O	1.326192	-0.065890	0.836414
O42	O	1.659525	0.267443	1.169747
O43	O	1.223064	-0.336340	0.649946
O44	O	1.556397	-0.003007	0.983280
O45	O	1.889730	0.330326	1.316613
O46	O	1.234884	-0.507133	0.412921
O47	O	1.568217	-0.173800	0.746254
O48	O	1.901550	0.159533	1.079587
O49	O	1.127586	-0.506707	0.509878
O50	O	1.460920	-0.173374	0.843211
O51	O	1.794253	0.159959	1.176545
C52	C	0.965295	-0.357501	0.450496
C53	C	1.298628	-0.024167	0.783829
C54	C	1.631961	0.309166	1.117163
C55	C	0.872866	-0.353788	0.445825
C56	C	1.206200	-0.020455	0.779159
C57	C	1.539533	0.312879	1.112492
C58	C	0.703638	-0.346996	0.437305
C59	C	1.036971	-0.013662	0.770638
C60	C	1.370304	0.319671	1.103971
C61	C	0.659891	-0.385485	0.485677
C62	C	0.993224	-0.052151	0.819010
C63	C	1.326557	0.281182	1.152343
C64	C	0.565726	-0.381705	0.480936
C65	C	0.899059	-0.048372	0.814269
C66	C	1.232393	0.284961	1.147602
C67	C	0.797811	-0.350774	0.442045
C68	C	1.131144	-0.017441	0.775378
C69	C	1.464478	0.315893	1.108711
C70	C	1.181239	-0.529761	0.461409
C71	C	1.514572	-0.196428	0.794742
C72	C	1.847905	0.136905	1.128075
C73	C	1.181268	-0.599731	0.461418
C74	C	1.514601	-0.266398	0.794752
C75	C	1.847934	0.066936	1.128085
C76	C	1.237182	-0.632802	0.410990
C77	C	1.570515	-0.299469	0.744323
C78	C	1.903849	0.033864	1.077656
C79	C	1.237220	-0.698547	0.411010
C80	C	1.570553	-0.365214	0.744344
C81	C	1.903887	-0.031881	1.077677
C82	C	1.181329	-0.731217	0.461450
C83	C	1.514663	-0.397884	0.794784
C84	C	1.847996	-0.064550	1.128117
C85	C	1.125411	-0.698138	0.511889
C86	C	1.458744	-0.364805	0.845222
C87	C	1.792078	-0.031471	1.178556
C88	C	1.125380	-0.632395	0.511873
C89	C	1.458713	-0.299062	0.845207
C90	C	1.792047	0.034272	1.178540
N91	N	1.108264	-0.831783	0.464098
N92	N	1.441598	-0.498450	0.797431
N93	N	1.774931	-0.165116	1.130764
N94	N	1.108296	-0.894236	0.464108
N95	N	1.441629	-0.560903	0.797442
N96	N	1.774963	-0.227569	1.130775
C97	C	1.181420	-0.929297	0.461503
C98	C	1.514754	-0.595964	0.794836
C99	C	1.848087	-0.262631	1.128169
N100	N	1.254514	-0.899546	0.458870
N101	N	1.587847	-0.566212	0.792203
N102	N	1.921180	-0.232879	1.125537
N103	N	1.254481	-0.837087	0.458855
N104	N	1.587814	-0.503753	0.792189
N105	N	1.921148	-0.170420	1.125522
C106	C	1.181357	-0.802504	0.461473
C107	C	1.514690	-0.469171	0.794807
C108	C	1.848024	-0.135838	1.128140
C109	C	1.237380	-1.033657	0.411094
C110	C	1.570714	-0.700323	0.744427
C111	C	1.904047	-0.366990	1.077760
C112	C	1.237419	-1.099403	0.411120
C113	C	1.570753	-0.766070	0.744454
C114	C	1.904086	-0.432736	1.077787
C115	C	1.125603	-1.098992	0.511994
C116	C	1.458936	-0.765659	0.845328
C117	C	1.792270	-0.432325	1.178661
C118	C	1.125571	-1.033248	0.511973
C119	C	1.458904	-0.699914	0.845306
C120	C	1.792238	-0.366581	1.178639
C121	C	1.181459	-1.000584	0.461518
C122	C	1.514792	-0.667250	0.794851
C123	C	1.848126	-0.333917	1.128184
C124	C	1.398240	-0.374966	0.472468
C125	C	1.731573	-0.041632	0.805801
C126	C	2.064906	0.291701	1.139134
C127	C	1.490667	-0.378694	0.477159
C128	C	1.824001	-0.045361	0.810492
C129	C	2.157334	0.287972	1.143825
C130	C	1.170397	-0.374061	0.678353
C131	C	1.503730	-0.040728	1.011687
C132	C	1.837064	0.292605	1.345020
C133	C	1.165731	-0.377404	0.770780
C134	C	1.499065	-0.044071	1.104114
C135	C	1.832398	0.289262	1.437447
C136	C	1.181474	-0.202033	0.461531
C137	C	1.514808	0.131300	0.794865
C138	C	1.848141	0.464633	1.128198
C139	C	1.181529	-0.132068	0.461562
C140	C	1.514863	0.201265	0.794895
C141	C	1.848196	0.534598	1.128228
C142	C	1.192299	-0.358358	0.245413
C143	C	1.525632	-0.025024	0.578747
C144	C	1.858966	0.308309	0.912080
C145	C	1.197126	-0.354844	0.152995
C146	C	1.530459	-0.021510	0.486328
C147	C	1.863792	0.311823	0.819662
C148	C	1.157183	-0.383493	0.940004
C149	C	1.490516	-0.050160	1.273338
C150	C	1.823850	0.283174	1.606671
C151	C	1.205672	-0.348757	0.983777
C152	C	1.539005	-0.015423	1.317110
C153	C	1.872339	0.317910	1.650443
C154	C	1.200915	-0.352144	1.077938
C155	C	1.534249	-0.018811	1.411272
C156	C	1.867582	0.314522	1.744605
C157	C	1.161938	-0.380106	0.845834
C158	C	1.495272	-0.046773	1.179167
C159	C	1.828605	0.286561	1.512500
H160	H	1.282691	-0.606210	0.369908
H161	H	1.616024	-0.272876	0.703242
H162	H	1.949358	0.060457	1.036575
H163	H	1.112102	-0.415774	0.973246
H164	H	1.445435	-0.082441	1.306579
H165	H	1.778769	0.250893	1.639912
H166	H	0.670373	-0.311209	0.392335
H167	H	1.003706	0.022125	0.725668
H168	H	1.337040	0.355458	1.059002
H169	H	1.080099	-1.125592	0.553068
H170	H	1.413433	-0.792258	0.886401
H171	H	1.746766	-0.458925	1.219734
N172	N	0.701629	-0.430384	0.542088
N173	N	1.034963	-0.097050	0.875421
N174	N	1.368296	0.236283	1.208754
N175	N	0.779174	-0.433432	0.545904
N176	N	1.112507	-0.100099	0.879237
N177	N	1.445840	0.233234	1.212570
H178	H	0.808657	-0.465143	0.585739
H179	H	1.141990	-0.131810	0.919072
H180	H	1.475323	0.201524	1.252405
N181	N	1.294338	-0.732328	0.359485
N182	N	1.627671	-0.398995	0.692819
N183	N	1.961005	-0.065661	1.026152
N184	N	1.344229	-0.703156	0.314439
N185	N	1.677562	-0.369823	0.647773
N186	N	2.010895	-0.036489	0.981106
H187	H	1.384566	-0.727011	0.278046
H188	H	1.717899	-0.393678	0.611379
H189	H	2.051233	-0.060345	0.944712
H190	H	1.079906	-0.724742	0.552959
H191	H	1.413239	-0.391409	0.886293
H192	H	1.746572	-0.058076	1.219626
H193	H	1.080037	-1.006319	0.553033
H194	H	1.413370	-0.672985	0.886366
H195	H	1.746704	-0.339652	1.219699
H196	H	1.079847	-0.605468	0.552939
H197	H	1.413180	-0.272134	0.886273
H198	H	1.746514	0.061199	1.219606
N199	N	1.294471	-1.000296	0.359554
N200	N	1.627804	-0.666963	0.692887
N201	N	1.961137	-0.333630	1.026220
N202	N	1.344397	-1.029836	0.314535
N203	N	1.677731	-0.696503	0.647868
N204	N	2.011064	-0.363170	0.981201
H205	H	1.384718	-1.006278	0.278133
H206	H	1.718051	-0.672944	0.611466
H207	H	2.051385	-0.339611	0.944800
H208	H	1.282957	-1.126329	0.370057
H209	H	1.616290	-0.792996	0.703390
H210	H	1.949623	-0.459662	1.036724
N211	N	1.262225	-0.308258	0.942067
N212	N	1.595558	0.025076	1.275400
N213	N	1.928892	0.358409	1.608734
N214	N	1.266057	-0.305528	0.864525
N215	N	1.599391	0.027805	1.197858
N216	N	1.932724	0.361139	1.531192
H217	H	1.305997	-0.276927	0.835063
H218	H	1.639330	0.056406	1.168397
H219	H	1.972663	0.389739	1.501730
