data_functionalizedCrystal
_audit_creation_method	'MofGen! by Chris Wilmer'
_symmetry_space_group_name_H-M	'P1'
_symmetry_Int_Tables_number	1
_symmetry_cell_setting	triclinic
loop_
_symmetry_equiv_pos_as_xyz
  x,y,z
_cell_length_a	13.032831
_cell_length_b	16.120484
_cell_length_c	13.034118
_cell_angle_alpha	100.302666
_cell_angle_beta	76.579782
_cell_angle_gamma	86.078521
loop_
_atom_site_label
_atom_site_type_symbol
_atom_site_fract_x
_atom_site_fract_y
_atom_site_fract_z
Zn1	Zn	1.668115	-0.585176	-0.839401
Zn2	Zn	1.638470	-0.704488	-0.668488
Zn3	Zn	1.469953	-0.544843	-0.637010
Zn4	Zn	1.483704	-0.704249	-0.823529
O5	O	1.565060	-0.634689	-0.742107
O6	O	1.811884	-0.617983	-0.836545
O7	O	1.597954	-0.666531	-0.514726
O8	O	1.502892	-0.433549	-0.657327
O9	O	1.790104	-0.705640	-0.710976
O10	O	1.648481	-0.463182	-0.806022
O11	O	1.474146	-0.549240	-0.491600
O12	O	1.324076	-0.549009	-0.641937
O13	O	1.526327	-0.705234	-0.975220
O14	O	1.334178	-0.666124	-0.778971
O15	O	1.661814	-0.617752	-0.986882
O16	O	1.611287	-0.821101	-0.695585
O17	O	1.497581	-0.820925	-0.809493
C18	C	1.290829	-0.603165	-0.705316
C19	C	1.173514	-0.589702	-0.689604
C20	C	1.126221	-0.641716	-0.750307
C21	C	1.004970	-0.627802	-0.734069
C22	C	1.552741	-0.851264	-0.754260
C23	C	1.547572	-0.943930	-0.759508
C24	C	1.538143	-1.113596	-0.769111
C25	C	1.592170	-1.154966	-0.715146
C26	C	1.586923	-1.249373	-0.720489
C27	C	1.543388	-1.019180	-0.763769
C28	C	1.840362	-0.666337	-0.779042
C29	C	1.957680	-0.679824	-0.794781
C30	C	1.598911	-0.665965	-1.020922
C31	C	1.613337	-0.679293	-1.139736
C32	C	1.577460	-0.417275	-0.729934
C33	C	1.582743	-0.324626	-0.724747
C34	C	1.531405	-0.603482	-0.464382
C35	C	1.517198	-0.589942	-0.345582
C36	C	1.557932	-0.627622	-0.181269
C37	C	1.572610	-0.641621	-0.304054
H38	H	1.006952	-0.734656	-0.858785
C39	C	1.267141	-0.683739	-0.911232
C40	C	1.192735	-0.715740	-0.836697
H41	H	1.308206	-0.729441	-0.964561
H42	H	1.231176	-0.647177	-0.944443
H43	H	1.312516	-0.652908	-0.875238
H44	H	1.147355	-0.746566	-0.872690
H45	H	1.228703	-0.752317	-0.803483
C46	C	1.594815	-1.042532	-0.567897
C47	C	1.659922	-1.107069	-0.647342
H48	H	1.636639	-1.012965	-0.526035
H49	H	1.561623	-1.004173	-0.601060
H50	H	1.542039	-1.066694	-0.522708
H51	H	1.712694	-1.082906	-0.692537
H52	H	1.693131	-1.145434	-0.614178
C53	C	0.972519	-0.476883	-0.669814
C54	C	0.938454	-0.553777	-0.647674
H55	H	0.931447	-0.431187	-0.616481
H56	H	1.045265	-0.476521	-0.669381
H57	H	0.963930	-0.470789	-0.738592
H58	H	0.947051	-0.559875	-0.578899
H59	H	0.865691	-0.554140	-0.648096
H60	H	1.487951	-1.149079	-0.819321
C61	C	1.479923	-0.554304	0.000609
C62	C	1.479228	-0.553905	-0.106568
H63	H	1.431338	-0.508790	0.046721
H64	H	1.459598	-0.606584	0.017919
H65	H	1.549306	-0.547795	0.009873
H66	H	1.409846	-0.560422	-0.115834
H67	H	1.499547	-0.501613	-0.123884
H68	H	1.671636	-0.733897	-0.195079
H69	H	1.124238	-0.534867	-0.625615
C70	C	1.729027	-0.682971	-0.449581
C71	C	1.651328	-0.715337	-0.378747
H72	H	1.777627	-0.728480	-0.495688
H73	H	1.696167	-0.652378	-0.491547
H74	H	1.765994	-0.646115	-0.409544
H75	H	1.614356	-0.752188	-0.418785
H76	H	1.684192	-0.745944	-0.336777
C77	C	1.336229	-0.525838	-0.284578
C78	C	1.438485	-0.516224	-0.270887
H79	H	1.287637	-0.480330	-0.238459
H80	H	1.335777	-0.525573	-0.357285
H81	H	1.315919	-0.578127	-0.267257
H82	H	1.458798	-0.463938	-0.288216
H83	H	1.438940	-0.516481	-0.198164
