data_functionalizedCrystal
_audit_creation_method	'MofGen! by Chris Wilmer'
_symmetry_space_group_name_H-M	'P1'
_symmetry_Int_Tables_number	1
_symmetry_cell_setting	triclinic
loop_
_symmetry_equiv_pos_as_xyz
  x,y,z
_cell_length_a	9.065215
_cell_length_b	9.065218
_cell_length_c	8.140239
_cell_angle_alpha	89.998449
_cell_angle_beta	90.000251
_cell_angle_gamma	85.015325
loop_
_atom_site_label
_atom_site_type_symbol
_atom_site_fract_x
_atom_site_fract_y
_atom_site_fract_z
O1	O	-0.216354	-1.960393	0.136604
O2	O	0.283646	-1.460393	0.636604
O3	O	-0.234101	-1.531108	0.136605
O4	O	0.265899	-1.031108	0.636605
O5	O	-0.010585	-1.754626	0.136607
O6	O	0.489415	-1.254626	0.636607
O7	O	-0.439870	-1.736875	0.136601
O8	O	0.060130	-1.236875	0.636601
O9	O	-0.010583	-1.754619	-0.136620
O10	O	0.489417	-1.254619	0.363380
O11	O	-0.234099	-1.531101	-0.136622
O12	O	0.265901	-1.031101	0.363378
O13	O	-0.216353	-1.960386	-0.136623
O14	O	0.283647	-1.460386	0.363377
Zn15	Zn	-0.225226	-1.745742	-0.180003
Zn16	Zn	0.274774	-1.245742	0.319997
Zn17	Zn	-0.225228	-1.745752	0.179985
Zn18	Zn	0.274772	-1.245752	0.679985
O19	O	-0.439869	-1.736868	-0.136626
O20	O	0.060131	-1.236868	0.363374
C21	C	-0.232394	-1.476118	-0.000008
C22	C	0.267606	-0.976118	0.499992
C23	C	-0.227295	-1.312275	-0.000007
C24	C	0.272705	-0.812275	0.499993
C25	C	0.044403	-1.752917	-0.000002
C26	C	0.544403	-1.252917	0.499998
C27	C	0.208246	-1.747819	0.000011
C28	C	0.708246	-1.247819	0.500011
C29	C	-0.218059	-2.015376	-0.000007
C30	C	0.281941	-1.515376	0.499993
C31	C	-0.223159	-2.179219	0.000003
C32	C	0.276841	-1.679219	0.500003
C33	C	0.505144	-1.738577	-0.000001
C34	C	1.005144	-1.238577	0.499999
C35	C	0.341301	-1.743674	0.000033
C36	C	0.841301	-1.243674	0.500033
N37	N	-0.225223	-1.745747	-0.425686
N38	N	0.274777	-1.245747	0.074314
N39	N	-0.225218	-1.745759	0.425668
N40	N	0.274782	-1.245759	0.925668
