data_functionalizedCrystal
_audit_creation_method	'MofGen! by Chris Wilmer'
_symmetry_space_group_name_H-M	'P1'
_symmetry_Int_Tables_number	1
_symmetry_cell_setting	triclinic
loop_
_symmetry_equiv_pos_as_xyz
  x,y,z
_cell_length_a	21.295420
_cell_length_b	21.295417
_cell_length_c	12.759393
_cell_angle_alpha	89.961624
_cell_angle_beta	89.978052
_cell_angle_gamma	90.026289
loop_
_atom_site_label
_atom_site_type_symbol
_atom_site_fract_x
_atom_site_fract_y
_atom_site_fract_z
Zn1	Zn	0.962339	-0.250648	-0.594017
Zn2	Zn	0.962246	-0.355930	-0.418313
Zn3	Zn	0.857067	-0.250671	-0.418346
Zn4	Zn	0.857032	-0.355875	-0.593945
O5	O	0.909671	-0.303281	-0.506155
O6	O	1.050416	-0.264627	-0.570726
O7	O	0.948270	-0.342000	-0.271297
O8	O	0.871085	-0.162579	-0.441693
O9	O	1.050348	-0.341978	-0.441637
O10	O	0.948428	-0.162562	-0.570757
O11	O	0.870995	-0.264667	-0.271321
O12	O	0.768973	-0.264614	-0.441623
O13	O	0.871025	-0.341884	-0.740976
O14	O	0.768947	-0.341907	-0.570635
O15	O	0.948394	-0.264574	-0.741028
O16	O	0.948236	-0.444013	-0.441568
O17	O	0.870935	-0.443972	-0.570603
C18	C	0.746119	-0.303257	-0.506126
C19	C	0.676151	-0.303262	-0.506138
C20	C	0.176728	-0.263100	-0.573497
C21	C	0.242471	-0.263095	-0.573496
C22	C	0.275312	-0.303300	-0.506180
C23	C	0.242405	-0.343525	-0.438877
C24	C	0.176664	-0.343533	-0.438887
N25	N	0.378504	-0.308052	-0.414185
N26	N	0.440956	-0.308041	-0.414179
C27	C	0.473386	-0.303280	-0.506149
N28	N	0.441007	-0.298518	-0.598127
N29	N	0.378549	-0.298526	-0.598132
C30	C	0.346597	-0.303296	-0.506162
C31	C	0.577571	-0.263056	-0.573452
C32	C	0.643315	-0.263055	-0.573454
C33	C	0.643248	-0.343482	-0.438825
C34	C	0.577505	-0.343486	-0.438833
C35	C	0.544671	-0.303269	-0.506145
C36	C	0.909588	-0.466833	-0.506097
C37	C	0.909611	-0.536801	-0.506107
C38	C	0.949897	-0.569668	-0.438987
C39	C	0.949926	-0.635410	-0.439011
C40	C	0.909658	-0.668283	-0.506144
C41	C	0.869369	-0.635409	-0.573277
C42	C	0.869345	-0.569667	-0.573259
N43	N	0.854591	-0.771545	-0.514143
N44	N	0.854616	-0.833996	-0.514154
C45	C	0.909729	-0.866358	-0.506204
N46	N	0.964818	-0.833910	-0.498222
N47	N	0.964793	-0.771452	-0.498205
C48	C	0.909680	-0.739569	-0.506171
C49	C	0.950051	-0.970510	-0.439106
C50	C	0.950081	-1.036254	-0.439137
C51	C	0.869518	-1.036251	-0.573397
C52	C	0.869494	-0.970509	-0.573372
C53	C	0.909759	-0.937642	-0.506220
C54	C	1.073861	-0.303306	-0.506186
C55	C	1.143829	-0.303316	-0.506199
C56	C	0.909716	-0.303220	-0.780189
C57	C	0.909735	-0.303194	-0.896965
C58	C	0.909771	-0.139091	-0.506237
C59	C	0.909814	-0.069123	-0.506271
C60	C	0.869524	-0.262896	-1.061564
C61	C	0.869510	-0.262918	-0.951840
C62	C	0.949980	-0.343445	-0.951821
C63	C	0.949997	-0.343419	-1.061543
C64	C	0.829292	-0.222623	-1.116433
C65	C	0.789047	-0.182370	-1.061586
C66	C	0.789033	-0.182393	-0.951862
C67	C	0.829264	-0.222667	-0.896985
C68	C	0.909663	-0.303297	-0.233188
C69	C	0.909766	-0.303146	-0.116412
H70	H	0.670100	-0.230308	-0.628264
O71	O	0.274206	-0.382640	-0.373452
C72	C	0.231068	-0.418128	-0.314033
H73	H	0.184217	-0.420342	-0.357067
H74	H	0.224061	-0.395026	-0.234309
C75	C	0.314243	-0.482392	-0.245835
C76	C	0.256701	-0.485116	-0.298695
H77	H	0.330055	-0.523713	-0.236368
H78	H	0.343307	-0.458482	-0.285863
H79	H	0.308395	-0.463137	-0.179404
H80	H	0.262550	-0.504364	-0.365129
H81	H	0.227638	-0.509032	-0.258677
H82	H	0.836686	-0.943747	-0.628023
O83	O	0.675239	-0.382481	-0.373470
C84	C	0.740319	-0.373865	-0.387914
H85	H	0.749326	-0.325307	-0.422464
H86	H	0.758976	-0.411239	-0.443751
C87	C	0.762980	-0.439202	-0.239156
C88	C	0.774042	-0.379560	-0.281584
H89	H	0.783783	-0.442717	-0.173569
H90	H	0.719134	-0.445009	-0.229427
H91	H	0.778527	-0.470340	-0.285698
H92	H	0.758489	-0.348423	-0.235049
H93	H	0.817887	-0.373748	-0.291303
H94	H	0.269262	-0.230343	-0.628297
O95	O	0.750033	-0.143226	-0.898534
C96	C	0.785883	-0.102595	-0.835076
H97	H	0.835469	-0.098702	-0.868154
H98	H	0.788029	-0.122076	-0.751910
C99	C	0.694261	-0.041934	-0.792789
C100	C	0.755162	-0.037149	-0.833422
H101	H	0.675310	-0.001565	-0.791764
H102	H	0.670108	-0.069309	-0.835539
H103	H	0.696058	-0.058171	-0.723488
H104	H	0.753364	-0.020920	-0.902726
H105	H	0.779315	-0.009770	-0.790684
H106	H	0.982735	-0.662176	-0.384354
H107	H	0.836734	-1.063016	-0.628062
H108	H	0.149878	-0.376283	-0.384083
O109	O	0.829152	-0.222745	-0.790399
C110	C	0.768802	-0.238893	-0.753716
H111	H	0.742769	-0.266318	-0.816925
H112	H	0.741556	-0.194326	-0.734261
C113	C	0.806823	-0.246005	-0.576904
C114	C	0.774851	-0.279693	-0.654536
H115	H	0.810554	-0.271170	-0.515723
H116	H	0.847482	-0.235123	-0.601617
H117	H	0.784114	-0.208868	-0.560705
H118	H	0.797564	-0.316826	-0.670743
H119	H	0.734197	-0.290582	-0.629824
O120	O	0.988995	-0.382549	-0.898354
C121	C	0.980361	-0.373930	-0.789749
H122	H	0.931791	-0.353309	-0.774766
H123	H	1.017715	-0.340422	-0.758633
C124	C	1.045733	-0.462965	-0.751791
C125	C	0.986077	-0.437642	-0.733387
H126	H	1.049261	-0.502264	-0.717022
H127	H	1.051552	-0.468770	-0.824960
H128	H	1.076855	-0.435035	-0.725861
H129	H	0.954956	-0.465567	-0.759329
H130	H	0.980252	-0.431843	-0.660221
O131	O	0.989106	-0.382577	-1.114666
C132	C	1.024619	-0.418122	-1.042712
H133	H	0.998824	-0.420320	-0.964490
H134	H	1.072439	-0.395078	-1.031063
C135	C	1.065343	-0.482408	-1.181585
C136	C	1.033657	-0.485112	-1.085515
H137	H	1.070921	-0.523730	-1.207989
H138	H	1.041419	-0.458460	-1.230063
H139	H	1.105189	-0.463202	-1.171865
H140	H	0.993809	-0.504311	-1.095238
H141	H	1.057575	-0.509066	-1.037039
H142	H	0.829299	-0.222601	-1.205776
O143	O	0.545768	-0.223978	-0.638946
C144	C	0.588907	-0.188474	-0.698338
H145	H	0.635762	-0.214256	-0.701890
H146	H	0.595905	-0.140637	-0.660015
C147	C	0.505735	-0.147821	-0.805826
C148	C	0.563281	-0.179489	-0.810195
H149	H	0.489928	-0.142275	-0.874823
H150	H	0.476671	-0.171739	-0.765810
H151	H	0.511575	-0.107959	-0.773885
H152	H	0.557439	-0.219352	-0.842123
H153	H	0.592344	-0.155577	-0.850219
H154	H	0.149998	-0.230355	-0.628312
H155	H	0.550719	-0.376232	-0.384027
H156	H	0.756297	-0.149576	-1.106274
O157	O	0.830340	-0.667408	-0.638540
C158	C	0.866172	-0.705362	-0.706477
H159	H	0.913892	-0.715190	-0.669496
H160	H	0.873055	-0.679983	-0.784340
C161	C	0.772942	-0.755757	-0.770882
C162	C	0.831551	-0.767833	-0.725457
H163	H	0.751586	-0.794291	-0.782595
H164	H	0.748801	-0.730186	-0.725115
H165	H	0.778687	-0.734607	-0.835763
H166	H	0.825805	-0.788976	-0.660572
H167	H	0.855691	-0.793410	-0.771215
O168	O	0.830148	-0.537835	-0.638492
C169	C	0.794625	-0.580943	-0.697777
H170	H	0.792476	-0.627831	-0.654758
H171	H	0.817656	-0.587873	-0.777607
C172	C	0.730253	-0.497746	-0.765647
C173	C	0.727610	-0.555332	-0.712806
H174	H	0.688916	-0.481947	-0.774923
H175	H	0.754187	-0.468702	-0.725709
H176	H	0.749448	-0.503528	-0.832166
H177	H	0.708423	-0.549548	-0.646284
H178	H	0.703671	-0.584374	-0.752734
H179	H	0.982685	-0.542910	-0.384311
H180	H	0.982839	-0.943749	-0.384430
H181	H	0.982891	-1.063013	-0.384482
