data_functionalizedCrystal
_audit_creation_method	'MofGen! by Chris Wilmer'
_symmetry_space_group_name_H-M	'P1'
_symmetry_Int_Tables_number	1
_symmetry_cell_setting	triclinic
loop_
_symmetry_equiv_pos_as_xyz
  x,y,z
_cell_length_a	23.532361
_cell_length_b	23.532357
_cell_length_c	9.016244
_cell_angle_alpha	89.992217
_cell_angle_beta	89.996958
_cell_angle_gamma	82.828980
loop_
_atom_site_label
_atom_site_type_symbol
_atom_site_fract_x
_atom_site_fract_y
_atom_site_fract_z
O1	O	0.755267	0.069008	-0.123209
O2	O	0.589398	0.079039	-0.123247
O3	O	0.677349	-0.008911	-0.123197
O4	O	0.667316	0.156958	-0.123260
O5	O	0.677336	-0.008909	0.123484
O6	O	0.589385	0.079041	0.123433
O7	O	0.755254	0.069010	0.123471
Cu8	Cu	0.672319	0.074026	0.145976
Cu9	Cu	0.672334	0.074023	-0.145752
O10	O	0.667303	0.156960	0.123421
C11	C	0.568175	0.078789	0.000089
C12	C	0.504957	0.078034	0.000075
C13	C	0.677092	-0.030127	0.000148
C14	C	0.676337	-0.093345	0.000162
C15	C	0.231721	0.074729	-0.134380
C16	C	0.291120	0.075444	-0.134384
O17	O	0.321852	0.075793	-0.248739
N18	N	0.320819	0.075806	0.000082
C19	C	0.291116	0.075448	0.134561
O20	O	0.321831	0.075821	0.248934
C21	C	0.231718	0.074729	0.134563
C22	C	0.202021	0.074372	0.000088
C23	C	0.202024	0.074372	-0.268844
C24	C	0.142629	0.073658	-0.268840
C25	C	0.112929	0.073301	-0.134371
C26	C	0.142626	0.073658	0.000093
C27	C	0.202016	0.074366	0.269041
C28	C	0.142614	0.073647	0.269031
C29	C	0.112918	0.073290	0.134556
C30	C	0.053531	0.072588	0.134566
N31	N	0.023832	0.072225	0.000100
C32	C	0.053531	0.072582	-0.134369
C33	C	0.415855	0.076957	0.134546
C34	C	0.475252	0.077680	0.134545
C35	C	0.475253	0.077675	-0.134401
C36	C	0.415855	0.076956	-0.134398
C37	C	0.386157	0.076594	0.000080
C38	C	-0.071204	0.071084	-0.134349
C39	C	-0.130605	0.070372	-0.134333
C40	C	-0.130600	0.070374	0.134612
C41	C	-0.071205	0.071089	0.134596
C42	C	-0.041508	0.071441	0.000104
O43	O	0.022761	0.072236	0.248863
O44	O	0.022810	0.072201	-0.248723
C45	C	0.671607	-0.485357	-0.134385
C46	C	0.670890	-0.544756	-0.134393
O47	O	0.670506	-0.575473	-0.248751
N48	N	0.670527	-0.574466	0.000070
C49	C	0.670876	-0.544773	0.134551
O50	O	0.670501	-0.575498	0.248923
C51	C	0.671589	-0.485374	0.134559
C52	C	0.671958	-0.455668	0.000086
C53	C	0.671975	-0.455650	-0.268846
C54	C	0.672693	-0.396255	-0.268837
C55	C	0.673044	-0.366567	-0.134366
C56	C	0.672676	-0.396273	0.000095
C57	C	0.671934	-0.455681	0.269038
C58	C	0.672647	-0.396278	0.269034
C59	C	0.673015	-0.366572	0.134561
C60	C	0.673745	-0.307189	0.134575
N61	N	0.674108	-0.277479	0.000111
C62	C	0.673757	-0.307168	-0.134359
C63	C	0.669378	-0.669514	0.134526
C64	C	0.668669	-0.728912	0.134521
C65	C	0.668681	-0.728891	-0.134425
C66	C	0.669394	-0.669493	-0.134418
C67	C	0.669740	-0.639804	0.000063
C68	C	0.675266	-0.182434	-0.134330
C69	C	0.675987	-0.123034	-0.134309
C70	C	0.675971	-0.123060	0.134636
C71	C	0.675253	-0.182455	0.134616
C72	C	0.674899	-0.212140	0.000121
O73	O	0.674127	-0.276434	0.248875
O74	O	0.674124	-0.276435	-0.248711
C75	C	0.776477	0.069260	0.000132
C76	C	0.839695	0.070015	0.000136
C77	C	0.667560	0.178176	0.000073
C78	C	0.668315	0.241394	0.000049
N79	N	0.672312	0.074027	0.351162
N80	N	0.672345	0.074017	-0.350938
C81	C	0.625124	0.120921	0.586168
C82	C	0.625224	0.121093	0.414277
C83	C	0.731664	0.086661	0.413509
C84	C	0.731405	0.086992	0.585453
C85	C	0.660742	0.014339	0.585726
C86	C	0.659370	0.014747	0.413771
H87	H	-0.154782	0.070084	-0.243843
Cl88	Cl	0.557083	0.109587	0.349193
H89	H	0.580855	0.113572	0.627555
Cl90	Cl	-0.033880	0.071529	-0.303428
H91	H	0.669661	-0.645346	0.244043
Cl92	Cl	0.239350	0.074820	-0.437914
H93	H	0.741682	0.130505	0.625528
Cl94	Cl	0.105306	0.073204	-0.437903
Cl95	Cl	0.668216	-0.766251	0.303579
H96	H	0.632393	0.164966	0.629346
Cl97	Cl	0.636580	0.189487	0.350716
Cl98	Cl	0.105284	0.073189	0.438100
Cl99	Cl	0.512600	0.078124	-0.303448
Cl100	Cl	0.787205	0.036172	0.649692
H101	H	0.391680	0.076666	-0.243900
H102	H	0.691553	-0.021764	0.370815
Cl103	Cl	0.676411	-0.085725	0.303676
Cl104	Cl	0.378526	0.076511	0.303621
Cl105	Cl	0.591966	-0.000072	0.350862
Cl106	Cl	0.713913	-0.039545	0.648521
H107	H	0.499424	0.077979	0.244048
H108	H	0.226185	0.074655	0.378545
Cl109	Cl	0.787186	0.035300	0.350395
Cl110	Cl	0.669856	-0.632154	-0.303475
Cl111	Cl	0.595396	-0.004541	0.652746
Cl112	Cl	0.671535	-0.492963	-0.437919
H113	H	0.742192	0.129677	0.370417
H114	H	0.671635	-0.479858	0.378540
Cl115	Cl	-0.033872	0.071544	0.303652
H116	H	-0.154793	0.070086	0.244093
H117	H	0.668394	-0.753075	-0.243918
Cl118	Cl	0.676451	-0.085693	-0.303373
H119	H	0.674975	-0.206596	-0.243848
Cl120	Cl	0.673082	-0.358960	0.438106
H121	H	0.672991	-0.372074	-0.378339
Cl122	Cl	0.674801	-0.219802	0.303668
