data_functionalizedCrystal
_audit_creation_method	'MofGen! by Chris Wilmer'
_symmetry_space_group_name_H-M	'P1'
_symmetry_Int_Tables_number	1
_symmetry_cell_setting	triclinic
loop_
_symmetry_equiv_pos_as_xyz
  x,y,z
_cell_length_a	18.050589
_cell_length_b	18.101398
_cell_length_c	18.101389
_cell_angle_alpha	89.975673
_cell_angle_beta	90.019529
_cell_angle_gamma	89.984199
loop_
_atom_site_label
_atom_site_type_symbol
_atom_site_fract_x
_atom_site_fract_y
_atom_site_fract_z
Zn1	Zn	-0.295831	-1.132175	0.418833
Zn2	Zn	-0.420005	-1.132094	0.294989
Zn3	Zn	-0.295823	-1.008334	0.294994
Zn4	Zn	-0.419973	-1.008308	0.418778
O5	O	-0.357908	-1.070228	0.356898
O6	O	-0.312320	-1.235798	0.402426
O7	O	-0.403542	-1.115654	0.191357
O8	O	-0.191900	-1.024807	0.311447
O9	O	-0.403550	-1.235738	0.311438
O10	O	-0.191905	-1.115793	0.402431
O11	O	-0.312306	-1.024728	0.191361
O12	O	-0.312276	-0.904698	0.311393
O13	O	-0.403496	-1.024762	0.522418
O14	O	-0.403488	-0.904679	0.402336
O15	O	-0.312289	-1.115767	0.522459
O16	O	-0.523926	-1.115629	0.311385
O17	O	-0.523902	-1.024683	0.402332
C18	C	-0.357878	-0.877817	0.356860
C19	C	-0.357883	-0.795503	0.356861
C20	C	-0.550860	-1.070164	0.356868
C21	C	-0.633406	-1.070205	0.356879
C22	C	-0.882217	-1.119790	0.307504
C23	C	-0.832878	-1.052221	0.289309
C24	C	-0.930527	-1.070298	0.356936
C25	C	-0.832785	-1.137817	0.375069
C26	C	-0.784541	-1.070256	0.356906
C27	C	-0.882274	-1.002694	0.338706
C28	C	-0.882185	-1.088335	0.424497
C29	C	-0.832868	-1.020720	0.406327
C30	C	-1.014625	-1.070323	0.356952
C31	C	-0.700445	-1.070223	0.356891
C32	C	-0.357890	-1.070271	0.550060
C33	C	-0.357882	-1.070289	0.632375
C34	C	-0.164203	-1.070312	0.356946
C35	C	-0.081657	-1.070348	0.356966
C36	C	-0.357939	-1.263390	0.356938
C37	C	-0.357952	-1.345704	0.356954
C38	C	-0.357930	-0.496412	0.356923
C39	C	-0.300254	-0.527725	0.299983
C40	C	-0.300409	-0.613343	0.299740
C41	C	-0.357906	-0.644795	0.356892
C42	C	-0.436133	-0.613691	0.335566
C43	C	-0.435813	-0.528046	0.335170
C44	C	-0.338057	-0.528023	0.435323
C45	C	-0.336315	-0.613674	0.434895
C46	C	-0.357897	-0.728654	0.356876
C47	C	-0.357943	-0.412553	0.356937
C48	C	-0.357873	-1.070228	0.164488
C49	C	-0.357672	-1.070353	0.082174
C50	C	-0.357742	-1.070332	0.931466
C51	C	-0.414945	-1.012877	0.900115
C52	C	-0.415210	-1.013032	0.814497
C53	C	-0.357811	-1.070310	0.783083
C54	C	-0.379062	-1.148339	0.814188
C55	C	-0.379437	-1.148019	0.899833
C56	C	-0.279163	-1.050436	0.899892
C57	C	-0.279616	-1.048700	0.814241
C58	C	-0.357849	-1.070302	0.699224
C59	C	-0.357706	-1.070345	1.015325
H60	H	-0.903886	-1.161609	0.265682
H61	H	-0.259803	-0.994526	0.921478
H62	H	-0.435894	-1.165496	0.792745
H63	H	-0.453280	-0.635109	0.278871
H64	H	-0.811218	-1.036942	0.232161
Br65	Br	-0.311803	-1.221611	0.780284
Br66	Br	-0.321882	-0.491796	0.203722
H67	H	-0.903861	-1.103634	0.481629
H68	H	-0.313545	-0.633799	0.241647
Br69	Br	-0.312963	-1.221743	0.934408
Br70	Br	-0.509677	-0.647632	0.402531
H71	H	-0.263592	-0.991278	0.793909
H72	H	-0.234735	-1.087493	0.792857
H73	H	-0.472835	-1.025883	0.921639
H74	H	-0.242399	-0.634373	0.313108
H75	H	-0.282008	-0.506441	0.454712
Br76	Br	-0.203268	-0.493425	0.322015
Br77	Br	-0.393040	-0.916594	0.779437
H78	H	-0.811046	-1.194934	0.390417
H79	H	-0.401782	-0.954842	0.920701
H80	H	-0.278749	-0.634007	0.450976
H81	H	-0.473456	-1.026169	0.794013
Br82	Br	-0.401233	-0.649356	0.509398
H83	H	-0.903921	-0.945560	0.323292
Br84	Br	-0.475178	-1.176128	0.933143
Br85	Br	-0.208128	-1.120185	0.933684
H86	H	-0.452667	-0.508037	0.277856
H87	H	-0.480240	-0.507332	0.374834
Br88	Br	-0.796980	-0.950855	0.475985
H89	H	-0.380066	-0.507774	0.477748
