data_functionalizedCrystal
_audit_creation_method	'MofGen! by Chris Wilmer'
_symmetry_space_group_name_H-M	'P1'
_symmetry_Int_Tables_number	1
_symmetry_cell_setting	triclinic
loop_
_symmetry_equiv_pos_as_xyz
  x,y,z
_cell_length_a	16.959455
_cell_length_b	18.101395
_cell_length_c	16.959447
_cell_angle_alpha	89.970532
_cell_angle_beta	89.985678
_cell_angle_gamma	90.028051
loop_
_atom_site_label
_atom_site_type_symbol
_atom_site_fract_x
_atom_site_fract_y
_atom_site_fract_z
Zn1	Zn	1.208323	-0.294875	-0.446913
Zn2	Zn	1.708323	0.205125	0.053087
Zn3	Zn	1.208220	-0.418728	-0.314737
Zn4	Zn	1.708220	0.081272	0.185263
Zn5	Zn	1.076152	-0.294899	-0.314751
Zn6	Zn	1.576152	0.205101	0.185249
Zn7	Zn	1.076091	-0.418673	-0.446875
Zn8	Zn	1.576091	0.081327	0.053125
O9	O	1.142196	-0.356794	-0.380819
O10	O	1.642196	0.143206	0.119181
O11	O	1.318920	-0.311318	-0.429390
O12	O	1.818920	0.188682	0.070610
O13	O	1.190683	-0.402335	-0.204128
O14	O	1.690683	0.097665	0.295872
O15	O	1.093753	-0.191263	-0.332304
O16	O	1.593753	0.308737	0.167696
O17	O	1.318845	-0.402312	-0.332280
O18	O	1.818845	0.097688	0.167720
O19	O	1.190859	-0.191246	-0.429404
O20	O	1.690859	0.308754	0.070596
O21	O	1.093653	-0.311358	-0.204138
O22	O	1.593653	0.188642	0.295862
O23	O	0.965533	-0.311304	-0.332267
O24	O	1.465533	0.188696	0.167733
O25	O	1.093649	-0.402218	-0.557491
O26	O	1.593649	0.097782	-0.057491
O27	O	0.965488	-0.402241	-0.429339
O28	O	1.465488	0.097759	0.070661
O29	O	1.190800	-0.311264	-0.557519
O30	O	1.690800	0.188736	-0.057519
O31	O	1.190624	-0.522354	-0.332243
O32	O	1.690624	-0.022354	0.167757
O33	O	1.093550	-0.522313	-0.429325
O34	O	1.593550	-0.022313	0.070675
C35	C	0.936830	-0.356769	-0.380801
C36	C	1.436830	0.143231	0.119199
C37	C	0.848974	-0.356777	-0.380812
C38	C	1.348974	0.143223	0.119188
C39	C	0.477497	-0.309404	-0.330380
C40	C	0.977497	0.190596	0.169620
C41	C	0.477499	-0.404244	-0.431304
C42	C	0.977499	0.095756	0.068696
C43	C	0.560045	-0.404234	-0.431299
C44	C	1.060045	0.095766	0.068701
C45	C	0.601321	-0.356808	-0.380833
C46	C	1.101321	0.143192	0.119167
C47	C	0.560050	-0.309394	-0.330372
C48	C	1.060050	0.190606	0.169628
C49	C	0.601321	-0.451653	-0.481754
C50	C	1.101321	0.048347	0.018246
C51	C	0.683872	-0.451644	-0.481750
C52	C	1.183872	0.048356	0.018250
C53	C	0.725150	-0.404215	-0.431287
C54	C	1.225150	0.095785	0.068713
C55	C	0.683874	-0.356798	-0.380825
C56	C	1.183874	0.143202	0.119175
C57	C	0.725150	-0.309373	-0.330359
C58	C	1.225150	0.190627	0.169641
C59	C	0.683876	-0.261951	-0.279899
C60	C	1.183876	0.238049	0.220101
C61	C	0.601327	-0.261964	-0.279909
C62	C	1.101327	0.238036	0.220091
C63	C	0.807698	-0.404202	-0.431278
C64	C	1.307698	0.095798	0.068722
C65	C	0.807703	-0.309362	-0.330351
C66	C	1.307703	0.190638	0.169649
C67	C	1.142091	-0.549204	-0.380796
C68	C	1.642091	-0.049204	0.119204
C69	C	1.142118	-0.631518	-0.380812
C70	C	1.642118	-0.131518	0.119188
C71	C	1.142291	-0.930609	-0.380855
C72	C	1.642291	-0.430609	0.119145
C73	C	1.081356	-0.899289	-0.442088
C74	C	1.581356	-0.399289	0.057912
C75	C	1.081066	-0.813671	-0.441896
C76	C	1.581066	-0.313671	0.058104
C77	C	1.142205	-0.782227	-0.380834
C78	C	1.642205	-0.282227	0.119166
C79	C	1.119658	-0.813380	-0.297530
C80	C	1.619658	-0.313380	0.202470
C81	C	1.119266	-0.899025	-0.297896
C82	C	1.619266	-0.399025	0.202104
C83	C	1.225907	-0.898956	-0.402193
C84	C	1.725907	-0.398956	0.097807
C85	C	1.225415	-0.813305	-0.404020
C86	C	1.725415	-0.313305	0.095980
C87	C	1.142158	-0.698367	-0.380818
C88	C	1.642158	-0.198367	0.119182
C89	C	1.142337	-1.014469	-0.380866
C90	C	1.642337	-0.514469	0.119134
C91	C	1.348365	-0.356819	-0.380838
C92	C	1.848365	0.143181	0.119162
C93	C	1.436221	-0.356830	-0.380846
C94	C	1.936221	0.143170	0.119154
C95	C	1.142229	-0.356732	-0.586987
C96	C	1.642229	0.143268	-0.086987
C97	C	1.142243	-0.356706	-0.674844
C98	C	1.642243	0.143294	-0.174844
C99	C	1.142324	-0.163632	-0.380860
C100	C	1.642324	0.336368	0.119140
C101	C	1.142379	-0.081318	-0.380877
C102	C	1.642379	0.418682	0.119123
C103	C	1.091756	-0.403984	-1.046308
C104	C	1.591756	0.096016	-0.546308
C105	C	1.192920	-0.309273	-1.046332
C106	C	1.692920	0.190727	-0.546332
C107	C	1.192899	-0.309289	-0.963786
C108	C	1.692899	0.190711	-0.463786
C109	C	1.142306	-0.356653	-0.922497
C110	C	1.642306	0.143347	-0.422497
C111	C	1.091735	-0.404002	-0.963754
C112	C	1.591735	0.095998	-0.463754
C113	C	1.243475	-0.261946	-0.922523
C114	C	1.743475	0.238054	-0.422523
C115	C	1.243456	-0.261960	-0.839972
C116	C	1.743456	0.238040	-0.339972
C117	C	1.192859	-0.309322	-0.798681
C118	C	1.692859	0.190678	-0.298681
C119	C	1.142285	-0.356672	-0.839944
C120	C	1.642285	0.143328	-0.339944
C121	C	1.091693	-0.404037	-0.798655
C122	C	1.591693	0.095963	-0.298655
C123	C	1.041115	-0.451384	-0.839915
C124	C	1.541115	0.048616	-0.339915
C125	C	1.041138	-0.451364	-0.922464
C126	C	1.541138	0.048636	-0.422464
C127	C	1.192836	-0.309342	-0.716133
C128	C	1.692836	0.190658	-0.216133
C129	C	1.091672	-0.404055	-0.716101
C130	C	1.591672	0.095945	-0.216101
C131	C	1.142209	-0.356801	-0.175453
C132	C	1.642209	0.143199	0.324547
C133	C	1.142348	-0.356619	-0.087597
C134	C	1.642348	0.143381	0.412403
H135	H	0.841304	-0.270738	-0.289259
H136	H	1.341304	0.229262	0.210741
H137	H	0.999926	-0.489951	-0.806287
H138	H	1.499926	0.010049	-0.306287
H139	H	1.284669	-0.223389	-0.956146
H140	H	1.784669	0.276611	-0.456146
C141	C	0.555929	-0.209810	-0.224405
C142	C	1.055929	0.290190	0.275595
H143	H	0.592332	-0.181557	-0.194352
H144	H	1.092332	0.318443	0.305648
H145	H	0.523705	-0.238104	-0.189916
H146	H	1.023705	0.261896	0.310084
H147	H	0.523749	-0.177580	-0.254710
H148	H	1.023749	0.322420	0.245290
C149	C	0.985514	-0.503444	-0.967851
C150	C	1.485514	-0.003444	-0.467851
H151	H	0.992780	-0.496655	-1.022927
H152	H	1.492780	0.003345	-0.522927
H153	H	0.932407	-0.492606	-0.954331
H154	H	1.432407	0.007394	-0.454331
H155	H	0.997052	-0.553209	-0.954307
H156	H	1.497052	-0.053209	-0.454307
H157	H	1.050466	-0.442619	-0.682489
H158	H	1.550466	0.057381	-0.182489
C159	C	0.729281	-0.209784	-0.224391
C160	C	1.229281	0.290216	0.275609
H161	H	0.692882	-0.181545	-0.194337
H162	H	1.192882	0.318455	0.305663
H163	H	0.761510	-0.177554	-0.254688
H164	H	1.261510	0.322446	0.245312
H165	H	0.761457	-0.238075	-0.189890
H166	H	1.261457	0.261925	0.310110
C167	C	0.555919	-0.503815	-0.537261
C168	C	1.055919	-0.003815	-0.037261
H169	H	0.500845	-0.497022	-0.530045
H170	H	1.000845	0.002978	-0.030045
H171	H	0.569419	-0.553559	-0.525600
H172	H	1.069419	-0.053559	-0.025600
H173	H	0.569472	-0.493033	-0.590391
H174	H	1.069472	0.006967	-0.090391
C175	C	0.432101	-0.257247	-0.274876
C176	C	0.932101	0.242753	0.225124
H177	H	0.377026	-0.264045	-0.282103
H178	H	0.877026	0.235955	0.217897
H179	H	0.445656	-0.207501	-0.286533
H180	H	0.945656	0.292499	0.213467
H181	H	0.445607	-0.268029	-0.221744
H182	H	0.945607	0.231971	0.278256
H183	H	1.095172	-0.792606	-0.503666
H184	H	1.595172	-0.292606	-0.003666
C185	C	1.248571	-0.257178	-1.091743
C186	C	1.748571	0.242822	-0.591743
H187	H	1.278690	-0.228985	-1.055348
H188	H	1.778690	0.271015	-0.555348
H189	H	1.218366	-0.224902	-1.123960
H190	H	1.718366	0.275098	-0.623960
H191	H	1.283004	-0.285511	-1.123933
H192	H	1.783004	0.214489	-0.623933
C193	C	1.100212	-0.927044	-0.525806
C194	C	1.600212	-0.427044	-0.025806
H195	H	1.062766	-0.907517	-0.561873
H196	H	1.562766	-0.407517	-0.061873
H197	H	1.097906	-0.979471	-0.526742
H198	H	1.597906	-0.479471	-0.026742
H199	H	1.151598	-0.911255	-0.540460
H200	H	1.651598	-0.411255	-0.040460
C201	C	1.248460	-0.257263	-0.670750
C202	C	1.748460	0.242737	-0.170750
H203	H	1.278591	-0.229050	-0.707163
H204	H	1.778591	0.270950	-0.207163
H205	H	1.282871	-0.285600	-0.638533
H206	H	1.782871	0.214400	-0.138533
H207	H	1.218229	-0.224995	-0.638563
H208	H	1.718229	0.275005	-0.138563
C209	C	0.997344	-0.786072	-0.422791
C210	C	1.497344	-0.286072	0.077209
H211	H	0.963379	-0.827204	-0.415110
H212	H	1.463379	-0.327204	0.084890
H213	H	0.978353	-0.756921	-0.465323
H214	H	1.478353	-0.256921	0.034677
H215	H	0.998648	-0.757074	-0.376137
H216	H	1.498648	-0.257074	0.123863
C217	C	0.729267	-0.503798	-0.537259
C218	C	1.229267	-0.003798	-0.037259
H219	H	0.692861	-0.532039	-0.567319
H220	H	1.192861	-0.032039	-0.067319
H221	H	0.761452	-0.536026	-0.506966
H222	H	1.261452	-0.036026	-0.006966
H223	H	0.761485	-0.475496	-0.571753
H224	H	1.261485	0.024504	-0.071753
C225	C	1.177719	-0.785867	-0.234209
C226	C	1.677719	-0.285867	0.265791
H227	H	1.162998	-0.805360	-0.184308
H228	H	1.662998	-0.305360	0.315692
H229	H	1.176472	-0.733436	-0.232244
H230	H	1.676472	-0.233436	0.267756
H231	H	1.229511	-0.801846	-0.247008
H232	H	1.729511	-0.301846	0.252992
C233	C	1.037958	-0.784502	-0.272675
C234	C	1.537958	-0.284502	0.227325
H235	H	1.017479	-0.753469	-0.312947
H236	H	1.517479	-0.253469	0.187053
H237	H	1.042689	-0.757170	-0.225109
H238	H	1.542689	-0.257170	0.274891
H239	H	1.003293	-0.825058	-0.264653
H240	H	1.503293	-0.325058	0.235347
C241	C	1.299082	-0.209876	-0.794592
C242	C	1.799082	0.290124	-0.294592
H243	H	1.329212	-0.181661	-0.831006
H244	H	1.829212	0.318339	-0.331006
H245	H	1.333495	-0.238211	-0.762376
H246	H	1.833495	0.261789	-0.262376
H247	H	1.268850	-0.177608	-0.762405
H248	H	1.768850	0.322392	-0.262405
H249	H	0.841299	-0.442814	-0.472359
H250	H	1.341299	0.057186	0.027641
H251	H	0.443888	-0.442860	-0.472386
H252	H	0.943888	0.057140	0.027614
H253	H	1.058143	-0.919066	-0.279821
H254	H	1.558143	-0.419066	0.220179
C255	C	1.036126	-0.456064	-1.091689
C256	C	1.536126	0.043936	-0.591689
H257	H	1.043384	-0.449274	-1.146766
H258	H	1.543384	0.050726	-0.646766
H259	H	0.983022	-0.445224	-1.078161
H260	H	1.483022	0.054776	-0.578161
H261	H	1.047666	-0.505829	-1.078146
H262	H	1.547666	-0.005829	-0.578146
H263	H	1.019755	-0.920873	-0.428131
H264	H	1.519755	-0.420873	0.071869
C265	C	1.176614	-0.927026	-0.234163
C266	C	1.676614	-0.427026	0.265837
H267	H	1.176767	-0.979509	-0.233959
H268	H	1.676767	-0.479509	0.266041
H269	H	1.160234	-0.909432	-0.184007
H270	H	1.660234	-0.409432	0.315993
H271	H	1.228227	-0.909416	-0.245213
H272	H	1.728227	-0.409416	0.254787
C273	C	1.253678	-0.928058	-0.482858
C274	C	1.753678	-0.428058	0.017142
H275	H	1.214532	-0.959787	-0.504278
H276	H	1.714532	-0.459787	-0.004278
H277	H	1.301498	-0.954695	-0.476459
H278	H	1.801498	-0.454695	0.023541
H279	H	1.262116	-0.887640	-0.517609
H280	H	1.762116	-0.387640	-0.017609
C281	C	1.248389	-0.785805	-0.486843
C282	C	1.748389	-0.285805	0.013157
H283	H	1.298774	-0.804798	-0.500535
H284	H	1.798774	-0.304798	-0.000535
H285	H	1.250136	-0.733352	-0.487030
H286	H	1.750136	-0.233352	0.012970
H287	H	1.210428	-0.802315	-0.524066
H288	H	1.710428	-0.302315	-0.024066
C289	C	1.289996	-0.784390	-0.348167
C290	C	1.789996	-0.284390	0.151833
H291	H	1.339596	-0.804040	-0.363561
H292	H	1.839596	-0.304040	0.136439
H293	H	1.278451	-0.799295	-0.295705
H294	H	1.778451	-0.299295	0.204295
H295	H	1.291791	-0.731990	-0.350785
H296	H	1.791791	-0.231990	0.149215
C297	C	1.287221	-0.926243	-0.341894
C298	C	1.787221	-0.426243	0.158106
H299	H	1.262031	-0.956787	-0.303904
H300	H	1.762031	-0.456787	0.196096
H301	H	1.310522	-0.885013	-0.316254
H302	H	1.810522	-0.385013	0.183746
H303	H	1.326922	-0.953759	-0.368308
H304	H	1.826922	-0.453759	0.131692
