data_functionalizedCrystal
_audit_creation_method	'MofGen! by Chris Wilmer'
_symmetry_space_group_name_H-M	'P1'
_symmetry_Int_Tables_number	1
_symmetry_cell_setting	triclinic
loop_
_symmetry_equiv_pos_as_xyz
  x,y,z
_cell_length_a	6.817900
_cell_length_b	14.712618
_cell_length_c	14.858329
_cell_angle_alpha	84.596690
_cell_angle_beta	104.519616
_cell_angle_gamma	77.863674
loop_
_atom_site_label
_atom_site_type_symbol
_atom_site_fract_x
_atom_site_fract_y
_atom_site_fract_z
V1	V	-4.016599	0.290227	-0.129269
V2	V	-3.766599	0.540227	0.120731
V3	V	-3.516599	0.790227	0.370731
V4	V	-3.266599	1.040227	0.620731
O5	O	-3.998979	0.284430	0.005596
O6	O	-3.748979	0.534430	0.255596
O7	O	-3.498979	0.784430	0.505596
O8	O	-3.248979	1.034430	0.755596
O9	O	-3.973308	0.288505	-0.255727
O10	O	-3.723308	0.538505	-0.005727
O11	O	-3.473308	0.788505	0.244273
O12	O	-3.223308	1.038505	0.494273
O13	O	-3.961428	0.416686	-0.127551
O14	O	-3.711428	0.666686	0.122449
O15	O	-3.461428	0.916686	0.372449
O16	O	-3.211428	1.166686	0.622449
O17	O	-4.010941	0.155361	-0.123467
O18	O	-3.760941	0.405361	0.126533
O19	O	-3.510941	0.655361	0.376533
O20	O	-3.260941	0.905361	0.626533
V21	V	-4.500442	0.274064	-0.113106
V22	V	-4.250442	0.524064	0.136894
V23	V	-4.000442	0.774064	0.386894
V24	V	-3.750442	1.024064	0.636894
O25	O	-4.277155	0.325682	-0.164725
O26	O	-4.027155	0.575682	0.085275
O27	O	-3.777155	0.825682	0.335275
O28	O	-3.527155	1.075682	0.585275
O29	O	-4.690083	0.238610	-0.077650
O30	O	-4.440083	0.488610	0.172350
O31	O	-4.190083	0.738610	0.422350
O32	O	-3.940083	0.988610	0.672350
O33	O	-4.320526	0.275787	0.013352
O34	O	-4.070526	0.525787	0.263352
O35	O	-3.820526	0.775787	0.513352
O36	O	-3.570526	1.025787	0.763352
O37	O	-4.635458	0.279862	-0.247972
O38	O	-4.385458	0.529862	0.002028
O39	O	-4.135458	0.779862	0.252028
O40	O	-3.885458	1.029862	0.502028
O41	O	-4.623497	0.408930	-0.118908
O42	O	-4.373497	0.658930	0.131092
O43	O	-4.123497	0.908930	0.381092
O44	O	-3.873497	1.158930	0.631092
O45	O	-4.332405	0.147606	-0.114824
O46	O	-4.082405	0.397606	0.135176
O47	O	-3.832405	0.647606	0.385176
O48	O	-3.582405	0.897606	0.635176
C49	C	-3.819770	0.283994	-0.286547
C50	C	-3.569770	0.533994	-0.036547
C51	C	-3.319770	0.783994	0.213453
C52	C	-3.069770	1.033994	0.463453
C53	C	-3.865616	0.283428	-0.389929
C54	C	-3.615616	0.533428	-0.139929
C55	C	-3.365616	0.783428	0.110071
C56	C	-3.115616	1.033428	0.360071
C57	C	-3.902843	0.282960	-0.473886
C58	C	-3.652843	0.532960	-0.223886
C59	C	-3.402843	0.782960	0.026114
C60	C	-3.152843	1.032960	0.276114
C61	C	-3.949565	0.282378	-0.579215
C62	C	-3.699565	0.532378	-0.329215
C63	C	-3.449565	0.782378	-0.079215
C64	C	-3.199565	1.032378	0.170785
C65	C	-3.986819	0.281914	-0.663166
C66	C	-3.736819	0.531914	-0.413166
C67	C	-3.486819	0.781914	-0.163166
C68	C	-3.236819	1.031914	0.086834
C69	C	-4.033543	0.281330	-0.768501
C70	C	-3.783543	0.531330	-0.518501
C71	C	-3.533543	0.781330	-0.268501
C72	C	-3.283543	1.031330	-0.018501
C73	C	-4.152560	0.116786	-0.119334
C74	C	-3.902560	0.366786	0.130666
C75	C	-3.652560	0.616786	0.380666
C76	C	-3.402560	0.866786	0.630666
C77	C	-4.095589	0.013403	-0.119898
C78	C	-3.845589	0.263403	0.130102
C79	C	-3.595589	0.513403	0.380102
C80	C	-3.345589	0.763403	0.630102
C81	C	-3.887085	-0.365161	-0.122005
C82	C	-3.637085	-0.115161	0.127995
C83	C	-3.387085	0.134839	0.377995
C84	C	-3.137085	0.384839	0.627995
C85	C	-3.945105	-0.259833	-0.121419
C86	C	-3.695105	-0.009833	0.128581
C87	C	-3.445105	0.240167	0.378581
C88	C	-3.195105	0.490167	0.628581
C89	C	-3.991336	-0.175882	-0.120952
C90	C	-3.741336	0.074118	0.129048
C91	C	-3.491336	0.324118	0.379048
C92	C	-3.241336	0.574118	0.629048
C93	C	-4.049358	-0.070548	-0.120364
C94	C	-3.799358	0.179452	0.129636
C95	C	-3.549358	0.429452	0.379636
C96	C	-3.299358	0.679452	0.629636
C97	C	-3.804616	0.447500	-0.123044
C98	C	-3.554616	0.697500	0.126956
C99	C	-3.304616	0.947500	0.376956
C100	C	-3.054616	1.197500	0.626956
C101	C	-3.840826	0.550883	-0.122476
C102	C	-3.590826	0.800883	0.127524
C103	C	-3.340826	1.050883	0.377524
C104	C	-3.090826	1.300883	0.627524
C105	C	-4.137406	0.280295	0.044166
C106	C	-3.887406	0.530295	0.294166
C107	C	-3.637406	0.780295	0.544166
C108	C	-3.387406	1.030295	0.794166
C109	C	-4.070797	0.280867	0.147548
C110	C	-3.820797	0.530867	0.397548
C111	C	-3.570797	0.780867	0.647548
C112	C	-3.320797	1.030867	0.897548
