data_functionalizedCrystal
_audit_creation_method	'MofGen! by Chris Wilmer'
_symmetry_space_group_name_H-M	'P1'
_symmetry_Int_Tables_number	1
_symmetry_cell_setting	triclinic
loop_
_symmetry_equiv_pos_as_xyz
  x,y,z
_cell_length_a	19.805407
_cell_length_b	19.805405
_cell_length_c	19.805399
_cell_angle_alpha	90.026615
_cell_angle_beta	90.019573
_cell_angle_gamma	90.026726
loop_
_atom_site_label
_atom_site_type_symbol
_atom_site_fract_x
_atom_site_fract_y
_atom_site_fract_z
Zn1	Zn	1.034734	-0.269479	0.382724
Zn2	Zn	1.368068	0.063854	0.716058
Zn3	Zn	1.701401	0.397188	1.049391
Zn4	Zn	1.034648	-0.382667	0.269538
Zn5	Zn	1.367982	-0.049334	0.602871
Zn6	Zn	1.701315	0.283999	0.936205
Zn7	Zn	0.921549	-0.269498	0.269549
Zn8	Zn	1.254882	0.063836	0.602882
Zn9	Zn	1.588216	0.397169	0.936215
Zn10	Zn	0.921512	-0.382631	0.382685
Zn11	Zn	1.254845	-0.049298	0.716018
Zn12	Zn	1.588178	0.284035	1.049351
O13	O	0.978111	-0.326069	0.326124
O14	O	1.311444	0.007265	0.659457
O15	O	1.644777	0.340598	0.992791
O16	O	1.129439	-0.284501	0.367722
O17	O	1.462773	0.048833	0.701055
O18	O	1.796106	0.382166	1.034388
O19	O	1.019625	-0.367678	0.174823
O20	O	1.352958	-0.034345	0.508156
O21	O	1.686292	0.298989	0.841489
O22	O	0.936615	-0.174778	0.284583
O23	O	1.269948	0.158555	0.617916
O24	O	1.603281	0.491888	0.951250
O25	O	1.129376	-0.367660	0.284564
O26	O	1.462710	-0.034326	0.617898
O27	O	1.796043	0.299007	0.951231
O28	O	1.019771	-0.174765	0.367732
O29	O	1.353105	0.158569	0.701066
O30	O	1.686438	0.491902	1.034399
O31	O	0.936531	-0.284533	0.174831
O32	O	1.269865	0.048801	0.508164
O33	O	1.603198	0.382134	0.841497
O34	O	0.826827	-0.284498	0.284544
O35	O	1.160161	0.048836	0.617878
O36	O	1.493494	0.382169	0.951211
O37	O	0.936551	-0.367598	0.477406
O38	O	1.269885	-0.034265	0.810740
O39	O	1.603218	0.299068	1.144073
O40	O	0.826800	-0.367617	0.367665
O41	O	1.160133	-0.034283	0.700998
O42	O	1.493467	0.299050	1.034332
O43	O	1.019735	-0.284466	0.477436
O44	O	1.353069	0.048867	0.810769
O45	O	1.686402	0.382201	1.144102
O46	O	1.019589	-0.477379	0.284526
O47	O	1.352922	-0.144046	0.617859
O48	O	1.686256	0.189288	0.951193
O49	O	0.936468	-0.477353	0.367654
O50	O	1.269801	-0.144019	0.700988
O51	O	1.603135	0.189314	1.034321
C52	C	0.802255	-0.326056	0.326102
C53	C	1.135588	0.007278	0.659435
C54	C	1.468921	0.340611	0.992769
C55	C	0.727023	-0.326067	0.326109
C56	C	1.060356	0.007267	0.659442
C57	C	1.393689	0.340600	0.992775
C58	C	0.691682	-0.369412	0.369319
C59	C	1.025015	-0.036078	0.702653
C60	C	1.358349	0.297255	1.035986
C61	C	0.620994	-0.369413	0.369329
C62	C	0.954327	-0.036080	0.702662
C63	C	1.287660	0.297254	1.035996
C64	C	0.585647	-0.326072	0.326124
C65	C	0.918981	0.007262	0.659457
C66	C	1.252314	0.340595	0.992790
C67	C	0.620993	-0.282722	0.282911
C68	C	0.954326	0.050611	0.616245
C69	C	1.287659	0.383945	0.949578
C70	C	0.691680	-0.282718	0.282906
C71	C	1.025013	0.050616	0.616239
C72	C	1.358347	0.383949	0.949572
C73	C	0.335920	-0.282737	0.282934
C74	C	0.669253	0.050596	0.616267
C75	C	1.002586	0.383930	0.949600
C76	C	0.265227	-0.282746	0.282941
C77	C	0.598561	0.050588	0.616274
C78	C	0.931894	0.383921	0.949608
C79	C	0.265233	-0.369432	0.369357
C80	C	0.598567	-0.036099	0.702690
C81	C	0.931900	0.297235	1.036024
C82	C	0.335920	-0.369428	0.369351
C83	C	0.669254	-0.036094	0.702685
C84	C	1.002587	0.297239	1.036018
C85	C	0.371260	-0.326076	0.326142
C86	C	0.704593	0.007258	0.659475
C87	C	1.037926	0.340591	0.992808
C88	C	0.447908	-0.326074	0.326133
C89	C	0.781242	0.007259	0.659466
C90	C	1.114575	0.340593	0.992799
C91	C	0.509000	-0.326076	0.326129
C92	C	0.842333	0.007257	0.659462
C93	C	1.175667	0.340590	0.992795
C94	C	0.978034	-0.501925	0.326099
C95	C	1.311367	-0.168591	0.659433
C96	C	1.644700	0.164742	0.992766
C97	C	0.978063	-0.577157	0.326112
C98	C	1.311396	-0.243823	0.659445
C99	C	1.644729	0.089510	0.992778
C100	C	1.021337	-0.612436	0.369441
C101	C	1.354670	-0.279102	0.702775
C102	C	1.688003	0.054231	1.036108
C103	C	1.021361	-0.683124	0.369454
C104	C	1.354694	-0.349791	0.702787
C105	C	1.688028	-0.016457	1.036121
C106	C	0.978114	-0.718532	0.326133
C107	C	1.311448	-0.385199	0.659466
C108	C	1.644781	-0.051866	0.992799
C109	C	0.934835	-0.683249	0.282801
C110	C	1.268169	-0.349915	0.616134
C111	C	1.601502	-0.016582	0.949468
C112	C	0.934808	-0.612561	0.282792
C113	C	1.268141	-0.279228	0.616126
C114	C	1.601475	0.054105	0.949459
C115	C	0.934944	-0.968322	0.282836
C116	C	1.268277	-0.634988	0.616169
C117	C	1.601611	-0.301655	0.949502
C118	C	0.934976	-1.039014	0.282846
C119	C	1.268310	-0.705681	0.616180
C120	C	1.601643	-0.372347	0.949513
C121	C	1.021497	-1.038884	0.369497
C122	C	1.354831	-0.705551	0.702831
C123	C	1.688164	-0.372218	1.036164
C124	C	1.021470	-0.968197	0.369489
C125	C	1.354803	-0.634864	0.702822
C126	C	1.688137	-0.301531	1.036155
C127	C	0.978189	-0.932920	0.326160
C128	C	1.311522	-0.599586	0.659493
C129	C	1.644855	-0.266253	0.992826
C130	C	0.978162	-0.856271	0.326147
C131	C	1.311495	-0.522938	0.659481
C132	C	1.644829	-0.189605	0.992814
C133	C	0.978144	-0.795179	0.326141
C134	C	1.311477	-0.461846	0.659474
C135	C	1.644811	-0.128513	0.992808
C136	C	1.154653	-0.326082	0.326146
C137	C	1.487987	0.007251	0.659480
C138	C	1.821320	0.340584	0.992813
C139	C	1.229885	-0.326088	0.326156
C140	C	1.563219	0.007245	0.659489
C141	C	1.896552	0.340579	0.992822
C142	C	0.978149	-0.326026	0.502667
C143	C	1.311482	0.007307	0.836000
C144	C	1.644815	0.340641	1.169333
C145	C	0.978165	-0.326008	0.577899
C146	C	1.311498	0.007325	0.911232
C147	C	1.644832	0.340659	1.244565
C148	C	0.978207	-0.149526	0.326163
C149	C	1.311540	0.183807	0.659497
C150	C	1.644873	0.517141	0.992830
C151	C	0.978248	-0.074294	0.326180
C152	C	1.311581	0.259039	0.659513
C153	C	1.644914	0.592373	0.992847
C154	C	0.978112	-0.326062	0.150268
C155	C	1.311445	0.007271	0.483601
C156	C	1.644779	0.340604	0.816935
C157	C	0.978227	-0.325890	0.075036
C158	C	1.311560	0.007444	0.408370
C159	C	1.644894	0.340777	0.741703
C160	C	1.021480	-0.282719	0.613259
C161	C	1.354813	0.050615	0.946592
C162	C	1.688147	0.383948	1.279926
C163	C	1.021487	-0.282699	0.683948
C164	C	1.354820	0.050634	1.017281
C165	C	1.688153	0.383968	1.350614
C166	C	0.978182	-0.325973	0.719274
C167	C	1.311515	0.007361	1.052608
C168	C	1.644848	0.340694	1.385941
C169	C	0.934862	-0.369264	0.683909
C170	C	1.268195	-0.035930	1.017242
C171	C	1.601529	0.297403	1.350576
C172	C	0.934852	-0.369279	0.613222
C173	C	1.268186	-0.035946	0.946555
C174	C	1.601519	0.297387	1.279888
C175	C	0.934900	-0.369201	0.968982
C176	C	1.268234	-0.035867	1.302316
C177	C	1.601567	0.297466	1.635649
C178	C	0.934915	-0.369183	1.039675
C179	C	1.268248	-0.035850	1.373008
C180	C	1.601582	0.297484	1.706341
C181	C	1.021535	-0.282620	1.039708
C182	C	1.354868	0.050713	1.373042
C183	C	1.688202	0.384046	1.706375
C184	C	1.021525	-0.282636	0.969021
C185	C	1.354858	0.050697	1.302354
C186	C	1.688192	0.384031	1.635688
C187	C	0.978203	-0.325924	0.933662
C188	C	1.311536	0.007409	1.266995
C189	C	1.644870	0.340742	1.600328
C190	C	0.978195	-0.325944	0.857013
C191	C	1.311529	0.007389	1.190347
C192	C	1.644862	0.340723	1.523680
C193	C	0.978193	-0.325957	0.795922
C194	C	1.311526	0.007377	1.129255
C195	C	1.644859	0.340710	1.462588
H196	H	0.236450	-0.247448	0.247758
H197	H	0.569784	0.085885	0.581092
H198	H	0.903117	0.419219	0.914425
C199	C	0.887204	-0.573755	0.235125
C200	C	1.220537	-0.240422	0.568459
C201	C	1.553870	0.092911	0.901792
N202	N	0.851345	-0.544527	0.199223
N203	N	1.184678	-0.211194	0.532556
N204	N	1.518012	0.122140	0.865889
C205	C	0.374784	-0.235052	0.235397
C206	C	0.708117	0.098281	0.568731
C207	C	1.041450	0.431614	0.902064
N208	N	0.404059	-0.199135	0.199589
N209	N	0.737392	0.134198	0.532923
N210	N	1.070725	0.467531	0.866256
C211	C	0.582109	-0.235044	0.235387
C212	C	0.915442	0.098289	0.568720
C213	C	1.248776	0.431622	0.902053
N214	N	0.552823	-0.199134	0.199589
N215	N	0.886156	0.134199	0.532922
N216	N	1.219489	0.467532	0.866255
H217	H	0.899600	-0.404495	0.712678
H218	H	1.232933	-0.071162	1.046011
H219	H	1.566267	0.262171	1.379344
H220	H	0.720456	-0.404707	0.404500
H221	H	1.053790	-0.071374	0.737833
H222	H	1.387123	0.261959	1.071167
C223	C	0.887269	-0.416785	1.078533
C224	C	1.220602	-0.083452	1.411866
C225	C	1.553936	0.249882	1.745199
N226	N	0.851384	-0.452636	1.107801
N227	N	1.184717	-0.119303	1.441134
N228	N	1.518050	0.214030	1.774467
C229	C	1.068975	-0.721927	0.417111
C230	C	1.402308	-0.388594	0.750445
C231	C	1.735642	-0.055261	1.083778
N232	N	1.104843	-0.751154	0.453006
N233	N	1.438176	-0.417820	0.786340
N234	N	1.771510	-0.084487	1.119673
H235	H	0.592222	-0.404709	0.404515
H236	H	0.925556	-0.071376	0.737848
H237	H	1.258889	0.261957	1.071181
C238	C	1.069103	-1.077696	0.417166
C239	C	1.402436	-0.744363	0.750499
C240	C	1.735769	-0.411029	1.083833
N241	N	1.104959	-1.106928	0.453068
N242	N	1.438292	-0.773594	0.786402
N243	N	1.771625	-0.440261	1.119735
C244	C	0.887204	-0.416902	0.574326
C245	C	1.220537	-0.083569	0.907659
C246	C	1.553870	0.249764	1.240992
N247	N	0.851312	-0.452772	0.545030
N248	N	1.184645	-0.119439	0.878363
N249	N	1.517979	0.213895	1.211697
C250	C	1.069119	-0.235113	0.574406
C251	C	1.402452	0.098221	0.907739
C252	C	1.735786	0.431554	1.241073
N253	N	1.105000	-0.199252	0.545144
N254	N	1.438333	0.134081	0.878477
N255	N	1.771667	0.467415	1.211811
C256	C	0.374798	-0.417107	0.416879
C257	C	0.708131	-0.083774	0.750213
C258	C	1.041464	0.249560	1.083546
N259	N	0.404079	-0.453019	0.452680
N260	N	0.737412	-0.119685	0.786013
N261	N	1.070746	0.213648	1.119347
H262	H	0.899635	-0.404459	0.940201
H263	H	1.232968	-0.071125	1.273535
H264	H	1.566301	0.262208	1.606868
C265	C	0.887318	-0.929526	0.235188
C266	C	1.220652	-0.596192	0.568521
C267	C	1.553985	-0.262859	0.901854
N268	N	0.851438	-0.900302	0.199303
N269	N	1.184771	-0.566969	0.532636
N270	N	1.518105	-0.233635	0.865970
H271	H	1.056791	-0.247400	0.940261
H272	H	1.390124	0.085933	1.273595
H273	H	1.723457	0.419266	1.606928
C274	C	0.226354	-0.417115	0.416895
C275	C	0.559687	-0.083782	0.750228
C276	C	0.893020	0.249552	1.083561
N277	N	0.197071	-0.453030	0.452699
N278	N	0.530404	-0.119696	0.786032
N279	N	0.863737	0.213637	1.119365
H280	H	0.720453	-0.247418	0.247723
H281	H	1.053787	0.085915	0.581056
H282	H	1.387120	0.419249	0.914389
H283	H	1.056688	-0.939370	0.404762
H284	H	1.390021	-0.606037	0.738096
H285	H	1.723354	-0.272703	1.071429
H286	H	1.056556	-0.583611	0.404715
H287	H	1.389889	-0.250277	0.738049
H288	H	1.723223	0.083056	1.071382
H289	H	0.899756	-1.067841	0.247568
H290	H	1.233090	-0.734508	0.580901
H291	H	1.566423	-0.401175	0.914235
H292	H	0.899620	-0.712084	0.247531
H293	H	1.232954	-0.378750	0.580864
H294	H	1.566287	-0.045417	0.914198
C295	C	1.069138	-0.235078	0.722841
C296	C	1.402471	0.098255	1.056174
C297	C	1.735805	0.431588	1.389507
N298	N	1.105031	-0.199208	0.752135
N299	N	1.438364	0.134125	1.085468
N300	N	1.771697	0.467458	1.418801
H301	H	1.056807	-0.247370	1.068506
H302	H	1.390141	0.085963	1.401839
H303	H	1.723474	0.419296	1.735173
