data_functionalizedCrystal
_audit_creation_method	'MofGen! by Chris Wilmer'
_symmetry_space_group_name_H-M	'P1'
_symmetry_Int_Tables_number	1
_symmetry_cell_setting	triclinic
loop_
_symmetry_equiv_pos_as_xyz
  x,y,z
_cell_length_a	12.837943
_cell_length_b	12.837942
_cell_length_c	11.892095
_cell_angle_alpha	85.697431
_cell_angle_beta	85.689438
_cell_angle_gamma	85.171060
loop_
_atom_site_label
_atom_site_type_symbol
_atom_site_fract_x
_atom_site_fract_y
_atom_site_fract_z
O1	O	1.408367	-0.266110	-0.093982
O2	O	1.105234	-0.252667	-0.093989
O3	O	1.250078	-0.107822	-0.093979
O4	O	1.263522	-0.410955	-0.093992
O5	O	1.237999	-0.119879	0.094028
O6	O	1.093155	-0.264723	0.094018
O7	O	1.396288	-0.278167	0.094025
Zn8	Zn	1.242803	-0.273359	0.123871
Zn9	Zn	1.258718	-0.257474	-0.123836
O10	O	1.251443	-0.423011	0.094014
C11	C	1.060125	-0.254153	0.000014
C12	C	0.943710	-0.240609	0.000011
C13	C	0.718835	-0.403439	0.000020
C14	C	0.609453	-0.390717	0.000019
C15	C	0.615561	-0.202446	0.000015
C16	C	0.724943	-0.215167	0.000017
C17	C	0.776577	-0.315667	0.000017
C18	C	0.885961	-0.328387	0.000011
C19	C	0.892066	-0.140117	0.000015
C20	C	0.782684	-0.127395	0.000014
C21	C	1.239497	-0.074781	0.000024
C22	C	1.225953	0.041634	0.000022
C23	C	1.441397	-0.276680	0.000020
C24	C	1.557812	-0.290224	0.000015
C25	C	1.262024	-0.456052	0.000009
C26	C	1.275569	-0.572467	0.000004
N27	N	1.231950	-0.284200	0.292925
C28	C	1.388784	0.266509	0.000002
C29	C	1.376062	0.375892	-0.000000
C30	C	1.187791	0.369784	0.000007
C31	C	1.200512	0.260402	0.000009
C32	C	1.301011	0.208768	0.000008
C33	C	1.313731	0.099383	0.000019
C34	C	1.125461	0.093278	0.000018
C35	C	1.112740	0.202660	0.000016
N36	N	1.269579	-0.246626	-0.292889
C37	C	1.345098	-0.171130	0.529580
C38	C	1.337519	-0.178716	0.647922
C39	C	1.209210	-0.306952	0.647951
C40	C	1.216788	-0.299366	0.529610
C41	C	1.284736	-0.231454	0.470428
C42	C	1.292319	-0.223874	0.352085
C43	C	1.164005	-0.352104	0.352116
C44	C	1.156426	-0.359690	0.470458
H45	H	1.395563	0.057344	0.000022
C46	C	1.098414	-0.417729	0.288097
C47	C	1.037311	-0.478844	0.365260
C48	C	0.976892	-0.539322	0.306327
H49	H	1.053986	-0.372901	0.241934
H50	H	1.143314	-0.462145	0.241951
H51	H	0.992415	-0.434433	0.411386
H52	H	1.081712	-0.523692	0.411425
H53	H	1.021792	-0.583738	0.260182
H54	H	0.932470	-0.494486	0.260167
H55	H	0.935433	-0.580802	0.358673
C56	C	0.546831	-0.486036	-0.000217
C57	C	0.577793	-0.539709	-0.096956
C58	C	0.520120	-0.627517	-0.097219
H59	H	0.559246	-0.531115	0.065268
H60	H	0.474284	-0.464108	-0.000280
H61	H	0.650324	-0.561638	-0.096883
H62	H	0.565376	-0.494660	-0.162458
H63	H	0.447572	-0.605589	-0.097281
H64	H	0.532539	-0.672587	-0.031729
H65	H	0.541112	-0.663939	-0.162859
C66	C	0.954576	-0.044679	-0.000042
C67	C	0.885943	0.046053	-0.000072
C68	C	0.943490	0.133987	-0.000144
H69	H	0.993175	-0.049780	0.065500
H70	H	1.001563	-0.041467	-0.065633
H71	H	0.838975	0.042841	0.065512
H72	H	0.847343	0.051188	-0.065609
H73	H	0.990476	0.137199	-0.065735
H74	H	0.982086	0.128876	0.065399
H75	H	0.896932	0.195560	-0.000175
C76	C	1.135364	-0.380508	0.712369
C77	C	1.061445	-0.322723	0.780338
C78	C	0.993409	-0.390447	0.839710
H79	H	1.100385	-0.415384	0.660330
H80	H	1.174337	-0.430765	0.758597
H81	H	1.022476	-0.272486	0.734113
H82	H	1.096393	-0.287850	0.832398
H83	H	1.032382	-0.440704	0.885939
H84	H	0.958438	-0.425319	0.787663
H85	H	0.943253	-0.351252	0.885842
H86	H	0.740628	-0.045572	0.000026
H87	H	0.928000	-0.410219	0.000013
C88	C	1.497801	0.210246	0.000065
C89	C	1.490153	0.102093	0.000096
C90	C	1.590558	0.050231	0.000171
H91	H	1.538700	0.233501	-0.065477
H92	H	1.530194	0.225163	0.065656
H93	H	1.457775	0.087183	-0.065488
H94	H	1.449272	0.078808	0.065633
H95	H	1.622950	0.065148	0.065761
H96	H	1.631449	0.073494	-0.065373
H97	H	1.585381	-0.023157	0.000202
C98	C	1.418876	-0.097533	0.465115
C99	C	1.412624	-0.103833	0.348815
C100	C	1.480597	-0.036075	0.289396
H101	H	1.399471	-0.027722	0.484359
H102	H	1.488641	-0.117123	0.484443
H103	H	1.342874	-0.084237	0.329495
H104	H	1.432038	-0.173629	0.329538
H105	H	1.550363	-0.055665	0.308724
H106	H	1.461186	0.033732	0.308650
H107	H	1.476372	-0.040347	0.210482
C108	C	0.774975	-0.512505	-0.000217
C109	C	0.843788	-0.519111	-0.096956
C110	C	0.895510	-0.619573	-0.097220
H111	H	0.813393	-0.525690	0.065269
H112	H	0.724956	-0.562990	-0.000281
H113	H	0.893800	-0.468642	-0.096881
H114	H	0.805396	-0.505947	-0.162457
H115	H	0.845491	-0.670057	-0.097284
H116	H	0.933922	-0.632749	-0.031730
H117	H	0.942198	-0.624071	-0.162861
H118	H	0.573495	-0.120630	0.000108
C119	C	1.403181	-0.113172	0.711941
C120	C	1.464321	-0.052094	0.634778
C121	C	1.524831	0.008293	0.693710
H122	H	1.358372	-0.068728	0.758118
H123	H	1.447581	-0.158091	0.758072
H124	H	1.419925	-0.007180	0.588666
H125	H	1.509151	-0.096511	0.588598
H126	H	1.569231	-0.036626	0.739841
H127	H	1.480014	0.052730	0.739886
H128	H	1.566329	0.049734	0.641365
H129	H	1.105969	0.411844	-0.000004
C130	C	1.082584	-0.433257	0.534865
C131	C	1.008656	-0.375489	0.602840
C132	C	0.940626	-0.443229	0.662197
H133	H	1.047613	-0.468130	0.482817
H134	H	1.121561	-0.483516	0.581088
H135	H	0.969684	-0.325250	0.556621
H136	H	1.043597	-0.340620	0.654909
H137	H	0.979602	-0.493487	0.708420
H138	H	0.905662	-0.478097	0.610141
H139	H	0.890464	-0.404045	0.708333
H140	H	1.447536	0.422901	-0.000009
H141	H	1.053990	0.046252	0.000033
H142	H	1.030916	0.244716	0.000012
H143	H	1.347647	-0.168579	0.303901
