data_functionalizedCrystal
_audit_creation_method	'MofGen! by Chris Wilmer'
_symmetry_space_group_name_H-M	'P1'
_symmetry_Int_Tables_number	1
_symmetry_cell_setting	triclinic
loop_
_symmetry_equiv_pos_as_xyz
  x,y,z
_cell_length_a	15.944551
_cell_length_b	16.053802
_cell_length_c	16.992695
_cell_angle_alpha	92.741074
_cell_angle_beta	87.083481
_cell_angle_gamma	87.423060
loop_
_atom_site_label
_atom_site_type_symbol
_atom_site_fract_x
_atom_site_fract_y
_atom_site_fract_z
O1	O	1.124624	-0.069342	0.097830
O2	O	1.624624	0.430658	0.597830
O3	O	0.880912	-0.069363	0.110297
O4	O	1.380912	0.430637	0.610297
O5	O	1.001791	-0.069346	-0.010079
O6	O	1.501791	0.430654	0.489921
O7	O	1.003745	-0.069359	0.218206
O8	O	1.503745	0.430641	0.718206
O9	O	0.995135	0.069512	-0.003480
O10	O	1.495135	0.569512	0.496520
O11	O	0.874256	0.069495	0.116896
O12	O	1.374256	0.569495	0.616896
O13	O	1.117969	0.069516	0.104429
O14	O	1.617969	0.569516	0.604429
Zn15	Zn	0.995056	0.091552	0.111710
Zn16	Zn	1.495056	0.591552	0.611710
Zn17	Zn	1.003825	-0.091399	0.103016
Zn18	Zn	1.503825	0.408601	0.603016
O19	O	0.997090	0.069499	0.224805
O20	O	1.497090	0.569499	0.724805
C21	C	0.846256	0.000063	0.113079
C22	C	1.346256	0.500063	0.613079
C23	C	0.752906	0.000055	0.111527
C24	C	1.252906	0.500055	0.611527
C25	C	0.532795	0.000076	0.033203
C26	C	1.032795	0.500076	0.533203
C27	C	0.477496	-0.068390	0.066321
C28	C	0.977496	0.431610	0.566321
C29	C	0.581991	0.000065	0.108720
C30	C	1.081991	0.500065	0.608720
C31	C	0.470958	0.068513	0.072845
C32	C	0.970958	0.568513	0.572845
C33	C	0.416896	0.000079	0.106003
C34	C	0.916896	0.500079	0.606003
C35	C	0.527924	-0.068457	0.141855
C36	C	1.027924	0.431543	0.641855
C37	C	0.521389	0.068507	0.148371
C38	C	1.021389	0.568507	0.648371
C39	C	0.466111	0.000024	0.181543
C40	C	0.966111	0.500024	0.681543
C41	C	0.677099	0.000057	0.110283
C42	C	1.177099	0.500057	0.610283
C43	C	0.321790	0.000081	0.104446
C44	C	0.821790	0.500081	0.604446
C45	C	0.995949	0.000083	-0.035992
C46	C	1.495949	0.500083	0.464008
C47	C	0.988449	0.000082	-0.123037
C48	C	1.488449	0.500082	0.376963
C49	C	1.152625	0.000087	0.101647
C50	C	1.652625	0.500087	0.601647
C51	C	1.245975	0.000090	0.103199
C52	C	1.745975	0.500090	0.603199
N53	N	0.989078	0.216411	0.117643
N54	N	1.489078	0.716411	0.617643
N55	N	1.009809	-0.216259	0.097077
N56	N	1.509809	0.283741	0.597077
C57	C	1.040533	0.260113	0.066441
C58	C	1.540533	0.760113	0.566441
C59	C	1.036359	0.347519	0.070598
C60	C	1.536359	0.847519	0.570598
C61	C	0.980734	0.391222	0.125962
C62	C	1.480734	0.891222	0.625962
C63	C	0.929273	0.347515	0.177166
C64	C	1.429273	0.847515	0.677166
C65	C	0.933443	0.260110	0.173004
C66	C	1.433443	0.760110	0.673004
C67	C	0.962518	0.652629	0.144119
C68	C	1.462518	1.152629	0.644119
C69	C	0.958354	0.740040	0.148279
C70	C	1.458354	1.240040	0.648279
C71	C	1.065439	0.740038	0.041710
C72	C	1.565439	1.240038	0.541710
C73	C	1.069608	0.652632	0.037556
C74	C	1.569608	1.152632	0.537556
C75	C	1.018144	0.608932	0.088757
C76	C	1.518144	1.108932	0.588757
N77	N	0.976469	0.480565	0.130215
N78	N	1.476469	0.980565	0.630215
N79	N	1.022406	0.519590	0.084500
N80	N	1.522406	1.019590	0.584500
C81	C	1.060814	0.000089	-0.173273
C82	C	1.560814	0.500089	0.326727
C83	C	1.053762	0.000080	-0.255060
C84	C	1.553762	0.500080	0.244940
C85	C	0.974345	0.000071	-0.286610
C86	C	1.474345	0.500071	0.213390
C87	C	0.901975	0.000061	-0.236367
C88	C	1.401975	0.500061	0.263633
C89	C	0.909028	0.000064	-0.154581
C90	C	1.409028	0.500064	0.345419
C91	C	0.945114	0.000057	-0.530210
C92	C	1.445114	0.500057	-0.030210
C93	C	0.938067	0.000057	-0.612001
C94	C	1.438067	0.500057	-0.112001
C95	C	1.089855	0.000074	-0.630689
C96	C	1.589855	0.500074	-0.130689
C97	C	1.096901	0.000082	-0.548901
C98	C	1.596901	0.500082	-0.048901
C99	C	1.024531	0.000068	-0.498666
C100	C	1.524531	0.500068	0.001334
N101	N	0.967135	0.000065	-0.370209
N102	N	1.467135	0.500065	0.129791
N103	N	1.031742	0.000068	-0.415068
N104	N	1.531742	0.500068	0.084932
C105	C	1.002931	0.000068	0.250718
C106	C	1.502931	0.500068	0.750718
C107	C	1.010432	0.000064	0.337762
C108	C	1.510432	0.500064	0.837762
H109	H	0.458018	-0.126270	0.031630
H110	H	0.958018	0.373730	0.531630
N111	N	0.545858	0.141108	0.191872
N112	N	1.045858	0.641108	0.691872
N113	N	0.521224	0.153984	0.262602
N114	N	1.021224	0.653984	0.762602
H115	H	0.538506	0.205263	0.293321
H116	H	1.038506	0.705263	0.793321
H117	H	1.078258	0.383100	0.028905
H118	H	1.578258	0.883100	0.528905
N119	N	1.141937	0.000118	-0.141048
N120	N	1.641937	0.500118	0.358952
N121	N	1.189155	0.058657	-0.153664
N122	N	1.689155	0.558657	0.346336
H123	H	1.246451	0.058677	-0.130907
H124	H	1.746451	0.558677	0.369093
N125	N	1.117986	0.784677	-0.010605
N126	N	1.617986	1.284677	0.489395
N127	N	1.112433	0.774926	-0.083545
N128	N	1.612433	1.274926	0.416455
H129	H	1.149543	0.806452	-0.120497
H130	H	1.649543	1.306452	0.379503
N131	N	1.178019	0.000099	-0.516667
N132	N	1.678019	0.500099	-0.016667
N133	N	1.196078	0.058638	-0.470340
N134	N	1.696078	0.558638	0.029660
H135	H	1.253369	0.058655	-0.447574
H136	H	1.753369	0.558655	0.052426
H137	H	0.883977	0.383103	0.222242
H138	H	1.383977	0.883103	0.722242
N139	N	1.126435	0.607901	-0.018930
N140	N	1.626435	1.107901	0.481070
N141	N	1.182505	0.559115	0.003767
N142	N	1.682505	1.059115	0.503767
H143	H	1.222645	0.527492	-0.036101
H144	H	1.722645	1.027492	0.463899
H145	H	0.445954	0.126394	0.043641
H146	H	0.945954	0.626394	0.543641
N147	N	0.901535	0.784692	0.204833
N148	N	1.401535	1.284692	0.704833
N149	N	0.929119	0.833450	0.255846
N150	N	1.429119	1.333450	0.755846
H151	H	0.888993	0.864985	0.295786
H152	H	1.388993	1.364985	0.795786
H153	H	1.085833	0.224535	0.021361
H154	H	1.585833	0.724535	0.521361
H155	H	0.920615	0.617056	0.185811
H156	H	1.420615	1.117056	0.685811
N157	N	0.559172	-0.141137	0.178457
N158	N	1.059172	0.358863	0.678457
N159	N	0.636395	-0.152881	0.185536
N160	N	1.136395	0.347119	0.685536
H161	H	0.658466	-0.204207	0.211391
H162	H	1.158466	0.295793	0.711391
N163	N	0.880873	0.215481	0.225309
N164	N	1.380873	0.715481	0.725309
N165	N	0.831210	0.254509	0.274737
N166	N	1.331210	0.754509	0.774737
H167	H	0.794078	0.222991	0.311677
H168	H	1.294078	0.722991	0.811677
N169	N	1.127690	0.000079	-0.306365
N170	N	1.627690	0.500079	0.193635
N171	N	1.198593	0.000089	-0.278186
N172	N	1.698593	0.500089	0.221814
H173	H	1.250809	0.000085	-0.314419
H174	H	1.750809	0.500085	0.185581
H175	H	0.886185	0.000045	-0.489317
H176	H	1.386185	0.500045	0.010683
N177	N	1.163766	0.000090	-0.682014
N178	N	1.663766	0.500090	-0.182014
N179	N	1.157462	0.000089	-0.755036
N180	N	1.657462	0.500089	-0.255036
H181	H	1.209665	0.000099	-0.791286
H182	H	1.709665	0.500099	-0.291286
H183	H	0.873392	0.000062	-0.637684
H184	H	1.373392	0.500062	-0.137684
N185	N	0.820858	0.000041	-0.268604
N186	N	1.320858	0.500041	0.231396
N187	N	0.814570	0.000039	-0.341627
N188	N	1.314570	0.500039	0.158373
H189	H	0.757280	0.000026	-0.364395
H190	H	1.257280	0.500026	0.135605
H191	H	0.437162	-0.000018	0.244278
H192	H	0.937162	0.499982	0.744278
N193	N	0.835101	0.000046	-0.103275
N194	N	1.335101	0.500046	0.396725
N195	N	0.764197	0.000032	-0.131452
N196	N	1.264197	0.500032	0.368548
H197	H	0.711983	0.000014	-0.095218
H198	H	1.211983	0.500014	0.404782
H199	H	0.561929	-0.000005	-0.029473
H200	H	1.061929	0.499995	0.470527
