data_functionalizedCrystal
_audit_creation_method	'MofGen! by Chris Wilmer'
_symmetry_space_group_name_H-M	'P1'
_symmetry_Int_Tables_number	1
_symmetry_cell_setting	triclinic
loop_
_symmetry_equiv_pos_as_xyz
  x,y,z
_cell_length_a	18.215407
_cell_length_b	29.839131
_cell_length_c	18.215399
_cell_angle_alpha	89.969127
_cell_angle_beta	89.980167
_cell_angle_gamma	90.041868
loop_
_atom_site_label
_atom_site_type_symbol
_atom_site_fract_x
_atom_site_fract_y
_atom_site_fract_z
Zn1	Zn	1.124987	-0.178853	-0.416101
Zn2	Zn	1.124860	-0.253982	-0.293028
Zn3	Zn	1.001920	-0.178867	-0.293048
Zn4	Zn	1.001850	-0.253957	-0.416053
O5	O	1.063404	-0.216415	-0.354558
O6	O	1.227955	-0.188823	-0.399787
O7	O	1.108528	-0.244034	-0.190047
O8	O	1.018327	-0.115998	-0.309400
O9	O	1.227861	-0.244020	-0.309366
O10	O	1.108745	-0.115987	-0.399806
O11	O	1.018204	-0.188848	-0.190061
O12	O	0.898926	-0.188824	-0.309354
O13	O	1.018209	-0.243978	-0.519044
O14	O	0.898875	-0.243992	-0.399725
O15	O	1.108677	-0.188799	-0.519079
O16	O	1.108460	-0.316846	-0.309320
O17	O	1.018086	-0.316827	-0.399705
C18	C	0.872198	-0.216407	-0.354537
C19	C	0.790399	-0.216414	-0.354545
C20	C	0.602198	-0.245186	-0.401542
C21	C	0.525339	-0.245187	-0.401551
C22	C	0.525363	-0.187652	-0.307589
C23	C	0.602220	-0.187648	-0.307584
C24	C	0.640636	-0.216418	-0.354560
C25	C	0.486920	-0.216423	-0.354574
C26	C	0.403586	-0.216424	-0.354583
C27	C	0.723975	-0.216416	-0.354551
C28	C	1.063272	-0.333137	-0.354521
C29	C	1.063282	-0.383072	-0.354530
C30	C	1.110548	-0.692712	-0.307563
C31	C	1.110639	-0.880385	-0.307591
O32	O	1.150721	-0.904647	-0.267629
N33	N	1.063557	-0.903857	-0.354613
C34	C	1.016452	-0.880407	-0.401635
O35	O	0.976414	-0.904678	-0.441636
C36	C	1.016366	-0.692735	-0.401609
C37	C	1.063446	-0.669266	-0.354579
C38	C	1.157625	-0.669243	-0.260536
C39	C	1.157599	-0.622327	-0.260527
C40	C	1.110496	-0.598881	-0.307544
C41	C	1.063420	-0.622350	-0.354570
C42	C	0.969265	-0.669287	-0.448634
C43	C	0.969249	-0.622365	-0.448625
C44	C	1.016329	-0.598896	-0.401595
C45	C	1.016291	-0.551989	-0.401577
N46	N	1.063373	-0.528517	-0.354554
C47	C	1.110476	-0.551963	-0.307538
C48	C	1.016500	-0.978938	-0.401644
C49	C	1.016521	-1.025856	-0.401649
C50	C	1.110709	-1.025830	-0.307606
C51	C	1.110684	-0.978911	-0.307598
C52	C	1.063582	-0.955466	-0.354622
C53	C	1.110417	-0.453437	-0.307521
C54	C	1.110385	-0.406518	-0.307514
C55	C	1.016200	-0.406547	-0.401559
C56	C	1.016229	-0.453463	-0.401564
C57	C	1.063344	-0.476907	-0.354543
O58	O	0.976236	-0.527698	-0.441523
O59	O	1.150520	-0.527685	-0.267554
C60	C	1.110574	-0.739627	-0.307572
C61	C	1.063498	-0.763097	-0.354598
C62	C	1.016395	-0.739651	-0.401615
C63	C	1.063518	-0.810015	-0.354604
C64	C	1.110621	-0.833461	-0.307587
C65	C	1.157703	-0.809989	-0.260565
C66	C	1.157677	-0.763074	-0.260555
C67	C	0.969313	-0.763122	-0.448637
C68	C	0.969342	-0.810038	-0.448642
C69	C	1.016445	-0.833484	-0.401625
C70	C	1.255357	-0.216423	-0.354579
C71	C	1.337156	-0.216426	-0.354589
C72	C	1.063449	-0.216384	-0.546511
C73	C	1.063468	-0.216370	-0.628310
C74	C	1.063558	-0.099236	-0.354610
C75	C	1.063623	-0.049302	-0.354633
C76	C	1.110592	-0.187612	-0.816523
C77	C	1.110601	-0.187599	-0.893382
C78	C	1.016397	-0.245059	-0.893334
C79	C	1.016385	-0.245070	-0.816477
C80	C	1.063487	-0.216347	-0.778073
C81	C	1.063507	-0.216323	-0.931789
C82	C	1.063517	-0.216309	-1.015123
C83	C	1.063477	-0.216360	-0.694734
C84	C	1.063402	-0.216413	-0.163351
C85	C	1.063526	-0.216300	-0.081553
H86	H	1.148784	-0.472520	-0.269233
O87	O	0.643636	-0.276202	-0.452224
H88	H	0.678617	-0.299038	-0.419228
O89	O	0.965553	-0.276055	-0.775009
H90	H	0.978118	-0.311317	-0.789732
H91	H	0.494047	-0.268612	-0.439810
O92	O	0.918485	-0.694591	-0.499362
H93	H	0.951413	-0.715933	-0.536836
H94	H	0.494076	-0.164229	-0.269342
H95	H	1.148944	-0.164223	-0.785257
H96	H	1.148958	-0.164199	-0.924684
H97	H	1.148723	-0.387411	-0.269213
O98	O	0.643687	-0.156626	-0.256897
H99	H	0.604064	-0.136628	-0.224221
O100	O	0.965596	-0.276040	-0.934754
H101	H	0.973521	-0.271208	-0.994658
H102	H	1.195937	-0.603221	-0.222233
H103	H	1.195985	-0.688328	-0.222250
H104	H	0.930957	-0.744036	-0.486924
O105	O	1.161469	-0.953599	-0.256881
H106	H	1.194227	-0.977789	-0.224195
O107	O	1.208468	-0.737764	-0.209840
H108	H	1.175552	-0.716425	-0.172353
O109	O	1.161528	-1.051122	-0.256907
H110	H	1.153636	-1.087689	-0.264825
O111	O	1.208518	-0.835287	-0.209869
H112	H	1.175618	-0.856707	-0.172407
O113	O	0.965738	-1.051168	-0.452369
H114	H	0.932989	-1.026977	-0.485065
O115	O	0.918553	-0.835346	-0.499368
H116	H	0.926474	-0.871911	-0.491478
O117	O	0.965675	-0.953658	-0.452353
H118	H	0.978252	-0.962639	-0.510126
O119	O	0.918437	-0.597077	-0.499336
H120	H	0.885701	-0.621282	-0.532030
H121	H	0.977895	-0.472573	-0.439862
O122	O	0.965401	-0.381255	-0.452273
H123	H	0.973304	-0.344688	-0.444367
