data_functionalizedCrystal
_audit_creation_method	'MofGen! by Chris Wilmer'
_symmetry_space_group_name_H-M	'P1'
_symmetry_Int_Tables_number	1
_symmetry_cell_setting	triclinic
loop_
_symmetry_equiv_pos_as_xyz
  x,y,z
_cell_length_a	13.635800
_cell_length_b	13.212833
_cell_length_c	13.535362
_cell_angle_alpha	92.731971
_cell_angle_beta	111.863454
_cell_angle_gamma	73.701881
loop_
_atom_site_label
_atom_site_type_symbol
_atom_site_fract_x
_atom_site_fract_y
_atom_site_fract_z
V1	V	2.064588	-0.146509	0.318132
O2	O	2.055836	0.004832	0.326392
O3	O	2.041471	-0.288380	0.302189
O4	O	2.062047	-0.145225	0.463162
O5	O	2.035117	-0.139314	0.164304
V6	V	2.303455	-0.128293	0.301406
O7	O	2.201566	-0.186469	0.354824
O8	O	2.391575	-0.088333	0.264715
O9	O	2.214968	0.013578	0.317350
O10	O	2.370905	-0.279634	0.293146
O11	O	2.391624	-0.135488	0.455234
O12	O	2.194392	-0.129577	0.156376
V13	V	2.564588	-0.146509	0.318132
O14	O	2.555836	0.004832	0.326392
O15	O	2.541471	-0.288380	0.302189
O16	O	2.562047	-0.145225	0.463162
O17	O	2.535117	-0.139314	0.164304
V18	V	2.803455	-0.128293	0.301406
O19	O	2.701566	-0.186469	0.354824
O20	O	2.891575	-0.088333	0.264715
O21	O	2.714968	0.013578	0.317350
O22	O	2.870905	-0.279634	0.293146
O23	O	2.891624	-0.135488	0.455234
O24	O	2.694392	-0.129577	0.156376
C25	C	1.963534	-0.322934	0.293617
C26	C	1.985422	-0.438921	0.281548
C27	C	1.981400	-0.586876	0.168461
C28	C	1.960829	-0.477894	0.179791
C29	C	2.030587	-0.508939	0.371982
C30	C	2.051158	-0.617921	0.360652
C31	C	2.026564	-0.656885	0.258888
C32	C	2.047143	-0.765870	0.247560
C33	C	2.116893	-0.796912	0.439750
C34	C	2.096322	-0.687930	0.451080
C35	C	1.989781	-0.140325	0.498954
C36	C	2.028353	-0.140213	0.617426
C37	C	2.174632	-0.145298	0.789329
C38	C	2.138397	-0.145404	0.678015
C39	C	1.954540	-0.134919	0.668160
C40	C	1.990775	-0.134814	0.779475
C41	C	2.100823	-0.140002	0.840056
C42	C	2.137056	-0.139888	0.951372
C43	C	1.953201	-0.129411	0.941516
C44	C	1.916966	-0.129517	0.830202
C45	C	2.124575	0.048127	0.325917
C46	C	2.092308	0.164113	0.337993
C47	C	2.463534	-0.322934	0.293617
C48	C	2.485422	-0.438921	0.281548
C49	C	2.101813	-0.134483	1.120578
C50	C	2.063243	-0.134595	1.002106
C51	C	2.587618	-0.498745	0.280688
C52	C	2.608203	-0.607730	0.269364
C53	C	2.526588	-0.656889	0.258892
C54	C	2.424385	-0.597058	0.259755
C55	C	2.403803	-0.488076	0.271087
C56	C	2.489781	-0.140325	0.498954
C57	C	2.528353	-0.140213	0.617426
C58	C	2.624575	0.048127	0.325917
C59	C	2.592308	0.164113	0.337993
C60	C	2.598329	-0.134481	0.120578
C61	C	2.549376	-0.134587	0.002105
C62	C	2.416975	-0.129537	0.830208
C63	C	2.453212	-0.129432	0.941523
C64	C	2.637065	-0.139905	0.951374
C65	C	2.600828	-0.140011	0.840059
C66	C	2.490780	-0.134824	0.779480
C67	C	2.454542	-0.134922	0.668162
C68	C	2.638397	-0.145403	0.678015
C69	C	2.674634	-0.145298	0.789330
C70	C	2.662606	0.223935	0.338856
C71	C	2.632293	0.332920	0.350185
C72	C	2.531686	0.382079	0.360660
C73	C	2.461382	0.322248	0.359794
C74	C	2.491692	0.213267	0.348457
H75	H	2.027119	-0.797592	0.164698
H76	H	2.543361	-0.745630	0.249666
N77	N	2.341013	-0.647279	0.249021
N78	N	2.250216	-0.619534	0.172747
H79	H	2.191332	-0.655005	0.165155
N80	N	2.213784	-0.150786	0.626197
N81	N	2.196006	-0.078042	0.560544
H82	H	2.249251	-0.081842	0.523947
N83	N	2.121460	-0.648143	0.555031
N84	N	2.161792	-0.710667	0.635762
H85	H	2.179550	-0.682571	0.709182
H86	H	2.320581	-0.439374	0.271780
H87	H	2.654084	-0.458734	0.289207
N88	N	1.804553	-0.124193	0.768315
N89	N	1.728985	-0.046697	0.772805
H90	H	1.649590	-0.042932	0.729098
N91	N	1.877811	-0.123989	0.993349
N92	N	1.910171	-0.123886	1.092736
H93	H	1.856929	-0.120051	1.129344
H94	H	2.050595	-0.477194	0.454833
N95	N	1.956282	-0.626701	0.064526
N96	N	1.974651	-0.724008	0.054424
H97	H	1.956910	-0.752135	-0.018981
H98	H	2.153669	-0.853926	0.513382
H99	H	2.226661	-0.144112	1.000696
N100	N	2.304568	-0.124224	0.768305
N101	N	2.245774	-0.049144	0.700449
H102	H	2.166385	-0.045390	0.656729
H103	H	1.864941	-0.130706	0.618817
N104	N	2.377832	-0.124015	0.993358
N105	N	2.410195	-0.123917	1.092745
H106	H	2.356956	-0.120091	1.129356
N107	N	2.765365	0.173743	0.328130
N108	N	2.766847	0.126141	0.246418
H109	H	2.839420	0.090701	0.238836
N110	N	2.287043	-0.150615	0.851216
N111	N	2.345845	-0.225695	0.919069
H112	H	2.425239	-0.229452	0.962776
N113	N	2.712610	-0.668816	0.268488
N114	N	2.785461	-0.624901	0.277828
H115	H	2.859199	-0.668040	0.277210
H116	H	2.379465	0.362290	0.368322
H117	H	1.924050	-0.420895	0.106155
N118	N	2.342141	-0.129652	0.606282
N119	N	2.319490	-0.202515	0.547716
H120	H	2.240105	-0.198798	0.504016
N121	N	2.749481	-0.145222	1.013240
N122	N	2.825047	-0.222711	1.008734
H123	H	2.904444	-0.226469	1.052424
H124	H	2.689552	0.381619	0.350890
N125	N	2.787046	-0.150603	0.851196
N126	N	2.862623	-0.228084	0.846696
H127	H	2.942016	-0.231829	0.890385
N128	N	2.713798	-0.150829	0.626195
N129	N	2.797464	-0.228295	0.646560
H130	H	2.850713	-0.232126	0.609961
H131	H	2.507019	0.470819	0.369890
N132	N	2.419865	0.152181	0.347581
N133	N	2.330044	0.196096	0.356937
H134	H	2.279308	0.152959	0.356318
