data_functionalizedCrystal
_audit_creation_method	'MofGen! by Chris Wilmer'
_symmetry_space_group_name_H-M	'P1'
_symmetry_Int_Tables_number	1
_symmetry_cell_setting	triclinic
loop_
_symmetry_equiv_pos_as_xyz
  x,y,z
_cell_length_a	23.532407
_cell_length_b	23.532407
_cell_length_c	22.610064
_cell_angle_alpha	90.002995
_cell_angle_beta	90.008651
_cell_angle_gamma	82.848678
loop_
_atom_site_label
_atom_site_type_symbol
_atom_site_fract_x
_atom_site_fract_y
_atom_site_fract_z
O1	O	0.755268	0.069128	0.049117
O2	O	0.589405	0.079132	0.049135
O3	O	0.677338	-0.008802	0.049114
O4	O	0.667335	0.157062	0.049137
O5	O	0.677313	-0.008792	-0.049255
O6	O	0.589380	0.079142	-0.049234
O7	O	0.755243	0.069138	-0.049252
Zn8	Zn	0.672308	0.074142	-0.064862
Zn9	Zn	0.672340	0.074128	0.064744
O10	O	0.667310	0.157072	-0.049232
C11	C	0.568176	0.078882	-0.000048
C12	C	0.504959	0.078116	-0.000041
C13	C	0.105856	0.125350	-0.000061
C14	C	0.046456	0.124638	-0.000065
O15	O	0.009711	0.168424	-0.000081
N16	N	0.023830	0.072362	-0.000071
C17	C	0.060607	0.020794	-0.000080
O18	O	0.035908	-0.023737	-0.000086
C19	C	0.120006	0.021506	-0.000080
C20	C	0.142629	0.073785	-0.000068
C21	C	0.128479	0.177625	-0.000050
C22	C	0.187876	0.178336	-0.000045
C23	C	0.224649	0.126772	-0.000052
C24	C	0.202025	0.074497	-0.000063
C25	C	0.156783	-0.030062	-0.000093
C26	C	0.216185	-0.029345	-0.000094
C27	C	0.238808	0.022934	-0.000082
C28	C	0.298194	0.023643	-0.000065
N29	N	0.320820	0.075920	-0.000059
C30	C	0.284048	0.127484	-0.000052
C31	C	-0.064135	0.019302	-0.000080
C32	C	-0.123533	0.018589	-0.000075
C33	C	-0.137680	0.122434	-0.000061
C34	C	-0.078281	0.123146	-0.000062
C35	C	-0.041509	0.071578	-0.000074
C36	C	0.408784	0.128974	-0.000042
C37	C	0.468186	0.129680	-0.000034
C38	C	0.482329	0.025836	-0.000051
C39	C	0.422932	0.025129	-0.000055
C40	C	0.386160	0.076702	-0.000052
O41	O	0.334974	-0.020119	-0.000052
O42	O	0.308755	0.172007	-0.000054
C43	C	0.677071	-0.030013	-0.000072
C44	C	0.676305	-0.093230	-0.000076
C45	C	0.723539	-0.492333	-0.000049
C46	C	0.722827	-0.551733	-0.000044
O47	O	0.766613	-0.588478	-0.000027
N48	N	0.670551	-0.574359	-0.000039
C49	C	0.618983	-0.537582	-0.000032
O50	O	0.574452	-0.562281	-0.000027
C51	C	0.619695	-0.478182	-0.000033
C52	C	0.671974	-0.455560	-0.000044
C53	C	0.775814	-0.469710	-0.000060
C54	C	0.776525	-0.410313	-0.000065
C55	C	0.724961	-0.373540	-0.000060
C56	C	0.672685	-0.396164	-0.000050
C57	C	0.568127	-0.441406	-0.000022
C58	C	0.568844	-0.382004	-0.000021
C59	C	0.621123	-0.359381	-0.000033
C60	C	0.621832	-0.299995	-0.000050
N61	N	0.674109	-0.277368	-0.000056
C62	C	0.725673	-0.314141	-0.000061
C63	C	0.617491	-0.662324	-0.000031
C64	C	0.616778	-0.721722	-0.000034
C65	C	0.720623	-0.735869	-0.000045
C66	C	0.721335	-0.676470	-0.000046
C67	C	0.669767	-0.639698	-0.000036
C68	C	0.727163	-0.189405	-0.000073
C69	C	0.727869	-0.130003	-0.000081
C70	C	0.624025	-0.115860	-0.000067
C71	C	0.623318	-0.175257	-0.000062
C72	C	0.674891	-0.212029	-0.000063
O73	O	0.578070	-0.263215	-0.000065
O74	O	0.770196	-0.289433	-0.000058
C75	C	0.776472	0.069388	-0.000069
C76	C	0.839689	0.070154	-0.000071
C77	C	0.667577	0.178283	-0.000045
C78	C	0.668343	0.241500	-0.000036
N79	N	0.672290	0.074150	-0.153314
C80	C	0.637982	0.039758	-0.438156
C81	C	0.637977	0.039761	-0.376236
O82	O	0.608784	0.010521	-0.344213
N83	N	0.672313	0.074132	-0.345266
C84	C	0.706662	0.108498	-0.376219
O85	O	0.735868	0.137734	-0.344191
C86	C	0.706670	0.108492	-0.438138
C87	C	0.672327	0.074123	-0.469105
C88	C	0.603642	0.005391	-0.469123
C89	C	0.603647	0.005389	-0.531039
C90	C	0.637992	0.039754	-0.561988
C91	C	0.672332	0.074121	-0.531021
C92	C	0.741022	0.142855	-0.469090
C93	C	0.741027	0.142846	-0.531013
C94	C	0.706684	0.108476	-0.561980
C95	C	0.706681	0.108484	-0.623885
N96	N	0.672345	0.074113	-0.654855
C97	C	0.638000	0.039748	-0.623906
C98	C	0.706643	0.108508	-0.246186
C99	C	0.706632	0.108518	-0.184268
C100	C	0.637948	0.039779	-0.184289
C101	C	0.637956	0.039773	-0.246208
C102	C	0.672307	0.074137	-0.277156
C103	C	0.638012	0.039747	-0.753934
C104	C	0.638018	0.039750	-0.815855
C105	C	0.706705	0.108486	-0.815828
C106	C	0.706697	0.108486	-0.753912
C107	C	0.672349	0.074112	-0.722967
O108	O	0.735861	0.137707	-0.655948
O109	O	0.608804	0.010512	-0.655942
N110	N	0.672363	0.074115	0.153196
H111	H	0.098544	0.219617	-0.000046
H112	H	0.378851	0.170970	-0.000041
H113	H	0.609990	0.011787	-0.271417
H114	H	0.734654	0.136480	-0.728698
H115	H	0.575496	-0.632386	-0.000028
H116	H	0.609982	0.011797	-0.159080
C117	C	0.832540	-0.510151	-0.000070
H118	H	0.863770	-0.488162	-0.000081
H119	H	0.834440	-0.533620	0.034231
H120	H	0.834412	-0.533614	-0.034380
C121	C	-0.148412	-0.038918	-0.000083
H122	H	-0.117999	-0.069523	-0.000090
H123	H	-0.171286	-0.041362	0.034218
H124	H	-0.171290	-0.041352	-0.034393
H125	H	0.525555	-0.459814	-0.000009
C126	C	0.783892	-0.229845	-0.000079
H127	H	0.815123	-0.207856	-0.000092
H128	H	0.785790	-0.253310	0.034224
H129	H	0.785765	-0.253311	-0.034387
H130	H	0.246123	-0.071339	-0.000104
H131	H	0.582043	-0.085909	-0.000065
C132	C	0.212753	0.235844	-0.000043
H133	H	0.182339	0.266448	-0.000047
H134	H	0.235637	0.238287	0.034258
H135	H	0.235622	0.238282	-0.034353
C136	C	0.744407	0.146327	-0.150211
H137	H	0.764863	0.166788	-0.177517
H138	H	0.720922	0.172659	-0.126060
H139	H	0.770752	0.122853	-0.126053
C140	C	0.778842	-0.651591	-0.000053
H141	H	0.809447	-0.682003	-0.000052
H142	H	0.781273	-0.628712	-0.034355
H143	H	0.781289	-0.628716	0.034257
C144	C	-0.053402	0.180653	-0.000054
H145	H	-0.083814	0.211258	-0.000052
H146	H	-0.030517	0.183089	0.034248
H147	H	-0.030533	0.183095	-0.034363
C148	C	-0.178136	0.179156	-0.000058
H149	H	-0.156159	0.210396	-0.000049
H150	H	-0.201606	0.181036	-0.034362
H151	H	-0.201596	0.181031	0.034249
H152	H	-0.034198	-0.022693	-0.000084
H153	H	0.768989	0.170841	-0.443888
H154	H	0.486602	0.172255	-0.000024
C155	C	0.131911	-0.087571	-0.000114
H156	H	0.162326	-0.118173	-0.000127
H157	H	0.109037	-0.090023	0.034185
H158	H	0.109033	-0.090000	-0.034426
C159	C	0.834033	-0.385436	-0.000066
H160	H	0.864637	-0.415850	-0.000062
H161	H	0.836470	-0.362559	-0.034368
H162	H	0.836477	-0.362561	0.034243
C163	C	0.778810	0.180650	-0.565052
H164	H	0.799257	0.201121	-0.537737
H165	H	0.805155	0.157181	-0.589202
H166	H	0.755322	0.206983	-0.589209
H167	H	0.404512	-0.017441	-0.000056
C168	C	0.600241	0.001943	-0.849918
H169	H	0.605156	0.006865	-0.891228
H170	H	0.611043	-0.037078	-0.839768
H171	H	0.561213	0.012727	-0.839777
C172	C	0.512117	-0.341557	-0.000013
H173	H	0.480883	-0.363542	-0.000010
H174	H	0.510244	-0.318087	0.034288
H175	H	0.510225	-0.318096	-0.034323
H176	H	0.512280	-0.016146	-0.000054
C177	C	0.785379	-0.105121	-0.000090
H178	H	0.815986	-0.135532	-0.000086
H179	H	0.787810	-0.082247	-0.034395
H180	H	0.787824	-0.082242	0.034216
H181	H	0.580748	-0.193677	-0.000069
H182	H	0.610043	0.011757	-0.728745
H183	H	0.734614	0.136497	-0.271380
C184	C	0.777344	-0.776327	-0.000040
H185	H	0.769428	-0.814942	-0.000030
H186	H	0.798793	-0.769509	-0.034343
H187	H	0.798797	-0.769497	0.034268
H188	H	0.574207	-0.740136	-0.000035
C189	C	0.565875	-0.032421	-0.565097
H190	H	0.570790	-0.027504	-0.606408
H191	H	0.576680	-0.071440	-0.554942
H192	H	0.526846	-0.021638	-0.554957
C193	C	0.565856	-0.032410	-0.435089
H194	H	0.545406	-0.052872	-0.462408
H195	H	0.589331	-0.058742	-0.410924
H196	H	0.539505	-0.008932	-0.410947
C197	C	0.744485	0.146281	-0.849880
H198	H	0.739572	0.141349	-0.891190
H199	H	0.733688	0.185306	-0.839740
H200	H	0.783511	0.135493	-0.839723
