data_functionalizedCrystal
_audit_creation_method	'MofGen! by Chris Wilmer'
_symmetry_space_group_name_H-M	'P1'
_symmetry_Int_Tables_number	1
_symmetry_cell_setting	triclinic
loop_
_symmetry_equiv_pos_as_xyz
  x,y,z
_cell_length_a	17.077404
_cell_length_b	11.169416
_cell_length_c	17.077396
_cell_angle_alpha	90.022666
_cell_angle_beta	90.019501
_cell_angle_gamma	90.010565
loop_
_atom_site_label
_atom_site_type_symbol
_atom_site_fract_x
_atom_site_fract_y
_atom_site_fract_z
Zn1	Zn	1.200123	-0.477800	0.443874
Zn2	Zn	1.200059	-0.678512	0.312622
Zn3	Zn	1.068855	-0.477842	0.312622
Zn4	Zn	1.068852	-0.678440	0.443845
O5	O	1.134472	-0.578149	0.378241
O6	O	1.309961	-0.504437	0.426475
O7	O	1.182629	-0.651940	0.202775
O8	O	1.086296	-0.309887	0.330046
O9	O	1.309914	-0.651899	0.330045
O10	O	1.182738	-0.309856	0.426476
O11	O	1.086234	-0.504509	0.202775
O12	O	0.959008	-0.504440	0.330017
O13	O	1.086291	-0.651778	0.553696
O14	O	0.959005	-0.651818	0.426426
O15	O	1.182735	-0.504368	0.553718
O16	O	1.182626	-0.846452	0.330016
O17	O	1.086228	-0.846400	0.426426
C18	C	0.930524	-0.578127	0.378219
C19	C	0.843274	-0.578146	0.378229
C20	C	1.134441	-0.889973	0.378235
C21	C	1.134500	-1.023373	0.378259
C22	C	0.802304	-0.655002	0.428348
C23	C	0.720323	-0.655005	0.428361
C24	C	0.679315	-0.578157	0.378249
C25	C	0.720292	-0.501292	0.328127
C26	C	0.802271	-0.501285	0.328119
C27	C	0.549422	-0.501316	0.328146
C28	C	0.467437	-0.501325	0.328153
C29	C	0.467474	-0.655036	0.428388
C30	C	0.549453	-0.655029	0.428380
C31	C	0.590424	-0.578165	0.378257
C32	C	1.339216	-0.578171	0.378263
C33	C	1.426466	-0.578181	0.378273
C34	C	1.134520	-0.578060	0.582985
C35	C	1.134540	-0.578022	0.670235
C36	C	1.134525	-0.265106	0.378264
C37	C	1.134547	-0.131706	0.378274
C38	C	1.134470	-0.578150	0.174293
C39	C	1.134602	-0.577850	0.087044
C40	C	1.184760	-0.501260	0.711238
C41	C	1.184770	-0.501220	0.793218
C42	C	1.134562	-0.577949	0.834195
C43	C	1.084336	-0.654715	0.793186
C44	C	1.084323	-0.654748	0.711207
C45	C	1.084368	-0.654643	0.964057
C46	C	1.084381	-0.654612	1.046041
C47	C	1.184814	-0.501115	1.046067
C48	C	1.184801	-0.501148	0.964088
C49	C	1.134576	-0.577916	0.923086
H50	H	0.686968	-0.717590	0.469173
C51	C	1.029180	-0.739032	1.091135
C52	C	1.035584	-0.875473	1.079856
C53	C	0.980397	-0.959906	1.124958
C54	C	0.918804	-0.907897	1.181340
C55	C	0.912397	-0.771449	1.192622
C56	C	0.967584	-0.687016	1.147520
H57	H	1.081181	-0.913980	1.038116
H58	H	0.985140	-1.060914	1.116606
H59	H	0.877951	-0.970399	1.214728
H60	H	0.866800	-0.732943	1.234362
H61	H	0.962841	-0.586008	1.155872
C62	C	1.029127	-0.739091	0.918946
C63	C	0.939892	-0.729300	0.930192
C64	C	0.884659	-0.813750	0.885077
C65	C	0.918661	-0.907991	0.828716
C66	C	1.007901	-0.917785	0.817468
C67	C	1.063134	-0.833335	0.862582
H68	H	0.914717	-0.659534	0.971916
H69	H	0.818597	-0.806499	0.893405
H70	H	0.877775	-0.970506	0.795320
H71	H	1.033076	-0.987552	0.775744
H72	H	1.129196	-0.840587	0.854255
H73	H	1.225666	-0.438715	0.826599
H74	H	0.582840	-0.717612	0.469181
C75	C	1.029084	-0.739200	0.666104
C76	C	1.063076	-0.833452	0.609745
C77	C	1.007834	-0.917906	0.564645
C78	C	0.918600	-0.908107	0.575903
C79	C	0.884604	-0.813850	0.632265
C80	C	0.939846	-0.729397	0.677366
H81	H	1.129136	-0.840710	0.601408
H82	H	1.033000	-0.987681	0.522922
H83	H	0.877707	-0.970624	0.542517
H84	H	0.818544	-0.806593	0.640602
H85	H	0.914680	-0.659622	0.719089
C86	C	0.422410	-0.739587	0.483525
C87	C	0.332237	-0.739600	0.483541
C88	C	0.287169	-0.824154	0.538671
C89	C	0.332275	-0.908696	0.593786
C90	C	0.422454	-0.908687	0.593772
C91	C	0.467521	-0.824133	0.538642
H92	H	0.298842	-0.677013	0.442740
H93	H	0.220413	-0.824160	0.538681
H94	H	0.298913	-0.971289	0.634596
H95	H	0.455848	-0.971273	0.634573
H96	H	0.534278	-0.824127	0.538632
C97	C	0.675182	-0.416757	0.273006
C98	C	0.618842	-0.322611	0.307131
C99	C	0.573732	-0.238077	0.252007
C100	C	0.584963	-0.247690	0.162758
C101	C	0.641306	-0.341840	0.128628
C102	C	0.686415	-0.426374	0.183752
H103	H	0.610526	-0.315491	0.373202
H104	H	0.532024	-0.168381	0.277273
H105	H	0.551571	-0.185113	0.121952
H106	H	0.649622	-0.348959	0.062557
H107	H	0.728124	-0.496070	0.158487
H108	H	0.835628	-0.438694	0.287311
C109	C	1.240031	-0.416746	0.919014
C110	C	1.233651	-0.280302	0.930292
C111	C	1.288879	-0.195897	0.885218
C112	C	1.350489	-0.247935	0.828867
C113	C	1.356872	-0.384386	0.817586
C114	C	1.301643	-0.468792	0.862660
H115	H	1.188041	-0.241773	0.972009
H116	H	1.284154	-0.094886	0.893569
H117	H	1.391373	-0.185453	0.795501
H118	H	1.402481	-0.422915	0.775869
H119	H	1.306369	-0.569802	0.854309
C120	C	1.239990	-0.416854	0.666167
C121	C	1.233606	-0.280411	0.677449
C122	C	1.288836	-0.196000	0.632380
C123	C	1.350449	-0.248032	0.576030
C124	C	1.356836	-0.384482	0.564746
C125	C	1.301606	-0.468893	0.609814
H126	H	1.187994	-0.241888	0.719164
H127	H	1.284108	-0.094991	0.640734
H128	H	1.391334	-0.185546	0.542668
H129	H	1.402448	-0.423006	0.523030
H130	H	1.306334	-0.569903	0.601461
C131	C	1.240062	-0.416665	1.091166
C132	C	1.240077	-0.416617	1.181340
C133	C	1.295326	-0.332177	1.226442
C134	C	1.350560	-0.247785	1.181371
C135	C	1.350546	-0.247831	1.091193
C136	C	1.295297	-0.332271	1.046090
H137	H	1.199188	-0.479091	1.214709
H138	H	1.295336	-0.332143	1.293199
H139	H	1.391459	-0.185278	1.214759
H140	H	1.391436	-0.185356	1.057824
H141	H	1.295288	-0.332304	0.979333
H142	H	0.582778	-0.438715	0.287338
H143	H	1.043453	-0.717186	0.826556
H144	H	0.835687	-0.717585	0.469153
H145	H	0.434050	-0.438734	0.287357
