data_functionalizedCrystal
_audit_creation_method	'MofGen! by Chris Wilmer'
_symmetry_space_group_name_H-M	'P1'
_symmetry_Int_Tables_number	1
_symmetry_cell_setting	triclinic
loop_
_symmetry_equiv_pos_as_xyz
  x,y,z
_cell_length_a	12.759401
_cell_length_b	12.759394
_cell_length_c	12.759393
_cell_angle_alpha	90.032294
_cell_angle_beta	90.018567
_cell_angle_gamma	90.013881
loop_
_atom_site_label
_atom_site_type_symbol
_atom_site_fract_x
_atom_site_fract_y
_atom_site_fract_z
Zn1	Zn	1.606254	-0.418231	0.593978
Zn2	Zn	1.606148	-0.593950	0.418296
Zn3	Zn	1.430556	-0.418283	0.418317
Zn4	Zn	1.430545	-0.593866	0.593937
O5	O	1.518376	-0.506083	0.506132
O6	O	1.753261	-0.441555	0.570682
O7	O	1.582816	-0.570705	0.271278
O8	O	1.453912	-0.271255	0.441645
O9	O	1.753183	-0.570654	0.441609
O10	O	1.582997	-0.271217	0.570702
O11	O	1.453810	-0.441642	0.271293
O12	O	1.283534	-0.441561	0.441605
O13	O	1.453892	-0.570511	0.740964
O14	O	1.283525	-0.570561	0.570633
O15	O	1.582986	-0.441473	0.740994
O16	O	1.582805	-0.740960	0.441569
O17	O	1.453789	-0.740898	0.570612
C18	C	1.245409	-0.506058	0.506117
C19	C	1.128632	-0.506073	0.506136
C20	C	1.073804	-0.438977	0.573449
C21	C	0.964079	-0.438997	0.573455
C22	C	0.964022	-0.573217	0.438834
C23	C	1.073744	-0.573191	0.438823
C24	C	1.073836	-0.361489	0.651174
C25	C	0.964112	-0.361509	0.651181
C26	C	1.518313	-0.779050	0.506107
C27	C	1.518382	-0.895827	0.506131
C28	C	1.652826	-0.895838	0.371859
C29	C	1.720076	-0.950704	0.304736
C30	C	1.720138	-1.060426	0.304764
C31	C	1.652945	-1.115284	0.371926
C32	C	1.585695	-1.060417	0.439049
C33	C	1.585638	-0.950693	0.439011
C34	C	1.451257	-1.060406	0.573325
C35	C	1.451189	-0.950685	0.573292
C36	C	1.384064	-1.115264	0.640486
C37	C	1.316808	-1.060397	0.707606
C38	C	1.316748	-0.950669	0.707574
C39	C	1.383939	-0.895818	0.640416
C40	C	1.792409	-0.506108	0.506147
C41	C	1.909186	-0.506119	0.506154
C42	C	1.518449	-0.505977	0.780166
C43	C	1.518481	-0.505931	0.896942
C44	C	1.518468	-0.232049	0.506181
C45	C	1.518507	-0.115272	0.506201
C46	C	1.518363	-0.506112	0.233165
C47	C	1.518535	-0.505862	0.116389
C48	C	1.585709	-0.438735	0.951822
C49	C	1.585734	-0.438697	1.061546
C50	C	1.451300	-0.573061	1.061501
C51	C	1.451270	-0.573093	0.951779
C52	C	1.663327	-0.361164	0.951848
C53	C	1.663352	-0.361126	1.061572
H54	H	1.103603	-0.280086	0.629522
C55	C	0.923915	-0.391096	0.761047
H56	H	0.849458	-0.391097	0.761049
H57	H	0.948727	-0.458913	0.779101
H58	H	0.948751	-0.341511	0.810769
C59	C	1.652757	-0.775148	0.371820
H60	H	1.702407	-0.750335	0.322214
H61	H	1.584952	-0.750396	0.353597
H62	H	1.670891	-0.750253	0.439628
C63	C	1.242777	-0.890319	0.781411
H64	H	1.252364	-0.817116	0.771783
H65	H	1.172203	-0.908373	0.765993
H66	H	1.258144	-0.908230	0.852021
H67	H	1.383890	-0.806477	0.640376
H68	H	1.396523	-0.627807	0.907101
H69	H	1.740598	-0.390334	0.917812
H70	H	1.396577	-0.627739	1.106163
H71	H	1.262110	-1.105071	0.762288
H72	H	1.774903	-1.105098	0.250112
C73	C	1.633906	-0.251258	0.911643
H74	H	1.621815	-0.206037	0.969567
H75	H	1.689589	-0.224237	0.870292
H76	H	1.572141	-0.255698	0.870280
C77	C	1.624042	-0.256687	1.107578
H78	H	1.606525	-0.210201	1.052139
H79	H	1.563790	-0.269145	1.149476
H80	H	1.677574	-0.226276	1.149491
H81	H	1.774786	-0.906030	0.250055
H82	H	1.107901	-0.390722	0.728412
H83	H	1.744722	-0.382920	1.091350
H84	H	1.653010	-1.204625	0.371952
H85	H	1.384124	-1.204605	0.640509
H86	H	0.930070	-0.284182	0.622182
C87	C	1.134057	-0.646986	0.364774
H88	H	1.207265	-0.637354	0.374400
H89	H	1.116082	-0.717601	0.380019
H90	H	1.116044	-0.631515	0.294211
C91	C	0.903642	-0.647049	0.364803
H92	H	0.830442	-0.637461	0.374454
H93	H	0.921595	-0.631590	0.294238
H94	H	0.921629	-0.717657	0.380064
