data_functionalizedCrystal
_audit_creation_method	'MofGen! by Chris Wilmer'
_symmetry_space_group_name_H-M	'P1'
_symmetry_Int_Tables_number	1
_symmetry_cell_setting	triclinic
loop_
_symmetry_equiv_pos_as_xyz
  x,y,z
_cell_length_a	21.295419
_cell_length_b	21.295417
_cell_length_c	17.640968
_cell_angle_alpha	78.766059
_cell_angle_beta	78.778187
_cell_angle_gamma	90.044503
loop_
_atom_site_label
_atom_site_type_symbol
_atom_site_fract_x
_atom_site_fract_y
_atom_site_fract_z
Zn1	Zn	1.034314	-0.178376	-0.446938
Zn2	Zn	1.012935	-0.304941	-0.314743
Zn3	Zn	0.907758	-0.199713	-0.314765
Zn4	Zn	0.929000	-0.283647	-0.446887
O5	O	0.971002	-0.241669	-0.380833
O6	O	1.119570	-0.195147	-0.429414
O7	O	0.981146	-0.308823	-0.204128
O8	O	0.924603	-0.108788	-0.332329
O9	O	1.103863	-0.288133	-0.332291
O10	O	1.017584	-0.093112	-0.429436
O11	O	0.903873	-0.231513	-0.204145
O12	O	0.822485	-0.210865	-0.332279
O13	O	0.960807	-0.251841	-0.557511
O14	O	0.838091	-0.272531	-0.429348
O15	O	1.038181	-0.174499	-0.557549
O16	O	1.001744	-0.390210	-0.332241
O17	O	0.940077	-0.374566	-0.429327
C18	C	0.807447	-0.241703	-0.380811
C19	C	0.737480	-0.241729	-0.380820
C20	C	0.970915	-0.405227	-0.380793
C21	C	0.970940	-0.475194	-0.380803
C22	C	0.712827	-0.193364	-0.431471
C23	C	0.647085	-0.193347	-0.431474
C24	C	0.606000	-0.241704	-0.380835
C25	C	0.630659	-0.290074	-0.330175
C26	C	0.696399	-0.290086	-0.330167
N27	N	0.501731	-0.297778	-0.374658
N28	N	0.439281	-0.297763	-0.374670
C29	C	0.407928	-0.241669	-0.380852
N30	N	0.441386	-0.185586	-0.387038
N31	N	0.503842	-0.185601	-0.387031
C32	C	0.534715	-0.241696	-0.380837
C33	C	0.311991	-0.193281	-0.431509
C34	C	0.246246	-0.193264	-0.431506
C35	C	0.229822	-0.289995	-0.330211
C36	C	0.295565	-0.290008	-0.330210
C37	C	0.336645	-0.241651	-0.380862
C38	C	1.019338	-0.499835	-0.431402
C39	C	1.019363	-0.565574	-0.431422
C40	C	0.970995	-0.606672	-0.380827
C41	C	0.922589	-0.582024	-0.330224
C42	C	0.922562	-0.516284	-0.330212
N43	N	0.955098	-0.721079	-0.311647
N44	N	0.955128	-0.783528	-0.311661
C45	C	0.971074	-0.804741	-0.380863
N46	N	0.987002	-0.761145	-0.450052
N47	N	0.986975	-0.698690	-0.450037
C48	C	0.971019	-0.677956	-0.380836
C49	C	1.019502	-0.900664	-0.431488
C50	C	1.019523	-0.966404	-0.431509
C51	C	0.922752	-0.982853	-0.330305
C52	C	0.922728	-0.917113	-0.330291
C53	C	0.971107	-0.876022	-0.380882
C54	C	1.135196	-0.241635	-0.380856
C55	C	1.205165	-0.241621	-0.380866
C56	C	1.004248	-0.208415	-0.587014
C57	C	1.018416	-0.194244	-0.674876
C58	C	0.971109	-0.077469	-0.380891
C59	C	0.971154	-0.007497	-0.380915
C60	C	0.863613	-0.348982	-0.963744
C61	C	0.876939	-0.335658	-1.046304
C62	C	0.957502	-0.255129	-1.046333
C63	C	0.944181	-0.268443	-0.963771
C64	C	0.897236	-0.315371	-0.922484
C65	C	0.977803	-0.234833	-0.922511
C66	C	0.964485	-0.248149	-0.839957
C67	C	0.917544	-0.295076	-0.798663
C68	C	0.883918	-0.328688	-0.839930
C69	C	1.024751	-0.187909	-0.963800
C70	C	1.058373	-0.154298	-0.922540
C71	C	1.045052	-0.167611	-0.839984
C72	C	0.998111	-0.214538	-0.798690
C73	C	1.078679	-0.134000	-0.798718
C74	C	1.065360	-0.147316	-0.716164
C75	C	0.984793	-0.227854	-0.716136
C76	C	0.937921	-0.274748	-0.175455
C77	C	0.923875	-0.288742	-0.087593
H78	H	0.746272	-0.153988	-0.472716
C79	C	0.219129	-0.140055	-0.487228
N80	N	0.198705	-0.099978	-0.529199
H81	H	1.058935	-0.986464	-0.472717
C82	C	0.184632	-0.343189	-0.274507
N83	N	0.150591	-0.383255	-0.232548
H84	H	0.883207	-0.615490	-0.289032
C85	C	0.869539	-1.028056	-0.274661
N86	N	0.829455	-1.062105	-0.232753
H87	H	1.058729	-0.466380	-0.472598
H88	H	0.906704	-0.305920	-0.731442
C89	C	0.869316	-0.489179	-0.274549
N90	N	0.829210	-0.468762	-0.232623
H91	H	0.627008	-0.153960	-0.472718
C92	C	0.585464	-0.343267	-0.274472
N93	N	0.551423	-0.383333	-0.232514
C94	C	1.009134	-0.203504	-1.091759
N95	N	1.048021	-0.164616	-1.125973
H96	H	0.825371	-0.387180	-0.930125
C97	C	0.322684	-0.343218	-0.274496
N98	N	0.343110	-0.383298	-0.232529
C99	C	1.110005	-0.102674	-0.967966
N100	N	1.148892	-0.063786	-1.002180
H101	H	0.845676	-0.366886	-0.806311
H102	H	1.035594	-0.177070	-1.031021
H103	H	0.946551	-0.266052	-0.682517
H104	H	0.716470	-0.329472	-0.288921
C105	C	0.839946	-0.372635	-1.091688
N106	N	0.812083	-0.400485	-1.125871
H107	H	1.116905	-0.095796	-0.832347
H108	H	0.345440	-0.153903	-0.472748
H109	H	0.883321	-0.897050	-0.289084
C110	C	1.072712	-0.855460	-0.487149
N111	N	1.112789	-0.821413	-0.529076
H112	H	1.092739	-0.119946	-0.682568
H113	H	1.058770	-0.585640	-0.472635
