data_functionalizedCrystal
_audit_creation_method	'MofGen! by Chris Wilmer'
_symmetry_space_group_name_H-M	'P1'
_symmetry_Int_Tables_number	1
_symmetry_cell_setting	triclinic
loop_
_symmetry_equiv_pos_as_xyz
  x,y,z
_cell_length_a	17.000383
_cell_length_b	17.038272
_cell_length_c	9.130307
_cell_angle_alpha	89.996293
_cell_angle_beta	89.995337
_cell_angle_gamma	83.355929
loop_
_atom_site_label
_atom_site_type_symbol
_atom_site_fract_x
_atom_site_fract_y
_atom_site_fract_z
O1	O	1.057996	0.028051	-0.121900
O2	O	1.557996	0.528051	0.378100
O3	O	0.828176	0.056294	-0.121882
O4	O	1.328176	0.556294	0.378118
O5	O	0.941720	-0.071549	-0.121880
O6	O	1.441720	0.428451	0.378120
O7	O	0.944452	0.155894	-0.121903
O8	O	1.444452	0.655894	0.378097
O9	O	0.941716	-0.071550	0.121719
O10	O	1.441716	0.428450	0.621719
O11	O	0.828172	0.056293	0.121717
O12	O	1.328172	0.556293	0.621717
O13	O	1.057992	0.028050	0.121699
O14	O	1.557992	0.528050	0.621699
Cu15	Cu	0.943082	0.042172	0.143950
Cu16	Cu	1.443082	0.542172	0.643950
Cu17	Cu	0.943087	0.042173	-0.144134
Cu18	Cu	1.443087	0.542173	0.355866
O19	O	0.944448	0.155894	0.121696
O20	O	1.444448	0.655894	0.621696
C21	C	0.798624	0.057810	-0.000080
C22	C	1.298624	0.557810	0.499920
C23	C	0.710571	0.062321	-0.000073
C24	C	1.210571	0.562321	0.499927
C25	C	0.939234	-0.100508	-0.000080
C26	C	1.439234	0.399492	0.499920
C27	C	0.931821	-0.186793	-0.000080
C28	C	1.431821	0.313207	0.499920
C29	C	0.212326	0.091445	-0.000130
C30	C	0.712326	0.591445	0.499870
C31	C	0.295061	0.087201	-0.000129
C32	C	0.795061	0.587201	0.499871
C33	C	0.341068	0.013535	-0.000110
C34	C	0.841068	0.513535	0.499890
C35	C	0.304335	-0.055892	-0.000108
C36	C	0.804335	0.444108	0.499892
C37	C	0.221601	-0.051647	-0.000120
C38	C	0.721601	0.448353	0.499880
C39	C	0.591103	-0.002861	-0.000083
C40	C	1.091103	0.497139	0.499917
C41	C	0.673843	-0.007101	-0.000066
C42	C	1.173843	0.492899	0.499934
C43	C	0.664564	0.135993	-0.000090
C44	C	1.164564	0.635993	0.499910
C45	C	0.581828	0.140231	-0.000093
C46	C	1.081828	0.640231	0.499907
C47	C	0.545103	0.070804	-0.000098
C48	C	1.045103	0.570804	0.499902
C49	C	0.425637	0.009195	-0.000104
C50	C	0.925637	0.509195	0.499896
C51	C	0.460535	0.075145	-0.000115
C52	C	0.960535	0.575145	0.499885
C53	C	0.999879	-0.241568	-0.000084
C54	C	1.499879	0.258432	0.499916
C55	C	0.992910	-0.322641	-0.000097
C56	C	1.492910	0.177359	0.499903
C57	C	0.917881	-0.348938	-0.000096
C58	C	1.417881	0.151062	0.499904
C59	C	0.849817	-0.294156	-0.000096
C60	C	1.349817	0.205844	0.499904
C61	C	0.856788	-0.213085	-0.000094
C62	C	1.356788	0.286915	0.499906
C63	C	0.893255	-0.593009	-0.000114
C64	C	1.393255	-0.093009	0.499886
C65	C	0.886289	-0.674088	-0.000113
C66	C	1.386289	-0.174088	0.499887
C67	C	1.029382	-0.702567	-0.000116
C68	C	1.529382	-0.202567	0.499884
C69	C	1.036346	-0.621493	-0.000104
C70	C	1.536346	-0.121493	0.499896
C71	C	0.968283	-0.566718	-0.000112
C72	C	1.468283	-0.066718	0.499888
C73	C	0.910755	-0.431807	-0.000105
C74	C	1.410755	0.068193	0.499895
C75	C	0.975410	-0.483850	-0.000114
C76	C	1.475410	0.016150	0.499886
C77	C	1.087545	0.026534	-0.000107
C78	C	1.587545	0.526534	0.499893
C79	C	1.175598	0.022024	-0.000124
C80	C	1.675598	0.522024	0.499876
C81	C	0.946935	0.184852	-0.000107
C82	C	1.446935	0.684852	0.499893
C83	C	0.954348	0.271137	-0.000117
C84	C	1.454348	0.771137	0.499883
N85	N	0.943084	0.042170	0.346573
N86	N	1.443084	0.542170	0.846573
N87	N	0.943090	0.042168	-0.346757
N88	N	1.443090	0.542168	0.153243
C89	C	1.043673	-0.071008	0.346565
C90	C	1.543673	0.428992	0.846565
C91	C	1.093973	-0.127595	0.423228
C92	C	1.593973	0.372405	0.923228
C93	C	1.093981	-0.127596	0.576562
C94	C	1.593981	0.372404	1.076562
C95	C	1.043682	-0.071005	0.653236
C96	C	1.543682	0.428995	1.153236
C97	C	0.993382	-0.014418	0.576573
C98	C	1.493382	0.485582	1.076573
C99	C	0.993381	-0.014422	0.423236
C100	C	1.493381	0.485578	0.923236
C101	C	0.892790	0.098755	0.576581
C102	C	1.392790	0.598755	1.076581
C103	C	0.892785	0.098761	0.423247
C104	C	1.392785	0.598761	0.923247
C105	C	0.842491	0.155345	0.653255
C106	C	1.342491	0.655345	1.153255
C107	C	0.792194	0.211937	0.576592
C108	C	1.292194	0.711937	1.076592
C109	C	0.792189	0.211936	0.423249
C110	C	1.292189	0.711936	0.923249
C111	C	0.842485	0.155348	0.346584
C112	C	1.342485	0.655348	0.846584
H113	H	0.174872	0.151432	-0.000134
H114	H	0.674872	0.651432	0.499866
F115	F	1.079736	-0.213589	-0.000071
F116	F	1.579736	0.286411	0.499929
H117	H	1.097443	-0.600089	-0.000105
H118	H	1.597443	-0.100089	0.499895
F119	F	0.182513	-0.125535	-0.000113
F120	F	0.682513	0.374465	0.499887
F121	F	0.411570	0.153543	-0.000144
F122	F	0.911570	0.653543	0.499856
H123	H	0.837832	-0.548421	-0.000120
H124	H	1.337832	-0.048421	0.499880
F125	F	0.552028	-0.076751	-0.000116
F126	F	1.052028	0.423249	0.499884
H127	H	1.043679	-0.071007	0.221713
H128	H	1.543679	0.428993	0.721713
H129	H	0.463105	-0.050784	-0.000083
H130	H	0.963105	0.449216	0.499917
F131	F	0.703656	0.209876	-0.000092
F132	F	1.203656	0.709876	0.499908
H133	H	1.043685	-0.071016	0.778088
H134	H	1.543685	0.428984	1.278088
F135	F	1.055258	-0.455861	-0.000123
F136	F	1.555258	0.044139	0.499877
F137	F	1.065347	-0.380934	-0.000099
F138	F	1.565347	0.119066	0.499901
H139	H	0.842496	0.155339	0.778107
H140	H	1.342496	0.655339	1.278107
F141	F	1.101815	-0.760867	-0.000109
F142	F	1.601815	-0.260867	0.499891
H143	H	1.134925	-0.173672	0.360787
H144	H	1.634925	0.326328	0.860787
F145	F	0.334145	0.161089	-0.000143
F146	F	0.834145	0.661089	0.499857
F147	F	0.532870	0.218637	-0.000122
F148	F	1.032870	0.718637	0.499878
H149	H	0.711300	-0.067092	-0.000058
H150	H	1.211300	0.432908	0.499942
H151	H	0.801367	-0.168486	-0.000091
H152	H	1.301367	0.331514	0.499909
H153	H	0.341800	-0.115872	-0.000101
H154	H	0.841800	0.384128	0.499899
F155	F	0.830905	-0.459802	-0.000110
F156	F	1.330905	0.040198	0.499890
F157	F	0.806430	-0.702071	-0.000104
F158	F	1.306430	-0.202071	0.499896
H159	H	0.751226	0.258014	0.360838
H160	H	1.251226	0.758014	0.860838
F161	F	0.738664	0.272154	0.658200
F162	F	1.238664	0.772154	1.158200
H163	H	0.788727	-0.315573	-0.000105
H164	H	1.288727	0.184427	0.499895
F165	F	0.842488	0.155345	0.183393
F166	F	1.342488	0.655345	0.683393
F167	F	1.147512	-0.187825	0.658152
F168	F	1.647512	0.312175	1.158152
