data_functionalizedCrystal
_audit_creation_method	'MofGen! by Chris Wilmer'
_symmetry_space_group_name_H-M	'P1'
_symmetry_Int_Tables_number	1
_symmetry_cell_setting	triclinic
loop_
_symmetry_equiv_pos_as_xyz
  x,y,z
_cell_length_a	19.188925
_cell_length_b	19.188930
_cell_length_c	16.053802
_cell_angle_alpha	92.551696
_cell_angle_beta	87.426601
_cell_angle_gamma	83.143665
loop_
_atom_site_label
_atom_site_type_symbol
_atom_site_fract_x
_atom_site_fract_y
_atom_site_fract_z
O1	O	0.929103	0.084200	-0.069456
O2	O	1.262436	0.417533	0.263877
O3	O	1.595770	0.750866	0.597210
O4	O	0.725791	0.095938	-0.069455
O5	O	1.059124	0.429271	0.263878
O6	O	1.392458	0.762605	0.597211
O7	O	0.833313	-0.011586	-0.069439
O8	O	1.166647	0.321747	0.263894
O9	O	1.499980	0.655080	0.597227
O10	O	0.821580	0.191724	-0.069472
O11	O	1.154914	0.525057	0.263861
O12	O	1.488247	0.858390	0.597195
O13	O	0.827395	-0.005692	0.069419
O14	O	1.160728	0.327641	0.402752
O15	O	1.494062	0.660974	0.736085
O16	O	0.719873	0.101832	0.069403
O17	O	1.053206	0.435165	0.402736
O18	O	1.386539	0.768499	0.736069
O19	O	0.923185	0.090094	0.069402
O20	O	1.256518	0.423427	0.402735
O21	O	1.589851	0.756760	0.736068
Zn22	Zn	0.820589	0.096899	0.091449
Zn23	Zn	1.153922	0.430232	0.424782
Zn24	Zn	1.487256	0.763565	0.758116
Zn25	Zn	0.828387	0.089133	-0.091502
Zn26	Zn	1.161720	0.422466	0.241831
Zn27	Zn	1.495053	0.755800	0.575164
O28	O	0.815662	0.197618	0.069386
O29	O	1.148996	0.530951	0.402719
O30	O	1.482329	0.864285	0.736053
C31	C	0.696821	0.098505	-0.000026
C32	C	1.030154	0.431839	0.333307
C33	C	1.363487	0.765172	0.666641
C34	C	0.619316	0.097366	-0.000025
C35	C	0.952649	0.430700	0.333309
C36	C	1.285983	0.764033	0.666642
C37	C	0.057546	0.152830	-0.000036
C38	C	0.390880	0.486163	0.333298
C39	C	0.724213	0.819497	0.666631
C40	C	0.130370	0.153906	-0.000040
C41	C	0.463703	0.487239	0.333293
C42	C	0.797036	0.820573	0.666626
C43	C	0.175304	0.090815	-0.000029
C44	C	0.508637	0.424148	0.333305
C45	C	0.841970	0.757481	0.666638
C46	C	0.147410	0.026641	-0.000034
C47	C	0.480743	0.359974	0.333300
C48	C	0.814076	0.693308	0.666633
C49	C	0.074588	0.025566	-0.000038
C50	C	0.407921	0.358899	0.333296
C51	C	0.741255	0.692233	0.666629
N52	N	0.293966	0.047145	0.047247
N53	N	0.627299	0.380478	0.380580
N54	N	0.960633	0.713812	0.713914
N55	N	0.363143	0.048170	0.047252
N56	N	0.696476	0.381504	0.380586
N57	N	1.029810	0.714837	0.713919
C58	C	0.394712	0.094049	-0.000019
C59	C	0.728046	0.427382	0.333314
C60	C	1.061379	0.760716	0.666647
N61	N	0.354490	0.138874	-0.047286
N62	N	0.687823	0.472208	0.286047
N63	N	1.021156	0.805541	0.619381
N64	N	0.285306	0.137851	-0.047287
N65	N	0.618639	0.471184	0.286046
N66	N	0.951972	0.804518	0.619379
C67	C	0.254268	0.091973	-0.000025
C68	C	0.587601	0.425306	0.333308
C69	C	0.920934	0.758640	0.666641
C70	C	0.501562	0.159385	-0.000025
C71	C	0.834895	0.492719	0.333308
C72	C	1.168228	0.826052	0.666642
C73	C	0.574387	0.160459	-0.000035
C74	C	0.907720	0.493792	0.333298
C75	C	1.241054	0.827125	0.666632
C76	C	0.591426	0.033192	-0.000020
C77	C	0.924759	0.366525	0.333313
C78	C	1.258092	0.699859	0.666647
C79	C	0.518602	0.032120	-0.000019
C80	C	0.851935	0.365453	0.333315
C81	C	1.185268	0.698787	0.666648
C82	C	0.473674	0.095219	-0.000017
C83	C	0.807007	0.428552	0.333316
C84	C	1.140340	0.761886	0.666649
C85	C	0.829974	-0.034650	-0.000008
C86	C	1.163307	0.298683	0.333325
C87	C	1.496641	0.632016	0.666659
C88	C	0.828833	-0.112154	-0.000001
C89	C	1.162166	0.221179	0.333332
C90	C	1.495500	0.554512	0.666666
C91	C	0.891924	-0.157079	0.000003
C92	C	1.225257	0.176254	0.333336
C93	C	1.558591	0.509587	0.666669
C94	C	0.890853	-0.229904	-0.000011
C95	C	1.224186	0.103430	0.333323
C96	C	1.557520	0.436763	0.666656
C97	C	0.826687	-0.257799	-0.000011
C98	C	1.160020	0.075534	0.333322
C99	C	1.493353	0.408868	0.666656
C100	C	0.763588	-0.212864	-0.000019
C101	C	1.096921	0.120469	0.333314
C102	C	1.430254	0.453802	0.666647
C103	C	0.764661	-0.140042	-0.000014
C104	C	1.097994	0.193291	0.333319
C105	C	1.431328	0.526625	0.666652
N106	N	0.775625	-0.363797	0.047245
N107	N	1.108958	-0.030464	0.380579
N108	N	1.442292	0.302869	0.713912
N109	N	0.774610	-0.432976	0.047242
N110	N	1.107943	-0.099643	0.380576
N111	N	1.441276	0.233691	0.713909
C112	C	0.823449	-0.477208	-0.000028
C113	C	1.156783	-0.143875	0.333306
C114	C	1.490116	0.189458	0.666639
N115	N	0.873353	-0.449650	-0.047284
N116	N	1.206686	-0.116316	0.286049
N117	N	1.540019	0.217017	0.619382
N118	N	0.874370	-0.380465	-0.047278
N119	N	1.207703	-0.047131	0.286056
N120	N	1.541036	0.286202	0.619389
C121	C	0.825516	-0.336762	-0.000017
C122	C	1.158849	-0.003428	0.333317
C123	C	1.492182	0.329905	0.666650
C124	C	0.885383	-0.601098	-0.000040
C125	C	1.218716	-0.267765	0.333294
C126	C	1.552050	0.065568	0.666627
C127	C	0.884310	-0.673924	-0.000058
C128	C	1.217643	-0.340591	0.333275
C129	C	1.550976	-0.007257	0.666608
C130	C	0.757042	-0.656883	-0.000059
C131	C	1.090376	-0.323549	0.333275
C132	C	1.423709	0.009784	0.666608
C133	C	0.758118	-0.584059	-0.000048
C134	C	1.091451	-0.250726	0.333285
C135	C	1.424785	0.082608	0.666618
C136	C	0.822290	-0.556171	-0.000035
C137	C	1.155623	-0.222838	0.333298
C138	C	1.488957	0.110495	0.666632
C139	C	0.952155	0.087526	-0.000029
C140	C	1.285488	0.420859	0.333304
C141	C	1.618822	0.754193	0.666637
C142	C	1.029660	0.088665	-0.000036
C143	C	1.362993	0.421998	0.333297
C144	C	1.696327	0.755332	0.666631
C145	C	0.819002	0.220682	-0.000047
C146	C	1.152335	0.554015	0.333286
C147	C	1.485668	0.887348	0.666619
C148	C	0.820143	0.298186	-0.000060
C149	C	1.153476	0.631519	0.333273
C150	C	1.486809	0.964852	0.666607
N151	N	0.815273	0.102198	0.216309
N152	N	1.148606	0.435531	0.549642
N153	N	1.481939	0.768865	0.882975
N154	N	0.833709	0.083828	-0.216362
N155	N	1.167042	0.417161	0.116971
N156	N	1.500375	0.750495	0.450305
C157	C	0.861040	0.056463	0.260009
C158	C	1.194373	0.389796	0.593342
C159	C	1.527707	0.723129	0.926676
C160	C	0.857328	0.060176	0.347415
C161	C	1.190661	0.393510	0.680749
C162	C	1.523994	0.726843	1.014082
C163	C	0.807850	0.109629	0.391119
C164	C	1.141184	0.442963	0.724453
C165	C	1.474517	0.776296	1.057786
C166	C	0.762078	0.155367	0.347413
C167	C	1.095411	0.488700	0.680746
C168	C	1.428745	0.822034	1.014079
C169	C	0.765788	0.151649	0.260008
C170	C	1.099121	0.484983	0.593341
C171	C	1.432454	0.818316	0.926675
C172	C	0.791646	0.125848	0.652527
C173	C	1.124979	0.459181	0.985860
C174	C	1.458313	0.792515	1.319193
C175	C	0.787941	0.129563	0.739937
C176	C	1.121274	0.462897	1.073271
C177	C	1.454608	0.796230	1.406604
C178	C	0.883190	0.034371	0.739934
C179	C	1.216524	0.367705	1.073267
C180	C	1.549857	0.701038	1.406601
C181	C	0.886898	0.030661	0.652528
C182	C	1.220232	0.363995	0.985861
C183	C	1.553565	0.697328	1.319194
C184	C	0.841124	0.076396	0.608829
C185	C	1.174457	0.409730	0.942162
C186	C	1.507790	0.743063	1.275495
N187	N	0.804056	0.113428	0.480463
N188	N	1.137389	0.446761	0.813796
N189	N	1.470723	0.780095	1.147129
N190	N	0.844915	0.072594	0.519487
N191	N	1.178249	0.405927	0.852820
N192	N	1.511582	0.739260	1.186154
H193	H	0.464979	0.210764	-0.000026
H194	H	0.798313	0.544097	0.333308
H195	H	1.131646	0.877431	0.666641
H196	H	0.704797	-0.679594	-0.000063
H197	H	1.038130	-0.346261	0.333270
H198	H	1.371464	-0.012928	0.666604
H199	H	0.713283	-0.103463	-0.000017
H200	H	1.046616	0.229870	0.333316
H201	H	1.379950	0.563203	0.666650
H202	H	0.894595	0.022934	0.382996
H203	H	1.227928	0.356268	0.716329
H204	H	1.561261	0.689601	1.049663
C205	C	1.003773	-0.152208	-0.071375
C206	C	1.337107	0.181125	0.261958
C207	C	1.670440	0.514458	0.595292
C208	C	0.962462	-0.126427	0.000007
C209	C	1.295795	0.206906	0.333340
C210	C	1.629129	0.540239	0.666674
H211	H	1.047319	-0.133280	-0.071374
H212	H	1.380652	0.200053	0.261959
H213	H	1.713985	0.533387	0.595293
H214	H	1.012159	-0.202002	-0.071370
H215	H	1.345492	0.131331	0.261963
H216	H	1.678825	0.464664	0.595297
H217	H	0.979862	-0.138815	-0.119792
H218	H	1.313195	0.194518	0.213541
H219	H	1.646529	0.527851	0.546874
H220	H	0.986371	-0.139825	0.048425
H221	H	1.319704	0.193509	0.381758
H222	H	1.653038	0.526842	0.715091
H223	H	0.954078	-0.076622	0.000010
H224	H	1.287412	0.256711	0.333343
H225	H	1.620745	0.590044	0.666676
C226	C	0.637901	-0.188708	-0.000028
C227	C	0.971235	0.144626	0.333306
C228	C	1.304568	0.477959	0.666639
C229	C	0.693054	-0.243523	-0.000022
C230	C	1.026387	0.089810	0.333311
C231	C	1.359721	0.423144	0.666644
H232	H	0.594357	-0.207636	-0.000039
H233	H	0.927690	0.125697	0.333295
H234	H	1.261023	0.459030	0.666628
H235	H	0.638900	-0.158612	0.048394
H236	H	0.972233	0.174721	0.381727
H237	H	1.305566	0.508054	0.715061
H238	H	0.643039	-0.162707	-0.048452
H239	H	0.976372	0.170627	0.284881
H240	H	1.309706	0.503960	0.618214
H241	H	0.687919	-0.269521	0.048405
H242	H	1.021253	0.063812	0.381739
H243	H	1.354586	0.397145	0.715072
H244	H	0.692055	-0.273631	-0.048449
H245	H	1.025388	0.059703	0.284884
H246	H	1.358721	0.393036	0.618217
C247	C	0.995504	-0.713875	-0.071428
C248	C	1.328837	-0.380542	0.261906
C249	C	1.662171	-0.047208	0.595239
C250	C	0.953667	-0.723307	-0.000055
C251	C	1.287000	-0.389973	0.333278
C252	C	1.620334	-0.056640	0.666611
H253	H	1.038324	-0.744359	-0.071421
H254	H	1.371658	-0.411026	0.261912
H255	H	1.704991	-0.077693	0.595245
H256	H	0.971252	-0.724360	-0.119846
H257	H	1.304586	-0.391027	0.213487
H258	H	1.637919	-0.057693	0.546820
H259	H	1.005318	-0.666510	-0.071410
H260	H	1.338651	-0.333176	0.261923
H261	H	1.671985	0.000157	0.595256
H262	H	0.943849	-0.770671	-0.000076
H263	H	1.277182	-0.437338	0.333258
H264	H	1.610515	-0.104005	0.666591
H265	H	0.977924	-0.712827	0.048376
H266	H	1.311257	-0.379493	0.381709
H267	H	1.644590	-0.046160	0.715043
H268	H	0.597090	0.212711	-0.000042
H269	H	0.930423	0.546045	0.333292
H270	H	1.263756	0.879378	0.666625
C271	C	0.768312	0.228812	0.838199
C272	C	1.101645	0.562145	1.171532
C273	C	1.434979	0.895478	1.504866
C274	C	0.733548	0.183926	0.787973
C275	C	1.066881	0.517259	1.121307
C276	C	1.400214	0.850593	1.454640
H277	H	0.734733	0.262374	0.867848
H278	H	1.068066	0.595707	1.201182
H279	H	1.401399	0.929040	1.534515
H280	H	0.795034	0.202108	0.876733
H281	H	1.128367	0.535442	1.210067
H282	H	1.461701	0.868775	1.543400
H283	H	0.798738	0.252403	0.804074
H284	H	1.132071	0.585736	1.137407
H285	H	1.465405	0.919070	1.470740
H286	H	0.703125	0.160331	0.822099
H287	H	1.036458	0.493664	1.155433
H288	H	1.369792	0.826997	1.488766
H289	H	0.706814	0.210633	0.749435
H290	H	1.040147	0.543966	1.082768
H291	H	1.373480	0.877299	1.416101
H292	H	0.706742	-0.547480	-0.000047
H293	H	1.040075	-0.214146	0.333287
H294	H	1.373409	0.119187	0.666620
H295	H	0.184000	-0.024729	-0.000027
H296	H	0.517333	0.308605	0.333307
H297	H	0.850666	0.641938	0.666640
H298	H	0.901332	0.016196	0.224431
H299	H	1.234666	0.349529	0.557764
H300	H	1.567999	0.682862	0.891098
H301	H	0.754375	0.163089	0.616954
H302	H	1.087709	0.496422	0.950287
H303	H	1.421042	0.829755	1.283620
C304	C	0.686245	-0.042454	-0.071390
C305	C	1.019578	0.290879	0.261943
C306	C	1.352911	0.624212	0.595277
C307	C	0.640809	-0.036161	-0.000010
C308	C	0.974143	0.297172	0.333323
C309	C	1.307476	0.630506	0.666656
H310	H	0.716736	-0.085270	-0.071383
H311	H	1.050070	0.248063	0.261951
H312	H	1.383403	0.581397	0.595284
H313	H	0.659545	-0.042283	-0.119804
H314	H	0.992878	0.291050	0.213530
H315	H	1.326212	0.624383	0.546863
H316	H	0.713275	-0.004081	-0.071384
H317	H	1.046608	0.329252	0.261950
H318	H	1.379941	0.662585	0.595283
H319	H	0.613775	-0.074531	-0.000020
H320	H	0.947109	0.258802	0.333314
H321	H	1.280442	0.592135	0.666647
H322	H	0.667512	-0.036338	0.048416
H323	H	1.000845	0.296995	0.381749
H324	H	1.334178	0.630328	0.715083
H325	H	0.051884	-0.026686	-0.000038
H326	H	0.385218	0.306647	0.333295
H327	H	0.718551	0.639980	0.666629
C328	C	0.963455	-0.532095	-0.071412
C329	C	1.296789	-0.198762	0.261922
C330	C	1.630122	0.134571	0.595255
C331	C	0.955917	-0.570434	-0.000037
C332	C	1.289250	-0.237101	0.333296
C333	C	1.622583	0.096233	0.666630
H334	H	1.006998	-0.513162	-0.071406
H335	H	1.340331	-0.179829	0.261927
H336	H	1.673665	0.153504	0.595260
H337	H	0.962459	-0.562197	-0.119829
H338	H	1.295792	-0.228863	0.213505
H339	H	1.629125	0.104470	0.546838
H340	H	0.926027	-0.494918	-0.071396
H341	H	1.259360	-0.161585	0.261937
H342	H	1.592693	0.171748	0.595270
H343	H	0.993343	-0.607615	-0.000056
H344	H	1.326676	-0.274281	0.333278
H345	H	1.660010	0.059052	0.666611
H346	H	0.956920	-0.540331	0.048393
H347	H	1.290253	-0.206998	0.381726
H348	H	1.623587	0.126336	0.715059
C349	C	0.980669	-0.063066	0.661308
C350	C	1.314002	0.270267	0.994641
C351	C	1.647335	0.603601	1.327974
C352	C	0.941282	-0.023703	0.604491
C353	C	1.274615	0.309630	0.937824
C354	C	1.607948	0.642963	1.271158
H355	H	1.014240	-0.096630	0.631650
H356	H	1.347574	0.236703	0.964983
H357	H	1.680907	0.570037	1.298316
H358	H	1.004246	-0.032617	0.695380
H359	H	1.337579	0.300717	1.028713
H360	H	1.670912	0.634050	1.362047
H361	H	0.950230	-0.086657	0.695417
H362	H	1.283563	0.246677	1.028750
H363	H	1.616897	0.580010	1.362084
H364	H	0.971720	-0.000108	0.570386
H365	H	1.305053	0.333225	0.903719
H366	H	1.638386	0.666558	1.237052
H367	H	0.917703	-0.054157	0.570404
H368	H	1.251037	0.279176	0.903738
H369	H	1.584370	0.612510	1.237071
C370	C	0.714104	0.203338	0.481397
C371	C	1.047437	0.536672	0.814731
C372	C	1.380770	0.870005	1.148064
C373	C	0.707693	0.209729	0.395450
C374	C	1.041026	0.543062	0.728784
C375	C	1.374359	0.876395	1.062117
H376	H	0.680531	0.236905	0.511051
H377	H	1.013865	0.570238	0.844384
H378	H	1.347198	0.903571	1.177717
H379	H	0.706055	0.157375	0.495736
H380	H	1.039389	0.490708	0.829069
H381	H	1.372722	0.824041	1.162402
H382	H	0.760071	0.211414	0.495695
H383	H	1.093405	0.544748	0.829028
H384	H	1.426738	0.878081	1.162362
H385	H	0.661726	0.201648	0.381152
H386	H	0.995060	0.534981	0.714485
H387	H	1.328393	0.868314	1.047818
H388	H	0.715736	0.255703	0.381106
H389	H	1.049069	0.589037	0.714439
H390	H	1.382403	0.922370	1.047773
H391	H	0.942231	-0.266489	-0.000011
H392	H	1.275564	0.066844	0.333322
H393	H	1.608897	0.400178	0.666656
H394	H	0.495897	-0.020130	-0.000014
H395	H	0.829230	0.313203	0.333319
H396	H	1.162564	0.646537	0.666653
C397	C	0.671273	0.246121	0.268785
C398	C	1.004606	0.579455	0.602118
C399	C	1.337940	0.912788	0.935452
C400	C	0.715482	0.201927	0.211969
C401	C	1.048815	0.535260	0.545302
C402	C	1.382149	0.868593	0.878636
H403	H	0.640218	0.277162	0.239126
H404	H	0.973551	0.610496	0.572460
H405	H	1.306884	0.943829	0.905793
H406	H	0.644803	0.218571	0.302890
H407	H	0.978137	0.551904	0.636223
H408	H	1.311470	0.885238	0.969557
H409	H	0.698818	0.272612	0.302861
H410	H	1.032151	0.605946	0.636194
H411	H	1.365485	0.939279	0.969528
H412	H	0.687937	0.175432	0.177896
H413	H	1.021270	0.508765	0.511230
H414	H	1.354604	0.842098	0.844563
H415	H	0.741954	0.229480	0.177849
H416	H	1.075287	0.562813	0.511183
H417	H	1.408620	0.896147	0.844516
H418	H	0.020970	0.204210	-0.000038
H419	H	0.354303	0.537543	0.333295
H420	H	0.687637	0.870877	0.666628
C421	C	0.141321	0.259696	-0.071411
C422	C	0.474655	0.593029	0.261922
C423	C	0.807988	0.926362	0.595256
C424	C	0.161033	0.224441	-0.000032
C425	C	0.494367	0.557774	0.333301
C426	C	0.827700	0.891108	0.666634
H427	H	0.160248	0.303242	-0.071400
H428	H	0.493581	0.636575	0.261933
H429	H	0.826915	0.969909	0.595267
H430	H	0.158825	0.231680	-0.119825
H431	H	0.492158	0.565013	0.213508
H432	H	0.825492	0.898346	0.546841
H433	H	0.091520	0.268084	-0.071407
H434	H	0.424854	0.601418	0.261926
H435	H	0.758187	0.934751	0.595260
H436	H	0.210834	0.216048	-0.000039
H437	H	0.544168	0.549381	0.333294
H438	H	0.877501	0.882714	0.666627
H439	H	0.143533	0.252463	0.048395
H440	H	0.476866	0.585797	0.381728
H441	H	0.810200	0.919130	0.715061
H442	H	0.920457	-0.002865	0.775522
H443	H	1.253791	0.330469	1.108855
H444	H	1.587124	0.663802	1.442189
