data_functionalizedCrystal
_audit_creation_method	'MofGen! by Chris Wilmer'
_symmetry_space_group_name_H-M	'P1'
_symmetry_Int_Tables_number	1
_symmetry_cell_setting	triclinic
loop_
_symmetry_equiv_pos_as_xyz
  x,y,z
_cell_length_a	12.827885
_cell_length_b	12.759401
_cell_length_c	12.759399
_cell_angle_alpha	90.016641
_cell_angle_beta	90.030910
_cell_angle_gamma	90.019449
loop_
_atom_site_label
_atom_site_type_symbol
_atom_site_fract_x
_atom_site_fract_y
_atom_site_fract_z
Zn1	Zn	-0.590845	-1.606248	0.418173
Zn2	Zn	-0.090845	-1.106248	0.918173
Zn3	Zn	-0.416102	-1.606142	0.593888
Zn4	Zn	0.083898	-1.106142	1.093888
Zn5	Zn	-0.416119	-1.430551	0.418229
Zn6	Zn	0.083881	-0.930551	0.918229
Zn7	Zn	-0.590802	-1.430537	0.593815
Zn8	Zn	-0.090802	-0.930537	1.093815
O9	O	-0.503467	-1.518370	0.506026
O10	O	-0.003467	-1.018370	1.006026
O11	O	-0.567677	-1.753255	0.441489
O12	O	-0.067677	-1.253255	0.941489
O13	O	-0.269868	-1.582811	0.570641
O14	O	0.230132	-1.082811	1.070641
O15	O	-0.439322	-1.453908	0.271200
O16	O	0.060678	-0.953908	0.771200
O17	O	-0.439294	-1.753177	0.570587
O18	O	0.060706	-1.253177	1.070587
O19	O	-0.567693	-1.582991	0.271159
O20	O	-0.067693	-1.082991	0.771159
O21	O	-0.269880	-1.453805	0.441584
O22	O	0.230120	-0.953805	0.941584
O23	O	-0.439279	-1.283528	0.441513
O24	O	0.060721	-0.783528	0.941513
O25	O	-0.737044	-1.453884	0.570461
O26	O	-0.237044	-0.953884	1.070461
O27	O	-0.567618	-1.283518	0.570516
O28	O	-0.067618	-0.783518	1.070516
O29	O	-0.737076	-1.582978	0.441418
O30	O	-0.237076	-1.082978	0.941418
O31	O	-0.439252	-1.582798	0.740900
O32	O	0.060748	-1.082798	1.240900
O33	O	-0.567602	-1.453782	0.740846
O34	O	-0.067602	-0.953782	1.240846
C35	C	-0.503446	-1.245402	0.506013
C36	C	-0.003446	-0.745402	1.006013
C37	C	-0.503462	-1.128626	0.506033
C38	C	-0.003462	-0.628626	1.006033
C39	C	-0.503443	-1.518305	0.778993
C40	C	-0.003443	-1.018305	1.278993
C41	C	-0.503468	-1.518374	0.895770
C42	C	-0.003468	-1.018374	1.395770
C43	C	-0.776037	-1.518441	0.505925
C44	C	-0.276037	-1.018441	1.005925
C45	C	-0.892191	-1.518472	0.505882
C46	C	-0.392191	-1.018472	1.005882
C47	C	-0.943991	-1.582358	0.442015
C48	C	-0.443991	-1.082358	0.942015
C49	C	-1.064042	-1.582391	0.441969
C50	C	-0.564042	-1.082391	0.941969
C51	C	-0.231957	-1.518359	0.506051
C52	C	0.268043	-1.018359	1.006051
C53	C	-0.115805	-1.518532	0.505798
C54	C	0.384195	-1.018532	1.005798
C55	C	-0.503488	-1.792403	0.506040
C56	C	-0.003488	-1.292403	1.006040
C57	C	-0.503498	-1.909180	0.506046
C58	C	-0.003498	-1.409180	1.006046
C59	C	-0.570183	-1.073786	0.573307
C60	C	-0.070183	-0.573786	1.073307
C61	C	-0.570204	-0.964062	0.573311
C62	C	-0.070204	-0.464062	1.073311
C63	C	-0.436774	-0.964027	0.438764
C64	C	0.063226	-0.464027	0.938764
C65	C	-0.436759	-1.073749	0.438756
C66	C	0.063241	-0.573749	0.938756
C67	C	-0.503514	-1.518463	0.231993
C68	C	-0.003514	-1.018463	0.731993
C69	C	-0.503534	-1.518503	0.115216
C70	C	-0.003534	-1.018503	0.615216
C71	C	-0.436712	-1.585629	0.950625
C72	C	0.063288	-1.085629	1.450625
C73	C	-0.436747	-1.585697	1.060349
C74	C	0.063253	-1.085697	1.560349
C75	C	-0.570297	-1.451244	1.060353
C76	C	-0.070297	-0.951244	1.560353
C77	C	-0.570267	-1.451183	0.950631
C78	C	-0.070267	-0.951183	1.450631
H79	H	-0.899463	-1.637026	0.387366
H80	H	-0.399463	-1.137026	0.887366
H81	H	-1.108589	-1.637090	0.387293
H82	H	-0.608589	-1.137090	0.887293
H83	H	-0.936719	-1.463794	0.560520
H84	H	-0.436719	-0.963794	1.060520
H85	H	-0.382465	-0.919333	0.383991
H86	H	0.117535	-0.419333	0.883991
O87	O	-1.062558	-1.453423	0.571088
O88	O	-0.562558	-0.953423	1.071088
C89	C	-0.999437	-1.513261	0.638931
C90	C	-0.499437	-1.013261	1.138931
H91	H	-0.983210	-1.592904	0.601871
H92	H	-0.483210	-1.092904	1.101871
H93	H	-0.922633	-1.470516	0.652968
H94	H	-0.422633	-0.970516	1.152968
H95	H	-1.041426	-1.524750	0.716812
H96	H	-0.541426	-1.024750	1.216812
O97	O	-0.635226	-1.386118	1.113765
O98	O	-0.135226	-0.886118	1.613765
C99	C	-0.702807	-1.445932	1.177109
C100	C	-0.202807	-0.945932	1.677109
H101	H	-0.666025	-1.525581	1.193509
H102	H	-0.166025	-1.025581	1.693509
H103	H	-0.716792	-1.403172	1.254291
H104	H	-0.216792	-0.903172	1.754291
H105	H	-0.780250	-1.457408	1.134753
H106	H	-0.280250	-0.957408	1.634753
H107	H	-0.624633	-1.396415	0.905965
H108	H	-0.124633	-0.896415	1.405965
O109	O	-0.635126	-0.910744	0.638513
O110	O	-0.135126	-0.410744	1.138513
C111	C	-0.702722	-0.847306	0.578788
C112	C	-0.202722	-0.347306	1.078788
H113	H	-0.709318	-0.880393	0.496047
H114	H	-0.209318	-0.380393	0.996047
H115	H	-0.783076	-0.846095	0.616888
H116	H	-0.283076	-0.346095	1.116888
H117	H	-0.670433	-0.764133	0.575134
H118	H	-0.170433	-0.264133	1.075134
O119	O	-0.635082	-1.126932	0.638683
O120	O	-0.135082	-0.626932	1.138683
C121	C	-0.693959	-1.054994	0.698077
C122	C	-0.193959	-0.554994	1.198077
H123	H	-0.697658	-0.976791	0.655053
H124	H	-0.197658	-0.476791	1.155053
H125	H	-0.776272	-1.086731	0.709377
H126	H	-0.276272	-0.586731	1.209377
H127	H	-0.655558	-1.043289	0.777826
H128	H	-0.155558	-0.543289	1.277826
O129	O	-0.371842	-1.126865	0.373369
O130	O	0.128158	-0.626865	0.873369
C131	C	-0.312984	-1.054904	0.313979
C132	C	0.187016	-0.554904	0.813979
H133	H	-0.309296	-0.976678	0.357011
H134	H	0.190704	-0.476678	0.857011
H135	H	-0.230665	-1.086575	0.302669
H136	H	0.269335	-0.586575	0.802669
H137	H	-0.351393	-1.043270	0.234234
H138	H	0.148607	-0.543270	0.734234
H139	H	-0.382322	-1.640342	0.905960
H140	H	0.117678	-1.140342	1.405960
H141	H	-0.382389	-1.640464	1.105007
H142	H	0.117611	-1.140464	1.605007
