data_functionalizedCrystal
_audit_creation_method	'MofGen! by Chris Wilmer'
_symmetry_space_group_name_H-M	'P1'
_symmetry_Int_Tables_number	1
_symmetry_cell_setting	triclinic
loop_
_symmetry_equiv_pos_as_xyz
  x,y,z
_cell_length_a	14.044220
_cell_length_b	10.654550
_cell_length_c	9.730223
_cell_angle_alpha	89.993622
_cell_angle_beta	90.001055
_cell_angle_gamma	91.163110
loop_
_atom_site_label
_atom_site_type_symbol
_atom_site_fract_x
_atom_site_fract_y
_atom_site_fract_z
O1	O	0.133225	-1.681227	0.114408
O2	O	0.145919	-1.317024	0.114387
O3	O	0.001551	-1.493659	0.114384
O4	O	0.277593	-1.504592	0.114411
O5	O	0.001559	-1.493647	-0.114196
O6	O	0.145927	-1.317012	-0.114193
O7	O	0.133233	-1.681215	-0.114172
Zn8	Zn	0.139581	-1.499112	-0.150474
Zn9	Zn	0.139571	-1.499127	0.150689
O10	O	0.277601	-1.504581	-0.114169
C11	C	-0.033790	-1.488867	0.000093
C12	C	-0.139110	-1.474592	0.000090
C13	C	0.144991	-1.270127	0.000094
C14	C	0.142202	-1.130403	0.000085
C15	C	0.134161	-1.728113	0.000124
C16	C	0.136950	-1.867836	0.000142
C17	C	-0.331943	-1.448493	0.000108
C18	C	-0.388911	-1.549741	0.000119
C19	C	-0.496210	-1.535219	0.000129
C20	C	-0.224634	-1.463013	0.000098
C21	C	0.312942	-1.509372	0.000125
C22	C	0.418262	-1.523648	0.000137
N23	N	0.139588	-1.499111	-0.356011
C24	C	0.227203	-1.059459	0.000114
C25	C	0.224578	-0.928175	0.000137
C26	C	0.051942	-0.938790	0.000109
C27	C	0.054569	-1.070072	0.000076
C28	C	0.326873	-1.053330	0.000136
C29	C	0.324247	-0.922045	0.000159
C30	C	0.197650	-1.581775	-0.427939
C31	C	0.197632	-1.581792	-0.571822
C32	C	0.081488	-1.416470	-0.571836
C33	C	0.081501	-1.416460	-0.427955
C34	C	0.264709	-1.677219	-0.427933
C35	C	0.264691	-1.677236	-0.571815
N36	N	0.139557	-1.499138	0.356226
H37	H	-0.357098	-1.647328	0.000217
H38	H	0.034195	-1.349178	-0.630431
H39	H	-0.363754	-1.350913	0.000106
C40	C	-0.116335	-1.067372	0.000034
C41	C	-0.038867	-1.148055	0.000030
H42	H	-0.174020	-1.115518	0.000012
H43	H	-0.113758	-1.015923	-0.079657
H44	H	-0.113773	-1.015971	0.079765
H45	H	-0.041425	-1.199450	-0.079708
H46	H	-0.041445	-1.199526	0.079729
H47	H	-0.019406	-0.889652	0.000123
C48	C	0.408777	-0.994137	-0.207301
C49	C	0.379493	-1.098220	-0.129003
H50	H	0.441255	-1.021855	-0.287027
H51	H	0.450286	-0.942064	-0.154139
H52	H	0.354645	-0.947917	-0.233855
H53	H	0.433626	-1.144436	-0.102439
H54	H	0.337982	-1.150315	-0.182174
C55	C	0.395176	-1.006339	0.220881
C56	C	0.369718	-1.105788	0.133355
H57	H	0.421629	-1.038729	0.303121
H58	H	0.340278	-0.959534	0.242292
H59	H	0.440900	-0.953321	0.176592
H60	H	0.323988	-1.158801	0.177639
H61	H	0.424622	-1.152613	0.111946
C62	C	0.214131	-1.886951	-0.487091
C63	C	0.233238	-1.807764	-0.375177
H64	H	0.194697	-1.967537	-0.454518
H65	H	0.269973	-1.894286	-0.541324
H66	H	0.164751	-1.852740	-0.541316
H67	H	0.282623	-1.841970	-0.320956
H68	H	0.177389	-1.800432	-0.320920
H69	H	0.354372	-0.879395	-0.098522
H70	H	0.361798	-0.884091	0.095831
C71	C	-0.033309	-1.253057	-0.442427
C72	C	0.017671	-1.325600	-0.348890
H73	H	-0.072712	-1.196958	-0.393613
H74	H	-0.071772	-1.306552	-0.498525
H75	H	0.009985	-1.206446	-0.498565
H76	H	-0.025623	-1.372218	-0.292759
H77	H	0.056137	-1.272098	-0.292769
C78	C	0.424439	-1.604873	-0.474889
C79	C	0.361129	-1.633547	-0.367698
H80	H	0.483964	-1.577917	-0.437698
H81	H	0.399155	-1.539823	-0.529832
H82	H	0.433144	-1.677444	-0.529818
H83	H	0.352418	-1.560973	-0.312774
H84	H	0.386418	-1.698602	-0.312731
H85	H	0.234874	-1.768831	-0.616415
H86	H	0.339490	-1.653821	-0.610883
