data_functionalizedCrystal
_audit_creation_method	'MofGen! by Chris Wilmer'
_symmetry_space_group_name_H-M	'P1'
_symmetry_Int_Tables_number	1
_symmetry_cell_setting	triclinic
loop_
_symmetry_equiv_pos_as_xyz
  x,y,z
_cell_length_a	6.817900
_cell_length_b	19.551786
_cell_length_c	10.943624
_cell_angle_alpha	94.461899
_cell_angle_beta	108.838799
_cell_angle_gamma	101.662645
loop_
_atom_site_label
_atom_site_type_symbol
_atom_site_fract_x
_atom_site_fract_y
_atom_site_fract_z
V1	V	-4.079286	-0.096656	-0.403150
O2	O	-4.074951	0.004664	-0.394859
O3	O	-4.021641	-0.191671	-0.400986
O4	O	-4.057808	-0.095161	-0.578708
O5	O	-4.038534	-0.092514	-0.215908
V6	V	-4.560623	-0.084538	-0.380683
O7	O	-4.345339	-0.123238	-0.452435
O8	O	-4.744767	-0.057956	-0.331398
O9	O	-4.395061	0.010477	-0.382847
O10	O	-4.682354	-0.185858	-0.388974
O11	O	-4.718771	-0.088680	-0.567925
O12	O	-4.358894	-0.086033	-0.205125
C13	C	-3.863522	-0.214834	-0.394780
C14	C	-3.897857	-0.292510	-0.394180
C15	C	-4.089839	-0.842271	-0.271715
C16	C	-4.057556	-0.769285	-0.272264
C17	C	-4.096906	-0.742721	-0.390766
C18	C	-4.168492	-0.789149	-0.508724
C19	C	-4.200752	-0.862133	-0.508170
C20	C	-4.206138	-0.637055	-0.487158
C21	C	-4.173889	-0.564072	-0.487707
C22	C	-3.997399	-0.517614	-0.392479
C23	C	-3.853178	-0.544147	-0.296680
C24	C	-3.885438	-0.617131	-0.296126
C25	C	-4.061930	-0.663583	-0.391380
C26	C	-3.890802	-0.392056	-0.275124
C27	C	-3.858509	-0.319069	-0.275678
C28	C	-3.969467	-0.338934	-0.512142
C29	C	-4.001737	-0.411919	-0.511583
C30	C	-3.962411	-0.438476	-0.393071
C31	C	-3.909655	-0.091725	-0.621479
C32	C	-3.973318	-0.091131	-0.765002
C33	C	-3.819645	-0.087134	-0.842125
C34	C	-3.986774	-0.146473	-0.948483
C35	C	-3.919648	-0.030741	-0.914378
C36	C	-4.139636	-0.150526	-0.869484
C37	C	-4.072450	-0.034742	-0.835355
C38	C	-4.239709	-0.094098	-0.941684
C39	C	-4.216521	0.033636	-0.389050
C40	C	-4.161425	0.111311	-0.389658
C41	C	-4.170387	-0.089472	-0.162347
C42	C	-4.085964	-0.090062	-0.018823
H43	H	-4.060042	-0.449714	-0.607626
H44	H	-4.107924	0.012496	-0.786079
C45	C	-4.264451	-0.218993	-0.842165
H46	H	-4.222886	-0.218974	-0.750518
H47	H	-4.413158	-0.221616	-0.877146
H48	H	-4.234267	-0.258632	-0.881962
C49	C	-3.794845	0.037655	-0.941928
H50	H	-3.646200	0.040043	-0.907672
H51	H	-3.837430	0.037762	-1.033557
H52	H	-3.823874	0.077356	-0.901520
C53	C	-3.847519	-0.421271	-0.144768
H54	H	-3.800227	-0.383169	-0.074600
H55	H	-3.975095	-0.451670	-0.144550
H56	H	-3.740490	-0.446987	-0.134724
C57	C	-4.046547	-0.871479	-0.141356
H58	H	-3.999267	-0.833376	-0.071190
H59	H	-4.174114	-0.901883	-0.141136
H60	H	-3.939505	-0.897190	-0.131309
C61	C	-4.332519	-0.534892	-0.593082
H62	H	-4.442227	-0.573012	-0.649733
H63	H	-4.393664	-0.504547	-0.552434
H64	H	-4.259528	-0.509124	-0.642111
H65	H	-4.200524	-0.767515	-0.605208
C66	C	-4.480442	-0.098094	-1.000144
H67	H	-4.558707	-0.140656	-0.985134
H68	H	-4.511497	-0.058802	-0.959894
H69	H	-4.519644	-0.097305	-1.091490
C70	C	-4.012632	-0.309720	-0.642486
H71	H	-3.983140	-0.259604	-0.625925
H72	H	-3.923366	-0.323431	-0.686005
H73	H	-4.158006	-0.328092	-0.695936
C74	C	-3.938748	-0.210278	-1.015021
H75	H	-3.790016	-0.207744	-0.980749
H76	H	-4.015499	-0.252776	-0.998858
H77	H	-3.981057	-0.209667	-1.106508
H78	H	-3.800204	-0.281275	-0.179630
H79	H	-3.768003	-0.638731	-0.218126
H80	H	-3.999249	-0.731484	-0.176218
H81	H	-3.709464	-0.506322	-0.219136
H82	H	-4.349857	-0.674876	-0.564713
H83	H	-4.259044	-0.899927	-0.604216
H84	H	-3.641518	-0.084268	-0.798658
