data_functionalizedCrystal
_audit_creation_method	'MofGen! by Chris Wilmer'
_symmetry_space_group_name_H-M	'P1'
_symmetry_Int_Tables_number	1
_symmetry_cell_setting	triclinic
loop_
_symmetry_equiv_pos_as_xyz
  x,y,z
_cell_length_a	16.109301
_cell_length_b	11.792254
_cell_length_c	14.586319
_cell_angle_alpha	89.996031
_cell_angle_beta	89.999213
_cell_angle_gamma	83.830039
loop_
_atom_site_label
_atom_site_type_symbol
_atom_site_fract_x
_atom_site_fract_y
_atom_site_fract_z
O1	O	1.103822	0.145884	-0.076183
O2	O	1.437156	0.479218	0.257151
O3	O	1.770489	0.812551	0.590484
O4	O	0.861846	0.164039	-0.076197
O5	O	1.195180	0.497373	0.257136
O6	O	1.528513	0.830706	0.590469
O7	O	0.988701	-0.010259	-0.076183
O8	O	1.322034	0.323074	0.257150
O9	O	1.655368	0.656408	0.590483
O10	O	0.976968	0.320183	-0.076197
O11	O	1.310301	0.653516	0.257136
O12	O	1.643634	0.986850	0.590470
O13	O	0.988692	-0.010262	0.076298
O14	O	1.322025	0.323072	0.409631
O15	O	1.655359	0.656405	0.742964
O16	O	0.861837	0.164037	0.076283
O17	O	1.195171	0.497370	0.409617
O18	O	1.528504	0.830704	0.742950
O19	O	1.103813	0.145882	0.076298
O20	O	1.437147	0.479215	0.409631
O21	O	1.770480	0.812548	0.742965
Cu22	Cu	0.982825	0.154959	0.090213
Cu23	Cu	1.316158	0.488292	0.423547
Cu24	Cu	1.649491	0.821626	0.756880
Cu25	Cu	0.982835	0.154962	-0.090113
Cu26	Cu	1.316168	0.488295	0.243221
Cu27	Cu	1.649502	0.821629	0.576554
O28	O	0.976959	0.320180	0.076284
O29	O	1.310292	0.653514	0.409617
O30	O	1.643625	0.986847	0.742951
C31	C	0.987957	-0.052545	0.000057
C32	C	1.321291	0.280789	0.333390
C33	C	1.654624	0.614122	0.666724
C34	C	0.985745	-0.178538	0.000056
C35	C	1.319078	0.154795	0.333389
C36	C	1.652412	0.488128	0.666723
C37	C	0.830863	0.163303	0.000041
C38	C	1.164197	0.496636	0.333375
C39	C	1.497530	0.829969	0.666708
C40	C	0.738558	0.161098	0.000036
C41	C	1.071891	0.494431	0.333369
C42	C	1.405224	0.827765	0.666702
C43	C	0.516751	0.259397	0.000042
C44	C	0.850085	0.592730	0.333376
C45	C	1.183418	0.926063	0.666709
C46	C	0.430021	0.257316	0.000048
C47	C	0.763354	0.590649	0.333382
C48	C	1.096688	0.923983	0.666715
C49	C	0.448915	0.050517	0.000053
C50	C	0.782249	0.383850	0.333386
C51	C	1.115582	0.717183	0.666720
C52	C	0.535644	0.052598	0.000054
C53	C	0.868977	0.385932	0.333387
C54	C	1.202310	0.719265	0.666720
C55	C	0.569559	0.157042	0.000044
C56	C	0.902893	0.490375	0.333377
C57	C	1.236226	0.823708	0.666710
C58	C	0.396100	0.152880	0.000049
C59	C	0.729434	0.486213	0.333382
C60	C	1.062767	0.819546	0.666716
C61	C	0.302064	0.150623	0.000055
C62	C	0.635397	0.483956	0.333389
C63	C	0.968730	0.817290	0.666722
C64	C	0.663602	0.159299	0.000039
C65	C	0.996935	0.492632	0.333372
C66	C	1.330269	0.825966	0.666706
C67	C	0.983948	-0.280859	0.000053
C68	C	1.317281	0.052474	0.333386
C69	C	1.650614	0.385808	0.666719
C70	C	0.981700	-0.409226	0.000044
C71	C	1.315033	-0.075893	0.333377
C72	C	1.648367	0.257441	0.666711
C73	C	1.134796	0.146618	0.000057
C74	C	1.468129	0.479952	0.333391
C75	C	1.801463	0.813285	0.666724
C76	C	1.227102	0.148823	0.000057
C77	C	1.560435	0.482157	0.333390
C78	C	1.893769	0.815490	0.666724
C79	C	0.977702	0.362466	0.000042
C80	C	1.311036	0.695799	0.333375
C81	C	1.644369	1.029133	0.666708
C82	C	0.979915	0.488459	0.000037
C83	C	1.313248	0.821793	0.333370
C84	C	1.646581	1.155126	0.666703
N85	N	0.982823	0.154956	0.217045
N86	N	1.316157	0.488290	0.550379
N87	N	1.649490	0.821623	0.883712
N88	N	0.982843	0.154956	-0.216944
N89	N	1.316176	0.488289	0.116389
N90	N	1.649510	0.821623	0.449722
C91	C	1.039013	0.077803	0.452058
C92	C	1.372347	0.411136	0.785391
C93	C	1.705680	0.744469	1.118725
C94	C	1.039016	0.077800	0.548039
C95	C	1.372349	0.411133	0.881372
C96	C	1.705682	0.744467	1.214706
C97	C	0.926647	0.232113	0.548036
C98	C	1.259980	0.565447	0.881369
C99	C	1.593314	0.898780	1.214703
C100	C	0.926641	0.232110	0.452057
C101	C	1.259975	0.565443	0.785390
C102	C	1.593308	0.898776	1.118723
C103	C	0.982829	0.154956	0.404070
C104	C	1.316162	0.488289	0.737403
C105	C	1.649496	0.821622	1.070737
C106	C	0.982837	0.154957	0.596031
C107	C	1.316170	0.488290	0.929364
C108	C	1.649504	0.821623	1.262697
C109	C	0.982839	0.154954	0.700098
C110	C	1.316173	0.488287	1.033431
C111	C	1.649506	0.821621	1.366765
C112	C	0.982826	0.154956	0.299996
C113	C	1.316159	0.488290	0.633330
C114	C	1.649493	0.821623	0.966663
H115	H	0.544362	0.344441	0.000041
H116	H	0.877695	0.677774	0.333374
H117	H	1.211029	1.011108	0.666708
H118	H	0.421290	-0.034517	0.000067
H119	H	0.754624	0.298816	0.333400
H120	H	1.087957	0.632149	0.666733
Cl121	Cl	0.363637	0.385997	0.000048
Cl122	Cl	0.696970	0.719331	0.333381
Cl123	Cl	1.030303	1.052664	0.666714
Cl124	Cl	0.602036	-0.076087	0.000063
Cl125	Cl	0.935370	0.257246	0.333396
Cl126	Cl	1.268703	0.590579	0.666729
H127	H	0.880901	0.294932	0.587116
H128	H	1.214234	0.628265	0.920450
H129	H	1.547568	0.961599	1.253783
H130	H	1.084765	0.014974	0.587108
H131	H	1.418098	0.348307	0.920442
H132	H	1.751432	0.681640	1.253775
H133	H	1.084764	0.014978	0.412989
H134	H	1.418097	0.348311	0.746323
H135	H	1.751430	0.681644	1.079656
H136	H	0.880885	0.294937	0.412982
H137	H	1.214219	0.628271	0.746315
H138	H	1.547552	0.961604	1.079649
