data_functionalizedCrystal
_audit_creation_method	'MofGen! by Chris Wilmer'
_symmetry_space_group_name_H-M	'P1'
_symmetry_Int_Tables_number	1
_symmetry_cell_setting	triclinic
loop_
_symmetry_equiv_pos_as_xyz
  x,y,z
_cell_length_a	8.497374
_cell_length_b	17.077402
_cell_length_c	17.077404
_cell_angle_alpha	89.976892
_cell_angle_beta	89.996537
_cell_angle_gamma	90.012222
loop_
_atom_site_label
_atom_site_type_symbol
_atom_site_fract_x
_atom_site_fract_y
_atom_site_fract_z
Zn1	Zn	0.891988	-0.312640	-1.199930
Zn2	Zn	0.628173	-0.443874	-1.199874
Zn3	Zn	0.628207	-0.312627	-1.068699
Zn4	Zn	0.891897	-0.443868	-1.068630
O5	O	0.760066	-0.378252	-1.134283
O6	O	0.857016	-0.330056	-1.309770
O7	O	0.407415	-0.426461	-1.182479
O8	O	0.663251	-0.202782	-1.086159
O9	O	0.663193	-0.426474	-1.309729
O10	O	0.857049	-0.202791	-1.182574
O11	O	0.407440	-0.330034	-1.086105
O12	O	0.663162	-0.330028	-0.958843
O13	O	1.112671	-0.426463	-1.086042
O14	O	0.856894	-0.426450	-0.958792
O15	O	1.112738	-0.330050	-1.182508
O16	O	0.663104	-0.553720	-1.182412
O17	O	0.856861	-0.553716	-1.085988
C18	C	0.760003	-0.582200	-1.134208
C19	C	0.760029	-0.669450	-1.134247
C20	C	0.760023	-0.378238	-0.930336
C21	C	0.760042	-0.378251	-0.843086
C22	C	0.659248	-0.710416	-1.184506
C23	C	0.659289	-0.792397	-1.184545
C24	C	0.760103	-0.833409	-1.134319
C25	C	0.860895	-0.792437	-1.084058
C26	C	0.860861	-0.710458	-1.084024
C27	C	0.860955	-0.963307	-1.084130
C28	C	0.860986	-1.045291	-1.084163
C29	C	0.659382	-1.045246	-1.184651
C30	C	0.659349	-0.963267	-1.184618
C31	C	0.760139	-0.922300	-1.134355
C32	C	1.171547	-0.378253	-1.134278
C33	C	1.350191	-0.378262	-1.134279
C34	C	0.760111	-0.378267	-1.339028
C35	C	0.760130	-0.378273	-1.426277
C36	C	0.760164	-0.173508	-1.134381
C37	C	0.760206	-0.086258	-1.134422
C38	C	0.860756	-0.428533	-0.802090
C39	C	0.860781	-0.428535	-0.720109
C40	C	0.760083	-0.378257	-0.679126
C41	C	0.659364	-0.327969	-0.720128
C42	C	0.659348	-0.327964	-0.802107
C43	C	0.659402	-0.327985	-0.549258
C44	C	0.659416	-0.327991	-0.467273
C45	C	0.860835	-0.428556	-0.467260
C46	C	0.860819	-0.428551	-0.549239
C47	C	0.760098	-0.378263	-0.590235
H48	H	0.577222	-0.825748	-1.225471
H49	H	0.577381	-0.287029	-0.686753
O50	O	0.561356	-0.279099	-0.841812
C51	C	0.472503	-0.234711	-0.788062
H52	H	0.466940	-0.266862	-0.729613
H53	H	0.530485	-0.175139	-0.779370
C54	C	0.311467	-0.183780	-0.891836
C55	C	0.304623	-0.223271	-0.820049
H56	H	0.207913	-0.176720	-0.911567
H57	H	0.371332	-0.213682	-0.928049
H58	H	0.359792	-0.134140	-0.884582
H59	H	0.256317	-0.272913	-0.827305
H60	H	0.244745	-0.193377	-0.783838
O61	O	0.958541	-0.670576	-1.035162
C62	C	0.868620	-0.623228	-0.984465
H63	H	0.749110	-0.610946	-1.012193
H64	H	0.851195	-0.654873	-0.926313
C65	C	1.102156	-0.560438	-0.936130
C66	C	0.955377	-0.545347	-0.970189
H67	H	1.155672	-0.512399	-0.927320
H68	H	1.162739	-0.592339	-0.970282
H69	H	1.087614	-0.586811	-0.887674
H70	H	0.969921	-0.518984	-1.018648
H71	H	0.894798	-0.513440	-0.936044
O72	O	0.958998	-1.085222	-1.035489
C73	C	1.060995	-1.132572	-1.080166
H74	H	1.005455	-1.144808	-1.139681
H75	H	1.177915	-1.100954	-1.088731
C76	C	1.157715	-1.195452	-0.963908
C77	C	1.089493	-1.210485	-1.037003
H78	H	1.175301	-1.243510	-0.937282
H79	H	1.089002	-1.163549	-0.933807
H80	H	1.255141	-1.169101	-0.971056
H81	H	0.992061	-1.236825	-1.029853
H82	H	1.158191	-1.242394	-1.067101
O83	O	0.959054	-0.832240	-1.035353
C84	C	1.116308	-0.812149	-1.052421
H85	H	1.124379	-0.789560	-1.115118
H86	H	1.157453	-0.764590	-1.010299
C87	C	1.211690	-0.912704	-0.966267
C88	C	1.221605	-0.884966	-1.043275
H89	H	1.276645	-0.957620	-0.960622
H90	H	1.105745	-0.926238	-0.954765
H91	H	1.245974	-0.873065	-0.931174
H92	H	1.187303	-0.924602	-1.078365
H93	H	1.327547	-0.871440	-1.054783
H94	H	0.943034	-0.929955	-1.043203
H95	H	0.577147	-0.677029	-1.225403
O96	O	0.958646	-0.477463	-0.680408
C97	C	1.047533	-0.521832	-0.734159
H98	H	0.982896	-0.524484	-0.792592
H99	H	1.167463	-0.493193	-0.742894
C100	C	1.149322	-0.602143	-0.630375
C101	C	1.069928	-0.605406	-0.702141
H102	H	1.163144	-0.653695	-0.610624
H103	H	1.089443	-0.572249	-0.594161
H104	H	1.249256	-0.578274	-0.637664
H105	H	0.969990	-0.629265	-0.694850
H106	H	1.129791	-0.635306	-0.738354
H107	H	0.942751	-0.469478	-0.835452
O108	O	0.561369	-0.923547	-1.233480
C109	C	0.472391	-0.977282	-1.277838
H110	H	0.537028	-1.035706	-1.280555
H111	H	0.352525	-0.986046	-1.249148
C112	C	0.370413	-0.873461	-1.358041
C113	C	0.449808	-0.945217	-1.361383
H114	H	0.356475	-0.853682	-1.409574
H115	H	0.430354	-0.837258	-1.328154
H116	H	0.270533	-0.880774	-1.334129
H117	H	0.549693	-0.937901	-1.385285
H118	H	0.389883	-0.981418	-1.391276
O119	O	0.958635	-0.477328	-0.427320
C120	C	0.937041	-0.466565	-0.346175
H121	H	0.885600	-0.405945	-0.334995
H122	H	0.852865	-0.513059	-0.322886
C123	C	1.159826	-0.548343	-0.317833
C124	C	1.096659	-0.473886	-0.304101
H125	H	1.258284	-0.552863	-0.291878
H126	H	1.174372	-0.555598	-0.372501
H127	H	1.089665	-0.587080	-0.298425
H128	H	1.166810	-0.435151	-0.323517
H129	H	1.082129	-0.466625	-0.249434
H130	H	0.577437	-0.287041	-0.433907
O131	O	0.561792	-1.085157	-1.233537
C132	C	0.583501	-1.166308	-1.222834
H133	H	0.705124	-1.177473	-1.196970
H134	H	0.489736	-1.189700	-1.181191
C135	C	0.420208	-1.194559	-1.334096
C136	C	0.569592	-1.208273	-1.302337
H137	H	0.411621	-1.220447	-1.383136
H138	H	0.405576	-1.139887	-1.341306
H139	H	0.342086	-1.214053	-1.299387
H140	H	0.647709	-1.188771	-1.337041
H141	H	0.584237	-1.262943	-1.295134
H142	H	0.942807	-0.469495	-0.582606
H143	H	0.577398	-0.287028	-0.582634
