data_functionalizedCrystal
_audit_creation_method	'MofGen! by Chris Wilmer'
_symmetry_space_group_name_H-M	'P1'
_symmetry_Int_Tables_number	1
_symmetry_cell_setting	triclinic
loop_
_symmetry_equiv_pos_as_xyz
  x,y,z
_cell_length_a	19.188930
_cell_length_b	19.188925
_cell_length_c	18.266242
_cell_angle_alpha	90.009890
_cell_angle_beta	90.010255
_cell_angle_gamma	83.143665
loop_
_atom_site_label
_atom_site_type_symbol
_atom_site_fract_x
_atom_site_fract_y
_atom_site_fract_z
O1	O	0.087149	0.926152	0.060905
O2	O	0.098888	0.722840	0.060904
O3	O	-0.008637	0.830363	0.060890
O4	O	0.194674	0.818629	0.060919
O5	O	-0.008640	0.830345	-0.060872
O6	O	0.098885	0.722822	-0.060858
O7	O	0.087146	0.926133	-0.060857
Zn8	Zn	0.093015	0.824475	-0.080190
Zn9	Zn	0.093019	0.824499	0.080237
O10	O	0.194671	0.818610	-0.060843
C11	C	0.098507	0.696820	0.000023
C12	C	0.097367	0.619315	0.000022
C13	C	0.152831	0.057545	0.000031
C14	C	0.153908	0.130368	0.000035
C15	C	0.090816	0.175302	0.000025
C16	C	0.026642	0.147408	0.000030
C17	C	0.025568	0.074586	0.000033
N18	N	0.045139	0.295973	-0.041430
N19	N	0.046164	0.365151	-0.041435
C20	C	0.094050	0.394712	0.000017
N21	N	0.140883	0.352480	0.041464
N22	N	0.139859	0.283297	0.041465
C23	C	0.091974	0.254267	0.000022
C24	C	0.159386	0.501561	0.000022
C25	C	0.160460	0.574385	0.000031
C26	C	0.033193	0.591425	0.000018
C27	C	0.032121	0.518601	0.000016
C28	C	0.095220	0.473673	0.000015
C29	C	-0.034650	0.829974	0.000007
C30	C	-0.112154	0.828833	0.000001
C31	C	-0.157079	0.891924	-0.000002
C32	C	-0.229903	0.890852	0.000009
C33	C	-0.257799	0.826686	0.000010
C34	C	-0.212864	0.763587	0.000017
C35	C	-0.140041	0.764660	0.000012
N36	N	-0.365804	0.777633	-0.041429
N37	N	-0.434982	0.776617	-0.041426
C38	C	-0.477207	0.823448	0.000024
N39	N	-0.447642	0.871343	0.041463
N40	N	-0.378457	0.872361	0.041457
C41	C	-0.336761	0.825515	0.000015
C42	C	-0.601097	0.885381	0.000035
C43	C	-0.673922	0.884307	0.000051
C44	C	-0.656880	0.757040	0.000051
C45	C	-0.584057	0.758116	0.000042
C46	C	-0.556170	0.822289	0.000031
C47	C	0.220684	0.819000	0.000041
C48	C	0.298188	0.820140	0.000053
C49	C	0.087527	0.952154	0.000026
C50	C	0.088666	1.029658	0.000032
N51	N	0.093012	0.824463	-0.189677
C52	C	0.135256	0.866673	-0.227973
C53	C	0.135254	0.866684	-0.304618
C54	C	0.093016	0.824473	-0.342964
C55	C	0.050763	0.782262	-0.304658
C56	C	0.050761	0.782256	-0.228015
N57	N	0.091297	0.763326	-0.463317
N58	N	0.091303	0.763332	-0.536125
C59	C	0.093019	0.824487	-0.573886
N60	N	0.094741	0.885636	-0.536088
N61	N	0.094739	0.885629	-0.463274
C62	C	0.093013	0.824475	-0.426071
C63	C	0.135263	0.866713	-0.695290
C64	C	0.135256	0.866726	-0.771936
C65	C	0.050769	0.782297	-0.771975
C66	C	0.050772	0.782290	-0.695330
C67	C	0.093023	0.824497	-0.656992
N68	N	0.093016	0.824516	0.189724
H69	H	-0.026685	0.051883	0.000033
H70	H	0.210765	0.464978	0.000022
H71	H	0.212713	0.597088	0.000036
N72	N	-0.041410	0.195866	0.000011
H73	H	-0.069413	0.186930	0.045147
H74	H	-0.030937	0.246211	-0.000023
H75	H	0.169666	0.901081	-0.664073
N76	N	-0.034859	0.639879	0.000015
H77	H	-0.024443	0.690244	0.000015
H78	H	-0.062838	0.630864	-0.045125
H79	H	0.016359	0.747883	-0.196834
N80	N	-0.242953	0.694382	0.000012
H81	H	-0.226562	0.666743	-0.045126
H82	H	-0.226542	0.666811	0.045179
H83	H	-0.020129	0.495896	0.000012
H84	H	-0.679592	0.704794	0.000055
N85	N	0.005206	0.736736	-0.346016
H86	H	0.019101	0.685895	-0.332687
H87	H	-0.045613	0.750728	-0.332671
N88	N	0.180826	0.912203	-0.345938
H89	H	0.150348	0.946474	-0.377738
H90	H	0.207585	0.938894	-0.309977
H91	H	0.206160	0.153078	0.000028
N92	N	0.180815	0.912205	-0.186626
H93	H	0.174405	0.905800	-0.132260
H94	H	0.231631	0.898254	-0.200014
H95	H	0.204211	0.020968	0.000034
N96	N	0.005204	0.736776	-0.813325
H97	H	-0.045629	0.750714	-0.799992
H98	H	0.011673	0.743209	-0.867676
N99	N	-0.127001	0.961136	-0.000014
H100	H	-0.166516	1.000941	-0.000014
H101	H	-0.097149	0.964363	0.045123
N102	N	0.180828	0.912250	-0.813243
H103	H	0.174417	0.905853	-0.867614
H104	H	0.166913	0.963070	-0.799834
H105	H	-0.710500	0.935686	0.000053
N106	N	0.005208	0.736758	-0.654025
H107	H	0.019109	0.685920	-0.667373
H108	H	0.011632	0.743217	-0.599666
N109	N	-0.278376	0.958899	0.000002
H110	H	-0.269424	0.986920	0.045134
H111	H	-0.269415	0.986838	-0.045170
N112	N	-0.091577	0.696612	0.000002
H113	H	-0.060969	0.694227	0.045134
H114	H	-0.120341	0.655835	-0.000024
N115	N	-0.571011	0.954592	0.000025
H116	H	-0.610525	0.994399	0.000031
H117	H	-0.541155	0.957815	0.045160
H118	H	-0.547478	0.706740	0.000041
