data_functionalizedCrystal
_audit_creation_method	'MofGen! by Chris Wilmer'
_symmetry_space_group_name_H-M	'P1'
_symmetry_Int_Tables_number	1
_symmetry_cell_setting	triclinic
loop_
_symmetry_equiv_pos_as_xyz
  x,y,z
_cell_length_a	11.026607
_cell_length_b	14.853567
_cell_length_c	10.065875
_cell_angle_alpha	98.805381
_cell_angle_beta	79.302338
_cell_angle_gamma	96.110474
loop_
_atom_site_label
_atom_site_type_symbol
_atom_site_fract_x
_atom_site_fract_y
_atom_site_fract_z
O1	O	1.628533	0.367252	-0.113466
O2	O	1.275155	0.324252	-0.113471
O3	O	1.461284	0.216045	-0.113472
O4	O	1.442404	0.475459	-0.113464
O5	O	1.425792	0.236785	0.113517
O6	O	1.239663	0.344992	0.113518
O7	O	1.593041	0.387992	0.113524
Zn8	Zn	1.410717	0.369785	0.149560
Zn9	Zn	1.457479	0.342459	-0.149507
O10	O	1.406912	0.496199	0.113525
C11	C	1.212185	0.326689	0.000023
C12	C	1.077432	0.303041	0.000021
C13	C	1.003736	0.368337	0.000022
C14	C	0.864461	0.343897	0.000019
C15	C	1.442683	0.192688	0.000018
C16	C	1.440122	0.092190	0.000007
C17	C	1.318718	-0.339931	0.000031
C18	C	1.539843	-0.325531	0.000034
C19	C	1.542254	-0.231109	0.000026
C20	C	1.432895	-0.191094	0.000022
C21	C	1.321126	-0.245500	0.000027
C22	C	1.654020	-0.176694	0.000035
C23	C	1.656436	-0.082266	0.000029
C24	C	1.547077	-0.042250	0.000016
C25	C	1.435303	-0.096663	0.000019
C26	C	1.325944	-0.056648	0.000015
C27	C	1.214170	-0.111060	0.000008
C28	C	1.211767	-0.205484	0.000014
C29	C	1.549480	0.052174	0.000010
C30	C	1.328352	0.037783	0.000011
C31	C	1.656012	0.385555	0.000027
C32	C	1.790767	0.409202	0.000020
C33	C	1.425514	0.519556	0.000031
C34	C	1.428077	0.620053	0.000034
N35	N	1.378812	0.388434	0.353666
N36	N	1.489394	0.323804	-0.353613
C37	C	1.446371	0.348941	0.421444
C38	C	1.421825	0.363303	0.578612
H39	H	1.037421	0.229043	-0.000017
C40	C	1.209473	0.081060	0.000074
C41	C	1.111076	0.013199	0.000101
C42	C	1.001545	0.053032	0.000176
H43	H	1.218019	0.110358	-0.079060
H44	H	1.193363	0.124807	0.079263
H45	H	1.127183	-0.030532	-0.079080
H46	H	1.102492	-0.016105	0.079228
H47	H	0.985435	0.096779	0.079365
H48	H	1.010104	0.082330	-0.078959
H49	H	0.934768	0.006996	0.000207
H50	H	1.345804	0.407746	0.636933
H51	H	0.824456	0.269894	-0.000018
C52	C	0.844351	0.507813	-0.000073
C53	C	0.971847	0.512447	-0.000117
C54	C	1.021255	0.603266	-0.000234
H55	H	0.805535	0.544325	0.079052
H56	H	0.830212	0.529759	-0.079271
H57	H	0.985976	0.490512	0.079073
H58	H	1.010696	0.475954	-0.079236
H59	H	1.007116	0.625213	-0.079432
H60	H	0.982430	0.639772	0.078892
H61	H	1.107767	0.606421	-0.000277
H62	H	1.120766	-0.249794	0.000010
H63	H	1.743051	-0.209281	0.000051
C64	C	1.277552	0.447701	0.431672
C65	C	1.273365	0.450187	0.572051
C66	C	1.180109	0.504785	0.643948
H67	H	1.200011	0.422833	0.408502
H68	H	1.294688	0.507928	0.408402
H69	H	1.256220	0.389971	0.595312
H70	H	1.350882	0.475063	0.595262
H71	H	1.197245	0.565012	0.620678
H72	H	1.102575	0.479912	0.620767
H73	H	1.177263	0.506486	0.739202
C74	C	1.658691	-0.368796	0.000104
C75	C	1.757083	-0.300934	0.000128
C76	C	1.866587	-0.340757	0.000206
H77	H	1.674888	-0.412559	-0.079028
H78	H	1.650036	-0.398069	0.079295
H79	H	1.765739	-0.271676	-0.079055
H80	H	1.740927	-0.257166	0.079254
H81	H	1.857932	-0.370030	0.079397
H82	H	1.882772	-0.384520	-0.078927
H83	H	1.933357	-0.294718	0.000235
C84	C	1.777653	-0.023036	0.000087
C85	C	1.756357	0.068226	0.000107
C86	C	1.867992	0.122817	0.000172
H87	H	1.835149	-0.042677	-0.079047
H88	H	1.810321	-0.028258	0.079275
H89	H	1.723708	0.073444	-0.079073
H90	H	1.698882	0.087894	0.079236
H91	H	1.900659	0.117595	0.079360
H92	H	1.925479	0.103168	-0.078964
H93	H	1.853556	0.184745	0.000198
H94	H	1.125130	-0.078466	0.000015
H95	H	1.565407	0.279353	0.588065
H96	H	1.043751	0.442332	0.000032
H97	H	1.227715	-0.384238	0.000020
H98	H	1.640484	0.096473	0.000025
C99	C	1.547582	0.289535	0.343722
C100	C	1.522053	0.200862	0.378315
C101	C	1.615257	0.146116	0.306719
H102	H	1.625108	0.314356	0.366984
H103	H	1.550583	0.287714	0.248417
H104	H	1.519066	0.202686	0.473599
H105	H	1.444545	0.176014	0.355050
H106	H	1.618258	0.144295	0.211413
H107	H	1.692776	0.170945	0.329986
H108	H	1.597943	0.085943	0.330170
