data_functionalizedCrystal
_audit_creation_method	'MofGen! by Chris Wilmer'
_symmetry_space_group_name_H-M	'P1'
_symmetry_Int_Tables_number	1
_symmetry_cell_setting	triclinic
loop_
_symmetry_equiv_pos_as_xyz
  x,y,z
_cell_length_a	27.440280
_cell_length_b	27.440280
_cell_length_c	18.760492
_cell_angle_alpha	59.991339
_cell_angle_beta	90.001386
_cell_angle_gamma	59.999099
loop_
_atom_site_label
_atom_site_type_symbol
_atom_site_fract_x
_atom_site_fract_y
_atom_site_fract_z
Zr1	Zr	0.469484	0.533425	-0.093581
O2	O	0.391665	0.635113	-0.207435
O3	O	0.493343	0.431743	-0.058662
O4	O	0.493343	0.533422	-0.207393
O5	O	0.391661	0.533434	0.058599
O6	O	0.573546	0.533413	-0.207378
O7	O	0.391664	0.533434	-0.058704
O8	O	0.573545	0.351528	0.058674
O9	O	0.391662	0.715319	-0.207454
O10	O	0.563369	0.473557	-0.043778
O11	O	0.503512	0.473564	0.043753
O12	O	0.503513	0.593278	-0.131359
O13	O	0.443656	0.593285	-0.043828
Zr14	Zr	0.597393	0.533410	0.093527
Zr15	Zr	0.597398	0.533410	-0.093557
Zr16	Zr	0.469479	0.533425	0.093504
Zr17	Zr	0.469479	0.661344	-0.093611
Zr18	Zr	0.597398	0.405491	0.093557
O19	O	0.573534	0.635092	0.058608
O20	O	0.573542	0.635091	-0.207402
O21	O	0.391657	0.635113	0.058575
O22	O	0.675212	0.431722	0.207381
O23	O	0.675220	0.431722	-0.058628
O24	O	0.493335	0.431743	0.207348
O25	O	0.675216	0.533401	-0.058652
O26	O	0.573534	0.533413	0.207339
O27	O	0.493331	0.533422	0.207324
O28	O	0.675213	0.533401	0.058650
O29	O	0.493336	0.715307	-0.207435
O30	O	0.573541	0.351528	0.207381
O31	O	0.675215	0.351516	0.207400
O32	O	0.675220	0.351516	0.058693
O33	O	0.391657	0.715319	-0.058747
O34	O	0.493332	0.715307	-0.058728
O35	O	0.563364	0.473557	0.131305
O36	O	0.623221	0.473550	0.043774
O37	O	0.563365	0.593271	-0.043806
O38	O	0.503508	0.593278	0.043725
C39	C	0.533444	0.373410	0.000011
C40	C	0.533446	0.319105	0.000023
C41	C	0.489253	0.026612	-0.064694
C42	C	0.489253	-0.024406	-0.064703
O43	O	0.451688	-0.013209	-0.119698
N44	N	0.533436	-0.094115	-0.000061
C45	C	0.577626	-0.112807	0.064589
O46	O	0.615208	-0.176785	0.119570
C47	C	0.577629	-0.061790	0.064593
C48	C	0.533439	0.007919	-0.000047
C49	C	0.445067	0.096317	-0.129329
C50	C	0.445067	0.147331	-0.129319
C51	C	0.489253	0.128638	-0.064673
C52	C	0.533439	0.058932	-0.000037
C53	C	0.621821	-0.080483	0.129239
C54	C	0.621820	-0.029459	0.129238
C55	C	0.577630	0.040250	0.064597
C56	C	0.577625	0.091253	0.064620
N57	N	0.533441	0.160962	-0.000022
C58	C	0.489255	0.179655	-0.064668
C59	C	0.577619	-0.219942	0.064573
C60	C	0.577615	-0.270958	0.064573
C61	C	0.489241	-0.182553	-0.064720
C62	C	0.489244	-0.131536	-0.064715
C63	C	0.533435	-0.150233	-0.000069
C64	C	0.489258	0.286783	-0.064641
C65	C	0.489261	0.337797	-0.064623
C66	C	0.577635	0.249388	0.064666
C67	C	0.577631	0.198378	0.064651
C68	C	0.533440	0.217081	-0.000010
O69	O	0.615171	0.080108	0.119585
O70	O	0.451685	0.243632	-0.119647
C71	C	0.373437	0.533436	-0.000056
C72	C	0.319134	0.533443	-0.000066
C73	C	0.013681	0.470913	0.045713
C74	C	-0.037337	0.470909	0.045721
O75	O	-0.037153	0.417761	0.084628
N76	N	-0.094099	0.533402	0.000004
C77	C	-0.099841	0.595902	-0.045716
O78	O	-0.152805	0.649056	-0.084601
C79	C	-0.048823	0.595905	-0.045719
C80	C	0.007938	0.533408	-0.000006
C81	C	0.070439	0.408422	0.091423
C82	C	0.121454	0.408426	0.091414
C83	C	0.115711	0.470921	0.045695
C84	C	0.058953	0.533412	-0.000015
C85	C	-0.054565	0.658404	-0.091433
C86	C	-0.003541	0.658402	-0.091431
C87	C	0.053219	0.595906	-0.045718
C88	C	0.104224	0.595912	-0.045743
N89	N	0.160985	0.533420	-0.000026
C90	C	0.166729	0.470924	0.045693
C91	C	-0.206979	0.595890	-0.045707
C92	C	-0.257997	0.595888	-0.045711
C93	C	-0.195490	0.470895	0.045728
C94	C	-0.144472	0.470899	0.045726
C95	C	-0.150218	0.533398	0.000010
C96	C	0.273861	0.470938	0.045669
C97	C	0.324878	0.470947	0.045653
C98	C	0.262367	0.595939	-0.045782
C99	C	0.211354	0.595930	-0.045770
C100	C	0.217105	0.533424	-0.000038
O101	O	0.104086	0.649033	-0.084627
O102	O	0.219695	0.417779	0.084580
C103	C	0.693440	0.533399	0.000002
C104	C	0.747742	0.533392	0.000012
C105	C	0.533445	0.533417	-0.234041
C106	C	0.533448	0.533417	-0.313463
C107	C	0.533432	0.693425	-0.000064
C108	C	0.533430	0.747730	-0.000077
C109	C	0.564676	0.470922	-0.603561
C110	C	0.502185	0.595912	-0.694992
C111	C	0.502189	0.595914	-0.620371
C112	C	0.533437	0.533418	-0.537341
C113	C	0.564680	0.470921	-0.528932
C114	C	0.470942	0.658409	-0.628774
C115	C	0.470944	0.658413	-0.554151
C116	C	0.502195	0.595916	-0.471119
C117	C	0.533440	0.533417	-0.462712
C118	C	0.564687	0.470921	-0.379682
C119	C	0.595937	0.408421	-0.371274
C120	C	0.595931	0.408425	-0.445900
C121	C	0.502200	0.595913	-0.396493
C122	C	0.564691	0.470920	-0.305053
C123	C	0.533431	0.533418	0.233987
C124	C	0.533429	0.533418	0.313409
C125	C	0.693446	0.373391	0.000040
C126	C	0.747751	0.319080	0.000062
C127	C	0.533438	0.373410	0.234024
C128	C	0.533437	0.319105	0.313459
C129	C	0.693439	0.373391	0.234054
C130	C	0.747741	0.319080	0.313499
C131	C	0.373438	0.693443	-0.234107
C132	C	0.319135	0.747755	-0.313552
C133	C	0.373431	0.693444	-0.000094
C134	C	0.319126	0.747755	-0.000116
C135	C	0.533439	0.693425	-0.234078
C136	C	0.533440	0.747730	-0.313513
C137	C	0.742011	0.293578	-0.045636
C138	C	0.793031	0.242554	-0.045633
C139	C	0.849791	0.217028	0.000076
C140	C	0.855529	0.242535	0.045776
C141	C	0.804510	0.293562	0.045766
C142	C	0.564679	0.293599	0.396472
C143	C	0.564677	0.242581	0.471117
C144	C	0.533435	0.217066	0.462747
C145	C	0.502190	0.242577	0.379725
C146	C	0.502189	0.293598	0.305082
C147	C	0.804492	0.293571	0.305117
C148	C	0.855520	0.242547	0.379756
C149	C	0.849796	0.217029	0.462777
C150	C	0.793039	0.242543	0.471157
C151	C	0.742012	0.293570	0.396519
C152	C	0.262384	0.773270	-0.305170
C153	C	0.211356	0.824310	-0.379810
C154	C	0.217081	0.849831	-0.462831
C155	C	0.273838	0.824313	-0.471211
C156	C	0.324865	0.773278	-0.396572
C157	C	0.324866	0.773262	0.045575
C158	C	0.273846	0.824301	0.045550
C159	C	0.217086	0.849828	-0.000160
C160	C	0.211347	0.824319	-0.045857
C161	C	0.262367	0.773285	-0.045837
C162	C	0.564687	0.773229	-0.305115
C163	C	0.564699	0.824247	-0.379745
C164	C	0.533460	0.849769	-0.462773
C165	C	0.502211	0.824266	-0.471169
C166	C	0.502203	0.773245	-0.396540
H167	H	0.409088	0.204088	-0.181963
F168	F	0.597936	0.215438	0.559466
H169	H	0.809191	0.314319	0.082985
F170	F	0.597939	0.746075	-0.216757
H171	H	0.476755	0.752489	-0.403390
H172	H	0.476742	0.646794	-0.762597
H173	H	0.453272	0.394559	-0.117260
H174	H	0.613604	-0.235175	0.117224
F175	F	0.181859	0.341908	0.140074
F176	F	0.256249	0.746140	-0.094465
H177	H	0.590144	0.845007	-0.372892
H178	H	0.533471	0.891314	-0.523534
F179	F	0.076564	0.341900	0.140091
H180	H	0.371078	0.752482	0.082804
H181	H	0.901750	0.221745	0.082990
H182	H	0.445500	0.709290	-0.696381
H183	H	0.476777	0.845054	-0.538780
H184	H	0.453275	0.302021	-0.117296
F185	F	0.437680	0.724930	-0.563107
H186	H	0.590120	0.314368	0.403304
H187	H	-0.100774	0.709295	-0.128657
H188	H	-0.190821	0.420008	0.082952
F189	F	0.786911	0.215415	-0.094272
H190	H	0.891330	0.175478	0.000077
F191	F	-0.084066	0.404382	0.094381
F192	F	0.150957	0.851456	-0.370873
H193	H	0.788387	0.221759	0.538763
F194	F	0.533442	0.162764	0.542197
F195	F	0.162768	0.904147	-0.542262
H196	H	0.175547	0.891383	-0.000169
H197	H	0.409085	0.111550	-0.181977
H198	H	0.695799	0.314360	-0.082868
H199	H	0.891350	0.175480	0.523546
H200	H	0.695805	0.314332	0.403356
F201	F	0.385262	0.746124	-0.405507
F202	F	0.442216	-0.162667	-0.133525
F203	F	0.629181	0.341914	-0.436960
H204	H	0.278492	0.845099	-0.538815
F205	F	0.279966	0.851438	0.094192
F206	F	0.468943	0.215414	0.370830
F207	F	0.597933	0.404408	-0.594613
H208	H	0.165127	0.845110	-0.083074
F209	F	0.442212	-0.057349	-0.133515
F210	F	-0.213103	0.662416	-0.094375
F211	F	0.624641	-0.345146	0.133382
F212	F	0.915920	0.215400	0.370819
F213	F	0.629187	0.341911	-0.282900
F214	F	0.468938	0.320734	0.216736
F215	F	0.256278	0.746117	-0.216820
F216	F	0.668854	-0.154666	0.198041
F217	F	0.810599	0.320723	0.216766
H218	H	0.657807	-0.044691	0.181881
H219	H	0.613609	0.141616	0.117295
H220	H	0.371094	0.420053	0.082881
F221	F	0.624657	0.229505	0.133467
H222	H	0.278553	0.420039	0.082910
F223	F	-0.318402	0.662405	-0.094377
H224	H	-0.008227	0.709298	-0.128648
H225	H	0.476753	0.646799	-0.403342
H226	H	0.165136	0.646820	-0.083004
F227	F	0.597953	0.404402	-0.216688
F228	F	0.256265	0.662448	-0.094427
