data_functionalizedCrystal
_audit_creation_method	'MofGen! by Chris Wilmer'
_symmetry_space_group_name_H-M	'P1'
_symmetry_Int_Tables_number	1
_symmetry_cell_setting	triclinic
loop_
_symmetry_equiv_pos_as_xyz
  x,y,z
_cell_length_a	16.994747
_cell_length_b	19.077212
_cell_length_c	19.077237
_cell_angle_alpha	85.294935
_cell_angle_beta	87.706262
_cell_angle_gamma	87.695897
loop_
_atom_site_label
_atom_site_type_symbol
_atom_site_fract_x
_atom_site_fract_y
_atom_site_fract_z
Zn1	Zn	0.284805	1.093785	-0.442117
Zn2	Zn	0.411627	1.089004	-0.324276
Zn3	Zn	0.284818	0.971172	-0.319496
Zn4	Zn	0.421753	0.975890	-0.437379
O5	O	0.350751	1.032463	-0.380817
O6	O	0.297385	1.191803	-0.430469
O7	O	0.390573	1.069398	-0.224991
O8	O	0.174433	0.987462	-0.335745
O9	O	0.390560	1.188290	-0.343891
O10	O	0.174424	1.077545	-0.425834
O11	O	0.297407	0.982827	-0.221479
O12	O	0.307226	0.873145	-0.331150
O13	O	0.407819	0.995505	-0.536658
O14	O	0.407832	0.876612	-0.417758
O15	O	0.307204	1.082121	-0.540140
O16	O	0.523353	1.073973	-0.339297
O17	O	0.530793	0.990869	-0.422393
C18	C	0.358630	0.849299	-0.373422
C19	C	0.362020	0.770942	-0.370275
C20	C	0.386305	0.329677	-0.347736
C21	C	0.383115	0.403302	-0.350688
C22	C	0.333094	0.441948	-0.397313
C23	C	0.286255	0.406965	-0.440985
C24	C	0.289441	0.333341	-0.438029
C25	C	0.318367	0.662336	-0.410991
C26	C	0.315186	0.735964	-0.413945
C27	C	0.412046	0.732296	-0.323646
C28	C	0.415232	0.658671	-0.320697
C29	C	0.368389	0.623695	-0.364366
N30	N	0.329834	0.517204	-0.400333
N31	N	0.371645	0.548439	-0.361343
C32	C	0.555694	1.032423	-0.380847
C33	C	0.645016	1.032428	-0.380845
C34	C	0.145007	1.032506	-0.380783
C35	C	0.055684	1.032527	-0.380769
Zn36	Zn	0.915903	0.971191	-0.319477
Zn37	Zn	0.915867	1.093815	-0.442088
Zn38	Zn	0.789144	0.975914	-0.437368
Zn39	Zn	0.778880	1.089016	-0.324254
O40	O	0.849949	1.032484	-0.380797
O41	O	1.026277	0.987489	-0.335718
O42	O	0.903337	1.082160	-0.540113
O43	O	0.810269	0.876636	-0.417755
O44	O	1.026251	1.077580	-0.425799
O45	O	0.903398	0.873166	-0.331142
O46	O	0.810234	0.995539	-0.536645
O47	O	0.677404	0.990885	-0.422387
O48	O	0.792777	1.069401	-0.224969
O49	O	0.669863	1.073981	-0.339282
O50	O	0.893447	0.982836	-0.221460
O51	O	0.893385	1.191830	-0.430431
O52	O	0.792742	1.188304	-0.343859
C53	C	0.358639	1.039873	-0.564693
C54	C	0.362001	1.043031	-0.643051
C55	C	0.342841	1.216341	-0.388242
C56	C	0.339471	1.294699	-0.391406
C57	C	0.386169	1.065684	-1.084316
C58	C	0.383006	1.062706	-1.010690
C59	C	0.332914	1.016149	-0.972057
C60	C	0.285988	0.972561	-1.007053
C61	C	0.289156	0.975535	-1.080677
C62	C	0.318243	1.002417	-0.751670
C63	C	0.315077	0.999448	-0.678041
C64	C	0.412096	1.089592	-0.681684
C65	C	0.415256	1.092565	-0.755309
C66	C	0.368333	1.048975	-0.790298
N67	N	0.329678	1.013106	-0.896801
N68	N	0.371574	1.052015	-0.865553
C69	C	0.342834	1.025122	-0.197658
C70	C	0.339245	1.022101	-0.119306
C71	C	0.841948	1.215647	-0.388177
C72	C	0.838549	1.294005	-0.391355
C73	C	0.841971	1.025056	-0.196920
C74	C	0.838571	1.021891	-0.118562
C75	C	0.857983	0.848606	-0.373389
C76	C	0.861406	0.770248	-0.370233
C77	C	0.857942	1.039832	-0.563956
C78	C	0.861501	1.042801	-0.642305
C79	C	0.889399	1.332617	-0.437883
C80	C	0.886221	1.406243	-0.440869
C81	C	0.832189	1.441256	-0.397330
C82	C	0.781337	1.402639	-0.350796
C83	C	0.784519	1.329014	-0.347807
C84	C	0.889388	0.975329	-0.079934
C85	C	0.886195	0.972341	-0.006308
C86	C	0.832187	1.015919	0.028688
C87	C	0.781364	1.062483	-0.009946
C88	C	0.784555	1.065467	-0.083570
C89	C	0.814520	0.735253	-0.413846
C90	C	0.817722	0.661628	-0.410880
C91	C	0.867813	0.622999	-0.364305
C92	C	0.914701	0.657999	-0.320687
C93	C	0.911495	0.731623	-0.323649
C94	C	0.814318	0.999418	-0.677276
C95	C	0.817662	1.002193	-0.750893
C96	C	0.868186	1.048356	-0.789538
C97	C	0.915374	1.091741	-0.754562
C98	C	0.912034	1.088961	-0.680946
H99	H	0.274447	0.767428	-0.451912
C100	C	0.963125	1.136111	-0.642895
C101	C	0.914934	1.179973	-0.602649
C102	C	0.961975	1.223413	-0.567584
H103	H	0.993701	1.164065	-0.676380
H104	H	0.997142	1.107867	-0.612910
H105	H	0.880931	1.208214	-0.632631
H106	H	0.884359	1.152038	-0.569152
H107	H	0.995992	1.195169	-0.537599
H108	H	0.992548	1.251362	-0.601074
H109	H	0.929285	1.253174	-0.540269
C110	C	0.729512	1.116071	-0.125600
C111	C	0.774030	1.162972	-0.169685
C112	C	0.723348	1.209593	-0.208416
H113	H	0.696876	1.141666	-0.094294
H114	H	0.697577	1.090282	-0.153286
H115	H	0.805952	1.188758	-0.142001
H116	H	0.806665	1.137397	-0.201005
H117	H	0.691414	1.183804	-0.236102
H118	H	0.690714	1.235183	-0.177105
H119	H	0.753546	1.241417	-0.238337
H120	H	0.421251	0.431777	-0.315126
C121	C	0.948055	0.927926	-0.117788
C122	C	0.991851	0.886499	-0.068188
C123	C	1.045894	0.842810	-0.103027
H124	H	0.982569	0.955980	-0.147586
H125	H	0.920485	0.898325	-0.145262
H126	H	1.019419	0.916096	-0.040726
H127	H	0.957357	0.858430	-0.038388
H128	H	1.018324	0.813210	-0.130501
H129	H	1.080403	0.870870	-0.132824
H130	H	1.075611	0.814692	-0.069379
H131	H	0.245523	0.438437	-0.478945
H132	H	0.829606	1.501207	-0.399771
C133	C	0.469415	0.616619	-0.270033
C134	C	0.424569	0.572507	-0.223221
C135	C	0.474461	0.533749	-0.176549
H136	H	0.496874	0.647908	-0.244374
H137	H	0.506214	0.588949	-0.295789
H138	H	0.387784	0.600174	-0.197467
H139	H	0.397112	0.541204	-0.248859
H140	H	0.511260	0.506079	-0.202305
H141	H	0.501917	0.565044	-0.150896
H142	H	0.444041	0.503810	-0.144786
H143	H	0.456046	1.130477	-0.786759
C144	C	0.766558	0.955001	-0.788887
C145	C	0.814740	0.911106	-0.829103
C146	C	0.767692	0.867616	-0.864102
H147	H	0.732520	0.983188	-0.818886
H148	H	0.736004	0.927078	-0.755343
H149	H	0.845280	0.939026	-0.862643
H150	H	0.848777	0.882904	-0.799121
H151	H	0.737138	0.839692	-0.830558
H152	H	0.733656	0.895808	-0.894097
H153	H	0.800376	0.837823	-0.891387
H154	H	0.956511	1.129324	-0.786037
C155	C	0.759445	0.949216	-0.635453
C156	C	0.718865	0.911807	-0.681847
C157	C	0.668319	0.865542	-0.643350
H158	H	0.722736	0.975227	-0.607952
H159	H	0.789399	0.917187	-0.605375
H160	H	0.688912	0.943831	-0.711913
H161	H	0.755553	0.885782	-0.709349
H162	H	0.698274	0.833512	-0.613272
H163	H	0.631616	0.891558	-0.615850
H164	H	0.640786	0.840149	-0.674822
C165	C	0.238563	0.295493	-0.485528
C166	C	0.194090	0.345095	-0.527008
C167	C	0.147217	0.310256	-0.570778
H168	H	0.204168	0.265683	-0.457530
H169	H	0.271335	0.268032	-0.515091
H170	H	0.161321	0.372544	-0.497448
H171	H	0.228465	0.374907	-0.555020
H172	H	0.179989	0.282795	-0.600341
H173	H	0.112827	0.280447	-0.542774
H174	H	0.117042	0.343905	-0.598932
H175	H	0.450182	0.760781	-0.288093
C176	C	0.722698	1.440791	-0.303615
C177	C	0.730786	1.513532	-0.316215
C178	C	0.676771	1.548701	-0.272776
H179	H	0.732598	1.426917	-0.255719
H180	H	0.670663	1.429186	-0.313507
H181	H	0.782809	1.525132	-0.306318
H182	H	0.720879	1.527426	-0.364102
H183	H	0.624736	1.537096	-0.282669
H184	H	0.686676	1.534822	-0.224883
H185	H	0.682247	1.598059	-0.281324
C186	C	0.941420	0.921901	0.035713
C187	C	0.988382	0.960121	0.076401
C188	C	1.039258	0.913681	0.115125
H189	H	0.974118	0.896363	0.004405
H190	H	0.911372	0.890014	0.065702
H191	H	1.018428	0.991995	0.046415
H192	H	0.955705	0.985657	0.107722
H193	H	1.009210	0.881794	0.145114
H194	H	1.071951	0.888145	0.083811
H195	H	1.071123	0.939606	0.142741
H196	H	0.773728	0.766696	-0.451773
C197	C	0.267420	0.624323	-0.458289
C198	C	0.216893	0.580455	-0.416745
C199	C	0.169943	0.545430	-0.460295
H200	H	0.300122	0.596788	-0.487824
H201	H	0.237131	0.657860	-0.486471
H202	H	0.247179	0.546922	-0.388575
H203	H	0.184174	0.607973	-0.387211
H204	H	0.139653	0.578967	-0.488477
H205	H	0.202651	0.517898	-0.489828
H206	H	0.135649	0.515667	-0.432114
H207	H	0.933398	1.304119	-0.473342
C208	C	0.871940	1.051455	-0.869468
C209	C	0.926295	1.101157	-0.895833
C210	C	0.929774	1.104024	-0.969460
H211	H	0.821397	1.064622	-0.886823
H212	H	0.887987	1.006515	-0.884172
H213	H	0.910244	1.146087	-0.881136
H214	H	0.976845	1.088002	-0.878498
H215	H	0.945821	1.059084	-0.984165
H216	H	0.879229	1.117189	-0.986808
H217	H	0.966658	1.137742	-0.987359
C218	C	0.941469	1.448036	-0.491472
C219	C	0.989443	1.401609	-0.528978
C220	C	1.040337	1.440081	-0.575606
H221	H	0.973481	1.475678	-0.465724
H222	H	0.911433	1.477977	-0.523418
H223	H	1.019476	1.371680	-0.497036
H224	H	0.957452	1.373966	-0.554740
H225	H	1.010301	1.470022	-0.607552
H226	H	1.072344	1.467722	-0.549852
H227	H	1.072889	1.408587	-0.601064
H228	H	0.427042	0.298216	-0.309772
C229	C	0.260676	0.948817	-0.636219
C230	C	0.220279	0.911262	-0.682617
C231	C	0.170170	0.864610	-0.644115
H232	H	0.223843	0.974551	-0.608576
H233	H	0.290927	0.916901	-0.606277
H234	H	0.190029	0.943174	-0.712547
H235	H	0.257091	0.885514	-0.710261
H236	H	0.200422	0.832694	-0.614173
H237	H	0.133342	0.890350	-0.616474
H238	H	0.142760	0.839119	-0.675591
H239	H	0.779539	0.633142	-0.446401
H240	H	0.426955	1.103599	-1.115766
H241	H	0.737393	1.097963	0.018559
H242	H	0.829598	1.013483	0.088638
H243	H	0.870413	0.563050	-0.361896
C244	C	0.433976	1.110115	-0.972831
C245	C	0.478500	1.151543	-1.022423
C246	C	0.525455	1.195235	-0.987574
H247	H	0.468340	1.082063	-0.943025
H248	H	0.401257	1.139715	-0.945364
H249	H	0.511217	1.121947	-1.049878
H250	H	0.444157	1.179610	-1.052230
H251	H	0.492736	1.224835	-0.960107
H252	H	0.559814	1.167177	-0.957769
H253	H	0.555665	1.223353	-1.021216
H254	H	0.743106	1.297582	-0.309921
H255	H	0.450299	1.125080	-0.653187
H256	H	0.245206	0.934650	-0.975592
H257	H	0.955483	0.626536	-0.282765
C258	C	0.962549	0.769579	-0.276387
C259	C	1.042034	0.752308	-0.291023
C260	C	1.089092	0.787262	-0.247503
H261	H	0.949583	0.755623	-0.228513
H262	H	0.953528	0.818967	-0.284824
H263	H	1.051051	0.702930	-0.282581
H264	H	1.055024	0.766264	-0.338889
H265	H	1.080070	0.836650	-0.255939
H266	H	1.076119	0.773304	-0.199631
H267	H	1.143027	0.775554	-0.257432
H268	H	0.280036	0.966922	-0.780149
H269	H	0.250944	0.940046	-1.109165
