data_functionalizedCrystal
_audit_creation_method	'MofGen! by Chris Wilmer'
_symmetry_space_group_name_H-M	'P1'
_symmetry_Int_Tables_number	1
_symmetry_cell_setting	triclinic
loop_
_symmetry_equiv_pos_as_xyz
  x,y,z
_cell_length_a	14.971486
_cell_length_b	12.837942
_cell_length_c	14.048226
_cell_angle_alpha	89.994377
_cell_angle_beta	89.998499
_cell_angle_gamma	89.221535
loop_
_atom_site_label
_atom_site_type_symbol
_atom_site_fract_x
_atom_site_fract_y
_atom_site_fract_z
O1	O	1.198338	0.135106	-0.079050
O2	O	1.698338	0.635106	0.420950
O3	O	0.939302	0.151285	-0.079075
O4	O	1.439302	0.651285	0.420925
O5	O	1.063076	-0.007715	-0.079057
O6	O	1.563076	0.492285	0.420943
O7	O	1.074564	0.294105	-0.079068
O8	O	1.574564	0.794105	0.420932
O9	O	1.063059	-0.007724	0.079264
O10	O	1.563059	0.492276	0.579264
O11	O	0.939284	0.151275	0.079246
O12	O	1.439284	0.651275	0.579246
O13	O	1.198320	0.135096	0.079272
O14	O	1.698320	0.635096	0.579272
Zn15	Zn	1.068800	0.143184	0.104396
Zn16	Zn	1.568800	0.643184	0.604396
Zn17	Zn	1.068822	0.143197	-0.104199
Zn18	Zn	1.568822	0.643197	0.395801
O19	O	1.074546	0.294096	0.079254
O20	O	1.574546	0.794096	0.579254
C21	C	0.905907	0.150556	0.000082
C22	C	1.405907	0.650556	0.500082
C23	C	0.806427	0.148388	0.000072
C24	C	1.306427	0.648388	0.500072
C25	C	0.757077	0.241796	0.000070
C26	C	1.257077	0.741796	0.500070
C27	C	0.663606	0.239752	0.000085
C28	C	1.163606	0.739752	0.500085
C29	C	0.619486	0.144300	0.000094
C30	C	1.119486	0.644300	0.500094
C31	C	0.668842	0.050885	0.000099
C32	C	1.168842	0.550885	0.500099
C33	C	0.762313	0.052930	0.000091
C34	C	1.262313	0.552930	0.500091
C35	C	0.474021	0.046630	0.000112
C36	C	0.974021	0.546630	0.500112
C37	C	0.380545	0.044585	0.000118
C38	C	0.880545	0.544585	0.500118
C39	C	0.375314	0.233453	0.000105
C40	C	0.875314	0.733453	0.500105
C41	C	0.468784	0.235498	0.000098
C42	C	0.968784	0.735498	0.500098
C43	C	0.518135	0.142082	0.000101
C44	C	1.018135	0.642082	0.500101
C45	C	1.059187	-0.046345	0.000103
C46	C	1.559187	0.453655	0.500103
C47	C	1.047612	-0.161436	0.000100
C48	C	1.547612	0.338564	0.500100
C49	C	1.186755	-0.402222	0.000094
C50	C	1.686755	0.097778	0.500094
C51	C	1.175884	-0.510362	0.000091
C52	C	1.675884	-0.010362	0.500091
C53	C	1.015001	-0.485856	0.000085
C54	C	1.515001	0.014144	0.500085
C55	C	1.025872	-0.377717	0.000088
C56	C	1.525872	0.122283	0.500088
C57	C	1.111751	-0.335904	0.000093
C58	C	1.611751	0.164096	0.500093
C59	C	1.122621	-0.227763	0.000103
C60	C	1.622621	0.272237	0.500103
C61	C	0.961739	-0.203260	0.000090
C62	C	1.461739	0.296740	0.500090
C63	C	0.950868	-0.311399	0.000087
C64	C	1.450868	0.188601	0.500087
C65	C	1.231715	0.135824	0.000112
C66	C	1.731715	0.635824	0.500112
C67	C	1.331195	0.137993	0.000116
C68	C	1.831195	0.637993	0.500116
C69	C	1.078436	0.332726	0.000092
C70	C	1.578436	0.832726	0.500092
C71	C	1.090010	0.447817	0.000088
C72	C	1.590010	0.947817	0.500088
N73	N	1.068791	0.143175	0.246756
N74	N	1.568791	0.643175	0.746756
N75	N	1.068838	0.143197	-0.246560
N76	N	1.568838	0.643197	0.253440
C77	C	1.123619	0.072799	0.296583
C78	C	1.623619	0.572799	0.796583
C79	C	1.123625	0.072799	0.396240
C80	C	1.623625	0.572799	0.896240
C81	C	1.068807	0.143180	0.446070
C82	C	1.568807	0.643180	0.946070
C83	C	1.013972	0.213559	0.396237
C84	C	1.513972	0.713559	0.896237
C85	C	1.013962	0.213554	0.296581
C86	C	1.513962	0.713554	0.796581
C87	C	1.013998	0.213567	0.603951
C88	C	1.513998	0.713567	1.103951
C89	C	1.014009	0.213573	0.703614
C90	C	1.514009	0.713573	1.203614
C91	C	1.123662	0.072811	0.703610
C92	C	1.623662	0.572811	1.203610
C93	C	1.123652	0.072806	0.603954
C94	C	1.623652	0.572806	1.103954
C95	C	1.068818	0.143187	0.554128
C96	C	1.568818	0.643187	1.054128
H97	H	0.514200	-0.029439	0.000116
H98	H	1.014200	0.470561	0.500116
Br99	Br	0.608967	-0.078660	0.000121
Br100	Br	1.108967	0.421340	0.500121
Br101	Br	1.303301	-0.345470	0.000131
Br102	Br	1.803301	0.154530	0.500131
H103	H	0.880947	-0.345458	0.000079
H104	H	1.380947	0.154542	0.500079
H105	H	1.236960	-0.564355	0.000088
H106	H	1.736960	-0.064355	0.500088
Br107	Br	0.829289	-0.073843	0.000102
Br108	Br	1.329289	0.426157	0.500102
Br109	Br	0.939541	0.309061	0.228960
Br110	Br	1.439541	0.809061	0.728960
H111	H	0.945081	-0.519920	0.000070
H112	H	1.445081	-0.019920	0.500070
Br113	Br	1.198028	-0.022716	0.228967
Br114	Br	1.698028	0.477284	0.728967
Br115	Br	1.198057	-0.022701	0.536325
Br116	Br	1.698057	0.477299	1.036325
Br117	Br	0.939609	0.309095	0.771233
Br118	Br	1.439609	0.809095	1.271233
H119	H	0.792993	0.319524	0.000062
H120	H	1.292993	0.819524	0.500062
H121	H	0.900666	-0.149251	0.000097
H122	H	1.400666	0.350749	0.500097
H123	H	0.623429	0.315815	0.000082
H124	H	1.123429	0.815815	0.500082
H125	H	1.192549	-0.193721	0.000111
H126	H	1.692549	0.306279	0.500111
Br127	Br	0.320668	-0.084959	0.000162
Br128	Br	0.820668	0.415041	0.500162
Br129	Br	0.939574	0.309081	0.536333
Br130	Br	1.439574	0.809081	1.036333
Br131	Br	1.198082	-0.022699	0.771234
Br132	Br	1.698082	0.477301	1.271234
H133	H	1.168270	0.015493	0.436808
H134	H	1.668270	0.515493	0.936808
H135	H	0.335129	0.309515	0.000107
H136	H	0.835129	0.809515	0.500107
H137	H	0.504704	0.313223	0.000081
H138	H	1.004704	0.813223	0.500081
Br139	Br	0.939566	0.309071	0.463859
Br140	Br	1.439566	0.809071	0.963859
