data_functionalizedCrystal
_audit_creation_method	'MofGen! by Chris Wilmer'
_symmetry_space_group_name_H-M	'P1'
_symmetry_Int_Tables_number	1
_symmetry_cell_setting	triclinic
loop_
_symmetry_equiv_pos_as_xyz
  x,y,z
_cell_length_a	11.169417
_cell_length_b	12.759399
_cell_length_c	11.169409
_cell_angle_alpha	90.034210
_cell_angle_beta	90.019824
_cell_angle_gamma	90.015995
loop_
_atom_site_label
_atom_site_type_symbol
_atom_site_fract_x
_atom_site_fract_y
_atom_site_fract_z
Zn1	Zn	1.834922	-0.418157	0.678527
Zn2	Zn	1.834795	-0.593882	0.477837
Zn3	Zn	1.634208	-0.418221	0.477861
Zn4	Zn	1.634199	-0.593797	0.678482
O5	O	1.734531	-0.506014	0.578177
O6	O	2.002855	-0.441476	0.651914
O7	O	1.808137	-0.570643	0.309891
O8	O	1.660891	-0.271191	0.504509
O9	O	2.002762	-0.570581	0.504468
O10	O	1.808354	-0.271144	0.651937
O11	O	1.660767	-0.441585	0.309908
O12	O	1.466257	-0.441502	0.504466
O13	O	1.660875	-0.570435	0.846438
O14	O	1.466251	-0.570497	0.651861
O15	O	1.808346	-0.441393	0.846471
O16	O	1.808128	-0.740892	0.504425
O17	O	1.660751	-0.740829	0.651838
C18	C	1.422707	-0.505998	0.578162
C19	C	1.289307	-0.506017	0.578184
C20	C	1.734458	-0.778981	0.578150
C21	C	1.734536	-0.895758	0.578178
C22	C	1.811363	-0.950618	0.501508
C23	C	1.811440	-1.060342	0.501548
C24	C	1.657853	-1.060337	0.654933
C25	C	1.657783	-0.950615	0.654898
C26	C	1.953101	-1.210221	0.458834
C27	C	2.029917	-1.265084	0.382145
C28	C	2.048380	-1.229550	0.265042
C29	C	1.990009	-1.139154	0.224604
C30	C	1.913184	-1.084296	0.301287
C31	C	1.894744	-1.119829	0.418407
C32	C	1.516120	-0.800734	0.697599
C33	C	1.439288	-0.745874	0.774277
C34	C	1.420813	-0.781406	0.891382
C35	C	1.479163	-0.871806	0.931815
C36	C	1.555995	-0.926666	0.855137
C37	C	1.574472	-0.891126	0.738033
C38	C	2.047574	-0.506031	0.578193
C39	C	2.180974	-0.506038	0.578200
C40	C	1.734623	-0.505897	0.891220
C41	C	1.734663	-0.505848	1.024620
C42	C	1.734638	-0.231981	0.578231
C43	C	1.734683	-0.115204	0.578254
C44	C	1.734509	-0.506054	0.266352
C45	C	1.734702	-0.505808	0.132953
H46	H	1.865661	-1.010696	0.268364
H47	H	1.391784	-0.672261	0.741348
O48	O	2.008109	-1.104760	0.110823
C49	C	2.088408	-1.172577	0.051802
H50	H	2.145019	-1.215776	0.120895
H51	H	2.149288	-1.124997	-0.009450
H52	H	2.035851	-1.231797	-0.003766
O53	O	2.123079	-1.282939	0.190717
C54	C	2.170608	-1.370357	0.251504
H55	H	2.166606	-1.355994	0.352169
H56	H	2.267642	-1.382667	0.223189
H57	H	2.116012	-1.443098	0.228310
O58	O	2.086761	-1.352778	0.421548
C59	C	2.159368	-1.327332	0.520682
H60	H	2.181963	-1.240224	0.518359
H61	H	2.245545	-1.375068	0.516871
H62	H	2.109311	-1.346129	0.606975
H63	H	1.938087	-1.239155	0.554193
O64	O	1.533891	-0.766100	0.583855
C65	C	1.465924	-0.674542	0.564615
H66	H	1.388036	-0.672296	0.630496
H67	H	1.429746	-0.674583	0.469165
H68	H	1.525029	-0.602713	0.578626
O69	O	1.583329	-1.113789	0.729333
C70	C	1.599881	-1.222397	0.712943
H71	H	1.639246	-1.237424	0.620360
H72	H	1.510004	-1.264155	0.721018
H73	H	1.663776	-1.253435	0.784197
H74	H	1.603512	-1.000271	0.888070
O75	O	1.461132	-0.906159	1.045626
C76	C	1.380788	-0.838368	1.104624
H77	H	1.382130	-0.758361	1.059273
H78	H	1.408750	-0.829514	1.202278
H79	H	1.286517	-0.872411	1.100032
O80	O	1.346174	-0.727968	0.965728
C81	C	1.298594	-0.640580	0.904923
H82	H	1.360541	-0.618131	0.828001
H83	H	1.290403	-0.571836	0.969643
H84	H	1.206364	-0.661107	0.867960
H85	H	1.873862	-0.905956	0.439040
