data_functionalizedCrystal
_audit_creation_method	'MofGen! by Chris Wilmer'
_symmetry_space_group_name_H-M	'P1'
_symmetry_Int_Tables_number	1
_symmetry_cell_setting	triclinic
loop_
_symmetry_equiv_pos_as_xyz
  x,y,z
_cell_length_a	14.044220
_cell_length_b	26.210047
_cell_length_c	14.044220
_cell_angle_alpha	89.995973
_cell_angle_beta	93.188878
_cell_angle_gamma	90.004879
loop_
_atom_site_label
_atom_site_type_symbol
_atom_site_fract_x
_atom_site_fract_y
_atom_site_fract_z
O1	O	1.277175	0.042377	0.230154
O2	O	1.000503	0.042390	0.221849
O3	O	1.134686	0.042378	0.087666
O4	O	1.142992	0.042388	0.364337
O5	O	1.134660	-0.042480	0.087686
O6	O	1.000477	-0.042468	0.221869
O7	O	1.277148	-0.042481	0.230175
Cu8	Cu	1.138810	-0.050223	0.226024
Cu9	Cu	1.138841	0.050131	0.226000
O10	O	1.142965	-0.042470	0.364358
C11	C	0.964868	-0.000038	0.218223
C12	C	0.858725	-0.000033	0.207379
N13	N	1.138795	-0.120807	0.226041
C14	C	0.664388	-0.000044	0.187553
C15	C	0.613258	-0.000043	0.264467
C16	C	0.505122	-0.000049	0.253435
C17	C	0.772534	-0.000038	0.198583
C18	C	1.198252	-0.473326	0.166598
C19	C	1.198272	-0.686985	0.166586
O20	O	1.248788	-0.714611	0.116046
N21	N	1.138845	-0.713701	0.225979
C22	C	1.079403	-0.686999	0.285375
O23	O	1.028850	-0.714626	0.335885
C24	C	1.079379	-0.473342	0.285381
C25	C	1.138818	-0.446628	0.225991
C26	C	1.257685	-0.446612	0.107212
C27	C	1.257683	-0.393201	0.107219
C28	C	1.198249	-0.366503	0.166612
C29	C	1.138816	-0.393217	0.225998
C30	C	1.019934	-0.446641	0.344771
C31	C	1.019931	-0.393223	0.344765
C32	C	1.079370	-0.366510	0.285375
C33	C	1.079380	-0.313107	0.285398
N34	N	1.138807	-0.286391	0.226005
C35	C	1.198241	-0.313089	0.166612
C36	C	1.079422	-0.799173	0.285369
C37	C	1.079429	-0.852587	0.285369
C38	C	1.198296	-0.852568	0.166579
C39	C	1.198293	-0.799153	0.166584
C40	C	1.138849	-0.772456	0.225976
C41	C	1.198234	-0.200921	0.166633
C42	C	1.198230	-0.147505	0.166648
C43	C	1.079359	-0.147528	0.285434
C44	C	1.079366	-0.200939	0.285423
C45	C	1.138807	-0.227635	0.226014
O46	O	1.028882	-0.285448	0.335904
O47	O	1.248772	-0.285453	0.116094
C48	C	1.198254	-0.526737	0.166590
C49	C	1.138821	-0.553451	0.225976
C50	C	1.079387	-0.526753	0.285369
C51	C	1.138828	-0.606865	0.225976
C52	C	1.198263	-0.633563	0.166583
C53	C	1.257690	-0.606847	0.107190
C54	C	1.257688	-0.553435	0.107197
C55	C	1.019959	-0.553469	0.344762
C56	C	1.019967	-0.606881	0.344751
C57	C	1.079401	-0.633579	0.285358
C58	C	1.312783	-0.000053	0.233800
C59	C	1.418926	-0.000054	0.244645
C60	C	1.131037	-0.000051	0.052054
C61	C	1.120193	-0.000051	-0.054088
N62	N	1.138863	0.120715	0.225976
C63	C	1.100366	-0.000043	-0.248426
C64	C	1.177281	-0.000045	-0.299556
C65	C	1.166249	-0.000040	-0.407692
C66	C	1.111397	-0.000047	-0.140280
C67	C	1.146614	-0.000040	0.399969
C68	C	1.157459	-0.000036	0.506112
H69	H	0.626951	-0.000049	0.113425
N70	N	1.007379	-0.000046	-0.295403
N71	N	0.982594	-0.035816	-0.350191
H72	H	0.916923	-0.035822	-0.383381
H73	H	1.031040	-0.874333	0.333740
N74	N	1.258929	-0.120223	0.105956
N75	N	1.250146	-0.126186	0.017600
H76	H	1.293008	-0.106919	-0.025268
N77	N	0.660232	-0.000040	0.357462
N78	N	0.749283	-0.000035	0.366411
H79	H	0.782464	-0.000032	0.432086
H80	H	1.246634	-0.222650	0.118256
H81	H	1.306080	-0.371454	0.058856
H82	H	0.971521	-0.371489	0.393128
N83	N	1.018635	-0.120252	0.346085
N84	N	0.930281	-0.126219	0.337252
H85	H	0.887388	-0.106955	0.380083
H86	H	1.246693	-0.777406	0.118224
N87	N	1.318403	-0.473870	0.046527
N88	N	1.371455	-0.450002	-0.006488
H89	H	1.414345	-0.469249	-0.049347
H90	H	1.246692	-0.874315	0.118220
H91	H	1.030976	-0.222690	0.333793
N92	N	1.018688	-0.771914	0.346044
N93	N	0.965637	-0.795780	0.399063
H94	H	0.922744	-0.776532	0.441918
H95	H	1.251414	-0.000014	-0.262117
N96	N	1.318410	-0.526160	0.046525
N97	N	1.371466	-0.550013	-0.006496
H98	H	1.414353	-0.530753	-0.049351
N99	N	0.959201	-0.473909	0.405435
N100	N	0.870849	-0.467938	0.396603
H101	H	0.827951	-0.487194	0.439451
N102	N	1.318395	-0.634132	0.046526
N103	N	1.318376	-0.681822	0.046535
H104	H	1.361241	-0.701095	0.003688
H105	H	0.971567	-0.628627	0.393122
H106	H	0.971559	-0.531736	0.393126
