data_functionalizedCrystal
_audit_creation_method	'MofGen! by Chris Wilmer'
_symmetry_space_group_name_H-M	'P1'
_symmetry_Int_Tables_number	1
_symmetry_cell_setting	triclinic
loop_
_symmetry_equiv_pos_as_xyz
  x,y,z
_cell_length_a	13.635800
_cell_length_b	9.109307
_cell_length_c	9.582880
_cell_angle_alpha	83.728948
_cell_angle_beta	68.792966
_cell_angle_gamma	111.764999
loop_
_atom_site_label
_atom_site_type_symbol
_atom_site_fract_x
_atom_site_fract_y
_atom_site_fract_z
V1	V	-2.088746	-0.224628	0.495453
O2	O	-2.049635	0.011501	0.456242
O3	O	-2.094220	-0.446079	0.520706
O4	O	-2.083623	-0.220862	0.698471
O5	O	-2.060306	-0.215275	0.277247
V6	V	-2.324243	-0.196421	0.465875
O7	O	-2.233117	-0.286502	0.560337
O8	O	-2.404971	-0.134546	0.400992
O9	O	-2.207166	0.025031	0.440622
O10	O	-2.422052	-0.432550	0.505086
O11	O	-2.411382	-0.205774	0.684081
O12	O	-2.217763	-0.200186	0.262858
C13	C	-2.023322	-0.500074	0.520281
C14	C	-2.068568	-0.681111	0.542281
V15	V	-1.588746	-0.224628	0.495453
O16	O	-1.549635	0.011501	0.456242
O17	O	-1.594220	-0.446079	0.520706
O18	O	-1.583623	-0.220862	0.698471
O19	O	-1.560306	-0.215275	0.277247
V20	V	-1.824243	-0.196421	0.465875
O21	O	-1.733117	-0.286502	0.560337
O22	O	-1.904971	-0.134546	0.400992
O23	O	-1.707166	0.025031	0.440622
O24	O	-1.922052	-0.432550	0.505086
O25	O	-1.911382	-0.205774	0.684081
O26	O	-1.717763	-0.200186	0.262858
C27	C	-2.009803	-0.212785	0.747035
C28	C	-2.046453	-0.211172	0.913191
C29	C	-2.109735	0.079017	0.441044
C30	C	-2.054109	0.260053	0.419054
C31	C	-2.123253	-0.208268	0.214286
C32	C	-2.076222	-0.209873	0.048128
C33	C	-1.523322	-0.500074	0.520281
C34	C	-1.568568	-0.681111	0.542281
C35	C	-1.509803	-0.212785	0.747035
C36	C	-1.546453	-0.211172	0.913191
C37	C	-1.609735	0.079017	0.441044
C38	C	-1.554109	0.260053	0.419054
C39	C	-1.623253	-0.208268	0.214286
C40	C	-1.576222	-0.209873	0.048128
C41	C	-1.682727	-0.774421	0.561155
C42	C	-1.725261	-0.944530	0.581851
C43	C	-1.653632	-1.021324	0.583661
C44	C	-1.539464	-0.928002	0.564789
C45	C	-1.496935	-0.757898	0.544105
C46	C	-1.612445	0.353361	0.400184
C47	C	-1.560184	0.523469	0.379496
C48	C	-1.449591	0.600263	0.377690
C49	C	-1.391250	0.506942	0.396557
C50	C	-1.443508	0.336840	0.417233
H51	H	-2.007134	-0.651818	0.296691
F52	F	-1.273544	0.588698	0.394622
F53	F	-2.129986	-0.796310	0.702233
F54	F	-1.463242	-1.009755	0.566714
H55	H	-1.741065	-0.711917	0.559676
F56	F	-1.375429	-0.658606	0.524008
F57	F	-1.730151	0.271663	0.402103
F58	F	-1.622294	0.622757	0.359422
F59	F	-1.846766	-1.043818	0.601925
F60	F	-1.381408	0.237549	0.437320
H61	H	-1.688276	-1.159834	0.600504
H62	H	-1.407052	0.738772	0.360852
