data_functionalizedCrystal
_audit_creation_method	'MofGen! by Chris Wilmer'
_symmetry_space_group_name_H-M	'P1'
_symmetry_Int_Tables_number	1
_symmetry_cell_setting	triclinic
loop_
_symmetry_equiv_pos_as_xyz
  x,y,z
_cell_length_a	17.038272
_cell_length_b	19.288840
_cell_length_c	18.366186
_cell_angle_alpha	89.983729
_cell_angle_beta	89.993834
_cell_angle_gamma	87.118786
loop_
_atom_site_label
_atom_site_type_symbol
_atom_site_fract_x
_atom_site_fract_y
_atom_site_fract_z
O1	O	0.097420	0.927391	-0.060673
O2	O	0.597420	1.427391	0.439327
O3	O	0.110595	0.725943	-0.060648
O4	O	0.610595	1.225943	0.439352
O5	O	-0.009804	0.825470	-0.060654
O6	O	0.490196	1.325470	0.439346
O7	O	0.217819	0.827865	-0.060666
O8	O	0.717819	1.327865	0.439334
O9	O	-0.009810	0.825452	0.060445
O10	O	0.490190	1.325452	0.560445
O11	O	0.110589	0.725925	0.060452
O12	O	0.610589	1.225925	0.560452
O13	O	0.097414	0.927373	0.060427
O14	O	0.597414	1.427373	0.560427
Zn15	Zn	0.104001	0.826646	0.079666
Zn16	Zn	0.604001	1.326646	0.579666
Zn17	Zn	0.104008	0.826670	-0.079887
Zn18	Zn	0.604008	1.326670	0.420113
O19	O	0.217813	0.827846	0.060433
O20	O	0.717813	1.327846	0.560433
C21	C	0.110171	0.700031	-0.000095
C22	C	0.610171	1.200031	0.499905
C23	C	0.108909	0.622849	-0.000085
C24	C	0.608909	1.122849	0.499915
C25	C	0.108305	0.586618	-0.066098
C26	C	0.608305	1.086618	0.433902
C27	C	0.107110	0.514097	-0.066107
C28	C	0.607110	1.014097	0.433893
C29	C	0.106502	0.477811	-0.000099
C30	C	0.606502	0.977811	0.499901
C31	C	0.107110	0.514050	0.065923
C32	C	0.607110	1.014050	0.565923
C33	C	0.108313	0.586569	0.065930
C34	C	0.608313	1.086569	0.565930
C35	C	0.058809	0.365525	0.050465
C36	C	0.558809	0.865525	0.550465
C37	C	0.057601	0.293007	0.050455
C38	C	0.557601	0.793007	0.550455
C39	C	0.102795	0.254138	-0.000118
C40	C	0.602795	0.754138	0.499882
C41	C	0.149188	0.287795	-0.050693
C42	C	0.649188	0.787795	0.449307
C43	C	0.150391	0.360314	-0.050686
C44	C	0.650391	0.860314	0.449314
C45	C	0.105198	0.399176	-0.000099
C46	C	0.605198	0.899176	0.499901
C47	C	0.100897	0.139271	-0.066145
C48	C	0.600897	0.639271	0.433855
C49	C	0.099707	0.066749	-0.066151
C50	C	0.599707	0.566749	0.433849
C51	C	0.099699	0.066704	0.065880
C52	C	0.599699	0.566704	0.565880
C53	C	0.100897	0.139225	0.065885
C54	C	0.600897	0.639225	0.565885
C55	C	0.101493	0.175504	-0.000130
C56	C	0.601493	0.675504	0.499870
C57	C	-0.038928	0.823283	-0.000105
C58	C	0.461072	1.323283	0.499895
C59	C	-0.125699	0.816785	-0.000104
C60	C	0.374301	1.316785	0.499896
C61	C	-0.176012	0.876442	-0.000111
C62	C	0.323988	1.376442	0.499889
C63	C	-0.257542	0.870332	-0.000117
C64	C	0.242458	1.370332	0.499883
C65	C	-0.288758	0.804566	-0.000111
C66	C	0.211242	1.304566	0.499889
C67	C	-0.238439	0.744905	-0.000107
C68	C	0.261561	1.244905	0.499893
C69	C	-0.156910	0.751015	-0.000106
C70	C	0.343090	1.251015	0.499894
C71	C	-0.534444	0.782980	-0.000118
C72	C	-0.034444	1.282980	0.499882
C73	C	-0.615979	0.776875	-0.000117
C74	C	-0.115979	1.276875	0.499883
C75	C	-0.635077	0.902303	-0.000129
C76	C	-0.135077	1.402303	0.499871
C77	C	-0.553546	0.908407	-0.000123
C78	C	-0.053546	1.408407	0.499877
C79	C	-0.503234	0.848746	-0.000123
C80	C	-0.003234	1.348746	0.499877
C81	C	-0.372095	0.798320	-0.000115
C82	C	0.127905	1.298320	0.499885
C83	C	-0.419899	0.854993	-0.000124
C84	C	0.080101	1.354993	0.499876
C85	C	0.246937	0.830033	-0.000118
C86	C	0.746937	1.330033	0.499882
C87	C	0.333708	0.836531	-0.000124
C88	C	0.833708	1.336531	0.499876
C89	C	0.097838	0.953285	-0.000128
C90	C	0.597838	1.453285	0.499872
C91	C	0.099101	1.030468	-0.000143
C92	C	0.599101	1.530468	0.499857
N93	N	0.103995	0.826634	0.188557
N94	N	0.603995	1.326634	0.688557
N95	N	0.104008	0.826687	-0.188779
N96	N	0.604008	1.326687	0.311221
C97	C	0.050708	0.870722	0.226655
C98	C	0.550708	1.370722	0.726655
C99	C	0.050705	0.870726	0.302883
C100	C	0.550705	1.370726	0.802883
C101	C	0.104001	0.826650	0.341010
C102	C	0.604001	1.326650	0.841010
C103	C	0.157292	0.782554	0.302903
C104	C	0.657292	1.282554	0.802903
C105	C	0.157289	0.782546	0.226677
C106	C	0.657289	1.282546	0.726677
C107	C	0.175226	0.821759	0.461767
C108	C	0.675226	1.321759	0.961767
C109	C	0.175230	0.821771	0.537992
C110	C	0.675230	1.321771	1.037992
C111	C	0.104011	0.826671	0.576118
C112	C	0.604011	1.326671	1.076118
C113	C	0.032785	0.831571	0.538008
C114	C	0.532785	1.331571	1.038008
C115	C	0.032782	0.831563	0.461782
C116	C	0.532782	1.331563	0.961782
C117	C	0.104010	0.826654	0.423665
C118	C	0.604010	1.326654	0.923665
C119	C	0.050716	0.870765	0.696870
C120	C	0.550716	1.370765	1.196870
C121	C	0.050712	0.870764	0.773099
C122	C	0.550712	1.370764	1.273099
C123	C	0.157306	0.782596	0.773119
C124	C	0.657306	1.282596	1.273119
C125	C	0.157303	0.782593	0.696891
C126	C	0.657303	1.282593	1.196891
C127	C	0.104010	0.826681	0.658771
C128	C	0.604010	1.326681	1.158771
H129	H	0.019821	0.265609	0.091633
H130	H	0.519821	0.765609	0.591633
H131	H	0.007315	0.906663	0.804119
H132	H	0.507315	1.406663	1.304119
Br133	Br	0.101710	0.188512	-0.155734
Br134	Br	0.601710	0.688512	0.344266
Br135	Br	-0.063877	0.838208	0.410064
Br136	Br	0.436123	1.338208	0.910064
Br137	Br	-0.280802	0.655649	-0.000111
Br138	Br	0.219198	1.155649	0.499889
Br139	Br	-0.063876	0.838229	0.589740
Br140	Br	0.436124	1.338229	1.089740
H141	H	0.233226	0.817785	0.569015
H142	H	0.733226	1.317785	1.069015
Br143	Br	0.229618	0.722731	0.354645
Br144	Br	0.729618	1.222731	0.854645
H145	H	0.007311	0.906628	0.333907
H146	H	0.507311	1.406628	0.833907
Br147	Br	0.229626	0.722760	0.645181
Br148	Br	0.729626	1.222760	1.145181
Br149	Br	0.229629	0.722770	0.824857
Br150	Br	0.729629	1.222770	1.324857
Br151	Br	-0.021613	0.930596	0.645134
Br152	Br	0.478387	1.430596	1.145134
H153	H	-0.528136	0.961961	-0.000128
H154	H	-0.028136	1.461961	0.499872
Br155	Br	0.271891	0.815179	0.410034
Br156	Br	0.771891	1.315179	0.910034
H157	H	0.200682	0.746644	0.195657
H158	H	0.700682	1.246644	0.695657
H159	H	0.106620	0.484592	-0.119865
H160	H	0.606620	0.984592	0.380135
Br161	Br	0.109114	0.635851	-0.155689
Br162	Br	0.609114	1.135851	0.344311
H163	H	0.188167	0.387715	-0.091865
H164	H	0.688167	0.887715	0.408135
Br165	Br	0.098898	0.017576	-0.155749
Br166	Br	0.598898	0.517576	0.344251
Br167	Br	-0.414466	0.709067	-0.000114
Br168	Br	0.085534	1.209067	0.499886
H169	H	0.099209	0.037160	0.119626
H170	H	0.599209	0.537160	0.619626
H171	H	-0.641391	0.723317	-0.000101
H172	H	-0.141391	1.223317	0.499899
Br173	Br	0.109134	0.635743	0.155526
Br174	Br	0.609134	1.135743	0.655526
Br175	Br	0.210530	0.235053	-0.119332
Br176	Br	0.710530	0.735053	0.380668
H177	H	-0.676049	0.950875	-0.000131
H178	H	-0.176049	1.450875	0.499869
Br179	Br	-0.088627	0.670050	-0.000102
Br180	Br	0.411373	1.170050	0.499898
Br181	Br	-0.021619	0.930551	0.174920
Br182	Br	0.478381	1.430551	0.674920
H183	H	0.101384	0.168724	0.119640
H184	H	0.601384	0.668724	0.619640
Br185	Br	-0.002529	0.418269	0.119108
Br186	Br	0.497471	0.918269	0.619108
H187	H	0.106618	0.484501	0.119667
H188	H	0.606618	0.984501	0.619667
H189	H	-0.298504	0.918911	-0.000121
H190	H	0.201496	1.418911	0.499879
Br191	Br	-0.133656	0.965700	-0.000108
Br192	Br	0.366344	1.465700	0.499892
Br193	Br	-0.377533	0.944245	-0.000138
Br194	Br	0.122467	1.444245	0.499862
H195	H	-0.493489	0.734400	-0.000118
H196	H	0.006511	1.234400	0.499882
