data_functionalizedCrystal
_audit_creation_method	'MofGen! by Chris Wilmer'
_symmetry_space_group_name_H-M	'P1'
_symmetry_Int_Tables_number	1
_symmetry_cell_setting	triclinic
loop_
_symmetry_equiv_pos_as_xyz
  x,y,z
_cell_length_a	19.288867
_cell_length_b	14.044190
_cell_length_c	17.766277
_cell_angle_alpha	90.013017
_cell_angle_beta	89.997573
_cell_angle_gamma	88.164423
loop_
_atom_site_label
_atom_site_type_symbol
_atom_site_fract_x
_atom_site_fract_y
_atom_site_fract_z
O1	O	0.928940	0.118227	0.062576
O2	O	1.262273	0.451561	0.395909
O3	O	1.595607	0.784894	0.729243
O4	O	0.727704	0.134172	0.062584
O5	O	1.061038	0.467506	0.395918
O6	O	1.394371	0.800839	0.729251
O7	O	0.825299	-0.011772	0.062566
O8	O	1.158632	0.321561	0.395899
O9	O	1.491966	0.654895	0.729232
O10	O	0.831345	0.264172	0.062595
O11	O	1.164678	0.597505	0.395928
O12	O	1.498012	0.930839	0.729262
O13	O	0.825301	-0.011787	-0.062623
O14	O	1.158634	0.321547	0.270710
O15	O	1.491967	0.654880	0.604044
O16	O	0.727706	0.134158	-0.062604
O17	O	1.061039	0.467491	0.270729
O18	O	1.394373	0.800824	0.604063
O19	O	0.928942	0.118213	-0.062612
O20	O	1.262275	0.451546	0.270721
O21	O	1.595608	0.784880	0.604054
Cu22	Cu	0.828324	0.126184	-0.074039
Cu23	Cu	1.161657	0.459517	0.259294
Cu24	Cu	1.494991	0.792851	0.592628
Cu25	Cu	0.828322	0.126201	0.074011
Cu26	Cu	1.161655	0.459535	0.407344
Cu27	Cu	1.494989	0.792868	0.740678
O28	O	0.831347	0.264157	-0.062594
O29	O	1.164680	0.597491	0.270740
O30	O	1.498014	0.930824	0.604073
C31	C	0.701796	0.133652	-0.000009
C32	C	1.035129	0.466985	0.333324
C33	C	1.368462	0.800318	0.666658
C34	C	0.624593	0.132111	-0.000006
C35	C	0.957926	0.465444	0.333327
C36	C	1.291260	0.798777	0.666660
C37	C	0.068313	0.121018	0.068224
C38	C	0.401647	0.454352	0.401557
C39	C	0.734980	0.787685	0.734891
C40	C	0.140854	0.122461	0.068227
C41	C	0.474187	0.455794	0.401560
C42	C	0.807520	0.789127	0.734894
C43	C	0.177130	0.123178	-0.000013
C44	C	0.510463	0.456512	0.333320
C45	C	0.843796	0.789845	0.666654
C46	C	0.140861	0.122429	-0.068261
C47	C	0.474194	0.455762	0.265072
C48	C	0.807527	0.789096	0.598406
C49	C	0.068322	0.120977	-0.068262
C50	C	0.401655	0.454311	0.265071
C51	C	0.734989	0.787644	0.598405
C52	C	0.290173	0.180974	-0.052288
C53	C	0.623506	0.514308	0.281046
C54	C	0.956839	0.847641	0.614379
C55	C	0.362710	0.182432	-0.052284
C56	C	0.696043	0.515765	0.281050
C57	C	1.029376	0.849099	0.614383
C58	C	0.400863	0.127652	-0.000013
C59	C	0.734196	0.460985	0.333321
C60	C	1.067530	0.794319	0.666654
C61	C	0.366470	0.071426	0.052267
C62	C	0.699803	0.404760	0.385600
C63	C	1.033136	0.738093	0.718934
C64	C	0.293931	0.069975	0.052266
C65	C	0.627265	0.403308	0.385599
C66	C	0.960598	0.736641	0.718933
C67	C	0.255786	0.124752	-0.000020
C68	C	0.589119	0.458085	0.333314
C69	C	0.922452	0.791419	0.666647
C70	C	0.515780	0.129958	0.068234
C71	C	0.849113	0.463292	0.401568
C72	C	1.182447	0.796625	0.734901
C73	C	0.588322	0.131395	0.068234
C74	C	0.921655	0.464728	0.401568
C75	C	1.254989	0.798061	0.734901
C76	C	0.588327	0.131373	-0.068256
C77	C	0.921660	0.464706	0.265078
C78	C	1.254994	0.798039	0.598411
C79	C	0.515787	0.129927	-0.068254
C80	C	0.849120	0.463260	0.265079
C81	C	1.182454	0.796593	0.598413
C82	C	0.479518	0.129224	-0.000007
C83	C	0.812851	0.462557	0.333327
C84	C	1.146184	0.795891	0.666660
C85	C	0.822655	-0.047083	-0.000031
C86	C	1.155988	0.286251	0.333303
C87	C	1.489321	0.619584	0.666636
C88	C	0.814765	-0.152275	-0.000037
C89	C	1.148098	0.181058	0.333296
C90	C	1.481432	0.514392	0.666630
C91	C	0.856297	-0.402738	-0.000009
C92	C	1.189630	-0.069405	0.333324
C93	C	1.522963	0.263928	0.666657
C94	C	0.800352	-0.344871	-0.000012
C95	C	1.133685	-0.011538	0.333321
C96	C	1.467019	0.321796	0.666654
C97	C	0.808373	-0.237701	-0.000026
C98	C	1.141707	0.095633	0.333307
C99	C	1.475040	0.428966	0.666641
C100	C	0.848277	-0.509918	0.000005
C101	C	1.181610	-0.176585	0.333338
C102	C	1.514943	0.156748	0.666671
C103	C	0.954850	0.118734	-0.000017
C104	C	1.288184	0.452067	0.333316
C105	C	1.621517	0.785400	0.666649
C106	C	1.032053	0.120275	-0.000015
C107	C	1.365386	0.453608	0.333318
C108	C	1.698719	0.786941	0.666652
C109	C	0.833991	0.299468	0.000004
C110	C	1.167324	0.632801	0.333338
C111	C	1.500658	0.966134	0.666671
C112	C	0.841881	0.404660	0.000016
C113	C	1.175214	0.737993	0.333349
C114	C	1.508547	1.071327	0.666682
N115	N	0.828321	0.126206	0.178141
N116	N	1.161654	0.459540	0.511475
N117	N	1.494987	0.792873	0.844808
N118	N	0.828330	0.126171	-0.178169
N119	N	1.161664	0.459505	0.155164
N120	N	1.494997	0.792838	0.488497
C121	C	0.871628	0.061708	0.217520
C122	C	1.204961	0.395041	0.550853
C123	C	1.538294	0.728375	0.884187
C124	C	0.871634	0.061706	0.296322
C125	C	1.204967	0.395040	0.629655
C126	C	1.538300	0.728373	0.962988
C127	C	0.828320	0.126194	0.335742
C128	C	1.161653	0.459527	0.669075
C129	C	1.494986	0.792861	1.002409
C130	C	0.785010	0.190705	0.296354
C131	C	1.118343	0.524038	0.629687
C132	C	1.451676	0.857371	0.963020
C133	C	0.785010	0.190711	0.217553
C134	C	1.118343	0.524044	0.550887
C135	C	1.451677	0.857377	0.884220
C136	C	0.765834	0.138670	0.460590
C137	C	1.099168	0.472004	0.793924
C138	C	1.432501	0.805337	1.127257
C139	C	0.765833	0.138658	0.539389
C140	C	1.099166	0.471991	0.872722
C141	C	1.432499	0.805324	1.206056
C142	C	0.828319	0.126181	0.578788
C143	C	1.161653	0.459514	0.912122
C144	C	1.494986	0.792847	1.245455
C145	C	0.890809	0.113696	0.539379
C146	C	1.224142	0.447030	0.872712
C147	C	1.557476	0.780363	1.206045
C148	C	0.890809	0.113702	0.460578
C149	C	1.224143	0.447036	0.793912
C150	C	1.557476	0.780369	1.127245
C151	C	0.828315	0.126195	0.421188
C152	C	1.161648	0.459528	0.754521
C153	C	1.494982	0.792862	1.087854
C154	C	0.871636	0.061677	0.703613
C155	C	1.204970	0.395010	1.036946
C156	C	1.538303	0.728344	1.370279
C157	C	0.871644	0.061682	0.782416
C158	C	1.204977	0.395015	1.115749
C159	C	1.538310	0.728349	1.449083
C160	C	0.785014	0.190675	0.782447
C161	C	1.118347	0.524009	1.115780
C162	C	1.451680	0.857342	1.449113
C163	C	0.785013	0.190675	0.703645
C164	C	1.118346	0.524008	1.036978
C165	C	1.451679	0.857342	1.370311
C166	C	0.828323	0.126171	0.664233
C167	C	1.161656	0.459504	0.997566
C168	C	1.494990	0.792837	1.330899
H169	H	0.486248	0.129383	0.123805
H170	H	0.819582	0.462716	0.457138
H171	H	1.152915	0.796050	0.790472
H172	H	0.906905	0.009156	0.671522
H173	H	1.240238	0.342490	1.004855
H174	H	1.573571	0.675823	1.338189
O175	O	0.913740	-0.000810	0.179151
O176	O	1.247073	0.332523	0.512484
O177	O	1.580406	0.665856	0.845817
C178	C	0.959662	0.049921	0.133596
C179	C	1.292996	0.383255	0.466930
C180	C	1.626329	0.716588	0.800263
H181	H	0.936498	0.124117	0.121812
H182	H	1.269831	0.457451	0.455145
H183	H	1.603165	0.790784	0.788479
H184	H	0.968252	0.010357	0.078173
H185	H	1.301586	0.343690	0.411506
H186	H	1.634919	0.677024	0.744840
H187	H	1.011370	0.056312	0.163966
H188	H	1.344703	0.389646	0.497300
H189	H	1.678036	0.722979	0.830633
H190	H	0.910212	-0.371794	-0.000019
H191	H	1.243546	-0.038461	0.333314
H192	H	1.576879	0.294872	0.666647
H193	H	0.941692	0.103544	0.571456
H194	H	1.275026	0.436877	0.904789
H195	H	1.608359	0.770210	1.238122
O196	O	0.176177	0.123002	-0.134501
O197	O	0.509510	0.456336	0.198832
O198	O	0.842843	0.789669	0.532165
C199	C	0.220909	0.041778	-0.138597
C200	C	0.554242	0.375112	0.194736
C201	C	0.887575	0.708445	0.528070
H202	H	0.232700	0.014652	-0.079348
H203	H	0.566033	0.347986	0.253986
H204	H	0.899367	0.681319	0.587319
H205	H	0.271293	0.061250	-0.167477
H206	H	0.604627	0.394583	0.165856
H207	H	0.937960	0.727917	0.499190
H208	H	0.194905	-0.016246	-0.172278
H209	H	0.528238	0.317087	0.161056
H210	H	0.861572	0.650421	0.494389
O211	O	0.913722	-0.001046	0.334468
O212	O	1.247055	0.332288	0.667802
O213	O	1.580388	0.665621	1.001135
C214	C	0.951962	-0.057958	0.282784
C215	C	1.285295	0.275375	0.616118
C216	C	1.618628	0.608709	0.949451
H217	H	0.923433	-0.058996	0.226611
H218	H	1.256766	0.274338	0.559944
H219	H	1.590100	0.607671	0.893277
H220	H	0.957962	-0.133666	0.305536
H221	H	1.291295	0.199667	0.638869
H222	H	1.624629	0.533001	0.972203
H223	H	1.005411	-0.027236	0.274413
H224	H	1.338744	0.306097	0.607746
H225	H	1.672077	0.639431	0.941080
H226	H	0.746432	-0.375817	-0.000006
H227	H	1.079766	-0.042483	0.333328
H228	H	1.413099	0.290850	0.666661
O229	O	0.260597	0.015414	0.103143
O230	O	0.593930	0.348747	0.436476
O231	O	0.927263	0.682081	0.769809
C232	C	0.277313	0.044877	0.176626
C233	C	0.610647	0.378210	0.509959
C234	C	0.943980	0.711544	0.843293
H235	H	0.328736	0.082670	0.175665
H236	H	0.662069	0.416003	0.508999
H237	H	0.995402	0.749337	0.842332
H238	H	0.281991	-0.019991	0.215070
H239	H	0.615325	0.313343	0.548404
H240	H	0.948658	0.646676	0.881737
H241	H	0.234732	0.095774	0.198564
H242	H	0.568065	0.429107	0.531897
H243	H	0.901398	0.762440	0.865230
H244	H	0.941691	0.103540	0.428494
H245	H	1.275024	0.436873	0.761828
H246	H	1.608357	0.770207	1.095161
O247	O	0.913736	-0.001066	0.820554
O248	O	1.247069	0.332267	1.153888
O249	O	1.580403	0.665600	1.487221
C250	C	0.951972	-0.057978	0.768866
C251	C	1.285305	0.275355	1.102199
C252	C	1.618638	0.608688	1.435533
H253	H	0.923437	-0.059019	0.712697
H254	H	1.256770	0.274314	1.046030
H255	H	1.590103	0.607648	1.379363
H256	H	0.957977	-0.133685	0.791619
H257	H	1.291310	0.199648	1.124952
H258	H	1.624644	0.532982	1.458285
H259	H	1.005419	-0.027253	0.760487
H260	H	1.338752	0.306080	1.093820
H261	H	1.672085	0.639413	1.427154
O262	O	0.033201	0.120305	-0.134620
O263	O	0.366534	0.453638	0.198713
O264	O	0.699867	0.786971	0.532047
C265	C	0.080771	0.121218	-0.194853
C266	C	0.414104	0.454551	0.138480
C267	C	0.747437	0.787884	0.471814
H268	H	0.131462	0.152246	-0.174846
H269	H	0.464796	0.485580	0.158487
H270	H	0.798129	0.818913	0.491821
H271	H	0.058255	0.166788	-0.242578
H272	H	0.391589	0.500121	0.090755
H273	H	0.724922	0.833455	0.424089
H274	H	0.091060	0.045360	-0.215841
H275	H	0.424394	0.378693	0.117492
H276	H	0.757727	0.712027	0.450826
O277	O	0.743038	0.253364	0.820811
O278	O	1.076371	0.586697	1.154144
O279	O	1.409704	0.920031	1.487477
C280	C	0.783769	0.311821	0.866385
C281	C	1.117102	0.645154	1.199718
C282	C	1.450436	0.978487	1.533051
H283	H	0.835815	0.274017	0.878181
H284	H	1.169149	0.607351	1.211514
H285	H	1.502482	0.940684	1.544847
H286	H	0.755696	0.326845	0.921801
H287	H	1.089029	0.660179	1.255134
H288	H	1.422363	0.993512	1.588468
H289	H	0.792731	0.381868	0.836026
H290	H	1.126065	0.715201	1.169359
H291	H	1.459398	1.048534	1.502693
O292	O	0.742873	0.253358	0.665505
O293	O	1.076206	0.586692	0.998838
O294	O	1.409540	0.920025	1.332171
C295	C	0.704656	0.310295	0.717192
C296	C	1.037990	0.643628	1.050526
C297	C	1.371323	0.976962	1.383859
H298	H	0.701519	0.271431	0.773356
H299	H	1.034852	0.604764	1.106689
H300	H	1.368185	0.938098	1.440022
H301	H	0.650080	0.324806	0.694430
H302	H	0.983414	0.658139	1.027763
H303	H	1.316747	0.991472	1.361096
H304	H	0.731466	0.380688	0.725587
H305	H	1.064799	0.714021	1.058921
H306	H	1.398133	1.047354	1.392254
H307	H	0.714949	0.148812	0.571470
H308	H	1.048282	0.482145	0.904804
H309	H	1.381616	0.815479	1.238137
H310	H	0.714947	0.148835	0.428518
H311	H	1.048280	0.482169	0.761851
H312	H	1.381613	0.815502	1.095185
H313	H	0.749744	0.243213	0.328454
H314	H	1.083078	0.576546	0.661787
H315	H	1.416411	0.909880	0.995120
O316	O	0.742834	0.253269	0.179331
O317	O	1.076168	0.586602	0.512664
O318	O	1.409501	0.919936	0.845998
C319	C	0.673168	0.237936	0.198603
C320	C	1.006501	0.571269	0.531937
C321	C	1.339834	0.904603	0.865270
H322	H	0.668234	0.162049	0.220253
H323	H	1.001567	0.495382	0.553586
H324	H	1.334900	0.828715	0.886919
H325	H	0.638979	0.248868	0.146786
H326	H	0.972312	0.582202	0.480119
H327	H	1.305645	0.915535	0.813452
H328	H	0.655955	0.290492	0.244354
H329	H	0.989289	0.623825	0.577687
H330	H	1.322622	0.957158	0.911021
O331	O	0.033192	0.120282	0.134584
O332	O	0.366525	0.453615	0.467917
O333	O	0.699859	0.786948	0.801251
C334	C	0.080757	0.121268	0.194815
C335	C	0.414091	0.454602	0.528148
C336	C	0.747424	0.787935	0.861482
H337	H	0.133485	0.092312	0.174804
H338	H	0.466818	0.425645	0.508138
H339	H	0.800151	0.758979	0.841471
H340	H	0.061360	0.074855	0.242539
H341	H	0.394694	0.408188	0.575872
H342	H	0.728027	0.741521	0.909205
H343	H	0.085890	0.197433	0.215807
H344	H	0.419223	0.530766	0.549140
H345	H	0.752556	0.864100	0.882473
H346	H	0.170383	0.123071	0.123797
H347	H	0.503716	0.456405	0.457130
H348	H	0.837049	0.789738	0.790464
H349	H	0.397533	0.026822	0.094833
H350	H	0.730866	0.360156	0.428167
H351	H	1.064199	0.693489	0.761500
H352	H	0.617863	0.131953	-0.123818
H353	H	0.951196	0.465287	0.209515
H354	H	1.284529	0.798620	0.542849
O355	O	0.623439	0.132154	0.134593
O356	O	0.956773	0.465487	0.467926
O357	O	1.290106	0.798820	0.801260
C358	C	0.575869	0.131198	0.194824
C359	C	0.909202	0.464532	0.528158
C360	C	1.242536	0.797865	0.861491
H361	H	0.523146	0.160158	0.174818
H362	H	0.856480	0.493492	0.508152
H363	H	1.189813	0.826825	0.841485
H364	H	0.595268	0.177625	0.242554
H365	H	0.928601	0.510958	0.575887
H366	H	1.261934	0.844291	0.909221
H367	H	0.570727	0.055043	0.215806
H368	H	0.904060	0.388376	0.549139
H369	H	1.237394	0.721709	0.882472
H370	H	0.486263	0.129325	-0.123822
H371	H	0.819596	0.462658	0.209512
H372	H	1.152930	0.795991	0.542845
H373	H	0.259114	0.225578	-0.094861
H374	H	0.592448	0.558912	0.238472
H375	H	0.925781	0.892245	0.571805
O376	O	0.396008	0.237069	-0.103137
O377	O	0.729341	0.570402	0.230196
O378	O	1.062674	0.903736	0.563530
C379	C	0.346780	0.285116	-0.149268
C380	C	0.680114	0.618449	0.184065
C381	C	1.013447	0.951782	0.517399
H382	H	0.296405	0.244826	-0.149179
H383	H	0.629738	0.578159	0.184154
H384	H	0.963072	0.911493	0.517487
H385	H	0.367622	0.289109	-0.209191
H386	H	0.700956	0.622442	0.124142
H387	H	1.034289	0.955775	0.457475
H388	H	0.336508	0.360262	-0.126737
H389	H	0.669841	0.693595	0.206596
H390	H	1.003174	1.026928	0.539929
