data_functionalizedCrystal
_audit_creation_method	'MofGen! by Chris Wilmer'
_symmetry_space_group_name_H-M	'P1'
_symmetry_Int_Tables_number	1
_symmetry_cell_setting	triclinic
loop_
_symmetry_equiv_pos_as_xyz
  x,y,z
_cell_length_a	23.096457
_cell_length_b	21.606444
_cell_length_c	21.606444
_cell_angle_alpha	59.999490
_cell_angle_beta	89.999780
_cell_angle_gamma	60.008963
loop_
_atom_site_label
_atom_site_type_symbol
_atom_site_fract_x
_atom_site_fract_y
_atom_site_fract_z
Zr1	Zr	0.557928	0.677334	-0.081181
O2	O	0.465502	0.806439	-0.179995
O3	O	0.586240	0.548233	-0.050896
O4	O	0.586264	0.677337	-0.180008
O5	O	0.465484	0.677331	0.050971
O6	O	0.681546	0.677335	-0.180010
O7	O	0.465479	0.677335	-0.050883
O8	O	0.681504	0.446391	0.050948
O9	O	0.465526	0.908274	-0.179987
O10	O	0.669448	0.601331	-0.037973
O11	O	0.598344	0.601329	0.038041
O12	O	0.598372	0.753333	-0.113972
O13	O	0.527267	0.753331	-0.037957
Zr14	Zr	0.709900	0.677323	0.081261
Zr15	Zr	0.709892	0.677330	-0.081184
Zr16	Zr	0.557935	0.677327	0.081265
Zr17	Zr	0.557965	0.839749	-0.081168
Zr18	Zr	0.709862	0.514907	0.081248
O19	O	0.681587	0.806424	0.050977
O20	O	0.681576	0.806434	-0.180000
O21	O	0.465513	0.806429	0.050982
O22	O	0.802325	0.548218	0.180076
O23	O	0.802314	0.548228	-0.050901
O24	O	0.586251	0.548223	0.180081
O25	O	0.802344	0.677326	-0.050891
O26	O	0.681563	0.677319	0.180089
O27	O	0.586281	0.677322	0.180091
O28	O	0.802349	0.677322	0.050964
O29	O	0.586317	0.908271	-0.179990
O30	O	0.681510	0.446385	0.180070
O31	O	0.802302	0.446382	0.180067
O32	O	0.802296	0.446388	0.050945
O33	O	0.465532	0.908269	-0.050864
O34	O	0.586323	0.908266	-0.050867
O35	O	0.669456	0.601324	0.114052
O36	O	0.740560	0.601326	0.038038
O37	O	0.669483	0.753328	-0.037961
O38	O	0.598379	0.753326	0.038053
C39	C	0.633867	0.474171	0.000024
C40	C	0.633851	0.405222	0.000018
C41	C	0.686449	-0.074250	0.056168
C42	C	0.686434	-0.009442	0.056161
C43	C	0.633942	0.079051	0.000049
C44	C	0.581467	0.102736	-0.056063
C45	C	0.581485	0.037928	-0.056057
C46	C	0.581391	0.364099	-0.056086
C47	C	0.581375	0.428906	-0.056085
C48	C	0.686339	0.316728	0.056132
C49	C	0.686358	0.251921	0.056137
C50	C	0.633885	0.275611	0.000024
C51	C	0.633903	0.205338	0.000032
C52	C	0.633921	0.149323	0.000043
C53	C	0.443829	0.677333	0.000045
C54	C	0.379317	0.677335	0.000046
C55	C	0.349011	0.677344	-0.056070
C56	C	0.288399	0.677336	-0.056070
C57	C	0.258086	0.677337	0.000041
C58	C	0.288401	0.677323	0.056166
C59	C	0.349017	0.677322	0.056169
N60	N	0.139746	0.726881	0.017032
N61	N	0.082164	0.726884	0.017024
C62	C	0.075457	0.677337	0.000037
N63	N	0.128503	0.627799	-0.016958
N64	N	0.186090	0.627800	-0.016955
C65	C	0.192359	0.677337	0.000044
C66	C	-0.020571	0.677336	-0.056082
C67	C	-0.081182	0.677323	-0.056077
C68	C	-0.081182	0.677319	0.056156
C69	C	-0.020568	0.677323	0.056154
C70	C	0.009732	0.677336	0.000031
C71	C	0.823998	0.677324	0.000036
C72	C	0.888511	0.677322	0.000035
C73	C	0.633904	0.677337	-0.203154
C74	C	0.633901	0.677340	-0.272117
C75	C	0.633960	0.880486	0.000057
C76	C	0.633976	0.949435	0.000062
C77	C	0.596799	0.756683	-0.344186
C78	C	0.596805	0.756681	-0.408981
C79	C	0.633909	0.677334	-0.401705
C80	C	0.671016	0.597985	-0.329628
C81	C	0.671013	0.597989	-0.264835
C82	C	0.671027	0.597970	-0.590931
C83	C	0.671025	0.597973	-0.655732
C84	C	0.596819	0.756662	-0.735077
C85	C	0.596816	0.756665	-0.670284
C86	C	0.633925	0.677317	-0.598213
C87	C	0.633919	0.677321	-0.527955
C88	C	0.633911	0.677330	-0.471961
C89	C	0.633923	0.677320	0.203235
C90	C	0.633927	0.677317	0.272197
C91	C	0.823951	0.474166	0.000020
C92	C	0.888448	0.405215	0.000013
C93	C	0.633877	0.474163	0.203218
C94	C	0.633864	0.405210	0.272175
C95	C	0.823961	0.474158	0.203214
C96	C	0.888461	0.405203	0.272170
C97	C	0.443866	0.880499	-0.203134
C98	C	0.379366	0.949453	-0.272089
C99	C	0.443876	0.880490	0.000061
C100	C	0.379379	0.949442	0.000068
C101	C	0.633951	0.880494	-0.203138
C102	C	0.633963	0.949447	-0.272095
C103	C	0.881617	0.372838	-0.039674
C104	C	0.942213	0.308059	-0.039696
C105	C	1.009639	0.275656	-0.000026
C106	C	1.016469	0.308040	0.039662
C107	C	0.955874	0.372821	0.039679
C108	C	0.670978	0.372826	0.344242
C109	C	0.670963	0.308047	0.409040
C110	C	0.633839	0.275648	0.401771
C111	C	0.596721	0.308038	0.329696
C112	C	0.596731	0.372821	0.264900
C113	C	0.955873	0.372823	0.264873
C114	C	1.016484	0.308042	0.329658
C115	C	1.009681	0.275639	0.401738
C116	C	0.942262	0.308026	0.409033
C117	C	0.881652	0.372810	0.344249
C118	C	0.311954	0.981842	-0.264793
C119	C	0.251343	1.046643	-0.329577
C120	C	0.258146	1.079050	-0.401658
C121	C	0.325566	1.046658	-0.408953
C122	C	0.386175	0.981863	-0.344169
C123	C	0.386210	0.981826	0.039748
C124	C	0.325614	1.046622	0.039752
C125	C	0.258188	1.079028	0.000080
C126	C	0.251358	1.046641	-0.039605
C127	C	0.311953	0.981851	-0.039613
C128	C	0.671095	0.981825	-0.264801
C129	C	0.671121	1.046605	-0.329587
C130	C	0.634010	1.079010	-0.401666
C131	C	0.596877	1.046625	-0.408959
C132	C	0.596856	0.981842	-0.344173
H133	H	0.729164	-0.028735	0.101846
H134	H	0.441107	0.955446	0.072059
H135	H	0.538625	0.500965	-0.101778
O136	O	0.742980	0.156474	0.116649
H137	H	0.779473	0.150891	0.155656
H138	H	-0.105854	0.677324	-0.101772
H139	H	0.306381	0.955485	-0.071924
O140	O	0.012122	0.677319	0.116676
H141	H	-0.019139	0.677323	0.155692
H142	H	0.566663	1.073019	-0.467654
O143	O	1.075055	0.205754	0.471611
H144	H	1.123071	0.188679	0.454420
H145	H	0.633836	0.222898	0.454539
O146	O	0.963219	0.407775	0.187133
H147	H	1.020283	0.374377	0.192956
H148	H	0.729067	0.297444	0.101821
H149	H	0.208853	1.131785	0.000092
O150	O	0.808946	0.407710	0.352130
H151	H	0.802788	0.437212	0.383607
H152	H	0.826721	0.399220	-0.071988
H153	H	1.071374	0.281679	0.323705
O154	O	0.711135	0.946874	-0.187064
H155	H	0.689712	1.001255	-0.180467
O156	O	0.711036	0.512388	-0.513206
H157	H	0.704807	0.525713	-0.469369
H158	H	0.196451	1.073036	-0.071906
O159	O	0.934833	0.273141	-0.082504
H160	H	0.988292	0.222659	-0.075866
O161	O	1.074995	0.205777	-0.000040
H162	H	1.058909	0.188705	-0.034297
H163	H	0.701192	0.281683	0.467720
H164	H	0.566495	0.281649	0.323788
O165	O	0.711170	1.081530	-0.321713
H166	H	0.736959	1.048120	-0.260707
H167	H	0.701242	0.533356	-0.649799
H168	H	0.634033	1.131760	-0.454412
H169	H	0.331097	1.073052	-0.467648
O170	O	0.556795	0.946932	-0.352044
H171	H	0.530989	0.980361	-0.413051
O172	O	0.711022	0.407765	0.352092
H173	H	0.689569	0.437291	0.383547
H174	H	0.331189	1.072981	0.072071
H175	H	0.441063	0.955493	-0.350119
H176	H	0.729191	-0.146303	0.101864
O177	O	0.524794	0.389656	-0.116605
H178	H	0.494541	0.362796	-0.089621
H179	H	0.936733	0.281634	0.467730
O180	O	0.524848	0.198180	-0.116586
H181	H	0.533645	0.239267	-0.107160
H182	H	0.306401	0.955460	-0.206107
O183	O	0.556814	0.407625	0.187170
H184	H	0.531045	0.374159	0.193009
O185	O	-0.113867	0.677321	0.116678
H186	H	-0.161111	0.677328	0.107247
O187	O	0.178632	1.081557	-0.321701
H188	H	0.184090	1.048118	-0.260694
H189	H	0.208789	1.131810	-0.454403
H190	H	0.538758	0.057220	-0.101746
O191	O	1.089195	0.273080	0.082456
H192	H	1.130177	0.222586	0.075780
H193	H	0.566595	0.821290	-0.467661
H194	H	0.566599	0.821277	-0.676215
O195	O	0.381697	0.677350	-0.116596
H196	H	0.350440	0.677349	-0.155614
O197	O	0.963245	0.407728	0.082500
H198	H	1.020312	0.374299	0.110087
H199	H	0.263719	0.677321	0.101853
O200	O	0.255695	0.677357	-0.116602
H201	H	0.286945	0.677372	-0.155630
H202	H	0.004102	0.677343	-0.101779
H203	H	0.566580	0.821296	-0.350119
H204	H	0.373692	0.677315	0.101866
H205	H	0.566605	0.821272	-0.793767
H206	H	0.701225	0.533379	-0.206153
O207	O	0.711035	0.512401	-0.321774
H208	H	0.704797	0.525726	-0.378936
