data_functionalizedCrystal
_audit_creation_method	'MofGen! by Chris Wilmer'
_symmetry_space_group_name_H-M	'P1'
_symmetry_Int_Tables_number	1
_symmetry_cell_setting	triclinic
loop_
_symmetry_equiv_pos_as_xyz
  x,y,z
_cell_length_a	20.875621
_cell_length_b	14.560438
_cell_length_c	14.560438
_cell_angle_alpha	59.995857
_cell_angle_beta	87.028029
_cell_angle_gamma	58.316488
loop_
_atom_site_label
_atom_site_type_symbol
_atom_site_fract_x
_atom_site_fract_y
_atom_site_fract_z
Zr1	Zr	0.617942	1.005320	-0.166521
O2	O	0.515521	1.196930	-0.305569
O3	O	0.649339	0.813711	-0.123887
O4	O	0.649340	1.005323	-0.315503
O5	O	0.515520	1.005316	0.037188
O6	O	0.754899	1.005324	-0.323349
O7	O	0.515520	1.005319	-0.113952
O8	O	0.754897	0.662566	0.019418
O9	O	0.515522	1.348074	-0.305579
O10	O	0.741508	0.892523	-0.111569
O11	O	0.662730	0.892520	0.007081
O12	O	0.662731	1.118118	-0.218523
O13	O	0.583953	1.118116	-0.099873
Zr14	Zr	0.786297	1.005317	0.062018
Zr15	Zr	0.786297	1.005321	-0.179034
Zr16	Zr	0.617942	1.005316	0.074531
Zr17	Zr	0.617943	1.246377	-0.166536
Zr18	Zr	0.786296	0.764260	0.062034
O19	O	0.754900	1.196926	0.019384
O20	O	0.754900	1.196932	-0.323362
O21	O	0.515521	1.196924	0.037176
O22	O	0.888718	0.813707	0.201066
O23	O	0.888718	0.813713	-0.141679
O24	O	0.649339	0.813705	0.218859
O25	O	0.888719	1.005321	-0.141691
O26	O	0.754899	1.005314	0.211000
O27	O	0.649340	1.005313	0.218846
O28	O	0.888719	1.005318	0.009449
O29	O	0.649341	1.348075	-0.315525
O30	O	0.754898	0.662562	0.211023
O31	O	0.888717	0.662563	0.201076
O32	O	0.888717	0.662567	0.009472
O33	O	0.515522	1.348071	-0.113975
O34	O	0.649342	1.348071	-0.123921
O35	O	0.741508	0.892519	0.114020
O36	O	0.820286	0.892521	-0.004630
O37	O	0.741509	1.118117	-0.111584
O38	O	0.662731	1.118114	0.007066
C39	C	0.702118	0.703793	-0.052232
C40	C	0.702117	0.601458	-0.052225
C41	C	0.643962	0.636673	-0.131185
C42	C	0.643966	0.540533	-0.131214
C43	C	0.760282	0.373964	0.026686
C44	C	0.760282	0.470103	0.026710
C45	C	0.491533	1.005317	-0.036599
C46	C	0.420062	1.005317	-0.031287
C47	C	0.386484	1.005322	-0.112058
C48	C	0.319332	1.005315	-0.107061
C49	C	0.285755	1.005312	-0.021297
C50	C	0.319339	1.005303	0.059482
C51	C	0.386493	1.005301	0.054489
C52	C	0.084915	1.005309	0.002570
C53	C	0.017755	1.005316	0.007555
C54	C	0.017753	1.005325	-0.158988
C55	C	0.084906	1.005330	-0.163977
C56	C	0.118486	1.005315	-0.083195
N57	N	0.217113	1.005309	-0.016189
N58	N	0.187130	1.005308	-0.088299
C59	C	0.912706	1.005320	-0.067904
C60	C	0.984177	1.005320	-0.073216
C61	C	0.702119	1.005324	-0.353771
C62	C	0.702119	1.005326	-0.456104
C63	C	0.702121	1.306844	-0.052271
C64	C	0.702122	1.409179	-0.052278
C65	C	0.760272	1.005327	-0.508502
C66	C	0.760275	1.005315	-0.604648
C67	C	0.643964	1.005306	-0.595992
C68	C	0.643965	1.005308	-0.499843
C69	C	0.702120	1.005313	0.249268
C70	C	0.702120	1.005311	0.351601
C71	C	0.912704	0.703794	-0.067884
C72	C	0.984175	0.601460	-0.073190
C73	C	0.702118	0.703788	0.249288
C74	C	0.702118	0.601451	0.351627
C75	C	0.912705	0.703789	0.233635
C76	C	0.984175	0.601453	0.330663
C77	C	0.491534	1.306848	-0.338138
C78	C	0.420064	1.409184	-0.435165
C79	C	0.491535	1.306843	-0.036619
C80	C	0.420064	1.409177	-0.031313
C81	C	0.702121	1.306849	-0.353791
C82	C	0.702121	1.409186	-0.456130
C83	C	0.976617	0.553403	-0.131513
C84	C	1.043765	0.457262	-0.136520
C85	C	1.118470	0.409173	-0.083197
C86	C	1.126026	0.457240	-0.024872
C87	C	1.058879	0.553385	-0.019872
C88	C	1.058867	0.553396	0.314293
C89	C	1.126028	0.457253	0.405451
C90	C	1.118495	0.409163	0.512977
C91	C	1.043796	0.457229	0.529345
C92	C	0.976637	0.553377	0.438188
C93	C	0.345372	1.457253	-0.418796
C94	C	0.278212	1.553425	-0.509954
C95	C	0.285744	1.601521	-0.617480
C96	C	0.360443	1.553448	-0.633848
C97	C	0.427602	1.457284	-0.542691
C98	C	0.427622	1.457244	0.027000
C99	C	0.360474	1.553411	0.031981
C100	C	0.285769	1.601504	-0.021346
C101	C	0.278213	1.553433	-0.079666
C102	C	0.345360	1.457274	-0.084653
C103	C	0.743238	0.553370	0.455528
C104	C	0.743229	0.457223	0.551684
C105	C	0.660978	0.457242	0.440024
C106	C	0.660983	0.553394	0.343871
H107	H	0.807637	0.267007	0.090953
H108	H	0.596609	1.005303	-0.457175
O109	O	0.500226	1.410565	0.078637
C110	C	0.541525	1.434086	-0.000028
H111	H	0.515886	1.446041	-0.075612
H112	H	0.535932	1.526549	-0.025972
C113	C	0.660316	1.304041	0.144026
C114	C	0.628830	1.318714	0.051196
H115	H	0.714170	1.232878	0.175624
H116	H	0.632492	1.288198	0.197025
H117	H	0.655648	1.381102	0.122393
H118	H	0.633489	1.241661	0.072833
H119	H	0.656657	1.334541	-0.001798
O120	O	0.337970	1.410455	-0.141140
C121	C	0.296516	1.354889	-0.094765
H122	H	0.302130	1.326027	-0.005433
H123	H	0.231893	1.428603	-0.144556
C124	C	0.324051	1.269051	-0.207238
C125	C	0.330951	1.233592	-0.097516
H126	H	0.345289	1.194233	-0.208939
H127	H	0.351977	1.306491	-0.238485
H128	H	0.270197	1.330482	-0.248718
H129	H	0.384804	1.172176	-0.056041
H130	H	0.303035	1.196139	-0.066262
H131	H	1.037674	0.418060	0.616905
H132	H	0.807643	0.441418	0.091010
H133	H	0.217395	1.592550	-0.496605
H134	H	0.413815	1.005332	-0.181901
H135	H	0.366642	1.592534	0.079475
H136	H	0.366567	1.592620	-0.721407
H137	H	-0.009581	1.005314	0.077399
H138	H	0.627494	0.592545	0.259265
H139	H	0.413833	1.005294	0.120263
O140	O	0.904141	0.599860	0.454294
C141	C	0.911905	0.536808	0.568749
H142	H	0.971839	0.439361	0.615561
H143	H	0.906398	0.599867	0.597485
C144	C	0.773252	0.634068	0.534226
C145	C	0.846861	0.514378	0.591720
H146	H	0.733129	0.620237	0.548397
H147	H	0.768021	0.676552	0.457116
H148	H	0.768674	0.686606	0.558179
H149	H	0.851442	0.461849	0.567757
H150	H	0.852092	0.471884	0.668828
H151	H	0.339224	1.418099	-0.331250
H152	H	0.231052	1.679823	-0.691696
O153	O	0.783049	0.410639	0.652645
C154	C	0.730258	0.434115	0.715714
H155	H	0.668305	0.518393	0.657922
H156	H	0.731696	0.343361	0.772665
C157	C	0.830430	0.364994	0.856725
C158	C	0.754339	0.468514	0.785743
H159	H	0.845285	0.386207	0.899927
H160	H	0.865998	0.349173	0.814237
H161	H	0.831618	0.289375	0.904174
H162	H	0.753154	0.544126	0.738287
H163	H	0.718772	0.484348	0.828225
H164	H	1.173187	0.330874	0.587193
H165	H	0.807629	1.005314	-0.647308
O166	O	0.500098	1.410686	-0.558797
C167	C	0.492334	1.473786	-0.673252
H168	H	0.432399	1.513421	-0.720061
H169	H	0.497844	1.557291	-0.701996
C170	C	0.630986	1.327692	-0.638727
C171	C	0.557375	1.376362	-0.696217
H172	H	0.671108	1.267600	-0.652894
H173	H	0.636218	1.285183	-0.561616
H174	H	0.635566	1.397290	-0.662686
H175	H	0.552793	1.306767	-0.672248
H176	H	0.552145	1.418858	-0.773325
H177	H	1.186845	0.418128	0.392104
O178	O	0.117417	1.005330	0.081111
C179	C	0.073394	1.005284	0.157896
H180	H	0.011237	1.046219	0.117642
H181	H	0.102433	0.901635	0.233147
C182	C	0.146387	1.039678	0.243938
C183	C	0.070042	1.089964	0.194494
H184	H	0.144321	1.091907	0.266518
H185	H	0.176048	1.039704	0.192210
H186	H	0.170577	0.953304	0.306641
H187	H	0.045856	1.176330	0.131785
H188	H	0.040376	1.089955	0.246213
O189	O	0.621102	0.410358	0.432690
C190	C	0.629903	0.315196	0.539836
H191	H	0.685438	0.273147	0.599450
H192	H	0.576768	0.361186	0.568276
C193	C	0.568065	0.257567	0.464713
C194	C	0.636278	0.205914	0.537930
H195	H	0.571994	0.190160	0.463538
H196	H	0.562133	0.321683	0.392526
H197	H	0.523793	0.295892	0.488421
H198	H	0.680547	0.167606	0.514214
H199	H	0.642218	0.141790	0.610114
O200	O	0.587574	1.005127	-0.638511
C201	C	0.623163	0.893227	-0.640800
H202	H	0.686681	0.855927	-0.641274
H203	H	0.621822	0.814880	-0.564467
C204	C	0.500031	0.973026	-0.745193
C205	C	0.578043	0.927220	-0.745784
H206	H	0.472198	0.993991	-0.809949
H207	H	0.476053	1.048413	-0.743648
H208	H	0.498925	0.907728	-0.681577
H209	H	0.579149	0.992522	-0.809392
H210	H	0.602021	0.851844	-0.747343
O211	O	0.117610	1.005360	-0.247228
C212	C	0.184098	1.005314	-0.234294
H213	H	0.178984	1.046232	-0.182820
H214	H	0.239340	0.901665	-0.190500
C215	C	0.195291	1.039744	-0.412076
C216	C	0.189006	1.090011	-0.348863
H217	H	0.198322	1.091983	-0.482747
H218	H	0.150498	1.039770	-0.420789
H219	H	0.241326	0.953371	-0.375569
H220	H	0.142967	1.176375	-0.385363
H221	H	0.233791	1.090001	-0.340158
H222	H	0.915795	0.592556	-0.174949
O223	O	1.036372	0.410453	-0.193020
C224	C	0.994933	0.354861	-0.146639
H225	H	1.000554	0.325983	-0.057303
H226	H	0.930307	0.428564	-0.196418
C227	C	1.022466	0.269051	-0.259133
C228	C	1.029376	0.233573	-0.149406
H229	H	1.043709	0.194238	-0.260844
H230	H	1.050383	0.306508	-0.290385
H231	H	0.968610	0.330472	-0.300603
H232	H	1.083232	0.172166	-0.107941
H233	H	1.001470	0.196102	-0.118147
H234	H	-0.009593	1.005335	-0.224756
O235	O	0.587431	0.764208	-0.207974
C236	C	0.536093	0.774668	-0.277656
H237	H	0.567426	0.681726	-0.276035
H238	H	0.482020	0.790034	-0.247426
C239	C	0.472250	1.005038	-0.398788
C240	C	0.510736	0.890889	-0.396804
H241	H	0.456605	1.076732	-0.472284
H242	H	0.506835	0.997993	-0.351840
H243	H	0.427193	1.017825	-0.373591
H244	H	0.555797	0.878095	-0.421987
H245	H	0.476158	0.897935	-0.443759
H246	H	0.231100	1.679802	-0.017277
H247	H	1.186860	0.418071	0.018540
O248	O	0.587402	0.574639	-0.207733
C249	C	0.544855	0.524021	-0.153554
H250	H	0.582372	0.437245	-0.065427
H251	H	0.488848	0.602129	-0.151197
C252	C	0.477278	0.587014	-0.324839
C253	C	0.523360	0.480428	-0.216603
H254	H	0.464015	0.560129	-0.363732
H255	H	0.505941	0.621121	-0.361342
H256	H	0.430611	0.652095	-0.322860
H257	H	0.570030	0.415356	-0.218583
H258	H	0.494705	0.446308	-0.180102
H259	H	0.217379	1.592605	-0.123082
O260	O	0.286843	1.005247	0.142895
C261	C	0.330871	1.005275	0.213100
H262	H	0.393023	0.964368	0.204524
H263	H	0.301826	1.108916	0.189032
C264	C	0.257905	0.970806	0.344416
C265	C	0.334244	0.920552	0.333890
H266	H	0.259984	0.918551	0.418925
H267	H	0.228241	0.970792	0.297117
H268	H	0.233710	1.057173	0.324353
H269	H	0.358434	0.834194	0.353939
H270	H	0.363913	0.920550	0.381196
H271	H	0.807626	1.005339	-0.472891
H272	H	0.291994	1.005317	-0.172831
H273	H	0.776730	0.592500	0.461849
H274	H	1.065015	0.592537	0.226747
O275	O	1.066367	0.599868	0.036885
C276	C	1.146704	0.536817	0.082851
H277	H	1.182504	0.439371	0.091826
H278	H	1.166491	0.599879	0.026202
C279	C	1.115400	0.634076	0.186437
C280	C	1.159370	0.514386	0.197469
H281	H	1.123213	0.620244	0.257137
H282	H	1.061275	0.676559	0.155466
H283	H	1.131894	0.686615	0.139226
H284	H	1.142868	0.461856	0.244668
H285	H	1.213492	0.471893	0.228451
H286	H	1.173139	0.330884	-0.087276
