data_functionalizedCrystal
_audit_creation_method	'MofGen! by Chris Wilmer'
_symmetry_space_group_name_H-M	'P1'
_symmetry_Int_Tables_number	1
_symmetry_cell_setting	triclinic
loop_
_symmetry_equiv_pos_as_xyz
  x,y,z
_cell_length_a	10.723024
_cell_length_b	17.038272
_cell_length_c	9.198806
_cell_angle_alpha	89.996565
_cell_angle_beta	89.996352
_cell_angle_gamma	87.789713
loop_
_atom_site_label
_atom_site_type_symbol
_atom_site_fract_x
_atom_site_fract_y
_atom_site_fract_z
O1	O	1.667337	0.109720	-0.120885
O2	O	2.167337	0.609720	0.379115
O3	O	1.305156	0.120222	-0.120890
O4	O	1.805156	0.620222	0.379110
O5	O	1.484094	0.001144	-0.120876
O6	O	1.984094	0.501144	0.379124
O7	O	1.488399	0.228799	-0.120899
O8	O	1.988399	0.728799	0.379101
O9	O	1.484079	0.001144	0.120909
O10	O	1.984079	0.501144	0.620909
O11	O	1.305141	0.120222	0.120895
O12	O	1.805141	0.620222	0.620895
O13	O	1.667322	0.109720	0.120900
O14	O	2.167322	0.609720	0.620900
Cu15	Cu	1.486230	0.114971	0.142975
Cu16	Cu	1.986230	0.614971	0.642975
Cu17	Cu	1.486248	0.114971	-0.142964
Cu18	Cu	1.986248	0.614971	0.357036
O19	O	1.488384	0.228798	0.120886
O20	O	1.988384	0.728798	0.620886
C21	C	1.258578	0.119458	0.000002
C22	C	1.758578	0.619458	0.500002
C23	C	1.119813	0.117171	0.000000
C24	C	1.619813	0.617171	0.500000
C25	C	1.050993	0.183801	-0.000007
C26	C	1.550993	0.683801	0.499993
C27	C	0.907571	0.181440	-0.000009
C28	C	1.407571	0.681440	0.499991
C29	C	1.480171	-0.028006	0.000016
C30	C	1.980171	0.471994	0.500016
C31	C	1.468489	-0.114864	0.000016
C32	C	1.968489	0.385136	0.500016
C33	C	1.575744	-0.164385	0.000019
C34	C	2.075744	0.335615	0.500019
C35	C	1.564760	-0.245996	0.000005
C36	C	2.064760	0.254004	0.500005
C37	C	1.446520	-0.278084	-0.000002
C38	C	1.946520	0.221916	0.499998
C39	C	1.339256	-0.228557	-0.000009
C40	C	1.839256	0.271443	0.499991
C41	C	1.350241	-0.146947	-0.000006
C42	C	1.850241	0.353053	0.499994
C43	C	1.407711	-0.524057	-0.000022
C44	C	1.907711	-0.024057	0.499978
C45	C	1.396734	-0.605673	-0.000021
C46	C	1.896734	-0.105673	0.499979
C47	C	1.622239	-0.623107	-0.000010
C48	C	2.122239	-0.123107	0.499990
C49	C	1.633214	-0.541495	0.000002
C50	C	2.133214	-0.041495	0.500002
C51	C	1.525950	-0.491974	-0.000013
C52	C	2.025950	0.008026	0.499987
C53	C	1.435289	-0.361504	-0.000011
C54	C	1.935289	0.138496	0.499989
C55	C	1.537182	-0.408556	-0.000014
C56	C	2.037182	0.091444	0.499986
C57	C	1.713900	0.110484	0.000005
C58	C	2.213900	0.610484	0.500005
C59	C	1.852666	0.112771	-0.000003
C60	C	2.352666	0.612771	0.499997
C61	C	1.492307	0.257948	-0.000009
C62	C	1.992307	0.757948	0.499991
C63	C	1.503989	0.344806	-0.000018
C64	C	2.003989	0.844806	0.499982
N65	N	1.486226	0.114970	0.344089
N66	N	1.986226	0.614970	0.844089
N67	N	1.486261	0.114966	-0.344078
N68	N	1.986261	0.614966	0.155922
C69	C	1.561337	0.064752	0.416291
C70	C	2.061337	0.564752	0.916291
C71	C	1.561356	0.064749	0.583704
C72	C	2.061356	0.564749	1.083704
H73	H	1.098254	0.242594	-0.000005
H74	H	1.598254	0.742594	0.499995
H75	H	1.339017	-0.387640	-0.000014
H76	H	1.839017	0.112360	0.499986
H77	H	1.242982	-0.254689	-0.000024
H78	H	1.742982	0.245311	0.499976
C79	C	1.648232	0.006665	0.667567
C80	C	2.148232	0.506665	1.167567
H81	H	1.695348	-0.024837	0.600541
H82	H	2.195348	0.475163	1.100541
H83	H	1.599677	-0.026039	0.726961
H84	H	2.099677	0.473961	1.226961
H85	H	1.703289	0.035039	0.726926
H86	H	2.203289	0.535039	1.226926
H87	H	1.320369	-0.483747	-0.000034
H88	H	1.820369	0.016253	0.499966
C89	C	1.232261	-0.092474	-0.000005
C90	C	1.732261	0.407526	0.499995
H91	H	1.160267	-0.123271	0.000003
H92	H	1.660267	0.376729	0.500003
H93	H	1.231866	-0.060272	-0.084320
H94	H	1.731866	0.439728	0.415680
H95	H	1.231852	-0.060279	0.084322
H96	H	1.731852	0.439721	0.584322
C97	C	1.667241	-0.373265	-0.000003
C98	C	2.167241	0.126735	0.499997
H99	H	1.729553	-0.414444	-0.000007
H100	H	2.229553	0.085556	0.499993
H101	H	1.676196	-0.341792	0.084313
H102	H	2.176196	0.158208	0.584313
H103	H	1.676219	-0.341789	-0.084329
H104	H	2.176219	0.158211	0.415671
H105	H	1.421957	0.157965	0.593840
H106	H	1.921957	0.657965	1.093840
H107	H	1.421931	0.157959	0.406212
H108	H	1.921931	0.657959	0.906212
H109	H	0.848415	0.238480	-0.000021
H110	H	1.348415	0.738480	0.499979
H111	H	0.911814	0.055727	-0.000005
H112	H	1.411814	0.555727	0.499995
H113	H	1.625624	0.021757	0.354170
H114	H	2.125624	0.521757	0.854170
H115	H	1.072552	0.058378	-0.000031
H116	H	1.572552	0.558378	0.499969
H117	H	1.652100	-0.286314	0.000011
H118	H	2.152100	0.213686	0.500011
C119	C	1.705810	-0.129095	0.000026
C120	C	2.205810	0.370905	0.500026
H121	H	1.768113	-0.170279	0.000012
H122	H	2.268113	0.329721	0.500012
H123	H	1.714781	-0.097624	0.084342
H124	H	2.214781	0.402376	0.584342
H125	H	1.714787	-0.097619	-0.084300
H126	H	2.214787	0.402381	0.415700
H127	H	1.729498	-0.515375	0.000008
H128	H	2.229498	-0.015375	0.500008
H129	H	1.709567	-0.663435	-0.000001
H130	H	2.209567	-0.163435	0.499999
H131	H	1.300443	-0.631796	-0.000003
H132	H	1.800443	-0.131796	0.499997
