data_functionalizedCrystal
_audit_creation_method	'MofGen! by Chris Wilmer'
_symmetry_space_group_name_H-M	'P1'
_symmetry_Int_Tables_number	1
_symmetry_cell_setting	triclinic
loop_
_symmetry_equiv_pos_as_xyz
  x,y,z
_cell_length_a	15.995300
_cell_length_b	15.995350
_cell_length_c	14.472310
_cell_angle_alpha	90.001162
_cell_angle_beta	89.985388
_cell_angle_gamma	83.482091
loop_
_atom_site_label
_atom_site_type_symbol
_atom_site_fract_x
_atom_site_fract_y
_atom_site_fract_z
O1	O	1.111023	0.107720	-0.076870
O2	O	0.867242	0.121092	-0.076864
O3	O	0.995796	-0.007483	-0.076866
O4	O	0.982468	0.236295	-0.076868
O5	O	0.995763	-0.007475	0.076816
O6	O	0.867209	0.121099	0.076818
O7	O	1.110990	0.107728	0.076812
Cu8	Cu	0.989096	0.114414	0.090847
Cu9	Cu	0.989135	0.114405	-0.090899
O10	O	0.982435	0.236302	0.076814
C11	C	0.836030	0.120550	-0.000022
C12	C	0.743077	0.118915	-0.000020
C13	C	0.572894	0.115896	-0.000027
C14	C	0.525428	0.207443	-0.000026
C15	C	0.428741	0.205773	-0.000377
C16	C	0.405337	0.112924	-0.000033
C17	C	0.446489	0.067499	-0.087620
C18	C	0.543122	0.069816	-0.087691
C19	C	0.543364	0.068469	0.087080
C20	C	0.446419	0.068477	0.088229
C21	C	0.310642	0.111239	-0.000040
C22	C	0.667590	0.117577	-0.000027
C23	C	0.995229	-0.038674	-0.000027
C24	C	0.993577	-0.131624	-0.000032
C25	C	0.987644	-0.469370	-0.000029
C26	C	0.896090	-0.421920	-0.000371
C27	C	0.897743	-0.325230	-0.000025
C28	C	0.990587	-0.301810	-0.000031
C29	C	1.035726	-0.342892	0.087726
C30	C	1.033426	-0.439527	0.087800
C31	C	1.035355	-0.439894	-0.086966
C32	C	1.035333	-0.342949	-0.088126
C33	C	0.992255	-0.207113	-0.000029
C34	C	0.985979	-0.564068	-0.000025
C35	C	1.142202	0.108269	-0.000032
C36	C	1.235154	0.109904	-0.000040
C37	C	0.983003	0.267493	-0.000027
C38	C	0.984655	0.360443	-0.000028
N39	N	0.989075	0.114420	0.218678
N40	N	0.989163	0.114393	-0.218730
C41	C	0.989134	0.114402	0.592769
C42	C	0.920117	0.182969	0.553605
C43	C	0.920276	0.183219	0.446517
C44	C	0.989104	0.114411	0.407178
C45	C	1.076471	0.133477	0.446013
C46	C	1.076083	0.133964	0.553135
C47	C	0.971565	0.026565	0.553300
C48	C	0.969561	0.027152	0.446172
C49	C	0.989092	0.114414	0.302290
C50	C	0.989152	0.114400	0.697658
H51	H	0.561456	0.102547	-0.153412
O52	O	0.991684	-0.306780	-0.174126
H53	H	0.967678	-0.358113	-0.214338
O54	O	0.570487	0.108396	0.175050
H55	H	0.605321	0.162496	0.157664
O56	O	0.884426	0.007981	0.412571
H57	H	0.856145	0.060372	0.368276
O58	O	1.126076	-0.324194	0.092051
H59	H	1.156531	-0.353918	0.154659
H60	H	1.005436	-0.460431	-0.153481
O61	O	1.125022	-0.322623	-0.095151
H62	H	1.154728	-0.352598	-0.158036
O63	O	1.096594	0.218813	0.586226
H64	H	1.048624	0.268625	0.559730
H65	H	1.004347	-0.314501	0.153036
H66	H	0.859511	-0.440448	-0.063304
O67	O	0.391016	0.253056	0.082767
H68	H	0.321764	0.251908	0.082600
O69	O	1.031837	-0.043599	0.410723
H70	H	1.028670	-0.045636	0.334155
H71	H	1.021896	-0.024460	0.578625
O72	O	1.124768	-0.481983	-0.087768
H73	H	1.135217	-0.523698	-0.026585
H74	H	0.431080	0.000784	0.093777
H75	H	0.432390	-0.000724	-0.090631
H76	H	0.909240	0.008228	0.580369
O77	O	0.585463	-0.020936	0.088210
H78	H	0.623293	-0.031689	0.152272
H79	H	0.855335	0.171862	0.420262
H80	H	0.854965	0.171799	0.579394
H81	H	0.931181	0.247784	0.580514
O82	O	0.935142	0.269556	0.412546
H83	H	0.942254	0.311290	0.472631
O84	O	1.146158	0.070337	0.587462
H85	H	1.180176	0.039361	0.527547
O86	O	0.551408	0.255458	-0.083096
H87	H	0.495251	0.275345	-0.126165
H88	H	0.543906	0.244237	0.062773
H89	H	0.861993	-0.297356	0.062992
H90	H	0.862259	-0.296804	-0.062933
H91	H	0.575396	0.002591	-0.091433
O92	O	1.146135	0.069090	0.412262
H93	H	1.119163	0.022710	0.367339
O94	O	1.097468	0.217367	0.410480
H95	H	1.100236	0.215810	0.333857
O96	O	0.391898	0.252868	-0.084026
H97	H	0.359163	0.209790	-0.127780
O98	O	0.408943	0.108759	-0.174293
H99	H	0.459380	0.133081	-0.215680
O100	O	0.410204	0.112419	0.174069
H101	H	0.363135	0.165688	0.153966
O102	O	0.989781	-0.463767	0.174691
H103	H	0.970510	-0.406494	0.216260
H104	H	0.859646	-0.441504	0.062212
O105	O	1.122456	-0.482270	0.093091
H106	H	1.166960	-0.433890	0.095593
