data_functionalizedCrystal
_audit_creation_method	'MofGen! by Chris Wilmer'
_symmetry_space_group_name_H-M	'P1'
_symmetry_Int_Tables_number	1
_symmetry_cell_setting	triclinic
loop_
_symmetry_equiv_pos_as_xyz
  x,y,z
_cell_length_a	16.120847
_cell_length_b	17.077404
_cell_length_c	17.077384
_cell_angle_alpha	90.060362
_cell_angle_beta	87.023848
_cell_angle_gamma	87.099973
loop_
_atom_site_label
_atom_site_type_symbol
_atom_site_fract_x
_atom_site_fract_y
_atom_site_fract_z
Zn1	Zn	0.331433	1.184652	0.428061
Zn2	Zn	0.664766	1.517985	0.761394
Zn3	Zn	0.998099	1.851318	1.094727
Zn4	Zn	0.471008	1.177845	0.290148
Zn5	Zn	0.804341	1.511178	0.623481
Zn6	Zn	1.137675	1.844512	0.956814
Zn7	Zn	0.331606	1.053281	0.296800
Zn8	Zn	0.664939	1.386615	0.630133
Zn9	Zn	0.998273	1.719948	0.963467
Zn10	Zn	0.470815	1.046740	0.421381
Zn11	Zn	0.804148	1.380074	0.754714
Zn12	Zn	1.137481	1.713407	1.088047
O13	O	0.401215	1.115630	0.359097
O14	O	0.734549	1.448963	0.692431
O15	O	1.067882	1.782296	1.025764
O16	O	0.349956	1.293595	0.409778
O17	O	0.683289	1.626928	0.743111
O18	O	1.016623	1.960262	1.076444
O19	O	0.452670	1.161210	0.181176
O20	O	0.786003	1.494543	0.514509
O21	O	1.119336	1.827877	0.847842
O22	O	0.214911	1.076294	0.319792
O23	O	0.548244	1.409627	0.653125
O24	O	0.881578	1.742961	0.986458
O25	O	0.452502	1.288594	0.308454
O26	O	0.785835	1.621928	0.641787
O27	O	1.119168	1.955261	0.975120
O28	O	0.214784	1.172811	0.416228
O29	O	0.548117	1.506144	0.749562
O30	O	0.881450	1.839478	1.082895
O31	O	0.350252	1.069694	0.186063
O32	O	0.683585	1.403027	0.519396
O33	O	1.016918	1.736361	0.852730
O34	O	0.350064	0.942567	0.313314
O35	O	0.683397	1.275901	0.646648
O36	O	1.016731	1.609234	0.979981
O37	O	0.452172	1.065146	0.532121
O38	O	0.785505	1.398479	0.865455
O39	O	1.118838	1.731812	1.198788
O40	O	0.452340	0.937762	0.404843
O41	O	0.785673	1.271095	0.738177
O42	O	1.119006	1.604428	1.071510
O43	O	0.349768	1.166468	0.537029
O44	O	0.683102	1.499802	0.870362
O45	O	1.016435	1.833135	1.203696
O46	O	0.587655	1.154868	0.301976
O47	O	0.920988	1.488201	0.635310
O48	O	1.254321	1.821534	0.968643
O49	O	0.587512	1.058546	0.398393
O50	O	0.920846	1.391879	0.731726
O51	O	1.254179	1.725212	1.065059
C52	C	0.401200	0.911682	0.359076
C53	C	0.734534	1.245016	0.692410
C54	C	1.067867	1.578349	1.025743
C55	C	0.401214	0.824432	0.359085
C56	C	0.734547	1.157765	0.692418
C57	C	1.067881	1.491099	1.025752
C58	C	0.183750	1.126041	0.369497
C59	C	0.517083	1.459375	0.702830
C60	C	0.850416	1.792708	1.036164
C61	C	0.091079	1.130478	0.373929
C62	C	0.424412	1.463812	0.707262
C63	C	0.757745	1.797145	1.040596
C64	C	0.454549	0.780956	0.406660
C65	C	0.787883	1.114289	0.739993
C66	C	1.121216	1.447623	1.073326
C67	C	0.454551	0.698976	0.406672
C68	C	0.787885	1.032309	0.740006
C69	C	1.121218	1.365642	1.073339
C70	C	0.401221	0.660472	0.359105
C71	C	0.734554	0.993806	0.692439
C72	C	1.067888	1.327139	1.025772
C73	C	0.347880	0.703954	0.311529
C74	C	0.681213	1.037287	0.644862
C75	C	1.014546	1.370621	0.978195
C76	C	0.347874	0.785933	0.311521
C77	C	0.681208	1.119267	0.644854
C78	C	1.014541	1.452600	0.978187
C79	C	0.347896	0.533083	0.311547
C80	C	0.681229	0.866417	0.644880
C81	C	1.014563	1.199750	0.978213
C82	C	0.347902	0.451098	0.311553
C83	C	0.681236	0.784432	0.644886
C84	C	1.014569	1.117765	0.978220
C85	C	0.454573	0.446126	0.406698
C86	C	0.787906	0.779459	0.740031
C87	C	1.121240	1.112792	1.073365
C88	C	0.454568	0.528105	0.406690
C89	C	0.787901	0.861438	0.740024
C90	C	1.121234	1.194772	1.073357
C91	C	0.401227	0.571581	0.359112
C92	C	0.734560	0.904914	0.692446
C93	C	1.067894	1.238248	1.025779
C94	C	-0.078592	1.138593	0.382018
C95	C	0.254741	1.471926	0.715351
C96	C	0.588075	1.805260	1.048685
C97	C	-0.119829	1.092811	0.336270
C98	C	0.213505	1.426145	0.669603
C99	C	0.546838	1.759478	1.002937
C100	C	-0.214239	1.097326	0.340771
C101	C	0.119094	1.430660	0.674104
C102	C	0.452427	1.763993	1.007437
C103	C	0.015827	1.134079	0.377518
C104	C	0.349160	1.467412	0.710852
C105	C	0.682494	1.800746	1.044185
C106	C	0.617835	1.105280	0.348755
C107	C	0.951168	1.438613	0.682088
C108	C	1.284502	1.771946	1.015422
C109	C	0.710506	1.100924	0.344357
C110	C	1.043839	1.434257	0.677690
C111	C	1.377173	1.767590	1.011023
C112	C	0.401440	1.115471	0.155138
C113	C	0.734774	1.448805	0.488472
C114	C	1.068107	1.782138	0.821805
C115	C	0.401328	1.115546	0.067894
C116	C	0.734661	1.448880	0.401227
C117	C	1.067994	1.782213	0.734561
C118	C	0.401231	1.320373	0.359119
C119	C	0.734564	1.653706	0.692452
C120	C	1.067898	1.987040	1.025785
C121	C	0.401238	1.407623	0.359128
C122	C	0.734571	1.740956	0.692461
C123	C	1.067904	2.074289	1.025795
C124	C	0.348343	1.067553	0.029469
C125	C	0.681676	1.400886	0.362803
C126	C	1.015010	1.734220	0.696136
C127	C	0.348237	1.067631	-0.052506
C128	C	0.681570	1.400964	0.280828
C129	C	1.014903	1.734297	0.614161
C130	C	0.401119	1.115697	-0.096055
C131	C	0.734453	1.449031	0.237278
C132	C	1.067786	1.782364	0.570612
C133	C	0.454106	1.163696	-0.057625
C134	C	0.787439	1.497029	0.275709
C135	C	1.120773	1.830363	0.609042
C136	C	0.454208	1.163622	0.024349
C137	C	0.787541	1.496955	0.357683
C138	C	1.120874	1.830289	0.691016
C139	C	0.453892	1.163845	-0.228484
C140	C	0.787225	1.497178	0.104849
C141	C	1.120558	1.830512	0.438183
C142	C	0.453791	1.163918	-0.310464
C143	C	0.787125	1.497251	0.022870
C144	C	1.120458	1.830585	0.356203
C145	C	0.347921	1.067854	-0.305339
C146	C	0.681254	1.401187	0.027994
C147	C	1.014587	1.734520	0.361328
C148	C	0.348022	1.067780	-0.223365
C149	C	0.681356	1.401113	0.109968
C150	C	1.014689	1.734446	0.443301
C151	C	0.401010	1.115777	-0.184941
C152	C	0.734344	1.449111	0.148393
C153	C	1.067677	1.782444	0.481726
C154	C	0.400929	1.115837	0.563856
C155	C	0.734262	1.449170	0.897189
C156	C	1.067596	1.782503	1.230522
C157	C	0.400807	1.115925	0.651112
C158	C	0.734140	1.449258	0.984445
C159	C	1.067474	1.782592	1.317778
H160	H	0.497980	0.812299	0.445392
H161	H	0.831313	1.145633	0.778725
H162	H	1.164647	1.478966	1.112058
F163	F	0.291547	1.016751	-0.346235
F164	F	0.624880	1.350084	-0.012902
F165	F	0.958214	1.683417	0.320432
H166	H	-0.114189	1.181176	0.424561
H167	H	0.219144	1.514510	0.757894
H168	H	0.552478	1.847843	1.091228
F169	F	0.291123	0.579352	0.260910
F170	F	0.624457	0.912685	0.594243
F171	F	0.957790	1.246019	0.927576
H172	H	0.305092	1.028549	-0.083787
H173	H	0.638426	1.361882	0.249546
H174	H	0.971759	1.695215	0.582879
F175	F	0.292058	1.016392	0.075811
F176	F	0.625391	1.349726	0.409144
F177	F	0.958724	1.683059	0.742477
H178	H	0.497037	1.202933	-0.197201
H179	H	0.830370	1.536267	0.136132
H180	H	1.163704	1.869600	0.469465
F181	F	0.291759	1.016602	-0.177019
F182	F	0.625093	1.349935	0.156314
F183	F	0.958426	1.683268	0.489647
H184	H	0.497352	1.202704	0.055633
H185	H	0.830685	1.536038	0.388967
H186	H	1.164018	1.869371	0.722300
H187	H	0.498002	0.410723	0.445440
H188	H	0.831336	0.744057	0.778774
H189	H	1.164669	1.077390	1.112107
F190	F	0.291116	0.662974	0.260909
F191	F	0.624449	0.996307	0.594242
F192	F	0.957783	1.329641	0.927576
H193	H	0.497983	0.663581	0.445412
H194	H	0.831317	0.996914	0.778745
H195	H	1.164650	1.330248	1.112078
F196	F	0.510076	1.215075	-0.356811
F197	F	0.843409	1.548408	-0.023477
F198	F	1.176743	1.881742	0.309856
H199	H	0.497160	1.202836	-0.093089
H200	H	0.830494	1.536170	0.240244
H201	H	1.163827	1.869503	0.573578
F202	F	0.291106	0.832203	0.260887
F203	F	0.624439	1.165537	0.594220
F204	F	0.957772	1.498870	0.927554
F205	F	0.511333	0.569081	0.457311
F206	F	0.844666	0.902414	0.790644
F207	F	1.178000	1.235748	1.123978
H208	H	-0.084228	1.050224	0.293725
H209	H	0.249106	1.383558	0.627058
H210	H	0.582439	1.716891	0.960392
F211	F	0.291146	0.410122	0.260924
F212	F	0.624479	0.743455	0.594257
F213	F	0.957812	1.076788	0.927590
