data_functionalizedCrystal
_audit_creation_method	'MofGen! by Chris Wilmer'
_symmetry_space_group_name_H-M	'P1'
_symmetry_Int_Tables_number	1
_symmetry_cell_setting	triclinic
loop_
_symmetry_equiv_pos_as_xyz
  x,y,z
_cell_length_a	23.532407
_cell_length_b	23.532407
_cell_length_c	17.666332
_cell_angle_alpha	89.993322
_cell_angle_beta	89.988854
_cell_angle_gamma	82.848712
loop_
_atom_site_label
_atom_site_type_symbol
_atom_site_fract_x
_atom_site_fract_y
_atom_site_fract_z
O1	O	0.069136	0.755263	-0.062908
O2	O	0.569136	1.255263	0.437092
O3	O	0.079139	0.589400	-0.062921
O4	O	0.579139	1.089400	0.437079
O5	O	-0.008794	0.677333	-0.062900
O6	O	0.491206	1.177333	0.437100
O7	O	0.157069	0.667330	-0.062929
O8	O	0.657069	1.167330	0.437071
O9	O	-0.008799	0.677318	0.062996
O10	O	0.491201	1.177318	0.562996
O11	O	0.079135	0.589385	0.062976
O12	O	0.579135	1.089385	0.562976
O13	O	0.069132	0.755248	0.062989
O14	O	0.569132	1.255248	0.562989
Cu15	Cu	0.074133	0.672315	0.074477
Cu16	Cu	0.574133	1.172315	0.574477
Cu17	Cu	0.074138	0.672333	-0.074410
Cu18	Cu	0.574138	1.172333	0.425590
O19	O	0.157065	0.667315	0.062968
O20	O	0.657065	1.167315	0.562968
C21	C	0.078882	0.568176	0.000026
C22	C	0.578882	1.068176	0.500026
C23	C	0.078116	0.504959	0.000021
C24	C	0.578116	1.004959	0.500021
C25	C	-0.030012	0.677071	0.000050
C26	C	0.469988	1.177071	0.500050
C27	C	-0.093229	0.676305	0.000056
C28	C	0.406771	1.176305	0.500056
C29	C	0.022921	0.238792	0.000051
C30	C	0.522921	0.738792	0.500051
C31	C	0.023632	0.298192	0.000051
C32	C	0.523632	0.798192	0.500051
O33	O	-0.020153	0.334937	0.000085
O34	O	0.479847	0.834937	0.500085
N35	N	0.075909	0.320818	0.000037
N36	N	0.575909	0.820818	0.500037
C37	C	0.127477	0.284041	0.000031
C38	C	0.627477	0.784041	0.500031
O39	O	0.172007	0.308740	0.000019
O40	O	0.672007	0.808740	0.500019
C41	C	0.126765	0.224642	0.000037
C42	C	0.626765	0.724642	0.500037
C43	C	0.074485	0.202019	0.000043
C44	C	0.574485	0.702019	0.500043
C45	C	-0.029354	0.216168	0.000059
C46	C	0.470646	0.716168	0.500059
C47	C	-0.030066	0.156772	0.000058
C48	C	0.469934	0.656772	0.500058
C49	C	0.021499	0.119999	0.000049
C50	C	0.521499	0.619999	0.500049
C51	C	0.073774	0.142623	0.000042
C52	C	0.573774	0.642623	0.500042
C53	C	0.178333	0.187865	0.000036
C54	C	0.678333	0.687865	0.500036
C55	C	0.177616	0.128463	0.000042
C56	C	0.677616	0.628463	0.500042
C57	C	0.125336	0.105840	0.000049
C58	C	0.625336	0.605840	0.500049
C59	C	0.124627	0.046454	0.000032
C60	C	0.624627	0.546454	0.500032
N61	N	0.072351	0.023828	0.000047
N62	N	0.572351	0.523828	0.500047
C63	C	0.020787	0.060600	0.000055
C64	C	0.520787	0.560600	0.500055
C65	C	0.128968	0.408783	0.000020
C66	C	0.628968	0.908783	0.500020
C67	C	0.129681	0.468181	0.000009
C68	C	0.629681	0.968181	0.500009
C69	C	0.025836	0.482328	0.000031
C70	C	0.525836	0.982328	0.500031
C71	C	0.025124	0.422929	0.000036
C72	C	0.525124	0.922929	0.500036
C73	C	0.076692	0.386157	0.000034
C74	C	0.576692	0.886157	0.500034
C75	C	0.019297	-0.064136	0.000052
C76	C	0.519297	0.435864	0.500052
C77	C	0.018590	-0.123538	0.000048
C78	C	0.518590	0.376462	0.500048
C79	C	0.122435	-0.137680	0.000030
C80	C	0.622435	0.362320	0.500030
C81	C	0.123142	-0.078284	0.000030
C82	C	0.623142	0.421716	0.500030
C83	C	0.071568	-0.041512	0.000044
C84	C	0.571568	0.458488	0.500044
O85	O	0.168390	0.009675	0.000002
O86	O	0.668390	0.509675	0.500002
O87	O	-0.023737	0.035892	0.000076
O88	O	0.476263	0.535892	0.500076
C89	C	-0.492332	0.723538	0.000018
C90	C	0.007668	1.223538	0.500018
C91	C	-0.551733	0.722827	0.000012
C92	C	-0.051733	1.222827	0.500012
O93	O	-0.588477	0.766613	-0.000012
O94	O	-0.088477	1.266613	0.499988
N95	N	-0.574359	0.670551	0.000008
N96	N	-0.074359	1.170551	0.500008
C97	C	-0.537581	0.618982	0.000003
C98	C	-0.037581	1.118982	0.500003
O99	O	-0.562281	0.574452	-0.000001
O100	O	-0.062281	1.074452	0.499999
C101	C	-0.478182	0.619695	0.000003
C102	C	0.021818	1.119695	0.500003
C103	C	-0.455559	0.671974	0.000015
C104	C	0.044441	1.171974	0.500015
C105	C	-0.469709	0.775814	0.000028
C106	C	0.030291	1.275814	0.500028
C107	C	-0.410313	0.776525	0.000035
C108	C	0.089687	1.276525	0.500035
C109	C	-0.373540	0.724961	0.000032
C110	C	0.126460	1.224961	0.500032
C111	C	-0.396163	0.672685	0.000022
C112	C	0.103837	1.172685	0.500022
C113	C	-0.441406	0.568127	-0.000007
C114	C	0.058594	1.068127	0.499993
C115	C	-0.382003	0.568843	-0.000008
C116	C	0.117997	1.068843	0.499992
C117	C	-0.359381	0.621123	0.000004
C118	C	0.140619	1.121123	0.500004
C119	C	-0.299994	0.621832	0.000026
C120	C	0.200006	1.121832	0.500026
N121	N	-0.277368	0.674109	0.000029
N122	N	0.222632	1.174109	0.500029
C123	C	-0.314141	0.725673	0.000033
C124	C	0.185859	1.225673	0.500033
C125	C	-0.662324	0.617491	0.000001
C126	C	-0.162324	1.117491	0.500001
C127	C	-0.721722	0.616778	0.000006
C128	C	-0.221722	1.116778	0.500006
C129	C	-0.735869	0.720623	0.000014
C130	C	-0.235869	1.220623	0.500014
C131	C	-0.676470	0.721335	0.000014
C132	C	-0.176470	1.221335	0.500014
C133	C	-0.639698	0.669767	0.000004
C134	C	-0.139698	1.169767	0.500004
C135	C	-0.189404	0.727163	0.000048
C136	C	0.310596	1.227163	0.500048
C137	C	-0.130002	0.727869	0.000059
C138	C	0.369998	1.227869	0.500059
C139	C	-0.115860	0.624025	0.000047
C140	C	0.384140	1.124025	0.500047
C141	C	-0.175257	0.623318	0.000041
C142	C	0.324743	1.123318	0.500041
C143	C	-0.212028	0.674891	0.000039
C144	C	0.287972	1.174891	0.500039
O145	O	-0.263215	0.578069	0.000047
O146	O	0.236785	1.078069	0.500047
O147	O	-0.289433	0.770196	0.000027
O148	O	0.210567	1.270196	0.500027
C149	C	0.178283	0.667577	0.000016
C150	C	0.678283	1.167577	0.500016
C151	C	0.241500	0.668343	0.000005
C152	C	0.741500	1.168343	0.500005
C153	C	0.069389	0.776472	0.000040
C154	C	0.569389	1.276472	0.500040
C155	C	0.070155	0.839689	0.000039
C156	C	0.570155	1.339689	0.500039
N157	N	0.074129	0.672306	0.179197
N158	N	0.574129	1.172306	0.679197
N159	N	0.074138	0.672346	-0.179130
N160	N	0.574138	1.172346	0.320870
C161	C	0.035211	0.711256	0.218816
C162	C	0.535211	1.211256	0.718816
C163	C	0.035208	0.711259	0.298063
C164	C	0.535208	1.211259	0.798063
C165	C	0.074133	0.672318	0.337689
C166	C	0.574133	1.172318	0.837689
C167	C	0.113054	0.633362	0.298061
C168	C	0.613054	1.133362	0.798061
C169	C	0.113052	0.633356	0.218814
C170	C	0.613052	1.133356	0.718814
N171	N	0.124568	0.664784	0.462099
N172	N	0.624568	1.164784	0.962099
N173	N	0.124568	0.664793	0.537379
N174	N	0.624568	1.164793	1.037379
C175	C	0.074141	0.672333	0.576453
C176	C	0.574141	1.172333	1.076453
N177	N	0.023712	0.679876	0.537403
N178	N	0.523712	1.179876	1.037403
N179	N	0.023712	0.679869	0.462115
N180	N	0.523712	1.179869	0.962115
C181	C	0.074139	0.672320	0.423618
C182	C	0.574139	1.172320	0.923618
C183	C	0.035217	0.711288	0.702001
C184	C	0.535217	1.211288	1.202001
C185	C	0.035213	0.711288	0.781250
C186	C	0.535213	1.211288	1.281250
C187	C	0.113064	0.633393	0.781246
C188	C	0.613064	1.133393	1.281246
C189	C	0.113063	0.633391	0.701998
C190	C	0.613063	1.133391	1.201998
C191	C	0.074139	0.672342	0.662381
C192	C	0.574139	1.172342	1.162381
H193	H	-0.023984	-0.141954	0.000051
H194	H	0.476016	0.358046	0.500051
H195	H	-0.017447	0.404515	0.000042
H196	H	0.482553	0.904515	0.500042
H197	H	-0.459814	0.525555	-0.000021
H198	H	0.040186	1.025555	0.499979
H199	H	0.144755	0.601677	0.669738
H200	H	0.644755	1.101677	1.169738
H201	H	0.219610	0.098525	0.000044
H202	H	0.719610	0.598525	0.500044
C203	C	-0.036758	-0.024314	0.000021
C204	C	0.463242	0.475686	0.500021
C205	C	-0.082685	-0.056850	0.000005
C206	C	0.417315	0.443150	0.500005
C207	C	-0.134330	-0.020186	-0.000041
C208	C	0.365670	0.479814	0.499959
H209	H	-0.038730	-0.000836	0.043910
H210	H	0.461270	0.499164	0.543910
H211	H	-0.038669	-0.000854	-0.043902
H212	H	0.461331	0.499146	0.456098
H213	H	-0.080775	-0.080300	0.043922
H214	H	0.419225	0.419700	0.543922
H215	H	-0.080732	-0.080327	-0.043882
H216	H	0.419268	0.419673	0.456118
H217	H	-0.136241	0.003273	-0.043964
H218	H	0.363759	0.503273	0.456036
H219	H	-0.136296	0.003290	0.043849
H220	H	0.363704	0.503290	0.543849
H221	H	-0.165497	-0.042256	-0.000059
H222	H	0.334503	0.457744	0.499941
H223	H	-0.219337	0.769159	0.000044
H224	H	0.280663	1.269159	0.500044
C225	C	-0.086886	0.132326	0.000115
C226	C	0.413114	0.632326	0.500115
C227	C	-0.131885	0.177253	0.000146
C228	C	0.368115	0.677253	0.500146
C229	C	-0.184239	0.154760	0.000213
C230	C	0.315761	0.654760	0.500213
H231	H	-0.089411	0.109460	-0.043772
H232	H	0.410589	0.609460	0.456228
H233	H	-0.089355	0.109466	0.044040
H234	H	0.410645	0.609466	0.544040
H235	H	-0.129418	0.200104	-0.043775
H236	H	0.370582	0.700104	0.456225
H237	H	-0.129379	0.200124	0.044029
H238	H	0.370621	0.700124	0.544029
H239	H	-0.186707	0.131900	0.044138
H240	H	0.313293	0.631900	0.544138
H241	H	-0.186758	0.131894	-0.043674
H242	H	0.313242	0.631894	0.456326
H243	H	-0.214777	0.185239	0.000241
H244	H	0.285223	0.685239	0.500241
H245	H	-0.632386	0.575496	-0.000000
H246	H	-0.132386	1.075496	0.500000
H247	H	0.003515	0.742977	0.330327
H248	H	0.503515	1.242977	0.830327
C249	C	0.155291	0.591147	0.341216
C250	C	0.655291	1.091147	0.841216
C251	C	0.146974	0.599500	0.419097
C252	C	0.646974	1.099500	0.919097
C253	C	0.185877	0.560624	0.458873
C254	C	0.685877	1.060624	0.958873
H255	H	0.149335	0.553148	0.328335
H256	H	0.649335	1.053148	0.828335
H257	H	0.193282	0.597118	0.328256
H258	H	0.693282	1.097118	0.828256
H259	H	0.108993	0.593524	0.432051
H260	H	0.608993	1.093524	0.932051
H261	H	0.152935	0.637490	0.432000
H262	H	0.652935	1.137490	0.932000
H263	H	0.223868	0.566595	0.445914
H264	H	0.723868	1.066595	0.945914
H265	H	0.179918	0.522628	0.445987
H266	H	0.679918	1.022628	0.945987
H267	H	0.180243	0.566289	0.511720
H268	H	0.680243	1.066289	1.011720
H269	H	0.164417	-0.167631	0.000019
H270	H	0.664417	0.332369	0.500019
C271	C	0.184943	0.368833	0.000159
C272	C	0.684943	0.868833	0.500159
C273	C	0.187583	0.334323	0.064939
C274	C	0.687583	0.834323	0.564939
C275	C	0.239140	0.297523	0.065098
C276	C	0.739140	0.797523	0.565098
H277	H	0.186880	0.345316	-0.043693
H278	H	0.686880	0.845316	0.456307
H279	H	0.216192	0.390799	0.000188
H280	H	0.716192	0.890799	0.500188
H281	H	0.156342	0.312359	0.064903
H282	H	0.656342	0.812359	0.564903
H283	H	0.185655	0.357824	0.108801
H284	H	0.685655	0.857824	0.608801
H285	H	0.270389	0.319490	0.065128
H286	H	0.770389	0.819490	0.565128
H287	H	0.241073	0.274010	0.021244
H288	H	0.741073	0.774010	0.521244
H289	H	0.240940	0.274108	0.109054
H290	H	0.740940	0.774108	0.609054
H291	H	-0.391900	0.819097	0.000041
H292	H	0.108100	1.319097	0.500041
C293	C	-0.775733	0.776653	-0.000109
C294	C	-0.275733	1.276653	0.499891
C295	C	-0.765534	0.808163	-0.064869
C296	C	-0.265534	1.308163	0.435131
C297	C	-0.802241	0.859781	-0.065002
C298	C	-0.302241	1.359781	0.434998
H299	H	-0.814368	0.768820	-0.000153
H300	H	-0.314368	1.268820	0.499847
H301	H	-0.768909	0.798133	0.043772
H302	H	-0.268909	1.298133	0.543772
H303	H	-0.772363	0.786688	-0.108739
H304	H	-0.272363	1.286688	0.391261
H305	H	-0.726906	0.816012	-0.064839
H306	H	-0.226906	1.316012	0.435161
H307	H	-0.795416	0.881260	-0.021121
H308	H	-0.295416	1.381260	0.478879
H309	H	-0.840873	0.851942	-0.065044
H310	H	-0.340873	1.351942	0.434956
H311	H	-0.795322	0.881169	-0.108937
H312	H	-0.295322	1.381169	0.391063
H313	H	0.003521	0.743003	0.669743
H314	H	0.503521	1.243003	1.169743
C315	C	0.235154	0.212306	0.000074
C316	C	0.735154	0.712306	0.500074
C317	C	0.280151	0.167377	0.000094
C318	C	0.780151	0.667377	0.500094
C319	C	0.332506	0.189868	0.000143
C320	C	0.832506	0.689868	0.500143
H321	H	0.237683	0.235177	-0.043816
H322	H	0.737683	0.735177	0.456184
H323	H	0.237619	0.235161	0.043996
H324	H	0.737619	0.735161	0.543996
H325	H	0.277687	0.144531	-0.043823
H326	H	0.777687	0.644531	0.456177
H327	H	0.277640	0.144502	0.043981
H328	H	0.777640	0.644502	0.543981
H329	H	0.334971	0.212724	0.044064
H330	H	0.834971	0.712724	0.544064
H331	H	0.335030	0.212739	-0.043748
H332	H	0.835030	0.712739	0.456252
H333	H	0.363043	0.159388	0.000163
H334	H	0.863043	0.659388	0.500163
C335	C	-0.030168	0.522233	-0.000109
C336	C	0.469832	1.022233	0.499891
C337	C	-0.061663	0.512073	-0.064881
C338	C	0.438337	1.012073	0.435119
C339	C	-0.113250	0.548827	-0.065041
C340	C	0.386750	1.048827	0.434959
H341	H	-0.051687	0.515438	0.043748
H342	H	0.448313	1.015438	0.543748
H343	H	-0.022277	0.560856	-0.000152
H344	H	0.477723	1.060856	0.499848
H345	H	-0.069555	0.473458	-0.064832
H346	H	0.430445	0.973458	0.435168
H347	H	-0.040161	0.518871	-0.108749
H348	H	0.459839	1.018871	0.391251
H349	H	-0.105359	0.587451	-0.065083
H350	H	0.394641	1.087451	0.434917
H351	H	-0.134763	0.542029	-0.021181
H352	H	0.365237	1.042029	0.478819
H353	H	-0.134623	0.541942	-0.108991
H354	H	0.365377	1.041942	0.391009
C355	C	-0.342174	0.512792	0.000021
C356	C	0.157826	1.012792	0.500021
C357	C	-0.374705	0.466861	0.000029
C358	C	0.125295	0.966861	0.500029
C359	C	-0.338036	0.415219	0.000067
C360	C	0.161964	0.915219	0.500067
H361	H	-0.318687	0.510836	-0.043868
H362	H	0.181313	1.010836	0.456132
H363	H	-0.318724	0.510870	0.043943
H364	H	0.181276	1.010870	0.543943
H365	H	-0.398146	0.468782	-0.043889
H366	H	0.101854	0.968782	0.456111
H367	H	-0.398191	0.468798	0.043915
H368	H	0.101809	0.968798	0.543915
H369	H	-0.314586	0.413297	0.043989
H370	H	0.185414	0.913297	0.543989
H371	H	-0.314551	0.413269	-0.043823
H372	H	0.185449	0.913269	0.456177
H373	H	-0.360103	0.384049	0.000079
H374	H	0.139897	0.884049	0.500079
H375	H	0.144744	0.601638	0.186556
H376	H	0.644744	1.101638	0.686556
C377	C	-0.746169	0.559958	-0.000036
C378	C	-0.246169	1.059958	0.499964
C379	C	-0.701244	0.514957	-0.000056
C380	C	-0.201244	1.014957	0.499944
C381	C	-0.723740	0.462605	-0.000110
C382	C	-0.223740	0.962605	0.499890
H383	H	-0.769045	0.557432	0.043852
H384	H	-0.269045	1.057432	0.543852
H385	H	-0.769020	0.557494	-0.043960
H386	H	-0.269020	1.057494	0.456040
H387	H	-0.678402	0.517420	0.043864
H388	H	-0.178402	1.017420	0.543864
H389	H	-0.678364	0.517464	-0.043940
H390	H	-0.178364	1.017464	0.456060
H391	H	-0.746591	0.460141	-0.044033
H392	H	-0.246591	0.960141	0.455967
H393	H	-0.746616	0.460085	0.043779
H394	H	-0.246616	0.960085	0.543779
H395	H	-0.693262	0.432065	-0.000130
H396	H	-0.193262	0.932065	0.499870
C397	C	0.155261	0.591022	0.824217
C398	C	0.655261	1.091022	1.324217
C399	C	0.146298	0.535112	0.804972
C400	C	0.646298	1.035112	1.304972
C401	C	0.185154	0.496062	0.844553
C402	C	0.685154	0.996062	1.344553
H403	H	0.193266	0.596911	0.811249
H404	H	0.693266	1.096911	1.311249
H405	H	0.149687	0.596563	0.877096
H406	H	0.649687	1.096563	1.377096
H407	H	0.151877	0.529573	0.752105
H408	H	0.651877	1.029573	1.252105
H409	H	0.108301	0.529205	0.817942
H410	H	0.608301	1.029205	1.317942
H411	H	0.179579	0.501603	0.897431
H412	H	0.679579	1.001603	1.397431
H413	H	0.223155	0.501956	0.831582
H414	H	0.723155	1.001956	1.331582
H415	H	0.179074	0.458123	0.831506
H416	H	0.679074	0.958123	1.331506
H417	H	0.165712	-0.059864	0.000024
H418	H	0.665712	0.440136	0.500024
C419	C	-0.105552	0.784692	0.000029
C420	C	0.394448	1.284692	0.500029
C421	C	-0.150475	0.829695	0.000007
C422	C	0.349525	1.329695	0.500007
C423	C	-0.127976	0.882046	-0.000033
C424	C	0.372024	1.382046	0.499967
H425	H	-0.082692	0.787207	0.043922
H426	H	0.417308	1.287207	0.543922
H427	H	-0.082683	0.787165	-0.043890
H428	H	0.417317	1.287165	0.456110
H429	H	-0.173334	0.827224	0.043921
H430	H	0.326666	1.327224	0.543921
H431	H	-0.173338	0.827199	-0.043883
H432	H	0.326662	1.327199	0.456117
H433	H	-0.105107	0.884519	-0.043951
H434	H	0.394893	1.384519	0.456049
H435	H	-0.105116	0.884555	0.043861
H436	H	0.394884	1.384555	0.543861
H437	H	-0.158452	0.912587	-0.000055
H438	H	0.341548	1.412587	0.499945
H439	H	0.172252	0.486595	-0.000007
H440	H	0.672252	0.986595	0.499993
C441	C	-0.007068	0.753644	0.824132
C442	C	0.492932	1.253644	1.324132
C443	C	-0.041142	0.787762	0.772471
C444	C	0.458858	1.287762	1.272471
C445	C	-0.080092	0.826793	0.811946
C446	C	0.419908	1.326793	1.311946
H447	H	-0.030730	0.733366	0.855061
H448	H	0.469270	1.233366	1.355061
H449	H	0.013289	0.777263	0.855017
H450	H	0.513289	1.277263	1.355017
H451	H	-0.061498	0.764146	0.741598
H452	H	0.438502	1.264146	1.241598
H453	H	-0.017496	0.808052	0.741540
H454	H	0.482504	1.308052	1.241540
H455	H	-0.059734	0.850412	0.842831
H456	H	0.440266	1.350412	1.342831
H457	H	-0.103750	0.806511	0.842874
H458	H	0.396250	1.306511	1.342874
H459	H	-0.103212	0.849950	0.776900
H460	H	0.396788	1.349950	1.276900
H461	H	-0.085909	0.582043	0.000047
H462	H	0.414091	1.082043	0.500047
C463	C	-0.085302	0.256154	-0.000056
C464	C	0.414698	0.756154	0.499944
C465	C	-0.087921	0.290677	-0.064823
C466	C	0.412079	0.790677	0.435177
C467	C	-0.139451	0.327519	-0.064956
C468	C	0.360549	0.827519	0.435044
H469	H	-0.116579	0.234236	-0.000090
H470	H	0.383421	0.734236	0.499910
H471	H	-0.087198	0.279655	0.043821
H472	H	0.412802	0.779655	0.543821
H473	H	-0.086030	0.267179	-0.108688
H474	H	0.413970	0.767179	0.391312
H475	H	-0.056655	0.312607	-0.064803
H476	H	0.443345	0.812607	0.435197
H477	H	-0.141347	0.351020	-0.021080
H478	H	0.358653	0.851020	0.478920
H479	H	-0.170724	0.305597	-0.064988
H480	H	0.329276	0.805597	0.435012
H481	H	-0.141232	0.350951	-0.108896
H482	H	0.358768	0.850951	0.391104
H483	H	0.003516	0.742970	0.186561
H484	H	0.503516	1.242970	0.686561
C485	C	-0.509534	0.831865	0.000074
C486	C	-0.009534	1.331865	0.500074
C487	C	-0.476995	0.877790	0.000102
C488	C	0.023005	1.377790	0.500102
C489	C	-0.513658	0.929437	0.000161
C490	C	-0.013658	1.429437	0.500161
H491	H	-0.533010	0.833841	-0.043815
H492	H	-0.033010	1.333841	0.456185
H493	H	-0.532995	0.833773	0.043997
H494	H	-0.032995	1.333773	0.543997
H495	H	-0.453544	0.875883	-0.043816
H496	H	0.046456	1.375883	0.456184
H497	H	-0.453521	0.875833	0.043988
H498	H	0.046479	1.375833	0.543988
H499	H	-0.537119	0.931345	0.044084
H500	H	-0.037119	1.431345	0.544084
H501	H	-0.537132	0.931407	-0.043728
H502	H	-0.037132	1.431407	0.456272
H503	H	-0.491586	0.960603	0.000187
H504	H	0.008414	1.460603	0.500187
H505	H	-0.658055	0.763906	0.000022
H506	H	-0.158055	1.263906	0.500022
H507	H	-0.193677	0.580747	0.000053
H508	H	0.306323	1.080747	0.500053
