data_functionalizedCrystal
_audit_creation_method	'MofGen! by Chris Wilmer'
_symmetry_space_group_name_H-M	'P1'
_symmetry_Int_Tables_number	1
_symmetry_cell_setting	triclinic
loop_
_symmetry_equiv_pos_as_xyz
  x,y,z
_cell_length_a	8.497374
_cell_length_b	11.169417
_cell_length_c	11.169416
_cell_angle_alpha	89.988781
_cell_angle_beta	89.994900
_cell_angle_gamma	90.000212
loop_
_atom_site_label
_atom_site_type_symbol
_atom_site_fract_x
_atom_site_fract_y
_atom_site_fract_z
Zn1	Zn	0.891929	1.834730	0.477987
Zn2	Zn	0.628147	1.834688	0.678637
Zn3	Zn	0.628164	1.634085	0.477970
Zn4	Zn	0.891886	1.634023	0.678630
O5	O	0.760031	1.734381	0.578306
O6	O	0.856949	2.002674	0.504614
O7	O	0.407387	1.808086	0.652014
O8	O	0.663178	1.660744	0.310023
O9	O	0.663150	2.002643	0.652031
O10	O	0.856965	1.808157	0.310035
O11	O	0.407399	1.660703	0.504585
O12	O	0.663135	1.466127	0.504578
O13	O	1.112654	1.660639	0.652018
O14	O	0.856891	1.466082	0.652002
O15	O	1.112686	1.808098	0.504607
O16	O	0.663108	1.808026	0.846586
O17	O	0.856875	1.660599	0.846581
C18	C	0.760011	1.422557	0.578288
C19	C	0.760040	1.289157	0.578309
C20	C	0.760019	1.734334	0.890131
C21	C	0.760067	1.734423	1.023531
C22	C	1.171512	1.734373	0.578308
C23	C	1.350156	1.734375	0.578321
C24	C	0.760053	2.047424	0.578325
C25	C	0.760062	2.180824	0.578333
C26	C	0.760078	1.734462	0.265264
C27	C	0.760098	1.734496	0.131864
