data_functionalizedCrystal
_audit_creation_method	'MofGen! by Chris Wilmer'
_symmetry_space_group_name_H-M	'P1'
_symmetry_Int_Tables_number	1
_symmetry_cell_setting	triclinic
loop_
_symmetry_equiv_pos_as_xyz
  x,y,z
_cell_length_a	30.700809
_cell_length_b	30.711276
_cell_length_c	30.700862
_cell_angle_alpha	59.998386
_cell_angle_beta	89.999414
_cell_angle_gamma	60.000191
loop_
_atom_site_label
_atom_site_type_symbol
_atom_site_fract_x
_atom_site_fract_y
_atom_site_fract_z
O1	O	-0.371254	-0.311651	0.012944
O2	O	-0.307913	-0.222487	-0.012907
O3	O	-0.307911	-0.311650	0.076286
O4	O	-0.371257	-0.222488	-0.076249
O5	O	-0.235466	-0.384070	0.076286
O6	O	-0.235468	-0.294907	-0.012907
O7	O	-0.298809	-0.384071	0.012944
Cu8	Cu	-0.260524	-0.346102	0.000018
Cu9	Cu	-0.346199	-0.260456	0.000019
O10	O	-0.298812	-0.294908	-0.076249
C11	C	-0.234796	-0.137097	-0.018777
C12	C	-0.261674	-0.083360	-0.015076
C13	C	-0.182374	-0.163176	-0.019143
C14	C	-0.234798	-0.215942	-0.018783
C15	C	-0.261678	-0.246507	-0.015089
C16	C	-0.182376	-0.241901	-0.019150
C17	C	-0.155920	-0.215947	-0.018777
C18	C	-0.098463	-0.246515	-0.015075
C19	C	-0.261132	-0.163172	-0.019150
C20	C	-0.574961	-0.535511	0.039265
C21	C	-0.548506	-0.588283	0.039634
C22	C	-0.496086	-0.535509	0.039262
C23	C	-0.469751	-0.588281	0.039632
C24	C	-0.496085	-0.614360	0.039265
C25	C	-0.548507	-0.509552	0.039632
C26	C	-0.765169	-0.393516	0.024987
C27	C	-0.819034	-0.364488	0.020950
C28	C	-0.846055	-0.389406	0.018925
C29	C	-0.904462	-0.357927	0.014538
C30	C	-0.819206	-0.443357	0.020941
C31	C	-0.765344	-0.472385	0.024984
C32	C	-0.738325	-0.447463	0.027007
C33	C	-0.447920	-0.790230	0.024988
C34	C	-0.423094	-0.840041	0.020951
C35	C	-0.371150	-0.865027	0.018921
C36	C	-0.344230	-0.919028	0.014536
C37	C	-0.344030	-0.840201	0.020935
C38	C	-0.368852	-0.790399	0.024981
C39	C	-0.420803	-0.765414	0.027004
C40	C	-0.447922	-0.393510	0.024977
C41	C	-0.423099	-0.364475	0.020931
C42	C	-0.371152	-0.389391	0.018903
C43	C	-0.344235	-0.357911	0.014513
C44	C	-0.344034	-0.443338	0.020916
C45	C	-0.368860	-0.472368	0.024960
C46	C	-0.420804	-0.447452	0.026995
C47	C	-0.679920	-0.478941	0.031387
C48	C	-0.633366	-0.504032	0.034880
C49	C	-0.469171	-0.504029	0.034875
C50	C	-0.447717	-0.478936	0.031380
C51	C	-0.469170	-0.668361	0.034880
C52	C	-0.447716	-0.711408	0.031386
C53	C	-0.496432	-0.071057	-0.503890
C54	C	-0.548853	-0.018285	-0.530226
C55	C	-0.496432	-0.071056	-0.425015
C56	C	-0.548854	-0.018284	-0.451470
C57	C	-0.575308	0.007793	-0.503892
C58	C	-0.470097	-0.097014	-0.451469
C59	C	-0.368666	-0.213054	-0.552051
C60	C	-0.343664	-0.242084	-0.576877
C61	C	-0.370616	-0.217167	-0.628824
C62	C	-0.343513	-0.248647	-0.655741
C63	C	-0.422570	-0.163216	-0.655945
C64	C	-0.447565	-0.134187	-0.631122
C65	C	-0.420611	-0.159108	-0.579173
C66	C	-0.765518	0.183662	-0.631659
C67	C	-0.819384	0.233473	-0.656662
C68	C	-0.846408	0.258459	-0.629712
C69	C	-0.904813	0.312461	-0.656813
C70	C	-0.819559	0.233635	-0.577758
C71	C	-0.765694	0.183833	-0.552761
C72	C	-0.738677	0.158847	-0.579717
C73	C	-0.368668	-0.213052	-0.234803
C74	C	-0.343669	-0.242086	-0.180935
C75	C	-0.370621	-0.217169	-0.153914
C76	C	-0.343519	-0.248648	-0.095506
C77	C	-0.422573	-0.163222	-0.180762
C78	C	-0.447570	-0.134193	-0.234627
C79	C	-0.420610	-0.159111	-0.261646
C80	C	-0.447720	-0.127629	-0.552258
C81	C	-0.469327	-0.102536	-0.530805
C82	C	-0.469328	-0.102535	-0.366609
C83	C	-0.447721	-0.127627	-0.320054
C84	C	-0.633714	0.061794	-0.530997
C85	C	-0.680269	0.104841	-0.552605
O86	O	0.076277	-0.384081	0.012960
O87	O	-0.076257	-0.294916	-0.012894
O88	O	0.012931	-0.384083	0.076300
O89	O	-0.012910	-0.294914	-0.076234
O90	O	0.012933	-0.311666	0.076306
O91	O	-0.076254	-0.222499	-0.012888
O92	O	0.076280	-0.311664	0.012966
Cu93	Cu	0.000013	-0.260469	0.000040
Cu94	Cu	0.000010	-0.346111	0.000033
O95	O	-0.012908	-0.222497	-0.076228
O96	O	-0.298805	0.063292	0.012964
O97	O	-0.235462	-0.063346	-0.012888
O98	O	-0.235465	-0.063353	0.076305
O99	O	-0.298803	0.063300	-0.076229
O100	O	-0.307912	-0.063350	0.076299
O101	O	-0.307909	-0.063342	-0.012895
O102	O	-0.371252	0.063295	0.012958
Cu103	Cu	-0.346196	-0.000023	0.000031
Cu104	Cu	-0.260519	-0.000027	0.000039
O105	O	-0.371250	0.063303	-0.076236
O106	O	-1.076607	0.456783	-0.692421
O107	O	-0.924074	0.330140	-0.629074
O108	O	-1.013262	0.330138	-0.629073
O109	O	-0.987418	0.456785	-0.692422
O110	O	-1.013261	0.330136	-0.701518
O111	O	-0.924072	0.330138	-0.701518
O112	O	-1.076605	0.456781	-0.764865
Cu113	Cu	-1.000338	0.393460	-0.739807
Cu114	Cu	-1.000340	0.393461	-0.654133
O115	O	-0.987417	0.456783	-0.764866
O116	O	-0.307911	-0.311650	-0.764507
O117	O	-0.371254	-0.222491	-0.701165
O118	O	-0.371252	-0.311652	-0.701162
O119	O	-0.307912	-0.222489	-0.764510
O120	O	-0.298806	-0.384074	-0.628716
O121	O	-0.298807	-0.294912	-0.628719
O122	O	-0.235464	-0.384072	-0.692061
Cu123	Cu	-0.260521	-0.346105	-0.653775
Cu124	Cu	-0.346197	-0.260458	-0.739451
O125	O	-0.235466	-0.294910	-0.692064
C126	C	-0.155920	-0.469469	0.234827
C127	C	-0.098464	-0.523208	0.261706
C128	C	-0.182375	-0.443392	0.261162
C129	C	-0.234797	-0.390619	0.155950
C130	C	-0.261676	-0.360052	0.098494
C131	C	-0.261132	-0.364662	0.182405
C132	C	-0.234797	-0.390620	0.234826
C133	C	-0.261675	-0.360052	0.261704
C134	C	-0.182375	-0.443391	0.182406
C135	C	0.018810	-0.390643	0.234846
C136	C	0.015111	-0.360079	0.261727
C137	C	0.019176	-0.443414	0.261179
C138	C	0.018812	-0.390637	0.155967
C139	C	0.015115	-0.360067	0.098511
C140	C	0.019178	-0.443408	0.182420
C141	C	0.018807	-0.469488	0.234841
C142	C	0.015106	-0.523226	0.261717
C143	C	0.019180	-0.364683	0.182425
C144	C	-0.234799	-0.215977	0.234834
C145	C	-0.261678	-0.246545	0.261708
C146	C	-0.182376	-0.241940	0.261172
C147	C	-0.234798	-0.137119	0.155964
C148	C	-0.261676	-0.083372	0.098509
C149	C	-0.182375	-0.163202	0.182421
C150	C	-0.155921	-0.215981	0.234841
C151	C	-0.098464	-0.246554	0.261721
C152	C	-0.261134	-0.163198	0.182415
C153	C	-0.039199	0.007461	-0.503869
C154	C	-0.039568	-0.018614	-0.530207
C155	C	-0.039203	-0.071390	-0.424995
C156	C	-0.039572	-0.097344	-0.451452
C157	C	-0.039201	-0.071385	-0.503874
C158	C	-0.039570	-0.018618	-0.451448
C159	C	-0.024912	0.183325	-0.552025
C160	C	-0.020873	0.233135	-0.576849
C161	C	-0.018844	0.258123	-0.628796
C162	C	-0.014454	0.312124	-0.655711
C163	C	-0.020859	0.233301	-0.655918
C164	C	-0.024906	0.183500	-0.631097
C165	C	-0.026932	0.158512	-0.579148
C166	C	-0.024920	-0.133799	-0.631644
C167	C	-0.020882	-0.162650	-0.656647
C168	C	-0.018855	-0.216605	-0.629699
C169	C	-0.014470	-0.247897	-0.656801
C170	C	-0.020872	-0.241704	-0.577746
C171	C	-0.024919	-0.212847	-0.552747
C172	C	-0.026939	-0.158893	-0.579702
C173	C	-0.024929	-0.133823	-0.234783
C174	C	-0.020887	-0.162684	-0.180915
C175	C	-0.018862	-0.216639	-0.153896
C176	C	-0.014477	-0.247936	-0.095488
C177	C	-0.020875	-0.241733	-0.180745
C178	C	-0.024915	-0.212872	-0.234610
C179	C	-0.026947	-0.158912	-0.261627
C180	C	-0.031316	0.104507	-0.552235
C181	C	-0.034811	0.061462	-0.530782
C182	C	-0.034820	-0.102682	-0.366590
C183	C	-0.031328	-0.127624	-0.320035
C184	C	-0.034816	-0.102672	-0.530980
C185	C	-0.031322	-0.127610	-0.552588
O186	O	-0.012940	-0.294936	0.371303
O187	O	0.012923	-0.384099	0.307961
O188	O	-0.076273	-0.294935	0.307950
O189	O	0.076257	-0.384100	0.371315
O190	O	-0.076265	-0.222515	0.235508
O191	O	0.012932	-0.311679	0.235520
O192	O	-0.012931	-0.222517	0.298862
Cu193	Cu	0.000001	-0.260485	0.260576
Cu194	Cu	-0.000009	-0.346130	0.346247
O195	O	0.076266	-0.311681	0.298873
C196	C	-0.574962	0.464558	-0.503864
C197	C	-0.548506	0.490518	-0.530195
C198	C	-0.496085	0.385697	-0.424987
C199	C	-0.469749	0.411776	-0.451438
C200	C	-0.496084	0.464555	-0.503857
C201	C	-0.548507	0.411779	-0.451444
C202	C	-0.765173	0.526994	-0.552039
C203	C	-0.819039	0.555852	-0.576867
C204	C	-0.846061	0.609814	-0.628812
C205	C	-0.904469	0.641114	-0.655732
C206	C	-0.819211	0.634913	-0.655928
C207	C	-0.765348	0.606050	-0.631102
C208	C	-0.738329	0.552088	-0.579155
C209	C	-0.447916	0.606561	-0.631604
C210	C	-0.423088	0.635592	-0.656601
C211	C	-0.371143	0.610674	-0.629648
C212	C	-0.344222	0.642150	-0.656742
C213	C	-0.344023	0.556716	-0.577696
C214	C	-0.368845	0.527681	-0.552704
C215	C	-0.420798	0.552613	-0.579664
C216	C	-0.447920	0.209802	-0.234786
C217	C	-0.423096	0.159988	-0.180919
C218	C	-0.371148	0.134996	-0.153895
C219	C	-0.344230	0.080987	-0.095489
C220	C	-0.344029	0.159823	-0.180737
C221	C	-0.368856	0.209637	-0.234602
C222	C	-0.420801	0.234620	-0.261624
C223	C	-0.679923	0.520797	-0.552238
C224	C	-0.633367	0.495853	-0.530781
C225	C	-0.469169	0.331687	-0.366583
C226	C	-0.447714	0.288634	-0.320030
C227	C	-0.469167	0.496035	-0.530956
C228	C	-0.447712	0.521128	-0.552558
H229	H	-0.161139	-0.284365	-0.019743
C230	C	-0.319315	-0.133696	-0.019947
H231	H	-0.331276	-0.156801	-0.020114
H232	H	-0.341217	-0.092619	-0.051046
H233	H	-0.321342	-0.133497	0.010836
C234	C	-0.153685	-0.472871	0.153712
H235	H	-0.118608	-0.508098	0.176986
H236	H	-0.151873	-0.443920	0.122720
H237	H	-0.172871	-0.484790	0.143736
H238	H	-0.426680	-0.610102	0.040221
C239	C	-0.027148	0.155847	-0.494887
H240	H	-0.025375	0.177767	-0.482292
H241	H	0.002134	0.113737	-0.472214
H242	H	-0.059590	0.159097	-0.494907
H243	H	-0.490217	0.230142	-0.256784
H244	H	-0.301369	-0.286012	-0.159078
H245	H	-0.161137	-0.141349	-0.019737
H246	H	-0.569747	-0.610106	0.040228
C247	C	-0.848925	-0.470767	0.018716
H248	H	-0.825221	-0.507056	0.020501
H249	H	-0.878118	-0.441572	-0.013720
H250	H	-0.861762	-0.480595	0.048005
C251	C	-0.577203	-0.452176	0.040414
H252	H	-0.612280	-0.440375	0.040573
H253	H	-0.579012	-0.419390	0.009636
H254	H	-0.558023	-0.461369	0.071519
H255	H	-0.304201	-0.322192	0.161160
H256	H	0.019760	-0.465234	0.304248
H257	H	0.019773	-0.322218	0.161189
C258	C	-0.735815	-0.531723	0.027200
H259	H	-0.759621	-0.542404	0.025410
H260	H	-0.706628	-0.564199	0.059635
H261	H	-0.722987	-0.525166	-0.002091
C262	C	-0.504712	-0.074853	-0.264160
H263	H	-0.515740	-0.061136	-0.300108
H264	H	-0.505484	-0.043897	-0.263474
H265	H	-0.528168	-0.082923	-0.247119
C266	C	-0.452927	0.132683	-0.151396
H267	H	-0.487417	0.154695	-0.175206
H268	H	-0.456228	0.135927	-0.122208
H269	H	-0.433541	0.090579	-0.138569
H270	H	-0.489864	-0.090259	-0.653209
C271	C	-0.452931	-0.305134	0.018710
H272	H	-0.487420	-0.294456	0.020502
H273	H	-0.456233	-0.272659	-0.013729
H274	H	-0.433545	-0.311683	0.047996
H275	H	-0.426677	0.389946	-0.430194
C276	C	-0.153681	-0.299313	0.319354
H277	H	-0.118608	-0.311102	0.331318
H278	H	-0.151860	-0.332107	0.321382
H279	H	-0.172868	-0.290115	0.341256
C280	C	0.019997	-0.472901	0.153733
H281	H	0.020168	-0.449802	0.118660
H282	H	-0.010769	-0.473131	0.151914
H283	H	0.051112	-0.513971	0.172930
H284	H	-0.490220	-0.373215	0.026628
C285	C	-0.153685	-0.133713	0.153740
H286	H	-0.176960	-0.098478	0.118666
H287	H	-0.122691	-0.162653	0.151921
H288	H	-0.143711	-0.121803	0.172937
C289	C	-0.286883	0.529298	-0.548045
H290	H	-0.274286	0.493005	-0.513530
H291	H	-0.286894	0.558489	-0.544807
H292	H	-0.264213	0.519475	-0.567504
H293	H	-0.490218	-0.769893	0.026639
C294	C	-0.339023	0.236939	-0.264126
H295	H	-0.304528	0.214918	-0.240320
H296	H	-0.358403	0.279041	-0.276957
H297	H	-0.335723	0.233690	-0.293314
H298	H	-0.304205	-0.141373	0.161175
H299	H	-0.743175	-0.373219	0.026636
H300	H	-0.840890	-0.320560	0.019306
C301	C	-0.018649	0.260429	-0.547013
H302	H	-0.020430	0.238411	-0.512519
H303	H	-0.047929	0.302534	-0.566394
H304	H	0.013794	0.257169	-0.543711
C305	C	-0.848934	0.694268	-0.713061
H306	H	-0.884861	0.707868	-0.723963
H307	H	-0.831971	0.686277	-0.736583
H308	H	-0.848316	0.725286	-0.713882
H309	H	-0.040166	-0.139808	-0.430213
H310	H	-0.346767	-0.770191	0.026621
C311	C	-0.027123	0.156198	-0.660927
H312	H	-0.029825	0.122960	-0.638703
H313	H	0.004402	0.141717	-0.669896
H314	H	-0.057321	0.187074	-0.692582
C315	C	-0.735815	0.633654	-0.660925
H316	H	-0.699865	0.608734	-0.638700
H317	H	-0.752853	0.674133	-0.669890
H318	H	-0.736502	0.635115	-0.692582
H319	H	-0.445180	-0.860248	0.019309
H320	H	-0.040160	0.003216	-0.573279
H321	H	-0.019210	0.253653	-0.698214
C322	C	-0.040377	0.010864	-0.422755
H323	H	-0.040542	0.046093	-0.446028
H324	H	-0.009610	-0.018082	-0.391760
H325	H	-0.071490	0.022782	-0.412784
C326	C	-0.735800	0.156187	-0.661312
H327	H	-0.759500	0.178108	-0.695834
H328	H	-0.722958	0.114076	-0.641859
H329	H	-0.706608	0.159435	-0.664543
H330	H	-0.346761	0.483749	-0.510407
H331	H	-0.019235	-0.142256	-0.159055
C332	C	-0.848914	0.260769	-0.713801
H333	H	-0.825109	0.238751	-0.726270
H334	H	-0.861752	0.302874	-0.736541
H335	H	-0.878096	0.257510	-0.713841
H336	H	-0.445174	0.679524	-0.698898
H337	H	-0.841561	0.253985	-0.555818
C338	C	-0.286892	-0.867683	0.018706
H339	H	-0.275992	-0.900897	0.016005
H340	H	-0.263374	-0.882232	0.050225
H341	H	-0.286064	-0.836872	-0.011500
H342	H	-0.026581	-0.089888	-0.256777
H343	H	-0.346776	-0.516292	0.026600
H344	H	-0.026568	-0.089866	-0.653596
H345	H	-0.019237	-0.142213	-0.698946
C346	C	-0.286939	-0.470670	0.018564
H347	H	-0.276048	-0.445636	0.015834
H348	H	-0.286207	-0.472054	-0.011670
H349	H	-0.263351	-0.511160	0.050047
C350	C	-0.577547	0.011201	-0.422782
H351	H	-0.554273	-0.011901	-0.387706
H352	H	-0.608539	0.011422	-0.420968
H353	H	-0.587523	0.052274	-0.441971
H354	H	-0.019230	-0.285631	-0.555806
H355	H	-0.570087	0.003544	-0.573301
C356	C	-0.286887	0.132335	-0.151014
H357	H	-0.275981	0.099109	-0.115092
H358	H	-0.286052	0.163137	-0.151625
H359	H	-0.263372	0.117790	-0.167987
C360	C	-0.411911	-0.154376	-0.422776
H361	H	-0.399945	-0.166173	-0.446050
H362	H	-0.409874	-0.187172	-0.391782
H363	H	-0.390016	-0.145163	-0.412802
C364	C	-0.339016	-0.240464	-0.264520
H365	H	-0.304499	-0.276754	-0.240816
H366	H	-0.335783	-0.211269	-0.293713
H367	H	-0.358473	-0.250291	-0.277360
H368	H	-0.346713	-0.233351	-0.509753
C369	C	-0.027136	-0.240455	-0.495604
H370	H	-0.025347	-0.276723	-0.483131
H371	H	-0.059571	-0.211329	-0.495553
H372	H	0.002153	-0.250356	-0.472870
C373	C	-0.286523	-0.301426	-0.547043
H374	H	-0.274053	-0.312112	-0.512549
H375	H	-0.263787	-0.294882	-0.566425
H376	H	-0.286480	-0.333900	-0.543741
C377	C	-0.027137	-0.240470	-0.264142
H378	H	-0.025358	-0.276732	-0.240339
H379	H	0.002146	-0.250368	-0.276976
H380	H	-0.059577	-0.211337	-0.293328
C381	C	-0.018622	-0.301099	-0.151019
H382	H	-0.015923	-0.314698	-0.115093
H383	H	0.011585	-0.332106	-0.151643
H384	H	-0.050137	-0.293116	-0.167979
C385	C	-0.848571	0.528251	-0.547038
H386	H	-0.824766	0.491985	-0.512544
H387	H	-0.861410	0.518359	-0.566423
H388	H	-0.877752	0.557381	-0.543735
H389	H	-0.743179	0.483055	-0.509743
H390	H	-0.743837	0.163627	-0.510462
C391	C	-0.153684	-0.472872	0.319346
H392	H	-0.118606	-0.508095	0.331310
H393	H	-0.172870	-0.484787	0.341246
H394	H	-0.151870	-0.443919	0.321374
C395	C	-0.505055	0.633978	-0.661261
H396	H	-0.517647	0.670263	-0.695780
H397	H	-0.527726	0.643800	-0.641807
H398	H	-0.505038	0.604781	-0.664497
C399	C	-0.452214	-0.135812	-0.713082
H400	H	-0.429889	-0.160830	-0.723981
H401	H	-0.461179	-0.095342	-0.736601
H402	H	-0.483863	-0.134369	-0.713910
C403	C	-0.577201	0.547899	-0.588372
H404	H	-0.612281	0.559708	-0.600336
H405	H	-0.558022	0.538715	-0.610282
H406	H	-0.579011	0.580684	-0.590384
C407	C	-0.452222	-0.135809	-0.151043
H408	H	-0.429895	-0.160819	-0.115119
H409	H	-0.483872	-0.134360	-0.151658
H410	H	-0.461183	-0.095337	-0.168015
C411	C	-0.577200	0.382298	-0.422754
H412	H	-0.612277	0.405405	-0.446029
H413	H	-0.579010	0.382073	-0.391760
H414	H	-0.558016	0.341227	-0.412780
