data_functionalizedCrystal
_audit_creation_method	'MofGen! by Chris Wilmer'
_symmetry_space_group_name_H-M	'P1'
_symmetry_Int_Tables_number	1
_symmetry_cell_setting	triclinic
loop_
_symmetry_equiv_pos_as_xyz
  x,y,z
_cell_length_a	27.732048
_cell_length_b	14.519709
_cell_length_c	12.996460
_cell_angle_alpha	90.000052
_cell_angle_beta	90.000094
_cell_angle_gamma	96.838601
loop_
_atom_site_label
_atom_site_type_symbol
_atom_site_fract_x
_atom_site_fract_y
_atom_site_fract_z
O1	O	-0.641452	0.109733	-0.085421
O2	O	-0.308119	0.443066	0.247912
O3	O	0.025214	0.776400	0.581245
O4	O	-0.500739	0.126418	-0.085450
O5	O	-0.167405	0.459751	0.247883
O6	O	0.165928	0.793084	0.581216
O7	O	-0.574826	-0.016228	-0.085444
O8	O	-0.241493	0.317105	0.247889
O9	O	0.091840	0.650439	0.581222
O10	O	-0.567365	0.252379	-0.085427
O11	O	-0.234031	0.585712	0.247906
O12	O	0.099302	0.919045	0.581239
O13	O	-0.574818	-0.016236	0.085689
O14	O	-0.241485	0.317098	0.419023
O15	O	0.091848	0.650431	0.752356
O16	O	-0.500731	0.126410	0.085683
O17	O	-0.167397	0.459743	0.419017
O18	O	0.165936	0.793077	0.752350
O19	O	-0.641445	0.109725	0.085712
O20	O	-0.308111	0.443059	0.419046
O21	O	0.025222	0.776392	0.752379
Cu22	Cu	-0.571087	0.118067	0.101324
Cu23	Cu	-0.237754	0.451400	0.434657
Cu24	Cu	0.095580	0.784734	0.767990
Cu25	Cu	-0.571096	0.118076	-0.101062
Cu26	Cu	-0.237763	0.451409	0.232272
Cu27	Cu	0.095571	0.784743	0.565605
O28	O	-0.567357	0.252371	0.085707
O29	O	-0.234024	0.585704	0.419040
O30	O	0.099310	0.919038	0.752373
C31	C	-0.482726	0.126064	0.000113
C32	C	-0.149393	0.459397	0.333446
C33	C	0.183941	0.792730	0.666779
C34	C	-0.429066	0.125009	0.000101
C35	C	-0.095733	0.458342	0.333434
C36	C	0.237600	0.791676	0.666767
C37	C	-0.574475	-0.050586	0.000118
C38	C	-0.241141	0.282748	0.333451
C39	C	0.092192	0.616081	0.666784
C40	C	-0.573433	-0.152949	0.000104
C41	C	-0.240099	0.180385	0.333437
C42	C	0.093234	0.513718	0.666770
C43	C	-0.659457	0.110079	0.000147
C44	C	-0.326124	0.443413	0.333481
C45	C	0.007210	0.776746	0.666814
C46	C	-0.713117	0.111134	0.000152
C47	C	-0.379784	0.444467	0.333486
C48	C	-0.046450	0.777801	0.666819
C49	C	-0.090622	0.202664	0.000150
C50	C	0.242711	0.535997	0.333484
C51	C	0.576044	0.869331	0.666817
C52	C	0.111056	0.198751	0.000159
C53	C	0.444389	0.532084	0.333492
C54	C	0.777723	0.865418	0.666826
O55	O	0.141972	0.269761	0.000208
O56	O	0.475306	0.603094	0.333542
O57	O	0.808639	0.936428	0.666875
N58	N	0.130584	0.114168	0.000152
N59	N	0.463917	0.447501	0.333485
N60	N	0.797251	0.780835	0.666819
C61	C	0.099689	0.030557	0.000149
C62	C	0.433022	0.363891	0.333483
C63	C	0.766356	0.697224	0.666816
O64	O	0.120926	-0.041476	0.000154
O65	O	0.454260	0.291858	0.333487
O66	O	0.787593	0.625191	0.666820
C67	C	-0.101988	0.034471	0.000148
C68	C	0.231345	0.367804	0.333481
C69	C	0.564678	0.701138	0.666814
C70	C	-0.121513	0.119060	0.000144
C71	C	0.211820	0.452393	0.333478
C72	C	0.545153	0.785726	0.666811
C73	C	-0.110148	0.287246	0.000148
C74	C	0.223186	0.620579	0.333482
C75	C	0.556519	0.953912	0.666815
C76	C	-0.160564	0.288223	0.000140
C77	C	0.172769	0.621556	0.333474
C78	C	0.506102	0.954890	0.666807
C79	C	-0.191455	0.204619	0.000135
C80	C	0.141878	0.537952	0.333468
C81	C	0.475211	0.871285	0.666801
C82	C	-0.171930	0.120037	0.000137
C83	C	0.161403	0.453370	0.333470
C84	C	0.494737	0.786704	0.666803
C85	C	-0.132882	-0.049139	0.000152
C86	C	0.200451	0.284195	0.333486
C87	C	0.533784	0.617528	0.666819
C88	C	-0.183304	-0.048153	0.000154
C89	C	0.150029	0.285181	0.333488
C90	C	0.483362	0.618514	0.666821
C91	C	-0.202829	0.036436	0.000151
C92	C	0.130504	0.369769	0.333485
C93	C	0.463837	0.703103	0.666818
C94	C	-0.253238	0.037410	0.000123
C95	C	0.080096	0.370743	0.333456
C96	C	0.413429	0.704077	0.666790
N97	N	-0.272766	0.121993	0.000130
N98	N	0.060568	0.455326	0.333464
N99	N	0.393901	0.788660	0.666797
C100	C	-0.241875	0.205597	0.000136
C101	C	0.091459	0.538931	0.333469
C102	C	0.424792	0.872264	0.666803
C103	C	0.205573	0.028508	0.000148
C104	C	0.538906	0.361842	0.333481
C105	C	0.872240	0.695175	0.666815
C106	C	0.255992	0.027530	0.000147
C107	C	0.589325	0.360863	0.333480
C108	C	0.922659	0.694196	0.666813
C109	C	0.267356	0.195724	0.000158
C110	C	0.600689	0.529057	0.333492
C111	C	0.934022	0.862390	0.666825
C112	C	0.216936	0.196702	0.000153
C113	C	0.550269	0.530035	0.333486
C114	C	0.883602	0.863368	0.666819
C115	C	0.186045	0.113091	0.000155
C116	C	0.519378	0.446425	0.333489
C117	C	0.852712	0.779758	0.666822
C118	C	-0.347754	0.207643	0.000119
C119	C	-0.014420	0.540977	0.333452
C120	C	0.318913	0.874310	0.666785
C121	C	-0.398175	0.208613	0.000106
C122	C	-0.064842	0.541947	0.333440
C123	C	0.268492	0.875280	0.666773
C124	C	-0.409534	0.040420	0.000100
C125	C	-0.076201	0.373753	0.333433
C126	C	0.257132	0.707086	0.666767
C127	C	-0.359117	0.039449	0.000107
C128	C	-0.025784	0.372783	0.333440
C129	C	0.307550	0.706116	0.666773
C130	C	-0.328227	0.123069	0.000119
C131	C	0.005106	0.456402	0.333453
C132	C	0.338439	0.789735	0.666786
O133	O	-0.284182	-0.033562	0.000085
O134	O	0.049151	0.299771	0.333419
O135	O	0.382484	0.633105	0.666752
O136	O	-0.263121	0.277620	0.000154
O137	O	0.070212	0.610953	0.333488
O138	O	0.403545	0.944286	0.666821
C139	C	-0.040206	0.201687	0.000158
C140	C	0.293128	0.535020	0.333491
C141	C	0.626461	0.868353	0.666825
C142	C	-0.020680	0.117105	0.000160
C143	C	0.312653	0.450438	0.333493
C144	C	0.645987	0.783772	0.666827
C145	C	-0.051571	0.033501	0.000154
C146	C	0.281762	0.366834	0.333488
C147	C	0.615096	0.700167	0.666821
C148	C	0.029739	0.116126	0.000159
C149	C	0.363072	0.449460	0.333492
C150	C	0.696406	0.782793	0.666825
C151	C	0.060630	0.199731	0.000164
C152	C	0.393963	0.533064	0.333498
C153	C	0.727297	0.866397	0.666831
C154	C	0.041102	0.284314	0.000172
C155	C	0.374435	0.617647	0.333505
C156	C	0.707769	0.950980	0.666838
C157	C	-0.009315	0.285291	0.000164
C158	C	0.324019	0.618624	0.333497
C159	C	0.657352	0.951958	0.666831
C160	C	-0.032043	-0.051082	0.000147
C161	C	0.301290	0.282251	0.333480
C162	C	0.634624	0.615584	0.666814
C163	C	0.018374	-0.052053	0.000154
C164	C	0.351707	0.281281	0.333487
C165	C	0.685041	0.614614	0.666820
C166	C	0.049265	0.031552	0.000160
C167	C	0.382598	0.364885	0.333493
C168	C	0.715932	0.698218	0.666826
C169	C	-0.567708	0.286729	0.000142
C170	C	-0.234375	0.620062	0.333475
C171	C	0.098958	0.953395	0.666809
C172	C	-0.568751	0.389092	0.000149
C173	C	-0.235417	0.722425	0.333483
C174	C	0.097916	1.055758	0.666816
N175	N	-0.571084	0.118060	0.243671
N176	N	-0.237751	0.451393	0.577004
N177	N	0.095583	0.784727	0.910338
C178	C	-0.572587	0.763921	0.000109
C179	C	-0.239253	1.097254	0.333442
C180	C	0.094080	1.430587	0.666776
C181	C	-0.571521	0.659631	0.000121
C182	C	-0.238188	0.992965	0.333454
C183	C	0.095145	1.326298	0.666787
C184	C	-0.570669	0.576510	0.000130
C185	C	-0.237335	0.909843	0.333463
C186	C	0.095998	1.243176	0.666797
C187	C	-0.569603	0.472214	0.000140
C188	C	-0.236270	0.805547	0.333473
C189	C	0.097063	1.138880	0.666806
N190	N	-0.571103	0.118076	-0.243409
N191	N	-0.237770	0.451409	0.089924
N192	N	0.095564	0.784742	0.423258
C193	C	-0.571095	0.118077	0.663485
C194	C	-0.237762	0.451410	0.996819
C195	C	0.095571	0.784744	1.330152
C196	C	-0.571091	0.118075	0.546680
C197	C	-0.237758	0.451409	0.880013
C198	C	0.095576	0.784742	1.213347
C199	C	-0.571090	0.118069	0.453582
C200	C	-0.237757	0.451402	0.786915
C201	C	0.095577	0.784736	1.120248
C202	C	-0.571085	0.118066	0.336769
C203	C	-0.237752	0.451399	0.670103
C204	C	0.095582	0.784733	1.003436
H205	H	-0.414069	0.277498	0.000103
H206	H	-0.080736	0.610832	0.333437
H207	H	0.252597	0.944165	0.666770
H208	H	-0.322609	0.275734	0.000132
H209	H	0.010725	0.609068	0.333466
H210	H	0.344058	0.942401	0.666799
H211	H	-0.343219	-0.029430	0.000094
H212	H	-0.009886	0.303904	0.333428
H213	H	0.323447	0.637237	0.666761
F214	F	-0.112114	-0.139171	0.000141
F215	F	0.221220	0.194163	0.333474
F216	F	0.554553	0.527496	0.666808
F217	F	0.172702	-0.060487	0.000150
F218	F	0.506036	0.272846	0.333483
F219	F	0.839369	0.606179	0.666817
F220	F	-0.216178	-0.137145	0.000160
F221	F	0.117155	0.196188	0.333493
F222	F	0.450489	0.529522	0.666827
H223	H	-0.434695	-0.027649	0.000091
H224	H	-0.101361	0.305685	0.333425
H225	H	0.231972	0.639018	0.666758
F226	F	-0.077278	0.376237	0.000154
F227	F	0.256056	0.709570	0.333488
F228	F	0.589389	1.042904	0.666821
H229	H	0.034266	-0.120940	0.000148
H230	H	0.367599	0.212393	0.333481
H231	H	0.700933	0.545727	0.666815
H232	H	0.201042	0.265581	0.000156
H233	H	0.534375	0.598914	0.333489
H234	H	0.867709	0.932248	0.666822
F235	F	0.276766	-0.062501	0.000127
F236	F	0.610100	0.270833	0.333460
F237	F	0.943433	0.604166	0.666793
H238	H	-0.176457	0.357103	0.000137
H239	H	0.156877	0.690437	0.333471
H240	H	0.490210	1.023770	0.666804
H241	H	-0.057190	-0.119165	0.000145
H242	H	0.276143	0.214169	0.333478
H243	H	0.609476	0.547502	0.666811
H244	H	0.066263	0.352387	0.000172
H245	H	0.399596	0.685720	0.333506
H246	H	0.732929	1.019054	0.666839
H247	H	0.292516	0.263798	0.000163
H248	H	0.625849	0.597131	0.333497
H249	H	0.959183	0.930464	0.666830
H250	H	-0.025207	0.354171	0.000163
H251	H	0.308127	0.687505	0.333496
H252	H	0.641460	1.020838	0.666829
