data_functionalizedCrystal
_audit_creation_method	'MofGen! by Chris Wilmer'
_symmetry_space_group_name_H-M	'P1'
_symmetry_Int_Tables_number	1
_symmetry_cell_setting	triclinic
loop_
_symmetry_equiv_pos_as_xyz
  x,y,z
_cell_length_a	19.902436
_cell_length_b	14.446369
_cell_length_c	14.446369
_cell_angle_alpha	60.000250
_cell_angle_beta	90.002769
_cell_angle_gamma	59.998044
loop_
_atom_site_label
_atom_site_type_symbol
_atom_site_fract_x
_atom_site_fract_y
_atom_site_fract_z
Zr1	Zr	0.647327	1.013130	-0.121447
O2	O	0.540036	1.206258	-0.269270
O3	O	0.680217	0.820008	-0.076126
O4	O	0.680218	1.013117	-0.269245
O5	O	0.540035	1.013158	0.076178
O6	O	0.790797	1.013099	-0.269233
O7	O	0.540035	1.013150	-0.076150
O8	O	0.790794	0.667663	0.076222
O9	O	0.540037	1.358594	-0.269277
O10	O	0.776768	0.899426	-0.056795
O11	O	0.694245	0.899446	0.056877
O12	O	0.694246	1.126806	-0.170496
O13	O	0.611723	1.126826	-0.056824
Zr14	Zr	0.823687	1.013115	0.121519
Zr15	Zr	0.823688	1.013101	-0.121428
Zr16	Zr	0.647327	1.013143	0.121499
Zr17	Zr	0.647329	1.256088	-0.121459
Zr18	Zr	0.823686	0.770157	0.121530
O19	O	0.790798	1.206237	0.076198
O20	O	0.790798	1.206218	-0.269242
O21	O	0.540036	1.206277	0.076169
O22	O	0.930978	0.819986	0.269341
O23	O	0.930979	0.819967	-0.076098
O24	O	0.680216	0.820027	0.269313
O25	O	0.930980	1.013086	-0.076107
O26	O	0.790796	1.013128	0.269317
O27	O	0.680218	1.013146	0.269304
O28	O	0.930980	1.013095	0.076222
O29	O	0.680220	1.358571	-0.269261
O30	O	0.790794	0.667673	0.269333
O31	O	0.930977	0.667650	0.269348
O32	O	0.930977	0.667640	0.076238
O33	O	0.540037	1.358605	-0.076166
O34	O	0.680220	1.358582	-0.076151
O35	O	0.776768	0.899439	0.170568
O36	O	0.859292	0.899419	0.056896
O37	O	0.776770	1.126799	-0.056805
O38	O	0.694246	1.126819	0.056867
C39	C	0.735505	0.709219	0.000050
C40	C	0.735505	0.606077	0.000054
C41	C	0.683706	0.459080	0.072076
C42	C	0.683425	0.566700	0.071785
C43	C	0.697536	0.655072	-0.123485
C44	C	0.697147	0.547840	-0.123111
C45	C	0.825308	0.372607	0.050509
C46	C	0.825176	0.478758	0.053030
C47	C	0.514907	1.013158	0.000011
C48	C	0.440038	1.013170	0.000003
C49	C	0.168036	1.013106	0.000047
C50	C	0.144470	1.156542	-0.071334
C51	C	0.222308	1.156632	-0.071731
C52	C	0.302979	1.013139	0.000025
C53	C	0.300567	0.941901	-0.052267
C54	C	0.222340	0.942818	-0.052795
C55	C	0.223327	0.939881	0.123752
C56	C	0.300248	0.942577	0.123562
C57	C	0.379246	1.013150	0.000013
C58	C	0.091771	1.013091	0.000054
C59	C	0.956107	1.013086	0.000061
C60	C	1.030977	1.013074	0.000069
C61	C	0.735508	1.013106	-0.303854
C62	C	0.735508	1.013100	-0.406991
C63	C	0.735509	1.317026	0.000022
C64	C	0.735510	1.420168	0.000017
C65	C	0.787814	0.869706	-0.481961
C66	C	0.787587	0.869610	-0.374632
C67	C	0.645840	1.084342	-0.481564
C68	C	0.646127	1.083432	-0.588423
C69	C	0.772145	1.086365	-0.589982
C70	C	0.773960	1.083662	-0.481310
C71	C	0.735507	1.013139	0.303925
C72	C	0.735507	1.013145	0.407062
C73	C	0.956105	0.709183	0.000074
C74	C	1.030974	0.606029	0.000088
C75	C	0.735505	0.709236	0.303939
C76	C	0.735504	0.606099	0.407081
C77	C	0.956105	0.709200	0.303964
C78	C	1.030974	0.606051	0.407114
C79	C	0.514910	1.317045	-0.303892
C80	C	0.440041	1.420193	-0.407043
C81	C	0.514909	1.317061	-0.000003
C82	C	0.440040	1.420216	-0.000016
C83	C	0.735510	1.317009	-0.303868
C84	C	0.735510	1.420145	-0.407010
C85	C	1.023057	0.557590	-0.059262
C86	C	1.093398	0.460680	-0.059272
C87	C	1.171655	0.412202	0.000074
C88	C	1.179570	0.460651	0.059425
C89	C	1.109230	0.557566	0.059428
C90	C	1.109217	0.557601	0.396219
C91	C	1.179571	0.460696	0.493131
C92	C	1.171680	0.412236	0.600936
C93	C	1.093429	0.460695	0.611829
C94	C	1.023076	0.557605	0.514919
C95	C	0.361798	1.468655	-0.396148
C96	C	0.291444	1.565591	-0.493059
C97	C	0.299335	1.614056	-0.600864
C98	C	0.377586	1.565590	-0.611757
C99	C	0.447938	1.468663	-0.514847
C100	C	0.447958	1.468664	0.059323
C101	C	0.377617	1.565602	0.059307
C102	C	0.299360	1.614083	-0.000043
C103	C	0.291444	1.565630	-0.059389
C104	C	0.361784	1.468701	-0.059379
C105	C	0.683204	0.459793	0.482065
C106	C	0.683426	0.566714	0.374731
C107	C	0.825174	0.479232	0.481651
C108	C	0.824892	0.371857	0.588514
C109	C	0.698875	0.546850	0.590078
C110	C	0.697055	0.655320	0.481402
H111	H	0.617187	0.655509	0.036780
Cl112	Cl	0.868973	0.417613	0.193547
Cl113	Cl	0.721249	1.245293	-0.520734
Cl114	Cl	1.277934	0.399790	0.479411
H115	H	0.734214	1.192042	-0.668190
Cl116	Cl	0.889792	0.511935	-0.019572
H117	H	0.355326	1.429256	-0.107697
Cl118	Cl	1.119198	0.618440	0.134056
Cl119	Cl	0.254091	0.776741	0.206248
Cl120	Cl	0.596490	0.797599	-0.186321
H121	H	0.633842	0.586433	0.594186
Cl122	Cl	1.277957	0.399688	0.134033
H123	H	0.853616	0.813715	-0.320349
H124	H	0.242091	1.693009	-0.000042
H125	H	0.221030	1.212808	-0.036928
Cl126	Cl	1.119159	0.618512	0.260704
Cl127	Cl	0.595127	0.610681	-0.185513
H128	H	1.228972	0.333325	0.679838
Cl129	Cl	0.924685	0.618518	-0.133883
Cl130	Cl	0.165913	1.020980	-0.193339
Cl131	Cl	0.924716	0.618494	0.528635
H132	H	0.854710	0.440667	0.430049
Cl133	Cl	0.193058	1.626585	-0.133989
Cl134	Cl	1.083428	0.399788	-0.133885
Cl135	Cl	1.083522	0.399757	0.747365
Cl136	Cl	0.351856	1.407746	-0.260632
Cl137	Cl	0.722662	0.508867	0.291688
H138	H	0.605033	1.188671	-0.667012
H139	H	0.242043	1.692980	-0.679766
H140	H	0.220533	1.212854	-0.162982
Cl141	Cl	0.748291	0.782867	-0.291631
Cl142	Cl	0.193081	1.626494	-0.479339
H143	H	1.228923	0.333286	0.000063
Cl144	Cl	0.083995	1.243478	-0.017465
Cl145	Cl	0.387492	1.626528	-0.747293
H146	H	0.511645	1.429207	-0.523731
H147	H	0.864087	0.346623	-0.001725
Cl148	Cl	0.082853	1.243032	-0.211377
Cl149	Cl	0.546329	1.407744	0.133937
H150	H	0.384078	1.605036	0.107638
H151	H	0.617396	0.656073	0.320452
Cl152	Cl	0.252204	0.780346	0.022267
H153	H	0.617005	0.497043	0.479721
H154	H	0.708382	0.370123	0.481036
Cl155	Cl	0.757408	0.508570	0.710852
Cl156	Cl	0.870173	0.231732	0.588104
H157	H	0.865984	0.341898	0.667100
H158	H	0.865838	0.501474	0.508885
H159	H	0.630995	0.745823	0.429970
H160	H	0.708893	0.529990	0.162754
Cl161	Cl	0.722832	0.321884	0.212889
H162	H	0.357380	0.836395	-0.002777
H163	H	0.302118	0.991369	-0.142431
Cl164	Cl	0.749759	0.704926	0.520805
Cl165	Cl	0.751647	0.513892	-0.210493
H166	H	0.617859	0.494851	0.037363
H167	H	0.857030	0.278861	0.140079
Cl168	Cl	0.890022	0.782763	-0.478336
H169	H	0.733456	0.683849	-0.179496
Cl170	Cl	0.167262	1.010740	0.191201
H171	H	0.299871	0.994519	0.162627
H172	H	0.616795	1.032818	-0.588154
Cl173	Cl	0.748942	0.783225	-0.480359
Cl174	Cl	0.583051	1.247233	-0.523622
Cl175	Cl	0.388945	0.780929	0.212580
Cl176	Cl	0.600231	1.007970	-0.401901
H177	H	0.837177	1.040455	-0.594089
Cl178	Cl	0.875953	1.003466	-0.401907
