data_functionalizedCrystal
_audit_creation_method	'MofGen! by Chris Wilmer'
_symmetry_space_group_name_H-M	'P1'
_symmetry_Int_Tables_number	1
_symmetry_cell_setting	triclinic
loop_
_symmetry_equiv_pos_as_xyz
  x,y,z
_cell_length_a	13.897448
_cell_length_b	17.077404
_cell_length_c	17.077396
_cell_angle_alpha	90.021457
_cell_angle_beta	89.972632
_cell_angle_gamma	89.983204
loop_
_atom_site_label
_atom_site_type_symbol
_atom_site_fract_x
_atom_site_fract_y
_atom_site_fract_z
Zn1	Zn	-0.384038	-1.200083	-0.443890
Zn2	Zn	-0.545351	-1.200002	-0.312626
Zn3	Zn	-0.384069	-1.068815	-0.312633
Zn4	Zn	-0.545290	-1.068795	-0.443845
O5	O	-0.464687	-1.134424	-0.378249
O6	O	-0.405449	-1.309919	-0.426493
O7	O	-0.523994	-1.182574	-0.202780
O8	O	-0.249083	-1.086270	-0.330066
O9	O	-0.523964	-1.309860	-0.330054
O10	O	-0.249060	-1.182712	-0.426500
O11	O	-0.405501	-1.086192	-0.202785
O12	O	-0.405443	-0.958965	-0.330023
O13	O	-0.523862	-1.086236	-0.553698
O14	O	-0.523891	-0.958950	-0.426424
O15	O	-0.405390	-1.182693	-0.553731
O16	O	-0.680324	-1.182555	-0.330011
O17	O	-0.680280	-1.086157	-0.426417
C18	C	-0.464664	-0.930476	-0.378220
C19	C	-0.464678	-0.843226	-0.378226
C20	C	-0.526446	-0.802249	-0.428341
C21	C	-0.526447	-0.720268	-0.428350
C22	C	-0.464682	-0.679267	-0.378241
C23	C	-0.402907	-0.720250	-0.328125
C24	C	-0.402903	-0.802229	-0.328120
C25	C	-0.402922	-0.549380	-0.328138
C26	C	-0.402927	-0.467395	-0.328142
C27	C	-0.526466	-0.467419	-0.428369
C28	C	-0.526461	-0.549398	-0.428363
C29	C	-0.464687	-0.590376	-0.378246
C30	C	-0.715301	-1.134366	-0.378226
C31	C	-0.822515	-1.134414	-0.378242
C32	C	-1.018810	-1.134496	-0.378292
C33	C	-0.909578	-1.134448	-0.378267
C34	C	-0.213094	-1.134502	-0.378289
C35	C	-0.105880	-1.134536	-0.378306
C36	C	-0.464616	-1.134471	-0.582993
C37	C	-0.464585	-1.134491	-0.670243
C38	C	-0.464704	-0.339168	-0.378269
C39	C	-0.464696	-0.426418	-0.378256
C40	C	-0.402892	-1.184718	-0.711251
C41	C	-0.402860	-1.184728	-0.793232
C42	C	-0.464527	-1.134514	-0.834202
C43	C	-0.526223	-1.084281	-0.793188
C44	C	-0.526249	-1.084268	-0.711209
C45	C	-0.526165	-1.084313	-0.964058
C46	C	-0.526140	-1.084326	-1.046043
C47	C	-0.402776	-1.184772	-1.046081
C48	C	-0.402802	-1.184759	-0.964102
C49	C	-0.464500	-1.134528	-0.923093
C50	C	-0.464688	-1.134421	-0.174301
C51	C	-0.464447	-1.134553	-0.087051
H52	H	-0.576745	-0.686908	-0.469157
H53	H	-0.352626	-1.225629	-0.826617
C54	C	-0.334970	-1.239996	-0.919034
C55	C	-0.225309	-1.233627	-0.930319
C56	C	-0.157474	-1.288863	-0.885252
C57	C	-0.199299	-1.350468	-0.828900
C58	C	-0.308965	-1.356840	-0.817612
C59	C	-0.376801	-1.301604	-0.862679
H60	H	-0.194343	-1.188021	-0.972037
H61	H	-0.076291	-1.284146	-0.893608
H62	H	-0.149083	-1.391357	-0.795538
H63	H	-0.339932	-1.402446	-0.775894
H64	H	-0.457983	-1.306321	-0.854323
H65	H	-0.352600	-0.835591	-0.287316
C66	C	-0.334905	-1.240027	-1.091186
C67	C	-0.334866	-1.240042	-1.181360
C68	C	-0.267002	-1.295298	-1.226469
C69	C	-0.199178	-1.350539	-1.181404
C70	C	-0.199215	-1.350526	-1.091225
C71	C	-0.267078	-1.295269	-1.046116
H72	H	-0.385076	-1.199148	-1.214724
H73	H	-0.266976	-1.295308	-1.293225
H74	H	-0.148942	-1.391443	-1.214796
H75	H	-0.149005	-1.391420	-1.057861
H76	H	-0.267104	-1.295260	-0.979360
H77	H	-0.576352	-1.043436	-1.079399
H78	H	-0.576760	-0.582779	-0.469162
C79	C	-0.594122	-1.029022	-0.666100
C80	C	-0.669874	-1.063006	-0.609737
C81	C	-0.737748	-1.007757	-0.564630
C82	C	-0.729870	-0.918524	-0.575886
C83	C	-0.654115	-0.884536	-0.632252
C84	C	-0.586241	-0.939785	-0.677359
H85	H	-0.675708	-1.129065	-0.601402
H86	H	-0.793826	-1.032917	-0.522904
H87	H	-0.780114	-0.877625	-0.542495
H88	H	-0.648280	-0.818477	-0.640587
H89	H	-0.530162	-0.914624	-0.719084
H90	H	-0.576762	-0.434051	-0.469178
H91	H	-0.352614	-0.686860	-0.287329
C92	C	-0.335057	-1.239956	-0.666188
C93	C	-0.376877	-1.301566	-0.609838
C94	C	-0.309037	-1.356804	-0.564777
C95	C	-0.199377	-1.350432	-0.576067
C96	C	-0.157551	-1.288820	-0.632419
C97	C	-0.225391	-1.233582	-0.677480
H98	H	-0.458058	-1.306285	-0.601478
H99	H	-0.339999	-1.402413	-0.523061
H100	H	-0.149158	-1.391322	-0.542710
H101	H	-0.076370	-1.284100	-0.640779
H102	H	-0.194429	-1.187972	-0.719196
C103	C	-0.594034	-1.029065	-0.918941
C104	C	-0.586163	-0.939830	-0.930185
C105	C	-0.654034	-0.884590	-0.885064
C106	C	-0.729777	-0.918585	-0.828699
C107	C	-0.737651	-1.007824	-0.817453
C108	C	-0.669780	-1.063064	-0.862574
H109	H	-0.530091	-0.914661	-0.971912
H110	H	-0.648205	-0.818530	-0.893390
H111	H	-0.780019	-0.877693	-0.795298
H112	H	-0.793723	-1.032993	-0.775726
H113	H	-0.675609	-1.129125	-0.854248
H114	H	-0.352611	-0.582741	-0.287334
H115	H	-0.576745	-0.835626	-0.469142
H116	H	-0.352622	-0.434014	-0.287348
H117	H	-0.576429	-1.043393	-0.826553
