data_functionalizedCrystal
_audit_creation_method	'MofGen! by Chris Wilmer'
_symmetry_space_group_name_H-M	'P1'
_symmetry_Int_Tables_number	1
_symmetry_cell_setting	triclinic
loop_
_symmetry_equiv_pos_as_xyz
  x,y,z
_cell_length_a	23.532355
_cell_length_b	22.610064
_cell_length_c	11.026607
_cell_angle_alpha	90.007521
_cell_angle_beta	84.293256
_cell_angle_gamma	90.004347
loop_
_atom_site_label
_atom_site_type_symbol
_atom_site_fract_x
_atom_site_fract_y
_atom_site_fract_z
O1	O	-0.770724	-0.049129	0.146805
O2	O	-0.607102	-0.049141	0.168158
O3	O	-0.675352	-0.049134	-0.019003
O4	O	-0.702474	-0.049136	0.333966
O5	O	-0.675339	0.049235	-0.018974
O6	O	-0.607089	0.049228	0.168187
O7	O	-0.770711	0.049240	0.146834
Zn8	Zn	-0.688898	0.064852	0.157515
Zn9	Zn	-0.688915	-0.064753	0.157477
O10	O	-0.702461	0.049233	0.333994
C11	C	-0.585823	0.000042	0.167639
C12	C	-0.522436	0.000037	0.166034
C13	C	-0.248460	-0.053578	0.159000
C14	C	-0.308019	-0.053580	0.160519
O15	O	-0.338829	-0.099182	0.161249
N16	N	-0.337799	0.000041	0.161302
C17	C	-0.308015	0.053667	0.160553
O18	O	-0.338814	0.099276	0.161358
C19	C	-0.248456	0.053668	0.159026
C20	C	-0.218680	0.000044	0.158255
C21	C	-0.218684	-0.107199	0.158228
C22	C	-0.159128	-0.107196	0.156711
C23	C	-0.129349	-0.053574	0.155967
C24	C	-0.159125	0.000046	0.156738
C25	C	-0.218673	0.107294	0.158269
C26	C	-0.159110	0.107291	0.156740
C27	C	-0.129334	0.053666	0.155969
C28	C	-0.069790	0.053671	0.154477
N29	N	-0.040010	0.000050	0.153694
C30	C	-0.069790	-0.053573	0.154439
C31	C	-0.433093	0.053660	0.163759
C32	C	-0.492651	0.053660	0.165296
C33	C	-0.492651	-0.053588	0.165259
C34	C	-0.433092	-0.053587	0.163731
C35	C	-0.403313	0.000039	0.162976
C36	C	0.055281	-0.053564	0.151255
C37	C	0.114841	-0.053557	0.149743
C38	C	0.114836	0.053690	0.149774
C39	C	0.055281	0.053684	0.151292
C40	C	0.025505	0.000052	0.152028
O41	O	-0.038942	0.099249	0.153741
O42	O	-0.038983	-0.099174	0.153618
N43	N	-0.688891	0.153305	0.157540
C44	C	-0.719139	0.561950	0.074624
C45	C	-0.719141	0.623869	0.074616
O46	O	-0.744837	0.655891	0.004131
N47	N	-0.688912	0.654842	0.157462
C48	C	-0.658674	0.623891	0.240314
O49	O	-0.632962	0.655922	0.310780
C50	C	-0.658669	0.561973	0.240315
C51	C	-0.688905	0.531003	0.157471
C52	C	-0.749372	0.530980	-0.008214
C53	C	-0.749371	0.469064	-0.008204
C54	C	-0.719137	0.438118	0.074643
C55	C	-0.688904	0.469088	0.157481
C56	C	-0.628428	0.531023	0.323160
C57	C	-0.628426	0.469100	0.323153
C58	C	-0.658661	0.438131	0.240309
C59	C	-0.658668	0.376226	0.240338
N60	N	-0.688898	0.345253	0.157492
C61	C	-0.719132	0.376199	0.074645
C62	C	-0.658686	0.753925	0.240304
C63	C	-0.658694	0.815843	0.240309
C64	C	-0.719160	0.815816	0.074610
C65	C	-0.719155	0.753898	0.074611
C66	C	-0.688915	0.722953	0.157457
C67	C	-0.719127	0.246172	0.074672
C68	C	-0.719125	0.184251	0.074692
C69	C	-0.658657	0.184283	0.240387
C70	C	-0.658661	0.246198	0.240372
C71	C	-0.688897	0.277142	0.157504
O72	O	-0.632984	0.344165	0.310784
O73	O	-0.744834	0.344162	0.004180
C74	C	0.208010	0.000058	0.147363
C75	C	0.144621	0.000065	0.148999
C76	C	-0.670342	0.000050	-0.064137
C77	C	-0.655427	0.000046	-0.198665
N78	N	-0.688926	0.846794	0.157457
C79	C	-0.696611	0.000049	-0.272984
C80	C	-0.681196	0.000045	-0.412026
C81	C	-0.707471	0.000048	0.379129
C82	C	-0.722386	0.000048	0.513657
H83	H	-0.134868	0.150961	0.156136
C84	C	-0.785440	0.000058	-0.433259
H85	H	-0.787530	0.000065	-0.346772
H86	H	-0.803852	-0.034242	-0.460127
H87	H	-0.803834	0.034369	-0.460117
C88	C	-0.618143	0.000040	-0.465113
H89	H	-0.616054	0.000042	-0.551600
H90	H	-0.599743	-0.034264	-0.438256
H91	H	-0.599736	0.034348	-0.438247
C92	C	-0.592377	0.000041	-0.251758
H93	H	-0.590288	0.000043	-0.338245
H94	H	-0.573976	-0.034263	-0.224901
H95	H	-0.573970	0.034349	-0.224892
H96	H	-0.134890	-0.150863	0.156078
C97	C	-0.625376	0.280266	0.331451
H98	H	-0.607359	0.252965	0.380773
H99	H	-0.650984	0.304441	0.381691
H100	H	-0.597229	0.304401	0.288049
C101	C	-0.595174	0.565076	0.414299
H102	H	-0.577167	0.537769	0.463627
H103	H	-0.620808	0.589229	0.464526
H104	H	-0.567022	0.589232	0.370972
H105	H	0.139082	-0.097227	0.149119
H106	H	-0.743282	0.000056	-0.233673
C107	C	-0.525416	-0.112572	0.166072
H108	H	-0.565150	-0.104889	0.167081
H109	H	-0.518559	-0.134609	0.236498
H110	H	-0.512758	-0.134603	0.095120
H111	H	-0.242924	-0.150867	0.158830
H112	H	-0.408852	-0.097253	0.163104
C113	C	0.022535	-0.112558	0.152079
H114	H	0.048805	-0.144487	0.151414
H115	H	0.002200	-0.114796	0.081990
H116	H	-0.003597	-0.114788	0.223368
C117	C	-0.595164	0.435061	0.414288
H118	H	-0.599487	0.393749	0.402429
H119	H	-0.609630	0.445217	0.495105
H120	H	-0.555849	0.445214	0.401536
C121	C	-0.525402	0.112645	0.166159
H122	H	-0.565139	0.104970	0.167180
H123	H	-0.512737	0.134679	0.095235
H124	H	-0.518539	0.134673	0.236613
C125	C	-0.400342	0.112653	0.162954
H126	H	-0.426612	0.144583	0.163651
H127	H	-0.374207	0.114891	0.091678
H128	H	-0.380011	0.114881	0.233056
H129	H	-0.743776	0.728686	0.007152
H130	H	-0.634042	0.159077	0.307844
C131	C	-0.251414	0.166282	0.159119
H132	H	-0.225140	0.198213	0.158445
H133	H	-0.277548	0.168517	0.230398
H134	H	-0.271747	0.168515	0.089020
H135	H	0.031035	0.097349	0.151944
H136	H	-0.743749	0.159038	0.007231
H137	H	0.139093	0.097348	0.149173
C138	C	-0.752389	0.280201	-0.016475
H139	H	-0.770396	0.252882	-0.065796
H140	H	-0.726761	0.304355	-0.066710
H141	H	-0.780542	0.304354	0.026860
C142	C	-0.782623	0.435006	-0.099347
H143	H	-0.800621	0.462312	-0.148691
H144	H	-0.810772	0.410848	-0.056029
H145	H	-0.756982	0.410855	-0.149575
C146	C	-0.782636	0.565012	-0.099348
H147	H	-0.800642	0.537691	-0.148668
H148	H	-0.757013	0.589169	-0.149583
H149	H	-0.810791	0.589160	-0.056006
H150	H	-0.743778	0.841024	0.007149
H151	H	-0.634063	0.728733	0.307777
C152	C	-0.625435	0.849902	0.331438
H153	H	-0.607426	0.822598	0.380768
H154	H	-0.651063	0.874062	0.381665
H155	H	-0.597284	0.874052	0.288089
