data_functionalizedCrystal
_audit_creation_method	'MofGen! by Chris Wilmer'
_symmetry_space_group_name_H-M	'P1'
_symmetry_Int_Tables_number	1
_symmetry_cell_setting	triclinic
loop_
_symmetry_equiv_pos_as_xyz
  x,y,z
_cell_length_a	12.827893
_cell_length_b	17.637651
_cell_length_c	12.827885
_cell_angle_alpha	78.750798
_cell_angle_beta	89.980728
_cell_angle_gamma	101.219116
loop_
_atom_site_label
_atom_site_type_symbol
_atom_site_fract_x
_atom_site_fract_y
_atom_site_fract_z
Zn1	Zn	1.513559	-0.314731	-0.506620
Zn2	Zn	2.013559	0.185269	-0.006620
Zn3	Zn	1.478113	-0.446966	-0.296491
Zn4	Zn	1.978113	0.053034	0.203509
Zn5	Zn	1.338790	-0.314769	-0.331883
Zn6	Zn	1.838790	0.185231	0.168117
Zn7	Zn	1.303462	-0.446907	-0.471206
Zn8	Zn	1.803462	0.053093	0.028794
O9	O	1.408481	-0.380843	-0.401550
O10	O	1.908481	0.119157	0.098450
O11	O	1.655091	-0.332280	-0.478754
O12	O	2.155091	0.167720	0.021246
O13	O	1.459583	-0.429471	-0.154939
O14	O	1.959583	0.070529	0.345061
O15	O	1.391592	-0.204123	-0.384694
O16	O	1.891592	0.295877	0.115306
O17	O	1.629049	-0.429433	-0.324374
O18	O	2.129049	0.070567	0.175626
O19	O	1.519994	-0.204094	-0.513073
O20	O	2.019994	0.295906	-0.013073
O21	O	1.357222	-0.332346	-0.180941
O22	O	1.857222	0.167654	0.319059
O23	O	1.187870	-0.332289	-0.350356
O24	O	1.687870	0.167711	0.149644
O25	O	1.331380	-0.429333	-0.622151
O26	O	1.831380	0.070667	-0.122151
O27	O	1.161914	-0.429370	-0.452716
O28	O	1.661914	0.070630	0.047284
O29	O	1.485738	-0.332223	-0.648169
O30	O	1.985738	0.167777	-0.148169
O31	O	1.425326	-0.557600	-0.290035
O32	O	1.925326	-0.057600	0.209965
O33	O	1.297010	-0.557557	-0.418398
O34	O	1.797010	-0.057557	0.081602
C35	C	1.136975	-0.380828	-0.401534
C36	C	1.636975	0.119172	0.098466
C37	C	1.020819	-0.380841	-0.401547
C38	C	1.520819	0.119159	0.098453
C39	C	0.861819	-0.332752	-0.351040
C40	C	1.361819	0.167248	0.148960
C41	C	0.981873	-0.332738	-0.351026
C42	C	1.481873	0.167262	0.148974
C43	C	1.353517	-0.586266	-0.346556
C44	C	1.853517	-0.086266	0.153444
C45	C	1.330099	-0.674147	-0.323064
C46	C	1.830099	-0.174147	0.176936
C47	C	1.587066	-0.962808	-0.580344
C48	C	2.087066	-0.462808	-0.080344
C49	C	1.565027	-1.045385	-0.558252
C50	C	2.065027	-0.545385	-0.058252
C51	C	1.431412	-1.045522	-0.424442
C52	C	1.931412	-0.545522	0.075558
C53	C	1.453442	-0.962943	-0.446520
C54	C	1.953442	-0.462943	0.053480
C55	C	1.531270	-0.921592	-0.524473
C56	C	2.031270	-0.421592	-0.024473
C57	C	1.397646	-0.921727	-0.390648
C58	C	1.897646	-0.421727	0.109352
C59	C	1.419671	-0.839156	-0.412728
C60	C	1.919671	-0.339156	0.087272
C61	C	1.497493	-0.797799	-0.490680
C62	C	1.997493	-0.297799	0.009320
C63	C	1.553295	-0.839020	-0.546552
C64	C	2.053295	-0.339020	-0.046552
C65	C	1.319814	-0.963079	-0.312701
C66	C	1.819814	-0.463079	0.187299
C67	C	1.264018	-0.921864	-0.256830
C68	C	1.764018	-0.421864	0.243170
C69	C	1.286048	-0.839291	-0.278904
C70	C	1.786048	-0.339291	0.221096
C71	C	1.363869	-0.797934	-0.356855
C72	C	1.863869	-0.297934	0.143145
C73	C	1.230246	-0.798069	-0.223031
C74	C	1.730246	-0.298069	0.276969
C75	C	1.252271	-0.715498	-0.245111
C76	C	1.752271	-0.215498	0.254889
C77	C	1.385895	-0.715362	-0.378935
C78	C	1.885895	-0.215362	0.121065
C79	C	1.681047	-0.380859	-0.401566
C80	C	2.181047	0.119141	0.098434
C81	C	1.797198	-0.380866	-0.401573
C82	C	2.297198	0.119134	0.098427
C83	C	1.408572	-0.380767	-0.674141
C84	C	1.908572	0.119233	-0.174141
C85	C	1.408611	-0.380735	-0.790302
C86	C	1.908611	0.119265	-0.290302
C87	C	1.463688	-0.174618	-0.456782
C88	C	1.963688	0.325382	0.043218
C89	C	1.487214	-0.086737	-0.480318
C90	C	1.987214	0.413263	0.019682
C91	C	1.332298	-0.428734	-0.949272
C92	C	1.832298	0.071266	-0.449272
C93	C	1.332256	-0.428768	-0.829212
C94	C	1.832256	0.071232	-0.329212
C95	C	1.408465	-0.380862	-0.130035
C96	C	1.908465	0.119138	0.369965
C97	C	1.408688	-0.380671	-0.013933
C98	C	1.908688	0.119329	0.486067
H99	H	0.830754	-0.422044	-0.444832
H100	H	1.330754	0.077956	0.055168
O101	O	1.245603	-0.483272	-0.755641
O102	O	1.745603	0.016728	-0.255641
H103	H	1.281625	-0.523485	-0.695137
H104	H	1.781625	-0.023485	-0.195137
H105	H	1.449278	-0.681693	-0.442405
H106	H	1.949278	-0.181693	0.057595
H107	H	1.368042	-1.079201	-0.360976
H108	H	1.868042	-0.579201	0.139024
O109	O	1.495256	-0.326222	-0.863872
O110	O	1.995256	0.173778	-0.363872
H111	H	1.493960	-0.264162	-0.859589
H112	H	1.993960	0.235838	-0.359589
O113	O	1.245698	-0.483202	-0.993671
O114	O	1.745698	0.016798	-0.493671
H115	H	1.246967	-0.545278	-0.956159
H116	H	1.746967	-0.045278	-0.456159
H117	H	1.474054	-0.339546	-0.980410
H118	H	1.974054	0.160454	-0.480410
H119	H	1.515425	-0.730564	-0.508655
H120	H	2.015425	-0.230564	-0.008655
H121	H	1.037395	-0.291549	-0.307758
H122	H	1.537395	0.208451	0.192242
O123	O	1.192095	-0.671038	-0.184850
O124	O	1.692095	-0.171038	0.315150
H125	H	1.248937	-0.633418	-0.141796
H126	H	1.748937	-0.133418	0.358204
O127	O	0.817383	-0.278217	-0.293710
O128	O	1.317383	0.221783	0.206290
H129	H	0.730057	-0.286800	-0.302695
H130	H	1.230057	0.213200	0.197305
O131	O	0.947328	-0.435443	-0.458850
O132	O	1.447328	0.064557	0.041150
H133	H	0.907070	-0.400110	-0.521553
H134	H	1.407070	0.099890	-0.021553
O135	O	1.637241	-0.794409	-0.630627
O136	O	2.137241	-0.294409	-0.130627
H137	H	1.672342	-0.836939	-0.665775
H138	H	2.172342	-0.336939	-0.165775
H139	H	1.650449	-0.929138	-0.643813
H140	H	2.150449	-0.429138	-0.143813
O141	O	1.625217	-1.089843	-0.618509
O142	O	2.125217	-0.589843	-0.118509
H143	H	1.683039	-1.047214	-0.676416
H144	H	2.183039	-0.547214	-0.176416
H145	H	1.301874	-1.030315	-0.294736
H146	H	1.801874	-0.530315	0.205264
O147	O	1.180093	-0.966464	-0.172738
O148	O	1.680093	-0.466464	0.327262
H149	H	1.174159	-1.030806	-0.166760
H150	H	1.674159	-0.530806	0.333240
O151	O	1.146315	-0.842671	-0.138947
O152	O	1.646315	-0.342671	0.361053
H153	H	1.140379	-0.907013	-0.132975
H154	H	1.640379	-0.407013	0.367025
