data_functionalizedCrystal
_audit_creation_method	'MofGen! by Chris Wilmer'
_symmetry_space_group_name_H-M	'P1'
_symmetry_Int_Tables_number	1
_symmetry_cell_setting	triclinic
loop_
_symmetry_equiv_pos_as_xyz
  x,y,z
_cell_length_a	11.169417
_cell_length_b	11.169416
_cell_length_c	11.169409
_cell_angle_alpha	90.029517
_cell_angle_beta	90.019513
_cell_angle_gamma	90.005487
loop_
_atom_site_label
_atom_site_type_symbol
_atom_site_fract_x
_atom_site_fract_y
_atom_site_fract_z
Zn1	Zn	1.835013	-0.477670	0.678556
Zn2	Zn	1.834924	-0.678410	0.477883
Zn3	Zn	1.634299	-0.477744	0.477892
Zn4	Zn	1.634328	-0.678314	0.678529
O5	O	1.734641	-0.578035	0.578215
O6	O	2.002951	-0.504308	0.651944
O7	O	1.808261	-0.651863	0.309934
O8	O	1.660950	-0.309785	0.504525
O9	O	2.002885	-0.651791	0.504511
O10	O	1.808413	-0.309730	0.651953
O11	O	1.660863	-0.504435	0.309941
O12	O	1.466353	-0.504341	0.504499
O13	O	1.660999	-0.651627	0.846483
O14	O	1.466374	-0.651699	0.651906
O15	O	1.808441	-0.504214	0.846503
O16	O	1.808289	-0.846347	0.504484
O17	O	1.660912	-0.846277	0.651898
C18	C	1.422816	-0.578019	0.578201
C19	C	1.289416	-0.578040	0.578224
C20	C	1.734627	-0.889859	0.578213
C21	C	1.734730	-1.023259	0.578253
C22	C	1.734688	-0.264992	0.578243
C23	C	1.734708	-0.131592	0.578255
C24	C	2.047683	-0.578052	0.578230
C25	C	2.181083	-0.578059	0.578236
C26	C	1.734733	-0.577901	0.891258
C27	C	1.734772	-0.577845	1.024658
C28	C	1.734618	-0.578081	0.266390
C29	C	1.734811	-0.577800	0.132991
