data_functionalizedCrystal
_audit_creation_method	'MofGen! by Chris Wilmer'
_symmetry_space_group_name_H-M	'P1'
_symmetry_Int_Tables_number	1
_symmetry_cell_setting	triclinic
loop_
_symmetry_equiv_pos_as_xyz
  x,y,z
_cell_length_a	11.792241
_cell_length_b	10.967819
_cell_length_c	10.065918
_cell_angle_alpha	111.758108
_cell_angle_beta	80.243066
_cell_angle_gamma	95.541128
loop_
_atom_site_label
_atom_site_type_symbol
_atom_site_fract_x
_atom_site_fract_y
_atom_site_fract_z
O1	O	-0.227793	1.732422	0.520931
O2	O	-0.231383	1.356383	0.432491
O3	O	-0.064720	1.553529	0.478866
O4	O	-0.394455	1.535276	0.474556
O5	O	-0.033781	1.519396	0.243851
O6	O	-0.200444	1.322250	0.197476
O7	O	-0.196853	1.698289	0.285917
Zn8	Zn	-0.193736	1.504850	0.204383
Zn9	Zn	-0.234500	1.549822	0.514024
O10	O	-0.363516	1.501143	0.239542
C11	C	-0.213313	1.291176	0.303661
C12	C	-0.205552	1.147730	0.269925
C13	C	-0.210114	0.953211	0.341788
C14	C	-0.218126	1.101469	0.376647
C15	C	-0.421314	1.519356	0.357316
C16	C	-0.547441	1.522786	0.358117
C17	C	-0.778366	1.529101	0.359637
C18	C	-0.649863	1.525592	0.358793
C19	C	-0.006923	1.535317	0.361094
C20	C	0.119203	1.531888	0.360302
C21	C	-0.214923	1.763497	0.414749
C22	C	-0.222686	1.906944	0.448495
N23	N	-0.165915	1.474168	-0.006937
C24	C	-0.224821	1.539138	-0.059440
C25	C	-0.203399	1.515535	-0.222157
N26	N	-0.262312	1.580514	0.725347
H27	H	-0.234828	1.171614	0.493819
H28	H	-0.193426	0.883060	0.224624
F29	F	-0.183737	1.056051	0.116771
H30	H	-0.239387	0.977092	0.565658
H31	H	-0.328604	1.653620	-0.199143
H32	H	-0.099623	1.401074	-0.082452
H33	H	-0.291106	1.612240	0.016077
H34	H	-0.137101	1.442437	-0.297667
