data_functionalizedCrystal
_audit_creation_method	'MofGen! by Chris Wilmer'
_symmetry_space_group_name_H-M	'P1'
_symmetry_Int_Tables_number	1
_symmetry_cell_setting	triclinic
loop_
_symmetry_equiv_pos_as_xyz
  x,y,z
_cell_length_a	10.654556
_cell_length_b	10.654551
_cell_length_c	9.730223
_cell_angle_alpha	90.001469
_cell_angle_beta	89.999363
_cell_angle_gamma	84.486385
loop_
_atom_site_label
_atom_site_type_symbol
_atom_site_fract_x
_atom_site_fract_y
_atom_site_fract_z
O1	O	1.667830	0.176430	-0.114294
O2	O	1.302353	0.193228	-0.114293
O3	O	1.493494	0.002090	-0.114295
O4	O	1.476689	0.367568	-0.114293
O5	O	1.493492	0.002095	0.114285
O6	O	1.302351	0.193233	0.114287
O7	O	1.667828	0.176435	0.114286
Zn8	Zn	1.485089	0.184834	0.150578
Zn9	Zn	1.485092	0.184828	-0.150586
O10	O	1.476687	0.367573	0.114287
C11	C	1.255554	0.191995	-0.000003
C12	C	1.116111	0.188300	-0.000003
C13	C	1.492259	-0.044706	-0.000008
C14	C	1.488566	-0.184149	-0.000017
C15	C	0.919582	0.183098	-0.124613
C16	C	1.050604	0.186562	-0.124607
C17	C	1.050590	0.186561	0.124603
C18	C	0.919571	0.183087	0.124596
C19	C	0.919590	0.183104	-0.268493
C20	C	1.050613	0.186569	-0.268487
C21	C	1.486835	-0.249664	-0.124613
C22	C	1.483355	-0.380684	-0.124607
C23	C	1.483342	-0.380664	0.124603
C24	C	1.486813	-0.249645	0.124596
C25	C	1.486848	-0.249677	-0.268493
C26	C	1.483368	-0.380697	-0.268487
C27	C	1.714627	0.177667	-0.000008
C28	C	1.854070	0.181362	-0.000017
C29	C	1.477922	0.414368	-0.000003
C30	C	1.481615	0.553811	-0.000003
N31	N	1.485096	0.184838	0.356114
N32	N	1.485094	0.184815	-0.356122
C33	C	1.569755	0.100231	0.428040
C34	C	1.569752	0.100216	0.571923
C35	C	1.400426	0.269426	0.571942
C36	C	1.400424	0.269434	0.428062
C37	C	1.667518	0.002543	0.428030
C38	C	1.667515	0.002527	0.571913
H39	H	0.866239	0.181648	0.226054
H40	H	1.103937	0.187965	0.226058
H41	H	1.400059	-0.203399	-0.323742
F42	F	1.793661	0.030646	0.622962
F43	F	1.481473	-0.450381	0.257217
H44	H	0.894767	0.094429	-0.323742
F45	F	1.639490	-0.123630	0.376976
F46	F	1.596811	-0.441209	-0.340683
F47	F	1.310306	0.359467	0.351514
F48	F	1.488621	-0.179920	0.257208
F49	F	1.310317	0.359453	0.648525
H50	H	1.758702	0.033133	0.383404
F51	F	1.083080	0.302475	-0.340681
F52	F	1.606570	-0.211023	-0.326849
F53	F	1.363646	-0.419355	-0.326850
H54	H	0.867886	0.272547	-0.313137
F55	F	1.118203	0.069658	-0.326843
H56	H	1.637001	-0.088696	0.616528
