data_functionalizedCrystal
_audit_creation_method	'MofGen! by Chris Wilmer'
_symmetry_space_group_name_H-M	'P1'
_symmetry_Int_Tables_number	1
_symmetry_cell_setting	triclinic
loop_
_symmetry_equiv_pos_as_xyz
  x,y,z
_cell_length_a	23.532407
_cell_length_b	23.532407
_cell_length_c	12.376897
_cell_angle_alpha	77.272789
_cell_angle_beta	77.276354
_cell_angle_gamma	82.848712
loop_
_atom_site_label
_atom_site_type_symbol
_atom_site_fract_x
_atom_site_fract_y
_atom_site_fract_z
O1	O	0.745582	0.059447	0.093938
O2	O	0.995582	0.309447	0.343938
O3	O	1.245582	0.559447	0.593938
O4	O	1.495582	0.809447	0.843938
O5	O	0.579717	0.069449	0.093957
O6	O	0.829717	0.319449	0.343957
O7	O	1.079717	0.569449	0.593957
O8	O	1.329717	0.819449	0.843957
O9	O	0.667653	-0.018481	0.093926
O10	O	0.917653	0.231519	0.343926
O11	O	1.167653	0.481519	0.593926
O12	O	1.417653	0.731519	0.843926
O13	O	0.657646	0.147377	0.093969
O14	O	0.907646	0.397377	0.343969
O15	O	1.157646	0.647377	0.593969
O16	O	1.407646	0.897377	0.843969
O17	O	0.687013	0.000904	-0.094069
O18	O	0.937013	0.250904	0.155931
O19	O	1.187013	0.500904	0.405931
O20	O	1.437013	0.750904	0.655931
O21	O	0.599076	0.088834	-0.094038
O22	O	0.849076	0.338834	0.155962
O23	O	1.099076	0.588834	0.405962
O24	O	1.349076	0.838834	0.655962
O25	O	0.764942	0.078833	-0.094058
O26	O	1.014942	0.328833	0.155942
O27	O	1.264942	0.578833	0.405942
O28	O	1.514942	0.828833	0.655942
Zn29	Zn	0.685083	0.086911	-0.123896
Zn30	Zn	0.935083	0.336911	0.126104
Zn31	Zn	1.185083	0.586911	0.376104
Zn32	Zn	1.435083	0.836911	0.626104
Zn33	Zn	0.659576	0.061370	0.123796
Zn34	Zn	0.909576	0.311370	0.373796
Zn35	Zn	1.159576	0.561370	0.623796
Zn36	Zn	1.409576	0.811370	0.873796
O37	O	0.677005	0.166763	-0.094027
O38	O	0.927005	0.416763	0.155973
O39	O	1.177005	0.666763	0.405973
O40	O	1.427005	0.916763	0.655973
C41	C	0.568180	0.078886	-0.000038
C42	C	0.818180	0.328886	0.249962
C43	C	1.068180	0.578886	0.499962
C44	C	1.318180	0.828886	0.749962
C45	C	0.504963	0.078120	-0.000032
C46	C	0.754963	0.328120	0.249968
C47	C	1.004963	0.578120	0.499968
C48	C	1.254963	0.828120	0.749968
C49	C	0.238800	0.022929	-0.000077
C50	C	0.488800	0.272929	0.249923
C51	C	0.738800	0.522929	0.499923
C52	C	0.988800	0.772929	0.749923
C53	C	0.298200	0.023640	-0.000076
C54	C	0.548200	0.273640	0.249924
C55	C	0.798200	0.523640	0.499924
C56	C	1.048200	0.773640	0.749924
O57	O	0.334950	-0.020140	-0.000127
O58	O	0.584950	0.229860	0.249873
O59	O	0.834950	0.479860	0.499873
O60	O	1.084950	0.729860	0.749873
N61	N	0.320824	0.075914	-0.000055
N62	N	0.570824	0.325914	0.249945
N63	N	0.820824	0.575914	0.499945
N64	N	1.070824	0.825914	0.749945
C65	C	0.284045	0.127482	-0.000046
C66	C	0.534045	0.377482	0.249954
C67	C	0.784045	0.627482	0.499954
C68	C	1.034045	0.877482	0.749954
O69	O	0.308743	0.172010	-0.000029
O70	O	0.558743	0.422010	0.249971
O71	O	0.808743	0.672010	0.499971
O72	O	1.058743	0.922010	0.749971
C73	C	0.224647	0.126771	-0.000055
C74	C	0.474647	0.376771	0.249945
C75	C	0.724647	0.626771	0.499945
C76	C	0.974647	0.876771	0.749945
C77	C	0.202026	0.074492	-0.000064
C78	C	0.452026	0.324492	0.249936
C79	C	0.702026	0.574492	0.499936
C80	C	0.952026	0.824492	0.749936
C81	C	0.216178	-0.029345	-0.000088
C82	C	0.466178	0.220655	0.249912
C83	C	0.716178	0.470655	0.499912
C84	C	0.966178	0.720655	0.749912
C85	C	0.156781	-0.030057	-0.000086
C86	C	0.406781	0.219943	0.249914
C87	C	0.656781	0.469943	0.499914
C88	C	0.906781	0.719943	0.749914
C89	C	0.120007	0.021506	-0.000073
C90	C	0.370007	0.271506	0.249927
C91	C	0.620007	0.521506	0.499927
C92	C	0.870007	0.771506	0.749927
C93	C	0.142629	0.073781	-0.000063
C94	C	0.392629	0.323781	0.249937
C95	C	0.642629	0.573781	0.499937
C96	C	0.892629	0.823781	0.749937
C97	C	0.187871	0.178338	-0.000054
C98	C	0.437871	0.428338	0.249946
C99	C	0.687871	0.678338	0.499946
C100	C	0.937871	0.928338	0.749946
C101	C	0.128469	0.177622	-0.000063
C102	C	0.378469	0.427622	0.249937
C103	C	0.628469	0.677622	0.499937
C104	C	0.878469	0.927622	0.749937
C105	C	0.105848	0.125344	-0.000073
C106	C	0.355848	0.375344	0.249927
C107	C	0.605848	0.625344	0.499927
C108	C	0.855848	0.875344	0.749927
C109	C	0.046459	0.124632	-0.000048
C110	C	0.296459	0.374632	0.249952
C111	C	0.546459	0.624632	0.499952
C112	C	0.796459	0.874632	0.749952
N113	N	0.023835	0.072358	-0.000070
N114	N	0.273835	0.322358	0.249930
N115	N	0.523835	0.572358	0.499930
N116	N	0.773835	0.822358	0.749930
C117	C	0.060609	0.020795	-0.000082
C118	C	0.310609	0.270795	0.249918
C119	C	0.560609	0.520795	0.499918
C120	C	0.810609	0.770795	0.749918
C121	C	0.408786	0.128971	-0.000030
C122	C	0.658786	0.378971	0.249970
C123	C	0.908786	0.628971	0.499970
C124	C	1.158786	0.878971	0.749970
C125	C	0.468183	0.129682	-0.000013
C126	C	0.718183	0.379682	0.249987
C127	C	0.968183	0.629682	0.499987
C128	C	1.218183	0.879682	0.749987
C129	C	0.482333	0.025841	-0.000046
C130	C	0.732333	0.275841	0.249954
C131	C	0.982333	0.525841	0.499954
C132	C	1.232333	0.775841	0.749954
C133	C	0.422935	0.025130	-0.000054
C134	C	0.672935	0.275130	0.249946
C135	C	0.922935	0.525130	0.499946
C136	C	1.172935	0.775130	0.749946
C137	C	0.386162	0.076697	-0.000051
C138	C	0.636162	0.326697	0.249949
C139	C	0.886162	0.576697	0.499949
C140	C	1.136162	0.826697	0.749949
C141	C	-0.064128	0.019305	-0.000078
C142	C	0.185872	0.269305	0.249922
C143	C	0.435872	0.519305	0.499922
C144	C	0.685872	0.769305	0.749922
C145	C	-0.123531	0.018598	-0.000071
C146	C	0.126469	0.268598	0.249929
C147	C	0.376469	0.518598	0.499929
C148	C	0.626469	0.768598	0.749929
C149	C	-0.137676	0.122439	-0.000045
C150	C	0.112324	0.372439	0.249955
C151	C	0.362324	0.622439	0.499955
C152	C	0.612324	0.872439	0.749955
C153	C	-0.078279	0.123146	-0.000045
C154	C	0.171721	0.373146	0.249955
C155	C	0.421721	0.623146	0.499955
C156	C	0.671721	0.873146	0.749955
C157	C	-0.041506	0.071575	-0.000065
C158	C	0.208494	0.321575	0.249935
C159	C	0.458494	0.571575	0.499935
C160	C	0.708494	0.821575	0.749935
O161	O	0.009675	0.168390	-0.000003
O162	O	0.259675	0.418390	0.249997
O163	O	0.509675	0.668390	0.499997
O164	O	0.759675	0.918390	0.749997
O165	O	0.035904	-0.023725	-0.000114
O166	O	0.285904	0.226275	0.249886
O167	O	0.535904	0.476275	0.499886
O168	O	0.785904	0.726275	0.749886
C169	C	0.677079	-0.030005	-0.000074
C170	C	0.927079	0.219995	0.249926
C171	C	1.177079	0.469995	0.499926
C172	C	1.427079	0.719995	0.749926
C173	C	0.676314	-0.093221	-0.000083
C174	C	0.926314	0.156779	0.249917
C175	C	1.176314	0.406779	0.499917
C176	C	1.426314	0.656779	0.749917
C177	C	0.723541	-0.492330	-0.000027
C178	C	0.973541	-0.242330	0.249973
C179	C	1.223541	0.007670	0.499973
C180	C	1.473541	0.257670	0.749973
C181	C	0.722829	-0.551731	-0.000018
C182	C	0.972829	-0.301731	0.249982
C183	C	1.222829	-0.051731	0.499982
C184	C	1.472829	0.198269	0.749982
O185	O	0.766611	-0.588479	0.000019
O186	O	1.016611	-0.338479	0.250019
O187	O	1.266611	-0.088479	0.500019
O188	O	1.516611	0.161521	0.750019
N189	N	0.670552	-0.574357	-0.000013
N190	N	0.920552	-0.324357	0.249987
N191	N	1.170552	-0.074357	0.499987
N192	N	1.420552	0.175643	0.749987
C193	C	0.618983	-0.537581	-0.000004
C194	C	0.868983	-0.287581	0.249996
C195	C	1.118983	-0.037581	0.499996
C196	C	1.368983	0.212419	0.749996
O197	O	0.574452	-0.562281	0.000002
O198	O	0.824452	-0.312281	0.250002
O199	O	1.074452	-0.062281	0.500002
O200	O	1.324452	0.187719	0.750002
C201	C	0.619695	-0.478182	-0.000005
C202	C	0.869695	-0.228182	0.249995
C203	C	1.119695	0.021818	0.499995
C204	C	1.369695	0.271818	0.749995
C205	C	0.671976	-0.455557	-0.000022
C206	C	0.921976	-0.205557	0.249978
C207	C	1.171976	0.044443	0.499978
C208	C	1.421976	0.294443	0.749978
C209	C	0.775818	-0.469705	-0.000042
C210	C	1.025818	-0.219705	0.249958
C211	C	1.275818	0.030295	0.499958
C212	C	1.525818	0.280295	0.749958
C213	C	0.776531	-0.410307	-0.000053
C214	C	1.026531	-0.160307	0.249947
C215	C	1.276531	0.089693	0.499947
C216	C	1.526531	0.339693	0.749947
C217	C	0.724966	-0.373535	-0.000048
C218	C	0.974966	-0.123535	0.249952
C219	C	1.224966	0.126465	0.499952
C220	C	1.474966	0.376465	0.749952
C221	C	0.672689	-0.396160	-0.000033
C222	C	0.922689	-0.146160	0.249967
C223	C	1.172689	0.103840	0.499967
C224	C	1.422689	0.353840	0.749967
C225	C	0.568126	-0.441407	0.000011
C226	C	0.818126	-0.191407	0.250011
C227	C	1.068126	0.058593	0.500011
C228	C	1.318126	0.308593	0.750011
C229	C	0.568842	-0.382004	0.000011
C230	C	0.818842	-0.132004	0.250011
C231	C	1.068842	0.117996	0.500011
C232	C	1.318842	0.367996	0.750011
C233	C	0.621124	-0.359380	-0.000005
C234	C	0.871124	-0.109380	0.249995
C235	C	1.121124	0.140620	0.499995
C236	C	1.371124	0.390620	0.749995
C237	C	0.621836	-0.299990	-0.000039
C238	C	0.871836	-0.049990	0.249961
C239	C	1.121836	0.200010	0.499961
C240	C	1.371836	0.450010	0.749961
N241	N	0.674113	-0.277364	-0.000044
N242	N	0.924113	-0.027364	0.249956
N243	N	1.174113	0.222636	0.499956
N244	N	1.424113	0.472636	0.749956
C245	C	0.725678	-0.314136	-0.000049
C246	C	0.975678	-0.064136	0.249951
C247	C	1.225678	0.185864	0.499951
C248	C	1.475678	0.435864	0.749951
C249	C	0.617491	-0.662324	-0.000001
C250	C	0.867491	-0.412324	0.249999
C251	C	1.117491	-0.162324	0.499999
C252	C	1.367491	0.087676	0.749999
C253	C	0.616779	-0.721721	-0.000009
C254	C	0.866779	-0.471721	0.249991
C255	C	1.116779	-0.221721	0.499991
C256	C	1.366779	0.028279	0.749991
C257	C	0.720625	-0.735867	-0.000020
C258	C	0.970625	-0.485867	0.249980
C259	C	1.220625	-0.235867	0.499980
C260	C	1.470625	0.014133	0.749980
C261	C	0.721337	-0.676468	-0.000021
C262	C	0.971337	-0.426468	0.249979
C263	C	1.221337	-0.176468	0.499979
C264	C	1.471337	0.073532	0.749979
C265	C	0.669768	-0.639697	-0.000007
C266	C	0.919768	-0.389697	0.249993
C267	C	1.169768	-0.139697	0.499993
C268	C	1.419768	0.110303	0.749993
C269	C	0.727170	-0.189397	-0.000072
C270	C	0.977170	0.060603	0.249928
C271	C	1.227170	0.310603	0.499928
C272	C	1.477170	0.560603	0.749928
C273	C	0.727878	-0.129993	-0.000088
C274	C	0.977878	0.120007	0.249912
C275	C	1.227878	0.370007	0.499912
C276	C	1.477878	0.620007	0.749912
C277	C	0.624032	-0.115853	-0.000070
C278	C	0.874032	0.134147	0.249930
C279	C	1.124032	0.384147	0.499930
C280	C	1.374032	0.634147	0.749930
C281	C	0.623324	-0.175251	-0.000061
C282	C	0.873324	0.074749	0.249939
C283	C	1.123324	0.324749	0.499939
C284	C	1.373324	0.574749	0.749939
C285	C	0.674897	-0.212022	-0.000058
C286	C	0.924897	0.037978	0.249942
C287	C	1.174897	0.287978	0.499942
C288	C	1.424897	0.537978	0.749942
O289	O	0.578077	-0.263208	-0.000071
O290	O	0.828077	-0.013208	0.249929
O291	O	1.078077	0.236792	0.499929
O292	O	1.328077	0.486792	0.749929
O293	O	0.770200	-0.289429	-0.000040
O294	O	1.020200	-0.039429	0.249960
O295	O	1.270200	0.210571	0.499960
O296	O	1.520200	0.460571	0.749960
C297	C	0.776478	0.069395	-0.000060
C298	C	1.026478	0.319395	0.249940
C299	C	1.276478	0.569395	0.499940
C300	C	1.526478	0.819395	0.749940
C301	C	0.839695	0.070161	-0.000059
C302	C	1.089695	0.320161	0.249941
C303	C	1.339695	0.570161	0.499941
C304	C	1.589695	0.820161	0.749941
C305	C	0.667580	0.178286	-0.000024
C306	C	0.917580	0.428286	0.249976
C307	C	1.167580	0.678286	0.499976
C308	C	1.417580	0.928286	0.749976
C309	C	0.668344	0.241501	-0.000008
C310	C	0.918344	0.491501	0.249992
C311	C	1.168344	0.741501	0.499992
C312	C	1.418344	0.991501	0.749992
N313	N	0.702494	0.104342	-0.292940
N314	N	0.952494	0.354342	-0.042940
N315	N	1.202494	0.604342	0.207060
N316	N	1.452494	0.854342	0.457060
C317	C	0.601729	0.003468	-0.648011
C318	C	0.851729	0.253468	-0.398011
C319	C	1.101729	0.503468	-0.148011
C320	C	1.351729	0.753468	0.101989
C321	C	0.589534	-0.008733	-0.529681
C322	C	0.839534	0.241267	-0.279681
C323	C	1.089534	0.491267	-0.029681
C324	C	1.339534	0.741267	0.220319
C325	C	0.617773	0.019535	-0.470490
C326	C	0.867773	0.269535	-0.220490
C327	C	1.117773	0.519535	0.029510
C328	C	1.367773	0.769535	0.279510
C329	C	0.658210	0.060006	-0.529640
C330	C	0.908210	0.310006	-0.279640
C331	C	1.158210	0.560006	-0.029640
C332	C	1.408210	0.810006	0.220360
C333	C	0.670410	0.072205	-0.647981
C334	C	0.920410	0.322205	-0.397981
C335	C	1.170410	0.572205	-0.147981
C336	C	1.420410	0.822205	0.102019
C337	C	0.686453	0.088271	-0.470460
C338	C	0.936453	0.338271	-0.220460
C339	C	1.186453	0.588271	0.029540
C340	C	1.436453	0.838271	0.279540
C341	C	0.726890	0.128742	-0.529610
C342	C	0.976890	0.378742	-0.279610
C343	C	1.226890	0.628742	-0.029610
C344	C	1.476890	0.878742	0.220390
C345	C	0.739088	0.140939	-0.647940
C346	C	0.989088	0.390939	-0.397940
C347	C	1.239088	0.640939	-0.147940
C348	C	1.489088	0.890939	0.102060
C349	C	0.710849	0.112671	-0.707131
C350	C	0.960849	0.362671	-0.457131
C351	C	1.210849	0.612671	-0.207131
C352	C	1.460849	0.862671	0.042869
C353	C	0.674253	0.076072	-0.352119
C354	C	0.924253	0.326072	-0.102119
C355	C	1.174253	0.576072	0.147881
C356	C	1.424253	0.826072	0.397881
C357	C	0.742934	0.144809	-0.352090
C358	C	0.992934	0.394809	-0.102090
C359	C	1.242934	0.644809	0.147910
C360	C	1.492934	0.894809	0.397910
C361	C	0.755129	0.157010	-0.470419
C362	C	1.005129	0.407010	-0.220419
C363	C	1.255129	0.657010	0.029581
C364	C	1.505129	0.907010	0.279581
N365	N	0.642169	0.043935	0.292839
N366	N	0.892169	0.293935	0.542839
N367	N	1.142169	0.543935	0.792839
N368	N	1.392169	0.793935	1.042839
H369	H	-0.034194	-0.022690	-0.000094
H370	H	0.215806	0.227310	0.249906
H371	H	0.465806	0.477310	0.499906
H372	H	0.715806	0.727310	0.749906
H373	H	0.788054	0.189962	-0.518596
H374	H	1.038054	0.439962	-0.268596
H375	H	1.288054	0.689962	-0.018596
H376	H	1.538054	0.939962	0.231404
H377	H	0.762612	-0.765819	-0.000020
H378	H	1.012612	-0.515819	0.249980
H379	H	1.262612	-0.265819	0.499980
H380	H	1.512612	-0.015819	0.749980
H381	H	0.526847	-0.352068	0.000025
H382	H	0.776847	-0.102068	0.250025
H383	H	1.026847	0.147932	0.500025
H384	H	1.276847	0.397932	0.750025
H385	H	0.607840	0.009599	-0.374141
H386	H	0.857840	0.259599	-0.124141
H387	H	1.107840	0.509599	0.125859
H388	H	1.357840	0.759599	0.375859
H389	H	0.556611	-0.041685	-0.481530
H390	H	0.806611	0.208315	-0.231530
H391	H	1.056611	0.458315	0.018470
H392	H	1.306611	0.708315	0.268470
C393	C	0.212745	0.235844	-0.000045
C394	C	0.462745	0.485844	0.249955
C395	C	0.712745	0.735844	0.499955
C396	C	0.962745	0.985844	0.749955
H397	H	0.253387	0.228891	-0.000035
H398	H	0.503387	0.478891	0.249965
H399	H	0.753387	0.728891	0.499965
H400	H	1.003387	0.978891	0.749965
H401	H	0.206852	0.263817	-0.065600
H402	H	0.456852	0.513817	0.184400
H403	H	0.706852	0.763817	0.434400
H404	H	0.956852	1.013817	0.684400
H405	H	0.193344	0.250299	0.065525
H406	H	0.443344	0.500299	0.315525
H407	H	0.693344	0.750299	0.565525
H408	H	0.943344	1.000299	0.815525
H409	H	-0.167628	0.164420	-0.000029
H410	H	0.082372	0.414420	0.249971
H411	H	0.332372	0.664420	0.499971
H412	H	0.582372	0.914420	0.749971
H413	H	0.578745	-0.019547	-0.696215
H414	H	0.828745	0.230453	-0.446215
H415	H	1.078745	0.480453	-0.196215
H416	H	1.328745	0.730453	0.053785
C417	C	0.724269	0.126086	-0.837295
C418	C	0.974269	0.376086	-0.587295
C419	C	1.224269	0.626086	-0.337295
C420	C	1.474269	0.876086	-0.087295
H421	H	0.701661	0.103451	-0.864070
H422	H	0.951661	0.353451	-0.614070
H423	H	1.201661	0.603451	-0.364070
H424	H	1.451661	0.853451	-0.114070
H425	H	0.714801	0.166438	-0.864071
H426	H	0.964801	0.416438	-0.614071
H427	H	1.214801	0.666438	-0.364071
H428	H	1.464801	0.916438	-0.114071
H429	H	0.764629	0.116630	-0.864047
H430	H	1.014629	0.366630	-0.614047
H431	H	1.264629	0.616630	-0.364047
H432	H	1.514629	0.866630	-0.114047
C433	C	0.559271	-0.746600	0.000000
C434	C	0.809271	-0.496600	0.250000
C435	C	1.059271	-0.246600	0.500000
C436	C	1.309271	0.003400	0.750000
H437	H	0.528665	-0.716189	0.000010
H438	H	0.778665	-0.466189	0.250010
H439	H	1.028665	-0.216189	0.500010
H440	H	1.278665	0.033811	0.750010
H441	H	0.563580	-0.762726	-0.065551
H442	H	0.813580	-0.512726	0.184449
H443	H	1.063580	-0.262726	0.434449
H444	H	1.313580	-0.012726	0.684449
H445	H	0.550081	-0.776230	0.065573
H446	H	0.800081	-0.526230	0.315573
H447	H	1.050081	-0.276230	0.565573
H448	H	1.300081	-0.026230	0.815573
H449	H	0.138369	-0.072627	-0.000099
H450	H	0.388369	0.177373	0.249901
H451	H	0.638369	0.427373	0.499901
H452	H	0.888369	0.677373	0.749901
C453	C	0.256620	-0.086071	-0.000091
C454	C	0.506620	0.163929	0.249909
C455	C	0.756620	0.413929	0.499909
C456	C	1.006620	0.663929	0.749909
H457	H	0.234630	-0.117301	-0.000090
H458	H	0.484630	0.132699	0.249910
H459	H	0.734630	0.382699	0.499910
H460	H	0.984630	0.632699	0.749910
H461	H	0.286844	-0.081202	-0.065642
H462	H	0.536844	0.168798	0.184358
H463	H	0.786844	0.418798	0.434358
H464	H	1.036844	0.668798	0.684358
H465	H	0.273325	-0.094714	0.065483
H466	H	0.523325	0.155286	0.315483
H467	H	0.773325	0.405286	0.565483
H468	H	1.023325	0.655286	0.815483
C469	C	0.785389	-0.105110	-0.000100
C470	C	1.035389	0.144890	0.249900
C471	C	1.285389	0.394890	0.499900
C472	C	1.535389	0.644890	0.749900
H473	H	0.815995	-0.135523	-0.000089
H474	H	1.065995	0.114477	0.249911
H475	H	1.315995	0.364477	0.499911
H476	H	1.565995	0.614477	0.749911
H477	H	0.794580	-0.075479	-0.065660
H478	H	1.044580	0.174521	0.184340
H479	H	1.294580	0.424521	0.434340
H480	H	1.544580	0.674521	0.684340
H481	H	0.781074	-0.088988	0.065464
H482	H	1.031074	0.161012	0.315464
H483	H	1.281074	0.411012	0.565464
H484	H	1.531074	0.661012	0.815464
H485	H	0.772020	0.173888	-0.696097
H486	H	1.022020	0.423888	-0.446097
H487	H	1.272020	0.673888	-0.196097
H488	H	1.522020	0.923888	0.053903
C489	C	0.088021	0.234347	-0.000048
C490	C	0.338021	0.484347	0.249952
C491	C	0.588021	0.734347	0.499952
C492	C	0.838021	0.984347	0.749952
H493	H	0.110004	0.265579	-0.000031
H494	H	0.360004	0.515579	0.249969
H495	H	0.610004	0.765579	0.499969
H496	H	0.860004	1.015579	0.749969
H497	H	0.071305	0.242991	-0.065603
H498	H	0.321305	0.492991	0.184397
H499	H	0.571305	0.742991	0.434397
H500	H	0.821305	0.992991	0.684397
H501	H	0.057804	0.229467	0.065522
H502	H	0.307804	0.479467	0.315522
H503	H	0.557804	0.729467	0.565522
H504	H	0.807804	0.979467	0.815522
H505	H	0.769166	-0.219330	-0.000066
H506	H	1.019166	0.030670	0.249934
H507	H	1.269166	0.280670	0.499934
H508	H	1.519166	0.530670	0.749934
C509	C	0.560763	-0.621878	-0.000007
C510	C	0.810763	-0.371878	0.249993
C511	C	1.060763	-0.121878	0.499993
C512	C	1.310763	0.128122	0.749993
H513	H	0.529532	-0.643864	-0.000014
H514	H	0.779532	-0.393864	0.249986
H515	H	1.029532	-0.143864	0.499986
H516	H	1.279532	0.106136	0.749986
H517	H	0.552125	-0.605165	0.065548
H518	H	0.802125	-0.355165	0.315548
H519	H	1.052125	-0.105165	0.565548
H520	H	1.302125	0.144835	0.815548
H521	H	0.565635	-0.591658	-0.065577
H522	H	0.815635	-0.341658	0.184423
H523	H	1.065635	-0.091658	0.434423
H524	H	1.315635	0.158342	0.684423
C525	C	-0.053395	0.180649	-0.000019
C526	C	0.196605	0.430649	0.249981
C527	C	0.446605	0.680649	0.499981
C528	C	0.696605	0.930649	0.749981
H529	H	-0.083806	0.211256	-0.000014
H530	H	0.166194	0.461256	0.249986
H531	H	0.416194	0.711256	0.499986
H532	H	0.666194	0.961256	0.749986
H533	H	-0.037267	0.176325	0.065535
H534	H	0.212733	0.426325	0.315535
H535	H	0.462733	0.676325	0.565535
H536	H	0.712733	0.926325	0.815535
H537	H	-0.023768	0.189849	-0.065589
H538	H	0.226232	0.439849	0.184411
H539	H	0.476232	0.689849	0.434411
H540	H	0.726232	0.939849	0.684411
H541	H	0.525552	-0.459817	0.000032
H542	H	0.775552	-0.209817	0.250032
H543	H	1.025552	0.040183	0.500032
H544	H	1.275552	0.290183	0.750032
C545	C	0.398057	-0.032375	-0.000076
C546	C	0.648057	0.217625	0.249924
C547	C	0.898057	0.467625	0.499924
C548	C	1.148057	0.717625	0.749924
H549	H	0.428471	-0.062978	-0.000088
H550	H	0.678471	0.187022	0.249912
H551	H	0.928471	0.437022	0.499912
H552	H	1.178471	0.687022	0.749912
H553	H	0.368424	-0.041574	0.065475
H554	H	0.618424	0.208426	0.315475
H555	H	0.868424	0.458426	0.565475
H556	H	1.118424	0.708426	0.815475
H557	H	0.381940	-0.028051	-0.065650
H558	H	0.631940	0.221949	0.184350
H559	H	0.881940	0.471949	0.434350
H560	H	1.131940	0.721949	0.684350
C561	C	0.773997	0.175906	-0.286992
C562	C	1.023997	0.425906	-0.036992
C563	C	1.273997	0.675906	0.213008
C564	C	1.523997	0.925906	0.463008
H565	H	0.760936	0.162850	-0.208046
H566	H	1.010936	0.412850	0.041954
H567	H	1.260936	0.662850	0.291954
H568	H	1.510936	0.912850	0.541954
H569	H	0.815021	0.167126	-0.306371
H570	H	1.065021	0.417126	-0.056371
H571	H	1.315021	0.667126	0.193629
H572	H	1.565021	0.917126	0.443629
H573	H	0.765188	0.216929	-0.306382
H574	H	1.015188	0.466929	-0.056382
H575	H	1.265188	0.716929	0.193618
H576	H	1.515188	0.966929	0.443618
C577	C	0.834038	-0.385430	-0.000050
C578	C	1.084038	-0.135430	0.249950
C579	C	1.334038	0.114570	0.499950
C580	C	1.584038	0.364570	0.749950
H581	H	0.864640	-0.415846	-0.000038
H582	H	1.114640	-0.165846	0.249962
H583	H	1.364640	0.084154	0.499962
H584	H	1.614640	0.334154	0.749962
H585	H	0.843235	-0.355797	-0.065605
H586	H	1.093235	-0.105797	0.184395
H587	H	1.343235	0.144203	0.434395
H588	H	1.593235	0.394203	0.684395
H589	H	0.829721	-0.369313	0.065520
H590	H	1.079721	-0.119313	0.315520
H591	H	1.329721	0.130687	0.565520
H592	H	1.579721	0.380687	0.815520
H593	H	0.512286	-0.016144	-0.000056
H594	H	0.762286	0.233856	0.249944
H595	H	1.012286	0.483856	0.499944
H596	H	1.262286	0.733856	0.749944
H597	H	-0.141946	-0.023976	-0.000076
H598	H	0.108054	0.226024	0.249924
H599	H	0.358054	0.476024	0.499924
H600	H	0.608054	0.726024	0.749924
H601	H	0.763909	-0.658052	-0.000033
H602	H	1.013909	-0.408052	0.249967
H603	H	1.263909	-0.158052	0.499967
H604	H	1.513909	0.091948	0.749967
C605	C	0.832543	-0.510149	-0.000045
C606	C	1.082543	-0.260149	0.249955
C607	C	1.332543	-0.010149	0.499955
C608	C	1.582543	0.239851	0.749955
H609	H	0.824640	-0.548769	-0.000034
H610	H	1.074640	-0.298769	0.249966
H611	H	1.324640	-0.048769	0.499966
H612	H	1.574640	0.201231	0.749966
H613	H	0.860743	-0.496560	-0.065605
H614	H	1.110743	-0.246560	0.184395
H615	H	1.360743	0.003440	0.434395
H616	H	1.610743	0.253440	0.684395
H617	H	0.847238	-0.510072	0.065519
H618	H	1.097238	-0.260072	0.315519
H619	H	1.347238	-0.010072	0.565519
H620	H	1.597238	0.239928	0.815519
C621	C	0.493059	0.187187	0.000009
C622	C	0.743059	0.437187	0.250009
C623	C	0.993059	0.687187	0.500009
C624	C	1.243059	0.937187	0.750009
H625	H	0.462646	0.217792	0.000009
H626	H	0.712646	0.467792	0.250009
H627	H	0.962646	0.717792	0.500009
H628	H	1.212646	0.967792	0.750009
H629	H	0.509184	0.182867	0.065566
H630	H	0.759184	0.432867	0.315566
H631	H	1.009184	0.682867	0.565566
H632	H	1.259184	0.932867	0.815566
H633	H	0.522688	0.196387	-0.065559
H634	H	0.772688	0.446387	0.184441
H635	H	1.022688	0.696387	0.434441
H636	H	1.272688	0.946387	0.684441
C637	C	0.565816	-0.200139	-0.000040
C638	C	0.815816	0.049861	0.249960
C639	C	1.065816	0.299861	0.499960
C640	C	1.315816	0.549861	0.749960
H641	H	0.535208	-0.169730	-0.000031
H642	H	0.785208	0.080270	0.249969
H643	H	1.035208	0.330270	0.499969
H644	H	1.285208	0.580270	0.749969
H645	H	0.570124	-0.216270	-0.065585
H646	H	0.820124	0.033730	0.184415
H647	H	1.070124	0.283730	0.434415
H648	H	1.320124	0.533730	0.684415
H649	H	0.556632	-0.229766	0.065540
H650	H	0.806632	0.020234	0.315540
H651	H	1.056632	0.270234	0.565540
H652	H	1.306632	0.520234	0.815540
H653	H	0.378848	0.170966	-0.000019
H654	H	0.628848	0.420966	0.249981
H655	H	0.878848	0.670966	0.499981
H656	H	1.128848	0.920966	0.749981
H657	H	0.582050	-0.085902	-0.000071
H658	H	0.832050	0.164098	0.249929
H659	H	1.082050	0.414098	0.499929
H660	H	1.332050	0.664098	0.749929
H661	H	0.641328	0.043121	-0.303971
H662	H	0.891328	0.293121	-0.053971
H663	H	1.141328	0.543121	0.196029
H664	H	1.391328	0.793121	0.446029
