data_functionalizedCrystal
_audit_creation_method	'MofGen! by Chris Wilmer'
_symmetry_space_group_name_H-M	'P1'
_symmetry_Int_Tables_number	1
_symmetry_cell_setting	triclinic
loop_
_symmetry_equiv_pos_as_xyz
  x,y,z
_cell_length_a	19.805407
_cell_length_b	21.295417
_cell_length_c	19.805399
_cell_angle_alpha	90.030843
_cell_angle_beta	90.019573
_cell_angle_gamma	90.030507
loop_
_atom_site_label
_atom_site_type_symbol
_atom_site_fract_x
_atom_site_fract_y
_atom_site_fract_z
Zn1	Zn	1.034716	-0.250624	0.382704
Zn2	Zn	1.034623	-0.355893	0.269510
Zn3	Zn	0.921531	-0.250641	0.269529
Zn4	Zn	0.921486	-0.355859	0.382656
O5	O	0.978089	-0.303254	0.326100
O6	O	1.129421	-0.264595	0.367701
O7	O	1.019601	-0.341952	0.174796
O8	O	0.936603	-0.162549	0.284570
O9	O	1.129352	-0.341935	0.284537
O10	O	1.019760	-0.162537	0.367719
O11	O	0.936513	-0.264624	0.174810
O12	O	0.826809	-0.264592	0.284523
O13	O	0.936527	-0.341878	0.477379
O14	O	0.826776	-0.341895	0.367638
O15	O	1.019717	-0.264562	0.477415
O16	O	1.019558	-0.443977	0.284491
O17	O	0.936437	-0.443953	0.367619
C18	C	0.802233	-0.303242	0.326078
C19	C	0.727001	-0.303252	0.326085
C20	C	0.691658	-0.343564	0.369292
C21	C	0.620969	-0.343566	0.369302
C22	C	0.585626	-0.303257	0.326100
C23	C	0.620974	-0.262940	0.282890
C24	C	0.691661	-0.262936	0.282885
C25	C	0.335901	-0.262954	0.282913
C26	C	0.265209	-0.262962	0.282920
C27	C	0.265209	-0.343583	0.369330
C28	C	0.335896	-0.343579	0.369324
C29	C	0.371238	-0.303261	0.326117
C30	C	0.447887	-0.303259	0.326109
C31	C	0.508979	-0.303261	0.326105
C32	C	0.978001	-0.466806	0.326062
C33	C	0.978024	-0.536774	0.326069
C34	C	1.021344	-0.569632	0.282828
C35	C	1.021376	-0.635375	0.282844
C36	C	0.978076	-0.668256	0.326092
C37	C	0.934753	-0.635390	0.369341
C38	C	0.934728	-0.569649	0.369330
N39	N	0.918865	-0.771522	0.331245
N40	N	0.918892	-0.833974	0.331252
C41	C	0.978152	-0.866331	0.326131
N42	N	1.037386	-0.833878	0.320989
N43	N	1.037358	-0.771421	0.320979
C44	C	0.978099	-0.739542	0.326110
C45	C	1.021509	-0.970475	0.282905
C46	C	1.021542	-1.036219	0.282925
C47	C	0.934914	-1.036233	0.369419
C48	C	0.934887	-0.970490	0.369402
C49	C	0.978184	-0.937615	0.326142
C50	C	1.154632	-0.303267	0.326122
C51	C	1.229864	-0.303272	0.326132
C52	C	0.978127	-0.303214	0.502643
C53	C	0.978143	-0.303198	0.577875
C54	C	0.978197	-0.139064	0.326152
C55	C	0.978243	-0.069096	0.326175
C56	C	0.978090	-0.303248	0.150244
C57	C	0.978205	-0.303088	0.075012
C58	C	1.021461	-0.262937	0.613238
C59	C	1.021468	-0.262919	0.683927
C60	C	0.978160	-0.303165	0.719250
C61	C	0.934838	-0.343427	0.683882
C62	C	0.934828	-0.343442	0.613195
C63	C	0.934876	-0.343368	0.968955
C64	C	0.934891	-0.343352	1.039647
C65	C	1.021516	-0.262846	1.039687
C66	C	1.021506	-0.262860	0.969000
C67	C	0.978182	-0.303120	0.933638
C68	C	0.978174	-0.303138	0.856989
C69	C	0.978171	-0.303150	0.795897
H70	H	0.592196	-0.376393	0.404485
H71	H	0.899451	-0.542895	0.404542
H72	H	1.056791	-0.230062	1.068488
C73	C	1.069120	-0.218636	0.722830
C74	C	1.039833	-0.169199	0.771434
C75	C	1.087486	-0.124914	0.810339
C76	C	1.164427	-0.130065	0.800639
C77	C	1.193718	-0.179504	0.752032
C78	C	1.146065	-0.223789	0.713128
H79	H	0.982873	-0.165384	0.778617
H80	H	1.065802	-0.088316	0.846321
H81	H	1.199703	-0.097283	0.829439
H82	H	1.250678	-0.183320	0.744850
H83	H	1.167749	-0.260387	0.677146
H84	H	1.056774	-0.230090	0.940243
H85	H	0.364669	-0.376405	0.404501
H86	H	0.899547	-0.376219	0.584402
C87	C	1.068971	-0.533468	0.235247
C88	C	1.122075	-0.488207	0.264614
C89	C	1.169701	-0.452039	0.217033
C90	C	1.164222	-0.461133	0.140084
C91	C	1.111116	-0.506396	0.110713
C92	C	1.063490	-0.542564	0.158294
H93	H	1.126133	-0.481474	0.321579
H94	H	1.209014	-0.418533	0.238776
H95	H	1.199478	-0.434359	0.104862
H96	H	1.107059	-0.513129	0.053747
H97	H	1.024177	-0.576070	0.136551
H98	H	0.899621	-0.376126	1.068406
H99	H	0.899608	-0.376159	0.940172
H100	H	0.899573	-0.376193	0.712648
H101	H	0.236425	-0.376411	0.404513
C102	C	0.730533	-0.387905	0.416816
C103	C	0.720773	-0.459460	0.411154
C104	C	0.759646	-0.503801	0.458680
C105	C	0.808279	-0.476586	0.511869
C106	C	0.818041	-0.405027	0.517533
C107	C	0.779168	-0.360687	0.470007
H108	H	0.684770	-0.479610	0.371778
H109	H	0.752419	-0.556774	0.454487
H110	H	0.837055	-0.509410	0.547051
H111	H	0.854044	-0.384878	0.556909
H112	H	0.786395	-0.307714	0.474200
H113	H	0.720437	-0.230107	0.247704
H114	H	0.236434	-0.230134	0.247740
H115	H	0.364668	-0.230129	0.247726
H116	H	1.056654	-0.662134	0.247632
C117	C	0.582098	-0.218600	0.235367
C118	C	0.504345	-0.218605	0.235367
C119	C	0.465471	-0.174265	0.187840
C120	C	0.504350	-0.129921	0.140313
C121	C	0.582108	-0.129914	0.140311
C122	C	0.620982	-0.174254	0.187838
H123	H	0.475561	-0.251432	0.270551
H124	H	0.407910	-0.174270	0.187842
H125	H	0.475574	-0.097098	0.105131
H126	H	0.610892	-0.097087	0.105127
H127	H	0.678543	-0.174249	0.187836
H128	H	1.056767	-0.943707	0.247681
C129	C	0.887122	-0.671557	0.416915
C130	C	0.834016	-0.716813	0.387545
C131	C	0.786386	-0.752980	0.435123
C132	C	0.791863	-0.743890	0.512072
C133	C	0.844972	-0.698631	0.541447
C134	C	0.892602	-0.662465	0.493868
H135	H	0.829959	-0.723544	0.330579
H136	H	0.747071	-0.786483	0.413378
H137	H	0.756605	-0.770662	0.547293
H138	H	0.849029	-0.691900	0.598413
H139	H	0.931917	-0.628961	0.515614
C140	C	1.069201	-1.072366	0.235360
C141	C	1.116824	-1.036202	0.187779
C142	C	1.164485	-1.072350	0.140216
C143	C	1.164522	-1.144662	0.140233
C144	C	1.116897	-1.180831	0.187815
C145	C	1.069237	-1.144683	0.235379
H146	H	1.116798	-0.982668	0.187765
H147	H	1.199740	-1.045575	0.104992
H148	H	1.199804	-1.171422	0.105023
H149	H	1.116924	-1.234365	0.187830
H150	H	1.033982	-1.171458	0.270603
C151	C	1.069101	-0.218665	0.574385
C152	C	1.063624	-0.147101	0.584127
C153	C	1.111263	-0.102827	0.545276
C154	C	1.164380	-0.130116	0.496683
C155	C	1.169860	-0.201683	0.486939
C156	C	1.122221	-0.245958	0.525790
H157	H	1.024301	-0.126897	0.620100
H158	H	1.107206	-0.049848	0.552489
H159	H	1.199646	-0.097341	0.467923
H160	H	1.209183	-0.221887	0.450966
H161	H	1.126278	-0.298937	0.518577
H162	H	0.899661	-1.063004	0.404636
C163	C	0.887230	-0.934341	0.416965
C164	C	0.839602	-0.970505	0.464541
C165	C	0.791945	-0.934357	0.512109
C166	C	0.791917	-0.862044	0.512100
C167	C	0.839547	-0.825876	0.464522
C168	C	0.887204	-0.862024	0.416954
H169	H	0.839621	-1.024039	0.464549
H170	H	0.756686	-0.961131	0.547329
H171	H	0.756639	-0.835284	0.547313
H172	H	0.839528	-0.772342	0.464514
H173	H	0.922462	-0.835250	0.381734
