data_functionalizedCrystal
_audit_creation_method	'MofGen! by Chris Wilmer'
_symmetry_space_group_name_H-M	'P1'
_symmetry_Int_Tables_number	1
_symmetry_cell_setting	triclinic
loop_
_symmetry_equiv_pos_as_xyz
  x,y,z
_cell_length_a	23.532407
_cell_length_b	22.610064
_cell_length_c	17.038272
_cell_angle_alpha	89.996059
_cell_angle_beta	86.980156
_cell_angle_gamma	89.988048
loop_
_atom_site_label
_atom_site_type_symbol
_atom_site_fract_x
_atom_site_fract_y
_atom_site_fract_z
O1	O	-0.760256	0.049139	-0.094873
O2	O	-0.595114	0.049150	-0.108601
O3	O	-0.676704	0.049140	0.012071
O4	O	-0.678667	0.049149	-0.215545
O5	O	-0.676678	-0.049229	0.012071
O6	O	-0.595089	-0.049219	-0.108601
O7	O	-0.760230	-0.049230	-0.094873
Zn8	Zn	-0.677656	-0.064843	-0.101737
Zn9	Zn	-0.677689	0.064763	-0.101737
O10	O	-0.678641	-0.049220	-0.215545
C11	C	-0.573867	-0.000033	-0.108251
C12	C	-0.510595	-0.000029	-0.107200
C13	C	-0.240445	-0.000045	-0.031455
C14	C	-0.299897	-0.000045	-0.032431
O15	O	-0.333483	-0.000069	0.027657
N16	N	-0.326295	-0.000039	-0.104170
C17	C	-0.293237	-0.000038	-0.174938
O18	O	-0.321150	-0.000032	-0.236048
C19	C	-0.233787	-0.000041	-0.173961
C20	C	-0.207393	-0.000042	-0.102217
C21	C	-0.214051	-0.000046	0.040283
C22	C	-0.154603	-0.000044	0.041259
C23	C	-0.121550	-0.000042	-0.029503
C24	C	-0.147945	-0.000040	-0.101241
C25	C	-0.200731	-0.000044	-0.244728
C26	C	-0.141277	-0.000049	-0.243744
C27	C	-0.114882	-0.000049	-0.172000
C28	C	-0.055445	-0.000036	-0.171027
N29	N	-0.029047	-0.000042	-0.099288
C30	C	-0.062100	-0.000045	-0.028526
C31	C	-0.418088	-0.000031	-0.176985
C32	C	-0.477537	-0.000023	-0.177963
C33	C	-0.484192	-0.000032	-0.035455
C34	C	-0.424742	-0.000035	-0.034478
C35	C	-0.391690	-0.000037	-0.105245
C36	C	0.062744	-0.000041	-0.026481
C37	C	0.122197	-0.000037	-0.025512
C38	C	0.128847	-0.000032	-0.168019
C39	C	0.069400	-0.000033	-0.168989
C40	C	0.036349	-0.000039	-0.098214
O41	O	-0.021823	-0.000015	-0.231084
O42	O	-0.034180	-0.000058	0.032574
N43	N	-0.677637	-0.153295	-0.101737
C44	C	-0.714513	-0.561937	-0.148890
C45	C	-0.714520	-0.623857	-0.148888
O46	O	-0.745851	-0.655876	-0.188975
N47	N	-0.677700	-0.654832	-0.101728
C48	C	-0.640874	-0.623885	-0.054561
O49	O	-0.609557	-0.655917	-0.014446
C50	C	-0.640871	-0.561966	-0.054559
C51	C	-0.677689	-0.530994	-0.101728
C52	C	-0.751329	-0.530965	-0.196055
C53	C	-0.751321	-0.469049	-0.196058
C54	C	-0.714497	-0.438106	-0.148896
C55	C	-0.677681	-0.469078	-0.101731
C56	C	-0.604048	-0.531019	-0.007388
C57	C	-0.604048	-0.469096	-0.007390
C58	C	-0.640866	-0.438124	-0.054559
C59	C	-0.640849	-0.376219	-0.054572
N60	N	-0.677669	-0.345244	-0.101732
C61	C	-0.714493	-0.376187	-0.148894
C62	C	-0.640886	-0.753918	-0.054567
C63	C	-0.640886	-0.815836	-0.054572
C64	C	-0.714533	-0.815804	-0.148899
C65	C	-0.714529	-0.753885	-0.148897
C66	C	-0.677706	-0.722943	-0.101727
C67	C	-0.714473	-0.246160	-0.148897
C68	C	-0.714461	-0.184239	-0.148899
C69	C	-0.640816	-0.184276	-0.054569
C70	C	-0.640827	-0.246192	-0.054571
C71	C	-0.677660	-0.277132	-0.101737
O72	O	-0.609536	-0.344160	-0.014503
O73	O	-0.745811	-0.344147	-0.188994
C74	C	0.218522	-0.000043	-0.095223
C75	C	0.155250	-0.000034	-0.096274
C76	C	-0.674906	-0.000044	0.041186
C77	C	-0.669579	-0.000044	0.127940
N78	N	-0.677713	0.153215	-0.101731
C79	C	-0.680439	-0.000034	-0.244660
C80	C	-0.685766	-0.000031	-0.331414
C81	C	-0.718484	-0.000048	0.178416
C82	C	-0.713475	-0.000042	0.259929
C83	C	-0.659562	-0.000036	0.290965
C84	C	-0.610653	-0.000030	0.240482
C85	C	-0.615662	-0.000032	0.158970
C86	C	-0.641866	-0.000027	0.536592
C87	C	-0.636861	-0.000027	0.618110
C88	C	-0.739684	-0.000037	0.637552
C89	C	-0.744688	-0.000043	0.556037
C90	C	-0.695779	-0.000034	0.505562
C91	C	-0.654441	-0.000032	0.374284
C92	C	-0.700901	-0.000034	0.422244
H93	H	-0.744443	-0.159024	-0.187313
H94	H	-0.575839	-0.000029	0.117872
O95	O	-0.753239	0.000040	0.392006
C96	C	-0.759231	0.050992	0.345449
H97	H	-0.715350	0.067984	0.324803
H98	H	-0.782687	0.086663	0.381655
C99	C	-0.847265	0.014641	0.298932
C100	C	-0.793369	0.035508	0.273569
H101	H	-0.868324	0.005091	0.254594
H102	H	-0.843229	-0.019686	0.330300
H103	H	-0.866804	0.044370	0.329104
H104	H	-0.773828	0.005777	0.243406
H105	H	-0.797402	0.069830	0.242193
H106	H	0.047908	-0.000031	-0.227409
H107	H	-0.610544	-0.000029	0.399563
H108	H	-0.592956	-0.000032	0.643375
H109	H	-0.403256	-0.000036	0.023942
O110	O	-0.503105	0.000065	-0.247706
C111	C	-0.486568	0.051022	-0.290798
H112	H	-0.444357	0.068006	-0.269816
H113	H	-0.520498	0.086696	-0.281477
C114	C	-0.531536	0.014694	-0.404575
C115	C	-0.479689	0.035551	-0.378808
H116	H	-0.527294	0.005152	-0.458864
H117	H	-0.542679	-0.019636	-0.375542
H118	H	-0.559805	0.044426	-0.396801
H119	H	-0.451422	0.005817	-0.386574
H120	H	-0.468540	0.069875	-0.407844
H121	H	-0.511115	-0.000034	0.022163
O122	O	-0.226270	-0.000075	-0.314490
C123	C	-0.184337	-0.000063	-0.376726
H124	H	-0.142934	-0.018683	-0.355125
H125	H	-0.176998	0.047129	-0.398538
C126	C	-0.255226	-0.015776	-0.470955
C127	C	-0.204375	-0.038650	-0.444425
H128	H	-0.267587	-0.039576	-0.512717
H129	H	-0.283477	-0.015782	-0.429026
H130	H	-0.249103	0.023550	-0.489126
H131	H	-0.210500	-0.077972	-0.426246
H132	H	-0.176125	-0.038652	-0.486353
H133	H	-0.240957	-0.000050	0.097910
H134	H	0.143684	-0.000036	0.032913
H135	H	-0.753299	-0.000046	0.301025
O136	O	-0.750324	-0.723736	-0.194602
C137	C	-0.786873	-0.687926	-0.146676
H138	H	-0.766351	-0.678655	-0.088807
H139	H	-0.829085	-0.711782	-0.134414
C140	C	-0.822702	-0.640493	-0.260134
C141	C	-0.797494	-0.629102	-0.189062
H142	H	-0.829256	-0.604208	-0.286280
H143	H	-0.798080	-0.664620	-0.292424
H144	H	-0.857876	-0.660374	-0.249906
H145	H	-0.762318	-0.609228	-0.199291
H146	H	-0.822111	-0.604970	-0.156775
H147	H	-0.391180	-0.000028	-0.234616
H148	H	-0.610898	-0.841048	-0.016171
O149	O	-0.109110	0.000031	-0.312439
C150	C	-0.074544	0.050985	-0.316152
H151	H	-0.068529	0.067969	-0.254144
H152	H	-0.095823	0.086660	-0.351690
C153	C	-0.023555	0.014652	-0.432126
C154	C	-0.016163	0.035509	-0.355966
H155	H	0.012456	0.005107	-0.456688
H156	H	-0.046844	-0.019676	-0.429627
H157	H	-0.041289	0.044385	-0.461731
H158	H	0.001564	0.005774	-0.326360
H159	H	0.007130	0.069832	-0.358461
H160	H	-0.788590	-0.000047	0.530775
H161	H	0.035841	-0.000047	0.031151
H162	H	-0.762386	-0.000056	0.153154
O163	O	-0.750270	-0.276118	-0.194789
C164	C	-0.782768	-0.235493	-0.236399
H165	H	-0.759413	-0.191366	-0.241116
H166	H	-0.825894	-0.228893	-0.203892
C167	C	-0.820247	-0.313842	-0.313596
C168	C	-0.791559	-0.259645	-0.319395
H169	H	-0.825672	-0.328740	-0.364791
H170	H	-0.798354	-0.341212	-0.285561
H171	H	-0.856182	-0.308334	-0.286504
H172	H	-0.755622	-0.265155	-0.346478
H173	H	-0.813446	-0.232276	-0.347437
O174	O	-0.558313	0.000054	0.270721
C175	C	-0.552348	0.051008	0.317271
H176	H	-0.596238	0.067990	0.337922
H177	H	-0.528917	0.086685	0.281057
C178	C	-0.464288	0.014677	0.363778
C179	C	-0.518195	0.035531	0.389147
H180	H	-0.443218	0.005132	0.408113
H181	H	-0.468305	-0.019651	0.332414
H182	H	-0.444769	0.044411	0.333599
H183	H	-0.537715	0.005795	0.419317
H184	H	-0.514180	0.069854	0.420518
O185	O	-0.129059	-0.000079	0.111021
C186	C	-0.170990	-0.000070	0.173259
H187	H	-0.212387	-0.018686	0.151661
H188	H	-0.178346	0.047121	0.195070
C189	C	-0.100094	-0.015793	0.267485
C190	C	-0.150937	-0.038663	0.240959
H191	H	-0.087723	-0.039596	0.309247
H192	H	-0.071843	-0.015797	0.225554
H193	H	-0.106230	0.023532	0.285655
H194	H	-0.144798	-0.077984	0.222780
H195	H	-0.179186	-0.038666	0.282888
O196	O	-0.787146	-0.439059	-0.241892
C197	C	-0.819636	-0.479659	-0.283524
H198	H	-0.821386	-0.523796	-0.251142
H199	H	-0.799158	-0.486247	-0.345038
C200	C	-0.878276	-0.401275	-0.329422
C201	C	-0.880429	-0.455484	-0.289645
H202	H	-0.915775	-0.386362	-0.333201
H203	H	-0.856385	-0.373922	-0.301376
H204	H	-0.861208	-0.406773	-0.380679
H205	H	-0.897490	-0.449984	-0.238386
H206	H	-0.902324	-0.482836	-0.317683
H207	H	-0.779502	-0.000043	0.678657
H208	H	0.155770	-0.000026	-0.225631
H209	H	-0.744516	-0.841010	-0.187302
O210	O	-0.605053	-0.723955	-0.008731
C211	C	-0.572569	-0.764578	0.032903
H212	H	-0.570823	-0.808712	0.000519
H213	H	-0.593050	-0.771162	0.094416
C214	C	-0.513921	-0.686232	0.078805
C215	C	-0.511773	-0.740438	0.039028
H216	H	-0.476420	-0.671341	0.082587
H217	H	-0.535808	-0.658863	0.050759
H218	H	-0.530991	-0.691727	0.130062
H219	H	-0.494710	-0.734941	-0.012231
H220	H	-0.489882	-0.767806	0.067066
H221	H	-0.574067	-0.556226	0.031024
O222	O	-0.568221	-0.439131	0.038452
C223	C	-0.535740	-0.479751	0.080094
H224	H	-0.533990	-0.523887	0.047716
H225	H	-0.556225	-0.486332	0.141605
C226	C	-0.477098	-0.401402	0.125998
C227	C	-0.474945	-0.455609	0.086227
H228	H	-0.439598	-0.386509	0.129785
H229	H	-0.498982	-0.374035	0.097946
H230	H	-0.494172	-0.406893	0.177253
H231	H	-0.457878	-0.450115	0.034970
H232	H	-0.453056	-0.482975	0.114271
H233	H	-0.781318	-0.556153	-0.234460
H234	H	-0.610839	-0.271410	-0.016171
H235	H	-0.610834	-0.159071	-0.016173
H236	H	-0.602041	-0.000020	0.495504
