data_functionalizedCrystal
_audit_creation_method	'MofGen! by Chris Wilmer'
_symmetry_space_group_name_H-M	'P1'
_symmetry_Int_Tables_number	1
_symmetry_cell_setting	triclinic
loop_
_symmetry_equiv_pos_as_xyz
  x,y,z
_cell_length_a	17.699083
_cell_length_b	10.654550
_cell_length_c	9.130313
_cell_angle_alpha	90.000110
_cell_angle_beta	89.994200
_cell_angle_gamma	83.883959
loop_
_atom_site_label
_atom_site_type_symbol
_atom_site_fract_x
_atom_site_fract_y
_atom_site_fract_z
O1	O	-1.005081	-0.158800	-0.121590
O2	O	-0.784834	-0.179462	-0.121638
O3	O	-0.900021	0.013697	-0.121607
O4	O	-0.889894	-0.351959	-0.121620
O5	O	-0.900020	0.013692	0.121991
O6	O	-0.784833	-0.179467	0.121961
O7	O	-1.005080	-0.158805	0.122009
Cu8	Cu	-0.894956	-0.169137	0.144227
Cu9	Cu	-0.894958	-0.169130	-0.143856
O10	O	-0.889892	-0.351964	0.121978
C11	C	-0.756632	-0.178724	0.000156
C12	C	-0.672599	-0.176503	0.000138
C13	C	-1.033282	-0.159543	0.000212
C14	C	-1.117314	-0.161764	0.000221
C15	C	-0.899277	0.060479	0.000190
C16	C	-0.897052	0.199884	0.000185
C17	C	-0.624699	-0.289883	0.000134
C18	C	-0.545743	-0.287788	0.000153
C19	C	-0.514688	-0.172313	0.000165
C20	C	-0.562594	-0.058924	0.000173
C21	C	-0.641549	-0.061020	0.000165
C22	C	-0.244177	-0.050470	0.000210
C23	C	-0.165216	-0.048383	0.000214
C24	C	-0.148371	-0.277239	0.000198
C25	C	-0.227326	-0.279334	0.000189
C26	C	-0.275225	-0.165946	0.000205
C27	C	-0.360839	-0.168219	0.000187
C28	C	-0.429076	-0.170039	0.000173
C29	C	-0.890637	-0.398746	0.000178
C30	C	-0.892861	-0.538151	0.000174
N31	N	-0.894960	-0.169140	0.346850
C32	C	-0.964873	0.280557	0.000204
C33	C	-0.962778	0.411541	0.000193
C34	C	-0.825036	0.381166	0.000150
C35	C	-0.827132	0.250185	0.000150
C36	C	-1.044397	0.298094	0.000235
C37	C	-1.042302	0.429078	0.000224
N38	N	-0.894959	-0.169117	-0.346479
C39	C	-0.945979	-0.083638	0.423515
C40	C	-0.945976	-0.083623	0.576852
C41	C	-0.843936	-0.254623	0.576845
C42	C	-0.843935	-0.254631	0.423511
C43	C	-1.004893	0.015084	0.423521
C44	C	-1.004891	0.015099	0.576858
H45	H	-0.649978	-0.383916	0.000123
H46	H	-1.069720	0.262908	0.105421
H47	H	-1.066336	0.475144	-0.104950
O48	O	-0.295830	0.071827	0.000216
H49	H	-0.355951	0.050980	0.000225
O50	O	-0.529101	0.065627	0.000201
H51	H	-0.548293	0.120108	-0.099075
H52	H	-0.506745	-0.380114	0.000148
H53	H	-0.680549	0.031306	0.000167
H54	H	-0.802385	-0.324242	0.361091
H55	H	-1.075503	0.269283	-0.101697
O56	O	-0.749623	0.435417	0.000136
H57	H	-0.759558	0.540051	0.000150
H58	H	-0.986503	0.105999	0.624403
H59	H	-0.802391	-0.324226	0.639279
H60	H	-0.991971	0.111390	0.381901
O61	O	-0.753984	0.163167	0.000132
H62	H	-0.705014	0.220154	0.000128
O63	O	-1.081978	0.485102	0.135271
H64	H	-1.103057	0.408651	0.201403
H65	H	-0.252606	-0.373366	0.000173
O66	O	-1.077683	-0.024131	0.360516
H67	H	-1.116275	-0.044912	0.451117
H68	H	-0.109361	-0.369564	0.000193
O69	O	-1.081922	-0.012074	0.632027
H70	H	-1.125931	0.061742	0.591459
H71	H	-0.139935	0.045657	0.000226
