data_functionalizedCrystal
_audit_creation_method	'MofGen! by Chris Wilmer'
_symmetry_space_group_name_H-M	'P1'
_symmetry_Int_Tables_number	1
_symmetry_cell_setting	triclinic
loop_
_symmetry_equiv_pos_as_xyz
  x,y,z
_cell_length_a	29.839131
_cell_length_b	29.839135
_cell_length_c	18.050582
_cell_angle_alpha	90.018409
_cell_angle_beta	89.974523
_cell_angle_gamma	89.956753
loop_
_atom_site_label
_atom_site_type_symbol
_atom_site_fract_x
_atom_site_fract_y
_atom_site_fract_z
Zn1	Zn	-0.178860	-0.686731	-0.419967
Zn2	Zn	0.154473	-0.353398	-0.086633
Zn3	Zn	0.487807	-0.020065	0.246700
Zn4	Zn	-0.253982	-0.686660	-0.295770
Zn5	Zn	0.079351	-0.353327	0.037563
Zn6	Zn	0.412684	-0.019993	0.370896
Zn7	Zn	-0.178869	-0.611611	-0.295783
Zn8	Zn	0.154464	-0.278277	0.037550
Zn9	Zn	0.487797	0.055056	0.370883
Zn10	Zn	-0.253966	-0.611562	-0.419911
Zn11	Zn	0.079367	-0.278229	-0.086578
Zn12	Zn	0.412701	0.055105	0.246755
O13	O	-0.216419	-0.649141	-0.357858
O14	O	0.116914	-0.315808	-0.024525
O15	O	0.450247	0.017526	0.308809
O16	O	-0.188828	-0.749589	-0.403510
O17	O	0.144505	-0.416256	-0.070176
O18	O	0.477839	-0.082922	0.263157
O19	O	-0.244029	-0.676695	-0.191847
O20	O	0.089304	-0.343362	0.141486
O21	O	0.422638	-0.010029	0.474819
O22	O	-0.116001	-0.621626	-0.312285
O23	O	0.217332	-0.288293	0.021048
O24	O	0.550666	0.045041	0.354382
O25	O	-0.244020	-0.749537	-0.312263
O26	O	0.089313	-0.416203	0.021070
O27	O	0.422647	-0.082870	0.354404
O28	O	-0.115994	-0.676817	-0.403522
O29	O	0.217339	-0.343483	-0.070189
O30	O	0.550673	-0.010150	0.263145
O31	O	-0.188844	-0.621557	-0.191857
O32	O	0.144489	-0.288223	0.141476
O33	O	0.477823	0.045110	0.474810
O34	O	-0.188828	-0.548737	-0.312231
O35	O	0.144505	-0.215404	0.021102
O36	O	0.477838	0.117930	0.354435
O37	O	-0.243992	-0.621543	-0.523843
O38	O	0.089341	-0.288209	-0.190510
O39	O	0.422674	0.045124	0.142823
O40	O	-0.244002	-0.548701	-0.403428
O41	O	0.089332	-0.215368	-0.070094
O42	O	0.422665	0.117965	0.263239
O43	O	-0.188812	-0.676769	-0.523884
O44	O	0.144521	-0.343436	-0.190551
O45	O	0.477854	-0.010103	0.142783
O46	O	-0.316847	-0.676648	-0.312209
O47	O	0.016486	-0.343315	0.021124
O48	O	0.349819	-0.009981	0.354457
O49	O	-0.316835	-0.621474	-0.403415
O50	O	0.016498	-0.288140	-0.070082
O51	O	0.349831	0.045193	0.263252
C52	C	-0.216415	-0.532418	-0.357825
C53	C	0.116919	-0.199085	-0.024492
C54	C	0.450252	0.134248	0.308841
C55	C	-0.216423	-0.482484	-0.357829
C56	C	0.116910	-0.149151	-0.024496
C57	C	0.450243	0.184183	0.308838
C58	C	-0.187719	-0.172865	-0.405436
C59	C	0.145615	0.160468	-0.072103
C60	C	0.478948	0.493802	0.261230
C61	C	-0.187719	0.014808	-0.405456
C62	C	0.145614	0.348141	-0.072123
C63	C	0.478947	0.681475	0.261211
O64	O	-0.163306	0.039052	-0.445900
O65	O	0.170027	0.372386	-0.112567
O66	O	0.503360	0.705719	0.220767
N67	N	-0.216411	0.038301	-0.357880
N68	N	0.116922	0.371634	-0.024547
N69	N	0.450255	0.704968	0.308787
C70	C	-0.245103	0.014873	-0.310292
C71	C	0.088230	0.348206	0.023041
C72	C	0.421563	0.681540	0.356375
O73	O	-0.269504	0.039161	-0.269821
O74	O	0.063829	0.372495	0.063513
O75	O	0.397162	0.705828	0.396846
C76	C	-0.245100	-0.172799	-0.310269
C77	C	0.088234	0.160534	0.023064
C78	C	0.421567	0.493867	0.356398
C79	C	-0.216409	-0.196290	-0.357854
C80	C	0.116924	0.137043	-0.024520
C81	C	0.450258	0.470377	0.308813
C82	C	-0.159030	-0.196356	-0.453016
C83	C	0.174303	0.136978	-0.119683
C84	C	0.507637	0.470311	0.213650
C85	C	-0.159032	-0.243271	-0.453014
C86	C	0.174302	0.090062	-0.119680
C87	C	0.507635	0.423396	0.213653
C88	C	-0.187722	-0.266696	-0.405431
C89	C	0.145611	0.066637	-0.072098
C90	C	0.478944	0.399971	0.261235
C91	C	-0.216411	-0.243205	-0.357851
C92	C	0.116922	0.090128	-0.024518
C93	C	0.450256	0.423461	0.308816
C94	C	-0.273789	-0.196227	-0.262678
C95	C	0.059544	0.137107	0.070655
C96	C	0.392878	0.470440	0.403989
C97	C	-0.273785	-0.243148	-0.262675
C98	C	0.059549	0.090186	0.070658
C99	C	0.392882	0.423519	0.403991
C100	C	-0.245094	-0.266638	-0.310260
C101	C	0.088239	0.066695	0.023074
C102	C	0.421573	0.400028	0.356407
C103	C	-0.245103	-0.313546	-0.310266
C104	C	0.088230	0.019788	0.023067
C105	C	0.421563	0.353121	0.356401
N106	N	-0.216411	-0.337039	-0.357842
N107	N	0.116922	-0.003705	-0.024509
N108	N	0.450255	0.329628	0.308825
C109	C	-0.187721	-0.313614	-0.405425
C110	C	0.145613	0.019720	-0.072091
C111	C	0.478946	0.353053	0.261242
C112	C	-0.245104	0.113403	-0.310308
C113	C	0.088230	0.446737	0.023025
C114	C	0.421563	0.780070	0.356358
C115	C	-0.245105	0.160321	-0.310315
C116	C	0.088228	0.493655	0.023018
C117	C	0.421562	0.826988	0.356352
C118	C	-0.187721	0.160253	-0.405478
C119	C	0.145613	0.493587	-0.072145
C120	C	0.478946	0.826920	0.261189
C121	C	-0.187722	0.113335	-0.405475
C122	C	0.145612	0.446668	-0.072141
C123	C	0.478945	0.780001	0.261192
C124	C	-0.216412	0.089911	-0.357885
C125	C	0.116922	0.423244	-0.024551
C126	C	0.450255	0.756577	0.308782
C127	C	-0.187727	-0.412140	-0.405416
C128	C	0.145606	-0.078806	-0.072083
C129	C	0.478940	0.254527	0.261251
C130	C	-0.187733	-0.459059	-0.405412
C131	C	0.145601	-0.125726	-0.072078
C132	C	0.478934	0.207607	0.261255
C133	C	-0.245115	-0.458987	-0.310246
C134	C	0.088218	-0.125654	0.023087
C135	C	0.421551	0.207680	0.356421
C136	C	-0.245112	-0.412072	-0.310253
C137	C	0.088222	-0.078738	0.023080
C138	C	0.421555	0.254595	0.356414
C139	C	-0.216414	-0.388649	-0.357841
C140	C	0.116920	-0.055316	-0.024507
C141	C	0.450253	0.278018	0.308826
O142	O	-0.269500	-0.337819	-0.269837
O143	O	0.063833	-0.004485	0.063496
O144	O	0.397167	0.328848	0.396829
O145	O	-0.163316	-0.337910	-0.445878
O146	O	0.170017	-0.004577	-0.112545
O147	O	0.503350	0.328756	0.220788
C148	C	-0.187717	-0.125950	-0.405439
C149	C	0.145617	0.207384	-0.072105
C150	C	0.478950	0.540717	0.261228
C151	C	-0.216406	-0.102459	-0.357859
C152	C	0.116928	0.230874	-0.024525
C153	C	0.450261	0.564208	0.308808
C154	C	-0.245096	-0.125884	-0.310276
C155	C	0.088237	0.207449	0.023057
C156	C	0.421571	0.540783	0.356391
C157	C	-0.216407	-0.055541	-0.357865
C158	C	0.116926	0.277792	-0.024532
C159	C	0.450260	0.611126	0.308801
C160	C	-0.187716	-0.032116	-0.405448
C161	C	0.145617	0.301217	-0.072115
C162	C	0.478950	0.634550	0.261219
C163	C	-0.159024	-0.055609	-0.453024
C164	C	0.174309	0.277724	-0.119691
C165	C	0.507642	0.611057	0.213643
C166	C	-0.159026	-0.102525	-0.453021
C167	C	0.174307	0.230809	-0.119688
C168	C	0.507640	0.564142	0.213645
C169	C	-0.273788	-0.102391	-0.262700
C170	C	0.059545	0.230942	0.070633
C171	C	0.392879	0.564276	0.403967
C172	C	-0.273784	-0.055475	-0.262707
C173	C	0.059549	0.277858	0.070626
C174	C	0.392882	0.611191	0.403960
C175	C	-0.245094	-0.032051	-0.310290
C176	C	0.088240	0.301283	0.023044
C177	C	0.421573	0.634616	0.356377
C178	C	-0.333142	-0.649060	-0.357821
C179	C	0.000191	-0.315727	-0.024488
C180	C	0.333525	0.017607	0.308846
C181	C	-0.383076	-0.649066	-0.357830
C182	C	-0.049743	-0.315733	-0.024497
C183	C	0.283590	0.017600	0.308837
C184	C	-0.692713	-0.677923	-0.310436
C185	C	-0.359380	-0.344589	0.022897
C186	C	-0.026047	-0.011256	0.356230
C187	C	-0.880386	-0.677978	-0.310465
C188	C	-0.547053	-0.344645	0.022868
C189	C	-0.213720	-0.011311	0.356201
O190	O	-0.904646	-0.702448	-0.270141
O191	O	-0.571312	-0.369115	0.063192
O192	O	-0.237979	-0.035782	0.396526
N193	N	-0.903861	-0.649234	-0.357914
N194	N	-0.570528	-0.315901	-0.024581
N195	N	-0.237195	0.017432	0.308753
C196	C	-0.880415	-0.620477	-0.405362
C197	C	-0.547082	-0.287143	-0.072029
C198	C	-0.213749	0.046190	0.261305
O199	O	-0.904689	-0.596033	-0.445726
O200	O	-0.571355	-0.262699	-0.112393
O201	O	-0.238022	0.070634	0.220940
C202	C	-0.692743	-0.620424	-0.405337
C203	C	-0.359410	-0.287090	-0.072003
C204	C	-0.026077	0.046243	0.261330
C205	C	-0.669271	-0.649166	-0.357879
C206	C	-0.335937	-0.315833	-0.024546
C207	C	-0.002604	0.017500	0.308787
C208	C	-0.669241	-0.706663	-0.262984
C209	C	-0.335907	-0.373330	0.070350
C210	C	-0.002574	-0.039996	0.403683
C211	C	-0.622325	-0.706647	-0.262974
C212	C	-0.288992	-0.373314	0.070359
C213	C	0.044342	-0.039980	0.403692
C214	C	-0.598882	-0.677891	-0.310417
C215	C	-0.265549	-0.344557	0.022916
C216	C	0.067784	-0.011224	0.356249
C217	C	-0.622355	-0.649150	-0.357870
C218	C	-0.289022	-0.315817	-0.024537
C219	C	0.044312	0.017516	0.308797
C220	C	-0.669298	-0.591669	-0.452788
C221	C	-0.335965	-0.258335	-0.119455
C222	C	-0.002631	0.074998	0.213879
C223	C	-0.622377	-0.591659	-0.452779
C224	C	-0.289044	-0.258326	-0.119445
C225	C	0.044290	0.075008	0.213888
C226	C	-0.598904	-0.620401	-0.405322
C227	C	-0.265571	-0.287068	-0.071988
C228	C	0.067762	0.046265	0.261345
C229	C	-0.551997	-0.620378	-0.405303
C230	C	-0.218664	-0.287045	-0.071970
C231	C	0.114670	0.046289	0.261363
N232	N	-0.528522	-0.649122	-0.357855
N233	N	-0.195189	-0.315789	-0.024521
N234	N	0.138145	0.017545	0.308812
C235	C	-0.551965	-0.677878	-0.310412
C236	C	-0.218631	-0.344545	0.022922
C237	C	0.114702	-0.011212	0.356255
C238	C	-0.978946	-0.620506	-0.405371
C239	C	-0.645613	-0.287172	-0.072038
C240	C	-0.312279	0.046161	0.261295
C241	C	-1.025864	-0.620518	-0.405377
C242	C	-0.692531	-0.287185	-0.072043
C243	C	-0.359197	0.046148	0.261290
C244	C	-1.025832	-0.678020	-0.310481
C245	C	-0.692498	-0.344687	0.022853
C246	C	-0.359165	-0.011354	0.356186
C247	C	-0.978913	-0.678005	-0.310472
C248	C	-0.645580	-0.344672	0.022861
C249	C	-0.312246	-0.011339	0.356195
C250	C	-0.955471	-0.649250	-0.357923
C251	C	-0.622138	-0.315916	-0.024589
C252	C	-0.288804	0.017417	0.308744
C253	C	-0.453439	-0.677842	-0.310395
C254	C	-0.120105	-0.344509	0.022939
C255	C	0.213228	-0.011176	0.356272
C256	C	-0.406519	-0.677823	-0.310387
C257	C	-0.073186	-0.344489	0.022946
C258	C	0.260147	-0.011156	0.356280
C259	C	-0.406556	-0.620322	-0.405286
C260	C	-0.073222	-0.286989	-0.071952
C261	C	0.260111	0.046344	0.261381
C262	C	-0.453471	-0.620340	-0.405291
C263	C	-0.120138	-0.287007	-0.071957
C264	C	0.213196	0.046326	0.261376
C265	C	-0.476912	-0.649104	-0.357843
C266	C	-0.143578	-0.315771	-0.024509
C267	C	0.189755	0.017563	0.308824
O268	O	-0.527709	-0.595924	-0.445612
O269	O	-0.194375	-0.262591	-0.112279
O270	O	0.138958	0.070742	0.221054
O271	O	-0.527683	-0.702325	-0.270065
O272	O	-0.194350	-0.368992	0.063268
O273	O	0.138983	-0.035659	0.396601
C274	C	-0.739629	-0.677938	-0.310446
C275	C	-0.406295	-0.344605	0.022887
C276	C	-0.072962	-0.011272	0.356221
C277	C	-0.763101	-0.649198	-0.357899
C278	C	-0.429768	-0.315865	-0.024565
C279	C	-0.096435	0.017469	0.308768
C280	C	-0.739659	-0.620442	-0.405342
C281	C	-0.406325	-0.287108	-0.072008
C282	C	-0.072992	0.046225	0.261325
C283	C	-0.810019	-0.649211	-0.357904
C284	C	-0.476686	-0.315877	-0.024571
C285	C	-0.143353	0.017456	0.308762
C286	C	-0.833462	-0.677967	-0.310461
C287	C	-0.500129	-0.344634	0.022872
C288	C	-0.166795	-0.011300	0.356205
C289	C	-0.809987	-0.706711	-0.263013
C290	C	-0.476654	-0.373377	0.070321
C291	C	-0.143320	-0.040044	0.403654
C292	C	-0.763071	-0.706695	-0.263003
C293	C	-0.429738	-0.373361	0.070330
C294	C	-0.096405	-0.040028	0.403664
C295	C	-0.763134	-0.591698	-0.452790
C296	C	-0.429800	-0.258365	-0.119457
C297	C	-0.096467	0.074969	0.213876
C298	C	-0.810049	-0.591716	-0.452795
C299	C	-0.476716	-0.258382	-0.119462
C300	C	-0.143383	0.074951	0.213871
C301	C	-0.833492	-0.620472	-0.405352
C302	C	-0.500159	-0.287139	-0.072019
C303	C	-0.166825	0.046195	0.261314
C304	C	-0.099241	-0.649235	-0.357911
C305	C	0.234092	-0.315901	-0.024578
C306	C	0.567426	0.017432	0.308756
C307	C	-0.049307	-0.649275	-0.357934
C308	C	0.284027	-0.315941	-0.024600
C309	C	0.617360	0.017392	0.308733
C310	C	-0.216399	-0.649159	-0.551564
C311	C	0.116934	-0.315825	-0.218230
C312	C	0.450267	0.017508	0.115103
C313	C	-0.216391	-0.649166	-0.634109
C314	C	0.116942	-0.315833	-0.300776
C315	C	0.450276	0.017501	0.032557
C316	C	-0.216422	0.233681	-0.357889
C317	C	0.116912	0.567014	-0.024556
C318	C	0.450245	0.900347	0.308778
C319	C	-0.216415	0.183746	-0.357898
C320	C	0.116919	0.517080	-0.024564
C321	C	0.450252	0.850413	0.308769
C322	C	-0.246357	-0.619157	-0.833538
C323	C	0.086976	-0.285824	-0.500205
C324	C	0.420310	0.047510	-0.166871
C325	C	-0.257337	-0.660142	-0.882933
C326	C	0.075996	-0.326808	-0.549599
C327	C	0.409329	0.006525	-0.216266
C328	C	-0.216357	-0.649188	-0.785240
C329	C	0.116977	-0.315855	-0.451906
C330	C	0.450310	0.017478	-0.118573
C331	C	-0.205364	-0.608226	-0.882927
C332	C	0.127969	-0.274893	-0.549594
C333	C	0.461303	0.058440	-0.216260
C334	C	-0.216324	-0.649206	-0.931225
C335	C	0.117009	-0.315873	-0.597892
C336	C	0.450342	0.017461	-0.264558
C337	C	-0.227358	-0.690194	-0.833547
C338	C	0.105975	-0.356861	-0.500214
C339	C	0.439308	-0.023528	-0.166880
C340	C	-0.175366	-0.638252	-0.833537
C341	C	0.157967	-0.304918	-0.500204
C342	C	0.491301	0.028415	-0.166871
C343	C	-0.186331	-0.679264	-0.882910
C344	C	0.147002	-0.345931	-0.549576
C345	C	0.480336	-0.012598	-0.216243
C346	C	-0.216376	-0.649177	-0.701141
C347	C	0.116957	-0.315844	-0.367808
C348	C	0.450290	0.017489	-0.034475
C349	C	-0.216305	-0.649222	-1.015322
C350	C	0.117029	-0.315888	-0.681988
C351	C	0.450362	0.017445	-0.348655
C352	C	-0.216407	-0.649149	-0.164906
C353	C	0.116926	-0.315816	0.168428
C354	C	0.450260	0.017517	0.501761
C355	C	-0.216289	-0.649229	-0.082360
C356	C	0.117045	-0.315896	0.250973
C357	C	0.450378	0.017438	0.584306
H358	H	-0.268473	0.179443	-0.271575
H359	H	0.064860	0.512777	0.061758
H360	H	0.398194	0.846110	0.395092
H361	H	-0.196080	-0.573578	-0.904618
H362	H	0.137254	-0.240244	-0.571285
H363	H	0.470587	0.093089	-0.237952
H364	H	-0.959804	-0.701410	-0.271829
H365	H	-0.626471	-0.368077	0.061505
H366	H	-0.293137	-0.034743	0.394838
Br367	Br	-0.148795	-0.490936	-0.469998
Br368	Br	0.184538	-0.157603	-0.136665
Br369	Br	0.517872	0.175730	0.196668
Br370	Br	-0.315091	-0.675579	-0.919096
Br371	Br	0.018243	-0.342246	-0.585763
Br372	Br	0.351576	-0.008913	-0.252429
H373	H	-0.744050	-0.568281	-0.491425
H374	H	-0.410717	-0.234948	-0.158092
H375	H	-0.077384	0.098385	0.175242
H376	H	-0.164358	0.094212	-0.444221
H377	H	0.168975	0.427545	-0.110887
H378	H	0.502308	0.760878	0.222446
Br379	Br	-1.057656	-0.717045	-0.246091
Br380	Br	-0.724322	-0.383712	0.087242
Br381	Br	-0.390989	-0.050379	0.420575
Br382	Br	-0.374731	-0.581300	-0.469672
Br383	Br	-0.041398	-0.247966	-0.136339
Br384	Br	0.291935	0.085367	0.196994
Br385	Br	-0.288695	-0.576866	-0.797404
Br386	Br	0.044639	-0.243533	-0.464071
Br387	Br	0.377972	0.089800	-0.130738
H388	H	-0.236682	-0.724853	-0.811947
H389	H	0.096651	-0.391520	-0.478614
H390	H	0.429985	-0.058186	-0.145281
H391	H	-0.688323	-0.730082	-0.224350
H392	H	-0.354989	-0.396749	0.108984
H393	H	-0.021656	-0.063416	0.442317
H394	H	-0.743963	-0.730100	-0.224359
H395	H	-0.410630	-0.396766	0.108974
H396	H	-0.077297	-0.063433	0.442308
Br397	Br	-0.144022	-0.721653	-0.918818
Br398	Br	0.189311	-0.388320	-0.585485
Br399	Br	0.522645	-0.054986	-0.252152
H400	H	-0.829157	-0.568306	-0.491440
H401	H	-0.495823	-0.234973	-0.158107
H402	H	-0.162490	0.098360	0.175227
H403	H	-0.164357	-0.393074	-0.444164
H404	H	0.168976	-0.059741	-0.110831
H405	H	0.502309	0.273592	0.222502
Br406	Br	-0.120091	-0.275144	-0.517595
Br407	Br	0.213242	0.058190	-0.184261
Br408	Br	0.546575	0.391523	0.149072
Br409	Br	-0.120087	-0.164573	-0.517601
Br410	Br	0.213246	0.168760	-0.184268
Br411	Br	0.546579	0.502093	0.149065
H412	H	-0.164360	0.179334	-0.444222
H413	H	0.168973	0.512667	-0.110889
H414	H	0.502307	0.846000	0.222444
Br415	Br	-0.284039	0.081620	-0.245707
Br416	Br	0.049295	0.414954	0.087627
Br417	Br	0.382628	0.748287	0.420960
Br418	Br	-0.312720	-0.164359	-0.198080
Br419	Br	0.020613	0.168975	0.135253
Br420	Br	0.353947	0.502308	0.468587
Br421	Br	-0.312724	-0.274935	-0.198085
Br422	Br	0.020610	0.058398	0.135248
Br423	Br	0.353943	0.391732	0.468582
Br424	Br	-0.284052	-0.490787	-0.245674
Br425	Br	0.049282	-0.157454	0.087659
Br426	Br	0.382615	0.175880	0.420992
Br427	Br	-0.117627	-0.622796	-0.797344
Br428	Br	0.215706	-0.289463	-0.464011
Br429	Br	0.549039	0.043870	-0.130678
H430	H	-0.387409	-0.701228	-0.271739
H431	H	-0.054076	-0.367895	0.061594
H432	H	0.279258	-0.034561	0.394927
H433	H	-1.044971	-0.597109	-0.444014
H434	H	-0.711638	-0.263776	-0.110681
H435	H	-0.378305	0.069558	0.222652
Br436	Br	-0.120090	-0.023809	-0.517604
Br437	Br	0.213243	0.309524	-0.184271
Br438	Br	0.546577	0.642858	0.149063
Br439	Br	-0.284064	-0.380190	-0.245699
Br440	Br	0.049269	-0.046857	0.087635
Br441	Br	0.382602	0.286476	0.420968
Br442	Br	-0.485243	-0.716879	-0.246001
Br443	Br	-0.151910	-0.383546	0.087333
Br444	Br	0.181423	-0.050212	0.420666
Br445	Br	-0.312725	-0.023601	-0.198121
Br446	Br	0.020608	0.309732	0.135212
Br447	Br	0.353941	0.643065	0.468545
H448	H	-0.135663	-0.121646	-0.491769
H449	H	0.197670	0.211687	-0.158436
H450	H	0.531004	0.545020	0.174897
Br451	Br	-0.590566	-0.552633	-0.517183
Br452	Br	-0.257232	-0.219299	-0.183849
Br453	Br	0.076101	0.114034	0.149484
Br454	Br	-0.590477	-0.745663	-0.198575
Br455	Br	-0.257143	-0.412330	0.134758
Br456	Br	0.076190	-0.078997	0.468091
Br457	Br	-0.701142	-0.552663	-0.517206
Br458	Br	-0.367809	-0.219330	-0.183873
Br459	Br	-0.034475	0.114003	0.149460
Br460	Br	-0.947139	-0.581476	-0.469775
Br461	Br	-0.613805	-0.248143	-0.136441
Br462	Br	-0.280472	0.085191	0.196892
H463	H	-0.829082	-0.730124	-0.224381
H464	H	-0.495749	-0.396790	0.108953
H465	H	-0.162416	-0.063457	0.442286
H466	H	-0.297151	-0.121459	-0.223951
H467	H	0.036182	0.211875	0.109383
H468	H	0.369515	0.545208	0.442716
Br469	Br	-0.485328	-0.581322	-0.469679
Br470	Br	-0.151995	-0.247988	-0.136346
Br471	Br	0.181339	0.085345	0.196988
