data_functionalizedCrystal
_audit_creation_method	'MofGen! by Chris Wilmer'
_symmetry_space_group_name_H-M	'P1'
_symmetry_Int_Tables_number	1
_symmetry_cell_setting	triclinic
loop_
_symmetry_equiv_pos_as_xyz
  x,y,z
_cell_length_a	21.295418
_cell_length_b	12.759401
_cell_length_c	12.759393
_cell_angle_alpha	90.018205
_cell_angle_beta	89.962313
_cell_angle_gamma	89.974686
loop_
_atom_site_label
_atom_site_type_symbol
_atom_site_fract_x
_atom_site_fract_y
_atom_site_fract_z
Zn1	Zn	-0.250606	-1.606151	-0.593961
Zn2	Zn	-0.355890	-1.606010	-0.418263
Zn3	Zn	-0.250635	-1.430456	-0.418298
Zn4	Zn	-0.355837	-1.430403	-0.593902
O5	O	-0.303242	-1.518255	-0.506106
O6	O	-0.264582	-1.753153	-0.570665
O7	O	-0.341962	-1.582686	-0.271247
O8	O	-0.162542	-1.453844	-0.441640
O9	O	-0.341934	-1.753050	-0.441580
O10	O	-0.162520	-1.582926	-0.570698
O11	O	-0.264632	-1.453707	-0.271272
O12	O	-0.264580	-1.283428	-0.441582
O13	O	-0.341844	-1.453753	-0.740931
O14	O	-0.341872	-1.283389	-0.570598
O15	O	-0.264531	-1.582874	-0.740975
O16	O	-0.443973	-1.582634	-0.441523
O17	O	-0.443934	-1.453616	-0.570564
C18	C	-0.303224	-1.245288	-0.506088
C19	C	-0.303232	-1.128511	-0.506105
C20	C	-0.466794	-1.518132	-0.506056
C21	C	-0.536762	-1.518176	-0.506070
C22	C	-0.343540	-1.073656	-0.573172
C23	C	-0.343546	-0.963932	-0.573181
C24	C	-0.262932	-0.963928	-0.439049
C25	C	-0.262924	-1.073650	-0.439046
C26	C	-0.383848	-1.128517	-0.640231
C27	C	-0.424161	-1.073662	-0.707302
C28	C	-0.424167	-0.963938	-0.707312
C29	C	-0.383859	-0.909069	-0.640251
C30	C	-1.036219	-1.585687	-0.439084
C31	C	-0.970477	-1.585647	-0.439059
C32	C	-0.937601	-1.518403	-0.506180
C33	C	-0.970474	-1.451175	-0.573311
C34	C	-1.036215	-1.451209	-0.573327
N35	N	-0.834341	-1.510237	-0.598113
N36	N	-0.771890	-1.510210	-0.598096
C37	C	-0.739527	-1.518294	-0.506136
N38	N	-0.771974	-1.526425	-0.414192
N39	N	-0.834431	-1.526457	-0.414211
C40	C	-0.866316	-1.518358	-0.506170
C41	C	-0.635376	-1.585469	-0.438976
C42	C	-0.569633	-1.585421	-0.438950
C43	C	-0.569631	-1.450955	-0.573211
C44	C	-0.635374	-1.450997	-0.573228
C45	C	-0.668242	-1.518259	-0.506112
C46	C	-0.139052	-1.518407	-0.506179
C47	C	-0.069084	-1.518472	-0.506211
C48	C	-0.303178	-1.518323	-0.780140
C49	C	-0.303151	-1.518352	-0.896916
C50	C	-0.303255	-0.792288	-0.506121
C51	C	-0.303245	-0.909065	-0.506119
C52	C	-0.262877	-1.451222	-0.951798
C53	C	-0.262859	-1.451254	-1.061522
C54	C	-0.343388	-1.585556	-1.061474
C55	C	-0.343410	-1.585518	-0.951751
C56	C	-0.222618	-1.384057	-0.896963
C57	C	-0.182341	-1.316921	-0.951844
C58	C	-0.182322	-1.316953	-1.061568
C59	C	-0.222581	-1.384120	-1.116411
C60	C	-0.303261	-1.518248	-0.233139
C61	C	-0.303111	-1.518422	-0.116363
H62	H	-0.456974	-1.118343	-0.761908
N63	N	-0.386842	-1.657932	-0.892553
H64	H	-0.380747	-1.647713	-0.814724
H65	H	-0.431795	-1.641545	-0.911705
H66	H	-0.383850	-1.217860	-0.640229
N67	N	-0.219449	-1.132816	-0.366704
H68	H	-0.244994	-1.178311	-0.317939
H69	H	-0.190313	-1.178308	-0.409565
N70	N	-0.935021	-1.658161	-0.366668
H71	H	-0.888387	-1.647934	-0.376847
H72	H	-0.946551	-1.641875	-0.291616
H73	H	-0.383862	-0.819724	-0.640273
N74	N	-0.467642	-0.904770	-0.779649
H75	H	-0.493175	-0.956177	-0.822125
H76	H	-0.496744	-0.859215	-0.736788
H77	H	-1.062973	-1.396475	-0.627993
N78	N	-0.219471	-0.904753	-0.366704
H79	H	-0.225598	-0.826921	-0.376876
H80	H	-0.229226	-0.923911	-0.291646
N81	N	-0.222562	-1.384145	-1.234757
H82	H	-0.210993	-1.456235	-1.261199
H83	H	-0.265749	-1.364754	-1.261071
N84	N	-0.670840	-1.657997	-0.366586
H85	H	-0.659357	-1.733049	-0.382963
H86	H	-0.659433	-1.641626	-0.291529
N87	N	-1.071670	-1.658226	-0.366693
H88	H	-1.040871	-1.700799	-0.324162
H89	H	-1.098988	-1.615502	-0.318037
N90	N	-0.935020	-1.378639	-0.645700
H91	H	-0.888386	-1.388817	-0.635506
H92	H	-0.946468	-1.394946	-0.720753
N93	N	-0.534182	-1.657923	-0.366547
H94	H	-0.564983	-1.700540	-0.324039
H95	H	-0.506863	-1.706494	-0.409363
N96	N	-0.534183	-1.378417	-0.645600
H97	H	-0.487548	-1.388591	-0.635403
H98	H	-0.545629	-1.394727	-0.720653
N99	N	-0.386805	-1.657991	-1.120629
H100	H	-0.361218	-1.706718	-1.166166
H101	H	-0.412317	-1.700444	-1.069150
N102	N	-0.670826	-1.378500	-0.645630
H103	H	-0.640025	-1.335892	-0.688147
H104	H	-0.698061	-1.421247	-0.694297
N105	N	-0.222634	-1.384030	-0.778619
H106	H	-0.191020	-1.331298	-0.752207
H107	H	-0.265840	-1.364697	-0.752241
H108	H	-0.149567	-1.262231	-0.907184
H109	H	-0.149531	-1.262282	-1.106250
