data_functionalizedCrystal
_audit_creation_method	'MofGen! by Chris Wilmer'
_symmetry_space_group_name_H-M	'P1'
_symmetry_Int_Tables_number	1
_symmetry_cell_setting	triclinic
loop_
_symmetry_equiv_pos_as_xyz
  x,y,z
_cell_length_a	19.805407
_cell_length_b	19.077068
_cell_length_c	19.077299
_cell_angle_alpha	85.330127
_cell_angle_beta	92.302895
_cell_angle_gamma	92.327086
loop_
_atom_site_label
_atom_site_type_symbol
_atom_site_fract_x
_atom_site_fract_y
_atom_site_fract_z
Zn1	Zn	1.038986	-0.296774	0.409873
Zn2	Zn	1.288986	-0.046774	0.659873
Zn3	Zn	1.538986	0.203226	0.909873
Zn4	Zn	1.788986	0.453226	1.159873
Zn5	Zn	1.030188	-0.409902	0.296716
Zn6	Zn	1.280188	-0.159902	0.546716
Zn7	Zn	1.530188	0.090098	0.796716
Zn8	Zn	1.780188	0.340098	1.046716
Zn9	Zn	0.921463	-0.292032	0.292000
Zn10	Zn	1.171463	-0.042032	0.542000
Zn11	Zn	1.421463	0.207968	0.792000
Zn12	Zn	1.671463	0.457968	1.042000
Zn13	Zn	0.921389	-0.414625	0.414560
Zn14	Zn	1.171389	-0.164625	0.664560
Zn15	Zn	1.421389	0.085375	0.914560
Zn16	Zn	1.671389	0.335375	1.164560
O17	O	0.978006	-0.353333	0.353287
O18	O	1.228006	-0.103333	0.603287
O19	O	1.478006	0.146667	0.853287
O20	O	1.728006	0.396667	1.103287
O21	O	1.132536	-0.311789	0.394876
O22	O	1.382536	-0.061789	0.644876
O23	O	1.632536	0.188211	0.894876
O24	O	1.882536	0.438211	1.144876
O25	O	1.012114	-0.390306	0.197442
O26	O	1.262114	-0.140306	0.447442
O27	O	1.512114	0.109694	0.697442
O28	O	1.762114	0.359694	0.947442
O29	O	0.940766	-0.194011	0.303701
O30	O	1.190766	0.055989	0.553701
O31	O	1.440766	0.305989	0.803701
O32	O	1.690766	0.555989	1.053701
O33	O	1.126071	-0.394904	0.311740
O34	O	1.376071	-0.144904	0.561740
O35	O	1.626071	0.105096	0.811740
O36	O	1.876071	0.355096	1.061740
O37	O	1.027110	-0.197495	0.390302
O38	O	1.277110	0.052505	0.640302
O39	O	1.527110	0.302505	0.890302
O40	O	1.777110	0.552505	1.140302
O41	O	0.932234	-0.303707	0.193977
O42	O	1.182234	-0.053707	0.443977
O43	O	1.432234	0.196293	0.693977
O44	O	1.682234	0.446293	0.943977
O45	O	0.826736	-0.308286	0.308245
O46	O	1.076736	-0.058286	0.558245
O47	O	1.326736	0.191714	0.808245
O48	O	1.576736	0.441714	1.058245
O49	O	0.940639	-0.402953	0.512586
O50	O	1.190639	-0.152953	0.762586
O51	O	1.440639	0.097047	1.012586
O52	O	1.690639	0.347047	1.262586
O53	O	0.826682	-0.398355	0.398289
O54	O	1.076682	-0.148355	0.648289
O55	O	1.326682	0.101645	0.898289
O56	O	1.576682	0.351645	1.148289
O57	O	1.027038	-0.316368	0.509143
O58	O	1.277038	-0.066368	0.759143
O59	O	1.527038	0.183632	1.009143
O60	O	1.777038	0.433632	1.259143
O61	O	1.012042	-0.509179	0.316284
O62	O	1.262042	-0.259179	0.566284
O63	O	1.512042	-0.009179	0.816284
O64	O	1.762042	0.240821	1.066284
O65	O	0.932108	-0.512649	0.402863
O66	O	1.182108	-0.262649	0.652863
O67	O	1.432108	-0.012649	0.902863
O68	O	1.682108	0.237351	1.152863
C69	C	0.802150	-0.353319	0.353264
C70	C	1.052150	-0.103319	0.603264
C71	C	1.302150	0.146681	0.853264
C72	C	1.552150	0.396681	1.103264
C73	C	0.726918	-0.353330	0.353271
C74	C	0.976918	-0.103330	0.603271
C75	C	1.226918	0.146670	0.853271
C76	C	1.476918	0.396670	1.103271
C77	C	0.691558	-0.400294	0.400087
C78	C	0.941558	-0.150294	0.650087
C79	C	1.191558	0.099706	0.900087
C80	C	1.441558	0.349706	1.150087
C81	C	0.620870	-0.400296	0.400097
C82	C	0.870870	-0.150296	0.650097
C83	C	1.120870	0.099704	0.900097
C84	C	1.370870	0.349704	1.150097
C85	C	0.585543	-0.353337	0.353287
C86	C	0.835543	-0.103337	0.603287
C87	C	1.085543	0.146663	0.853287
C88	C	1.335543	0.396663	1.103287
C89	C	0.620908	-0.306368	0.306469
C90	C	0.870908	-0.056368	0.556469
C91	C	1.120908	0.193632	0.806469
C92	C	1.370908	0.443632	1.056469
C93	C	0.691595	-0.306363	0.306463
C94	C	0.941595	-0.056363	0.556463
C95	C	1.191595	0.193637	0.806463
C96	C	1.441595	0.443637	1.056463
C97	C	0.335835	-0.306384	0.306493
C98	C	0.585835	-0.056384	0.556493
C99	C	0.835835	0.193616	0.806493
C100	C	1.085835	0.443616	1.056493
C101	C	0.265142	-0.306394	0.306502
C102	C	0.515142	-0.056394	0.556502
C103	C	0.765142	0.193606	0.806502
C104	C	1.015142	0.443606	1.056502
C105	C	0.265110	-0.400317	0.400127
C106	C	0.515110	-0.150317	0.650127
C107	C	0.765110	0.099683	0.900127
C108	C	1.015110	0.349683	1.150127
C109	C	0.335797	-0.400312	0.400121
C110	C	0.585797	-0.150312	0.650121
C111	C	0.835797	0.099688	0.900121
C112	C	1.085797	0.349688	1.150121
C113	C	0.371156	-0.353341	0.353306
C114	C	0.621156	-0.103341	0.603306
C115	C	0.871156	0.146659	0.853306
C116	C	1.121156	0.396659	1.103306
C117	C	0.447804	-0.353339	0.353297
C118	C	0.697804	-0.103339	0.603297
C119	C	0.947804	0.146661	0.853297
C120	C	1.197804	0.396661	1.103297
C121	C	0.508895	-0.353342	0.353293
C122	C	0.758895	-0.103342	0.603293
C123	C	1.008895	0.146658	0.853293
C124	C	1.258895	0.396658	1.103293
C125	C	0.971131	-0.536493	0.360609
C126	C	1.221131	-0.286493	0.610609
C127	C	1.471131	-0.036493	0.860609
C128	C	1.721131	0.213507	1.110609
C129	C	0.968253	-0.614851	0.363765
C130	C	1.218253	-0.364851	0.613765
C131	C	1.468253	-0.114851	0.863765
C132	C	1.718253	0.135149	1.113765
C133	C	1.008553	-0.649835	0.320208
C134	C	1.258553	-0.399835	0.570208
C135	C	1.508553	-0.149835	0.820208
C136	C	1.758553	0.100165	1.070208
C137	C	1.005849	-0.723461	0.323180
C138	C	1.255849	-0.473461	0.573180
C139	C	1.505849	-0.223461	0.823180
C140	C	1.755849	0.026539	1.073180
C141	C	0.962842	-0.762100	0.369706
C142	C	1.212842	-0.512100	0.619706
C143	C	1.462842	-0.262100	0.869706
C144	C	1.712842	-0.012100	1.119706
C145	C	0.922541	-0.727111	0.413268
C146	C	1.172541	-0.477111	0.663268
C147	C	1.422541	-0.227111	0.913268
C148	C	1.672541	0.022889	1.163268
C149	C	0.925248	-0.653487	0.410299
C150	C	1.175248	-0.403487	0.660299
C151	C	1.425248	-0.153487	0.910299
C152	C	1.675248	0.096513	1.160299
C153	C	0.950282	-0.982489	0.383420
C154	C	1.200282	-0.732489	0.633420
C155	C	1.450282	-0.482489	0.883420
C156	C	1.700282	-0.232489	1.133420
C157	C	0.947577	-1.056118	0.386384
C158	C	1.197577	-0.806118	0.636384
C159	C	1.447577	-0.556118	0.886384
C160	C	1.697577	-0.306118	1.136384
C161	C	1.030887	-1.052462	0.296297
C162	C	1.280887	-0.802462	0.546297
C163	C	1.530887	-0.552462	0.796297
C164	C	1.780887	-0.302462	1.046297
C165	C	1.033587	-0.978837	0.293329
C166	C	1.283587	-0.728837	0.543329
C167	C	1.533587	-0.478837	0.793329
C168	C	1.783587	-0.228837	1.043329
C169	C	0.993288	-0.943854	0.336893
C170	C	1.243288	-0.693854	0.586893
C171	C	1.493288	-0.443854	0.836893
C172	C	1.743288	-0.193854	1.086893
N173	N	0.960076	-0.837358	0.372744
N174	N	1.210076	-0.587358	0.622744
N175	N	1.460076	-0.337358	0.872744
N176	N	1.710076	-0.087358	1.122744
N177	N	0.996058	-0.868599	0.333858
N178	N	1.246058	-0.618599	0.583858
N179	N	1.496058	-0.368599	0.833858
N180	N	1.746058	-0.118599	1.083858
C181	C	1.154549	-0.353348	0.353311
C182	C	1.404549	-0.103348	0.603311
C183	C	1.654549	0.146652	0.853311
C184	C	1.904549	0.396652	1.103311
C185	C	1.229781	-0.353355	0.353321
C186	C	1.479781	-0.103355	0.603321
C187	C	1.729781	0.146645	0.853321
C188	C	1.979781	0.396645	1.103321
C189	C	0.984812	-0.360716	0.537158
C190	C	1.234812	-0.110716	0.787158
C191	C	1.484812	0.139284	1.037158
C192	C	1.734812	0.389284	1.287158
C193	C	0.987712	-0.363862	0.615513
C194	C	1.237712	-0.113862	0.865513
C195	C	1.487712	0.136138	1.115513
C196	C	1.737712	0.386138	1.365513
C197	C	0.984927	-0.169459	0.345953
C198	C	1.234927	0.080541	0.595953
C199	C	1.484927	0.330541	0.845953
C200	C	1.734927	0.580541	1.095953
C201	C	0.987877	-0.091102	0.342827
C202	C	1.237877	0.158898	0.592827
C203	C	1.487877	0.408898	0.842827
C204	C	1.737877	0.658898	1.092827
C205	C	1.008538	-0.386447	1.056763
C206	C	1.258538	-0.136447	1.306763
C207	C	1.508538	0.113553	1.556763
C208	C	1.758538	0.363553	1.806763
C209	C	1.005803	-0.383487	0.983140
C210	C	1.255803	-0.133487	1.233140
C211	C	1.505803	0.116513	1.483140
C212	C	1.755803	0.366513	1.733140
C213	C	0.962851	-0.336916	0.944532
C214	C	1.212851	-0.086916	1.194532
C215	C	1.462851	0.163084	1.444532
C216	C	1.712851	0.413084	1.694532
C217	C	0.922626	-0.293308	0.979551
C218	C	1.172626	-0.043308	1.229551
C219	C	1.422626	0.206692	1.479551
C220	C	1.672626	0.456692	1.729551
C221	C	0.925357	-0.296272	1.053173
C222	C	1.175357	-0.046272	1.303173
C223	C	1.425357	0.203728	1.553173
C224	C	1.675357	0.453728	1.803173
C225	C	0.950219	-0.323218	0.724154
C226	C	1.200219	-0.073218	0.974154
C227	C	1.450219	0.176782	1.224154
C228	C	1.700219	0.426782	1.474154
C229	C	0.947491	-0.320256	0.650527
C230	C	1.197491	-0.070256	0.900527
C231	C	1.447491	0.179744	1.150527
C232	C	1.697491	0.429744	1.400527
C233	C	1.030668	-0.410436	0.654121
C234	C	1.280668	-0.160436	0.904121
C235	C	1.530668	0.089564	1.154121
C236	C	1.780668	0.339564	1.404121
C237	C	1.033399	-0.413393	0.727744
C238	C	1.283399	-0.163393	0.977744
C239	C	1.533399	0.086607	1.227744
C240	C	1.783399	0.336607	1.477744
C241	C	0.993171	-0.369788	0.762757
C242	C	1.243171	-0.119788	1.012757
C243	C	1.493171	0.130212	1.262757
C244	C	1.743171	0.380212	1.512757
N245	N	0.960056	-0.333887	0.869278
N246	N	1.210056	-0.083887	1.119278
N247	N	1.460056	0.166113	1.369278
N248	N	1.710056	0.416113	1.619278
N249	N	0.995963	-0.372821	0.838010
N250	N	1.245963	-0.122821	1.088010
N251	N	1.495963	0.127179	1.338010
N252	N	1.745963	0.377179	1.588010
C253	C	0.971220	-0.345993	1.170132
C254	C	1.221220	-0.095993	1.420132
C255	C	1.471220	0.154007	1.670132
C256	C	1.721220	0.404007	1.920132
C257	C	0.968317	-0.342841	1.091777
C258	C	1.218317	-0.092841	1.341777
C259	C	1.468317	0.157159	1.591777
C260	C	1.718317	0.407159	1.841777
H261	H	0.720316	-0.438536	0.438203
H262	H	0.970316	-0.188536	0.688203
H263	H	1.220316	0.061464	0.938203
H264	H	1.470316	0.311464	1.188203
H265	H	1.038665	-0.751941	0.287711
H266	H	1.288665	-0.501941	0.537711
H267	H	1.538665	-0.251941	0.787711
H268	H	1.788665	-0.001941	1.037711
H269	H	0.236312	-0.438560	0.438249
H270	H	0.486312	-0.188560	0.688249
H271	H	0.736312	0.061440	0.938249
H272	H	0.986312	0.311440	1.188249
F273	F	0.373390	-0.450295	0.449940
F274	F	0.623390	-0.200295	0.699940
F275	F	0.873390	0.049705	0.949940
F276	F	1.123390	0.299705	1.199940
F277	F	1.048613	-0.429898	0.945879
F278	F	1.298613	-0.179898	1.195879
F279	F	1.548613	0.070102	1.445879
F280	F	1.798613	0.320102	1.695879
F281	F	0.907391	-0.945267	0.429784
F282	F	1.157391	-0.695267	0.679784
F283	F	1.407391	-0.445267	0.929784
F284	F	1.657391	-0.195267	1.179784
H285	H	1.068607	-0.947378	0.255443
H286	H	1.318607	-0.697378	0.505443
H287	H	1.568607	-0.447378	0.755443
H288	H	1.818607	-0.197378	1.005443
F289	F	0.729227	-0.256377	0.256637
F290	F	0.979227	-0.006377	0.506637
F291	F	1.229227	0.243623	0.756637
F292	F	1.479227	0.493623	1.006637
H293	H	1.043571	-0.618379	0.282318
H294	H	1.293571	-0.368379	0.532318
H295	H	1.543571	-0.118379	0.782318
H296	H	1.793571	0.131621	1.032318
F297	F	1.079110	-0.462965	0.768829
F298	F	1.329110	-0.212965	1.018829
F299	F	1.579110	0.037035	1.268829
F300	F	1.829110	0.287035	1.518829
H301	H	1.063697	-1.080953	0.260830
H302	H	1.313697	-0.830953	0.510830
H303	H	1.563697	-0.580953	0.760830
H304	H	1.813697	-0.330953	1.010830
H305	H	0.592083	-0.438539	0.438219
H306	H	0.842083	-0.188539	0.688219
H307	H	1.092083	0.061461	0.938219
H308	H	1.342083	0.311461	1.188219
F309	F	0.882552	-0.249857	1.090436
F310	F	1.132552	0.000143	1.340436
F311	F	1.382552	0.250143	1.590436
F312	F	1.632552	0.500143	1.840436
F313	F	0.227546	-0.256410	0.256679
F314	F	0.477546	-0.006410	0.506679
F315	F	0.727546	0.243590	0.756679
F316	F	0.977546	0.493590	1.006679
H317	H	0.912564	-1.087577	0.424284
H318	H	1.162564	-0.837577	0.674284
H319	H	1.412564	-0.587577	0.924284
H320	H	1.662564	-0.337577	1.174284
F321	F	0.876773	-0.768237	0.462789
F322	F	1.126773	-0.518237	0.712789
F323	F	1.376773	-0.268237	0.962789
F324	F	1.626773	-0.018237	1.212789
F325	F	0.882357	-0.616255	0.456660
F326	F	1.132357	-0.366255	0.706660
F327	F	1.382357	-0.116255	0.956660
F328	F	1.632357	0.133745	1.206660
H329	H	0.887650	-0.255392	0.948110
H330	H	1.137650	-0.005392	1.198110
H331	H	1.387650	0.244608	1.448110
H332	H	1.637650	0.494608	1.698110
F333	F	0.901774	-0.270686	0.609439
F334	F	1.151774	-0.020686	0.859439
F335	F	1.401774	0.229314	1.109439
F336	F	1.651774	0.479314	1.359439
H337	H	1.043518	-0.424367	1.088193
H338	H	1.293518	-0.174367	1.338193
H339	H	1.543518	0.075633	1.588193
H340	H	1.793518	0.325633	1.838193
H341	H	0.917461	-0.287713	0.752652
H342	H	1.167461	-0.037713	1.002652
H343	H	1.417461	0.212287	1.252652
H344	H	1.667461	0.462287	1.502652
H345	H	0.364615	-0.268143	0.268369
H346	H	0.614615	-0.018143	0.518369
H347	H	0.864615	0.231857	0.768369
H348	H	1.114615	0.481857	1.018369
F349	F	0.583308	-0.256386	0.256655
F350	F	0.833308	-0.006386	0.506655
F351	F	1.083308	0.243614	0.756655
F352	F	1.333308	0.493614	1.006655
H353	H	1.063419	-0.445938	0.625606
H354	H	1.313419	-0.195938	0.875606
H355	H	1.563419	0.054062	1.125606
H356	H	1.813419	0.304062	1.375606
