data_functionalizedCrystal
_audit_creation_method	'MofGen! by Chris Wilmer'
_symmetry_space_group_name_H-M	'P1'
_symmetry_Int_Tables_number	1
_symmetry_cell_setting	triclinic
loop_
_symmetry_equiv_pos_as_xyz
  x,y,z
_cell_length_a	15.625110
_cell_length_b	15.712078
_cell_length_c	16.776229
_cell_angle_alpha	89.996369
_cell_angle_beta	108.076441
_cell_angle_gamma	101.029093
loop_
_atom_site_label
_atom_site_type_symbol
_atom_site_fract_x
_atom_site_fract_y
_atom_site_fract_z
O1	O	1.233420	0.112903	0.290301
O2	O	1.733420	0.612903	0.790301
O3	O	0.975383	0.126350	0.215700
O4	O	1.475383	0.626350	0.715700
O5	O	1.070074	-0.006243	0.243080
O6	O	1.570074	0.493757	0.743080
O7	O	1.138729	0.245496	0.262921
O8	O	1.638729	0.745496	0.762921
O9	O	1.070053	-0.006251	0.375651
O10	O	1.570053	0.493749	0.875651
O11	O	0.975362	0.126342	0.348270
O12	O	1.475362	0.626342	0.848270
O13	O	1.233399	0.112894	0.422872
O14	O	1.733399	0.612894	0.922872
Zn15	Zn	1.104377	0.119617	0.406619
Zn16	Zn	1.604377	0.619617	0.906619
Zn17	Zn	1.104405	0.119628	0.231952
Zn18	Zn	1.604405	0.619628	0.731952
O19	O	1.138708	0.245487	0.395492
O20	O	1.638708	0.745487	0.895492
C21	C	0.941584	0.125737	0.272217
C22	C	1.441584	0.625737	0.772217
C23	C	0.840903	0.123910	0.243109
C24	C	1.340903	0.623910	0.743109
C25	C	1.058847	-0.038463	0.306122
C26	C	1.558847	0.461537	0.806122
C27	C	1.025416	-0.134459	0.296455
C28	C	1.525416	0.365541	0.796455
C29	C	0.699008	0.121341	0.129823
C30	C	1.199008	0.621341	0.629823
C31	C	0.793613	0.123057	0.157183
C32	C	1.293613	0.623057	0.657183
C33	C	0.793600	0.123052	0.301709
C34	C	1.293600	0.623052	0.801709
C35	C	0.698993	0.121341	0.274361
C36	C	1.198993	0.621341	0.774361
C37	C	0.651705	0.120484	0.188418
C38	C	1.151705	0.620484	0.688418
C39	C	0.651690	0.120484	0.332956
C40	C	1.151690	0.620484	0.832956
C41	C	0.557091	0.118767	0.305610
C42	C	1.057091	0.618767	0.805610
C43	C	0.509795	0.117909	0.219670
C44	C	1.009795	0.617909	0.719670
C45	C	0.557106	0.118768	0.161072
C46	C	1.057106	0.618768	0.661072
C47	C	0.698979	0.121334	0.418899
C48	C	1.198979	0.621334	0.918899
C49	C	0.651676	0.120476	0.477493
C50	C	1.151676	0.620476	0.977493
C51	C	0.557076	0.118767	0.450148
C52	C	1.057076	0.618767	0.950148
C53	C	0.509781	0.117908	0.364208
C54	C	1.009781	0.617908	0.864208
C55	C	0.509766	0.117907	0.508746
C56	C	1.009766	0.617907	1.008746
C57	C	0.415167	0.116191	0.481400
C58	C	0.915167	0.616191	0.981400
C59	C	0.415182	0.116192	0.336862
C60	C	0.915182	0.616192	0.836862
C61	C	1.309252	-0.501213	0.378507
C62	C	1.809252	-0.001213	0.878507
C63	C	1.277818	-0.591413	0.369419
C64	C	1.777818	-0.091413	0.869419
C65	C	1.120310	-0.570987	0.323881
C66	C	1.620310	-0.070987	0.823881
C67	C	1.151731	-0.480783	0.332969
C68	C	1.651731	0.019217	0.832969
C69	C	1.246203	-0.445904	0.360281
C70	C	1.746203	0.054096	0.860281
C71	C	1.088681	-0.425474	0.314744
C72	C	1.588681	0.074526	0.814744
C73	C	1.120100	-0.335279	0.323827
C74	C	1.620100	0.164721	0.823827
C75	C	1.214568	-0.300393	0.351135
C76	C	1.714568	0.199607	0.851135
C77	C	1.277622	-0.355709	0.369364
C78	C	1.777622	0.144291	0.869364
C79	C	0.994209	-0.460355	0.287426
C80	C	1.494209	0.039645	0.787426
C81	C	0.931160	-0.405046	0.269200
C82	C	1.431160	0.094954	0.769200
C83	C	0.962579	-0.314849	0.278289
C84	C	1.462579	0.185151	0.778289
C85	C	1.057047	-0.279963	0.305598
C86	C	1.557047	0.220037	0.805598
C87	C	0.899525	-0.259533	0.260060
C88	C	1.399525	0.240467	0.760060
C89	C	0.930944	-0.169338	0.269143
C90	C	1.430944	0.330662	0.769143
C91	C	1.088466	-0.189768	0.314681
C92	C	1.588466	0.310232	0.814681
C93	C	1.267197	0.113508	0.366353
C94	C	1.767197	0.613508	0.866353
C95	C	1.367879	0.115335	0.395456
C96	C	1.867879	0.615335	0.895456
C97	C	1.149934	0.277708	0.332448
C98	C	1.649934	0.777708	0.832448
C99	C	1.183365	0.373704	0.342110
C100	C	1.683365	0.873704	0.842110
N101	N	1.104364	0.119609	0.525827
N102	N	1.604364	0.619609	1.025827
N103	N	1.104422	0.119629	0.112746
N104	N	1.604422	0.619629	0.612746
C105	C	1.146320	0.060921	0.579676
C106	C	1.646320	0.560921	1.079676
C107	C	1.146325	0.060920	0.663129
C108	C	1.646325	0.560920	1.163129
C109	C	1.104379	0.119612	0.692734
C110	C	1.604379	0.619612	1.192734
C111	C	1.062418	0.178303	0.638878
C112	C	1.562418	0.678303	1.138878
C113	C	1.062408	0.178299	0.555424
C114	C	1.562408	0.678299	1.055424
C115	C	1.062456	0.178320	0.975436
C116	C	1.562456	0.678320	1.475436
C117	C	1.062472	0.178322	1.058897
C118	C	1.562472	0.678322	1.558897
C119	C	1.146373	0.060942	1.083141
C120	C	1.646373	0.560942	1.583141
C121	C	1.146363	0.060937	0.999688
C122	C	1.646363	0.560937	1.499688
C123	C	1.104398	0.119625	0.945838
C124	C	1.604398	0.619625	1.445838
C125	C	1.104392	0.119624	0.855347
C126	C	1.604392	0.619624	1.355347
C127	C	1.104391	0.119618	0.783224
C128	C	1.604391	0.619618	1.283224
H129	H	0.376679	0.115505	0.266878
H130	H	0.876679	0.615505	0.766878
H131	H	1.028289	0.226107	0.931598
H132	H	1.528289	0.726107	1.431598
N133	N	1.411149	-0.463588	0.407980
N134	N	1.911149	0.036412	0.907980
H135	H	1.427673	-0.426630	0.461908
H136	H	1.927673	0.073370	0.961908
H137	H	1.446253	-0.512363	0.418106
H138	H	1.946253	-0.012363	0.918106
N139	N	1.191543	-0.002391	0.547734
N140	N	1.691543	0.497609	1.047734
H141	H	1.242370	0.030715	0.527787
H142	H	1.742370	0.530715	1.027787
H143	H	1.218063	-0.039563	0.594539
H144	H	1.718063	0.460437	1.094539
N145	N	0.862931	-0.109690	0.249501
N146	N	1.362931	0.390310	0.749501
H147	H	0.872456	-0.071824	0.301405
H148	H	1.372456	0.428176	0.801405
H149	H	0.872482	-0.071858	0.203088
H150	H	1.372482	0.428142	0.703088
H151	H	0.690191	0.121170	0.547469
H152	H	1.190191	0.621170	1.047469
H153	H	1.240148	-0.226950	0.358530
H154	H	1.740148	0.273050	0.858530
H155	H	0.776008	0.122732	0.441161
H156	H	1.276008	0.622732	0.941161
H157	H	0.968631	-0.533799	0.280027
H158	H	1.468631	-0.033799	0.780027
H159	H	1.028311	0.226117	1.082998
H160	H	1.528311	0.726117	1.582998
H161	H	1.165394	-0.161368	0.336929
H162	H	1.665394	0.338632	0.836929
N163	N	1.379517	-0.318079	0.398835
N164	N	1.879517	0.181921	0.898835
H165	H	1.414696	-0.366802	0.409009
H166	H	1.914696	0.133198	0.909009
H167	H	1.395994	-0.281096	0.354451
H168	H	1.895994	0.218904	0.854451
H169	H	0.660505	0.120655	0.059840
H170	H	1.160505	0.620655	0.559840
H171	H	1.028242	0.226088	0.511580
H172	H	1.528242	0.726088	1.011580
H173	H	1.043390	-0.599398	0.301641
H174	H	1.543390	-0.099398	0.801641
N175	N	1.017180	0.241606	0.670813
N176	N	1.517180	0.741606	1.170813
H177	H	1.047797	0.302996	0.665129
H178	H	1.547797	0.802996	1.165129
H179	H	0.949880	0.231458	0.636834
H180	H	1.449880	0.731458	1.136834
N181	N	0.407762	0.116051	0.190172
N182	N	0.907762	0.616051	0.690172
H183	H	0.395320	0.169197	0.214944
H184	H	0.895320	0.669197	0.714944
H185	H	0.385052	0.115605	0.126836
H186	H	0.885052	0.615605	0.626836
H187	H	0.518603	0.118082	0.091089
H188	H	1.018603	0.618082	0.591089
H189	H	0.832125	0.123761	0.109462
H190	H	1.332125	0.623761	0.609462
H191	H	1.180540	0.013152	1.126994
H192	H	1.680540	0.513152	1.626994
N193	N	0.560772	0.118822	0.601437
N194	N	1.060772	0.618822	1.101437
H195	H	0.627878	0.120035	0.609869
H196	H	1.127878	0.620035	1.109869
H197	H	0.554593	0.172085	0.631207
H198	H	1.054593	0.672085	1.131207
H199	H	0.832114	0.123746	0.371684
H200	H	1.332114	0.623746	0.871684
N201	N	0.364142	0.115261	0.544596
N202	N	0.864142	0.615261	1.044596
H203	H	0.408338	0.115461	0.603152
H204	H	0.908338	0.615461	1.103152
H205	H	0.335775	0.168420	0.539783
H206	H	0.835775	0.668420	1.039783
N207	N	1.345826	-0.651070	0.389072
N208	N	1.845826	-0.151070	0.889072
H209	H	1.410438	-0.615285	0.407750
H210	H	1.910438	-0.115285	0.907750
H211	H	1.336217	-0.688945	0.435441
H212	H	1.836217	-0.188945	0.935441
H213	H	0.854240	-0.433457	0.246960
H214	H	1.354240	0.066543	0.746960
N215	N	0.797635	-0.297157	0.230593
N216	N	1.297635	0.202843	0.730593
H217	H	0.787299	-0.362688	0.227600
H218	H	1.287299	0.137312	0.727600
H219	H	0.768722	-0.276941	0.271382
H220	H	1.268722	0.223059	0.771382
H221	H	1.180488	0.013132	0.706973
H222	H	1.680488	0.513132	1.206973
N223	N	1.191609	-0.002362	0.967758
N224	N	1.691609	0.497638	1.467758
H225	H	1.218188	-0.039543	1.014535
H226	H	1.718188	0.460457	1.514535
H227	H	1.144469	-0.040652	0.919518
H228	H	1.644469	0.459348	1.419518
