data_functionalizedCrystal
_audit_creation_method	'MofGen! by Chris Wilmer'
_symmetry_space_group_name_H-M	'P1'
_symmetry_Int_Tables_number	1
_symmetry_cell_setting	triclinic
loop_
_symmetry_equiv_pos_as_xyz
  x,y,z
_cell_length_a	10.654550
_cell_length_b	10.654550
_cell_length_c	9.730223
_cell_angle_alpha	90.000043
_cell_angle_beta	90.004253
_cell_angle_gamma	84.484931
loop_
_atom_site_label
_atom_site_type_symbol
_atom_site_fract_x
_atom_site_fract_y
_atom_site_fract_z
O1	O	-0.176399	-1.667839	-0.114187
O2	O	-0.193205	-1.302361	-0.114212
O3	O	-0.002062	-1.493503	-0.114190
O4	O	-0.367541	-1.476697	-0.114209
O5	O	-0.002057	-1.493490	0.114390
O6	O	-0.193199	-1.302348	0.114368
O7	O	-0.176393	-1.667827	0.114393
Zn8	Zn	-0.184796	-1.485085	0.150672
Zn9	Zn	-0.184802	-1.485102	-0.150492
O10	O	-0.367536	-1.476684	0.114371
C11	C	0.044738	-1.492263	0.000099
C12	C	0.184181	-1.488571	0.000096
C13	C	-0.191968	-1.255556	0.000075
C14	C	-0.188276	-1.116113	0.000065
C15	C	-0.177630	-1.714631	0.000103
C16	C	-0.181322	-1.854074	0.000104
C17	C	-0.414336	-1.477925	0.000079
C18	C	-0.553779	-1.481617	0.000072
C19	C	0.263667	-1.601112	0.000104
C20	C	0.394688	-1.597636	0.000087
C21	C	0.366725	-1.369066	0.000061
C22	C	0.235706	-1.372544	0.000068
N23	N	-0.184790	-1.485083	0.356209
C24	C	-0.300818	-1.036628	0.000064
C25	C	-0.297341	-0.905607	0.000088
C26	C	-0.068772	-0.933570	0.000109
C27	C	-0.072250	-1.064588	0.000095
N28	N	-0.184798	-1.485114	-0.356028
C29	C	-0.100188	-1.569750	0.428144
C30	C	-0.100189	-1.569763	0.572027
C31	C	-0.269404	-1.400438	0.572026
C32	C	-0.269396	-1.400420	0.428146
H33	H	0.221720	-1.695588	0.000124
O34	O	-0.017963	-1.652132	0.641692
C35	C	0.149923	-1.820029	0.626499
C36	C	0.056844	-1.726832	0.547435
H37	H	0.210447	-1.880431	0.550327
H38	H	0.095176	-1.883327	0.693809
H39	H	0.213116	-1.765253	0.693911
H40	H	-0.006371	-1.781506	0.479948
H41	H	0.111670	-1.663535	0.480212
O42	O	-0.413598	-1.086531	-0.000137
C43	C	-0.609992	-1.102759	-0.118614
C44	C	-0.482321	-1.046144	-0.118546
H45	H	-0.665579	-1.070150	-0.214352
H46	H	-0.665748	-1.070076	-0.023018
H47	H	-0.593122	-1.210053	-0.118560
H48	H	-0.499076	-0.938847	-0.118649
H49	H	-0.426606	-1.078926	-0.214134
H50	H	0.025693	-0.891602	0.000142
H51	H	0.170985	-1.280893	0.000058
O52	O	0.416629	-1.256286	0.000226
C53	C	0.432883	-1.059885	0.118664
C54	C	0.376266	-1.187555	0.118629
H55	H	0.400293	-1.004291	0.214397
H56	H	0.400183	-1.004136	0.023063
H57	H	0.540177	-1.076757	0.118596
H58	H	0.268969	-1.170799	0.118745
H59	H	0.409066	-1.243264	0.214221
H60	H	-0.388984	-0.840894	0.000089
O61	O	0.037115	-1.141757	-0.000149
C62	C	0.231442	-1.205693	-0.118512
C63	C	0.107630	-1.118250	-0.118430
H64	H	0.288500	-1.186700	-0.214117
H65	H	0.209098	-1.308209	-0.118610
H66	H	0.288429	-1.186845	-0.022801
H67	H	0.050583	-1.136985	-0.214125
H68	H	0.130063	-1.015762	-0.118260
H69	H	-0.338290	-1.331508	0.630612
H70	H	-0.338290	-1.331468	0.369572
H71	H	-0.031295	-1.638687	0.369576
H72	H	0.459401	-1.689279	0.000090
