data_functionalizedCrystal
_audit_creation_method	'MofGen! by Chris Wilmer'
_symmetry_space_group_name_H-M	'P1'
_symmetry_Int_Tables_number	1
_symmetry_cell_setting	triclinic
loop_
_symmetry_equiv_pos_as_xyz
  x,y,z
_cell_length_a	12.759395
_cell_length_b	13.897447
_cell_length_c	12.759387
_cell_angle_alpha	90.031112
_cell_angle_beta	90.019071
_cell_angle_gamma	90.021067
loop_
_atom_site_label
_atom_site_type_symbol
_atom_site_fract_x
_atom_site_fract_y
_atom_site_fract_z
Zn1	Zn	1.606219	-0.383928	0.594000
Zn2	Zn	1.606099	-0.545254	0.418319
Zn3	Zn	1.430521	-0.383979	0.418337
Zn4	Zn	1.430494	-0.545187	0.593958
O5	O	1.518333	-0.464587	0.506154
O6	O	1.753224	-0.405335	0.570706
O7	O	1.582769	-0.523911	0.271300
O8	O	1.453889	-0.248991	0.441665
O9	O	1.753136	-0.523861	0.441633
O10	O	1.582973	-0.248953	0.570724
O11	O	1.453773	-0.405423	0.271314
O12	O	1.283496	-0.405357	0.441624
O13	O	1.453843	-0.523745	0.740985
O14	O	1.283477	-0.523795	0.570651
O15	O	1.582947	-0.405269	0.741016
O16	O	1.582743	-0.680227	0.441592
O17	O	1.453727	-0.680177	0.570634
C18	C	1.245366	-0.464575	0.506136
C19	C	1.128589	-0.464593	0.506153
C20	C	1.518248	-0.715201	0.506129
C21	C	1.518307	-0.822415	0.506154
C22	C	1.128607	-0.588123	0.640292
C23	C	1.073755	-0.649895	0.707365
C24	C	0.964034	-0.649907	0.707378
C25	C	0.909161	-0.588138	0.640313
C26	C	0.964013	-0.526365	0.573240
C27	C	1.073737	-0.526362	0.573232
C28	C	0.963995	-0.402833	0.439108
C29	C	1.073717	-0.402824	0.439088
C30	C	0.909123	-0.341063	0.372043
C31	C	0.963974	-0.279294	0.304963
C32	C	1.073703	-0.279286	0.304953
C33	C	1.128568	-0.341052	0.372015
C34	C	1.518358	-0.909485	0.506178
C35	C	1.518432	-1.018717	0.506205
C36	C	1.792367	-0.464599	0.506172
C37	C	1.909143	-0.464605	0.506180
C38	C	1.518406	-0.464494	0.780187
C39	C	1.518437	-0.464454	0.896964
C40	C	1.518448	-0.212994	0.506201
C41	C	1.518496	-0.105780	0.506221
C42	C	1.518321	-0.464610	0.233186
C43	C	1.518494	-0.464378	0.116410
C44	C	1.652939	-0.341017	1.116440
C45	C	1.720143	-0.279351	1.061594
C46	C	1.720114	-0.279383	0.951872
C47	C	1.652875	-0.341090	0.896994
C48	C	1.585670	-0.402756	0.951840
C49	C	1.585705	-0.402715	1.061564
C50	C	1.451232	-0.526120	0.951810
C51	C	1.451255	-0.526085	1.061532
C52	C	1.383993	-0.587828	0.896931
C53	C	1.316782	-0.649490	0.951777
C54	C	1.316814	-0.649455	1.061506
C55	C	1.384051	-0.587751	1.116377
H56	H	1.217948	-0.588127	0.640281
C57	C	1.242827	-0.717362	0.891412
C58	C	1.168897	-0.785190	0.951733
C59	C	1.094939	-0.853062	0.891363
C60	C	1.094912	-0.853106	0.770673
C61	C	1.168845	-0.785275	0.710346
C62	C	1.242803	-0.717403	0.770715
H63	H	1.168914	-0.785161	1.041081
H64	H	1.040208	-0.903275	0.936022
H65	H	1.040164	-0.903348	0.725984
H66	H	1.168828	-0.785305	0.620998
H67	H	1.297533	-0.667190	0.726056
C68	C	1.242888	-0.717291	1.121834
C69	C	1.288398	-0.793000	1.197252
C70	C	1.214472	-0.860837	1.257577
C71	C	1.095035	-0.852965	1.242484
C72	C	1.049519	-0.777254	1.167063
C73	C	1.123445	-0.709417	1.106738
H74	H	1.376818	-0.798829	1.208428
H75	H	1.248167	-0.916884	1.313408
H76	H	1.040311	-0.903183	1.287140
H77	H	0.961099	-0.771424	1.155887
H78	H	1.089750	-0.653370	1.050906
C79	C	0.903690	-0.717856	0.781155
C80	C	0.964036	-0.785798	0.854925
C81	C	0.903692	-0.853746	0.928701
C82	C	0.783002	-0.853754	0.928709
C83	C	0.722649	-0.785809	0.854936
C84	C	0.782993	-0.717861	0.781160
H85	H	1.053384	-0.785795	0.854922
H86	H	0.948370	-0.904043	0.983313
H87	H	0.738332	-0.904053	0.983323
H88	H	0.633301	-0.785812	0.854939
H89	H	0.738315	-0.667564	0.726549
C90	C	0.903616	-0.211354	0.231200
C91	C	0.782926	-0.211359	0.231220
C92	C	0.722563	-0.143419	0.157453
C93	C	0.782890	-0.075474	0.083667
C94	C	0.903587	-0.075467	0.083645
C95	C	0.963950	-0.143407	0.157411
H96	H	0.738262	-0.261658	0.285843
H97	H	0.633215	-0.143425	0.157470
H98	H	0.738206	-0.025181	0.029061
H99	H	0.948251	-0.025168	0.029022
H100	H	1.053298	-0.143401	0.157394
C101	C	1.134037	-0.211333	0.231172
C102	C	1.118986	-0.101689	0.239970
C103	C	1.179316	-0.033734	0.166189
C104	C	1.254697	-0.075423	0.083609
C105	C	1.269752	-0.185072	0.074807
C106	C	1.209422	-0.253027	0.148589
H107	H	1.063181	-0.070824	0.301103
H108	H	1.168171	0.047436	0.172705
H109	H	1.299357	-0.025119	0.028992
H110	H	1.325556	-0.215938	0.013674
H111	H	1.220566	-0.334197	0.142073
C112	C	1.794038	-0.211551	0.891537
C113	C	1.876476	-0.253383	0.816098
C114	C	1.950401	-0.185552	0.755763
C115	C	1.941888	-0.075890	0.770865
C116	C	1.859447	-0.034053	0.846307
C117	C	1.785522	-0.101884	0.906643
H118	H	1.882781	-0.334566	0.804915
H119	H	2.011430	-0.216524	0.699916
H120	H	1.996612	-0.025678	0.726201
H121	H	1.853142	0.047130	0.857490
H122	H	1.724493	-0.070912	0.962490
H123	H	1.118444	-0.700185	0.761969
H124	H	1.384076	-0.587710	1.205719
H125	H	1.383978	-0.587853	0.807590
H126	H	0.819782	-0.341073	0.372063
H127	H	0.819820	-0.588144	0.640338
H128	H	1.217910	-0.341054	0.372010
H129	H	1.652957	-0.340972	1.205781
H130	H	1.774890	-0.229112	1.106288
H131	H	1.652866	-0.341119	0.807653
