data_functionalizedCrystal
_audit_creation_method	'MofGen! by Chris Wilmer'
_symmetry_space_group_name_H-M	'P1'
_symmetry_Int_Tables_number	1
_symmetry_cell_setting	triclinic
loop_
_symmetry_equiv_pos_as_xyz
  x,y,z
_cell_length_a	18.627263
_cell_length_b	18.627226
_cell_length_c	18.627297
_cell_angle_alpha	120.004257
_cell_angle_beta	89.999758
_cell_angle_gamma	60.000314
loop_
_atom_site_label
_atom_site_type_symbol
_atom_site_fract_x
_atom_site_fract_y
_atom_site_fract_z
O1	O	-0.492472	-0.633254	-0.021364
O2	O	-0.388078	-0.486243	0.021251
O3	O	-0.388073	-0.633252	-0.125763
O4	O	-0.492476	-0.486246	0.125650
O5	O	-0.507480	-0.513842	-0.125750
O6	O	-0.507484	-0.366834	0.021264
O7	O	-0.611878	-0.513845	-0.021351
Cu8	Cu	-0.570584	-0.429436	-0.000042
Cu9	Cu	-0.429372	-0.570652	-0.000058
O10	O	-0.611883	-0.366836	0.125663
C11	C	-0.386972	-0.226052	0.030933
C12	C	-0.431269	-0.137457	0.024830
C13	C	-0.430378	-0.269043	0.031546
C14	C	-0.256974	-0.356049	0.030940
C15	C	-0.162277	-0.406446	0.024843
C16	C	-0.300578	-0.398842	0.031553
C17	C	-0.386977	-0.356045	0.030945
C18	C	-0.431279	-0.406439	0.024854
C19	C	-0.300573	-0.269046	0.031541
C20	C	-0.386972	-0.644049	-0.387063
C21	C	-0.431273	-0.593650	-0.431359
C22	C	-0.300570	-0.731061	-0.430476
C23	C	-0.386972	-0.644049	-0.257062
C24	C	-0.431274	-0.593649	-0.162360
C25	C	-0.300570	-0.731060	-0.300672
C26	C	-0.256967	-0.774057	-0.387075
C27	C	-0.162267	-0.862663	-0.431384
C28	C	-0.430378	-0.601250	-0.300660
C29	C	-0.612967	-0.774064	-0.031073
C30	C	-0.568663	-0.862671	-0.024986
C31	C	-0.699367	-0.731067	-0.031676
C32	C	-0.612973	-0.644053	-0.031059
C33	C	-0.568675	-0.593652	-0.024958
C34	C	-0.699373	-0.601254	-0.031662
C35	C	-0.742973	-0.644055	-0.031059
C36	C	-0.837671	-0.593656	-0.024957
C37	C	-0.569565	-0.731065	-0.031676
O38	O	0.125729	-0.513858	-0.021361
O39	O	-0.125673	-0.366850	0.021239
O40	O	0.021337	-0.513878	-0.125769
O41	O	-0.021281	-0.366830	0.125647
O42	O	0.021332	-0.633272	-0.125758
O43	O	-0.125678	-0.486244	0.021250
O44	O	0.125723	-0.633252	-0.021351
Cu45	Cu	0.000022	-0.570650	-0.000049
Cu46	Cu	0.000028	-0.429452	-0.000062
O47	O	-0.021286	-0.486224	0.125658
O48	O	-0.611861	0.104325	-0.021388
O49	O	-0.507471	-0.104455	0.021231
O50	O	-0.507458	-0.104488	-0.125785
O51	O	-0.611874	0.104358	0.125627
O52	O	-0.388054	-0.104491	-0.125790
O53	O	-0.388067	-0.104458	0.021226
O54	O	-0.492458	0.104323	-0.021393
Cu55	Cu	-0.429360	-0.000068	-0.000084
Cu56	Cu	-0.570569	-0.000065	-0.000078
O57	O	-0.492471	0.104355	0.125623
O58	O	0.125740	-1.104478	-0.492601
O59	O	-0.125666	-0.895666	-0.388186
O60	O	0.021333	-0.895665	-0.388184
O61	O	-0.021259	-1.104480	-0.492604
O62	O	0.021336	-0.895668	-0.507587
O63	O	-0.125662	-0.895670	-0.507590
O64	O	0.125743	-1.104481	-0.612004
Cu65	Cu	0.000041	-1.000076	-0.570700
Cu66	Cu	0.000036	-1.000072	-0.429491
O67	O	-0.021255	-1.104483	-0.612007
O68	O	-0.492482	-0.486240	-0.611947
O69	O	-0.388073	-0.633252	-0.507566
O70	O	-0.388080	-0.486241	-0.507549
O71	O	-0.492474	-0.633251	-0.611964
O72	O	-0.507485	-0.366833	-0.388135
O73	O	-0.507478	-0.513845	-0.388151
O74	O	-0.611886	-0.366832	-0.492533
Cu75	Cu	-0.570585	-0.429436	-0.429438
Cu76	Cu	-0.429375	-0.570649	-0.570660
O77	O	-0.611879	-0.513844	-0.492549
C78	C	-0.742991	-0.226029	0.386974
C79	C	-0.837691	-0.137423	0.431282
C80	C	-0.699388	-0.269025	0.430375
C81	C	-0.612985	-0.356038	0.256962
C82	C	-0.568682	-0.406439	0.162260
C83	C	-0.569580	-0.398837	0.300561
C84	C	-0.612987	-0.356036	0.386964
C85	C	-0.568686	-0.406435	0.431260
C86	C	-0.699387	-0.269027	0.300571
C87	C	0.031017	-0.774100	-0.387066
C88	C	0.024915	-0.862701	-0.431360
C89	C	0.031625	-0.731114	-0.430477
C90	C	0.031024	-0.644088	-0.257067
C91	C	0.024932	-0.593680	-0.162367
C92	C	0.031633	-0.601300	-0.300676
C93	C	0.031022	-0.644107	-0.387077
C94	C	0.024926	-0.593719	-0.431384
C95	C	0.031627	-0.731095	-0.300664
C96	C	-0.030971	-0.355995	0.386966
C97	C	-0.024876	-0.406382	0.431273
C98	C	-0.031574	-0.268988	0.430366
C99	C	-0.030974	-0.356014	0.256956
C100	C	-0.024881	-0.406422	0.162255
C101	C	-0.031576	-0.269007	0.300553
C102	C	-0.030965	-0.226002	0.386954
C103	C	-0.024863	-0.137402	0.431249
C104	C	-0.031582	-0.398802	0.300565
C105	C	-0.256934	-0.356141	-0.387100
C106	C	-0.162233	-0.406545	-0.431403
C107	C	-0.300533	-0.398945	-0.430504
C108	C	-0.386944	-0.226117	-0.257092
C109	C	-0.431252	-0.137499	-0.162391
C110	C	-0.430346	-0.269118	-0.300695
C111	C	-0.386935	-0.356140	-0.387097
C112	C	-0.431233	-0.406544	-0.431397
C113	C	-0.300542	-0.269119	-0.300697
O114	O	-0.021314	-0.366913	-0.492588
O115	O	0.021311	-0.513904	-0.388181
O116	O	-0.125701	-0.366928	-0.388190
O117	O	0.125699	-0.513889	-0.492578
O118	O	-0.125670	-0.486364	-0.507605
O119	O	0.021343	-0.633340	-0.507596
O120	O	-0.021282	-0.486349	-0.612002
Cu121	Cu	0.000033	-0.570750	-0.570702
Cu122	Cu	-0.000004	-0.429503	-0.429481
O123	O	0.125730	-0.633325	-0.611993
C124	C	-0.612996	0.356008	0.386935
C125	C	-0.568699	0.406412	0.431236
C126	C	-0.699398	0.398812	0.430342
C127	C	-0.612985	0.225984	0.256930
C128	C	-0.568677	0.137366	0.162229
C129	C	-0.699388	0.268986	0.300534
C130	C	-0.742997	0.356007	0.386937
C131	C	-0.837697	0.406411	0.431239
C132	C	-0.569585	0.268986	0.300533
H133	H	-0.265572	-0.233058	0.032521
C134	C	-0.032907	-0.493383	0.253270
C135	C	-0.109495	-0.489115	0.291208
C136	C	-0.110819	-0.583693	0.243910
C137	C	-0.035555	-0.682538	0.158674
C138	C	0.041039	-0.686809	0.120732
C139	C	0.042363	-0.592232	0.168030
H140	H	-0.165215	-0.415941	0.354308
H141	H	-0.167520	-0.580530	0.271998
H142	H	-0.036536	-0.752550	0.123661
H143	H	0.096759	-0.759984	0.057631
H144	H	0.099063	-0.595394	0.139942
H145	H	-0.265563	-0.767033	-0.265662
H146	H	0.032609	-0.767116	-0.501471
C147	C	-0.253285	-0.779673	-0.526383
C148	C	-0.168062	-0.789636	-0.549968
C149	C	-0.120783	-0.838246	-0.645872
C150	C	-0.158727	-0.876893	-0.718190
C151	C	-0.243955	-0.866932	-0.694606
C152	C	-0.291234	-0.818322	-0.598702
H153	H	-0.139970	-0.761026	-0.496432
H154	H	-0.057692	-0.845620	-0.663330
H155	H	-0.123728	-0.912877	-0.789184
H156	H	-0.272047	-0.895542	-0.748142
H157	H	-0.354325	-0.810948	-0.581245
C158	C	-0.473679	-0.493428	0.253270
C159	C	-0.450109	-0.592283	0.168054
C160	C	-0.354214	-0.686873	0.120769
C161	C	-0.281889	-0.682608	0.158699
C162	C	-0.305458	-0.583749	0.243919
C163	C	-0.401353	-0.489159	0.291204
H164	H	-0.503650	-0.595444	0.139972
H165	H	-0.336768	-0.760055	0.057683
H166	H	-0.210902	-0.752629	0.123695
H167	H	-0.251917	-0.580589	0.272001
H168	H	-0.418799	-0.415977	0.354290
H169	H	-0.498615	0.233047	0.265505
C170	C	-0.032894	-0.220407	0.253256
C171	C	0.042376	-0.210460	0.239628
C172	C	0.041058	-0.161862	0.192333
C173	C	-0.035529	-0.123211	0.158665
C174	C	-0.110805	-0.133156	0.172292
C175	C	-0.109488	-0.181754	0.219587
H176	H	0.099076	-0.239074	0.264552
H177	H	0.096783	-0.154501	0.182246
H178	H	-0.036505	-0.087236	0.123654
H179	H	-0.167505	-0.104543	0.147368
H180	H	-0.165213	-0.189116	0.229674
H181	H	-0.501360	-0.531216	-0.265642
C182	C	-0.746674	-0.220421	0.526279
C183	C	-0.831882	-0.210491	0.549851
C184	C	-0.879162	-0.161894	0.645751
C185	C	-0.841233	-0.123228	0.718078
C186	C	-0.756020	-0.133158	0.694507
C187	C	-0.708740	-0.181754	0.598608
H188	H	-0.859963	-0.239115	0.496309
H189	H	-0.942242	-0.154544	0.663199
H190	H	-0.876232	-0.087254	0.789068
H191	H	-0.727939	-0.104534	0.748050
H192	H	-0.645660	-0.189104	0.581160
C193	C	-0.526249	-0.220502	-0.253401
C194	C	-0.549820	-0.282150	-0.239780
C195	C	-0.645719	-0.233537	-0.192488
C196	C	-0.718046	-0.123276	-0.158816
C197	C	-0.694476	-0.061622	-0.172436
C198	C	-0.598578	-0.110235	-0.219728
H199	H	-0.496278	-0.363777	-0.264707
H200	H	-0.663166	-0.279178	-0.182406
H201	H	-0.789035	-0.087290	-0.123807
H202	H	-0.748018	0.020006	-0.147509
H203	H	-0.581130	-0.064593	-0.229810
C204	C	-0.253305	-0.493410	0.032890
C205	C	-0.239695	-0.592257	-0.042368
C206	C	-0.192430	-0.686819	-0.041026
C207	C	-0.158774	-0.682532	0.035574
C208	C	-0.172384	-0.583681	0.110837
C209	C	-0.219649	-0.489120	0.109495
H210	H	-0.264609	-0.595434	-0.099076
H211	H	-0.182355	-0.759995	-0.096741
H212	H	-0.123786	-0.752532	0.036567
H213	H	-0.147469	-0.580504	0.167546
H214	H	-0.229723	-0.415943	0.165211
H215	H	-0.032555	-0.232995	0.501359
C216	C	-0.746640	-0.220411	0.253275
C217	C	-0.780277	-0.110156	0.291226
C218	C	-0.827510	-0.061541	0.243927
C219	C	-0.841107	-0.123182	0.158678
C220	C	-0.807469	-0.233444	0.120723
C221	C	-0.760236	-0.282058	0.168022
H222	H	-0.770212	-0.064520	0.354336
H223	H	-0.852411	0.020082	0.272024
H224	H	-0.876072	-0.087194	0.123665
H225	H	-0.817533	-0.279079	0.057612
H226	H	-0.735335	-0.363682	0.139924
C227	C	0.032957	-0.506718	-0.253401
C228	C	0.109546	-0.510975	-0.219740
C229	C	0.110870	-0.416397	-0.172471
C230	C	0.035604	-0.317563	-0.158864
C231	C	-0.040991	-0.313302	-0.192526
C232	C	-0.042315	-0.407880	-0.239794
H233	H	0.165268	-0.584141	-0.229812
H234	H	0.167571	-0.419551	-0.147552
H235	H	0.036584	-0.247550	-0.123873
H236	H	-0.096712	-0.240136	-0.182453
H237	H	-0.099016	-0.404726	-0.264713
H238	H	0.032600	-0.767072	-0.265655
H239	H	-0.265514	-0.468978	-0.501492
C240	C	-0.253275	-0.220486	-0.253380
C241	C	-0.239697	-0.210513	-0.168142
C242	C	-0.192441	-0.161874	-0.120813
C243	C	-0.158762	-0.123208	-0.158721
C244	C	-0.172339	-0.133179	-0.243963
C245	C	-0.219595	-0.181818	-0.291292
H246	H	-0.264628	-0.239137	-0.140077
H247	H	-0.182391	-0.154493	-0.057712
H248	H	-0.123781	-0.087202	-0.123685
H249	H	-0.147408	-0.104555	-0.272029
H250	H	-0.229646	-0.189200	-0.354394
C251	C	-0.746675	-0.779656	-0.032982
C252	C	-0.780348	-0.818315	-0.109568
C253	C	-0.827664	-0.866889	-0.110865
C254	C	-0.841306	-0.876804	-0.035578
C255	C	-0.807632	-0.838144	0.041013
C256	C	-0.760316	-0.789570	0.042311
H257	H	-0.770251	-0.810977	-0.165305
H258	H	-0.852592	-0.895508	-0.167564
H259	H	-0.876332	-0.912761	-0.036538
H260	H	-0.817729	-0.845482	0.096751
H261	H	-0.735388	-0.760951	0.099009
H262	H	-0.734387	0.232993	0.265524
C263	C	-0.473663	-0.779669	-0.033002
C264	C	-0.401343	-0.818332	-0.109601
C265	C	-0.305445	-0.866930	-0.110927
C266	C	-0.281867	-0.876865	-0.035654
C267	C	-0.354189	-0.838201	0.040951
C268	C	-0.450087	-0.789603	0.042277
H269	H	-0.418795	-0.810978	-0.165329
H270	H	-0.251908	-0.895551	-0.167636
H271	H	-0.210878	-0.912840	-0.036635
H272	H	-0.336737	-0.845555	0.096678
H273	H	-0.503624	-0.760982	0.098986
C274	C	-0.526291	-0.220429	0.032906
C275	C	-0.598603	-0.110169	0.109523
C276	C	-0.694518	-0.061556	0.110902
C277	C	-0.718121	-0.123204	0.035665
C278	C	-0.645808	-0.233470	-0.040957
C279	C	-0.549893	-0.282083	-0.042336
H280	H	-0.581132	-0.064528	0.165223
H281	H	-0.748049	0.020071	0.167623
H282	H	-0.789123	-0.087217	0.036686
H283	H	-0.663279	-0.279112	-0.096657
H284	H	-0.496362	-0.363711	-0.099057
C285	C	-0.746674	-0.506674	-0.032983
C286	C	-0.831907	-0.407833	0.042285
C287	C	-0.879208	-0.313260	0.040960
C288	C	-0.841278	-0.317529	-0.035633
C289	C	-0.756040	-0.416375	-0.110906
C290	C	-0.708738	-0.510948	-0.109581
H291	H	-0.859990	-0.404669	0.098989
H292	H	-0.942307	-0.240088	0.096683
H293	H	-0.876293	-0.247521	-0.036614
H294	H	-0.727957	-0.419539	-0.167610
H295	H	-0.645640	-0.584120	-0.165304
H296	H	-0.734406	0.468835	0.501335
