data_functionalizedCrystal
_audit_creation_method	'MofGen! by Chris Wilmer'
_symmetry_space_group_name_H-M	'P1'
_symmetry_Int_Tables_number	1
_symmetry_cell_setting	triclinic
loop_
_symmetry_equiv_pos_as_xyz
  x,y,z
_cell_length_a	13.897449
_cell_length_b	16.959453
_cell_length_c	16.959447
_cell_angle_alpha	89.971568
_cell_angle_beta	90.014291
_cell_angle_gamma	89.972745
loop_
_atom_site_label
_atom_site_type_symbol
_atom_site_fract_x
_atom_site_fract_y
_atom_site_fract_z
Zn1	Zn	1.474586	0.314639	0.446918
Zn2	Zn	1.974586	0.814639	0.946918
Zn3	Zn	1.474475	0.446831	0.314744
Zn4	Zn	1.974475	0.946831	0.814744
Zn5	Zn	1.313293	0.314674	0.314756
Zn6	Zn	1.813293	0.814674	0.814756
Zn7	Zn	1.313233	0.446782	0.446883
Zn8	Zn	1.813233	0.946782	0.946883
O9	O	1.393897	0.380732	0.380825
O10	O	1.893897	0.880732	0.880825
O11	O	1.609553	0.332181	0.429395
O12	O	2.109553	0.832181	0.929395
O13	O	1.453072	0.429336	0.204135
O14	O	1.953072	0.929336	0.704135
O15	O	1.334760	0.204058	0.332307
O16	O	1.834760	0.704058	0.832307
O17	O	1.609471	0.429302	0.332287
O18	O	2.109471	0.929302	0.832287
O19	O	1.453261	0.204033	0.429407
O20	O	1.953261	0.704033	0.929407
O21	O	1.334653	0.332240	0.204144
O22	O	1.834653	0.832240	0.704144
O23	O	1.178304	0.332192	0.332273
O24	O	1.678304	0.832192	0.832273
O25	O	1.334659	0.429218	0.557499
O26	O	1.834659	0.929218	1.057499
O27	O	1.178260	0.429252	0.429346
O28	O	1.678260	0.929252	0.929346
O29	O	1.453204	0.332133	0.557525
O30	O	1.953204	0.832133	1.057525
O31	O	1.453014	0.557436	0.332253
O32	O	1.953014	1.057436	0.832253
O33	O	1.334551	0.557400	0.429335
O34	O	1.834551	1.057400	0.929335
C35	C	1.143282	0.380721	0.380807
C36	C	1.643282	0.880721	0.880807
C37	C	1.036068	0.380736	0.380818
C38	C	1.536068	0.880736	0.880818
C39	C	1.393790	0.586098	0.380806
C40	C	1.893790	1.086098	0.880806
C41	C	1.393833	0.673955	0.380824
C42	C	1.893833	1.173955	0.880824
C43	C	1.393937	0.380666	0.586994
C44	C	1.893937	0.880666	1.086994
C45	C	1.393954	0.380638	0.674850
C46	C	1.893954	0.880638	1.174850
C47	C	0.839773	0.380738	0.380839
C48	C	1.339773	0.880738	0.880839
C49	C	0.949006	0.380734	0.380825
C50	C	1.449006	0.880734	0.880825
C51	C	1.645490	0.380743	0.380844
C52	C	2.145490	0.880743	0.880844
C53	C	1.752704	0.380748	0.380852
C54	C	2.252704	0.880748	0.880852
C55	C	1.332123	0.715239	0.431336
C56	C	1.832123	1.215239	0.931336
C57	C	1.455588	0.715224	0.330333
C58	C	1.955588	1.215224	0.830333
C59	C	1.455634	0.797770	0.330351
C60	C	1.955634	1.297770	0.830351
C61	C	1.393924	0.839054	0.380864
C62	C	1.893924	1.339054	0.880864
C63	C	1.332169	0.797792	0.431358
C64	C	1.832169	1.297792	0.931358
C65	C	1.517396	0.839037	0.279864
C66	C	2.017396	1.339037	0.779864
C67	C	1.517445	0.921588	0.279881
C68	C	2.017445	1.421588	0.779881
C69	C	1.455729	0.962874	0.330390
C70	C	1.955729	1.462874	0.830390
C71	C	1.393970	0.921607	0.380885
C72	C	1.893970	1.421607	0.880885
C73	C	1.332261	0.962892	0.431397
C74	C	1.832261	1.462892	0.931397
C75	C	1.270496	0.921626	0.481889
C76	C	1.770496	1.421626	0.981889
C77	C	1.270454	0.839078	0.481866
C78	C	1.770454	1.339078	0.981866
C79	C	1.455772	1.045423	0.330412
C80	C	1.955772	1.545423	0.830412
C81	C	1.332307	1.045445	0.431419
C82	C	1.832307	1.545445	0.931419
C83	C	1.394024	1.174563	0.380874
C84	C	1.894024	1.674563	0.880874
C85	C	1.394062	1.086707	0.380925
C86	C	1.894062	1.586707	0.880925
C87	C	1.393912	0.380740	0.175459
C88	C	1.893912	0.880740	0.675459
C89	C	1.394082	0.380545	0.087603
C90	C	1.894082	0.880545	0.587603
C91	C	1.332348	0.431103	1.046315
C92	C	1.832348	0.931103	1.546315
C93	C	1.455790	0.330007	1.046337
C94	C	1.955790	0.830007	1.546337
C95	C	1.455765	0.330024	0.963791
C96	C	1.955765	0.830024	1.463791
C97	C	1.394031	0.380582	0.922503
C98	C	1.894031	0.880582	1.422503
C99	C	1.332323	0.431123	0.963761
C100	C	1.832323	0.931123	1.463761
C101	C	1.517478	0.279490	0.922527
C102	C	2.017478	0.779490	1.422527
C103	C	1.517456	0.279505	0.839976
C104	C	2.017456	0.779505	1.339976
C105	C	1.455716	0.330059	0.798687
C106	C	1.955716	0.830059	1.298687
C107	C	1.394005	0.380602	0.839950
C108	C	1.894005	0.880602	1.339950
C109	C	1.332271	0.431159	0.798662
C110	C	1.832271	0.931159	1.298662
C111	C	1.270554	0.481698	0.839924
C112	C	1.770554	0.981698	1.339924
C113	C	1.270583	0.481677	0.922472
C114	C	1.770583	0.981677	1.422472
C115	C	1.455688	0.330081	0.716138
C116	C	1.955688	0.830081	1.216138
C117	C	1.332246	0.431179	0.716108
C118	C	1.832246	0.931179	1.216108
H119	H	1.282054	1.079053	0.472552
H120	H	1.782054	1.579053	0.972552
H121	H	1.506056	0.288850	1.079959
H122	H	2.006056	0.788850	1.579959
O123	O	1.522151	0.670688	0.275870
O124	O	2.022151	1.170688	0.775870
H125	H	1.505686	0.686582	0.213819
H126	H	2.005686	1.186582	0.713819
O127	O	1.584025	0.224933	0.967055
O128	O	2.084025	0.724933	1.467055
H129	H	1.573651	0.233393	1.031387
H130	H	2.073651	0.733393	1.531387
H131	H	1.220257	0.955251	0.523020
H132	H	1.720257	1.455251	1.023020
O133	O	1.203848	0.794574	0.536329
O134	O	1.703848	1.294574	1.036329
H135	H	1.214195	0.730237	0.527835
H136	H	1.714195	1.230237	1.027835
H137	H	1.281832	0.681639	0.472444
H138	H	1.781832	1.181639	0.972444
O139	O	1.584017	0.224998	0.795475
O140	O	2.084017	0.724998	1.295475
H141	H	1.567516	0.162957	0.811332
H142	H	2.067516	0.662957	1.311332
H143	H	1.220340	0.522826	0.956075
H144	H	1.720340	1.022826	1.456075
O145	O	1.583986	0.794514	0.225413
O146	O	2.083986	1.294514	0.725413
H147	H	1.573579	0.730181	0.233885
H148	H	2.073579	1.230181	0.733885
H149	H	1.567736	0.955180	0.238766
H150	H	2.067736	1.455180	0.738766
H151	H	1.505939	0.288935	0.682547
H152	H	2.005939	0.788935	1.182547
H153	H	1.220295	0.522866	0.806296
H154	H	1.720295	1.022866	1.306296
H155	H	1.506065	1.079017	0.289307
H156	H	2.006065	1.579017	0.789307
H157	H	1.281965	0.472343	0.682498
H158	H	1.781965	0.972343	1.182498
H159	H	1.282097	0.472248	1.079914
H160	H	1.782097	0.972248	1.579914
