data_functionalizedCrystal
_audit_creation_method	'MofGen! by Chris Wilmer'
_symmetry_space_group_name_H-M	'P1'
_symmetry_Int_Tables_number	1
_symmetry_cell_setting	triclinic
loop_
_symmetry_equiv_pos_as_xyz
  x,y,z
_cell_length_a	23.532407
_cell_length_b	23.532407
_cell_length_c	14.421503
_cell_angle_alpha	90.006857
_cell_angle_beta	89.987551
_cell_angle_gamma	82.848713
loop_
_atom_site_label
_atom_site_type_symbol
_atom_site_fract_x
_atom_site_fract_y
_atom_site_fract_z
O1	O	0.755250	0.069131	0.077013
O2	O	1.005250	0.319131	0.327013
O3	O	1.255250	0.569131	0.577013
O4	O	1.505250	0.819131	0.827013
O5	O	0.589387	0.079134	0.077042
O6	O	0.839387	0.329134	0.327042
O7	O	1.089387	0.579134	0.577042
O8	O	1.339387	0.829134	0.827042
O9	O	0.677320	-0.008799	0.077001
O10	O	0.927320	0.241201	0.327001
O11	O	1.177320	0.491201	0.577001
O12	O	1.427320	0.741201	0.827001
O13	O	0.667317	0.157064	0.077055
O14	O	0.917317	0.407064	0.327055
O15	O	1.167317	0.657064	0.577055
O16	O	1.417317	0.907064	0.827055
O17	O	0.677331	-0.008794	-0.077223
O18	O	0.927331	0.241206	0.172777
O19	O	1.177331	0.491206	0.422777
O20	O	1.427331	0.741206	0.672777
O21	O	0.589398	0.079139	-0.077181
O22	O	0.839398	0.329139	0.172819
O23	O	1.089398	0.579139	0.422819
O24	O	1.339398	0.829139	0.672819
O25	O	0.755261	0.069136	-0.077211
O26	O	1.005261	0.319136	0.172789
O27	O	1.255261	0.569136	0.422789
O28	O	1.505261	0.819136	0.672789
Cu29	Cu	0.672330	0.074138	-0.091278
Cu30	Cu	0.922330	0.324138	0.158722
Cu31	Cu	1.172330	0.574138	0.408722
Cu32	Cu	1.422330	0.824138	0.658722
Cu33	Cu	0.672318	0.074132	0.091109
Cu34	Cu	0.922318	0.324132	0.341109
Cu35	Cu	1.172318	0.574132	0.591109
Cu36	Cu	1.422318	0.824132	0.841109
O37	O	0.667328	0.157070	-0.077169
O38	O	0.917328	0.407070	0.172831
O39	O	1.167328	0.657070	0.422831
O40	O	1.417328	0.907070	0.672831
C41	C	0.568176	0.078882	-0.000066
C42	C	0.818176	0.328882	0.249934
C43	C	1.068176	0.578882	0.499934
C44	C	1.318176	0.828882	0.749934
C45	C	0.504959	0.078116	-0.000056
C46	C	0.754959	0.328116	0.249944
C47	C	1.004959	0.578116	0.499944
C48	C	1.254959	0.828116	0.749944
C49	C	0.677071	-0.030013	-0.000116
C50	C	0.927071	0.219987	0.249884
C51	C	1.177071	0.469987	0.499884
C52	C	1.427071	0.719987	0.749884
C53	C	0.676305	-0.093230	-0.000130
C54	C	0.926305	0.156770	0.249870
C55	C	1.176305	0.406770	0.499870
C56	C	1.426305	0.656770	0.749870
C57	C	0.621110	-0.359397	-0.000062
C58	C	0.871110	-0.109397	0.249938
C59	C	1.121110	0.140603	0.499938
C60	C	1.371110	0.390603	0.749938
C61	C	0.621821	-0.299997	-0.000069
C62	C	0.871821	-0.049997	0.249931
C63	C	1.121821	0.200003	0.499931
C64	C	1.371821	0.450003	0.749931
O65	O	0.578035	-0.263252	-0.000032
O66	O	0.828035	-0.013252	0.249968
O67	O	1.078035	0.236748	0.499968
O68	O	1.328035	0.486748	0.749968
N69	N	0.674097	-0.277371	-0.000089
N70	N	0.924097	-0.027371	0.249911
N71	N	1.174097	0.222629	0.499911
N72	N	1.424097	0.472629	0.749911
C73	C	0.725666	-0.314148	-0.000092
C74	C	0.975666	-0.064148	0.249908
C75	C	1.225666	0.185852	0.499908
C76	C	1.475666	0.435852	0.749908
O77	O	0.770196	-0.289449	-0.000109
O78	O	1.020196	-0.039449	0.249891
O79	O	1.270196	0.210551	0.499891
O80	O	1.520196	0.460551	0.749891
C81	C	0.724954	-0.373547	-0.000079
C82	C	0.974954	-0.123547	0.249921
C83	C	1.224954	0.126453	0.499921
C84	C	1.474954	0.376453	0.749921
C85	C	0.672674	-0.396170	-0.000068
C86	C	0.922674	-0.146170	0.249932
C87	C	1.172674	0.103830	0.499932
C88	C	1.422674	0.353830	0.749932
C89	C	0.568834	-0.382020	-0.000050
C90	C	0.818834	-0.132020	0.249950
C91	C	1.068834	0.117980	0.499950
C92	C	1.318834	0.367980	0.749950
C93	C	0.568123	-0.441417	-0.000045
C94	C	0.818123	-0.191417	0.249955
C95	C	1.068123	0.058583	0.499955
C96	C	1.318123	0.308583	0.749955
C97	C	0.619687	-0.478189	-0.000051
C98	C	0.869687	-0.228189	0.249949
C99	C	1.119687	0.021811	0.499949
C100	C	1.369687	0.271811	0.749949
C101	C	0.671963	-0.455566	-0.000062
C102	C	0.921963	-0.205566	0.249938
C103	C	1.171963	0.044434	0.499938
C104	C	1.421963	0.294434	0.749938
C105	C	0.776521	-0.410324	-0.000075
C106	C	1.026521	-0.160324	0.249925
C107	C	1.276521	0.089676	0.499925
C108	C	1.526521	0.339676	0.749925
C109	C	0.775805	-0.469726	-0.000061
C110	C	1.025805	-0.219726	0.249939
C111	C	1.275805	0.030274	0.499939
C112	C	1.525805	0.280274	0.749939
C113	C	0.723525	-0.492349	-0.000050
C114	C	0.973525	-0.242349	0.249950
C115	C	1.223525	0.007651	0.499950
C116	C	1.473525	0.257651	0.749950
C117	C	0.722816	-0.551735	-0.000063
C118	C	0.972816	-0.301735	0.249937
C119	C	1.222816	-0.051735	0.499937
C120	C	1.472816	0.198265	0.749937
N121	N	0.670539	-0.574361	-0.000043
N122	N	0.920539	-0.324361	0.249957
N123	N	1.170539	-0.074361	0.499957
N124	N	1.420539	0.175639	0.749957
C125	C	0.618975	-0.537589	-0.000037
C126	C	0.868975	-0.287589	0.249963
C127	C	1.118975	-0.037589	0.499963
C128	C	1.368975	0.212411	0.749963
C129	C	0.727157	-0.189406	-0.000120
C130	C	0.977157	0.060594	0.249880
C131	C	1.227157	0.310594	0.499880
C132	C	1.477157	0.560594	0.749880
C133	C	0.727870	-0.130008	-0.000141
C134	C	0.977870	0.119992	0.249859
C135	C	1.227870	0.369992	0.499859
C136	C	1.477870	0.619992	0.749859
C137	C	0.624025	-0.115860	-0.000115
C138	C	0.874025	0.134140	0.249885
C139	C	1.124025	0.384140	0.499885
C140	C	1.374025	0.634140	0.749885
C141	C	0.623313	-0.175260	-0.000102
C142	C	0.873313	0.074740	0.249898
C143	C	1.123313	0.324740	0.499898
C144	C	1.373313	0.574740	0.749898
C145	C	0.674881	-0.212032	-0.000100
C146	C	0.924881	0.037968	0.249900
C147	C	1.174881	0.287968	0.499900
C148	C	1.424881	0.537968	0.749900
C149	C	0.617486	-0.662325	-0.000026
C150	C	0.867486	-0.412325	0.249974
C151	C	1.117486	-0.162325	0.499974
C152	C	1.367486	0.087675	0.749974
C153	C	0.616779	-0.721727	-0.000024
C154	C	0.866779	-0.471727	0.249976
C155	C	1.116779	-0.221727	0.499976
C156	C	1.366779	0.028273	0.749976
C157	C	0.720623	-0.735869	-0.000045
C158	C	0.970623	-0.485869	0.249955
C159	C	1.220623	-0.235869	0.499955
C160	C	1.470623	0.014131	0.749955
C161	C	0.721330	-0.676473	-0.000051
C162	C	0.971330	-0.426473	0.249949
C163	C	1.221330	-0.176473	0.499949
C164	C	1.471330	0.073527	0.749949
C165	C	0.669757	-0.639701	-0.000039
C166	C	0.919757	-0.389701	0.249961
C167	C	1.169757	-0.139701	0.499961
C168	C	1.419757	0.110299	0.749961
O169	O	0.766579	-0.588514	-0.000096
O170	O	1.016579	-0.338514	0.249904
O171	O	1.266579	-0.088514	0.499904
O172	O	1.516579	0.161486	0.749904
O173	O	0.574452	-0.562296	-0.000008
O174	O	0.824452	-0.312296	0.249992
O175	O	1.074452	-0.062296	0.499992
O176	O	1.324452	0.187704	0.749992
C177	C	0.105856	0.125350	-0.000082
C178	C	0.355856	0.375350	0.249918
C179	C	0.605856	0.625350	0.499918
C180	C	0.855856	0.875350	0.749918
C181	C	0.046456	0.124638	-0.000088
C182	C	0.296456	0.374638	0.249912
C183	C	0.546456	0.624638	0.499912
C184	C	0.796456	0.874638	0.749912
O185	O	0.009712	0.168424	-0.000108
O186	O	0.259712	0.418424	0.249892
O187	O	0.509712	0.668424	0.499892
O188	O	0.759712	0.918424	0.749892
N189	N	0.023830	0.072362	-0.000104
N190	N	0.273830	0.322362	0.249896
N191	N	0.523830	0.572362	0.499896
N192	N	0.773830	0.822362	0.749896
C193	C	0.060607	0.020794	-0.000123
C194	C	0.310607	0.270794	0.249877
C195	C	0.560607	0.520794	0.499877
C196	C	0.810607	0.770794	0.749877
O197	O	0.035908	-0.023737	-0.000137
O198	O	0.285908	0.226263	0.249863
O199	O	0.535908	0.476263	0.499863
O200	O	0.785908	0.726263	0.749863
C201	C	0.120007	0.021506	-0.000123
C202	C	0.370007	0.271506	0.249877
C203	C	0.620007	0.521506	0.499877
C204	C	0.870007	0.771506	0.749877
C205	C	0.142629	0.073785	-0.000099
C206	C	0.392629	0.323785	0.249901
C207	C	0.642629	0.573785	0.499901
C208	C	0.892629	0.823785	0.749901
C209	C	0.128480	0.177625	-0.000059
C210	C	0.378480	0.427625	0.249941
C211	C	0.628480	0.677625	0.499941
C212	C	0.878480	0.927625	0.749941
C213	C	0.187876	0.178336	-0.000051
C214	C	0.437876	0.428336	0.249949
C215	C	0.687876	0.678336	0.499949
C216	C	0.937876	0.928336	0.749949
C217	C	0.224649	0.126772	-0.000067
C218	C	0.474649	0.376772	0.249933
C219	C	0.724649	0.626772	0.499933
C220	C	0.974649	0.876772	0.749933
C221	C	0.202025	0.074496	-0.000091
C222	C	0.452025	0.324496	0.249909
C223	C	0.702025	0.574496	0.499909
C224	C	0.952025	0.824496	0.749909
C225	C	0.156783	-0.030062	-0.000149
C226	C	0.406783	0.219938	0.249851
C227	C	0.656783	0.469938	0.499851
C228	C	0.906783	0.719938	0.749851
C229	C	0.216185	-0.029345	-0.000150
C230	C	0.466185	0.220655	0.249850
C231	C	0.716185	0.470655	0.499850
C232	C	0.966185	0.720655	0.749850
C233	C	0.238808	0.022934	-0.000126
C234	C	0.488808	0.272934	0.249874
C235	C	0.738808	0.522934	0.499874
C236	C	0.988808	0.772934	0.749874
C237	C	0.298194	0.023643	-0.000100
C238	C	0.548194	0.273643	0.249900
C239	C	0.798194	0.523643	0.499900
C240	C	1.048194	0.773643	0.749900
N241	N	0.320821	0.075920	-0.000084
N242	N	0.570821	0.325920	0.249916
N243	N	0.820821	0.575920	0.499916
N244	N	1.070821	0.825920	0.749916
C245	C	0.284048	0.127484	-0.000068
C246	C	0.534048	0.377484	0.249932
C247	C	0.784048	0.627484	0.499932
C248	C	1.034048	0.877484	0.749932
C249	C	-0.064135	0.019302	-0.000123
C250	C	0.185865	0.269302	0.249877
C251	C	0.435865	0.519302	0.499877
C252	C	0.685865	0.769302	0.749877
C253	C	-0.123533	0.018589	-0.000115
C254	C	0.126467	0.268589	0.249885
C255	C	0.376467	0.518589	0.499885
C256	C	0.626467	0.768589	0.749885
C257	C	-0.137680	0.122434	-0.000083
C258	C	0.112320	0.372434	0.249917
C259	C	0.362320	0.622434	0.499917
C260	C	0.612320	0.872434	0.749917
C261	C	-0.078281	0.123146	-0.000084
C262	C	0.171719	0.373146	0.249916
C263	C	0.421719	0.623146	0.499916
C264	C	0.671719	0.873146	0.749916
C265	C	-0.041509	0.071578	-0.000107
C266	C	0.208491	0.321578	0.249893
C267	C	0.458491	0.571578	0.499893
C268	C	0.708491	0.821578	0.749893
C269	C	0.408784	0.128974	-0.000051
C270	C	0.658784	0.378974	0.249949
C271	C	0.908784	0.628974	0.499949
C272	C	1.158784	0.878974	0.749949
C273	C	0.468186	0.129680	-0.000040
C274	C	0.718186	0.379680	0.249960
C275	C	0.968186	0.629680	0.499960
C276	C	1.218186	0.879680	0.749960
C277	C	0.482329	0.025836	-0.000077
C278	C	0.732329	0.275836	0.249923
C279	C	0.982329	0.525836	0.499923
C280	C	1.232329	0.775836	0.749923
C281	C	0.422932	0.025129	-0.000084
C282	C	0.672932	0.275129	0.249916
C283	C	0.922932	0.525129	0.499916
C284	C	1.172932	0.775129	0.749916
C285	C	0.386161	0.076702	-0.000074
C286	C	0.636161	0.326702	0.249926
C287	C	0.886161	0.576702	0.499926
C288	C	1.136161	0.826702	0.749926
O289	O	0.334974	-0.020119	-0.000084
O290	O	0.584974	0.229881	0.249916
O291	O	0.834974	0.479881	0.499916
O292	O	1.084974	0.729881	0.749916
O293	O	0.308756	0.172007	-0.000066
O294	O	0.558756	0.422007	0.249934
O295	O	0.808756	0.672007	0.499934
O296	O	1.058756	0.922007	0.749934
C297	C	0.776472	0.069388	-0.000100
C298	C	1.026472	0.319388	0.249900
C299	C	1.276472	0.569388	0.499900
C300	C	1.526472	0.819388	0.749900
C301	C	0.839689	0.070154	-0.000104
C302	C	1.089689	0.320154	0.249896
C303	C	1.339689	0.570154	0.499896
C304	C	1.589689	0.820154	0.749896
C305	C	0.667577	0.178283	-0.000050
C306	C	0.917577	0.428283	0.249950
C307	C	1.167577	0.678283	0.499950
C308	C	1.417577	0.928283	0.749950
C309	C	0.668343	0.241500	-0.000031
C310	C	0.918343	0.491500	0.249969
C311	C	1.168343	0.741500	0.499969
C312	C	1.418343	0.991500	0.749969
N313	N	0.672343	0.074143	-0.219559
N314	N	0.922343	0.324143	0.030441
N315	N	1.172343	0.574143	0.280441
N316	N	1.422343	0.824143	0.530441
C317	C	0.713012	0.033473	-0.469207
C318	C	0.963012	0.283473	-0.219207
C319	C	1.213012	0.533473	0.030793
C320	C	1.463012	0.783473	0.280793
C321	C	0.661614	0.022704	-0.530999
C322	C	0.911614	0.272704	-0.280999
C323	C	1.161614	0.522704	-0.030999
C324	C	1.411614	0.772704	0.219001
C325	C	0.672331	0.074136	-0.408720
C326	C	0.922331	0.324136	-0.158720
C327	C	1.172331	0.574136	0.091280
C328	C	1.422331	0.824136	0.341280
C329	C	0.723718	0.084872	-0.531022
C330	C	0.973718	0.334872	-0.281022
C331	C	1.223718	0.584872	-0.031022
C332	C	1.473718	0.834872	0.218978
C333	C	0.672323	0.074128	-0.591442
C334	C	0.922323	0.324128	-0.341442
C335	C	1.172323	0.574128	-0.091442
C336	C	1.422323	0.824128	0.158558
C337	C	0.620906	0.063341	-0.469152
C338	C	0.870906	0.313341	-0.219152
C339	C	1.120906	0.563341	0.030848
C340	C	1.370906	0.813341	0.280848
C341	C	0.683044	0.125531	-0.469169
C342	C	0.933044	0.375531	-0.219169
C343	C	1.183044	0.625531	0.030831
C344	C	1.433044	0.875531	0.280831
C345	C	0.631608	0.114784	-0.530933
C346	C	0.881608	0.364784	-0.280933
C347	C	1.131608	0.614784	-0.030933
C348	C	1.381608	0.864784	0.219067
C349	C	0.672336	0.074139	-0.303459
C350	C	0.922336	0.324139	-0.053459
C351	C	1.172336	0.574139	0.196541
C352	C	1.422336	0.824139	0.446541
C353	C	0.672312	0.074125	-0.696701
C354	C	0.922312	0.324125	-0.446701
C355	C	1.172312	0.574125	-0.196701
C356	C	1.422312	0.824125	0.053299
N357	N	0.672309	0.074123	0.219391
N358	N	0.922309	0.324123	0.469391
N359	N	1.172309	0.574123	0.719391
N360	N	1.422309	0.824123	0.969391
H361	H	0.574205	-0.740143	-0.000020
H362	H	0.824205	-0.490143	0.249980
H363	H	1.074205	-0.240143	0.499980
H364	H	1.324205	0.009857	0.749980
H365	H	0.098544	0.219617	-0.000049
H366	H	0.348544	0.469617	0.249951
H367	H	0.598544	0.719617	0.499951
H368	H	0.848544	0.969617	0.749951
Cl369	Cl	0.840637	-0.515951	-0.000056
Cl370	Cl	1.090637	-0.265951	0.249944
Cl371	Cl	1.340637	-0.015951	0.499944
Cl372	Cl	1.590637	0.234049	0.749944
Cl373	Cl	0.578432	0.167874	-0.572519
Cl374	Cl	0.828432	0.417874	-0.322519
Cl375	Cl	1.078432	0.667874	-0.072519
Cl376	Cl	1.328432	0.917874	0.177481
Cl377	Cl	0.502396	-0.469847	-0.000020
Cl378	Cl	0.752396	-0.219847	0.249980
Cl379	Cl	1.002396	0.030153	0.499980
Cl380	Cl	1.252396	0.280153	0.749980
Cl381	Cl	0.790815	0.098897	-0.572987
Cl382	Cl	1.040815	0.348897	-0.322987
Cl383	Cl	1.290815	0.598897	-0.072987
Cl384	Cl	1.540815	0.848897	0.177013
H385	H	0.770441	-0.111594	-0.000164
H386	H	1.020441	0.138406	0.249836
H387	H	1.270441	0.388406	0.499836
H388	H	1.520441	0.638406	0.749836
H389	H	0.652545	-0.020763	-0.558158
H390	H	0.902545	0.229237	-0.308158
H391	H	1.152545	0.479237	-0.058158
H392	H	1.402545	0.729237	0.191842
H393	H	0.246123	-0.071339	-0.000171
H394	H	0.496123	0.178661	0.249829
H395	H	0.746123	0.428661	0.499829
H396	H	0.996123	0.678661	0.749829
H397	H	0.575489	-0.632392	-0.000016
H398	H	0.825489	-0.382392	0.249984
H399	H	1.075489	-0.132392	0.499984
H400	H	1.325489	0.117608	0.749984
H401	H	0.580742	-0.193674	-0.000097
H402	H	0.830742	0.056326	0.249903
H403	H	1.080742	0.306326	0.499903
H404	H	1.330742	0.556326	0.749903
H405	H	-0.059866	0.165717	-0.000069
H406	H	0.190134	0.415717	0.249931
H407	H	0.440134	0.665717	0.499931
H408	H	0.690134	0.915717	0.749931
Cl409	Cl	0.528568	-0.038984	-0.000102
Cl410	Cl	0.778568	0.211016	0.249898
Cl411	Cl	1.028568	0.461016	0.499898
Cl412	Cl	1.278568	0.711016	0.749898
H413	H	0.692129	0.168985	-0.441990
H414	H	0.942129	0.418985	-0.191990
H415	H	1.192129	0.668985	0.058010
H416	H	1.442129	0.918985	0.308010
H417	H	-0.141947	-0.023982	-0.000121
H418	H	0.108053	0.226018	0.249879
H419	H	0.358053	0.476018	0.499879
H420	H	0.608053	0.726018	0.749879
H421	H	0.577436	0.054207	-0.442089
H422	H	0.827436	0.304207	-0.192089
H423	H	1.077436	0.554207	0.057911
H424	H	1.327436	0.804207	0.307911
H425	H	0.763901	-0.658053	-0.000073
H426	H	1.013901	-0.408053	0.249927
H427	H	1.263901	-0.158053	0.499927
H428	H	1.513901	0.091947	0.749927
Cl429	Cl	-0.183920	0.187258	-0.000068
Cl430	Cl	0.066080	0.437258	0.249932
Cl431	Cl	0.316080	0.687258	0.499932
Cl432	Cl	0.566080	0.937258	0.749932
H433	H	-0.034198	-0.022693	-0.000134
H434	H	0.215802	0.227307	0.249866
H435	H	0.465802	0.477307	0.499866
H436	H	0.715802	0.727307	0.749866
Cl437	Cl	0.766073	-0.019644	-0.427356
Cl438	Cl	1.016073	0.230356	-0.177356
Cl439	Cl	1.266073	0.480356	0.072644
Cl440	Cl	1.516073	0.730356	0.322644
H441	H	0.526842	-0.352085	-0.000042
H442	H	0.776842	-0.102085	0.249958
H443	H	1.026842	0.147915	0.499958
H444	H	1.276842	0.397915	0.749958
H445	H	0.486602	0.172255	-0.000019
H446	H	0.736602	0.422255	0.249981
H447	H	0.986602	0.672255	0.499981
H448	H	1.236602	0.922255	0.749981
Cl449	Cl	0.791992	-0.235629	-0.000130
Cl450	Cl	1.041992	0.014371	0.249870
Cl451	Cl	1.291992	0.264371	0.499870
Cl452	Cl	1.541992	0.514371	0.749870
Cl453	Cl	0.394491	-0.040595	-0.000119
Cl454	Cl	0.644491	0.209405	0.249881
Cl455	Cl	0.894491	0.459405	0.499881
Cl456	Cl	1.144491	0.709405	0.749881
H457	H	0.762606	-0.765820	-0.000054
H458	H	1.012606	-0.515820	0.249946
H459	H	1.262606	-0.265820	0.499946
H460	H	1.512606	-0.015820	0.749946
H461	H	0.819093	-0.391915	-0.000083
H462	H	1.069093	-0.141915	0.249917
H463	H	1.319093	0.108085	0.499917
H464	H	1.569093	0.358085	0.749917
Cl465	Cl	0.362567	0.193810	-0.000038
Cl466	Cl	0.612567	0.443810	0.249962
Cl467	Cl	0.862567	0.693810	0.499962
Cl468	Cl	1.112567	0.943810	0.749962
Cl469	Cl	0.216306	0.244063	-0.000027
Cl470	Cl	0.466306	0.494063	0.249973
Cl471	Cl	0.716306	0.744063	0.499973
Cl472	Cl	0.966306	0.994063	0.749973
H473	H	0.582038	-0.085909	-0.000111
H474	H	0.832038	0.164091	0.249889
H475	H	1.082038	0.414091	0.499889
H476	H	1.332038	0.664091	0.749889
H477	H	0.138374	-0.072634	-0.000170
H478	H	0.388374	0.177366	0.249830
H479	H	0.638374	0.427366	0.499830
H480	H	0.888374	0.677366	0.749830
