data_functionalizedCrystal
_audit_creation_method	'MofGen! by Chris Wilmer'
_symmetry_space_group_name_H-M	'P1'
_symmetry_Int_Tables_number	1
_symmetry_cell_setting	triclinic
loop_
_symmetry_equiv_pos_as_xyz
  x,y,z
_cell_length_a	21.295417
_cell_length_b	12.759401
_cell_length_c	12.759393
_cell_angle_alpha	89.980324
_cell_angle_beta	89.961905
_cell_angle_gamma	90.030933
loop_
_atom_site_label
_atom_site_type_symbol
_atom_site_fract_x
_atom_site_fract_y
_atom_site_fract_z
Zn1	Zn	-0.250572	1.606151	-0.593929
Zn2	Zn	0.082762	1.939484	-0.260596
Zn3	Zn	0.416095	2.272818	0.072737
Zn4	Zn	-0.355854	1.605994	-0.418226
Zn5	Zn	-0.022520	1.939327	-0.084893
Zn6	Zn	0.310813	2.272660	0.248441
Zn7	Zn	-0.250603	1.430450	-0.418268
Zn8	Zn	0.082730	1.763783	-0.084935
Zn9	Zn	0.416064	2.097116	0.248398
Zn10	Zn	-0.355808	1.430393	-0.593867
Zn11	Zn	-0.022474	1.763726	-0.260534
Zn12	Zn	0.310859	2.097060	0.072800
O13	O	-0.303209	1.518247	-0.506073
O14	O	0.030124	1.851580	-0.172739
O15	O	0.363458	2.184913	0.160594
O16	O	-0.264544	1.753151	-0.570630
O17	O	0.068790	2.086484	-0.237297
O18	O	0.402123	2.419818	0.096037
O19	O	-0.341924	1.582665	-0.271210
O20	O	-0.008591	1.915998	0.062123
O21	O	0.324742	2.249332	0.395456
O22	O	-0.162509	1.453846	-0.441614
O23	O	0.170824	1.787180	-0.108280
O24	O	0.504157	2.120513	0.225053
O25	O	-0.341894	1.753035	-0.441542
O26	O	-0.008561	2.086369	-0.108208
O27	O	0.324773	2.419702	0.225125
O28	O	-0.162486	1.582933	-0.570671
O29	O	0.170847	1.916267	-0.237338
O30	O	0.504180	2.249600	0.095996
O31	O	-0.264597	1.453694	-0.271242
O32	O	0.068736	1.787027	0.062092
O33	O	0.402069	2.120360	0.395425
O34	O	-0.264553	1.283421	-0.441553
O35	O	0.068781	1.616754	-0.108220
O36	O	0.402114	1.950088	0.225113
O37	O	-0.341815	1.453750	-0.740896
O38	O	-0.008482	1.787083	-0.407563
O39	O	0.324851	2.120417	-0.074230
O40	O	-0.341846	1.283380	-0.570565
O41	O	-0.008513	1.616713	-0.237232
O42	O	0.324821	1.950046	0.096101
O43	O	-0.264499	1.582878	-0.740942
O44	O	0.068834	1.916212	-0.407609
O45	O	0.402168	2.249545	-0.074275
O46	O	-0.443937	1.582610	-0.441482
O47	O	-0.110604	1.915944	-0.108148
O48	O	0.222730	2.249277	0.225185
O49	O	-0.443903	1.453597	-0.570524
O50	O	-0.110570	1.786931	-0.237191
O51	O	0.222763	2.120264	0.096142
C52	C	-0.303198	1.245279	-0.506058
C53	C	0.030135	1.578613	-0.172724
C54	C	0.363468	1.911946	0.160609
C55	C	-0.303209	1.128503	-0.506076
C56	C	0.030125	1.461836	-0.172743
C57	C	0.363458	1.795169	0.160590
C58	C	-0.263005	1.073702	-0.573396
C59	C	0.070328	1.407035	-0.240063
C60	C	0.403661	1.740368	0.093270
C61	C	-0.263012	0.963978	-0.573403
C62	C	0.070322	1.297311	-0.240070
C63	C	0.403655	1.630644	0.093263
C64	C	-0.343430	0.963866	-0.438767
C65	C	-0.010097	1.297199	-0.105434
C66	C	0.323236	1.630532	0.227899
C67	C	-0.343420	1.073588	-0.438756
C68	C	-0.010087	1.406921	-0.105423
C69	C	0.323246	1.740254	0.227911
C70	C	-0.466761	1.518109	-0.506014
C71	C	-0.133427	1.851442	-0.172681
C72	C	0.199906	2.184776	0.160652
C73	C	-0.536729	1.518146	-0.506025
C74	C	-0.203395	1.851480	-0.172691
C75	C	0.129938	2.184813	0.160642
C76	C	-0.569592	1.585383	-0.438901
C77	C	-0.236259	1.918716	-0.105568
C78	C	0.097075	2.252050	0.227766
C79	C	-0.635335	1.585432	-0.438925
C80	C	-0.302001	1.918766	-0.105591
C81	C	0.031332	2.252099	0.227742
C82	C	-0.668211	1.518226	-0.506061
C83	C	-0.334878	1.851559	-0.172728
C84	C	-0.001545	2.184893	0.160606
C85	C	-0.635340	1.450985	-0.573198
C86	C	-0.302007	1.784318	-0.239864
C87	C	0.031327	2.117651	0.093469
C88	C	-0.569599	1.450945	-0.573180
C89	C	-0.236265	1.784278	-0.239846
C90	C	0.097068	2.117611	0.093487
N91	N	-0.771477	1.426319	-0.514065
N92	N	-0.438144	1.759652	-0.180732
N93	N	-0.104810	2.092986	0.152601
N94	N	-0.833928	1.426360	-0.514076
N95	N	-0.500595	1.759693	-0.180743
N96	N	-0.167262	2.093027	0.152590
C97	C	-0.866286	1.518344	-0.506121
C98	C	-0.532953	1.851677	-0.172788
C99	C	-0.199619	2.185010	0.160546
N100	N	-0.833833	1.610287	-0.498134
N101	N	-0.500499	1.943621	-0.164801
N102	N	-0.167166	2.276954	0.168533
N103	N	-0.771376	1.610245	-0.498117
N104	N	-0.438042	1.943578	-0.164784
N105	N	-0.104709	2.276912	0.168549
C106	C	-0.739497	1.518262	-0.506089
C107	C	-0.406163	1.851596	-0.172755
C108	C	-0.072830	2.184929	0.160578
C109	C	-0.970435	1.585639	-0.439019
C110	C	-0.637101	1.918973	-0.105686
C111	C	-0.303768	2.252306	0.227647
C112	C	-1.036178	1.585690	-0.439050
C113	C	-0.702845	1.919024	-0.105717
C114	C	-0.369512	2.252357	0.227616
C115	C	-1.036183	1.451233	-0.573318
C116	C	-0.702849	1.784567	-0.239985
C117	C	-0.369516	2.117900	0.093349
C118	C	-0.970440	1.451192	-0.573293
C119	C	-0.637107	1.784525	-0.239959
C120	C	-0.303773	2.117858	0.093374
C121	C	-0.937570	1.518393	-0.506138
C122	C	-0.604237	1.851727	-0.172804
C123	C	-0.270904	2.185060	0.160529
C124	C	-0.139019	1.518414	-0.506154
C125	C	0.194315	1.851747	-0.172821
C126	C	0.527648	2.185080	0.160513
C127	C	-0.069051	1.518485	-0.506189
C128	C	0.264283	1.851818	-0.172855
C129	C	0.597616	2.185152	0.160478
C130	C	-0.303149	1.518325	-0.780106
C131	C	0.030185	1.851659	-0.446773
C132	C	0.363518	2.184992	-0.113439
C133	C	-0.303123	1.518359	-0.896883
C134	C	0.030211	1.851692	-0.563550
C135	C	0.363544	2.185026	-0.230216
C136	C	-0.303220	1.792280	-0.506088
C137	C	0.030113	2.125613	-0.172755
C138	C	0.363446	2.458947	0.160579
C139	C	-0.303225	1.909057	-0.506095
C140	C	0.030108	2.242390	-0.172761
C141	C	0.363441	2.575723	0.160572
C142	C	-0.262858	1.585601	-0.951770
C143	C	0.070476	1.918935	-0.618437
C144	C	0.403809	2.252268	-0.285104
C145	C	-0.262831	1.585619	-1.061494
C146	C	0.070503	1.918952	-0.728161
C147	C	0.403836	2.252286	-0.394828
C148	C	-0.343339	1.451149	-1.061434
C149	C	-0.010006	1.784483	-0.728101
C150	C	0.323328	2.117816	-0.394767
C151	C	-0.343363	1.451127	-0.951712
C152	C	-0.010029	1.784460	-0.618379
C153	C	0.323304	2.117794	-0.285045
C154	C	-0.303224	1.518229	-0.233105
C155	C	0.030110	1.851562	0.100228
C156	C	0.363443	2.184896	0.433561
C157	C	-0.303072	1.518399	-0.116329
C158	C	0.030261	1.851732	0.217004
C159	C	0.363594	2.185066	0.550337
H160	H	-0.542831	1.640105	-0.384222
H161	H	-0.209498	1.973438	-0.050889
H162	H	0.123835	2.306772	0.282444
F163	F	-0.386165	1.379604	-1.119796
F164	F	-0.052832	1.712938	-0.786463
F165	F	0.280502	2.046271	-0.453130
H166	H	-0.230090	1.640343	-0.907132
H167	H	0.103243	1.973676	-0.573798
H168	H	0.436577	2.307010	-0.240465
H169	H	-0.376151	1.396363	-0.907021
H170	H	-0.042817	1.729696	-0.573688
H171	H	0.290516	2.063030	-0.240355
H172	H	-0.662112	1.396267	-0.627862
H173	H	-0.328779	1.729600	-0.294529
H174	H	0.004554	2.062933	0.038804
H175	H	-0.542841	1.396192	-0.627841
H176	H	-0.209507	1.729525	-0.294508
H177	H	0.123826	2.062858	0.038826
F178	F	-0.935450	1.657159	-0.367548
F179	F	-0.602117	1.990493	-0.034215
F180	F	-0.268783	2.323826	0.299119
H181	H	-0.230042	1.640373	-1.106179
H182	H	0.103292	1.973706	-0.772846
H183	H	0.436625	2.307039	-0.439512
H184	H	-0.376170	0.919140	-0.383959
H185	H	-0.042837	1.252474	-0.050625
H186	H	0.290497	1.585807	0.282708
H187	H	-1.062935	1.640449	-0.384392
H188	H	-0.729601	1.973783	-0.051059
H189	H	-0.396268	2.307116	0.282274
H190	H	-0.662097	1.640188	-0.384265
H191	H	-0.328764	1.973522	-0.050931
H192	H	0.004570	2.306855	0.282402
H193	H	-0.230260	1.118410	-0.628210
H194	H	0.103073	1.451744	-0.294876
H195	H	0.436406	1.785077	0.038457
F196	F	-0.935463	1.379624	-0.644732
F197	F	-0.602130	1.712957	-0.311398
F198	F	-0.268796	2.046291	0.021935
F199	F	-1.071168	1.379713	-0.644776
F200	F	-0.737835	1.713046	-0.311443
F201	F	-0.404501	2.046380	0.021890
H202	H	-0.376160	1.118208	-0.383930
H203	H	-0.042826	1.451541	-0.050597
H204	H	0.290507	1.784875	0.282736
H205	H	-0.230273	0.919363	-0.628220
H206	H	0.103060	1.252697	-0.294887
H207	H	0.436394	1.586030	0.038446
