data_functionalizedCrystal
_audit_creation_method	'MofGen! by Chris Wilmer'
_symmetry_space_group_name_H-M	'P1'
_symmetry_Int_Tables_number	1
_symmetry_cell_setting	triclinic
loop_
_symmetry_equiv_pos_as_xyz
  x,y,z
_cell_length_a	17.077404
_cell_length_b	18.215405
_cell_length_c	17.077396
_cell_angle_alpha	89.971420
_cell_angle_beta	89.981638
_cell_angle_gamma	90.020702
loop_
_atom_site_label
_atom_site_type_symbol
_atom_site_fract_x
_atom_site_fract_y
_atom_site_fract_z
Zn1	Zn	1.200055	-0.293024	-0.443818
Zn2	Zn	1.199963	-0.416098	-0.312552
Zn3	Zn	1.068787	-0.293045	-0.312569
Zn4	Zn	1.068756	-0.416049	-0.443778
O5	O	1.134390	-0.354554	-0.378179
O6	O	1.309890	-0.309362	-0.426415
O7	O	1.182537	-0.399804	-0.202707
O8	O	1.086252	-0.190058	-0.330003
O9	O	1.309822	-0.399783	-0.329975
O10	O	1.182694	-0.190043	-0.426432
O11	O	1.086163	-0.309397	-0.202720
O12	O	0.958936	-0.309350	-0.329964
O13	O	1.086198	-0.399700	-0.553631
O14	O	0.958913	-0.399721	-0.426363
O15	O	1.182664	-0.309315	-0.553660
O16	O	1.182506	-0.519075	-0.329936
O17	O	1.086109	-0.519040	-0.426347
C18	C	0.930442	-0.354533	-0.378162
C19	C	0.843193	-0.354542	-0.378173
C20	C	0.802239	-0.307543	-0.428466
C21	C	0.720258	-0.307548	-0.428470
C22	C	0.679233	-0.354556	-0.378183
C23	C	0.720193	-0.401557	-0.327885
C24	C	0.802172	-0.401548	-0.327878
C25	C	0.549323	-0.401573	-0.327904
C26	C	0.467338	-0.401583	-0.327912
C27	C	0.467409	-0.307574	-0.428496
C28	C	0.549388	-0.307565	-0.428489
C29	C	0.590342	-0.354567	-0.378191
C30	C	1.134315	-0.545760	-0.378152
C31	C	1.134355	-0.627559	-0.378167
C32	C	1.184596	-0.815684	-0.428445
C33	C	1.184625	-0.892543	-0.428460
C34	C	1.084282	-0.892672	-0.327962
C35	C	1.084250	-0.815815	-0.327952
C36	C	1.134411	-0.777323	-0.378192
C37	C	1.134472	-0.931039	-0.378217
C38	C	1.134502	-1.014372	-0.378233
C39	C	1.134380	-0.693984	-0.378178
C40	C	1.339135	-0.354575	-0.378198
C41	C	1.426384	-0.354585	-0.378205
C42	C	1.134438	-0.354500	-0.582924
C43	C	1.134458	-0.354477	-0.670174
C44	C	1.134487	-0.162601	-0.378224
C45	C	1.134528	-0.080802	-0.378243
C46	C	1.184689	-0.307409	-0.711180
C47	C	1.184699	-0.307384	-0.793161
C48	C	1.134480	-0.354432	-0.834133
C49	C	1.084243	-0.401502	-0.793121
C50	C	1.084231	-0.401522	-0.711142
C51	C	1.084275	-0.401458	-0.963991
C52	C	1.084289	-0.401439	-1.045975
C53	C	1.184743	-0.307320	-1.046010
C54	C	1.184730	-0.307340	-0.964031
C55	C	1.134494	-0.354411	-0.923024
C56	C	1.134388	-0.354555	-0.174232
C57	C	1.134520	-0.354371	-0.086982
H58	H	0.582665	-0.439845	-0.286944
C59	C	1.029042	-0.453259	-0.918885
H60	H	0.999149	-0.481289	-0.955026
H61	H	0.994841	-0.425136	-0.886892
H62	H	1.059079	-0.485330	-0.886917
H63	H	1.043443	-0.924021	-0.287057
C64	C	1.240001	-0.255539	-1.091110
H65	H	1.269915	-0.227530	-1.054967
H66	H	1.209998	-0.223460	-1.123093
H67	H	1.274195	-0.283693	-1.123089
H68	H	1.043319	-0.439842	-0.677755
H69	H	0.686917	-0.269278	-0.469425
H70	H	0.686784	-0.439828	-0.286937
H71	H	1.043395	-0.439747	-1.079333
H72	H	1.225488	-0.923773	-0.469383
H73	H	1.043380	-0.784579	-0.287030
H74	H	0.835635	-0.269266	-0.469417
H75	H	0.434060	-0.269301	-0.469449
C76	C	0.594515	-0.255856	-0.483802
H77	H	0.558384	-0.227860	-0.513753
H78	H	0.626503	-0.284045	-0.517946
H79	H	0.626488	-0.223751	-0.453823
C80	C	0.422212	-0.453287	-0.272595
H81	H	0.458342	-0.481272	-0.242631
H82	H	0.390236	-0.485393	-0.302563
H83	H	0.390225	-0.425089	-0.238451
H84	H	0.835516	-0.439818	-0.286923
H85	H	1.225440	-0.784346	-0.469355
H86	H	1.225586	-0.269099	-0.677827
H87	H	1.225604	-0.269059	-0.826545
C88	C	1.239970	-0.255590	-0.918963
H89	H	1.269885	-0.227548	-0.955124
H90	H	1.274150	-0.283753	-0.886979
H91	H	1.209946	-0.223527	-0.886987
H92	H	1.043352	-0.439806	-0.826487
