data_functionalizedCrystal
_audit_creation_method	'MofGen! by Chris Wilmer'
_symmetry_space_group_name_H-M	'P1'
_symmetry_Int_Tables_number	1
_symmetry_cell_setting	triclinic
loop_
_symmetry_equiv_pos_as_xyz
  x,y,z
_cell_length_a	15.995350
_cell_length_b	10.489746
_cell_length_c	15.072220
_cell_angle_alpha	89.998646
_cell_angle_beta	89.991149
_cell_angle_gamma	84.016838
loop_
_atom_site_label
_atom_site_type_symbol
_atom_site_fract_x
_atom_site_fract_y
_atom_site_fract_z
O1	O	1.111989	0.164399	-0.073708
O2	O	0.868337	0.184701	-0.073726
O3	O	0.995705	-0.011125	-0.073710
O4	O	0.984621	0.360225	-0.073724
O5	O	0.995673	-0.011114	0.073855
O6	O	0.868305	0.184712	0.073839
O7	O	1.111957	0.164410	0.073857
Zn8	Zn	0.990126	0.174563	0.097277
Zn9	Zn	0.990168	0.174549	-0.097146
O10	O	0.984589	0.360236	0.073841
C11	C	0.837121	0.183868	0.000054
C12	C	0.744155	0.181351	0.000047
C13	C	0.406353	0.172315	0.000066
C14	C	0.452945	0.032851	0.000400
C15	C	0.549650	0.035368	0.000062
C16	C	0.573941	0.176797	0.000057
C17	C	0.533287	0.245579	-0.084209
C18	C	0.436630	0.242075	-0.084273
C19	C	0.436273	0.244969	0.083536
C20	C	0.533218	0.244936	0.084643
C21	C	0.668654	0.179338	0.000049
C22	C	0.311640	0.169778	0.000068
C23	C	0.994851	-0.058639	0.000072
C24	C	0.992344	-0.200233	0.000071
C25	C	0.909819	-0.351936	0.000054
C26	C	0.951093	-0.275127	-0.072698
C27	C	0.951081	-0.275157	0.072789
C28	C	1.029193	-0.375711	-0.072761
C29	C	1.029169	-0.375747	0.072792
C30	C	1.070502	-0.298987	0.000022
C31	C	1.143173	0.165244	0.000075
C32	C	1.236139	0.167760	0.000076
C33	C	0.985443	0.407751	0.000057
C34	C	0.987950	0.549345	0.000052
N35	N	0.990104	0.174572	0.229966
N36	N	0.990197	0.174529	-0.229835
C37	C	0.990166	0.174544	0.589167
C38	C	0.921781	0.278975	0.551552
C39	C	0.921941	0.279356	0.448726
C40	C	0.990134	0.174558	0.410963
C41	C	1.077675	0.203625	0.448260
C42	C	1.077293	0.204368	0.551118
C43	C	0.971788	0.040735	0.551271
C44	C	0.969789	0.041628	0.448408
C45	C	0.990122	0.174563	0.310250
C46	C	0.990184	0.174541	0.689881
H47	H	0.418033	0.191907	-0.147261
Br48	Br	1.164638	0.082274	0.592594
H49	H	0.405001	0.344467	-0.088100
H50	H	1.016300	-0.039726	0.422706
Br51	Br	1.054892	-0.088795	0.591811
H52	H	1.094110	0.300099	0.422489
Br53	Br	0.580117	0.165945	-0.188732
Br54	Br	0.596472	-0.054748	0.100741
Br55	Br	0.813513	0.250580	0.406694
H56	H	0.560218	0.194726	0.146983
Br57	Br	0.867614	-0.005828	0.594552
H58	H	1.062110	-0.419702	0.134308
H59	H	0.415448	0.199380	0.147407
Br60	Br	0.559857	0.416843	0.093122
Br61	Br	0.796586	-0.391559	-0.000070
Br62	Br	0.384374	0.416352	0.084481
H63	H	0.918070	-0.231247	0.134297
Br64	Br	0.896146	-0.201910	-0.175229
Br65	Br	0.595530	-0.054966	-0.100964
H66	H	1.062167	-0.419458	-0.134338
H67	H	1.129812	0.129586	0.423797
Br68	Br	1.183820	-0.259770	-0.000031
H69	H	0.433028	-0.022644	-0.059693
H70	H	0.905389	0.019568	0.424032
Br71	Br	0.813012	0.250565	0.592789
Br72	Br	0.941224	0.443554	0.594592
Br73	Br	1.104081	0.367015	0.591090
Br74	Br	0.421487	-0.060061	0.101124
H75	H	0.933761	0.378653	0.424110
H76	H	0.548041	0.349483	-0.087345
