data_functionalizedCrystal
_audit_creation_method	'MofGen! by Chris Wilmer'
_symmetry_space_group_name_H-M	'P1'
_symmetry_Int_Tables_number	1
_symmetry_cell_setting	triclinic
loop_
_symmetry_equiv_pos_as_xyz
  x,y,z
_cell_length_a	6.817900
_cell_length_b	11.168130
_cell_length_c	11.168144
_cell_angle_alpha	92.019792
_cell_angle_beta	108.508840
_cell_angle_gamma	108.508653
loop_
_atom_site_label
_atom_site_type_symbol
_atom_site_fract_x
_atom_site_fract_y
_atom_site_fract_z
V1	V	-4.109884	-0.174722	-0.393709
O2	O	-4.069468	0.008378	-0.386204
O3	O	-4.086172	-0.346428	-0.391026
O4	O	-4.086175	-0.172043	-0.565415
O5	O	-4.069465	-0.167214	-0.210609
V6	V	-4.587113	-0.152821	-0.371808
O7	O	-4.384947	-0.222766	-0.441752
O8	O	-4.762247	-0.104777	-0.323765
O9	O	-4.387618	0.018884	-0.374490
O10	O	-4.744926	-0.335921	-0.379312
O11	O	-4.744929	-0.160329	-0.554908
O12	O	-4.387615	-0.155500	-0.200102
C13	C	-3.936379	-0.388285	-0.384818
C14	C	-3.998444	-0.528657	-0.383769
C15	C	-4.033445	-0.719172	-0.272327
C16	C	-3.969297	-0.574090	-0.273409
C17	C	-3.936382	-0.165839	-0.607266
C18	C	-3.998444	-0.164784	-0.747636
C19	C	-4.082928	-0.274207	-0.827363
C20	C	-4.147074	-0.273120	-0.972444
C21	C	-4.200753	0.060736	-0.380695
C22	C	-4.117929	0.201106	-0.381752
C23	C	-4.200750	-0.161708	-0.158244
C24	C	-4.117925	-0.162757	-0.017872
H25	H	-4.142757	-0.759740	-0.476236
H26	H	-4.070885	-0.597143	-0.477455
C27	C	-4.116513	-0.401859	-0.774481
N28	N	-4.141815	-0.498011	-0.734652
H29	H	-4.219498	-0.366798	-1.040941
H30	H	-3.973614	-0.070299	-0.786787
H31	H	-4.008596	-0.758325	-0.177843
H32	H	-3.896871	-0.505596	-0.179728
C33	C	-4.020064	-0.036190	-0.925346
N34	N	-3.946354	0.059140	-0.855645
