data_functionalizedCrystal
_audit_creation_method	'MofGen! by Chris Wilmer'
_symmetry_space_group_name_H-M	'P1'
_symmetry_Int_Tables_number	1
_symmetry_cell_setting	triclinic
loop_
_symmetry_equiv_pos_as_xyz
  x,y,z
_cell_length_a	9.065215
_cell_length_b	15.995292
_cell_length_c	8.140239
_cell_angle_alpha	89.999675
_cell_angle_beta	89.997810
_cell_angle_gamma	84.241657
loop_
_atom_site_label
_atom_site_type_symbol
_atom_site_fract_x
_atom_site_fract_y
_atom_site_fract_z
O1	O	1.957465	0.122762	-0.136581
O2	O	1.527938	0.132835	-0.136588
O3	O	1.754488	0.005996	-0.136587
O4	O	1.730915	0.249600	-0.136582
O5	O	1.754475	0.005995	0.136640
O6	O	1.527926	0.132833	0.136640
O7	O	1.957452	0.122760	0.136646
Zn8	Zn	1.742687	0.127796	0.180023
Zn9	Zn	1.742703	0.127798	-0.179965
O10	O	1.730903	0.249598	0.136645
C11	C	1.472969	0.131866	0.000025
C12	C	1.309195	0.128973	0.000022
C13	C	1.753522	-0.025207	0.000023
C14	C	1.750646	-0.118182	0.000010
C15	C	1.740072	-0.456001	0.000025
C16	C	1.903589	-0.431449	0.000638
C17	C	1.906697	-0.334750	0.000016
C18	C	1.745319	-0.288405	0.000019
C19	C	1.663575	-0.318124	-0.156003
C20	C	1.661606	-0.414930	-0.156128
C21	C	1.658253	-0.414814	0.154582
C22	C	1.664313	-0.318276	0.156638
C23	C	1.748275	-0.193686	0.000010
C24	C	1.737110	-0.550719	0.000023
C25	C	2.012422	0.123728	0.000030
C26	C	2.176196	0.126621	0.000022
C27	C	1.731869	0.280802	0.000032
C28	C	1.734745	0.373777	0.000034
N29	N	1.742687	0.127795	0.425706
N30	N	1.742716	0.127794	-0.425648
H31	H	1.970717	-0.315240	0.111857
H32	H	1.718229	-0.441317	-0.272759
H33	H	1.966611	-0.458969	0.112528
F34	F	1.737784	-0.291345	-0.307774
H35	H	1.709743	-0.442513	0.272846
F36	F	1.500934	-0.434293	0.155962
F37	F	1.504904	-0.435139	-0.165390
F38	F	1.510349	-0.276351	0.168959
F39	F	1.985524	-0.468754	-0.144787
H40	H	1.971105	-0.315857	-0.112020
F41	F	1.508358	-0.277645	-0.163594
H42	H	1.723835	-0.299260	0.272062
