data_functionalizedCrystal
_audit_creation_method	'MofGen! by Chris Wilmer'
_symmetry_space_group_name_H-M	'P1'
_symmetry_Int_Tables_number	1
_symmetry_cell_setting	triclinic
loop_
_symmetry_equiv_pos_as_xyz
  x,y,z
_cell_length_a	17.699077
_cell_length_b	6.394989
_cell_length_c	16.776229
_cell_angle_alpha	90.003593
_cell_angle_beta	89.993415
_cell_angle_gamma	95.110856
loop_
_atom_site_label
_atom_site_type_symbol
_atom_site_fract_x
_atom_site_fract_y
_atom_site_fract_z
O1	O	1.006776	-0.264072	-0.066273
O2	O	0.786748	-0.298449	-0.066276
O3	O	0.899885	0.022820	-0.066275
O4	O	0.893639	-0.585341	-0.066274
O5	O	0.899870	0.022840	0.066302
O6	O	0.786732	-0.298429	0.066301
O7	O	1.006761	-0.264052	0.066304
Zn8	Zn	0.896744	-0.281237	0.087352
Zn9	Zn	0.896765	-0.281263	-0.087324
O10	O	0.893623	-0.585321	0.066303
C11	C	0.758531	-0.297209	0.000012
C12	C	0.674475	-0.293520	0.000011
C13	C	0.634981	-0.291771	0.072279
C14	C	0.556003	-0.288272	0.072280
C15	C	0.516519	-0.286536	0.000011
C16	C	0.556018	-0.288279	-0.072263
C17	C	0.634996	-0.291764	-0.072263
C18	C	0.237512	-0.274223	-0.072264
C19	C	0.158528	-0.270745	-0.072258
C20	C	0.158519	-0.270731	0.072278
C21	C	0.237496	-0.274216	0.072278
C22	C	0.276989	-0.275947	0.000005
C23	C	0.362626	-0.279738	0.000005
C24	C	0.430883	-0.282760	0.000011
C25	C	1.034978	-0.265292	0.000014
C26	C	1.119034	-0.268981	0.000011
C27	C	0.898642	0.100645	0.000011
C28	C	0.894868	0.336860	0.000010
N29	N	0.896735	-0.281218	0.206563
N30	N	0.896779	-0.281266	-0.206535
C31	C	0.946849	-0.139019	0.248281
C32	C	0.946853	-0.139017	0.331733
C33	C	0.896747	-0.281227	0.373466
C34	C	0.846628	-0.423433	0.331742
C35	C	0.846621	-0.423423	0.248292
C36	C	0.846656	-0.423474	0.668290
C37	C	0.846669	-0.423477	0.751746
C38	C	0.946888	-0.139068	0.751731
C39	C	0.946881	-0.139058	0.668280
C40	C	0.896760	-0.281256	0.626564
C41	C	0.896755	-0.281254	0.536075
C42	C	0.896755	-0.281241	0.463953
H43	H	0.126354	-0.269312	0.131127
O44	O	0.995473	-0.000476	0.627843
C45	C	0.981144	0.206122	0.648356
H46	H	0.920524	0.206715	0.671271
H47	H	0.988856	0.311192	0.593537
H48	H	1.022462	0.267520	0.696848
O49	O	0.673409	-0.293102	-0.142444
C50	C	0.725957	-0.114323	-0.146761
H51	H	0.706942	0.013116	-0.105750
H52	H	0.729158	-0.053675	-0.210680
H53	H	0.784262	-0.157840	-0.127347
O54	O	0.797865	-0.561275	0.207729
C55	C	0.750120	-0.449571	0.159460
H56	H	0.747277	-0.284857	0.184617
H57	H	0.690777	-0.534997	0.158522
H58	H	0.773695	-0.438532	0.096209
O59	O	0.995500	-0.000995	0.792379
C60	C	0.984777	-0.031515	0.874983
H61	H	0.925352	-0.109782	0.886394
H62	H	0.991698	0.126693	0.906701
H63	H	1.028610	-0.136129	0.898653
H64	H	0.667122	-0.293202	0.131128
O65	O	0.995569	-0.001184	0.372349
C66	C	1.043332	-0.112904	0.420591
H67	H	1.014741	-0.276448	0.433089
H68	H	1.054479	-0.025696	0.479277
H69	H	1.099398	-0.126908	0.388420
O70	O	0.995465	-0.000991	0.207621
C71	C	0.984686	-0.031388	0.125019
H72	H	0.958025	-0.197585	0.113606
H73	H	1.041762	-0.007787	0.093274
H74	H	0.945555	0.086626	0.101381
O75	O	0.517738	-0.286301	0.142535
C76	C	0.543880	-0.106307	0.186492
H77	H	0.603508	-0.048561	0.165935
H78	H	0.545043	-0.147093	0.252605
H79	H	0.504231	0.022279	0.176483
H80	H	0.269639	-0.275639	0.131126
H81	H	0.805863	-0.539285	0.785724
O82	O	0.797948	-0.561811	0.627897
C83	C	0.753716	-0.687295	0.682630
H84	H	0.784777	-0.689547	0.742107
H85	H	0.743754	-0.854140	0.658516
H86	H	0.696852	-0.619673	0.691525
O87	O	0.120293	-0.268960	-0.142536
C88	C	0.172083	-0.271285	-0.206327
H89	H	0.230885	-0.207663	-0.185144
H90	H	0.153105	-0.168914	-0.256867
H91	H	0.174140	-0.439152	-0.228554
H92	H	0.805827	-0.539216	0.365726
H93	H	0.269658	-0.275627	-0.131113
O94	O	0.517546	-0.286678	-0.142393
C95	C	0.439371	-0.283181	-0.126899
H96	H	0.426073	-0.348798	-0.064789
H97	H	0.405520	-0.383228	-0.173054
H98	H	0.423304	-0.114695	-0.130324
