data_functionalizedCrystal
_audit_creation_method	'MofGen! by Chris Wilmer'
_symmetry_space_group_name_H-M	'P1'
_symmetry_Int_Tables_number	1
_symmetry_cell_setting	triclinic
loop_
_symmetry_equiv_pos_as_xyz
  x,y,z
_cell_length_a	15.944551
_cell_length_b	11.026607
_cell_length_c	9.482900
_cell_angle_alpha	78.599815
_cell_angle_beta	99.285766
_cell_angle_gamma	96.042377
loop_
_atom_site_label
_atom_site_type_symbol
_atom_site_fract_x
_atom_site_fract_y
_atom_site_fract_z
O1	O	-1.148389	-0.137536	-0.120735
O2	O	-0.648389	0.362464	0.379265
O3	O	-0.906759	-0.156827	-0.120771
O4	O	-0.406759	0.343173	0.379229
O5	O	-1.007547	0.029473	-0.120751
O6	O	-0.507547	0.529473	0.379249
O7	O	-1.047600	-0.323836	-0.120755
O8	O	-0.547600	0.176164	0.379245
O9	O	-0.987098	-0.008521	0.121038
O10	O	-0.487098	0.491479	0.621038
O11	O	-0.886310	-0.194821	0.121018
O12	O	-0.386310	0.305179	0.621018
O13	O	-1.127939	-0.175530	0.121053
O14	O	-0.627939	0.324470	0.621053
Cu15	Cu	-1.005257	-0.188644	0.143113
Cu16	Cu	-0.505257	0.311356	0.643113
Cu17	Cu	-1.029441	-0.143713	-0.142830
Cu18	Cu	-0.529441	0.356287	0.357170
O19	O	-1.027151	-0.361830	0.121033
O20	O	-0.527151	0.138170	0.621033
C21	C	-0.865120	-0.175022	0.000119
C22	C	-0.365120	0.324978	0.500119
C23	C	-0.771512	-0.172618	0.000105
C24	C	-0.271512	0.327382	0.500105
C25	C	-0.989934	0.055688	0.000141
C26	C	-0.489934	0.555688	0.500141
C27	C	-0.967908	0.190405	0.000132
C28	C	-0.467908	0.690405	0.500132
C29	C	-1.169579	-0.157334	0.000160
C30	C	-0.669579	0.342666	0.500160
C31	C	-1.263188	-0.159737	0.000164
C32	C	-0.763188	0.340263	0.500164
C33	C	-0.538328	-0.051403	0.000135
C34	C	-0.038328	0.448597	0.500135
C35	C	-0.495900	-0.088961	-0.119080
C36	C	0.004100	0.411039	0.380920
C37	C	-0.600128	-0.168276	0.000123
C38	C	-0.100128	0.331724	0.500123
C39	C	-0.475765	-0.126447	0.119304
C40	C	0.024235	0.373553	0.619304
C41	C	-0.434577	-0.164075	0.000146
C42	C	0.065423	0.335925	0.500146
C43	C	-0.558941	-0.205850	-0.119191
C44	C	-0.058941	0.294150	0.380809
C45	C	-0.538801	-0.243337	0.119300
C46	C	-0.038801	0.256663	0.619300
C47	C	-0.496405	-0.280975	0.000056
C48	C	0.003595	0.219025	0.500056
C49	C	-0.695497	-0.170693	0.000108
C50	C	-0.195497	0.329307	0.500108
C51	C	-0.339212	-0.161665	0.000150
C52	C	0.160788	0.338335	0.500150
C53	C	-1.044765	-0.388044	0.000139
C54	C	-0.544765	0.111956	0.500139
C55	C	-1.066792	-0.522760	0.000137
C56	C	-0.566792	-0.022760	0.500137
N57	N	-0.988254	-0.220246	0.344229
N58	N	-0.488254	0.279754	0.844229
C59	C	-1.028727	0.264204	0.000139
C60	C	-0.528727	0.764204	0.500139
C61	C	-1.005963	0.403442	0.000131
C62	C	-0.505963	0.903442	0.500131
N63	N	-1.046450	-0.112101	-0.343947
N64	N	-0.546450	0.387899	0.156053
C65	C	-1.024419	-0.153027	0.416436
C66	C	-0.524419	0.346973	0.916436
C67	C	-1.010279	-0.179330	0.583850
C68	C	-0.510279	0.320670	1.083850
H69	H	-0.557011	0.045616	-0.000011
H70	H	-0.057011	0.545616	0.499989
F71	F	-0.934095	-0.320915	0.425421
F72	F	-0.434095	0.179085	0.925421
H73	H	-0.476841	-0.023690	-0.219867
H74	H	0.023159	0.476310	0.280133
H75	H	-0.594929	-0.239392	-0.220088
H76	H	-0.094929	0.260608	0.279912
H77	H	-0.477930	-0.378061	-0.000012
H78	H	0.022070	0.121939	0.499988
H79	H	-0.557874	-0.308567	0.220092
H80	H	-0.057874	0.191433	0.720092
H81	H	-1.097649	0.224304	0.000158
H82	H	-0.597649	0.724304	0.500158
F83	F	-0.428599	-0.082509	0.251038
F84	F	0.071401	0.417491	0.751038
F85	F	-0.915872	0.455582	0.000104
F86	F	-0.415872	0.955582	0.500104
F87	F	-0.956118	-0.280003	0.665037
F88	F	-0.456118	0.219997	1.165037
F89	F	-1.156886	0.425106	0.000144
F90	F	-0.656886	0.925106	0.500144
F91	F	-0.877821	0.242550	0.000106
F92	F	-0.377821	0.742550	0.500106
H93	H	-1.065846	-0.076001	0.354316
H94	H	-0.565846	0.423999	0.854316
H95	H	-1.087879	-0.035070	0.593937
H96	H	-0.587879	0.464930	1.093937
