data_functionalizedCrystal
_audit_creation_method	'MofGen! by Chris Wilmer'
_symmetry_space_group_name_H-M	'P1'
_symmetry_Int_Tables_number	1
_symmetry_cell_setting	triclinic
loop_
_symmetry_equiv_pos_as_xyz
  x,y,z
_cell_length_a	10.654550
_cell_length_b	11.892095
_cell_length_c	10.654551
_cell_angle_alpha	86.071286
_cell_angle_beta	84.485180
_cell_angle_gamma	93.933548
loop_
_atom_site_label
_atom_site_type_symbol
_atom_site_fract_x
_atom_site_fract_y
_atom_site_fract_z
O1	O	1.675795	0.093914	0.168447
O2	O	1.310318	0.093934	0.185252
O3	O	1.501458	0.093921	-0.005889
O4	O	1.484654	0.093927	0.359588
O5	O	1.485521	-0.094085	0.010023
O6	O	1.294381	-0.094072	0.201164
O7	O	1.659858	-0.094092	0.184360
Zn8	Zn	1.474589	-0.123932	0.195288
Zn9	Zn	1.495587	0.123774	0.174323
O10	O	1.468717	-0.094079	0.375501
C11	C	1.255552	-0.000066	0.191974
C12	C	1.116109	-0.000058	0.188281
N13	N	1.460268	-0.292985	0.209596
C14	C	1.036624	-0.000060	0.300823
C15	C	0.905601	-0.000080	0.297348
C16	C	0.933562	-0.000092	0.068780
C17	C	1.064582	-0.000080	0.072256
C18	C	1.609572	-0.529644	0.060376
C19	C	1.599570	-0.647985	0.070386
C20	C	1.430258	-0.648011	0.239619
C21	C	1.440260	-0.529670	0.229609
C22	C	1.529920	-0.470490	0.139986
C23	C	1.539927	-0.352147	0.129983
C24	C	1.370610	-0.352176	0.299208
C25	C	1.360609	-0.470517	0.309218
C26	C	1.714624	-0.000089	0.177637
C27	C	1.854067	-0.000090	0.181329
C28	C	1.492256	-0.000080	-0.044731
C29	C	1.488564	-0.000075	-0.184175
N30	N	1.509918	0.292827	0.160006
C31	C	1.495518	0.102409	-0.258353
C32	C	1.492038	0.102410	-0.389373
C33	C	1.474654	-0.102565	-0.372027
C34	C	1.478125	-0.102565	-0.241008
C35	C	1.477920	-0.000075	0.414342
C36	C	1.481613	-0.000074	0.553785
H37	H	0.840889	-0.000083	0.388991
C38	C	1.151054	0.000101	-0.049858
C39	C	1.235295	0.096816	-0.062709
C40	C	1.314981	0.097010	-0.175169
H41	H	1.101766	0.000152	-0.119563
H42	H	1.197275	-0.065424	-0.047710
H43	H	1.189078	0.162324	-0.064868
H44	H	1.284611	0.096785	0.006968
H45	H	1.361202	0.031485	-0.173022
H46	H	1.265683	0.097058	-0.244865
H47	H	1.372155	0.162624	-0.183898
H48	H	0.891592	-0.000116	-0.025684
H49	H	1.497698	0.185862	-0.449763
H50	H	1.664428	-0.696144	0.005559
C51	C	1.506777	0.213798	-0.196874
C52	C	1.512087	0.303548	-0.289881
C53	C	1.522438	0.406179	-0.233296
H54	H	1.581595	0.218218	-0.155070
H55	H	1.435359	0.218124	-0.137213
H56	H	1.583499	0.299225	-0.349520
H57	H	1.437278	0.299165	-0.331691
H58	H	1.451020	0.410504	-0.173635
H59	H	1.597256	0.410587	-0.191494
H60	H	1.526031	0.467086	-0.296391
C61	C	1.637304	-0.288095	0.032556
C62	C	1.704892	-0.365235	-0.035044
C63	C	1.794593	-0.306276	-0.124819
H64	H	1.694001	-0.241919	0.074162
H65	H	1.595598	-0.241962	-0.024112
H66	H	1.746596	-0.411350	0.021616
H67	H	1.648229	-0.411415	-0.076677
H68	H	1.752887	-0.260143	-0.181487
H69	H	1.851281	-0.260102	-0.083203
H70	H	1.840454	-0.358606	-0.170704
H71	H	1.682585	-0.481459	-0.012590
C72	C	1.332840	-0.712428	0.336717
C73	C	1.249667	-0.780392	0.274834
C74	C	1.159919	-0.839763	0.364239
H75	H	1.286693	-0.660388	0.382751
H76	H	1.374533	-0.758659	0.393300
H77	H	1.207977	-0.734165	0.218273
H78	H	1.295778	-0.832453	0.228806
H79	H	1.201612	-0.885994	0.420822
H80	H	1.113781	-0.787715	0.410268
H81	H	1.103482	-0.885891	0.322265
C82	C	1.263195	-0.534922	0.406330
C83	C	1.180008	-0.602893	0.344468
C84	C	1.090266	-0.662249	0.433891
H85	H	1.217057	-0.482874	0.452359
H86	H	1.304892	-0.581148	0.462915
H87	H	1.138314	-0.556671	0.287905
H88	H	1.226109	-0.654963	0.298445
H89	H	1.131962	-0.708475	0.490476
H90	H	1.044137	-0.610192	0.479915
H91	H	1.033820	-0.708381	0.391932
H92	H	1.305756	-0.304000	0.364035
H93	H	1.472454	-0.186024	-0.180608
C94	C	1.092816	0.000013	0.426659
C95	C	1.224573	0.000057	0.405619
C96	C	1.276377	0.000138	0.521511
H97	H	1.060196	-0.065531	0.478693
H98	H	1.071216	0.065602	0.467503
H99	H	1.246163	-0.065525	0.364794
H100	H	1.257228	0.065596	0.353605
H101	H	1.254776	0.065726	0.562355
H102	H	1.243748	-0.065407	0.573537
H103	H	1.365779	0.000178	0.507251
C104	C	1.463076	-0.213868	-0.433638
C105	C	1.350803	-0.275682	-0.383377
C106	C	1.340092	-0.378215	-0.440114
H107	H	1.533084	-0.256117	-0.417573
H108	H	1.461937	-0.199237	-0.522293
H109	H	1.351953	-0.290316	-0.294744
H110	H	1.280774	-0.233467	-0.399441
H111	H	1.338953	-0.363584	-0.528768
H112	H	1.410106	-0.420454	-0.424045
H113	H	1.263910	-0.420163	-0.406029
