data_functionalizedCrystal
_audit_creation_method	'MofGen! by Chris Wilmer'
_symmetry_space_group_name_H-M	'P1'
_symmetry_Int_Tables_number	1
_symmetry_cell_setting	triclinic
loop_
_symmetry_equiv_pos_as_xyz
  x,y,z
_cell_length_a	19.288864
_cell_length_b	10.967829
_cell_length_c	17.766277
_cell_angle_alpha	77.865804
_cell_angle_beta	89.976791
_cell_angle_gamma	83.937959
loop_
_atom_site_label
_atom_site_type_symbol
_atom_site_fract_x
_atom_site_fract_y
_atom_site_fract_z
O1	O	0.922369	0.155662	-0.083025
O2	O	0.720245	0.176660	-0.085697
O3	O	0.825966	-0.015516	-0.060794
O4	O	0.816648	0.347839	-0.107929
O5	O	0.825947	-0.015526	0.064396
O6	O	0.720226	0.176651	0.039493
O7	O	0.922350	0.155652	0.042165
Cu8	Cu	0.821286	0.166150	0.052259
Cu9	Cu	0.821309	0.166162	-0.095792
O10	O	0.816629	0.347829	0.017261
C11	C	0.694355	0.175980	-0.023008
C12	C	0.617238	0.173952	-0.022725
C13	C	0.573277	0.286712	-0.037365
C14	C	0.500818	0.284807	-0.037126
C15	C	0.472322	0.170134	-0.022262
C16	C	0.516292	0.057359	-0.007616
C17	C	0.588750	0.059267	-0.007848
C18	C	0.363479	0.079992	-0.054453
C19	C	0.291022	0.078088	-0.054226
C20	C	0.248838	0.164242	-0.021543
C21	C	0.279119	0.252322	0.010901
C22	C	0.351577	0.254230	0.010670
C23	C	0.393755	0.168052	-0.022008
C24	C	0.126308	0.274945	-0.035923
C25	C	0.053848	0.273034	-0.035679
C26	C	0.069324	0.045583	-0.006177
C27	C	0.141783	0.047497	-0.006414
C28	C	0.170270	0.162181	-0.021291
C29	C	0.825277	-0.062008	0.007830
C30	C	0.823244	-0.200522	0.025795
C31	C	0.822348	-0.262265	-0.031049
C32	C	0.820247	-0.405426	-0.012483
C33	C	0.948240	0.156333	-0.020526
C34	C	1.025357	0.158361	-0.020814
C35	C	0.817318	0.394320	-0.051364
C36	C	0.819351	0.532834	-0.069334
N37	N	0.821276	0.166142	0.156391
N38	N	0.821325	0.166161	-0.199922
C39	C	0.868104	0.081087	0.206800
C40	C	0.868108	0.081081	0.285602
C41	C	0.821290	0.166151	0.313990
C42	C	0.774453	0.251212	0.263571
C43	C	0.774446	0.251207	0.184771
C44	C	0.812733	0.279846	0.424081
C45	C	0.812746	0.279852	0.502879
C46	C	0.821309	0.166166	0.557035
C47	C	0.829875	0.052469	0.532383
C48	C	0.829868	0.052464	0.453583
C49	C	0.821293	0.166166	0.399434
C50	C	0.868145	0.081099	0.692891
C51	C	0.868144	0.081091	0.771695
C52	C	0.774492	0.251233	0.749661
C53	C	0.774489	0.251230	0.670860
C54	C	0.821319	0.166164	0.642479
H55	H	0.465018	0.376633	-0.049045
O56	O	0.728939	0.333694	0.621873
C57	C	0.634239	0.360700	0.529410
C58	C	0.685776	0.267169	0.584872
H59	H	0.599339	0.306952	0.499468
H60	H	0.600726	0.421492	0.563198
H61	H	0.664538	0.422915	0.484462
H62	H	0.655533	0.204873	0.629832
H63	H	0.719289	0.206465	0.551032
H64	H	0.823133	-0.209137	-0.093459
O65	O	0.011172	0.382611	-0.050038
C66	C	-0.024157	0.576454	-0.140030
C67	C	0.024202	0.452391	-0.123875
H68	H	-0.013630	0.632918	-0.199720
H69	H	-0.080853	0.555472	-0.137364
H70	H	-0.013756	0.632860	-0.094933
H71	H	0.013863	0.395924	-0.168956
H72	H	0.080882	0.473461	-0.126514
O73	O	0.380882	0.339822	0.042253
C74	C	0.361437	0.512475	0.106844
C75	C	0.328159	0.415596	0.071114
H76	H	0.318824	0.573780	0.130173
H77	H	0.398834	0.461646	0.155812
H78	H	0.391292	0.573778	0.060941
H79	H	0.298268	0.354265	0.116960
H80	H	0.290799	0.466503	0.022129
H81	H	0.177577	-0.044325	0.005503
H82	H	0.736369	0.320494	0.772774
O83	O	0.404415	-0.003579	-0.086338
C84	C	0.432034	-0.082456	-0.200769
C85	C	0.385637	0.012264	-0.164763
H86	H	0.416858	-0.069697	-0.264177
H87	H	0.489030	-0.065964	-0.195426
H88	H	0.424530	-0.181902	-0.169338
H89	H	0.393080	0.111747	-0.196168
H90	H	0.328658	-0.004338	-0.170096
O91	O	0.838070	-0.057954	0.585006
C92	C	0.788504	-0.192900	0.691536
C93	C	0.779122	-0.067823	0.631971
H94	H	0.740859	-0.200908	0.729534
H95	H	0.794583	-0.274201	0.660416
H96	H	0.837047	-0.196149	0.728792
H97	H	0.730578	-0.064451	0.594699
H98	H	0.773083	0.013420	0.663140
O99	O	0.488730	-0.054144	0.006866
C100	C	0.511726	-0.279538	0.036057
C101	C	0.543030	-0.153346	0.019681
H102	H	0.555612	-0.359777	0.046406
H103	H	0.478183	-0.286209	0.089317
H104	H	0.478197	-0.286043	-0.015487
H105	H	0.576591	-0.146756	0.071179
H106	H	0.576533	-0.146729	-0.033606
O107	O	0.631528	-0.050192	0.006256
C108	C	0.722319	-0.180062	-0.041768
C109	C	0.673923	-0.056040	-0.057830
H110	H	0.756597	-0.184842	-0.093577
H111	H	0.756651	-0.184876	0.011217
H112	H	0.689494	-0.262331	-0.031066
H113	H	0.706693	0.026299	-0.068567
H114	H	0.639588	-0.051336	-0.110796
O115	O	0.913653	-0.001659	0.665449
C116	C	1.006568	-0.170368	0.695613
C117	C	0.955057	-0.076731	0.726792
H118	H	1.040066	-0.231070	0.745190
H119	H	0.976318	-0.232653	0.666839
H120	H	1.041487	-0.116629	0.651708
H121	H	0.920124	-0.130368	0.770724
H122	H	0.985350	-0.014448	0.755518
O123	O	0.728945	0.333679	0.291250
C124	C	0.634202	0.360674	0.376735
C125	C	0.685715	0.267147	0.345468
H126	H	0.599227	0.306920	0.420564
H127	H	0.664450	0.422863	0.405588
H128	H	0.600760	0.421493	0.327150
H129	H	0.719169	0.206246	0.395010
H130	H	0.655424	0.205046	0.316592
H131	H	0.819455	-0.458547	0.049932
O132	O	0.822180	-0.263799	0.100262
C133	C	0.761527	-0.289347	0.220235
C134	C	0.762639	-0.217617	0.135908
H135	H	0.713400	-0.252019	0.249084
H136	H	0.759953	-0.393522	0.221992
H137	H	0.810441	-0.275547	0.252074
H138	H	0.713735	-0.231314	0.104018
H139	H	0.764248	-0.113468	0.134207
O140	O	0.804388	0.390402	0.526692
C141	C	0.787430	0.615936	0.489110
C142	C	0.796872	0.490826	0.462040
H143	H	0.781365	0.697162	0.436853
H144	H	0.738898	0.619282	0.525577
H145	H	0.835092	0.623981	0.524950
H146	H	0.749249	0.482699	0.426170
H147	H	0.845432	0.487535	0.425613
H148	H	0.805748	0.372429	0.379992
O149	O	0.820257	-0.403991	-0.143840
C150	C	0.820125	-0.417432	-0.277484
C151	C	0.819079	-0.489127	-0.193144
H152	H	0.819188	-0.486236	-0.317369
H153	H	0.772485	-0.344834	-0.290306
H154	H	0.869531	-0.368146	-0.287211
H155	H	0.769705	-0.538488	-0.183357
H156	H	0.866753	-0.561654	-0.180363
O157	O	0.728932	0.333959	0.135900
C158	C	0.636014	0.502661	0.122368
C159	C	0.687531	0.409030	0.177799
H160	H	0.602518	0.563362	0.156224
H161	H	0.666259	0.564948	0.077399
H162	H	0.601092	0.448919	0.092447
H163	H	0.722465	0.462670	0.207775
H164	H	0.657243	0.346744	0.222721
H165	H	0.906235	0.011819	0.183695
O166	O	0.261570	-0.007299	-0.085855
C167	C	0.181948	-0.041110	-0.182061
C168	C	0.215259	0.055726	-0.146323
H169	H	0.144488	0.009808	-0.230946
H170	H	0.224513	-0.102353	-0.205509
H171	H	0.152147	-0.102488	-0.136141
H172	H	0.245055	0.117188	-0.192200
H173	H	0.172663	0.116881	-0.122857
H174	H	0.906243	0.011817	0.326653
H175	H	0.906275	0.011823	0.812741
O176	O	0.600834	0.398222	-0.051788
C177	C	0.577834	0.623616	-0.081071
C178	C	0.546532	0.497421	-0.064733
H179	H	0.533946	0.703851	-0.091558
H180	H	0.611314	0.630279	-0.029523
H181	H	0.611425	0.630133	-0.134287
H182	H	0.512910	0.490818	-0.011542
H183	H	0.513092	0.490812	-0.116323
O184	O	0.154021	0.386309	-0.050491
C185	C	0.226920	0.520442	-0.132698
C186	C	0.195569	0.394293	-0.116303
H187	H	0.260530	0.526927	-0.185897
H188	H	0.183079	0.600765	-0.143167
H189	H	0.260399	0.526987	-0.081125
H190	H	0.162097	0.387626	-0.167851
H191	H	0.239443	0.314031	-0.105802
O192	O	0.041537	-0.065702	0.008213
C193	C	-0.063229	-0.169447	0.021690
C194	C	-0.031850	-0.043326	0.005362
H195	H	-0.122567	-0.151400	0.019406
H196	H	-0.045190	-0.225163	-0.023485
H197	H	-0.045154	-0.225157	0.081297
H198	H	-0.049911	0.012485	-0.054223
H199	H	-0.049887	0.012294	0.050583
H200	H	0.244774	0.322476	0.037516
H201	H	0.836841	-0.040112	0.433516
