data_functionalizedCrystal
_audit_creation_method	'MofGen! by Chris Wilmer'
_symmetry_space_group_name_H-M	'P1'
_symmetry_Int_Tables_number	1
_symmetry_cell_setting	triclinic
loop_
_symmetry_equiv_pos_as_xyz
  x,y,z
_cell_length_a	14.853566
_cell_length_b	23.532407
_cell_length_c	13.930277
_cell_angle_alpha	90.010364
_cell_angle_beta	89.995015
_cell_angle_gamma	96.758458
loop_
_atom_site_label
_atom_site_type_symbol
_atom_site_fract_x
_atom_site_fract_y
_atom_site_fract_z
O1	O	1.195557	-0.074349	-0.079781
O2	O	0.933000	-0.083207	-0.079798
O3	O	1.072196	0.004119	-0.079768
O4	O	1.056361	-0.161675	-0.079811
O5	O	1.072175	0.004121	0.079894
O6	O	0.932979	-0.083206	0.079864
O7	O	1.195536	-0.074348	0.079881
Zn8	Zn	1.064254	-0.078776	0.105222
Zn9	Zn	1.064282	-0.078778	-0.105139
O10	O	1.056340	-0.161674	0.079851
C11	C	0.899405	-0.082805	0.000031
C12	C	0.799335	-0.081603	0.000025
C13	C	0.376217	-0.076518	-0.086988
C14	C	0.376216	-0.076517	0.087081
C15	C	0.470237	-0.077646	0.087078
C16	C	0.517253	-0.078212	0.000040
C17	C	0.470247	-0.077649	-0.086994
C18	C	0.517249	-0.078215	0.174111
C19	C	0.611276	-0.079345	0.174111
C20	C	0.658295	-0.079907	0.087072
C21	C	0.611283	-0.079343	0.000034
C22	C	0.658299	-0.079909	-0.087003
C23	C	0.611290	-0.079341	-0.174042
C24	C	0.517265	-0.078211	-0.174033
C25	C	0.752319	-0.081037	0.087063
C26	C	0.752329	-0.081040	-0.087009
C27	C	1.071782	0.025338	0.000066
C28	C	1.070570	0.088560	0.000076
C29	C	1.145339	0.487337	0.000044
C30	C	1.144213	0.546742	0.000039
O31	O	1.213524	0.583184	0.000010
N32	N	1.061461	0.569729	0.000035
C33	C	0.979830	0.533308	0.000027
O34	O	0.909340	0.558315	0.000022
C35	C	0.980957	0.473904	0.000025
C36	C	1.063714	0.450920	0.000038
C37	C	1.228089	0.464353	0.000057
C38	C	1.229215	0.404952	0.000063
C39	C	1.147591	0.368535	0.000058
C40	C	1.064840	0.391519	0.000045
C41	C	0.899327	0.437483	0.000010
C42	C	0.900462	0.378076	0.000007
C43	C	0.983219	0.355092	0.000021
C44	C	0.984341	0.295701	0.000046
N45	N	1.067093	0.272714	0.000050
C46	C	1.148718	0.309131	0.000056
C47	C	0.977469	0.658060	0.000029
C48	C	0.976341	0.717463	0.000038
C49	C	1.140724	0.730894	0.000048
C50	C	1.141851	0.671490	0.000046
C51	C	1.060221	0.635073	0.000033
C52	C	1.151076	0.184384	0.000071
C53	C	1.152194	0.124977	0.000082
C54	C	0.987812	0.111552	0.000066
C55	C	0.986693	0.170953	0.000060
C56	C	1.068332	0.207369	0.000060
O57	O	0.915066	0.259224	0.000072
O58	O	1.219196	0.284115	0.000048
C59	C	1.229131	-0.074750	0.000050
C60	C	1.329201	-0.075952	0.000050
N61	N	1.064242	-0.078775	0.248788
C62	C	1.056754	0.817108	0.000025
C63	C	1.057966	0.753885	0.000038
C64	C	1.002635	-0.117433	0.701044
C65	C	1.125936	-0.040123	0.701040
C66	C	1.125927	-0.040121	0.600545
C67	C	1.064271	-0.078776	0.550294
C68	C	1.002625	-0.117434	0.600539
C69	C	1.187577	-0.001469	0.550292
C70	C	1.187571	-0.001465	0.449790
C71	C	1.125910	-0.040118	0.399538
C72	C	1.064261	-0.078777	0.449789
C73	C	1.002606	-0.117432	0.399539
C74	C	0.940952	-0.156088	0.449788
C75	C	0.940965	-0.156087	0.550287
C76	C	1.125897	-0.040120	0.299039
C77	C	1.002596	-0.117432	0.299034
N78	N	1.064291	-0.078778	0.751295
H79	H	0.337929	-0.076060	0.157943
F80	F	0.937018	-0.158570	0.754521
F81	F	1.237966	0.223131	0.000070
H82	H	1.296604	0.386244	0.000070
H83	H	0.478961	-0.077758	0.244972
F84	F	1.240280	0.100520	0.000096
F85	F	0.661337	-0.079947	-0.266671
H86	H	1.176139	-0.008654	0.741958
F87	F	0.813577	0.339322	-0.000010
H88	H	0.952385	-0.148908	0.258126
H89	H	1.237780	0.030001	0.591209
F90	F	0.326190	-0.075900	-0.179617
F91	F	1.314974	0.503102	0.000062
F92	F	1.191515	0.001015	0.245566
F93	F	1.229932	0.647034	0.000061
F94	F	0.661299	-0.079948	0.266744
F95	F	0.802360	-0.081638	-0.179649
H96	H	0.921355	0.081891	0.000065
H97	H	1.237771	0.030011	0.408883
F98	F	0.802344	-0.081645	0.179689
F99	F	0.467233	-0.077589	-0.266657
H100	H	0.890756	-0.187564	0.408863
F101	F	1.227597	0.769662	0.000049
H102	H	0.908952	0.736171	0.000043
H103	H	0.910992	0.628413	0.000026
H104	H	0.831938	0.456186	-0.000007
H105	H	0.919305	0.189667	0.000076
F106	F	0.875355	-0.197225	0.603770
