data_functionalizedCrystal
_audit_creation_method	'MofGen! by Chris Wilmer'
_symmetry_space_group_name_H-M	'P1'
_symmetry_Int_Tables_number	1
_symmetry_cell_setting	triclinic
loop_
_symmetry_equiv_pos_as_xyz
  x,y,z
_cell_length_a	30.700870
_cell_length_b	30.706035
_cell_length_c	30.704346
_cell_angle_alpha	89.981636
_cell_angle_beta	60.018504
_cell_angle_gamma	119.983064
loop_
_atom_site_label
_atom_site_type_symbol
_atom_site_fract_x
_atom_site_fract_y
_atom_site_fract_z
O1	O	-0.311875	0.371130	0.012940
O2	O	-0.222672	0.307809	-0.012902
O3	O	-0.311826	0.307811	0.076261
O4	O	-0.222721	0.371128	-0.076223
O5	O	-0.384246	0.235391	0.076259
O6	O	-0.295091	0.235389	-0.012904
O7	O	-0.384295	0.298710	0.012939
Zn8	Zn	-0.351191	0.255551	0.000018
Zn9	Zn	-0.255775	0.350968	0.000019
O10	O	-0.295141	0.298708	-0.076224
C11	C	-0.535500	0.496260	0.039249
C12	C	-0.509552	0.548663	0.039619
C13	C	-0.614377	0.496260	0.039251
C14	C	-0.588310	0.548663	0.039621
C15	C	-0.535529	0.575108	0.039252
C16	C	-0.588281	0.469934	0.039618
C17	C	-0.473014	0.368541	0.024967
C18	C	-0.444142	0.343549	0.020930
C19	C	-0.390178	0.370492	0.018903
C20	C	-0.358864	0.343399	0.014515
C21	C	-0.365091	0.422427	0.020919
C22	C	-0.393967	0.447413	0.024964
C23	C	-0.447931	0.420468	0.026988
C24	C	-0.393559	0.765251	0.024981
C25	C	-0.364541	0.819097	0.020947
C26	C	-0.389473	0.846111	0.018920
C27	C	-0.358011	0.904495	0.014537
C28	C	-0.443432	0.819272	0.020934
C29	C	-0.472454	0.765425	0.024978
C30	C	-0.447509	0.738418	0.026998
C31	C	-0.790267	0.368539	0.024974
C32	C	-0.840084	0.343549	0.020931
C33	C	-0.865089	0.370491	0.018907
C34	C	-0.919101	0.343398	0.014520
C35	C	-0.840274	0.422424	0.020920
C36	C	-0.790458	0.447413	0.024961
C37	C	-0.765461	0.420463	0.026993
C38	C	-0.479236	0.447567	0.031369
C39	C	-0.504191	0.469166	0.034863
C40	C	-0.668389	0.469165	0.034867
C41	C	-0.711444	0.447565	0.031374
C42	C	-0.504062	0.633493	0.034870
C43	C	-0.478980	0.680031	0.031378
O44	O	-0.936774	0.298706	0.012951
O45	O	-1.063450	0.235383	-0.012887
O46	O	-1.063413	0.235386	0.076274
O47	O	-0.936811	0.298703	-0.076210
O48	O	-1.063440	0.307806	0.076277
O49	O	-1.063477	0.307803	-0.012884
O50	O	-0.936801	0.371126	0.012954
Zn51	Zn	-1.000143	0.350963	0.000035
Zn52	Zn	-1.000108	0.255547	0.000031
O53	O	-0.936838	0.371123	-0.076207
C54	C	-0.535719	0.574769	-0.503696
C55	C	-0.509751	0.548324	-0.530023
C56	C	-0.614540	0.495920	-0.424850
C57	C	-0.588451	0.469595	-0.451296
C58	C	-0.535688	0.495922	-0.503699
C59	C	-0.588482	0.548322	-0.451294
C60	C	-0.473365	0.764909	-0.551838
C61	C	-0.444531	0.818755	-0.576653
C62	C	-0.390584	0.845768	-0.628581
C63	C	-0.359310	0.904155	-0.655488
C64	C	-0.365476	0.818930	-0.655694
C65	C	-0.394316	0.765086	-0.630880
C66	C	-0.448263	0.738076	-0.578950
C67	C	-0.393665	0.447778	-0.631419
C68	C	-0.364624	0.422961	-0.656413
C69	C	-0.389516	0.371035	-0.629473
C70	C	-0.358029	0.344126	-0.656564
C71	C	-0.443458	0.343923	-0.577539
C72	C	-0.472504	0.368735	-0.552550
C73	C	-0.447598	0.420668	-0.579496
C74	C	-0.790392	0.447768	-0.234706
C75	C	-0.840188	0.422951	-0.180857
C76	C	-0.865154	0.371023	-0.153846
C77	C	-0.919145	0.344114	-0.095459
C78	C	-0.840318	0.343916	-0.180684
C79	C	-0.790521	0.368734	-0.234531
C80	C	-0.765565	0.420660	-0.261539
C81	C	-0.479527	0.679691	-0.552046
C82	C	-0.504450	0.633153	-0.530600
C83	C	-0.668531	0.469013	-0.366465
C84	C	-0.711569	0.447565	-0.319926
C85	C	-0.504196	0.469017	-0.530794
C86	C	-0.479094	0.447571	-0.552394
C87	C	-0.137231	0.234716	-0.018770
C88	C	-0.083484	0.261585	-0.015070
C89	C	-0.163301	0.182312	-0.019137
C90	C	-0.216102	0.234718	-0.018777
C91	C	-0.246685	0.261589	-0.015084
C92	C	-0.242052	0.182314	-0.019144
C93	C	-0.216080	0.155867	-0.018771
C94	C	-0.246637	0.098430	-0.015071
C95	C	-0.163324	0.261043	-0.019143
O96	O	-0.295045	1.076231	-0.012893
O97	O	-0.384180	0.923749	0.012958
O98	O	-0.295049	1.012899	-0.076208
O99	O	-0.384175	0.987082	0.076274
O100	O	-0.222610	1.012897	-0.076198
O101	O	-0.311741	0.923747	0.012968
O102	O	-0.222606	1.076229	-0.012883
Zn103	Zn	-0.255672	0.999988	0.000044
Zn104	Zn	-0.351113	0.999991	0.000031
O105	O	-0.311736	0.987079	0.076284
O106	O	-0.294964	0.235406	-0.692149
O107	O	-0.384167	0.298718	-0.628835
O108	O	-0.294982	0.298725	-0.628820
O109	O	-0.384149	0.235399	-0.692165
O110	O	-0.222588	0.371145	-0.701238
O111	O	-0.311773	0.371138	-0.701254
O112	O	-0.222569	0.307827	-0.764568
Zn113	Zn	-0.255677	0.350981	-0.744409
Zn114	Zn	-0.351060	0.255564	-0.648994
O115	O	-0.311755	0.307820	-0.764583
O116	O	-0.223222	1.075886	-0.764212
O117	O	-0.312333	0.923407	-0.700895
O118	O	-0.223182	1.012564	-0.700885
O119	O	-0.312373	0.986728	-0.764222
O120	O	-0.295603	1.012564	-0.628465
O121	O	-0.384755	0.923407	-0.628475
O122	O	-0.295643	1.075886	-0.691792
Zn123	Zn	-0.351698	0.999646	-0.648636
Zn124	Zn	-0.256279	0.999646	-0.744052
O125	O	-0.384795	0.986729	-0.691802
C126	C	-0.469577	0.155881	0.234748
C127	C	-0.523303	0.098445	0.261617
C128	C	-0.443489	0.182327	0.261074
C129	C	-0.390762	0.234726	0.155898
C130	C	-0.360218	0.261593	0.098461
C131	C	-0.364793	0.261053	0.182344
C132	C	-0.390728	0.234730	0.234748
C133	C	-0.360149	0.261600	0.261617
C134	C	-0.443522	0.182324	0.182344
C135	C	-1.216018	0.234717	0.234761
C136	C	-1.246595	0.261586	0.261632
C137	C	-1.241958	0.182313	0.261085
C138	C	-1.137169	0.234717	0.155911
C139	C	-1.083440	0.261587	0.098475
C140	C	-1.163228	0.182313	0.182355
C141	C	-1.215991	0.155867	0.234757
C142	C	-1.246540	0.098431	0.261624
C143	C	-1.163255	0.261043	0.182359
C144	C	-0.390669	0.981221	0.234769
C145	C	-0.360086	0.984921	0.261643
C146	C	-0.443446	0.980857	0.261090
C147	C	-0.390696	0.981211	0.155915
C148	C	-0.360142	0.984901	0.098479
C149	C	-0.443473	0.980847	0.182356
C150	C	-0.469539	0.981223	0.234759
C151	C	-0.523284	0.984926	0.261623
C152	C	-0.364723	0.980845	0.182366
C153	C	-0.071467	0.496239	-0.503721
C154	C	-0.018707	0.548641	-0.530048
C155	C	-0.071433	0.496243	-0.424872
C156	C	-0.018672	0.548645	-0.451318
C157	C	0.007382	0.575088	-0.503722
C158	C	-0.097402	0.469915	-0.451317
C159	C	-0.213489	0.368515	-0.551868
C160	C	-0.242531	0.343520	-0.576686
C161	C	-0.217637	0.370460	-0.628616
C162	C	-0.249130	0.343366	-0.655524
C163	C	-0.163698	0.422395	-0.655728
C164	C	-0.134656	0.447383	-0.630912
C165	C	-0.159554	0.420440	-0.578980
C166	C	0.183190	0.765226	-0.631445
C167	C	0.232988	0.819072	-0.656438
C168	C	0.257986	0.846088	-0.629497
C169	C	0.311973	0.904472	-0.656588
C170	C	0.233184	0.819252	-0.577561
C171	C	0.183395	0.765406	-0.552572
C172	C	0.158398	0.738397	-0.579520
C173	C	-0.213350	0.368532	-0.234725
C174	C	-0.242362	0.343544	-0.180875
C175	C	-0.217434	0.370489	-0.153862
C176	C	-0.248889	0.343399	-0.095474
C177	C	-0.163499	0.422421	-0.180700
C178	C	-0.134492	0.447407	-0.234548
C179	C	-0.159420	0.420455	-0.261558
C180	C	-0.128062	0.447542	-0.552074
C181	C	-0.102959	0.469142	-0.530627
C182	C	-0.102887	0.469151	-0.366486
C183	C	-0.127960	0.447554	-0.319946
C184	C	0.061370	0.633472	-0.530818
C185	C	0.104405	0.680010	-0.552417
O186	O	-0.669906	-0.076232	0.371156
O187	O	-0.543300	0.076246	0.307837
O188	O	-0.543268	-0.012912	0.307833
O189	O	-0.669939	0.012927	0.371160
O190	O	-0.543297	-0.012913	0.235411
O191	O	-0.543330	0.076245	0.235415
O192	O	-0.669935	-0.076233	0.298733
Zn193	Zn	-0.606637	0.000006	0.255575
Zn194	Zn	-0.606599	0.000007	0.350995
O195	O	-0.669968	0.012925	0.298737
C196	C	0.007233	1.039136	-0.503691
C197	C	-0.018861	1.039502	-0.530021
C198	C	-0.071609	1.039148	-0.424847
C199	C	-0.097583	1.039514	-0.451297
C200	C	-0.071637	1.039138	-0.503700
C201	C	-0.018833	1.039512	-0.451288
C202	C	0.183136	1.024849	-0.551820
C203	C	0.232952	1.020808	-0.576633
C204	C	0.257927	1.018775	-0.628562
C205	C	0.311935	1.014383	-0.655465
C206	C	0.233086	1.020787	-0.655677
C207	C	0.183278	1.024834	-0.630867
C208	C	0.158304	1.026866	-0.578936
C209	C	-0.134119	1.024848	-0.631432
C210	C	-0.162989	1.020810	-0.656428
C211	C	-0.216948	1.018786	-0.629492
C212	C	-0.248260	1.014400	-0.656587
C213	C	-0.242034	1.020808	-0.577557
C214	C	-0.213160	1.024856	-0.552564
C215	C	-0.159200	1.026873	-0.579508
C216	C	-0.133979	1.024898	-0.234698
C217	C	-0.162825	1.020862	-0.180849
C218	C	-0.216784	1.018841	-0.153841
C219	C	-0.248066	1.014463	-0.095454
C220	C	-0.241898	1.020851	-0.180683
C221	C	-0.213051	1.024884	-0.234530
C222	C	-0.159087	1.026912	-0.261535
C223	C	0.104292	1.031250	-0.552035
C224	C	0.061240	1.034747	-0.530592
C225	C	-0.102886	1.034772	-0.366462
C226	C	-0.127815	1.031286	-0.319923
C227	C	-0.102944	1.034752	-0.530799
C228	C	-0.127898	1.031257	-0.552401
H229	H	-0.467079	0.569894	0.040210
O230	O	-0.763328	0.339457	0.027177
H231	H	-0.767144	0.335696	0.065086
O232	O	-0.298283	0.154187	-0.019968
H233	H	-0.336574	0.117989	0.015976
O234	O	0.260020	1.018595	-0.711683
H235	H	0.223989	0.983314	-0.712615
O236	O	0.156493	1.027012	-0.660113
H237	H	0.139584	0.990175	-0.670571
O238	O	-0.308472	0.980050	0.154245
H239	H	-0.270175	1.016007	0.152136
O240	O	-0.617149	0.412918	0.040350
H241	H	-0.590107	0.398980	0.040520
H242	H	-1.141397	0.161082	0.161118
H243	H	-1.141448	0.304099	0.161130
H244	H	-0.860648	0.301632	-0.158689
H245	H	-0.373540	0.489697	0.026607
O246	O	-0.472440	0.154204	0.154216
H247	H	-0.513580	0.113246	0.181422
H248	H	-0.285836	1.019205	-0.158690
H249	H	0.162807	1.026503	-0.509537
O250	O	-0.530642	0.736476	0.027142
H251	H	-0.566789	0.737297	0.062418
O252	O	-0.306898	0.451479	0.018745
H253	H	-0.294312	0.491785	0.020835
O254	O	0.010256	0.576775	-0.423200
H255	H	-0.016740	0.549571	-0.382240
H256	H	-0.465314	0.980245	0.161121
O257	O	-0.530681	0.339493	-0.496541
H258	H	-0.546694	0.365472	-0.483693
H259	H	-0.465254	0.980278	0.304144
H260	H	0.253544	0.841247	-0.555627
H261	H	-0.322333	0.304107	0.161107
O262	O	-0.136605	0.451474	-0.151566
H263	H	-0.089318	0.461921	-0.171421
O264	O	-1.298198	0.154187	0.318116
H265	H	-1.311927	0.113231	0.332056
H266	H	0.003104	0.569865	-0.573109
H267	H	-0.465298	0.161096	0.304132
O268	O	-0.763701	0.503420	0.027146
H269	H	-0.789463	0.517954	0.025068
H270	H	-0.139855	0.426859	-0.430087
O271	O	-0.134376	0.154184	-0.019924
H272	H	-0.093225	0.181387	-0.020108
H273	H	-0.142562	1.019162	-0.698712
O274	O	-0.134426	0.318078	-0.019934
H275	H	-0.093267	0.332023	-0.020123
O276	O	-0.471601	0.847705	-0.547416
H277	H	-0.473270	0.846885	-0.510452
O278	O	-0.300532	0.287532	-0.151928
H279	H	-0.312987	0.272990	-0.179758
O280	O	-0.075783	1.027074	-0.263823
H281	H	-0.039562	1.062353	-0.263079
H282	H	-0.090182	1.026495	-0.653374
H283	H	-0.233646	0.346580	-0.256716
O284	O	-0.240337	0.339453	-0.495861
H285	H	-0.282715	0.299142	-0.481182
O286	O	-0.866978	0.452187	-0.151915
H287	H	-0.830882	0.489157	-0.152739
H288	H	-0.286448	0.301236	-0.554608
H289	H	-0.143432	0.444324	-0.698010
H290	H	0.002957	1.040090	-0.573078
H291	H	-0.140052	1.040111	-0.430066
H292	H	-0.090738	0.489666	-0.652991
O293	O	-0.763744	0.339494	-0.263480
H294	H	-0.746827	0.329025	-0.243549
O295	O	0.156233	0.736092	-0.660507
H296	H	0.181847	0.763795	-0.700819
H297	H	-0.321555	0.840927	-0.697974
H298	H	0.163208	0.743558	-0.510288
O299	O	0.259730	0.848019	-0.712446
H300	H	0.233979	0.820193	-0.726981
O301	O	-0.076314	0.503414	-0.263498
H302	H	-0.063848	0.517951	-0.235672
O303	O	-0.617231	0.576790	0.040397
H304	H	-0.590216	0.617749	0.040587
H305	H	0.002979	1.040064	-0.430040
O306	O	-0.366696	0.736105	0.027219
H307	H	-0.324319	0.763805	0.025165
O308	O	-0.135740	1.018695	-0.151898
H309	H	-0.093369	1.020787	-0.179725
H310	H	0.253173	1.019168	-0.554552
O311	O	-0.617338	0.412561	-0.423181
H312	H	-0.617560	0.410218	-0.386989
O313	O	-0.300231	1.018629	-0.548498
H314	H	-0.316099	1.015472	-0.574598
O315	O	-0.617405	0.576444	-0.423169
H316	H	-0.658547	0.549232	-0.382212
H317	H	-0.233585	1.026505	-0.510281
O318	O	-0.240129	1.027061	-0.263484
H319	H	-0.282491	1.024985	-0.235661
H320	H	-0.860283	0.301264	0.019288
H321	H	-0.464567	0.301266	0.019282
O322	O	-0.531209	0.339478	0.027140
H323	H	-0.567419	0.302519	0.062423
O324	O	-0.306342	0.848047	0.018764
H325	H	-0.293872	0.820222	0.020843
H326	H	-0.463737	0.841266	0.019291
O327	O	-0.867236	0.451493	0.018736
H328	H	-0.916429	0.428749	0.052956
O329	O	-0.453509	0.576446	-0.587054
H330	H	-0.439764	0.617408	-0.600995
H331	H	-0.517291	0.742921	-0.509555
O332	O	-0.763463	0.503777	-0.263836
H333	H	-0.789089	0.518462	-0.236127
H334	H	-0.320705	0.445039	-0.698697
H335	H	-0.373872	0.743238	-0.652959
H336	H	-0.373384	0.490062	-0.653363
H337	H	-0.463732	0.301640	-0.555606
