data_functionalizedCrystal
_audit_creation_method	'MofGen! by Chris Wilmer'
_symmetry_space_group_name_H-M	'P1'
_symmetry_Int_Tables_number	1
_symmetry_cell_setting	triclinic
loop_
_symmetry_equiv_pos_as_xyz
  x,y,z
_cell_length_a	12.759401
_cell_length_b	15.296720
_cell_length_c	12.759400
_cell_angle_alpha	99.648360
_cell_angle_beta	90.016417
_cell_angle_gamma	99.661499
loop_
_atom_site_label
_atom_site_type_symbol
_atom_site_fract_x
_atom_site_fract_y
_atom_site_fract_z
Zn1	Zn	1.503379	-0.510077	-0.521002
Zn2	Zn	1.533697	-0.359232	-0.666306
Zn3	Zn	1.358102	-0.359242	-0.490649
Zn4	Zn	1.327677	-0.510037	-0.696637
O5	O	1.430714	-0.434647	-0.593649
O6	O	1.654419	-0.490080	-0.540286
O7	O	1.535825	-0.232996	-0.617609
O8	O	1.377418	-0.379271	-0.347659
O9	O	1.676694	-0.379255	-0.647041
O10	O	1.484152	-0.490089	-0.369959
O11	O	1.406817	-0.233003	-0.488554
O12	O	1.207048	-0.379232	-0.517965
O13	O	1.325563	-0.636280	-0.698735
O14	O	1.184695	-0.490021	-0.669303
O15	O	1.454650	-0.636309	-0.569697
O16	O	1.506323	-0.379216	-0.817347
O17	O	1.354962	-0.490012	-0.839630
C18	C	1.157751	-0.434624	-0.593632
C19	C	1.040972	-0.434635	-0.593655
C20	C	0.864786	-0.492263	-0.672546
C21	C	0.974515	-0.492238	-0.672539
C22	C	0.997697	-0.377047	-0.514778
C23	C	0.887971	-0.377068	-0.514790
C24	C	0.851402	-0.558770	-0.763625
C25	C	0.961131	-0.558746	-0.763619
C26	C	1.383331	-0.669941	-0.640985
C27	C	1.363139	-0.770210	-0.661157
C28	C	1.575066	-1.052912	-0.449293
C29	C	1.594044	-0.958704	-0.430342
C30	C	1.536319	-0.911576	-0.488044
C31	C	1.459614	-0.958664	-0.564700
C32	C	1.440640	-1.052881	-0.583659
C33	C	1.401893	-0.911545	-0.622410
C34	C	1.325188	-0.958634	-0.699066
C35	C	1.306217	-1.052841	-0.718020
C36	C	1.363942	-1.099969	-0.660319
C37	C	1.420867	-0.817329	-0.603451
C38	C	1.286441	-0.817298	-0.737817
C39	C	1.267464	-0.911505	-0.756767
C40	C	1.704742	-0.434671	-0.593666
C41	C	1.821517	-0.434681	-0.593674
C42	C	1.430655	-0.434628	-0.866612
C43	C	1.430720	-0.434650	-0.983393
C44	C	1.477973	-0.200268	-0.546421
C45	C	1.498368	-0.100000	-0.525953
C46	C	1.509596	-0.377023	-1.026630
C47	C	1.509655	-0.377051	-1.136360
C48	C	1.351953	-0.492336	-1.159607
C49	C	1.351899	-0.492312	-1.049880
C50	C	1.600641	-0.310461	-1.013209
C51	C	1.600700	-0.310489	-1.122939
C52	C	1.430797	-0.434686	-0.319623
C53	C	1.430833	-0.434702	-0.202850
H54	H	1.051817	-0.330140	-0.450555
H55	H	1.287780	-0.539283	-1.213753
H56	H	1.584908	-0.244065	-0.965875
C57	C	0.857341	-0.707287	-0.728588
C58	C	0.787436	-0.648427	-0.742485
H59	H	0.817847	-0.762637	-0.715540
H60	H	0.904480	-0.681247	-0.669805
H61	H	0.897091	-0.717907	-0.791004
H62	H	0.747690	-0.637802	-0.680065
H63	H	0.740278	-0.674472	-0.801273
H64	H	1.551776	-0.834868	-0.472610
H65	H	1.287681	-0.539245	-1.014680
H66	H	1.000198	-0.533601	-0.835811
C67	C	1.477930	-0.788370	-0.419727
C68	C	1.505169	-0.765577	-0.519185
H69	H	1.529974	-0.756417	-0.367699
H70	H	1.474893	-0.851216	-0.422771
H71	H	1.410455	-0.772920	-0.401252
H72	H	1.572641	-0.781034	-0.537663
H73	H	1.508217	-0.702717	-0.516142
C74	C	1.270260	-1.158746	-0.880670
C75	C	1.221919	-1.104594	-0.802302
H76	H	1.218220	-1.190688	-0.932708
H77	H	1.301904	-1.200295	-0.849019
H78	H	1.323428	-1.121975	-0.913445
H79	H	1.168756	-1.141365	-0.769522
H80	H	1.190258	-1.063040	-0.833957
C81	C	1.136488	-0.902019	-0.887679
C82	C	1.183155	-0.963270	-0.841032
H83	H	1.084435	-0.933979	-0.939695
H84	H	1.189646	-0.865274	-0.920478
H85	H	1.103717	-0.865274	-0.834499
H86	H	1.215932	-1.000011	-0.894211
H87	H	1.129988	-1.000031	-0.808233
C88	C	1.756682	-0.852745	-0.394399
C89	C	1.678321	-0.906933	-0.346062
H90	H	1.808706	-0.820784	-0.342356
H91	H	1.725015	-0.811214	-0.426060
H92	H	1.789480	-0.889495	-0.447550
H93	H	1.645517	-0.870183	-0.292915
H94	H	1.709990	-0.948469	-0.314383
H95	H	1.622063	-1.091292	-0.402327
H96	H	1.672945	-0.335574	-1.161939
H97	H	1.593056	-0.240612	-1.138712
H98	H	0.825392	-0.539948	-0.841178
C99	C	1.791200	-0.273037	-1.001934
C100	C	1.705336	-0.335798	-0.977999
H101	H	1.855830	-0.288684	-0.980201
H102	H	1.784788	-0.214812	-0.965449
H103	H	1.791221	-0.273063	-1.076389
H104	H	1.705309	-0.335768	-0.903541
H105	H	1.711750	-0.394038	-1.014481
C106	C	0.921913	-0.263200	-0.358856
C107	C	0.840410	-0.313767	-0.428096
H108	H	0.892548	-0.224124	-0.305331
H109	H	0.971645	-0.228624	-0.397614
H110	H	0.956807	-0.302562	-0.326653
H111	H	0.805520	-0.274406	-0.460305
H112	H	0.790659	-0.348345	-0.389333
C113	C	1.236821	-1.234916	-0.660681
C114	C	1.343079	-1.203527	-0.681152
H115	H	1.223947	-1.298849	-0.673537
H116	H	1.191481	-1.213593	-0.706022
H117	H	1.222980	-1.213604	-0.588593
H118	H	1.356918	-1.224833	-0.753243
H119	H	1.388433	-1.224859	-0.635811
C120	C	1.293132	-0.711323	-0.857807
C121	C	1.222984	-0.765502	-0.801246
H122	H	1.253960	-0.679338	-0.896958
H123	H	1.331480	-0.748073	-0.905392
H124	H	1.341520	-0.669802	-0.809425
H125	H	1.174601	-0.807027	-0.849630
H126	H	1.184618	-0.728748	-0.753657
H127	H	0.976867	-0.628638	-0.756004
