data_functionalizedCrystal
_audit_creation_method	'MofGen! by Chris Wilmer'
_symmetry_space_group_name_H-M	'P1'
_symmetry_Int_Tables_number	1
_symmetry_cell_setting	triclinic
loop_
_symmetry_equiv_pos_as_xyz
  x,y,z
_cell_length_a	16.120530
_cell_length_b	21.295417
_cell_length_c	16.120256
_cell_angle_alpha	92.868749
_cell_angle_beta	90.128265
_cell_angle_gamma	87.125778
loop_
_atom_site_label
_atom_site_type_symbol
_atom_site_fract_x
_atom_site_fract_y
_atom_site_fract_z
Zn1	Zn	1.247390	-0.318928	-0.534526
Zn2	Zn	1.747390	0.181072	-0.034526
Zn3	Zn	1.254326	-0.419134	-0.395454
Zn4	Zn	1.754326	0.080866	0.104546
Zn5	Zn	1.115382	-0.308287	-0.388444
Zn6	Zn	1.615382	0.191713	0.111556
Zn7	Zn	1.108282	-0.418557	-0.527424
Zn8	Zn	1.608282	0.081443	-0.027424
O9	O	1.181345	-0.366227	-0.461462
O10	O	1.681345	0.133773	0.038538
O11	O	1.364676	-0.336915	-0.521983
O12	O	1.864676	0.163085	-0.021983
O13	O	1.241769	-0.400218	-0.278159
O14	O	1.741769	0.099782	0.221841
O15	O	1.132963	-0.221613	-0.407861
O16	O	1.632963	0.278387	0.092139
O17	O	1.369771	-0.410536	-0.419808
O18	O	1.869771	0.089464	0.080192
O19	O	1.229948	-0.229431	-0.515186
O20	O	1.729948	0.270569	-0.015186
O21	O	1.139688	-0.318779	-0.273009
O22	O	1.639688	0.181221	0.226991
O23	O	0.998075	-0.318220	-0.400975
O24	O	1.498075	0.181780	0.099025
O25	O	1.120861	-0.409553	-0.644732
O26	O	1.620861	0.090447	-0.144732
O27	O	0.992858	-0.399235	-0.503083
O28	O	1.492858	0.100765	-0.003083
O29	O	1.223063	-0.336355	-0.649949
O30	O	1.723063	0.163645	-0.149949
O31	O	1.234884	-0.507143	-0.412922
O32	O	1.734884	-0.007143	0.087078
O33	O	1.127586	-0.506719	-0.509880
O34	O	1.627586	-0.006719	-0.009880
C35	C	0.965294	-0.357511	-0.450498
C36	C	1.465294	0.142489	0.049502
C37	C	0.872866	-0.353798	-0.445827
C38	C	1.372866	0.146202	0.054173
C39	C	0.703637	-0.347006	-0.437307
C40	C	1.203637	0.152994	0.062693
C41	C	0.659890	-0.385496	-0.485679
C42	C	1.159890	0.114504	0.014321
C43	C	0.565726	-0.381716	-0.480938
C44	C	1.065726	0.118284	0.019062
C45	C	0.797811	-0.350784	-0.442046
C46	C	1.297811	0.149216	0.057954
C47	C	1.181238	-0.529772	-0.461411
C48	C	1.681238	-0.029772	0.038589
C49	C	1.181267	-0.599742	-0.461420
C50	C	1.681267	-0.099742	0.038580
C51	C	1.237182	-0.632812	-0.410991
C52	C	1.737182	-0.132812	0.089009
C53	C	1.237220	-0.698557	-0.411012
C54	C	1.737220	-0.198557	0.088988
C55	C	1.181329	-0.731228	-0.461452
C56	C	1.681329	-0.231228	0.038548
C57	C	1.125411	-0.698150	-0.511891
C58	C	1.625411	-0.198150	-0.011891
C59	C	1.125380	-0.632407	-0.511875
C60	C	1.625380	-0.132407	-0.011875
N61	N	1.108264	-0.831794	-0.464100
N62	N	1.608264	-0.331794	0.035900
N63	N	1.108296	-0.894247	-0.464110
N64	N	1.608296	-0.394247	0.035890
C65	C	1.181420	-0.929308	-0.461504
C66	C	1.681420	-0.429308	0.038496
N67	N	1.254513	-0.899556	-0.458872
N68	N	1.754513	-0.399556	0.041128
N69	N	1.254481	-0.837097	-0.458857
N70	N	1.754481	-0.337097	0.041143
C71	C	1.181357	-0.802515	-0.461475
C72	C	1.681357	-0.302515	0.038525
C73	C	1.237380	-1.033666	-0.411095
C74	C	1.737380	-0.533666	0.088905
C75	C	1.237419	-1.099412	-0.411122
C76	C	1.737419	-0.599412	0.088878
C77	C	1.125603	-1.099004	-0.511996
C78	C	1.625603	-0.599004	-0.011996
C79	C	1.125571	-1.033259	-0.511975
C80	C	1.625571	-0.533259	-0.011975
C81	C	1.181459	-1.000594	-0.461520
C82	C	1.681459	-0.500594	0.038480
C83	C	1.398239	-0.374977	-0.472470
C84	C	1.898239	0.125023	0.027530
C85	C	1.490667	-0.378705	-0.477160
C86	C	1.990667	0.121295	0.022840
C87	C	1.170397	-0.374077	-0.678356
C88	C	1.670397	0.125923	-0.178356
C89	C	1.165731	-0.377422	-0.770784
C90	C	1.665731	0.122578	-0.270784
C91	C	1.181474	-0.202044	-0.461533
C92	C	1.681474	0.297956	0.038467
C93	C	1.181529	-0.132079	-0.461564
C94	C	1.681529	0.367921	0.038436
C95	C	1.205674	-0.348765	-0.983771
C96	C	1.705674	0.151235	-0.483771
C97	C	1.157185	-0.383503	-0.940003
C98	C	1.657185	0.116497	-0.440003
C99	C	1.161941	-0.380119	-0.845841
C100	C	1.661941	0.119881	-0.345841
C101	C	1.200919	-0.352148	-1.077942
C102	C	1.700919	0.147852	-0.577942
C103	C	1.192299	-0.358363	-0.245414
C104	C	1.692299	0.141637	0.254586
C105	C	1.197126	-0.354847	-0.152996
C106	C	1.697126	0.145153	0.347004
H107	H	0.670373	-0.311218	-0.392337
H108	H	1.170373	0.188782	0.107663
H109	H	1.080099	-1.125604	-0.553070
H110	H	1.580099	-0.625604	-0.053070
H111	H	1.250756	-0.316486	-0.950526
H112	H	1.750756	0.183514	-0.450526
H113	H	1.079905	-0.724755	-0.552962
H114	H	1.579905	-0.224755	-0.052962
H115	H	0.693157	-0.421286	-0.530653
H116	H	1.193157	0.078714	-0.030653
N117	N	1.294274	-0.599456	-0.359450
N118	N	1.794274	-0.099456	0.140550
N119	N	1.344195	-0.628997	-0.314427
N120	N	1.844195	-0.128997	0.185573
H121	H	1.384518	-0.605439	-0.278026
H122	H	1.884518	-0.105439	0.221974
H123	H	1.079847	-0.605480	-0.552942
H124	H	1.579847	-0.105480	-0.052942
H125	H	1.282755	-0.725488	-0.369947
H126	H	1.782755	-0.225488	0.130053
N127	N	1.294471	-1.000305	-0.359555
N128	N	1.794471	-0.500305	0.140445
N129	N	1.344397	-1.029844	-0.314536
N130	N	1.844397	-0.529844	0.185464
H131	H	1.384718	-1.006284	-0.278134
H132	H	1.884718	-0.506284	0.221866
N133	N	1.294553	-1.133186	-0.359612
N134	N	1.794553	-0.633186	0.140388
N135	N	1.344448	-1.104010	-0.314575
N136	N	1.844448	-0.604010	0.185425
H137	H	1.384802	-1.127863	-0.278196
H138	H	1.884802	-0.627863	0.221804
N139	N	1.068448	-0.999485	-0.563491
N140	N	1.568448	-0.499485	-0.063491
N141	N	1.018551	-1.028660	-0.608527
N142	N	1.518551	-0.528660	-0.108527
H143	H	0.978207	-1.004808	-0.644916
H144	H	1.478207	-0.504808	-0.144916
N145	N	1.100627	-0.423997	-0.981717
N146	N	1.600627	0.076003	-0.481717
N147	N	1.096795	-0.426724	-1.059259
N148	N	1.596795	0.073276	-0.559259
H149	H	1.056854	-0.455322	-1.088724
H150	H	1.556854	0.044678	-0.588724
