data_functionalizedCrystal
_audit_creation_method	'MofGen! by Chris Wilmer'
_symmetry_space_group_name_H-M	'P1'
_symmetry_Int_Tables_number	1
_symmetry_cell_setting	triclinic
loop_
_symmetry_equiv_pos_as_xyz
  x,y,z
_cell_length_a	10.654541
_cell_length_b	16.098547
_cell_length_c	10.654545
_cell_angle_alpha	87.248084
_cell_angle_beta	95.515322
_cell_angle_gamma	87.235913
loop_
_atom_site_label
_atom_site_type_symbol
_atom_site_fract_x
_atom_site_fract_y
_atom_site_fract_z
O1	O	1.673418	-0.069226	-0.170823
O2	O	1.307939	-0.069233	-0.187631
O3	O	1.499081	-0.069229	0.003512
O4	O	1.482276	-0.069230	-0.361966
O5	O	1.487913	0.069284	-0.007610
O6	O	1.296772	0.069280	-0.198754
O7	O	1.662250	0.069287	-0.181945
Zn8	Zn	1.477738	0.091275	-0.192115
Zn9	Zn	1.492451	-0.091221	-0.177461
O10	O	1.471109	0.069282	-0.373089
C11	C	1.255557	0.000023	-0.191959
C12	C	1.116114	0.000020	-0.188268
N13	N	1.467705	0.215824	-0.202116
C14	C	1.088145	0.000008	-0.416831
C15	C	1.008652	-0.000001	-0.529374
C16	C	0.877634	-0.000001	-0.525898
C17	C	0.826108	0.000009	-0.409868
C18	C	0.905601	0.000018	-0.297326
C19	C	1.036620	0.000017	-0.300814
C20	C	0.933569	0.000036	-0.068765
C21	C	1.064588	0.000031	-0.072238
C22	C	0.882042	0.000046	0.047265
C23	C	0.961536	0.000050	0.159810
C24	C	1.092561	0.000049	0.156330
C25	C	1.144081	0.000040	0.040305
C26	C	1.548863	0.259411	-0.121016
C27	C	1.541857	0.346600	-0.128024
C28	C	1.453698	0.390200	-0.216138
C29	C	1.372532	0.346607	-0.297241
C30	C	1.379533	0.259420	-0.290227
C31	C	1.428318	0.653450	-0.241546
C32	C	1.421326	0.740643	-0.248557
C33	C	1.590650	0.740629	-0.079337
C34	C	1.597649	0.653440	-0.072336
C35	C	1.516478	0.609855	-0.153434
C36	C	1.446537	0.479321	-0.223306
C37	C	1.523634	0.520736	-0.146259
C38	C	1.714632	0.000029	-0.177617
C39	C	1.854076	0.000027	-0.181308
C40	C	1.492263	0.000026	0.044749
C41	C	1.488571	0.000021	0.184193
N42	N	1.502484	0.784230	-0.167458
C43	C	1.477927	0.000026	-0.414325
C44	C	1.481619	0.000025	-0.553769
C45	C	1.500761	-0.150990	0.196327
C46	C	1.505126	-0.226495	0.267905
C47	C	1.501657	-0.226496	0.398923
C48	C	1.493818	-0.150984	0.458367
C49	C	1.489453	-0.075479	0.386790
C50	C	1.492927	-0.075486	0.255769
C51	C	1.477254	0.075530	0.374654
C52	C	1.480732	0.075533	0.243636
C53	C	1.469416	0.151043	0.434098
C54	C	1.465060	0.226549	0.362522
C55	C	1.468531	0.226547	0.231495
C56	C	1.476367	0.151038	0.172059
H57	H	1.194827	-0.000009	-0.419671
H58	H	1.300744	0.382112	-0.368982
H59	H	1.157278	0.000060	0.247976
O60	O	1.620839	0.388810	-0.049202
C61	C	1.789506	0.379596	0.119399
C62	C	1.700144	0.331690	0.030190
H63	H	1.853629	0.333435	0.183628
H64	H	1.849514	0.420376	0.061357
H65	H	1.731458	0.420454	0.179315
H66	H	1.758094	0.290787	-0.029744
H67	H	1.640132	0.290963	0.088306
O68	O	1.457221	0.299915	0.420178
C69	C	1.337161	0.429000	0.436560
C70	C	1.345864	0.345934	0.371181
H71	H	1.247150	0.466237	0.396953
H72	H	1.335335	0.416079	0.542496
H73	H	1.422619	0.466206	0.418570
H74	H	1.260428	0.308686	0.389070
H75	H	1.347751	0.358914	0.265265
H76	H	1.669435	0.617943	-0.000586
H77	H	1.464957	0.288033	0.173222
H78	H	0.812909	-0.000003	-0.617541
H79	H	1.656735	0.776124	-0.013310
H80	H	1.479200	0.151029	0.065378
H81	H	1.250761	0.000030	0.037461
O82	O	0.754798	0.000080	0.050868
C83	C	0.582135	0.000028	0.181286
C84	C	0.726258	0.000016	0.177380
H85	H	0.559016	-0.000041	0.283562
H86	H	0.535624	0.058002	0.126993
H87	H	0.545069	-0.057932	0.136183
H88	H	0.763435	0.057937	0.222500
H89	H	0.772681	-0.057997	0.231636
O90	O	1.335559	0.782869	-0.334179
C91	C	1.168372	0.773687	-0.501304
C92	C	1.265419	0.725762	-0.404388
H93	H	1.111656	0.727537	-0.558112
H94	H	1.101817	0.814495	-0.449824
H95	H	1.219869	0.814518	-0.567787
H96	H	1.214028	0.684886	-0.337879
H97	H	1.331969	0.685007	-0.455950
H98	H	1.050620	-0.000007	-0.623844
O99	O	1.360734	0.521642	-0.308771
C100	C	1.140864	0.548322	-0.382525
C101	C	1.237901	0.500352	-0.285651
H102	H	1.041533	0.531113	-0.363883
H103	H	1.149699	0.618132	-0.373591
H104	H	1.159538	0.531189	-0.481887
H105	H	1.219289	0.517415	-0.186246
H106	H	1.229043	0.430554	-0.294695
H107	H	1.313444	0.223932	-0.356265
O108	O	1.512689	-0.299919	0.210354
C109	C	1.524505	-0.449704	0.236231
C110	C	1.515914	-0.366613	0.301557
H111	H	1.527142	-0.503647	0.309942
H112	H	1.438682	-0.453547	0.164502
H113	H	1.614149	-0.453425	0.185884
H114	H	1.426323	-0.362835	0.351975
H115	H	1.601800	-0.362804	0.373218
H116	H	1.466584	0.151036	0.540780
O117	O	1.506049	-0.299791	0.468600
C118	C	1.617848	-0.387461	0.636786
C119	C	1.613016	-0.304414	0.558001
H120	H	1.704337	-0.391233	0.709066
H121	H	1.528847	-0.391253	0.687790
H122	H	1.623976	-0.441409	0.571753
H123	H	1.606930	-0.250419	0.622945
H124	H	1.702015	-0.300694	0.506983
H125	H	1.490979	-0.150991	0.565048
H126	H	0.719424	0.000019	-0.407049
H127	H	0.919572	0.000058	0.254273
H128	H	1.620657	0.223917	-0.049270
H129	H	1.362228	0.617969	-0.307582
H130	H	1.595409	0.485234	-0.074512
H131	H	1.503600	-0.150996	0.089647
