data_functionalizedCrystal
_audit_creation_method	'MofGen! by Chris Wilmer'
_symmetry_space_group_name_H-M	'P1'
_symmetry_Int_Tables_number	1
_symmetry_cell_setting	triclinic
loop_
_symmetry_equiv_pos_as_xyz
  x,y,z
_cell_length_a	9.065218
_cell_length_b	13.101039
_cell_length_c	9.065218
_cell_angle_alpha	93.413922
_cell_angle_beta	85.015919
_cell_angle_gamma	86.590257
loop_
_atom_site_label
_atom_site_type_symbol
_atom_site_fract_x
_atom_site_fract_y
_atom_site_fract_z
O1	O	-1.968414	0.085263	-0.208318
O2	O	-1.539129	0.085253	-0.226065
O3	O	-1.762645	0.085256	-0.002549
O4	O	-1.744898	0.085260	-0.431834
O5	O	-1.746608	-0.085174	-0.018613
O6	O	-1.523092	-0.085177	-0.242129
O7	O	-1.952378	-0.085167	-0.224382
Zn8	Zn	-1.735189	-0.112232	-0.235806
Zn9	Zn	-1.756318	0.112317	-0.214641
O10	O	-1.728862	-0.085170	-0.447898
C11	C	-1.476124	0.000037	-0.232392
C12	C	-1.312280	0.000033	-0.227292
N13	N	-1.720780	-0.265480	-0.250250
C14	C	-1.701175	-0.474523	-0.269914
C15	C	-1.790338	-0.525398	-0.180526
C16	C	-1.779430	-0.641716	-0.191468
C17	C	-1.712081	-0.358194	-0.258974
C18	C	-1.015382	0.000045	-0.218056
C19	C	-1.179225	0.000036	-0.223156
C20	C	-1.752921	0.000043	0.044406
C21	C	-1.747822	0.000047	0.208249
N22	N	-1.770738	0.265566	-0.200186
C23	C	-1.738586	0.000045	-0.494852
C24	C	-1.743686	0.000047	-0.658695
H25	H	-1.874865	-0.481594	-0.095782
H26	H	-1.616655	-0.518321	-0.354655
