data_functionalizedCrystal
_audit_creation_method	'MofGen! by Chris Wilmer'
_symmetry_space_group_name_H-M	'P1'
_symmetry_Int_Tables_number	1
_symmetry_cell_setting	triclinic
loop_
_symmetry_equiv_pos_as_xyz
  x,y,z
_cell_length_a	14.044220
_cell_length_b	9.065218
_cell_length_c	7.540329
_cell_angle_alpha	89.998243
_cell_angle_beta	90.001925
_cell_angle_gamma	89.102381
loop_
_atom_site_label
_atom_site_type_symbol
_atom_site_fract_x
_atom_site_fract_y
_atom_site_fract_z
O1	O	1.260762	0.356074	-0.147280
O2	O	1.594095	0.689408	0.186053
O3	O	1.927428	1.022741	0.519386
O4	O	0.984682	0.343225	-0.147326
O5	O	1.318016	0.676559	0.186008
O6	O	1.651349	1.009892	0.519341
O7	O	1.128428	0.135640	-0.147298
O8	O	1.461762	0.468973	0.186035
O9	O	1.795095	0.802307	0.519368
O10	O	1.117015	0.563660	-0.147308
O11	O	1.450349	0.896993	0.186026
O12	O	1.783682	1.230327	0.519359
O13	O	1.128420	0.135636	0.147667
O14	O	1.461753	0.468969	0.481000
O15	O	1.795086	0.802303	0.814333
O16	O	0.984673	0.343221	0.147639
O17	O	1.318007	0.676555	0.480973
O18	O	1.651340	1.009888	0.814306
O19	O	1.260753	0.356071	0.147685
O20	O	1.594086	0.689404	0.481018
O21	O	1.927420	1.022737	0.814351
Cu22	Cu	1.122712	0.349646	0.174595
Cu23	Cu	1.456046	0.682979	0.507928
Cu24	Cu	1.789379	1.016312	0.841261
Cu25	Cu	1.122723	0.349650	-0.174236
Cu26	Cu	1.456056	0.682984	0.159098
Cu27	Cu	1.789389	1.016317	0.492431
O28	O	1.117007	0.563656	0.147657
O29	O	1.450340	0.896989	0.480991
O30	O	1.783673	1.230323	0.814324
C31	C	1.127327	0.080530	0.000181
C32	C	1.460661	0.413863	0.333514
C33	C	1.793994	0.747196	0.666848
C34	C	1.124048	-0.083677	0.000172
C35	C	1.457381	0.249657	0.333505
C36	C	1.790714	0.582990	0.666839
C37	C	0.949315	0.337599	0.000151
C38	C	1.282648	0.670932	0.333484
C39	C	1.615982	1.004266	0.666818
C40	C	0.843945	0.320822	0.000133
C41	C	1.177279	0.654155	0.333467
C42	C	1.510612	0.987489	0.666800
C43	C	0.651021	0.290150	0.000169
C44	C	0.984354	0.623483	0.333503
C45	C	1.317687	0.956817	0.666836
C46	C	0.594409	0.409139	0.000174
C47	C	0.927742	0.742472	0.333508
C48	C	1.261076	1.075806	0.666841
C49	C	0.487059	0.392073	0.000194
C50	C	0.820392	0.725406	0.333527
C51	C	1.153726	1.058740	0.666861
C52	C	0.758381	0.307214	0.000149
C53	C	1.091714	0.640547	0.333483
C54	C	1.425047	0.973881	0.666816
C55	C	1.296120	0.361697	0.000204
C56	C	1.629453	0.695030	0.333537
C57	C	1.962787	1.028364	0.666871
C58	C	1.401490	0.378474	0.000210
C59	C	1.734823	0.711807	0.333543
C60	C	2.068157	1.045141	0.666877
C61	C	1.118108	0.618766	0.000174
C62	C	1.451441	0.952099	0.333507
C63	C	1.784775	1.285433	0.666841
C64	C	1.121388	0.782972	0.000171
C65	C	1.454721	1.116306	0.333505
C66	C	1.788054	1.449639	0.666838
N67	N	1.122712	0.349642	0.419943
N68	N	1.456045	0.682976	0.753276
N69	N	1.789379	1.016309	1.086610
N70	N	1.122730	0.349643	-0.419584
N71	N	1.456064	0.682976	-0.086251
N72	N	1.789397	1.016309	0.247083
H73	H	0.626565	0.523826	0.000163
H74	H	0.959898	0.857159	0.333497
H75	H	1.293231	1.190493	0.666830
H76	H	0.618867	0.175472	0.000181
H77	H	0.952200	0.508806	0.333515
H78	H	1.285533	0.842139	0.666848
