data_functionalizedCrystal
_audit_creation_method	'MofGen! by Chris Wilmer'
_symmetry_space_group_name_H-M	'P1'
_symmetry_Int_Tables_number	1
_symmetry_cell_setting	triclinic
loop_
_symmetry_equiv_pos_as_xyz
  x,y,z
_cell_length_a	15.944551
_cell_length_b	15.944551
_cell_length_c	15.021413
_cell_angle_alpha	89.996935
_cell_angle_beta	90.002826
_cell_angle_gamma	83.498738
loop_
_atom_site_label
_atom_site_type_symbol
_atom_site_fract_x
_atom_site_fract_y
_atom_site_fract_z
O1	O	-1.114529	-0.108321	-0.073941
O2	O	-0.869979	-0.121677	-0.073964
O3	O	-0.998932	0.007276	-0.073944
O4	O	-0.985576	-0.237274	-0.073961
O5	O	-0.998912	0.007257	0.074121
O6	O	-0.869959	-0.121695	0.074101
O7	O	-1.114508	-0.108339	0.074123
Zn8	Zn	-0.992230	-0.115020	0.097620
Zn9	Zn	-0.992257	-0.114996	-0.097461
O10	O	-0.985555	-0.237292	0.074103
C11	C	-0.838675	-0.121132	0.000066
C12	C	-0.745429	-0.119470	0.000057
C13	C	-1.145813	-0.108885	0.000092
C14	C	-1.239059	-0.110547	0.000094
C15	C	-0.998367	0.038561	0.000089
C16	C	-0.996705	0.131807	0.000089
C17	C	-0.530572	-0.035565	0.000081
C18	C	-0.469562	-0.074518	-0.072926
C19	C	-0.574703	-0.116462	0.000068
C20	C	-0.469564	-0.074556	0.073054
C21	C	-0.409790	-0.113551	0.000083
C22	C	-0.514921	-0.155438	-0.072998
C23	C	-0.514930	-0.155464	0.073047
C24	C	-0.453937	-0.194476	0.000023
C25	C	-0.669705	-0.118137	0.000059
C26	C	-0.314789	-0.111883	0.000085
C27	C	-0.986120	-0.268577	0.000069
C28	C	-0.987782	-0.361823	0.000063
N29	N	-0.992218	-0.115036	0.230758
C30	C	-0.912801	0.346663	0.000069
C31	C	-0.951753	0.407672	0.073077
C32	C	-0.993698	0.302533	0.000082
C33	C	-0.951792	0.407673	-0.072903
C34	C	-0.990787	0.467445	0.000071
C35	C	-1.032672	0.362313	0.073150
C36	C	-1.032700	0.362308	-0.072895
C37	C	-1.071711	0.423298	0.000131
C38	C	-0.995372	0.207530	0.000089
C39	C	-0.989119	0.562446	0.000070
N40	N	-0.992276	-0.114973	-0.230598
C41	C	-0.932581	-0.174636	0.470432
C42	C	-1.008481	-0.190943	0.529772
C43	C	-0.992239	-0.115015	0.412365
C44	C	-0.916360	-0.098727	0.529766
C45	C	-0.992253	-0.114997	0.587789
C46	C	-1.068178	-0.131360	0.470398
C47	C	-0.976006	-0.039111	0.470387
C48	C	-1.051962	-0.055386	0.529701
C49	C	-0.992230	-0.115028	0.311307
C50	C	-0.992271	-0.114984	0.688844
H51	H	-0.563905	0.031573	-0.000005
H52	H	-0.917528	0.427772	0.134794
H53	H	-1.066896	0.342185	-0.134615
H54	H	-1.132368	-0.145206	0.444430
O55	O	-1.112152	0.004766	0.560709
C56	C	-1.111059	0.004562	0.654564
H57	H	-1.046420	-0.024135	0.679007
H58	H	-1.161553	-0.034432	0.680483
C59	C	-1.208366	0.131026	0.659035
C60	C	-1.128972	0.095786	0.689056
H61	H	-1.219419	0.187296	0.680313
H62	H	-1.209105	0.131162	0.595803
H63	H	-1.250435	0.098522	0.680636
H64	H	-1.086904	0.128284	0.667445
H65	H	-1.128226	0.095658	0.752285
H66	H	-0.535052	-0.189659	0.134767
H67	H	-0.845652	0.313356	0.000136
H68	H	-0.962240	0.025051	0.444283
O69	O	-1.073391	0.338314	0.146841
C70	C	-1.074451	0.250017	0.145964
H71	H	-1.020537	0.219826	0.102693
H72	H	-1.137172	0.234267	0.117747
C73	C	-1.129929	0.252706	0.294723
C74	C	-1.063706	0.215624	0.241582
H75	H	-1.123305	0.231490	0.353704
H76	H	-1.129218	0.312194	0.295313
H77	H	-1.182190	0.239577	0.271197
H78	H	-1.011448	0.228761	0.265101
H79	H	-1.064408	0.156137	0.240998
H80	H	-0.449470	-0.040332	0.134773
O81	O	-1.151900	0.462827	0.000341
C82	C	-1.194220	0.439686	0.077405
H83	H	-1.145990	0.417774	0.130955
H84	H	-1.233333	0.386201	0.060687
C85	C	-1.312001	0.543171	0.046058
C86	C	-1.252764	0.516265	0.111833
H87	H	-1.348117	0.590406	0.067294
H88	H	-1.283491	0.558760	-0.005863
H89	H	-1.344587	0.498593	0.032133
H90	H	-1.220173	0.560839	0.125748
H91	H	-1.281270	0.500686	0.163757
H92	H	-0.852184	-0.084959	0.555847
H93	H	-0.917574	0.427758	-0.134630
O94	O	-0.872545	-0.234940	0.439417
C95	C	-0.889983	-0.314854	0.469696
H96	H	-0.959967	-0.312487	0.486336
H97	H	-0.850946	-0.332844	0.531808
C98	C	-0.781270	-0.383947	0.375952
C99	C	-0.867228	-0.381043	0.396382
H100	H	-0.767231	-0.424778	0.330731
H101	H	-0.769519	-0.330108	0.355554
H102	H	-0.748750	-0.398937	0.427718
H103	H	-0.899747	-0.366044	0.344619
H104	H	-0.878984	-0.434882	0.416769
O105	O	-1.024758	-0.267508	0.561006
C106	C	-0.956597	-0.302547	0.613942
H107	H	-0.920412	-0.249913	0.639959
H108	H	-0.912645	-0.348239	0.572190
C109	C	-1.034837	-0.414846	0.661065
C110	C	-0.990399	-0.350199	0.693026
H111	H	-1.055686	-0.444243	0.709846
H112	H	-1.080758	-0.391242	0.625399
H113	H	-0.998203	-0.452913	0.626272
H114	H	-1.027036	-0.312128	0.727809
H115	H	-0.944485	-0.373798	0.728700
H116	H	-0.420779	-0.261683	-0.000023
H117	H	-0.534918	-0.189621	-0.134787
O118	O	-0.445630	-0.033558	-0.146486
C119	C	-0.485049	0.050185	-0.146235
H120	H	-0.503290	0.069670	-0.075191
H121	H	-0.544130	0.054592	-0.189503
C122	C	-0.401257	0.085458	-0.270736
C123	C	-0.423654	0.109391	-0.183478
H124	H	-0.363388	0.121979	-0.293713
H125	H	-0.374701	0.029037	-0.270908
H126	H	-0.450496	0.089130	-0.306782
H127	H	-0.374417	0.105708	-0.147432
H128	H	-0.450201	0.165813	-0.183301
