data_functionalizedCrystal
_audit_creation_method	'MofGen! by Chris Wilmer'
_symmetry_space_group_name_H-M	'P1'
_symmetry_Int_Tables_number	1
_symmetry_cell_setting	triclinic
loop_
_symmetry_equiv_pos_as_xyz
  x,y,z
_cell_length_a	13.185407
_cell_length_b	13.339070
_cell_length_c	15.455313
_cell_angle_alpha	93.394339
_cell_angle_beta	88.232705
_cell_angle_gamma	83.801389
loop_
_atom_site_label
_atom_site_type_symbol
_atom_site_fract_x
_atom_site_fract_y
_atom_site_fract_z
O1	O	1.376473	-0.248775	-0.072111
O2	O	1.087641	-0.154038	-0.072116
O3	O	1.198908	-0.339645	-0.072111
O4	O	1.265206	-0.063168	-0.072115
O5	O	1.192535	-0.329065	0.072151
O6	O	1.081268	-0.143458	0.072146
O7	O	1.370100	-0.238195	0.072151
Cu8	Cu	1.225102	-0.189861	0.085321
Cu9	Cu	1.232639	-0.202373	-0.085285
O10	O	1.258833	-0.052588	0.072147
C11	C	1.046732	-0.139144	0.000015
C12	C	0.934328	-0.110537	0.000013
C13	C	0.562465	-0.383551	0.000020
C14	C	0.668074	-0.410431	0.000028
C15	C	0.734642	-0.335460	0.000024
C16	C	0.695592	-0.233604	0.000013
C17	C	0.589972	-0.206721	0.000012
C18	C	0.762150	-0.158630	0.000015
C19	C	0.723099	-0.056774	0.000004
C20	C	0.617490	-0.029896	0.000003
C21	C	0.550921	-0.104867	0.000007
C22	C	0.867769	-0.185513	0.000016
C23	C	0.895276	-0.008683	0.000008
C24	C	0.789668	0.018197	0.000000
C25	C	1.184523	-0.368996	0.000018
C26	C	1.151142	-0.472210	0.000014
C27	C	1.410697	-0.907667	0.000019
C28	C	1.442063	-0.810693	0.000028
C29	C	1.369335	-0.726068	0.000024
C30	C	1.265236	-0.738425	0.000012
C31	C	1.233867	-0.835408	0.000011
C32	C	1.192505	-0.653809	0.000016
C33	C	1.088406	-0.666166	0.000004
C34	C	1.057042	-0.763140	0.000001
C35	C	1.129770	-0.847766	0.000005
C36	C	1.223875	-0.556826	0.000017
C37	C	1.047045	-0.484567	0.000009
C38	C	1.015679	-0.581541	-0.000000
C39	C	1.411009	-0.253090	0.000019
C40	C	1.523414	-0.281697	0.000015
C41	C	1.273218	-0.023238	0.000015
C42	C	1.306600	0.079976	0.000014
N43	N	1.219808	-0.181063	0.205316
N44	N	1.237939	-0.211180	-0.205281
C45	C	1.267108	-0.259899	0.250712
C46	C	1.263117	-0.253240	0.341520
C47	C	1.211831	-0.167740	0.386930
C48	C	1.164525	-0.088899	0.341528
C49	C	1.168511	-0.095563	0.250722
C50	C	1.194619	-0.139003	0.658511
C51	C	1.190639	-0.132344	0.749323
C52	C	1.289229	-0.296686	0.749309
C53	C	1.293216	-0.303339	0.658502
C54	C	1.245905	-0.224501	0.613107
N55	N	1.207752	-0.160929	0.479750
N56	N	1.249978	-0.231315	0.520289
H57	H	0.464925	-0.082987	-0.000003
H58	H	0.757857	0.101129	-0.000008
H59	H	0.508256	-0.444579	0.000048
H60	H	0.930919	-0.591617	-0.000009
C61	C	1.403837	-0.619400	0.000023
H62	H	1.476250	-0.624160	0.000021
H63	H	1.376054	-0.580420	0.050324
H64	H	1.380509	-0.587816	-0.050297
H65	H	1.156099	-0.074808	0.621558
H66	H	0.987823	-0.415663	0.000010
C67	C	0.968486	0.073793	0.000003
H68	H	0.930104	0.138304	0.000009
H69	H	1.012481	0.063292	-0.050304
H70	H	1.008034	0.070670	0.050317
H71	H	1.308876	-0.329519	0.213745
C72	C	1.116486	-0.008840	0.200786
H73	H	1.085379	0.043039	0.240834
H74	H	1.065925	-0.033666	0.165374
H75	H	1.166066	0.017621	0.165352
C76	C	0.574535	0.082142	-0.000002
H77	H	0.629304	0.122942	-0.000012
H78	H	0.531685	0.099996	0.050304
H79	H	0.536131	0.092609	-0.050317
C80	C	1.315159	-0.339954	0.391452
H81	H	1.346287	-0.391821	0.351402
H82	H	1.265595	-0.366423	0.426889
H83	H	1.365723	-0.315113	0.426861
C84	C	1.556559	-0.797097	0.000044
H85	H	1.564825	-0.727221	0.000056
H86	H	1.589980	-0.831522	-0.050259
H87	H	1.585511	-0.824148	0.050362
H88	H	1.122761	-0.019285	0.378506
H89	H	0.699861	-0.493361	0.000040
C90	C	1.349623	-0.397393	0.608557
H91	H	1.377214	-0.443397	0.648599
H92	H	1.403293	-0.377768	0.573119
H93	H	1.303150	-0.429051	0.573147
C94	C	0.942537	-0.776732	-0.000005
H95	H	0.903715	-0.712447	-0.000014
H96	H	0.924399	-0.809374	0.050301
H97	H	0.928853	-0.816749	-0.050320
H98	H	1.308633	-0.546776	0.000027
H99	H	1.148874	-0.062715	0.786292
C100	C	1.341256	-0.383409	0.799241
H101	H	1.372374	-0.435280	0.759190
H102	H	1.291682	-0.409867	0.834675
H103	H	1.391825	-0.358583	0.834652
C104	C	0.910719	-0.297544	0.000022
H105	H	0.983152	-0.302822	0.000029
H106	H	0.889978	-0.333157	-0.050282
H107	H	0.885536	-0.325770	0.050339
H108	H	0.820633	-0.357352	0.000029
H109	H	1.469900	-0.976573	0.000029
H110	H	1.104236	-0.926733	-0.000005
