data_functionalizedCrystal
_audit_creation_method	'MofGen! by Chris Wilmer'
_symmetry_space_group_name_H-M	'P1'
_symmetry_Int_Tables_number	1
_symmetry_cell_setting	triclinic
loop_
_symmetry_equiv_pos_as_xyz
  x,y,z
_cell_length_a	15.995350
_cell_length_b	15.995343
_cell_length_c	14.185197
_cell_angle_alpha	75.226476
_cell_angle_beta	75.223458
_cell_angle_gamma	83.490780
loop_
_atom_site_label
_atom_site_type_symbol
_atom_site_fract_x
_atom_site_fract_y
_atom_site_fract_z
O1	O	1.094050	0.090987	0.083346
O2	O	1.594050	0.590987	0.583346
O3	O	0.850270	0.104310	0.083368
O4	O	1.350270	0.604310	0.583368
O5	O	0.978831	-0.024236	0.083338
O6	O	1.478831	0.475764	0.583338
O7	O	0.965489	0.219533	0.083376
O8	O	1.465489	0.719533	0.583376
O9	O	1.012715	0.009671	-0.083503
O10	O	1.512715	0.509671	0.416497
O11	O	0.884154	0.138216	-0.083473
O12	O	1.384154	0.638216	0.416527
O13	O	1.127934	0.124893	-0.083495
O14	O	1.627934	0.624893	0.416505
Cu15	Cu	1.009138	0.134651	-0.098718
Cu16	Cu	1.509138	0.634651	0.401282
Cu17	Cu	0.969066	0.094553	0.098591
Cu18	Cu	1.469066	0.594553	0.598591
O19	O	0.999373	0.253439	-0.083465
O20	O	1.499373	0.753439	0.416535
C21	C	0.836017	0.120712	-0.000050
C22	C	1.336017	0.620712	0.499950
C23	C	0.743065	0.119058	-0.000042
C24	C	1.243065	0.619058	0.499958
C25	C	0.995224	-0.038477	-0.000085
C26	C	1.495224	0.461523	0.499915
C27	C	0.993576	-0.131426	-0.000093
C28	C	1.493576	0.368574	0.499907
C29	C	0.990578	-0.301617	-0.000070
C30	C	1.490578	0.198383	0.499930
C31	C	0.897778	-0.324965	-0.000059
C32	C	1.397778	0.175035	0.499941
C33	C	0.895953	-0.421722	0.000331
C34	C	1.395953	0.078278	0.500331
C35	C	0.987625	-0.469181	-0.000048
C36	C	1.487625	0.030819	0.499952
C37	C	1.014975	-0.459405	0.095031
C38	C	1.514975	0.040595	0.595031
C39	C	1.016062	-0.362626	0.095099
C40	C	1.516062	0.137374	0.595099
C41	C	1.055954	-0.324171	-0.094637
C42	C	1.555954	0.175829	0.405363
C43	C	1.052780	-0.420415	-0.095876
C44	C	1.552780	0.079585	0.404124
C45	C	0.985960	-0.563883	-0.000033
C46	C	1.485960	-0.063883	0.499967
C47	C	0.992244	-0.206917	-0.000079
C48	C	1.492244	0.293083	0.499921
C49	C	0.405322	0.113131	-0.000064
C50	C	0.905322	0.613131	0.499936
C51	C	0.452837	0.021657	-0.000451
C52	C	0.952837	0.521657	0.499549
C53	C	0.549449	0.023231	-0.000067
C54	C	1.049449	0.523231	0.499933
C55	C	0.572880	0.116071	-0.000054
C56	C	1.072880	0.616071	0.499946
C57	C	0.512442	0.141865	0.095224
C58	C	1.012442	0.641865	0.595224
C59	C	0.415791	0.139550	0.095296
C60	C	0.915791	0.639550	0.595296
C61	C	0.453985	0.180000	-0.094433
C62	C	0.953985	0.680000	0.405567
C63	C	0.551185	0.180232	-0.095685
C64	C	1.051185	0.680232	0.404315
C65	C	0.667576	0.117737	-0.000045
C66	C	1.167576	0.617737	0.499955
C67	C	0.310625	0.111466	-0.000067
C68	C	0.810625	0.611466	0.499933
C69	C	1.142187	0.108491	-0.000075
C70	C	1.642187	0.608491	0.499925
C71	C	1.235137	0.110143	-0.000076
C72	C	1.735137	0.610143	0.499924
C73	C	0.982980	0.267680	-0.000039
C74	C	1.482980	0.767680	0.499961
C75	C	0.984626	0.360628	-0.000025
C76	C	1.484626	0.860628	0.499975
N77	N	1.037328	0.162853	-0.237495
N78	N	1.537328	0.662853	0.262505
C79	C	0.858111	-0.016490	-0.605109
C80	C	1.358111	0.483510	-0.105109
C81	C	0.879454	0.004867	-0.710135
C82	C	1.379454	0.504867	-0.210135
C83	C	0.980996	0.106485	-0.710116
C84	C	1.480996	0.606485	-0.210116
C85	C	0.959664	0.085133	-0.605088
C86	C	1.459664	0.585133	-0.105088
C87	C	0.898221	0.023646	-0.552593
C88	C	1.398221	0.523646	-0.052593
C89	C	0.999774	0.125270	-0.552572
C90	C	1.499774	0.625270	-0.052572
C91	C	0.978441	0.103923	-0.447553
C92	C	1.478441	0.603923	0.052447
C93	C	0.916998	0.042440	-0.395050
C94	C	1.416998	0.542440	0.104950
C95	C	0.876888	0.002299	-0.447574
C96	C	1.376888	0.502299	0.052426
C97	C	1.061213	0.186761	-0.605069
C98	C	1.561213	0.686761	-0.105069
C99	C	1.101323	0.226897	-0.552553
C100	C	1.601323	0.726897	-0.052553
C101	C	1.079994	0.205546	-0.447532
C102	C	1.579994	0.705546	0.052468
C103	C	1.018552	0.144063	-0.395030
C104	C	1.518552	0.644063	0.104970
C105	C	1.120105	0.245687	-0.395009
C106	C	1.620105	0.745687	0.104991
C107	C	1.098772	0.224340	-0.289990
C108	C	1.598772	0.724340	0.210010
C109	C	0.997219	0.122717	-0.290011
C110	C	1.497219	0.622717	0.209989
N111	N	0.940882	0.066344	0.237368
N112	N	1.440882	0.566344	0.737368
H113	H	0.873258	-0.426899	-0.067806
H114	H	1.373258	0.073101	0.432194
N115	N	1.146677	-0.305346	-0.095877
N116	N	1.646677	0.194654	0.404123
H117	H	1.188394	-0.319959	-0.156793
H118	H	1.688394	0.180041	0.343207
H119	H	1.163235	-0.341516	-0.033129
H120	H	1.663235	0.158484	0.466871
N121	N	0.606324	0.155546	-0.189058
N122	N	1.106324	0.655546	0.310942
H123	H	0.642959	0.205321	-0.231355
H124	H	1.142959	0.705321	0.268645
H125	H	0.567702	0.141742	-0.228789
H126	H	1.067702	0.641742	0.271211
H127	H	1.081723	-0.491914	0.098294
H128	H	1.581723	0.008086	0.598294
H129	H	0.826859	-0.047774	-0.404829
H130	H	1.326859	0.452226	0.095171
H131	H	0.845678	-0.454088	0.068897
H132	H	1.345678	0.045912	0.568897
H133	H	1.120842	-0.452137	-0.101909
H134	H	1.620842	0.047863	0.398091
N135	N	1.186364	0.312012	-0.451633
N136	N	1.686364	0.812012	0.048367
H137	H	1.193788	0.319448	-0.526131
H138	H	1.693788	0.819448	-0.026131
H139	H	1.243533	0.291776	-0.433288
H140	H	1.743533	0.791776	0.066712
N141	N	0.868468	-0.269531	-0.090365
N142	N	1.368468	0.230469	0.409635
H143	H	0.915055	-0.228741	-0.132161
H144	H	1.415055	0.271259	0.367839
H145	H	0.813526	-0.234972	-0.067347
H146	H	1.313526	0.265028	0.432653
N147	N	0.530946	0.081225	0.189134
N148	N	1.030946	0.581225	0.689134
H149	H	0.476823	0.050645	0.229989
H150	H	0.976823	0.550645	0.729989
H151	H	0.550010	0.115435	0.230078
H152	H	1.050010	0.615435	0.730078
N153	N	1.167594	0.293208	-0.609184
N154	N	1.667594	0.793208	-0.109184
H155	H	1.224800	0.273007	-0.590913
H156	H	1.724800	0.773007	-0.090913
H157	H	1.147290	0.350381	-0.590874
H158	H	1.647290	0.850381	-0.090874
N159	N	1.047266	0.172801	-0.766732
N160	N	1.547266	0.672801	-0.266732
H161	H	1.019662	0.222621	-0.810294
H162	H	1.519662	0.722621	-0.310294
H163	H	1.097081	0.145156	-0.810255
H164	H	1.597081	0.645156	-0.310255
H165	H	0.969635	-0.350335	0.166449
H166	H	1.469635	0.149665	0.666449
H167	H	1.083291	-0.348875	0.099145
H168	H	1.583291	0.151125	0.599145
H169	H	0.808082	-0.066563	-0.562364
H170	H	1.308082	0.433437	-0.062364
H171	H	0.567715	0.249104	-0.101430
H172	H	1.067715	0.749104	0.398570
H173	H	1.131430	0.257027	-0.247230
H174	H	1.631430	0.757027	0.252770
N175	N	0.446227	0.159800	-0.190102
N176	N	0.946227	0.659800	0.309898
H177	H	0.383132	0.162580	-0.191446
H178	H	0.883132	0.662580	0.308554
H179	H	0.472486	0.099803	-0.193197
H180	H	0.972486	0.599803	0.306803
H181	H	1.041318	-0.281256	-0.166730
H182	H	1.541318	0.218744	0.333270
H183	H	0.968533	-0.493926	0.166066
H184	H	1.468533	0.006074	0.666066
N185	N	0.832588	-0.304908	0.090133
N186	N	1.332588	0.195092	0.590133
H187	H	0.862906	-0.280762	0.130984
H188	H	1.362906	0.219238	0.630984
H189	H	0.804107	-0.359684	0.132679
H190	H	1.304107	0.140316	0.632679
H191	H	0.422350	0.247629	-0.095068
H192	H	0.922350	0.747629	0.404932
N193	N	0.408621	-0.044900	0.089532
N194	N	0.908621	0.455100	0.589532
H195	H	0.387253	-0.091423	0.066259
H196	H	0.887253	0.408577	0.566259
H197	H	0.357973	-0.015994	0.130518
H198	H	0.857973	0.484006	0.630518
H199	H	1.033087	-0.424685	-0.166217
H200	H	1.533087	0.075315	0.333783
H201	H	0.899626	0.025065	-0.309537
H202	H	1.399626	0.525065	0.190463
N203	N	1.084191	0.209909	-0.718339
N204	N	1.584191	0.709909	-0.218339
H205	H	1.030647	0.233817	-0.743567
H206	H	1.530647	0.733817	-0.243567
H207	H	1.108158	0.156444	-0.743704
H208	H	1.608158	0.656444	-0.243704
N209	N	0.930958	0.056387	-0.233379
N210	N	1.430958	0.556387	0.266621
H211	H	0.873746	0.076571	-0.251641
H212	H	1.373746	0.576571	0.248359
H213	H	0.923611	0.048986	-0.158901
H214	H	1.423611	0.548986	0.341099
N215	N	0.836192	-0.038418	-0.766790
N216	N	1.336192	0.461582	-0.266790
H217	H	0.771561	-0.025647	-0.748508
H218	H	1.271561	0.474353	-0.248508
H219	H	0.849063	-0.103029	-0.748512
H220	H	1.349063	0.396971	-0.248512
N221	N	0.605479	-0.005401	-0.090539
N222	N	1.105479	0.494599	0.409461
H223	H	0.591711	-0.066115	-0.088073
H224	H	1.091711	0.433885	0.411927
H225	H	0.668468	-0.004380	-0.090417
H226	H	1.168468	0.495620	0.409583
N227	N	0.446693	-0.008426	-0.090962
N228	N	0.946693	0.491574	0.409038
H229	H	0.413047	0.036945	-0.132595
H230	H	0.913047	0.536945	0.367405
H231	H	0.416125	-0.064538	-0.068162
H232	H	0.916125	0.435462	0.431838
N233	N	0.567949	-0.042519	0.090547
N234	N	1.067949	0.457481	0.590547
H235	H	0.530189	-0.027743	0.153581
H236	H	1.030189	0.472257	0.653581
H237	H	0.630872	-0.041746	0.091085
H238	H	1.130872	0.458254	0.591085
N239	N	0.372382	0.076750	0.189614
N240	N	0.872382	0.576750	0.689614
H241	H	0.309292	0.074618	0.190603
H242	H	0.809292	0.574618	0.690603
H243	H	0.377234	0.096406	0.250169
H244	H	0.877234	0.596406	0.750169
N245	N	0.371883	0.227411	0.101014
N246	N	0.871883	0.727411	0.601014
H247	H	0.400850	0.272560	0.041126
H248	H	0.900850	0.772560	0.541126
H249	H	0.376568	0.241884	0.164684
H250	H	0.876568	0.741884	0.664684
N251	N	0.530195	0.231252	0.099949
N252	N	1.030195	0.731252	0.599949
H253	H	0.577701	0.255946	0.040229
H254	H	1.077701	0.755946	0.540229
H255	H	0.548874	0.227554	0.163807
H256	H	1.048874	0.727554	0.663807
