data_functionalizedCrystal
_audit_creation_method	'MofGen! by Chris Wilmer'
_symmetry_space_group_name_H-M	'P1'
_symmetry_Int_Tables_number	1
_symmetry_cell_setting	triclinic
loop_
_symmetry_equiv_pos_as_xyz
  x,y,z
_cell_length_a	13.635800
_cell_length_b	17.253917
_cell_length_c	9.582880
_cell_angle_alpha	83.284586
_cell_angle_beta	111.207034
_cell_angle_gamma	77.340689
loop_
_atom_site_label
_atom_site_type_symbol
_atom_site_fract_x
_atom_site_fract_y
_atom_site_fract_z
V1	V	2.060133	-0.110944	0.480761
O2	O	2.051100	0.005681	0.456994
O3	O	2.037399	-0.220320	0.491528
O4	O	2.055490	-0.109085	0.684024
O5	O	2.032884	-0.106325	0.263166
V6	V	2.299223	-0.097013	0.453027
O7	O	2.196623	-0.141504	0.541596
O8	O	2.387832	-0.066453	0.392191
O9	O	2.210354	0.012363	0.442259
O10	O	2.366955	-0.213638	0.476793
O11	O	2.385171	-0.101632	0.670622
O12	O	2.192264	-0.098873	0.249763
V13	V	2.560133	-0.110944	0.480761
O14	O	2.551100	0.005681	0.456994
O15	O	2.537399	-0.220320	0.491528
O16	O	2.555490	-0.109085	0.684024
O17	O	2.532884	-0.106325	0.263166
V18	V	2.799223	-0.097013	0.453027
O19	O	2.696623	-0.141504	0.541596
O20	O	2.887832	-0.066453	0.392191
O21	O	2.710354	0.012363	0.442259
O22	O	2.866955	-0.213638	0.476793
O23	O	2.885171	-0.101632	0.670622
O24	O	2.692264	-0.098873	0.249763
C25	C	1.959624	-0.246988	0.487571
C26	C	1.981810	-0.336403	0.497730
C27	C	1.958729	-0.367024	0.364003
C28	C	1.979585	-0.451039	0.373554
C29	C	2.023515	-0.504433	0.516831
C30	C	2.046600	-0.473807	0.650568
C31	C	2.025751	-0.389793	0.641017
C32	C	2.089470	-0.756920	0.560249
C33	C	2.110315	-0.840939	0.569790
C34	C	2.043301	-0.818165	0.292775
C35	C	2.022448	-0.734150	0.283236
C36	C	2.045540	-0.703532	0.416973
N37	N	2.044832	-0.590310	0.526597
N38	N	2.024231	-0.617656	0.407207
C39	C	1.982699	-0.105095	0.733116
C40	C	2.019554	-0.104299	0.899378
C41	C	2.119800	0.039027	0.446213
C42	C	2.087235	0.128441	0.436064
C43	C	2.096725	-0.102864	0.200663
C44	C	2.049489	-0.103657	0.034400
C45	C	2.459624	-0.246988	0.487571
C46	C	2.481810	-0.336403	0.497730
C47	C	2.482699	-0.105095	0.733116
C48	C	2.519554	-0.104299	0.899378
C49	C	2.619800	0.039027	0.446213
C50	C	2.587235	0.128441	0.436064
C51	C	2.596725	-0.102864	0.200663
C52	C	2.549489	-0.103657	0.034400
C53	C	2.584082	-0.382489	0.510500
C54	C	2.604948	-0.466506	0.520069
C55	C	2.523537	-0.504435	0.516856
C56	C	2.421257	-0.458343	0.504088
C57	C	2.400395	-0.374329	0.494531
C58	C	2.657456	0.174526	0.423298
C59	C	2.626863	0.258543	0.413737
C60	C	2.526051	0.296472	0.416953
C61	C	2.455824	0.250380	0.429716
C62	C	2.486414	0.166366	0.439266
H63	H	1.922949	-0.323555	0.247330
O64	O	2.715263	-0.516203	0.533816
H65	H	2.716109	-0.580999	0.539939
H66	H	2.650382	-0.351618	0.513109
O67	O	2.333458	-0.499260	0.500631
H68	H	2.313523	-0.528827	0.401036
H69	H	2.501156	0.364882	0.409175
O70	O	1.954677	-0.484068	0.229321
H71	H	1.920609	-0.432825	0.128086
H72	H	2.739547	0.143656	0.420678
H73	H	2.082377	-0.517287	0.767229
H74	H	2.684060	0.296059	0.403347
H75	H	2.373740	0.281275	0.432332
H76	H	2.540538	-0.572846	0.524639
O77	O	2.290080	-0.324622	0.480746
H78	H	2.225003	-0.330282	0.375181
O79	O	2.410680	0.116659	0.453069
H80	H	2.335451	0.157153	0.453721
H81	H	2.146085	-0.884411	0.686470
H82	H	2.024504	-0.843104	0.183894
O83	O	1.975040	-0.676569	0.128688
H84	H	2.031635	-0.690281	0.070056
O85	O	2.114359	-0.723899	0.704485
H86	H	2.148394	-0.775143	0.805713
H87	H	2.044557	-0.364865	0.749912
