data_functionalizedCrystal
_audit_creation_method	'MofGen! by Chris Wilmer'
_symmetry_space_group_name_H-M	'P1'
_symmetry_Int_Tables_number	1
_symmetry_cell_setting	triclinic
loop_
_symmetry_equiv_pos_as_xyz
  x,y,z
_cell_length_a	16.974800
_cell_length_b	15.944493
_cell_length_c	15.455313
_cell_angle_alpha	92.670512
_cell_angle_beta	90.973911
_cell_angle_gamma	83.432052
loop_
_atom_site_label
_atom_site_type_symbol
_atom_site_fract_x
_atom_site_fract_y
_atom_site_fract_z
O1	O	1.049059	0.107079	0.001549
O2	O	0.819624	0.119907	-0.014563
O3	O	0.940631	-0.008771	-0.006073
O4	O	0.928052	0.235757	-0.006942
O5	O	0.933711	-0.001443	0.137704
O6	O	0.812704	0.127235	0.129214
O7	O	1.042139	0.114407	0.145326
Cu8	Cu	0.926790	0.121490	0.150397
Cu9	Cu	0.934973	0.112824	-0.019635
O10	O	0.921132	0.243085	0.136835
C11	C	0.786805	0.122949	0.055263
C12	C	0.699324	0.121085	0.049119
C13	C	0.654458	0.124201	0.124607
C14	C	0.572261	0.122437	0.118837
C15	C	0.534932	0.117561	0.037578
C16	C	0.579804	0.114442	-0.037916
C17	C	0.662000	0.116200	-0.032145
C18	C	0.289508	0.111867	0.011913
C19	C	0.207306	0.110112	0.006147
C20	C	0.199769	0.118105	0.162901
C21	C	0.281966	0.119869	0.168665
C22	C	0.326832	0.116744	0.093172
N23	N	0.450913	0.115760	0.031677
N24	N	0.410849	0.118540	0.099073
C25	C	0.936657	-0.036404	0.065776
C26	C	0.935116	-0.129656	0.065657
C27	C	1.006343	-0.365251	0.070675
C28	C	0.971344	-0.419521	-0.002911
C29	C	0.932260	-0.300383	0.065467
C30	C	0.964505	-0.412272	0.138840
C31	C	0.929506	-0.465299	0.065287
C32	C	0.897284	-0.353428	-0.008177
C33	C	0.890453	-0.346172	0.133639
C34	C	0.855401	-0.400410	0.060032
C35	C	0.933849	-0.205380	0.065569
C36	C	0.927912	-0.560299	0.065178
C37	C	1.074958	0.111365	0.075497
C38	C	1.162440	0.113228	0.081636
C39	C	0.925106	0.270717	0.064985
C40	C	0.926647	0.363969	0.065098
N41	N	0.921040	0.127585	0.269990
N42	N	0.940729	0.106722	-0.139227
C43	C	0.972466	0.072938	0.318992
C44	C	0.968124	0.077555	0.409495
C45	C	0.912361	0.136823	0.450995
C46	C	0.860930	0.191472	0.401986
C47	C	0.865268	0.186851	0.311484
C48	C	0.893636	0.156750	0.721262
C49	C	0.889304	0.161369	0.811771
C50	C	0.996498	0.047450	0.819274
C51	C	1.000834	0.042837	0.728771
C52	C	0.949401	0.097483	0.679769
N53	N	0.907924	0.141546	0.543504
N54	N	0.953834	0.092756	0.587262
H55	H	0.312354	0.123835	0.234836
C56	C	0.799587	0.256670	0.447630
C57	C	0.794849	0.261801	0.547181
C58	C	0.733507	0.327002	0.592822
C59	C	0.676904	0.387073	0.538913
C60	C	0.681640	0.381944	0.439356
C61	C	0.742982	0.316743	0.393715
H62	H	0.836752	0.217331	0.587093
H63	H	0.730001	0.330799	0.666521
H64	H	0.631495	0.435339	0.572699
H65	H	0.639737	0.426414	0.399444
H66	H	0.746488	0.312946	0.320016
H67	H	1.046242	-0.005424	0.694984
H68	H	0.549405	0.110466	-0.104079
C69	C	0.338859	0.108431	-0.071124
C70	C	0.387450	0.181405	-0.089342
C71	C	0.436808	0.177965	-0.172382
C72	C	0.437576	0.101550	-0.237203
C73	C	0.388984	0.028570	-0.218987
C74	C	0.339625	0.032010	-0.135947
H75	H	0.386883	0.237976	-0.041356
H76	H	0.472779	0.231990	-0.185866
H77	H	0.474114	0.099004	-0.298674
H78	H	0.389550	-0.028001	-0.266973
H79	H	0.303654	-0.022014	-0.122463
C80	C	1.053067	-0.012665	0.873175
C81	C	1.114404	-0.077859	0.827527
C82	C	1.170974	-0.137980	0.881427
C83	C	1.166207	-0.132906	0.980975
C84	C	1.104868	-0.067709	1.026630
C85	C	1.048298	-0.007588	0.972730
H86	H	1.117935	-0.081618	0.753830
H87	H	1.216381	-0.186243	0.847630
H88	H	1.208084	-0.177411	1.020875
H89	H	1.101338	-0.063950	1.100327
H90	H	1.002891	0.040675	1.006527
H91	H	1.070159	-0.349479	0.075085
H92	H	0.684844	0.128178	0.190778
C93	C	0.522913	0.125863	0.201879
C94	C	0.522138	0.202275	0.266705
C95	C	0.472793	0.205697	0.349752
C96	C	0.424222	0.132707	0.367974
C97	C	0.424995	0.056290	0.303146
C98	C	0.474341	0.052868	0.220099
H99	H	0.558094	0.256311	0.253218
H100	H	0.472221	0.262266	0.397742
H101	H	0.387694	0.135240	0.429451
H102	H	0.389039	0.002254	0.316633
H103	H	0.474913	-0.003702	0.172109
H104	H	0.698529	0.113664	-0.093616
C105	C	1.002886	-0.447126	0.222774
C106	C	1.036370	-0.386831	0.291066
C107	C	1.074758	-0.421683	0.374995
C108	C	1.079660	-0.516829	0.390632
C109	C	1.046174	-0.577130	0.322337
C110	C	1.007787	-0.542278	0.238408
H111	H	1.032742	-0.316393	0.279493
H112	H	1.099546	-0.377045	0.425551
H113	H	1.108077	-0.542629	0.452761
H114	H	1.049802	-0.647568	0.333911
H115	H	0.982999	-0.586916	0.187852
C116	C	0.166246	0.104744	-0.083246
C117	C	0.101816	0.175312	-0.109400
C118	C	0.060757	0.169947	-0.198788
C119	C	0.084128	0.094014	-0.262023
C120	C	0.148561	0.023440	-0.235870
C121	C	0.189620	0.028805	-0.146482
H122	H	0.084513	0.231527	-0.062589
H123	H	0.013060	0.222191	-0.218148
H124	H	0.053733	0.090042	-0.328194
H125	H	0.165864	-0.032775	-0.282681
H126	H	0.237317	-0.023439	-0.127122
H127	H	1.005515	-0.451449	-0.060646
C128	C	0.844329	-0.303008	0.211639
C129	C	0.771444	-0.238177	0.196839
C130	C	0.725329	-0.195009	0.274848
C131	C	0.752099	-0.216673	0.367657
C132	C	0.824988	-0.281507	0.382461
C133	C	0.871103	-0.324675	0.304452
H134	H	0.751624	-0.222137	0.128133
H135	H	0.671372	-0.147015	0.263888
H136	H	0.717961	-0.184718	0.425404
H137	H	0.844807	-0.297547	0.451167
H138	H	0.925060	-0.372669	0.315412
H139	H	0.851758	0.201246	0.681372
C140	C	0.827956	0.226567	0.857418
C141	C	0.738818	0.224247	0.838702
C142	C	0.677475	0.289444	0.884348
C143	C	0.705269	0.356960	0.948710
C144	C	0.794410	0.359282	0.967429
C145	C	0.855753	0.294086	0.921783
H146	H	0.718240	0.174266	0.791055
H147	H	0.611486	0.287724	0.870491
H148	H	0.659858	0.405222	0.982500
H149	H	0.814988	0.409264	1.015076
H150	H	0.921742	0.295805	0.935640
H151	H	1.017878	0.024679	0.285210
H152	H	1.009999	0.033057	0.449393
C153	C	0.769134	-0.421520	0.053925
C154	C	0.709389	-0.386617	0.124246
C155	C	0.623125	-0.407731	0.118135
C156	C	0.596605	-0.463748	0.041704
C157	C	0.656351	-0.498655	-0.028622
C158	C	0.742615	-0.477540	-0.022512
H159	H	0.729020	-0.345147	0.180830
H160	H	0.578898	-0.381891	0.170196
H161	H	0.532747	-0.479379	0.037180
H162	H	0.636720	-0.540125	-0.085206
H163	H	0.786842	-0.503380	-0.074572
C164	C	0.150416	0.121532	0.245940
C165	C	0.083905	0.194293	0.262906
C166	C	0.034553	0.197716	0.345949
C167	C	0.051711	0.128379	0.412025
C168	C	0.118224	0.055614	0.395060
C169	C	0.167577	0.052190	0.312018
H170	H	0.071201	0.245625	0.213991
H171	H	-0.014685	0.251583	0.358506
H172	H	0.015177	0.130914	0.473498
H173	H	0.130928	0.004282	0.443975
H174	H	0.216815	-0.001676	0.299460
C175	C	0.858953	-0.318733	-0.092201
C176	C	0.853385	-0.223508	-0.107648
C177	C	0.815058	-0.188811	-0.191671
C178	C	0.782299	-0.249340	-0.260248
C179	C	0.787866	-0.344571	-0.244803
C180	C	0.826193	-0.379267	-0.160779
H181	H	0.877636	-0.178695	-0.056881
H182	H	0.810937	-0.118315	-0.203104
H183	H	0.753927	-0.223656	-0.322447
H184	H	0.763615	-0.389383	-0.295569
H185	H	0.830314	-0.449764	-0.149346
H186	H	0.823390	0.231349	0.271586
