data_functionalizedCrystal
_audit_creation_method	'MofGen! by Chris Wilmer'
_symmetry_space_group_name_H-M	'P1'
_symmetry_Int_Tables_number	1
_symmetry_cell_setting	triclinic
loop_
_symmetry_equiv_pos_as_xyz
  x,y,z
_cell_length_a	18.050589
_cell_length_b	18.050591
_cell_length_c	18.050582
_cell_angle_alpha	89.979078
_cell_angle_beta	90.018205
_cell_angle_gamma	89.975773
loop_
_atom_site_label
_atom_site_type_symbol
_atom_site_fract_x
_atom_site_fract_y
_atom_site_fract_z
Zn1	Zn	-0.295786	-1.135293	0.420054
Zn2	Zn	-0.419969	-1.135203	0.295873
Zn3	Zn	-0.295789	-1.011112	0.295865
Zn4	Zn	-0.419930	-1.011060	0.420009
O5	O	-0.357868	-1.073167	0.357950
O6	O	-0.312274	-1.239205	0.403603
O7	O	-0.403514	-1.118727	0.191948
O8	O	-0.191864	-1.027644	0.312354
O9	O	-0.403511	-1.239140	0.312369
O10	O	-0.191862	-1.118879	0.403595
O11	O	-0.312279	-1.027557	0.191942
O12	O	-0.312241	-0.907180	0.312311
O13	O	-0.403444	-1.027555	0.523940
O14	O	-0.403447	-0.907142	0.403519
O15	O	-0.312236	-1.118828	0.523973
O16	O	-0.523888	-1.118676	0.312325
O17	O	-0.523860	-1.027468	0.403527
C18	C	-0.357841	-0.880215	0.357909
C19	C	-0.357847	-0.797669	0.357909
C20	C	-0.550820	-1.073077	0.357938
C21	C	-0.633366	-1.073107	0.357958
C22	C	-0.357835	-1.073196	0.551656
C23	C	-0.357821	-1.073208	0.634202
C24	C	-0.832828	-1.023557	0.407536
C25	C	-0.882261	-1.005459	0.339767
C26	C	-0.784497	-1.073180	0.357967
C27	C	-0.882146	-1.091314	0.425744
C28	C	-0.930482	-1.073249	0.357983
C29	C	-0.832842	-1.055046	0.290162
C30	C	-0.832722	-1.140933	0.376186
C31	C	-0.882133	-1.122861	0.308370
C32	C	-0.700398	-1.073138	0.357959
C33	C	-1.014578	-1.073291	0.357983
C34	C	-0.164163	-1.073277	0.357979
C35	C	-0.081617	-1.073324	0.357991
C36	C	-0.357897	-1.266872	0.357992
C37	C	-0.357909	-1.349418	0.358010
C38	C	-0.308191	-0.598217	0.308425
C39	C	-0.375927	-0.548798	0.290154
C40	C	-0.357869	-0.646539	0.357943
C41	C	-0.290157	-0.548877	0.376212
C42	C	-0.357885	-0.500553	0.357974
C43	C	-0.425641	-0.598206	0.339637
C44	C	-0.339825	-0.598289	0.425726
C45	C	-0.407607	-0.548892	0.407481
C46	C	-0.357859	-0.730637	0.357923
C47	C	-0.357903	-0.416457	0.357994
C48	C	-0.357848	-1.073181	0.164998
C49	C	-0.357652	-1.073312	0.082453
C50	C	-0.407353	-1.023612	0.833635
C51	C	-0.425511	-1.091367	0.883034
C52	C	-0.357765	-1.073245	0.785332
C53	C	-0.339586	-1.005527	0.883014
C54	C	-0.357711	-1.073274	0.931317
C55	C	-0.375958	-1.141036	0.833645
C56	C	-0.290002	-1.055150	0.833620
C57	C	-0.308134	-1.122952	0.882998
C58	C	-0.357797	-1.073227	0.701234
C59	C	-0.357679	-1.073300	1.015414
H60	H	-0.811178	-0.981531	0.449395
C61	C	-0.886161	-1.160420	0.180843
C62	C	-0.911184	-1.179550	0.251729
H63	H	-0.904102	-1.195413	0.145875
H64	H	-0.833545	-1.160417	0.180251
H65	H	-0.903878	-1.112458	0.168324
H66	H	-0.893463	-1.227509	0.264250
H67	H	-0.963812	-1.179561	0.252323
C68	C	-0.521985	-0.601732	0.247963
C69	C	-0.502977	-0.627328	0.318700
H70	H	-0.569730	-0.619708	0.235040
H71	H	-0.486670	-0.619019	0.213005
H72	H	-0.522460	-0.549107	0.247877
H73	H	-0.502497	-0.679953	0.318785
H74	H	-0.538302	-0.610044	0.353667
C75	C	-0.461045	-1.213274	0.761326
C76	C	-0.396783	-1.218385	0.804502
H77	H	-0.473904	-1.261026	0.743338
H78	H	-0.452382	-1.180962	0.720703
H79	H	-0.500433	-1.194378	0.790663
H80	H	-0.357394	-1.237276	0.775164
H81	H	-0.405442	-1.250709	0.845131
C82	C	-0.954336	-0.933192	0.254384
C83	C	-0.911641	-0.928153	0.318964
H84	H	-0.972468	-0.885464	0.241545
H85	H	-0.994860	-0.965704	0.262660
H86	H	-0.924630	-0.951813	0.215147
H87	H	-0.941348	-0.909537	0.358203
H88	H	-0.871111	-0.895630	0.310693
C89	C	-0.828160	-1.237063	0.468038
C90	C	-0.803318	-1.218218	0.397011
H91	H	-0.810001	-1.284774	0.480901
H92	H	-0.880774	-1.237542	0.468638
H93	H	-0.810540	-1.201659	0.502746
H94	H	-0.820943	-1.253619	0.362303
H95	H	-0.750693	-1.217745	0.396406
H96	H	-0.266177	-1.164986	0.904535
H97	H	-0.449673	-0.527370	0.449370
H98	H	-0.324530	-0.620045	0.483019
C99	C	-0.160914	-0.544529	0.345111
C100	C	-0.212846	-0.519626	0.397062
H101	H	-0.113185	-0.526476	0.357982
H102	H	-0.174079	-0.526853	0.297316
H103	H	-0.160252	-0.597151	0.344811
H104	H	-0.213513	-0.467003	0.397357
H105	H	-0.199677	-0.537299	0.444868
H106	H	-0.324232	-0.948246	0.904701
C107	C	-0.988949	-1.112453	0.502129
C108	C	-0.911383	-1.111986	0.503111
H109	H	-1.006995	-1.125206	0.549895
H110	H	-1.005824	-1.147781	0.466986
H111	H	-1.006630	-1.064683	0.488851
H112	H	-0.893701	-1.159758	0.516384
H113	H	-0.894501	-1.076657	0.538266
H114	H	-0.449342	-0.981678	0.811961
H115	H	-0.482794	-1.106690	0.904739
C116	C	-0.217945	-0.970609	0.760490
C117	C	-0.212697	-1.034441	0.804285
H118	H	-0.170221	-0.957822	0.742374
H119	H	-0.236927	-0.930986	0.789438
H120	H	-0.250240	-0.979735	0.719947
H121	H	-0.180407	-1.025312	0.844830
H122	H	-0.193706	-1.074073	0.775335
C123	C	-0.760614	-0.970012	0.217765
C124	C	-0.803736	-1.034282	0.212770
H125	H	-0.742649	-0.957190	0.169987
H126	H	-0.719975	-0.978643	0.250078
H127	H	-0.789978	-0.930611	0.236606
H128	H	-0.774370	-1.073684	0.193934
H129	H	-0.844381	-1.025654	0.180445
C130	C	-0.270628	-0.602474	0.180905
C131	C	-0.251539	-0.627462	0.251837
H132	H	-0.235657	-0.620533	0.145971
H133	H	-0.270556	-0.549858	0.180220
H134	H	-0.318613	-0.620096	0.168417
H135	H	-0.203556	-0.609836	0.264329
H136	H	-0.251603	-0.680089	0.252525
H137	H	-0.391202	-0.527060	0.232844
