data_functionalizedCrystal
_audit_creation_method	'MofGen! by Chris Wilmer'
_symmetry_space_group_name_H-M	'P1'
_symmetry_Int_Tables_number	1
_symmetry_cell_setting	triclinic
loop_
_symmetry_equiv_pos_as_xyz
  x,y,z
_cell_length_a	12.759401
_cell_length_b	17.640280
_cell_length_c	12.759393
_cell_angle_alpha	101.231919
_cell_angle_beta	90.019837
_cell_angle_gamma	78.802151
loop_
_atom_site_label
_atom_site_type_symbol
_atom_site_fract_x
_atom_site_fract_y
_atom_site_fract_z
Zn1	Zn	1.690807	-0.314590	0.509564
Zn2	Zn	1.726231	-0.446786	0.298394
Zn3	Zn	1.515121	-0.314634	0.333887
Zn4	Zn	1.550612	-0.446728	0.474047
O5	O	1.620692	-0.380685	0.403973
O6	O	1.842528	-0.332131	0.481562
O7	O	1.698199	-0.429299	0.156070
O8	O	1.508747	-0.204022	0.386909
O9	O	1.868554	-0.429255	0.326416
O10	O	1.637823	-0.203989	0.515978
O11	O	1.543097	-0.332207	0.182146
O12	O	1.372806	-0.332151	0.352470
O13	O	1.569237	-0.429157	0.625791
O14	O	1.398881	-0.429200	0.455444
O15	O	1.672237	-0.332075	0.651885
O16	O	1.732613	-0.557385	0.291977
O17	O	1.603586	-0.557342	0.421028
C18	C	1.347723	-0.380675	0.403955
C19	C	1.230950	-0.380690	0.403967
C20	C	1.189713	-0.431300	0.457459
C21	C	1.079990	-0.431303	0.457479
C22	C	1.052749	-0.330083	0.350506
C23	C	1.162469	-0.330077	0.350493
C24	C	1.675824	-0.586043	0.348820
C25	C	1.699505	-0.673896	0.325260
C26	C	1.441218	-0.962860	0.583335
C27	C	1.463472	-1.045411	0.561164
C28	C	1.597911	-1.045390	0.426919
C29	C	1.575672	-0.962837	0.449082
C30	C	1.497323	-0.921579	0.527291
C31	C	1.631777	-0.921556	0.393038
C32	C	1.609535	-0.839010	0.415196
C33	C	1.531188	-0.797746	0.493399
C34	C	1.475081	-0.839033	0.549449
C35	C	1.710120	-0.962816	0.314825
C36	C	1.766225	-0.921534	0.258780
C37	C	1.743989	-0.838987	0.280944
C38	C	1.665642	-0.797723	0.359146
C39	C	1.800096	-0.797700	0.224893
C40	C	1.777854	-0.715154	0.247052
C41	C	1.643400	-0.715177	0.381305
C42	C	1.894728	-0.380695	0.403992
C43	C	2.011506	-0.380699	0.404000
C44	C	1.620744	-0.380605	0.678028
C45	C	1.620766	-0.380571	0.794814
C46	C	1.565375	-0.174525	0.459365
C47	C	1.541801	-0.086672	0.482969
C48	C	1.620686	-0.380707	0.131000
C49	C	1.620808	-0.380519	0.014274
C50	C	1.540027	-0.330006	0.863256
C51	C	1.540044	-0.329982	0.972987
C52	C	1.701552	-0.431089	0.945823
C53	C	1.701529	-0.431117	0.836093
H54	H	0.996979	-0.288877	0.306967
H55	H	1.579608	-0.681583	0.444998
C56	C	1.207833	-0.274404	0.291646
H57	H	1.151338	-0.244270	0.259789
H58	H	1.241418	-0.240001	0.341147
H59	H	1.258721	-0.304602	0.237684
C60	C	1.034629	-0.486974	0.516318
H61	H	0.959475	-0.479725	0.508679
H62	H	1.066856	-0.540066	0.486563
H63	H	1.049560	-0.475464	0.590026
H64	H	1.661700	-1.078994	0.363238
C65	C	1.506716	-0.706947	0.517780
H66	H	1.452014	-0.688289	0.572378
H67	H	1.569456	-0.688222	0.541035
H68	H	1.483556	-0.688313	0.454964
H69	H	1.474264	-0.288848	0.829650
H70	H	1.767280	-0.472295	0.780364
H71	H	1.411289	-0.805439	0.613142
C72	C	1.265036	-0.486964	0.516290
H73	H	1.224757	-0.517100	0.548159
H74	H	1.317058	-0.521366	0.466785
H75	H	1.299748	-0.456760	0.570242
C76	C	1.355049	-0.917470	0.669378
H77	H	1.324818	-0.953877	0.699587
H78	H	1.386538	-0.885227	0.723837
H79	H	1.300622	-0.885312	0.637780
C80	C	1.401759	-1.090819	0.622826
H81	H	1.351920	-1.054421	0.672581
H82	H	1.364694	-1.123067	0.573943
H83	H	1.450596	-1.122972	0.660012
C84	C	1.451234	-0.274357	1.048270
H85	H	1.403140	-0.244256	1.007966
H86	H	1.413573	-0.304575	1.082947
H87	H	1.482202	-0.239908	1.100332
C88	C	1.852409	-0.966923	0.172763
H89	H	1.857626	-1.021997	0.167597
H90	H	1.833449	-0.953435	0.105777
H91	H	1.919334	-0.953345	0.191864
C92	C	1.734588	-1.053614	0.290444
H93	H	1.789273	-1.072274	0.235830
H94	H	1.757744	-1.072252	0.353252
H95	H	1.671838	-1.072334	0.267186
C96	C	1.886270	-0.843090	0.138868
H97	H	1.891483	-0.898164	0.133701
H98	H	1.867303	-0.829599	0.071885
H99	H	1.953200	-0.829518	0.157960
H100	H	1.823540	-0.681542	0.201413
H101	H	1.767306	-0.472241	0.979447
