data_functionalizedCrystal
_audit_creation_method	'MofGen! by Chris Wilmer'
_symmetry_space_group_name_H-M	'P1'
_symmetry_Int_Tables_number	1
_symmetry_cell_setting	triclinic
loop_
_symmetry_equiv_pos_as_xyz
  x,y,z
_cell_length_a	15.186229
_cell_length_b	9.065218
_cell_length_c	9.065218
_cell_angle_alpha	85.015885
_cell_angle_beta	89.998095
_cell_angle_gamma	89.996565
loop_
_atom_site_label
_atom_site_type_symbol
_atom_site_fract_x
_atom_site_fract_y
_atom_site_fract_z
O1	O	0.073227	-1.960399	-0.216355
O2	O	0.406560	-1.627066	0.116978
O3	O	0.739894	-1.293733	0.450312
O4	O	0.073228	-1.531114	-0.234101
O5	O	0.406561	-1.197781	0.099232
O6	O	0.739895	-0.864448	0.432565
O7	O	0.073226	-1.754630	-0.010586
O8	O	0.406559	-1.421297	0.322748
O9	O	0.739892	-1.087963	0.656081
O10	O	0.073229	-1.736884	-0.439871
O11	O	0.406563	-1.403550	-0.106537
O12	O	0.739896	-1.070217	0.226796
O13	O	-0.073232	-1.754615	-0.010582
O14	O	0.260102	-1.421282	0.322751
O15	O	0.593435	-1.087948	0.656084
O16	O	-0.073229	-1.531099	-0.234098
O17	O	0.260104	-1.197766	0.099235
O18	O	0.593437	-0.864433	0.432569
O19	O	-0.073230	-1.960384	-0.216352
O20	O	0.260103	-1.627051	0.116982
O21	O	0.593436	-1.293717	0.450315
Zn22	Zn	-0.096483	-1.745739	-0.225224
Zn23	Zn	0.236850	-1.412406	0.108109
Zn24	Zn	0.570184	-1.079073	0.441442
Zn25	Zn	0.096481	-1.745759	-0.225229
Zn26	Zn	0.429814	-1.412426	0.108105
Zn27	Zn	0.763147	-1.079093	0.441438
O28	O	-0.073228	-1.736868	-0.439867
O29	O	0.260105	-1.403535	-0.106534
O30	O	0.593439	-1.070202	0.226800
C31	C	-0.000001	-1.476120	-0.232394
C32	C	0.333333	-1.142787	0.100939
C33	C	0.666666	-0.809454	0.434273
C34	C	-0.000000	-1.312277	-0.227294
C35	C	0.333333	-0.978944	0.106039
C36	C	0.666666	-0.645611	0.439372
N37	N	-0.228176	-1.745736	-0.225220
N38	N	0.105158	-1.412403	0.108113
N39	N	0.438491	-1.079070	0.441446
C40	C	-0.000002	-1.752917	0.044403
C41	C	0.333332	-1.419584	0.377736
C42	C	0.666665	-1.086250	0.711069
C43	C	0.000003	-1.747817	0.208245
C44	C	0.333336	-1.414484	0.541579
C45	C	0.666669	-1.081151	0.874912
C46	C	-0.453900	-1.844744	-0.126282
C47	C	-0.120566	-1.511410	0.207051
C48	C	0.212767	-1.178077	0.540385
C49	C	-0.546089	-1.844748	-0.126278
C50	C	-0.212756	-1.511415	0.207055
C51	C	0.120577	-1.178082	0.540388
C52	C	-0.546096	-1.646756	-0.324164
C53	C	-0.212763	-1.313422	0.009169
C54	C	0.120570	-0.980089	0.342503
C55	C	-0.453908	-1.646745	-0.324159
C56	C	-0.120575	-1.313412	0.009174
C57	C	0.212758	-0.980078	0.342507
C58	C	-0.407812	-1.745747	-0.225220
C59	C	-0.074479	-1.412414	0.108113
C60	C	0.258854	-1.079081	0.441447
C61	C	-0.592190	-1.745763	-0.225221
C62	C	-0.258857	-1.412429	0.108112
C63	C	0.074477	-1.079096	0.441445
C64	C	-0.692146	-1.745767	-0.225218
C65	C	-0.358813	-1.412434	0.108115
C66	C	-0.025480	-1.079100	0.441448
C67	C	-0.307850	-1.745742	-0.225221
C68	C	0.025483	-1.412408	0.108113
C69	C	0.358817	-1.079075	0.441446
N70	N	0.228173	-1.745774	-0.225221
N71	N	0.561507	-1.412440	0.108112
N72	N	0.894840	-1.079107	0.441446
C73	C	0.000000	-2.015378	-0.218059
C74	C	0.333333	-1.682045	0.115275
C75	C	0.666667	-1.348712	0.448608
C76	C	0.000005	-2.179221	-0.223158
C77	C	0.333339	-1.845888	0.110175
C78	C	0.666672	-1.512555	0.443508
C79	C	0.000001	-1.738582	-0.494855
C80	C	0.333334	-1.405248	-0.161522
C81	C	0.666668	-1.071915	0.171811
C82	C	0.000003	-1.743681	-0.658698
C83	C	0.333336	-1.410348	-0.325365
C84	C	0.666669	-1.077015	0.007968
H85	H	-0.416370	-1.925355	-0.045717
H86	H	-0.083037	-1.592022	0.287616
H87	H	0.250296	-1.258689	0.620949
H88	H	-0.583637	-1.566152	-0.404720
H89	H	-0.250304	-1.232819	-0.071387
H90	H	0.083030	-0.899486	0.261946
F91	F	-0.404855	-1.541369	-0.429462
F92	F	-0.071522	-1.208035	-0.096128
F93	F	0.261812	-0.874702	0.237205
H94	H	-0.583611	-1.925358	-0.045712
H95	H	-0.250278	-1.592025	0.287621
H96	H	0.083056	-1.258692	0.620954
