data_functionalizedCrystal
_audit_creation_method	'MofGen! by Chris Wilmer'
_symmetry_space_group_name_H-M	'P1'
_symmetry_Int_Tables_number	1
_symmetry_cell_setting	triclinic
loop_
_symmetry_equiv_pos_as_xyz
  x,y,z
_cell_length_a	11.792254
_cell_length_b	15.944493
_cell_length_c	10.268362
_cell_angle_alpha	90.000590
_cell_angle_beta	89.995475
_cell_angle_gamma	83.836821
loop_
_atom_site_label
_atom_site_type_symbol
_atom_site_fract_x
_atom_site_fract_y
_atom_site_fract_z
O1	O	1.505919	0.115182	-0.108281
O2	O	1.175479	0.127036	-0.108282
O3	O	1.349757	-0.001128	-0.108292
O4	O	1.331641	0.243346	-0.108271
O5	O	1.349742	-0.001133	0.108309
O6	O	1.175464	0.127031	0.108319
O7	O	1.505904	0.115177	0.108320
Cu8	Cu	1.340682	0.121103	0.128097
Cu9	Cu	1.340700	0.121110	-0.128059
O10	O	1.331626	0.243341	0.108330
C11	C	1.133187	0.126287	0.000018
C12	C	1.007193	0.124052	0.000017
C13	C	0.904872	0.122236	0.000011
C14	C	0.776504	0.119965	0.000010
C15	C	1.349009	-0.032429	0.000003
C16	C	1.346789	-0.125687	-0.000014
C17	C	1.449373	-0.360981	0.000011
C18	C	1.394061	-0.411798	-0.106784
C19	C	1.342676	-0.296427	0.000002
C20	C	1.394021	-0.411779	0.106767
C21	C	1.338711	-0.461355	0.000023
C22	C	1.287392	-0.346016	-0.106881
C23	C	1.287368	-0.345994	0.106766
C24	C	1.231977	-0.396778	-0.000055
C25	C	1.344963	-0.201417	-0.000011
C26	C	1.336415	-0.556362	0.000027
C27	C	1.548196	0.115926	0.000017
C28	C	1.674190	0.118161	0.000010
C29	C	1.332374	0.274642	0.000033
C30	C	1.334594	0.367900	0.000041
N31	N	1.340678	0.121098	0.308263
N32	N	1.340713	0.121108	-0.308225
C33	C	1.340694	0.121108	0.573933
C34	C	1.340682	0.121105	0.426095
H35	H	1.541279	-0.344935	-0.000096
O36	O	1.110139	-0.417809	-0.000134
H37	H	1.109298	-0.487351	0.000715
H38	H	1.439127	-0.440536	-0.197072
H39	H	1.242365	-0.317398	-0.197264
O40	O	1.453721	-0.449816	0.226369
H41	H	1.410262	-0.422425	0.314918
O42	O	1.227727	-0.307891	0.226361
H43	H	1.272206	-0.334350	0.314887
