data_functionalizedCrystal
_audit_creation_method	'MofGen! by Chris Wilmer'
_symmetry_space_group_name_H-M	'P1'
_symmetry_Int_Tables_number	1
_symmetry_cell_setting	triclinic
loop_
_symmetry_equiv_pos_as_xyz
  x,y,z
_cell_length_a	23.532355
_cell_length_b	19.188925
_cell_length_c	17.666332
_cell_angle_alpha	89.993867
_cell_angle_beta	89.996463
_cell_angle_gamma	82.985024
loop_
_atom_site_label
_atom_site_type_symbol
_atom_site_fract_x
_atom_site_fract_y
_atom_site_fract_z
O1	O	0.755461	0.084585	-0.062845
O2	O	0.589619	0.096887	-0.062869
O3	O	0.677327	-0.010936	-0.062852
O4	O	0.667753	0.192408	-0.062862
O5	O	0.677312	-0.010942	0.063045
O6	O	0.589604	0.096881	0.063028
O7	O	0.755446	0.084580	0.063052
Cu8	Cu	0.672523	0.090730	0.074535
Cu9	Cu	0.672541	0.090737	-0.074352
O10	O	0.667737	0.192403	0.063035
C11	C	0.677010	-0.036949	0.000096
C12	C	0.676081	-0.114451	0.000094
C13	C	0.568394	0.096577	0.000076
C14	C	0.505174	0.095652	0.000067
C15	C	0.721323	-0.676375	0.000082
C16	C	0.722201	-0.603555	0.000089
C17	C	0.670737	-0.558445	0.000081
C18	C	0.618390	-0.586160	0.000086
C19	C	0.617514	-0.658979	0.000086
N20	N	0.633484	-0.437635	-0.042776
N21	N	0.634320	-0.368461	-0.042779
C22	C	0.673375	-0.339045	0.000081
N23	N	0.711570	-0.381418	0.042933
N24	N	0.710736	-0.450599	0.042932
C25	C	0.671682	-0.479484	0.000081
C26	C	0.726670	-0.232378	0.000089
C27	C	0.727546	-0.159556	0.000101
C28	C	0.623734	-0.142162	0.000090
C29	C	0.622859	-0.214983	0.000086
C30	C	0.674329	-0.260087	0.000082
C31	C	0.113139	0.089840	0.068726
C32	C	0.053738	0.088961	0.068729
O33	O	0.023011	0.088479	0.127092
N34	N	0.024037	0.088528	0.000102
C35	C	0.053741	0.088967	-0.068531
O36	O	0.023024	0.088517	-0.126903
C37	C	0.113142	0.089842	-0.068533
C38	C	0.142839	0.090282	0.000097
C39	C	0.142837	0.090280	0.137351
C40	C	0.202234	0.091160	0.137347
C41	C	0.231933	0.091602	0.068719
C42	C	0.202236	0.091163	0.000094
C43	C	0.142845	0.090276	-0.137166
C44	C	0.202250	0.091150	-0.137162
C45	C	0.231947	0.091590	-0.068532
C46	C	0.291333	0.092485	-0.068537
N47	N	0.321034	0.092918	0.000089
C48	C	0.291334	0.092476	0.068717
C49	C	-0.071004	0.087129	-0.068521
C50	C	-0.130405	0.086260	-0.068520
C51	C	-0.130403	0.086252	0.068740
C52	C	-0.071003	0.087127	0.068738
C53	C	-0.041303	0.087562	0.000105
C54	C	0.416072	0.094327	0.068705
C55	C	0.475474	0.095211	0.068695
C56	C	0.475468	0.095214	-0.068564
C57	C	0.416071	0.094334	-0.068555
C58	C	0.386375	0.093888	0.000086
O59	O	0.322097	0.092964	-0.126871
O60	O	0.322060	0.092917	0.127079
C61	C	0.776670	0.084890	0.000105
C62	C	0.839891	0.085814	0.000109
C63	C	0.668054	0.218416	0.000085
C64	C	0.668984	0.295917	0.000082
N65	N	0.672515	0.090725	0.179255
N66	N	0.672555	0.090736	-0.179072
C67	C	0.711364	0.043004	0.218872
C68	C	0.711368	0.043001	0.298119
C69	C	0.672527	0.090730	0.337747
C70	C	0.633670	0.138455	0.298120
C71	C	0.633664	0.138452	0.218874
N72	N	0.665122	0.152563	0.462162
N73	N	0.665131	0.152563	0.537442
C74	C	0.672542	0.090740	0.576511
N75	N	0.679954	0.028914	0.537455
N76	N	0.679948	0.028914	0.462168
C77	C	0.672529	0.090738	0.423676
C78	C	0.711397	0.043011	0.702057
C79	C	0.711397	0.043007	0.781306
C80	C	0.633701	0.138467	0.781305
C81	C	0.633699	0.138465	0.702058
C82	C	0.672550	0.090738	0.662439
H83	H	0.764824	-0.580991	0.000088
O84	O	0.572031	-0.241936	0.000209
C85	C	0.510803	-0.314099	0.065396
C86	C	0.568382	-0.283608	0.065358
H87	H	0.507839	-0.347809	0.118056
H88	H	0.474145	-0.269380	0.065439
H89	H	0.507813	-0.347721	0.012683
H90	H	0.571427	-0.249994	0.118063
H91	H	0.605012	-0.328360	0.065276
O92	O	0.573726	-0.098378	0.000217
C93	C	0.485247	-0.061264	0.065410
C94	C	0.541867	-0.110882	0.065365
H95	H	0.459468	-0.071366	0.118069
H96	H	0.494830	-0.004444	0.065460
H97	H	0.459507	-0.071282	0.012696
H98	H	0.567634	-0.100927	0.118070
H99	H	0.532243	-0.167685	0.065275
H100	H	0.118676	0.089917	-0.193052
O101	O	0.504237	0.095603	0.135434
C102	C	0.497954	0.095544	0.271577
C103	C	0.465314	0.095084	0.196054
H104	H	0.466497	0.095139	0.320607
H105	H	0.531089	0.047075	0.275063
H106	H	0.520439	0.144814	0.274966
H107	H	0.442794	0.045846	0.192614
H108	H	0.432211	0.143586	0.192599
O109	O	0.749220	-0.003237	0.663557
C110	C	0.827062	-0.018530	0.574121
C111	C	0.784248	0.033909	0.617669
H112	H	0.855386	0.011482	0.536998
H113	H	0.854866	-0.052604	0.616048
H114	H	0.802600	-0.053298	0.537037
H115	H	0.808665	0.068722	0.654754
H116	H	0.756445	0.067934	0.575701
O117	O	0.595892	0.184764	0.819755
C118	C	0.496764	0.226344	0.843977
C119	C	0.539524	0.173864	0.800395
H120	H	0.451182	0.217560	0.828329
H121	H	0.503390	0.218150	0.907431
H122	H	0.504071	0.282213	0.828394
H123	H	0.532243	0.117974	0.815915
H124	H	0.532888	0.182119	0.736951
H125	H	0.602066	0.177327	0.669799
H126	H	0.391900	0.093970	0.124598
H127	H	0.763234	-0.713095	0.000082
O128	O	0.230994	0.091549	0.204083
C129	C	0.224699	0.091484	0.340225
C130	C	0.192065	0.091030	0.264697
H131	H	0.193238	0.091080	0.389250
H132	H	0.257832	0.043012	0.343713
H133	H	0.247188	0.140751	0.343620
H134	H	0.169542	0.041796	0.261250
H135	H	0.158965	0.139535	0.261240
O136	O	0.113982	0.089725	0.204003
C137	C	0.053509	0.028263	0.283676
C138	C	0.086166	0.028789	0.208166
H139	H	0.031002	-0.020991	0.287060
H140	H	0.084929	0.028681	0.332744
H141	H	0.020386	0.076747	0.287104
H142	H	0.119289	-0.019685	0.204665
H143	H	0.054711	0.028409	0.159135
O144	O	0.387169	0.093819	-0.135174
C145	C	0.326757	0.032305	-0.214857
C146	C	0.359443	0.032816	-0.139375
H147	H	0.304342	-0.017019	-0.218285
H148	H	0.293569	0.080725	-0.218305
H149	H	0.358199	0.032810	-0.263892
H150	H	0.328044	0.032287	-0.090297
H151	H	0.392639	-0.015600	-0.135993
H152	H	-0.046827	0.087486	0.124623
O153	O	0.231060	0.091702	-0.203854
C154	C	0.242597	0.152451	-0.321194
C155	C	0.209935	0.151918	-0.245689
H156	H	0.225522	0.201123	-0.355046
H157	H	0.290155	0.153201	-0.309457
H158	H	0.236267	0.103387	-0.355001
H159	H	0.216218	0.200972	-0.211844
H160	H	0.162389	0.151131	-0.257479
H161	H	-0.154595	0.085891	0.124621
O162	O	0.504270	0.095551	-0.135276
C163	C	0.529094	0.035302	-0.252562
C164	C	0.496438	0.034846	-0.177046
H165	H	0.522783	-0.013780	-0.286348
H166	H	0.512070	0.083965	-0.286464
H167	H	0.576643	0.036038	-0.240753
H168	H	0.448884	0.034084	-0.188786
H169	H	0.513508	-0.013812	-0.143167
H170	H	-0.046828	0.087490	-0.124414
O171	O	0.778342	-0.132523	0.000132
C172	C	0.825700	-0.028051	0.000086
C173	C	0.768134	-0.058573	0.000070
H174	H	0.817467	0.031741	0.000019
H175	H	0.851133	-0.046614	0.052783
H176	H	0.851122	-0.046693	-0.052592
H177	H	0.742666	-0.039945	0.052712
H178	H	0.742744	-0.040014	-0.052662
H179	H	-0.154580	0.085913	-0.124406
H180	H	0.742998	0.004140	0.186616
O181	O	0.595982	0.184910	0.180421
C182	C	0.562278	0.306533	0.156200
C183	C	0.604992	0.253994	0.199782
H184	H	0.569539	0.362399	0.171850
H185	H	0.568946	0.298397	0.092745
H186	H	0.516693	0.297692	0.171780
H187	H	0.650593	0.262803	0.184266
H188	H	0.598273	0.262143	0.263226
O189	O	0.749193	-0.003377	0.819676
C190	C	0.826242	-0.098075	0.811310
C191	C	0.783476	-0.045573	0.767762
H192	H	0.853962	-0.132213	0.769357
H193	H	0.854652	-0.068143	0.848381
H194	H	0.801739	-0.132770	0.848442
H195	H	0.807932	-0.010864	0.730590
H196	H	0.755066	-0.075548	0.730739
H197	H	0.602044	0.177316	0.330388
O198	O	0.568361	-0.542413	-0.000026
C199	C	0.479925	-0.505231	-0.065282
C200	C	0.536558	-0.554824	-0.065245
H201	H	0.454202	-0.515238	-0.118015
H202	H	0.454112	-0.515268	-0.012632
H203	H	0.489556	-0.448432	-0.065249
H204	H	0.526979	-0.611642	-0.065305
H205	H	0.562354	-0.544727	-0.117891
O206	O	0.776717	-0.276097	0.000125
C207	C	0.879775	-0.285666	0.000089
C208	C	0.823140	-0.236077	0.000067
H209	H	0.917323	-0.253330	0.000026
H210	H	0.881995	-0.320188	0.052787
H211	H	0.881933	-0.320199	-0.052589
H212	H	0.820944	-0.201500	0.052709
H213	H	0.820944	-0.201603	-0.052665
O214	O	0.749083	-0.003453	0.336535
C215	C	0.782742	-0.125072	0.360847
C216	C	0.740010	-0.072541	0.317282
H217	H	0.775414	-0.180941	0.345309
H218	H	0.828345	-0.116327	0.345246
H219	H	0.776076	-0.116831	0.424287
H220	H	0.746624	-0.080750	0.253833
H221	H	0.694423	-0.081299	0.332946
H222	H	0.574891	-0.681537	0.000088
