data_functionalizedCrystal
_audit_creation_method	'MofGen! by Chris Wilmer'
_symmetry_space_group_name_H-M	'P1'
_symmetry_Int_Tables_number	1
_symmetry_cell_setting	triclinic
loop_
_symmetry_equiv_pos_as_xyz
  x,y,z
_cell_length_a	10.723024
_cell_length_b	9.730223
_cell_length_c	10.654543
_cell_angle_alpha	89.995346
_cell_angle_beta	95.524979
_cell_angle_gamma	89.998842
loop_
_atom_site_label
_atom_site_type_symbol
_atom_site_fract_x
_atom_site_fract_y
_atom_site_fract_z
O1	O	1.657200	0.114269	-0.176157
O2	O	1.294050	0.114273	-0.193018
O3	O	1.483979	0.114274	-0.001847
O4	O	1.467271	0.114268	-0.367329
O5	O	1.483983	-0.114306	-0.001826
O6	O	1.294054	-0.114307	-0.192998
O7	O	1.657204	-0.114311	-0.176137
Zn8	Zn	1.475630	-0.150601	-0.184564
Zn9	Zn	1.475624	0.150563	-0.184591
O10	O	1.467275	-0.114312	-0.367308
C11	C	1.247552	-0.000016	-0.191781
C12	C	1.108997	-0.000015	-0.188110
N13	N	1.475643	-0.356137	-0.184545
C14	C	1.482756	-0.000012	0.044962
C15	C	1.479091	-0.000001	0.184405
C16	C	1.034028	-0.000015	-0.295079
C17	C	0.890824	-0.000014	-0.291287
C18	C	1.703702	-0.000018	-0.177374
C19	C	1.842257	-0.000011	-0.181045
N20	N	1.475621	0.356100	-0.184600
C21	C	1.399446	0.428018	-0.107561
C22	C	1.399460	0.571901	-0.107530
C23	C	1.551826	0.571934	-0.261587
C24	C	1.551818	0.428054	-0.261611
C25	C	1.590917	0.000003	0.263907
C26	C	1.587466	0.000028	0.394928
C27	C	1.360352	0.000039	0.366931
C28	C	1.363805	0.000024	0.235912
C29	C	1.468504	-0.000006	0.585884
C30	C	1.472187	0.000040	0.446443
H31	H	1.075862	-0.000025	-0.389467
H32	H	1.272736	0.000025	0.171177
O33	O	1.626017	0.641770	-0.336258
C34	C	1.836316	0.685730	-0.387698
C35	C	1.752446	0.606586	-0.303022
H36	H	1.938548	0.657291	-0.360875
H37	H	1.823345	0.800937	-0.374445
H38	H	1.809123	0.657482	-0.490536
H39	H	1.779586	0.634719	-0.200152
H40	H	1.765427	0.491399	-0.316383
H41	H	1.337403	0.369437	-0.044853
O42	O	1.702871	-0.000249	0.213813
C43	C	1.838557	-0.118639	0.082103
C44	C	1.711736	-0.118547	0.138769
H45	H	1.845755	-0.214257	0.021397
H46	H	1.917939	-0.118715	0.161389
H47	H	1.845830	-0.022941	0.021502
H48	H	1.704341	-0.214228	0.199357
H49	H	1.632416	-0.118399	0.059423
H50	H	1.337432	0.630451	-0.044796
H51	H	1.678527	0.000035	0.459655
O52	O	1.248339	0.000297	0.416911
C53	C	1.053141	0.118688	0.432994
C54	C	1.179966	0.118587	0.376336
H55	H	0.997814	0.214301	0.400191
H56	H	1.069809	0.118785	0.540299
H57	H	0.997873	0.022984	0.400368
H58	H	1.235300	0.214275	0.408865
H59	H	1.163210	0.118419	0.269038
O60	O	0.814032	0.000230	-0.400576
C61	C	0.750278	0.118607	-0.594870
C62	C	0.837298	0.118518	-0.471132
H63	H	0.769076	0.214218	-0.651961
H64	H	0.648452	0.118699	-0.572422
H65	H	0.768943	0.022901	-0.651875
H66	H	0.818745	0.214207	-0.414067
H67	H	0.939095	0.118354	-0.493669
H68	H	1.067163	0.000022	-0.093722
O69	O	0.919220	0.000174	-0.071870
C70	C	1.082406	0.118642	0.056722
C71	C	0.995326	0.118586	-0.066977
H72	H	1.143941	0.214381	0.060731
H73	H	1.144138	0.023048	0.060768
H74	H	1.023532	0.118576	0.140294
H75	H	1.054101	0.118700	-0.150618
H76	H	0.933589	0.214172	-0.070913
H77	H	1.613856	0.369496	-0.324346
