data_functionalizedCrystal
_audit_creation_method	'MofGen! by Chris Wilmer'
_symmetry_space_group_name_H-M	'P1'
_symmetry_Int_Tables_number	1
_symmetry_cell_setting	triclinic
loop_
_symmetry_equiv_pos_as_xyz
  x,y,z
_cell_length_a	18.426585
_cell_length_b	14.628931
_cell_length_c	14.628931
_cell_angle_alpha	60.000000
_cell_angle_beta	90.002059
_cell_angle_gamma	59.999884
loop_
_atom_site_label
_atom_site_type_symbol
_atom_site_fract_x
_atom_site_fract_y
_atom_site_fract_z
Zr1	Zr	0.699142	1.000541	-0.119912
O2	O	0.583261	1.191252	-0.265881
O3	O	0.734665	0.809833	-0.075164
O4	O	0.734666	1.000539	-0.265870
O5	O	0.583260	1.000548	0.075256
O6	O	0.854097	1.000532	-0.265861
O7	O	0.583260	1.000547	-0.075175
O8	O	0.854096	0.659396	0.075276
O9	O	0.583261	1.341684	-0.265881
O10	O	0.838946	0.888268	-0.056074
O11	O	0.749816	0.888273	0.056185
O12	O	0.749816	1.112804	-0.168346
O13	O	0.660686	1.112809	-0.056087
Zr14	Zr	0.889620	1.000531	0.120023
Zr15	Zr	0.889620	1.000531	-0.119898
Zr16	Zr	0.699141	1.000542	0.120009
Zr17	Zr	0.699142	1.240462	-0.119912
Zr18	Zr	0.889620	0.760610	0.120023
O19	O	0.854096	1.191239	0.075276
O20	O	0.854097	1.191238	-0.265861
O21	O	0.583260	1.191253	0.075256
O22	O	1.005501	0.809820	0.265992
O23	O	1.005501	0.809819	-0.075145
O24	O	0.734665	0.809834	0.265973
O25	O	1.005501	1.000525	-0.075145
O26	O	0.854096	1.000534	0.265981
O27	O	0.734665	1.000540	0.265973
O28	O	1.005501	1.000525	0.075287
O29	O	0.734666	1.341676	-0.265870
O30	O	0.854096	0.659396	0.265982
O31	O	1.005501	0.659388	0.265993
O32	O	1.005501	0.659388	0.075287
O33	O	0.583261	1.341685	-0.075176
O34	O	0.734666	1.341677	-0.075165
O35	O	0.838945	0.888269	0.168457
O36	O	0.928076	0.888263	0.056198
O37	O	0.838946	1.112799	-0.056074
O38	O	0.749816	1.112804	0.056185
C39	C	0.556121	1.000549	0.000039
C40	C	0.475258	1.000553	0.000033
C41	C	0.794380	0.700431	0.000056
C42	C	0.794380	0.598578	0.000056
C43	C	0.838595	0.553166	-0.055632
C44	C	0.838596	0.447896	-0.055633
C45	C	0.409587	1.000558	0.000033
C46	C	0.327206	1.000553	0.000043
C47	C	0.261548	1.000539	0.000057
C48	C	0.179161	1.000533	0.000065
C49	C	1.032640	1.000523	0.000073
C50	C	1.113504	1.000519	0.000079
C51	C	0.794381	1.000535	-0.300049
C52	C	0.794381	1.000535	-0.401902
C53	C	0.794381	1.300641	0.000055
C54	C	0.794381	1.402494	0.000055
C55	C	0.750167	1.111920	-0.503006
C56	C	0.750166	1.111922	-0.608277
C57	C	0.794380	1.000537	0.300160
C58	C	0.794380	1.000537	0.402013
C59	C	1.032640	0.700418	0.000073
C60	C	1.113503	0.598561	0.000079
C61	C	0.794380	0.700432	0.300161
C62	C	0.794380	0.598579	0.402014
C63	C	1.032640	0.700419	0.300178
C64	C	1.113503	0.598562	0.402037
C65	C	0.556122	1.300653	-0.300067
C66	C	0.475259	1.402510	-0.401925
C67	C	0.556121	1.300654	0.000038
C68	C	0.475258	1.402511	0.000032
C69	C	0.794381	1.300640	-0.300050
C70	C	0.794382	1.402493	-0.401903
C71	C	1.104952	0.550730	-0.058533
C72	C	1.180924	0.455037	-0.058550
C73	C	1.265446	0.407171	0.000053
C74	C	1.273995	0.455012	0.058667
C75	C	1.198024	0.550709	0.058676
C76	C	1.198010	0.550726	0.391273
C77	C	1.273996	0.455034	0.486971
C78	C	1.265474	0.407173	0.593432
C79	C	1.180958	0.455018	0.604194
C80	C	1.104973	0.550715	0.508497
C81	C	0.390752	1.450358	-0.391161
C82	C	0.314765	1.546079	-0.486859
C83	C	0.323288	1.593946	-0.593320
C84	C	0.407804	1.546094	-0.604082
C85	C	0.483788	1.450381	-0.508385
C86	C	0.483809	1.450352	0.058634
C87	C	0.407837	1.546071	0.058625
C88	C	0.323315	1.593941	0.000019
C89	C	0.314766	1.546096	-0.058591
C90	C	0.390737	1.450385	-0.058587
C91	C	0.838594	0.553168	0.503118
C92	C	0.838595	0.447898	0.608389
H93	H	0.876452	0.592215	-0.103303
F94	F	0.573725	1.399461	-0.519859
H95	H	0.261409	1.671881	-0.671234
F96	F	0.888079	0.396850	0.721755
H97	H	0.552624	1.411384	0.106365
F98	F	1.171807	0.404135	-0.120933
H99	H	0.261462	1.671875	0.000025
H100	H	1.327353	0.329250	0.671345
F101	F	0.700694	1.236565	-0.514284
F102	F	1.207100	0.601652	0.277978
H103	H	0.383763	1.411436	-0.106304
H104	H	0.832236	0.905176	-0.393279
H105	H	0.414732	1.585079	-0.690774
F106	F	0.744907	0.547527	0.062381
H107	H	1.174032	0.416036	0.690887
H108	H	1.342806	0.416088	0.478188
F109	F	0.888067	0.604220	0.514396
H110	H	0.832231	0.905172	-0.511257
F111	F	0.744905	0.453525	0.484737
F112	F	0.224804	1.597053	-0.120956
F113	F	1.207138	0.601597	0.121070
F114	F	0.700682	1.236570	-0.721643
H115	H	1.036137	0.589702	-0.106268
F116	F	0.744896	0.547541	0.390736
H117	H	1.327300	0.329247	0.000037
H118	H	0.876446	0.408849	-0.103315
H119	H	0.756521	0.441547	0.047729
F120	F	0.381661	1.399430	-0.277866
F121	F	1.363957	0.404052	0.121035
F122	F	1.015036	0.601610	0.519970
F123	F	0.224826	1.596986	-0.475382
H124	H	0.414815	1.585010	0.106355
