data_functionalizedCrystal
_audit_creation_method	'MofGen! by Chris Wilmer'
_symmetry_space_group_name_H-M	'P1'
_symmetry_Int_Tables_number	1
_symmetry_cell_setting	triclinic
loop_
_symmetry_equiv_pos_as_xyz
  x,y,z
_cell_length_a	12.970454
_cell_length_b	14.395555
_cell_length_c	12.970454
_cell_angle_alpha	90.001507
_cell_angle_beta	60.000396
_cell_angle_gamma	59.999555
loop_
_atom_site_label
_atom_site_type_symbol
_atom_site_fract_x
_atom_site_fract_y
_atom_site_fract_z
Zr1	Zr	1.128466	0.894919	-0.135237
O2	O	1.343561	0.746590	-0.299867
O3	O	0.913375	0.940389	-0.084770
O4	O	1.128463	0.940391	-0.299858
O5	O	1.128474	0.746587	0.084887
O6	O	1.128455	1.093265	-0.299849
O7	O	1.128473	0.746588	-0.084780
O8	O	0.743702	1.093261	0.084904
O9	O	1.513227	0.746591	-0.299866
O10	O	1.001837	1.073870	-0.063238
O11	O	1.001844	0.959781	0.063375
O12	O	1.255082	0.959784	-0.189863
O13	O	1.255088	0.845695	-0.063249
Zr14	Zr	1.128455	1.138734	0.135376
Zr15	Zr	1.128454	1.138735	-0.135222
Zr16	Zr	1.128467	0.894917	0.135362
Zr17	Zr	1.399063	0.894920	-0.135235
Zr18	Zr	0.857857	1.138733	0.135374
O19	O	1.343546	1.093263	0.084909
O20	O	1.343544	1.093266	-0.299847
O21	O	1.343563	0.746588	0.084889
O22	O	0.913359	1.287062	0.300007
O23	O	0.913357	1.287065	-0.084749
O24	O	0.913377	0.940386	0.299986
O25	O	1.128446	1.287065	-0.084748
O26	O	1.128458	1.093261	0.299997
O27	O	1.128466	0.940387	0.299988
O28	O	1.128447	1.287064	0.084919
O29	O	1.513218	0.940392	-0.299855
O30	O	0.743703	1.093260	0.299994
O31	O	0.743693	1.287062	0.300005
O32	O	0.743692	1.287063	0.084916
O33	O	1.513228	0.746589	-0.084776
O34	O	1.513219	0.940391	-0.084765
O35	O	1.001839	1.073869	0.190002
O36	O	1.001832	1.187958	0.063389
O37	O	1.255077	1.073871	-0.063236
O38	O	1.255083	0.959782	0.063377
C39	C	0.789984	1.016825	0.000067
C40	C	0.675108	1.016825	0.000066
C41	C	1.128476	0.711849	0.000052
C42	C	1.128481	0.608342	0.000046
C43	C	1.266561	0.485548	-0.068985
C44	C	1.197534	0.454713	-0.119014
C45	C	1.197502	0.454755	0.050065
C46	C	1.059453	0.578870	-0.050053
C47	C	1.059441	0.578908	0.119092
C48	C	0.990313	0.548146	0.069093
C49	C	1.466937	1.016827	0.000073
C50	C	1.581813	1.016828	0.000074
C51	C	1.128459	1.016828	-0.338408
C52	C	1.128458	1.016829	-0.453284
C53	C	1.128445	1.321803	0.000088
C54	C	1.128440	1.425310	0.000094
C55	C	1.128462	1.016824	0.338547
C56	C	1.128463	1.016823	0.453423
C57	C	0.789969	1.321802	0.000085
C58	C	0.675088	1.425308	0.000090
C59	C	0.789986	1.016823	0.338544
C60	C	0.675111	1.016822	0.453419
C61	C	0.789971	1.321800	0.338562
C62	C	0.675090	1.425306	0.453444
C63	C	1.466950	0.711852	-0.338423
C64	C	1.581831	0.608347	-0.453304
C65	C	1.466952	0.711850	0.000055
C66	C	1.581833	0.608344	0.000049
C67	C	1.466935	1.016829	-0.338405
C68	C	1.581810	1.016830	-0.453280
C69	C	0.527654	1.473916	0.093567
C70	C	0.419696	1.571161	0.093576
C71	C	0.459175	1.619802	0.000112
C72	C	0.606623	1.571185	-0.093375
C73	C	0.714578	1.473937	-0.093388
C74	C	0.527657	1.473920	0.507391
C75	C	0.419698	1.571186	0.615322
C76	C	0.459175	1.619830	0.669309
C77	C	0.606623	1.571210	0.615351
C78	C	0.714579	1.473951	0.507417
C79	C	1.729264	0.559740	-0.507262
C80	C	1.837223	0.462496	-0.615217
C81	C	1.797745	0.413856	-0.669207
C82	C	1.650297	0.462472	-0.615244
C83	C	1.542341	0.559718	-0.507296
C84	C	1.542309	0.559734	0.093530
C85	C	1.650237	0.462489	0.093551
C86	C	1.797688	0.413850	0.000085
C87	C	1.837212	0.462469	-0.093401
C88	C	1.729285	0.559717	-0.093415
H89	H	1.383321	0.460105	-0.127451
H90	H	0.371257	1.698985	0.000135
N91	N	1.609820	0.412855	0.189059
N92	N	1.478159	0.456293	0.272490
H93	H	1.449609	0.421243	0.339944
N94	N	1.270751	0.387581	-0.245289
N95	N	1.401723	0.348393	-0.325845
H96	H	1.453442	0.300981	-0.415030
N97	N	0.269100	1.620772	0.670463
N98	N	0.233885	1.577280	0.622287
H99	H	0.127528	1.612278	0.661247
H100	H	0.834625	1.434373	0.463505
N101	N	0.986294	0.645816	-0.103236
N102	N	0.974547	0.736621	-0.111878
H103	H	0.922881	0.783902	-0.149440
H104	H	1.957280	0.422853	-0.169497
H105	H	1.957273	0.422926	-0.659136
H106	H	1.422253	0.599320	0.169641
H107	H	1.885554	0.334664	0.000111
N108	N	0.646912	1.620891	-0.188832
N109	N	0.550496	1.707723	-0.188788
H110	H	0.578944	1.742835	-0.256200
H111	H	1.761487	0.599284	-0.169544
H112	H	0.873458	0.573803	0.127477
H113	H	1.761436	0.599327	-0.463314
H114	H	0.495482	1.434326	0.169680
H115	H	1.255888	0.401249	0.092348
N116	N	0.986303	0.646032	0.245340
N117	N	1.033388	0.605020	0.309523
H118	H	0.981744	0.652422	0.398690
H119	H	0.834624	1.434372	-0.169507
N120	N	1.908047	0.314523	-0.779476
N121	N	2.039678	0.271143	-0.827630
H122	H	2.117586	0.200987	-0.905507
N123	N	0.269098	1.620794	0.189083
N124	N	0.233882	1.577354	0.272530
H125	H	0.127525	1.612403	0.339983
H126	H	0.371256	1.699023	0.757197
N127	N	0.487285	1.424253	0.452282
N128	N	0.355632	1.467689	0.500478
H129	H	0.327106	1.432619	0.461562
H130	H	0.638746	1.610831	0.659323
H131	H	1.618173	0.422854	-0.659219
H132	H	1.422295	0.599281	-0.463367
