data_functionalizedCrystal
_audit_creation_method	'MofGen! by Chris Wilmer'
_symmetry_space_group_name_H-M	'P1'
_symmetry_Int_Tables_number	1
_symmetry_cell_setting	triclinic
loop_
_symmetry_equiv_pos_as_xyz
  x,y,z
_cell_length_a	10.654545
_cell_length_b	16.992695
_cell_length_c	16.053948
_cell_angle_alpha	92.712453
_cell_angle_beta	87.149157
_cell_angle_gamma	92.424349
loop_
_atom_site_label
_atom_site_type_symbol
_atom_site_fract_x
_atom_site_fract_y
_atom_site_fract_z
O1	O	1.672356	-0.107197	0.069420
O2	O	2.172356	0.392803	0.569420
O3	O	1.307784	-0.117698	0.069424
O4	O	1.807784	0.382302	0.569424
O5	O	1.488609	0.001703	0.069416
O6	O	1.988609	0.501703	0.569416
O7	O	1.491531	-0.226598	0.069429
O8	O	1.991531	0.273402	0.569429
O9	O	1.498611	-0.004247	-0.069440
O10	O	1.998611	0.495753	0.430560
O11	O	1.317786	-0.123648	-0.069432
O12	O	1.817786	0.376352	0.430568
O13	O	1.682358	-0.113147	-0.069435
O14	O	2.182358	0.386853	0.430565
Zn15	Zn	1.501660	-0.119342	-0.091480
Zn16	Zn	2.001660	0.380658	0.408520
Zn17	Zn	1.488482	-0.111503	0.091469
Zn18	Zn	1.988482	0.388497	0.591469
O19	O	1.501533	-0.232548	-0.069427
O20	O	2.001533	0.267452	0.430573
C21	C	1.265921	-0.119903	-0.000003
C22	C	1.765921	0.380097	0.499997
C23	C	1.126278	-0.117598	-0.000002
C24	C	1.626278	0.382402	0.499998
C25	C	1.066132	-0.119756	-0.075693
C26	C	1.566132	0.380244	0.424307
C27	C	0.934924	-0.117578	-0.075693
C28	C	1.434924	0.382422	0.424307
C29	C	0.924019	-0.111086	0.075695
C30	C	1.424019	0.388914	0.575695
C31	C	1.055225	-0.113258	0.075694
C32	C	1.555225	0.386742	0.575694
C33	C	0.767186	-0.072625	-0.166632
C34	C	1.267186	0.427375	0.333368
C35	C	0.707035	-0.074797	-0.242327
C36	C	1.207035	0.425203	0.257673
C37	C	0.749408	-0.124257	-0.309153
C38	C	1.249408	0.375743	0.190847
C39	C	0.851930	-0.171565	-0.300287
C40	C	1.351930	0.328435	0.199713
C41	C	0.912074	-0.169400	-0.224591
C42	C	1.412074	0.330600	0.275409
C43	C	0.869705	-0.119921	-0.157768
C44	C	1.369705	0.380079	0.342232
C45	C	1.222965	-0.158218	0.166628
C46	C	1.722965	0.341782	0.666628
C47	C	1.283111	-0.156059	0.242325
C48	C	1.783111	0.343941	0.742325
C49	C	1.240739	-0.106603	0.309158
C50	C	1.740739	0.393397	0.809158
C51	C	1.138211	-0.059306	0.300300
C52	C	1.638211	0.440694	0.800300
C53	C	1.078065	-0.061466	0.224603
C54	C	1.578065	0.438534	0.724603
C55	C	1.120447	-0.110921	0.157770
C56	C	1.620447	0.389079	0.657770
C57	C	1.489850	0.027961	-0.000012
C58	C	1.989850	0.527961	0.499988
C59	C	1.478631	0.115066	-0.000012
C60	C	1.978631	0.615066	0.499988
C61	C	1.724222	-0.110942	-0.000006
C62	C	2.224222	0.389058	0.499994
C63	C	1.863864	-0.113246	-0.000002
C64	C	2.363864	0.386754	0.499998
C65	C	1.500293	-0.258806	0.000003
C66	C	2.000293	0.241194	0.500003
C67	C	1.511511	-0.345910	0.000008
C68	C	2.011511	0.154090	0.500008
N69	N	1.510663	-0.124692	-0.216337
N70	N	2.010663	0.375308	0.283663
C71	C	1.586882	0.164719	-0.000014
C72	C	2.086882	0.664719	0.499986
C73	C	1.576332	0.246563	-0.000006
C74	C	2.076332	0.746563	0.499994
C75	C	1.457531	0.278753	-0.000002
C76	C	1.957531	0.778753	0.499998
C77	C	1.349271	0.229093	0.000003
C78	C	1.849271	0.729093	0.500003
C79	C	1.359822	0.147251	0.000001
C80	C	1.859822	0.647251	0.500001
C81	C	1.413803	0.522588	0.000010
C82	C	1.913803	1.022588	0.500010
C83	C	1.403260	0.604437	0.000010
C84	C	1.903260	1.104437	0.500010
C85	C	1.630322	0.621901	0.000003
C86	C	2.130322	1.121901	0.500003
C87	C	1.640863	0.540056	-0.000004
C88	C	2.140863	1.040056	0.499996
C89	C	1.532603	0.490404	0.000005
C90	C	2.032603	0.990404	0.500005
N91	N	1.446744	0.362410	0.000004
N92	N	1.946744	0.862410	0.500004
N93	N	1.543390	0.406748	0.000005
N94	N	2.043390	0.906748	0.500005
C95	C	1.432858	-0.078541	-0.260057
C96	C	1.932858	0.421459	0.239943
C97	C	1.439188	-0.082293	-0.347462
C98	C	1.939188	0.417707	0.152538
C99	C	1.523330	-0.132191	-0.391145
C100	C	2.023330	0.367809	0.108855
C101	C	1.601139	-0.178347	-0.347418
C102	C	2.101139	0.321653	0.152582
C103	C	1.594802	-0.174599	-0.260015
C104	C	2.094802	0.325401	0.239985
C105	C	1.550960	-0.148554	-0.652545
C106	C	2.050960	0.351446	-0.152545
C107	C	1.557294	-0.152297	-0.739954
C108	C	2.057294	0.347703	-0.239954
C109	C	1.395341	-0.056244	-0.739991
C110	C	1.895341	0.443756	-0.239991
C111	C	1.389017	-0.052497	-0.652587
C112	C	1.889017	0.447503	-0.152587
C113	C	1.466820	-0.098655	-0.608868
C114	C	1.966820	0.401345	-0.108868
N115	N	1.529805	-0.136026	-0.480486
N116	N	2.029805	0.363974	0.019514
N117	N	1.460338	-0.094825	-0.519528
N118	N	1.960338	0.405175	-0.019528
N119	N	1.479489	-0.106147	0.216326
N120	N	1.979489	0.393853	0.716326
H121	H	0.732686	-0.032338	-0.112226
H122	H	1.232686	0.467662	0.387774
Br123	Br	1.242020	0.648122	0.000007
Br124	Br	1.742020	1.148122	0.500007
H125	H	1.625815	-0.192933	-0.775518
H126	H	2.125815	0.307067	-0.275518
Br127	Br	1.266877	0.455214	0.000028
Br128	Br	1.766877	0.955214	0.500028
Br129	Br	0.909414	-0.238708	-0.390979
Br130	Br	1.409414	0.261292	0.109021
Br131	Br	1.656508	-0.211227	-0.593224
Br132	Br	2.156508	0.288773	-0.093224
Br133	Br	1.715320	-0.246076	-0.406701
Br134	Br	2.215320	0.253924	0.093299
H135	H	1.375831	-0.044712	-0.383055
H136	H	1.875831	0.455288	0.116945
Br137	Br	1.700399	-0.237234	-0.200680
Br138	Br	2.200399	0.262766	0.299320
Br139	Br	1.162557	-0.125643	-0.178423
Br140	Br	1.662557	0.374357	0.321577
H141	H	0.995541	-0.207920	-0.217371
H142	H	1.495541	0.292080	0.282629
Br143	Br	1.080690	0.007810	0.391006
Br144	Br	1.580690	0.507810	0.891006
Br145	Br	1.188037	0.272779	0.000022
Br146	Br	1.688037	0.772779	0.500022
Br147	Br	1.212903	0.079864	0.000010
Br148	Br	1.712903	0.579864	0.500010
H149	H	1.683623	0.138517	-0.000022
H150	H	2.183623	0.638517	0.499978
Br151	Br	1.777238	0.689288	-0.000009
Br152	Br	2.277238	1.189288	0.499991
Br153	Br	1.802097	0.496377	0.000017
Br154	Br	2.302097	0.996377	0.500017
Br155	Br	1.318674	-0.010809	-0.200781
Br156	Br	1.818674	0.489191	0.299219
H157	H	0.700423	-0.126025	-0.370785
H158	H	1.200423	0.373975	0.129215
H159	H	0.623561	-0.036274	-0.249540
H160	H	1.123561	0.463726	0.250460
H161	H	1.664482	0.286988	-0.000009
H162	H	2.164482	0.786988	0.499991
H163	H	1.320502	-0.011862	-0.617026
H164	H	1.820502	0.488138	-0.117026
Br165	Br	0.827586	-0.105173	0.178421
Br166	Br	1.327586	0.394827	0.678421
H167	H	0.994579	-0.022953	0.217396
H168	H	1.494579	0.477047	0.717396
H169	H	1.289712	-0.104856	0.370797
H170	H	1.789712	0.395144	0.870797
Br171	Br	1.422257	-0.220249	0.254347
Br172	Br	1.922257	0.279751	0.754347
H173	H	1.257481	-0.198489	0.112208
H174	H	1.757481	0.301511	0.612208
Br175	Br	1.289751	0.006393	-0.799328
Br176	Br	1.789751	0.506393	-0.299328
