data_functionalizedCrystal
_audit_creation_method	'MofGen! by Chris Wilmer'
_symmetry_space_group_name_H-M	'P1'
_symmetry_Int_Tables_number	1
_symmetry_cell_setting	triclinic
loop_
_symmetry_equiv_pos_as_xyz
  x,y,z
_cell_length_a	17.639054
_cell_length_b	17.640280
_cell_length_c	11.169409
_cell_angle_alpha	78.765642
_cell_angle_beta	78.752542
_cell_angle_gamma	87.823438
loop_
_atom_site_label
_atom_site_type_symbol
_atom_site_fract_x
_atom_site_fract_y
_atom_site_fract_z
Zn1	Zn	1.222353	-0.067770	-1.033839
Zn2	Zn	1.247960	-0.194803	-0.802070
Zn3	Zn	1.095341	-0.093465	-0.786214
Zn4	Zn	1.121000	-0.220374	-0.955809
O5	O	1.171663	-0.144103	-0.894483
O6	O	1.332038	-0.063167	-1.042385
O7	O	1.227692	-0.181412	-0.631994
O8	O	1.090734	0.016219	-0.845081
O9	O	1.350851	-0.156497	-0.872106
O10	O	1.184049	0.035096	-1.027010
O11	O	1.115564	-0.106959	-0.620345
O12	O	0.992457	-0.131755	-0.769420
O13	O	1.134467	-0.200079	-1.134133
O14	O	1.011309	-0.224994	-0.894021
O15	O	1.208930	-0.087962	-1.191460
O16	O	1.252573	-0.304470	-0.796444
O17	O	1.159297	-0.323257	-0.909396
C18	C	0.974323	-0.183938	-0.821533
C19	C	0.889904	-0.200998	-0.790349
C20	C	0.780697	-0.273556	-0.657649
C21	C	0.860021	-0.257520	-0.686961
C22	C	0.840470	-0.160493	-0.864469
C23	C	0.761144	-0.176524	-0.835175
C24	C	0.731264	-0.233056	-0.731763
C25	C	0.711710	-0.136023	-0.909288
C26	C	0.632390	-0.152050	-0.879993
C27	C	0.602504	-0.208578	-0.776583
C28	C	0.651944	-0.249082	-0.702467
C29	C	0.741591	-0.079488	-1.012695
C30	C	0.692157	-0.038987	-1.086809
C31	C	0.612837	-0.055018	-1.057518
C32	C	0.582950	-0.111545	-0.954109
C33	C	0.563397	-0.014513	-1.131635
C34	C	0.484077	-0.030540	-1.102339
C35	C	0.503630	-0.127572	-0.924813
C36	C	1.211519	-0.341415	-0.846207
C37	C	1.228639	-0.425812	-0.825620
C38	C	1.041917	-0.752470	-1.051430
C39	C	1.058005	-0.831774	-1.032048
C40	C	1.155194	-0.812133	-0.914609
C41	C	1.139117	-0.732826	-0.933986
C42	C	1.082477	-0.703001	-1.002396
C43	C	1.179677	-0.683357	-0.884952
C44	C	1.163597	-0.604057	-0.904323
C45	C	1.106958	-0.574226	-0.972727
C46	C	1.066398	-0.623701	-1.021767
C47	C	1.236313	-0.713184	-0.816535
C48	C	1.276872	-0.663714	-0.767501
C49	C	1.260797	-0.584412	-0.786879
C50	C	1.204158	-0.554582	-0.855283
C51	C	1.301358	-0.534937	-0.737839
C52	C	1.285279	-0.455637	-0.757210
C53	C	1.188079	-0.475282	-0.874654
C54	C	1.369774	-0.104113	-0.967718
C55	C	1.454197	-0.087072	-0.998927
C56	C	1.171705	-0.144007	-1.207568
C57	C	1.171722	-0.143966	-1.340986
C58	C	1.131673	0.053984	-0.942981
C59	C	1.114631	0.138397	-0.963648
C60	C	1.171655	-0.144135	-0.582646
C61	C	1.171741	-0.143933	-0.449335
H62	H	0.864809	-0.114463	-0.948664
O63	O	1.324584	-0.407474	-0.709627
C64	C	1.342918	-0.276593	-0.687490
C65	C	1.298337	-0.331053	-0.741429
H66	H	1.321726	-0.214793	-0.713204
H67	H	1.332775	-0.294860	-0.581944
H68	H	1.407306	-0.279809	-0.727466
H69	H	1.233936	-0.327864	-0.701549
H70	H	1.308546	-0.312769	-0.846974
O71	O	0.525439	-0.224082	-0.747945
C72	C	0.407622	-0.227548	-0.595640
C73	C	0.494887	-0.209943	-0.627922
H74	H	0.382898	-0.216139	-0.498591
H75	H	0.377371	-0.188876	-0.666291
H76	H	0.398006	-0.290723	-0.598114
H77	H	0.504574	-0.146787	-0.625434
H78	H	0.525094	-0.248666	-0.557267
H79	H	0.806178	-0.066438	-1.036540
O80	O	0.986859	-0.723622	-1.117888
C81	C	0.892202	-0.751453	-1.232448
C82	C	0.954514	-0.784230	-1.157181
H83	H	0.866045	-0.800437	-1.264260
H84	H	0.844937	-0.722421	-1.171725
H85	H	0.919538	-0.707217	-1.317163
H86	H	0.927248	-0.828496	-1.072462
H87	H	1.001772	-0.813214	-1.217991
H88	H	1.024981	-0.872049	-1.072000
O89	O	1.011427	-0.594590	-1.088244
C90	C	0.943553	-0.481131	-1.170067
C91	C	1.005835	-0.513995	-1.094790
H92	H	0.939001	-0.415968	-1.175362
H93	H	0.960002	-0.493927	-1.268025
H94	H	0.885505	-0.509186	-1.122462
H95	H	1.063906	-0.485959	-1.142288
H96	H	0.989321	-0.501208	-0.996833
O97	O	1.210202	-0.841233	-0.848215
C98	C	1.277995	-0.954703	-0.766212
C99	C	1.215697	-0.921850	-0.841461
H100	H	1.282446	-1.019888	-0.760705
H101	H	1.336094	-0.926751	-0.813808
H102	H	1.261526	-0.941791	-0.668331
H103	H	1.232093	-0.934752	-0.939351
H104	H	1.157614	-0.949802	-0.793767
O105	O	1.331880	-0.692814	-0.701107
C106	C	1.399673	-0.806284	-0.619105
C107	C	1.337375	-0.773431	-0.694354
H108	H	1.404124	-0.871469	-0.613598
H109	H	1.457772	-0.778332	-0.666701
H110	H	1.383204	-0.793372	-0.521223
H111	H	1.353771	-0.786333	-0.792244
H112	H	1.279293	-0.801383	-0.646660
H113	H	0.443826	0.002443	-1.162685
O114	O	1.356455	-0.563936	-0.671568
C115	C	1.477106	-0.632751	-0.671552
C116	C	1.414779	-0.599930	-0.746762
H117	H	1.524269	-0.661874	-0.732307
H118	H	1.503398	-0.583798	-0.639859
H119	H	1.449757	-0.676930	-0.586767
H120	H	1.442070	-0.555762	-0.831598
H121	H	1.388493	-0.648924	-0.778360
O122	O	0.623035	-0.304004	-0.601942
C123	C	0.650799	-0.398604	-0.429009
C124	C	0.683639	-0.336416	-0.542790
H125	H	0.699783	-0.424838	-0.381167
H126	H	0.606615	-0.371235	-0.361077
H127	H	0.621687	-0.445818	-0.460608
H128	H	0.712790	-0.289183	-0.511307
H129	H	0.727785	-0.363841	-0.610696
H130	H	0.479302	-0.173613	-0.840613
H131	H	0.756369	-0.319596	-0.573449
O132	O	0.592558	0.040355	-1.232067
C133	C	0.706082	0.108090	-1.355815
C134	C	0.673164	0.045920	-1.242058
H135	H	0.771253	0.112621	-1.363915
H136	H	0.693292	0.091551	-1.443581
H137	H	0.678054	0.166169	-1.344114
H138	H	0.701172	-0.012181	-1.253637
H139	H	0.685944	0.062525	-1.154335
O140	O	1.133165	-0.446242	-0.941293
C141	C	1.104739	-0.358677	-1.121359
C142	C	1.167002	-0.391517	-1.046030
H143	H	1.132069	-0.314414	-1.206040
H144	H	1.078514	-0.407613	-1.153195
H145	H	1.057518	-0.329655	-1.060547
H146	H	1.214269	-0.420532	-1.106766
H147	H	1.193165	-0.342551	-1.014180
H148	H	0.716496	0.007043	-1.171004
O149	O	1.091333	-0.497195	-0.991327
C150	C	1.048748	-0.387395	-0.896835
C151	C	1.066432	-0.474632	-0.875593
H152	H	1.028596	-0.369129	-0.803283
H153	H	1.103174	-0.353890	-0.948766
H154	H	1.001325	-0.374592	-0.954203
H155	H	1.113831	-0.487507	-0.818195
H156	H	1.011969	-0.508090	-0.823719
H157	H	0.900268	-0.290505	-0.626602
H158	H	1.249404	-0.777755	-0.800770
