data_functionalizedCrystal
_audit_creation_method	'MofGen! by Chris Wilmer'
_symmetry_space_group_name_H-M	'P1'
_symmetry_Int_Tables_number	1
_symmetry_cell_setting	triclinic
loop_
_symmetry_equiv_pos_as_xyz
  x,y,z
_cell_length_a	10.654554
_cell_length_b	10.654548
_cell_length_c	16.053802
_cell_angle_alpha	92.592334
_cell_angle_beta	87.393658
_cell_angle_gamma	84.485571
loop_
_atom_site_label
_atom_site_type_symbol
_atom_site_fract_x
_atom_site_fract_y
_atom_site_fract_z
O1	O	1.673089	0.171186	-0.069429
O2	O	1.307611	0.187985	-0.069430
O3	O	1.498754	-0.003154	-0.069428
O4	O	1.481946	0.362325	-0.069431
O5	O	1.488233	0.007323	0.069431
O6	O	1.297090	0.198463	0.069429
O7	O	1.662568	0.181663	0.069430
Zn8	Zn	1.478158	0.191726	0.091476
Zn9	Zn	1.492021	0.177922	-0.091476
O10	O	1.471425	0.372802	0.069428
C11	C	1.255553	0.191989	-0.000000
C12	C	1.116110	0.188295	-0.000001
C13	C	0.933549	0.068808	-0.000007
C14	C	1.064570	0.072279	-0.000001
C15	C	1.036620	0.300848	0.000002
C16	C	0.905601	0.297377	0.000002
C17	C	0.882018	-0.047216	-0.000015
C18	C	0.961499	-0.159770	-0.000016
C19	C	1.092520	-0.156300	-0.000010
C20	C	1.144060	-0.040275	-0.000003
C21	C	1.492260	-0.044713	0.000000
C22	C	1.488569	-0.184157	-0.000004
C23	C	1.489082	-0.386400	-0.075696
C24	C	1.492565	-0.255380	-0.075697
C25	C	1.481101	-0.243962	0.075695
C26	C	1.477627	-0.374981	0.075694
C27	C	1.493066	-0.457614	-0.151394
C28	C	1.500536	-0.397819	-0.227093
C29	C	1.504020	-0.266799	-0.227094
C30	C	1.500033	-0.195575	-0.151395
C31	C	1.714626	0.177659	-0.000002
C32	C	1.854070	0.181353	-0.000007
C33	C	1.477919	0.414361	-0.000002
C34	C	1.481611	0.553804	-0.000004
N35	N	1.468707	0.201146	0.216336
N36	N	1.501482	0.168492	-0.216337
C37	C	1.550069	0.119846	0.260031
C38	C	1.543469	0.126447	0.347438
C39	C	1.455513	0.214356	0.391148
C40	C	1.374142	0.295660	0.347447
C41	C	1.380737	0.289052	0.260042
C42	C	1.426706	0.243187	0.652557
C43	C	1.420120	0.249792	0.739969
C44	C	1.589446	0.080577	0.739953
C45	C	1.596038	0.073981	0.652546
C46	C	1.514663	0.155281	0.608853
N47	N	1.448767	0.221109	0.480492
N48	N	1.521404	0.148521	0.519511
H49	H	0.840886	0.389021	0.000005
C50	C	1.469410	-0.440768	0.158952
H51	H	1.467926	-0.528998	0.148108
H52	H	1.394517	-0.408015	0.190059
H53	H	1.540745	-0.425893	0.190049
C54	C	1.093307	0.428465	-0.000001
H55	H	1.027205	0.494998	0.000005
H56	H	1.147505	0.430913	-0.048424
H57	H	1.140168	0.438224	0.048428
H58	H	1.250747	-0.037457	0.000009
C59	C	1.646819	0.023143	0.211957
H60	H	1.694321	-0.024338	0.250502
H61	H	1.702064	0.066225	0.177847
H62	H	1.603752	-0.032140	0.177874
H63	H	1.477854	-0.185961	0.137325
C64	C	1.632979	0.037028	0.395499
H65	H	1.686320	-0.016259	0.356948
H66	H	1.584791	-0.013104	0.429609
H67	H	1.683073	0.085290	0.429580
H68	H	1.490225	-0.564297	-0.151402
H69	H	0.919526	-0.254234	-0.000029
C70	C	0.737900	-0.051032	-0.000025
H71	H	0.697945	0.032613	-0.000030
H72	H	0.709740	-0.090379	0.048392
H73	H	0.717103	-0.097670	-0.048460
H74	H	1.502882	-0.088891	-0.151402
H75	H	1.157229	-0.247946	-0.000003
H76	H	1.667659	0.002399	0.616959
H77	H	1.510114	-0.218118	-0.288731
C78	C	1.504923	-0.476159	-0.310354
H79	H	1.501767	-0.562752	-0.299515
H80	H	1.580957	-0.465980	-0.341458
H81	H	1.434730	-0.448083	-0.341452
C82	C	1.678938	-0.008855	0.788017
H83	H	1.662410	0.007659	0.846333
H84	H	1.763955	0.004474	0.773679
H85	H	1.665640	-0.093888	0.773700
H86	H	1.360450	0.309387	0.616989
C87	C	1.323297	0.346429	0.788049
H88	H	1.275750	0.393876	0.749509
H89	H	1.366288	0.401738	0.822156
H90	H	1.268087	0.303262	0.822136
C91	C	1.277395	0.392360	0.395526
H92	H	1.285128	0.384663	0.453840
H93	H	1.194539	0.376862	0.381218
H94	H	1.292850	0.475228	0.381189
H95	H	1.314482	0.355254	0.224467
