data_functionalizedCrystal
_audit_creation_method	'MofGen! by Chris Wilmer'
_symmetry_space_group_name_H-M	'P1'
_symmetry_Int_Tables_number	1
_symmetry_cell_setting	triclinic
loop_
_symmetry_equiv_pos_as_xyz
  x,y,z
_cell_length_a	13.033304
_cell_length_b	13.032318
_cell_length_c	13.032268
_cell_angle_alpha	90.931219
_cell_angle_beta	90.922231
_cell_angle_gamma	103.332818
loop_
_atom_site_label
_atom_site_type_symbol
_atom_site_fract_x
_atom_site_fract_y
_atom_site_fract_z
Zn1	Zn	-1.463065	0.323912	-0.735862
Zn2	Zn	-1.468462	0.473512	-0.542800
Zn3	Zn	-1.313527	0.318411	-0.542809
Zn4	Zn	-1.269972	0.516904	-0.686718
O5	O	-1.378757	0.408184	-0.627047
O6	O	-1.609432	0.327899	-0.730815
O7	O	-1.468396	0.432476	-0.401778
O8	O	-1.349333	0.173462	-0.588988
O9	O	-1.613397	0.437810	-0.588974
O10	O	-1.459198	0.177504	-0.730824
O11	O	-1.354566	0.318523	-0.401784
O12	O	-1.162099	0.360598	-0.541335
O13	O	-1.275100	0.511765	-0.834261
O14	O	-1.130099	0.506430	-0.647065
O15	O	-1.416965	0.369974	-0.870366
O16	O	-1.426163	0.624946	-0.541321
O17	O	-1.280333	0.656826	-0.647057
C18	C	-1.108333	0.437627	-0.588869
C19	C	-0.992638	0.450251	-0.572556
C20	C	-0.939072	0.401609	-0.635545
C21	C	-0.819495	0.414656	-0.618687
C22	C	-1.349133	0.678659	-0.588881
C23	C	-1.336549	0.794364	-0.572600
C24	C	-0.650238	0.378622	-0.665369
C25	C	-0.765931	0.366008	-0.681684
C26	C	-1.385249	0.847878	-0.635573
C27	C	-1.372245	0.967465	-0.618748
C28	C	-1.340572	0.446323	-0.889902
C29	C	-1.324300	0.462576	-1.001914
C30	C	-1.408458	1.136662	-0.665389
C31	C	-1.420951	1.020977	-0.681730
C32	C	-1.387237	0.399667	-1.069718
C33	C	-1.370421	0.416463	-1.185489
C34	C	-1.416861	0.370112	-0.365235
C35	C	-1.433367	0.353545	-0.253292
H36	H	-0.981738	0.350303	-0.701949
C37	C	-1.476850	0.310110	-1.032362
H38	H	-1.476401	0.310575	-0.959451
H39	H	-1.466810	0.244298	-1.057293
H40	H	-1.542634	0.320219	-1.057287
C41	C	-1.267215	0.852057	-0.482939
H42	H	-1.238341	0.802977	-0.445616
H43	H	-1.308860	0.883753	-0.438765
H44	H	-1.211650	0.905026	-0.509126
C45	C	-0.761871	0.483970	-0.528973
H46	H	-0.689061	0.483654	-0.529416
H47	H	-0.791132	0.456890	-0.465933
H48	H	-0.769857	0.554142	-0.536237
C49	C	-1.454558	0.790190	-0.725253
H50	H	-1.483413	0.839274	-0.762589
H51	H	-1.510121	0.737207	-0.699097
H52	H	-1.412882	0.758515	-0.769420
H53	H	-1.304078	0.482755	-1.213144
C54	C	-1.522983	0.263980	-1.215944
H55	H	-1.522535	0.264443	-1.143033
H56	H	-1.512939	0.198171	-1.240877
H57	H	-1.588768	0.274088	-1.240869
C58	C	-1.302906	1.025154	-0.529082
H59	H	-1.274033	0.976074	-0.491760
H60	H	-1.344551	1.056850	-0.484908
H61	H	-1.247341	1.078123	-0.555270
H62	H	-1.257962	0.528863	-1.029575
C63	C	-1.490288	0.963290	-0.771398
H64	H	-1.519149	1.012375	-0.808728
H65	H	-1.545847	0.910316	-0.745222
H66	H	-1.448632	0.931603	-0.815577
H67	H	-0.808592	0.314695	-0.748093
C68	C	-0.935011	0.519562	-0.482847
H69	H	-0.862200	0.519245	-0.483290
H70	H	-0.964271	0.492481	-0.419807
H71	H	-0.942996	0.589734	-0.490111
