data_functionalizedCrystal
_audit_creation_method	'MofGen! by Chris Wilmer'
_symmetry_space_group_name_H-M	'P1'
_symmetry_Int_Tables_number	1
_symmetry_cell_setting	triclinic
loop_
_symmetry_equiv_pos_as_xyz
  x,y,z
_cell_length_a	15.698487
_cell_length_b	21.606444
_cell_length_c	21.606444
_cell_angle_alpha	60.001331
_cell_angle_beta	90.003081
_cell_angle_gamma	59.998956
loop_
_atom_site_label
_atom_site_type_symbol
_atom_site_fract_x
_atom_site_fract_y
_atom_site_fract_z
Zr1	Zr	0.820615	0.677437	-0.081179
O2	O	0.684588	0.806562	-0.180005
O3	O	0.862315	0.548316	-0.050886
O4	O	0.862304	0.677440	-0.180005
O5	O	0.684606	0.677433	0.050967
O6	O	1.002489	0.677438	-0.180001
O7	O	0.684599	0.677438	-0.050887
O8	O	1.002508	0.446459	0.050968
O9	O	0.684586	0.908412	-0.180002
O10	O	0.984717	0.601422	-0.037961
O11	O	0.880104	0.601420	0.038049
O12	O	0.880091	0.753447	-0.113971
O13	O	0.775478	0.753446	-0.037961
Zr14	Zr	1.044204	0.677426	0.081272
Zr15	Zr	1.044193	0.677433	-0.081173
Zr16	Zr	0.820626	0.677430	0.081267
Zr17	Zr	0.820612	0.839877	-0.081174
Zr18	Zr	1.044206	0.514986	0.081267
O19	O	1.002503	0.806546	0.050980
O20	O	1.002487	0.806556	-0.179997
O21	O	0.684604	0.806552	0.050971
O22	O	1.180231	0.548301	0.180099
O23	O	1.180215	0.548311	-0.050878
O24	O	0.862332	0.548306	0.180090
O25	O	1.180213	0.677429	-0.050874
O26	O	1.002514	0.677422	0.180098
O27	O	0.862330	0.677425	0.180094
O28	O	1.180220	0.677425	0.050980
O29	O	0.862301	0.908409	-0.179997
O30	O	1.002517	0.446453	0.180091
O31	O	1.180232	0.446450	0.180095
O32	O	1.180223	0.446456	0.050973
O33	O	0.684595	0.908407	-0.050879
O34	O	0.862310	0.908404	-0.050875
O35	O	0.984727	0.601415	0.114065
O36	O	1.089340	0.601417	0.038055
O37	O	0.984715	0.753442	-0.037956
O38	O	0.880102	0.753441	0.038054
C39	C	0.932412	0.474243	0.000040
C40	C	0.932413	0.405283	0.000038
C41	C	0.987018	0.372886	-0.039640
C42	C	0.987021	0.308086	-0.039634
C43	C	0.932414	0.275689	0.000044
C44	C	0.877808	0.308088	0.039726
C45	C	0.877811	0.372883	0.039725
C46	C	0.877796	0.046779	0.039733
C47	C	0.877794	-0.018018	0.039729
C48	C	0.987006	-0.018017	-0.039627
C49	C	0.987009	0.046777	-0.039628
C50	C	0.932408	0.079168	0.000057
C51	C	0.932406	0.149430	0.000052
C52	C	0.932409	0.205432	0.000045
C53	C	0.652747	0.677436	0.000039
C54	C	0.557832	0.677438	0.000037
C55	C	0.480750	0.677440	0.000038
C56	C	0.384053	0.677435	0.000046
C57	C	1.212071	0.677426	0.000054
C58	C	1.306986	0.677425	0.000057
C59	C	0.932395	0.677440	-0.203148
C60	C	0.932390	0.677443	-0.272110
C61	C	0.932406	0.880619	0.000053
C62	C	0.932405	0.949579	0.000056
C63	C	0.877776	0.756798	-0.344186
C64	C	0.877785	0.756796	-0.408980
C65	C	0.932403	0.677437	-0.401698
C66	C	0.987024	0.598076	-0.329615
C67	C	0.987020	0.598079	-0.264822
C68	C	0.987040	0.598061	-0.590918
C69	C	0.987037	0.598064	-0.655719
C70	C	0.877805	0.756777	-0.735077
C71	C	0.877802	0.756780	-0.670283
C72	C	0.932427	0.677420	-0.598207
C73	C	0.932418	0.677423	-0.527949
C74	C	0.932406	0.677433	-0.471954
C75	C	0.932423	0.677423	0.203241
C76	C	0.932428	0.677420	0.272204
C77	C	1.212074	0.474238	0.000048
C78	C	1.306990	0.405277	0.000048
C79	C	0.932426	0.474235	0.203235
C80	C	0.932432	0.405271	0.272195
C81	C	1.212089	0.474230	0.203242
C82	C	1.307009	0.405265	0.272205
C83	C	0.652730	0.880633	-0.203149
C84	C	0.557810	0.949598	-0.272111
C85	C	0.652744	0.880624	0.000046
C86	C	0.557829	0.949586	0.000046
C87	C	0.932392	0.880628	-0.203141
C88	C	0.932386	0.949591	-0.272101
C89	C	1.296951	0.372894	-0.039638
C90	C	1.386126	0.308106	-0.039653
C91	C	1.485339	0.275697	0.000023
C92	C	1.495376	0.308086	0.039710
C93	C	1.406202	0.372878	0.039720
C94	C	0.987047	0.372883	0.344265
C95	C	0.987049	0.308094	0.409067
C96	C	0.932441	0.275690	0.401796
C97	C	0.877819	0.308085	0.329718
C98	C	0.877812	0.372877	0.264918
C99	C	1.406201	0.372879	0.264914
C100	C	1.495397	0.308088	0.329706
C101	C	1.485400	0.275680	0.401787
C102	C	1.386197	0.308072	0.409076
C103	C	1.297003	0.372866	0.344286
C104	C	0.458618	0.981991	-0.264821
C105	C	0.369421	1.046802	-0.329612
C106	C	0.379419	1.079214	-0.401694
C107	C	0.478621	1.046817	-0.408983
C108	C	0.567815	0.982012	-0.344192
C109	C	0.567867	0.981975	0.039725
C110	C	0.478693	1.046781	0.039722
C111	C	0.379480	1.079192	0.000044
C112	C	0.369443	1.046800	-0.039640
C113	C	0.458617	0.982000	-0.039641
C114	C	0.987005	0.981974	-0.264807
C115	C	0.987020	1.046764	-0.329596
C116	C	0.932409	1.079174	-0.401679
C117	C	0.877789	1.046784	-0.408972
C118	C	0.877781	0.981991	-0.344184
H119	H	0.833340	0.073140	0.072050
N120	N	1.045898	-0.052959	-0.082429
H121	H	1.100860	-0.118004	-0.046040
H122	H	1.080421	-0.022539	-0.107568
H123	H	0.833315	0.821414	-0.467665
N124	N	0.283306	1.149070	0.000064
H125	H	0.218926	1.164690	-0.031089
H126	H	0.283364	1.202787	-0.022493
H127	H	0.833343	0.399261	0.072033
H128	H	1.031516	0.399259	0.350200
N129	N	1.375419	0.273107	0.486822
H130	H	1.336026	0.322531	0.492908
H131	H	1.447013	0.227131	0.526708
H132	H	0.486885	1.073144	0.072040
H133	H	0.288652	1.073199	-0.071945
N134	N	0.447806	0.947053	-0.187085
H135	H	0.482382	0.958322	-0.158430
H136	H	0.482350	0.882021	-0.158492
H137	H	0.833293	0.821421	-0.350124
H138	H	1.216175	0.399281	-0.071956
H139	H	0.932424	1.131932	-0.454428
N140	N	1.045937	0.512484	-0.321764
H141	H	0.995852	0.508945	-0.346879
H142	H	1.080537	0.462261	-0.266257
H143	H	0.450428	0.955630	-0.071951
N144	N	1.045909	0.947028	-0.187065
H145	H	1.080511	0.977379	-0.192286
H146	H	1.100809	0.881981	-0.158453
N147	N	1.045961	0.512467	-0.647867
H148	H	1.017334	0.477761	-0.619240
H149	H	1.122345	0.477853	-0.619267
N150	N	0.818917	0.273142	0.082530
H151	H	0.827198	0.227180	0.076510
H152	H	0.742546	0.322631	0.061698
H153	H	1.216240	0.399227	0.350232
N154	N	1.045937	1.081688	-0.321720
H155	H	1.080520	1.051328	-0.266223
H156	H	0.995800	1.146735	-0.346876
N157	N	0.818883	1.081749	-0.486721
H158	H	0.847520	1.032323	-0.492805
H159	H	0.827198	1.127722	-0.526603
N160	N	1.375287	0.273182	-0.082461
H161	H	1.298904	0.303541	-0.107585
H162	H	1.409916	0.208135	-0.046035
N163	N	1.581515	0.205817	0.000007
H164	H	1.560091	0.190224	-0.031155
H165	H	1.624407	0.152088	0.053764
H166	H	0.288655	1.073168	-0.323662
H167	H	1.576167	0.281690	0.072012
N168	N	1.045968	0.273159	0.486801
H169	H	1.080568	0.303515	0.481568
H170	H	1.100871	0.208112	0.515417
H171	H	0.833299	0.955632	-0.350134
H172	H	1.031492	0.533460	-0.206135
N173	N	0.674870	0.947033	0.082513
H174	H	0.714316	0.881989	0.122447
H175	H	0.667598	0.977458	0.107594
H176	H	1.031480	0.399264	-0.071954
N177	N	0.283212	1.149110	-0.471572
H178	H	0.218860	1.164706	-0.456009
H179	H	0.283252	1.126515	-0.502733
N180	N	0.489396	1.081779	-0.486730
H181	H	0.417835	1.127744	-0.526662
H182	H	0.528820	1.032298	-0.492739
N183	N	0.932455	0.205805	0.471691
H184	H	0.975346	0.190207	0.518449
H185	H	0.963515	0.152081	0.471658
N186	N	1.602390	0.273147	0.321842
H187	H	1.610736	0.322585	0.293209
H188	H	1.610667	0.246249	0.293244
H189	H	1.031520	0.533441	-0.532239
H190	H	1.414361	0.399256	0.206227
H191	H	1.031485	0.281708	-0.071942
H192	H	0.648579	0.955638	-0.350137
N193	N	0.818894	0.842373	-0.678137
H194	H	0.784300	0.892646	-0.733630
H195	H	0.869042	0.845825	-0.652978
H196	H	1.031471	0.073156	-0.071941
H197	H	0.833330	0.821396	-0.793772
N198	N	0.818905	-0.052973	0.082533
H199	H	0.742506	-0.003540	0.061729
H200	H	0.847650	-0.079876	0.138031
N201	N	1.417037	0.407798	0.082529
H202	H	1.493421	0.377430	0.107661
H203	H	1.382428	0.396512	0.122424
N204	N	0.818930	0.273126	0.321882
H205	H	0.827235	0.227162	0.373873
H206	H	0.847613	0.246282	0.293238
H207	H	1.558036	0.222921	0.454538
N208	N	0.818840	0.407853	0.187186
H209	H	0.784232	0.377503	0.192421
H210	H	0.868927	0.396603	0.158533
