data_functionalizedCrystal
_audit_creation_method	'MofGen! by Chris Wilmer'
_symmetry_space_group_name_H-M	'P1'
_symmetry_Int_Tables_number	1
_symmetry_cell_setting	triclinic
loop_
_symmetry_equiv_pos_as_xyz
  x,y,z
_cell_length_a	12.759401
_cell_length_b	18.050590
_cell_length_c	12.759393
_cell_angle_alpha	89.961565
_cell_angle_beta	90.019676
_cell_angle_gamma	89.977081
loop_
_atom_site_label
_atom_site_type_symbol
_atom_site_fract_x
_atom_site_fract_y
_atom_site_fract_z
Zn1	Zn	1.606209	0.295615	0.593927
Zn2	Zn	1.606077	0.419823	0.418223
Zn3	Zn	1.430508	0.295652	0.418266
Zn4	Zn	1.430476	0.419769	0.593864
O5	O	1.518318	0.357715	0.506070
O6	O	1.753213	0.312099	0.570628
O7	O	1.582745	0.403390	0.271207
O8	O	1.453884	0.191723	0.441612
O9	O	1.753115	0.403354	0.441538
O10	O	1.582971	0.191695	0.570669
O11	O	1.453756	0.312162	0.271239
O12	O	1.283483	0.312109	0.441551
O13	O	1.453830	0.403261	0.740893
O14	O	1.283459	0.403297	0.570562
O15	O	1.582940	0.312046	0.740940
O16	O	1.582714	0.523740	0.441477
O17	O	1.453701	0.523700	0.570520
C18	C	1.245350	0.357702	0.506055
C19	C	1.128574	0.357714	0.506073
C20	C	1.073763	0.310284	0.573394
C21	C	0.964039	0.310291	0.573401
C22	C	0.963946	0.405167	0.438764
C23	C	1.073668	0.405155	0.438753
C24	C	1.518218	0.550667	0.506010
C25	C	1.518272	0.633213	0.506019
C26	C	1.588555	0.832658	0.435925
C27	C	1.614220	0.881983	0.531807
C28	C	1.518317	0.784343	0.506047
C29	C	1.492745	0.882100	0.410195
C30	C	1.518362	0.930328	0.506066
C31	C	1.544030	0.832581	0.601980
C32	C	1.422511	0.832693	0.480303
C33	C	1.448139	0.881996	0.576251
C34	C	1.518293	0.700245	0.506035
C35	C	1.518385	1.014425	0.506089
C36	C	1.792351	0.357728	0.506085
C37	C	1.909127	0.357734	0.506092
C38	C	1.518396	0.357643	0.780103
C39	C	1.518430	0.357613	0.896880
C40	C	1.518422	1.164009	0.506129
C41	C	1.518404	1.081463	0.506095
C42	C	1.518300	0.357732	0.233102
C43	C	1.518470	0.357553	0.116326
C44	C	1.585663	0.310110	0.951768
C45	C	1.585680	0.310078	1.061492
C46	C	1.451230	0.405059	1.061431
C47	C	1.451207	0.405086	0.951709
H48	H	1.118464	0.271652	0.628207
O49	O	1.650804	0.263952	0.898393
C50	C	1.664969	0.163681	0.774618
C51	C	1.591082	0.215924	0.834975
H52	H	1.616712	0.124827	0.723347
H53	H	1.719860	0.197747	0.723169
H54	H	1.713044	0.129757	0.832722
H55	H	1.542939	0.249859	0.776946
H56	H	1.536260	0.181816	0.886440
O57	O	1.569947	0.806874	0.698797
C58	C	1.617565	0.837952	0.876165
C59	C	1.588200	0.867166	0.766582
H60	H	1.632352	0.886683	0.930994
H61	H	1.550635	0.802796	0.908229
H62	H	1.691525	0.802739	0.870372
H63	H	1.514267	0.902410	0.772286
H64	H	1.655191	0.902282	0.734558
O65	O	0.910446	0.451228	0.373477
C66	C	0.741372	0.493266	0.313784
C67	C	0.801826	0.441073	0.387790
H68	H	0.653543	0.485063	0.325314
H69	H	0.762856	0.553179	0.332074
H70	H	0.762974	0.480158	0.229111
H71	H	0.780257	0.454114	0.472488
H72	H	0.780337	0.381176	0.369410
O73	O	1.325779	0.806926	0.454399
C74	C	1.142084	0.803826	0.497956
C75	C	1.251569	0.833073	0.527412
H76	H	1.082059	0.824942	0.556984
H77	H	1.120290	0.824159	0.416190
H78	H	1.142867	0.740675	0.498925
H79	H	1.250869	0.896223	0.526505
H80	H	1.273320	0.812684	0.609161
O81	O	1.467034	0.907959	0.313404
C82	C	1.512067	0.912252	0.130109
C83	C	1.541279	0.882906	0.239662
H84	H	1.572090	0.892021	0.070463
H85	H	1.430977	0.891110	0.107493
H86	H	1.511543	0.975402	0.131284
H87	H	1.541864	0.819758	0.238571
H88	H	1.622351	0.904104	0.262235
O89	O	1.385783	0.451129	0.898337
C90	C	1.243950	0.461140	0.774381
C91	C	1.317959	0.408918	0.834776
H92	H	1.189111	0.427033	0.722961
H93	H	1.195838	0.495057	0.832367
H94	H	1.292171	0.500001	0.723047
H95	H	1.269819	0.370011	0.886112
H96	H	1.366075	0.375053	0.776734
O97	O	1.386037	0.451152	1.114856
C98	C	1.326440	0.493174	1.283861
C99	C	1.400340	0.440946	1.223492
H100	H	1.337962	0.484929	1.371704
H101	H	1.344843	0.553080	1.262341
H102	H	1.241740	0.480139	1.262219
H103	H	1.485065	0.453914	1.245101
H104	H	1.381846	0.381055	1.245017
O105	O	0.910959	0.264195	0.638898
C106	C	0.922638	0.170063	0.772397
C107	C	0.982880	0.222244	0.698291
H108	H	0.980760	0.136120	0.820420
H109	H	0.871307	0.204175	0.827315
H110	H	0.871236	0.131224	0.724254
H111	H	1.034340	0.261093	0.746349
H112	H	1.034145	0.188085	0.643370
H113	H	1.695260	0.903636	0.553597
O114	O	1.126755	0.451302	0.373321
C115	C	1.115093	0.545375	0.239735
C116	C	1.054841	0.493169	0.313799
H117	H	1.056977	0.579227	0.191576
H118	H	1.166443	0.584291	0.287811
H119	H	1.166477	0.511211	0.184933
H120	H	1.003401	0.527273	0.368616
H121	H	1.003557	0.454251	0.265657
H122	H	1.647980	0.810994	0.376693
O123	O	1.650889	0.263955	1.114972
C124	C	1.710544	0.221836	1.284029
C125	C	1.636627	0.274101	1.223595
H126	H	1.699055	0.230032	1.371862
H127	H	1.692128	0.161943	1.262550
H128	H	1.795237	0.234879	1.262405
H129	H	1.551909	0.261125	1.245187
H130	H	1.655134	0.333979	1.245080
O131	O	1.377312	0.907809	0.647001
C132	C	1.297284	1.015052	0.725952
C133	C	1.377505	0.985917	0.645770
H134	H	1.297429	1.078206	0.724999
H135	H	1.215800	0.993959	0.704703
H136	H	1.319289	0.994552	0.807577
H137	H	1.355597	1.006405	0.564118
H138	H	1.458967	1.007004	0.667110
