data_functionalizedCrystal
_audit_creation_method	'MofGen! by Chris Wilmer'
_symmetry_space_group_name_H-M	'P1'
_symmetry_Int_Tables_number	1
_symmetry_cell_setting	triclinic
loop_
_symmetry_equiv_pos_as_xyz
  x,y,z
_cell_length_a	17.077404
_cell_length_b	18.050589
_cell_length_c	17.077396
_cell_angle_alpha	89.974523
_cell_angle_beta	89.982756
_cell_angle_gamma	90.028446
loop_
_atom_site_label
_atom_site_type_symbol
_atom_site_fract_x
_atom_site_fract_y
_atom_site_fract_z
Zn1	Zn	1.200008	-0.295649	-0.443864
Zn2	Zn	1.199908	-0.419848	-0.312606
Zn3	Zn	1.068745	-0.295677	-0.312612
Zn4	Zn	1.068696	-0.419802	-0.443830
O5	O	1.134339	-0.357744	-0.378228
O6	O	1.309842	-0.312132	-0.426464
O7	O	1.182488	-0.403407	-0.202760
O8	O	1.086220	-0.191748	-0.330039
O9	O	1.309768	-0.403380	-0.330030
O10	O	1.182658	-0.191728	-0.426469
O11	O	1.086123	-0.312179	-0.202764
O12	O	0.958892	-0.312135	-0.330006
O13	O	1.086136	-0.403302	-0.553681
O14	O	0.958855	-0.403329	-0.426412
O15	O	1.182610	-0.312087	-0.553706
O16	O	1.182440	-0.523766	-0.329997
O17	O	1.086039	-0.523733	-0.426407
C18	C	0.930391	-0.357730	-0.378206
C19	C	0.843142	-0.357743	-0.378216
C20	C	0.802153	-0.405299	-0.428333
C21	C	0.720173	-0.405301	-0.428346
C22	C	0.679182	-0.357749	-0.378236
C23	C	0.720176	-0.310187	-0.328116
C24	C	0.802155	-0.310182	-0.328108
C25	C	0.549306	-0.310202	-0.328135
C26	C	0.467322	-0.310207	-0.328142
C27	C	0.467324	-0.405320	-0.428373
C28	C	0.549303	-0.405315	-0.428365
C29	C	0.590291	-0.357754	-0.378244
C30	C	1.134244	-0.550696	-0.378215
C31	C	1.134276	-0.633242	-0.378236
C32	C	1.081904	-0.832701	-0.430645
C33	C	1.062772	-0.882144	-0.359016
C34	C	1.134353	-0.784372	-0.378246
C35	C	1.153524	-0.882011	-0.449883
C36	C	1.134426	-0.930357	-0.378262
C37	C	1.115183	-0.832728	-0.306579
C38	C	1.205968	-0.832591	-0.397495
C39	C	1.186863	-0.882011	-0.325816
C40	C	1.134309	-0.700274	-0.378238
C41	C	1.134470	-1.014454	-0.378262
C42	C	1.339083	-0.357758	-0.378250
C43	C	1.426333	-0.357764	-0.378260
C44	C	1.134379	-0.357686	-0.582972
C45	C	1.134395	-0.357662	-0.670222
C46	C	1.134456	-0.164038	-0.378258
C47	C	1.134505	-0.081492	-0.378271
C48	C	1.084234	-0.310154	-0.711214
C49	C	1.084246	-0.310137	-0.793194
C50	C	1.134426	-0.357625	-0.834182
C51	C	1.184590	-0.405138	-0.793184
C52	C	1.184572	-0.405158	-0.711205
C53	C	1.184624	-0.405092	-0.964054
C54	C	1.184642	-0.405071	-1.046039
C55	C	1.084298	-0.310070	-1.046043
C56	C	1.084280	-0.310090	-0.964064
C57	C	1.134446	-0.357603	-0.923073
C58	C	1.134345	-0.357748	-0.174280
C59	C	1.134480	-0.357563	-0.087031
H60	H	0.433947	-0.444044	-0.469186
C61	C	0.984516	-0.863302	-0.526730
C62	C	1.021944	-0.803465	-0.490378
H63	H	0.947495	-0.845250	-0.563600
H64	H	1.022289	-0.892928	-0.552897
H65	H	0.958369	-0.892302	-0.488344
H66	H	1.048095	-0.774468	-0.528764
H67	H	0.984164	-0.773827	-0.464211
C68	C	0.475550	-0.216178	-0.229080
C69	C	0.422263	-0.257932	-0.273067
H70	H	0.447730	-0.183902	-0.195083
H71	H	0.507496	-0.248491	-0.198987
H72	H	0.507552	-0.187814	-0.263340
H73	H	0.390264	-0.286301	-0.238807
H74	H	0.390303	-0.225615	-0.303162
C75	C	1.039653	-0.267997	-0.585550
C76	C	1.029075	-0.257952	-0.666163
H77	H	1.005601	-0.235766	-0.557741
H78	H	1.028131	-0.317891	-0.572108
H79	H	1.092401	-0.257133	-0.572130
H80	H	0.976329	-0.268821	-0.679584
H81	H	1.040592	-0.208046	-0.679611
C82	C	0.793912	-0.499306	-0.527416
C83	C	0.847206	-0.457568	-0.483420
H84	H	0.821726	-0.531570	-0.561429
H85	H	0.761914	-0.527675	-0.493168
H86	H	0.761962	-0.466977	-0.557498
H87	H	0.879153	-0.489897	-0.453332
H88	H	0.879218	-0.429197	-0.517672
H89	H	0.686803	-0.444027	-0.469156
H90	H	1.225443	-0.443808	-0.826563
C91	C	0.541074	-0.499328	-0.527444
C92	C	0.594361	-0.457584	-0.483446
H93	H	0.568894	-0.531593	-0.561453
H94	H	0.509075	-0.527698	-0.493197
H95	H	0.509124	-0.467003	-0.557531
H96	H	0.626308	-0.489910	-0.453354
H97	H	0.626374	-0.429213	-0.517697
H98	H	0.582677	-0.271466	-0.287328
C99	C	0.978664	-0.299799	-0.885352
C100	C	1.029093	-0.257920	-0.838243
H101	H	0.944606	-0.267562	-0.913155
H102	H	1.008547	-0.328065	-0.921498
H103	H	0.948628	-0.332164	-0.853346
H104	H	1.059134	-0.225558	-0.870249
H105	H	0.999207	-0.229641	-0.802092
H106	H	1.266482	-0.810810	-0.413795
H107	H	1.002244	-0.903926	-0.342749
H108	H	1.098927	-0.811169	-0.245986
H109	H	1.231248	-0.903526	-0.281460
H110	H	1.169709	-0.903660	-0.510460
C111	C	0.627947	-0.299744	-0.222555
C112	C	0.675121	-0.257915	-0.273036
H113	H	0.600137	-0.267472	-0.188548
H114	H	0.591807	-0.328062	-0.252405
H115	H	0.659910	-0.332058	-0.192468
H116	H	0.643157	-0.225604	-0.303128
H117	H	0.711266	-0.229584	-0.243183
C118	C	0.927825	-0.267941	-0.283595
C119	C	0.847214	-0.257907	-0.273017
H120	H	0.955640	-0.235661	-0.249588
H121	H	0.941230	-0.317818	-0.272012
H122	H	0.941276	-0.257134	-0.336358
H123	H	0.833762	-0.268719	-0.220255
H124	H	0.833805	-0.208019	-0.284595
C125	C	1.039737	-0.267876	-1.171709
C126	C	1.029138	-0.257858	-1.091098
H127	H	1.005680	-0.235648	-1.199525
H128	H	1.092478	-0.256998	-1.185156
H129	H	1.028228	-0.317776	-1.185117
H130	H	1.040653	-0.207959	-1.077689
H131	H	0.976385	-0.268731	-1.077646
C132	C	1.283815	-0.498990	-1.037805
C133	C	1.239794	-0.457276	-1.091095
H134	H	1.317859	-0.531222	-1.065623
H135	H	1.313858	-0.466650	-1.005840
H136	H	1.249579	-0.527399	-1.005821
H137	H	1.274030	-0.428862	-1.123075
H138	H	1.209748	-0.489620	-1.123073
H139	H	1.225425	-0.443839	-0.677831
H140	H	1.043423	-0.271418	-0.930695
H141	H	1.225481	-0.443775	-0.930682
