data_functionalizedCrystal
_audit_creation_method	'MofGen! by Chris Wilmer'
_symmetry_space_group_name_H-M	'P1'
_symmetry_Int_Tables_number	1
_symmetry_cell_setting	triclinic
loop_
_symmetry_equiv_pos_as_xyz
  x,y,z
_cell_length_a	13.897448
_cell_length_b	18.215407
_cell_length_c	13.897431
_cell_angle_alpha	90.048994
_cell_angle_beta	89.924096
_cell_angle_gamma	89.986687
loop_
_atom_site_label
_atom_site_type_symbol
_atom_site_fract_x
_atom_site_fract_y
_atom_site_fract_z
Zn1	Zn	-0.383666	-1.125335	-0.545363
Zn2	Zn	-0.050332	-0.792002	-0.212029
Zn3	Zn	0.283001	-0.458669	0.121304
Zn4	Zn	-0.545115	-1.125192	-0.384064
Zn5	Zn	-0.211781	-0.791859	-0.050730
Zn6	Zn	0.121552	-0.458526	0.282603
Zn7	Zn	-0.383823	-1.002201	-0.384083
Zn8	Zn	-0.050490	-0.668868	-0.050750
Zn9	Zn	0.282844	-0.335534	0.282584
Zn10	Zn	-0.544908	-1.002249	-0.545319
Zn11	Zn	-0.211575	-0.668916	-0.211985
Zn12	Zn	0.121759	-0.335583	0.121348
O13	O	-0.464378	-1.063745	-0.464707
O14	O	-0.131045	-0.730411	-0.131374
O15	O	0.202289	-0.397078	0.201960
O16	O	-0.405103	-1.228301	-0.523976
O17	O	-0.071769	-0.894967	-0.190643
O18	O	0.261564	-0.561634	0.142690
O19	O	-0.523872	-1.108797	-0.249084
O20	O	-0.190538	-0.775464	0.084249
O21	O	0.142795	-0.442130	0.417582
O22	O	-0.248821	-1.018575	-0.405503
O23	O	0.084513	-0.685241	-0.072170
O24	O	0.417846	-0.351908	0.261163
O25	O	-0.523719	-1.228196	-0.405471
O26	O	-0.190386	-0.894862	-0.072137
O27	O	0.142948	-0.561529	0.261196
O28	O	-0.248705	-1.109041	-0.523995
O29	O	0.084629	-0.775708	-0.190662
O30	O	0.417962	-0.442374	0.142672
O31	O	-0.405371	-1.018436	-0.249098
O32	O	-0.072038	-0.685103	0.084235
O33	O	0.261295	-0.351769	0.417568
O34	O	-0.405171	-0.899223	-0.405461
O35	O	-0.071837	-0.565890	-0.072127
O36	O	0.261496	-0.232556	0.261206
O37	O	-0.523366	-1.018657	-0.680307
O38	O	-0.190033	-0.685324	-0.346973
O39	O	0.143300	-0.351991	-0.013640
O40	O	-0.523519	-0.899259	-0.523920
O41	O	-0.190186	-0.565925	-0.190587
O42	O	0.143148	-0.232592	0.142747
O43	O	-0.404902	-1.109088	-0.680339
O44	O	-0.071569	-0.775755	-0.347005
O45	O	0.261764	-0.442421	-0.013672
O46	O	-0.680069	-1.108844	-0.405428
O47	O	-0.346736	-0.775511	-0.072095
O48	O	-0.013402	-0.442177	0.261238
O49	O	-0.679917	-1.018518	-0.523902
O50	O	-0.346584	-0.685185	-0.190568
O51	O	-0.013250	-0.351852	0.142765
C52	C	-0.464340	-0.872538	-0.464688
C53	C	-0.131007	-0.539205	-0.131355
C54	C	0.202326	-0.205872	0.201978
C55	C	-0.464347	-0.790739	-0.464703
C56	C	-0.131014	-0.457406	-0.131370
C57	C	0.202319	-0.124073	0.201963
C58	C	-0.402703	-0.602599	-0.526505
C59	C	-0.069370	-0.269266	-0.193171
C60	C	0.263964	0.064067	0.140162
C61	C	-0.402708	-0.525741	-0.526507
C62	C	-0.069375	-0.192407	-0.193174
C63	C	0.263959	0.140926	0.140159
C64	C	-0.526038	-0.525642	-0.402917
C65	C	-0.192705	-0.192308	-0.069583
C66	C	0.140629	0.141025	0.263750
C67	C	-0.526027	-0.602499	-0.402910
C68	C	-0.192694	-0.269166	-0.069577
C69	C	0.140639	0.064168	0.263756
C70	C	-0.464361	-0.640976	-0.464710
C71	C	-0.131028	-0.307643	-0.131376
C72	C	0.202305	0.025691	0.201957
C73	C	-0.464377	-0.487260	-0.464719
C74	C	-0.131044	-0.153926	-0.131385
C75	C	0.202290	0.179407	0.201948
C76	C	-0.464383	-0.403926	-0.464721
C77	C	-0.131050	-0.070593	-0.131388
C78	C	0.202284	0.262741	0.201946
C79	C	-0.464354	-0.724315	-0.464706
C80	C	-0.131021	-0.390982	-0.131373
C81	C	0.202313	-0.057648	0.201960
C82	C	-0.714992	-1.063691	-0.464679
C83	C	-0.381659	-0.730357	-0.131346
C84	C	-0.048326	-0.397024	0.201988
C85	C	-0.822206	-1.063735	-0.464699
C86	C	-0.488873	-0.730402	-0.131366
C87	C	-0.155539	-0.397069	0.201967
C88	C	-1.018501	-1.063812	-0.464760
C89	C	-0.685168	-0.730479	-0.131427
C90	C	-0.351834	-0.397146	0.201907
C91	C	-0.909269	-1.063767	-0.464729
C92	C	-0.575935	-0.730434	-0.131396
C93	C	-0.242602	-0.397101	0.201937
C94	C	-0.212785	-1.063819	-0.464756
C95	C	0.120548	-0.730485	-0.131423
C96	C	0.453882	-0.397152	0.201911
C97	C	-0.105571	-1.063850	-0.464777
C98	C	0.227762	-0.730517	-0.131444
C99	C	0.561096	-0.397183	0.201890
C100	C	-0.464094	-1.063894	-0.716301
C101	C	-0.130760	-0.730561	-0.382967
C102	C	0.202573	-0.397227	-0.049634
C103	C	-0.463973	-1.063958	-0.823515
C104	C	-0.130639	-0.730624	-0.490181
C105	C	0.202694	-0.397291	-0.156848
C106	C	-0.464406	-0.255697	-0.464724
C107	C	-0.131073	0.077636	-0.131391
C108	C	0.202261	0.410969	0.201943
C109	C	-0.464391	-0.337496	-0.464725
C110	C	-0.131058	-0.004163	-0.131392
C111	C	0.202276	0.329170	0.201941
C112	C	-0.464591	-1.063638	-0.214092
C113	C	-0.131258	-0.730305	0.119241
C114	C	0.202075	-0.396971	0.452574
C115	C	-0.464441	-1.063717	-0.106879
C116	C	-0.131107	-0.730384	0.226455
C117	C	0.202226	-0.397050	0.559788
C118	C	-0.464304	-1.063793	-0.019809
C119	C	-0.130970	-0.730460	0.313524
C120	C	0.202363	-0.397127	0.646858
C121	C	-0.464122	-1.063887	0.089423
C122	C	-0.130789	-0.730553	0.422756
C123	C	0.202544	-0.397220	0.756090
H124	H	-0.352488	-0.633925	-0.576823
H125	H	-0.019154	-0.300591	-0.243490
H126	H	0.314179	0.032742	0.089844
H127	H	-0.352498	-0.494498	-0.576826
H128	H	-0.019165	-0.161164	-0.243492
H129	H	0.314168	0.172169	0.089841
H130	H	-0.576245	-0.494305	-0.352603
H131	H	-0.242912	-0.160971	-0.019270
H132	H	0.090421	0.172362	0.314064
H133	H	-0.576238	-0.633746	-0.352584
H134	H	-0.242905	-0.300413	-0.019251
H135	H	0.090429	0.032920	0.314083
