data_functionalizedCrystal
_audit_creation_method	'MofGen! by Chris Wilmer'
_symmetry_space_group_name_H-M	'P1'
_symmetry_Int_Tables_number	1
_symmetry_cell_setting	triclinic
loop_
_symmetry_equiv_pos_as_xyz
  x,y,z
_cell_length_a	12.759401
_cell_length_b	19.121063
_cell_length_c	12.759393
_cell_angle_alpha	92.402665
_cell_angle_beta	89.982620
_cell_angle_gamma	92.469017
loop_
_atom_site_label
_atom_site_type_symbol
_atom_site_fract_x
_atom_site_fract_y
_atom_site_fract_z
Zn1	Zn	1.588309	-0.279567	-0.611771
Zn2	Zn	1.580672	-0.397036	-0.443566
Zn3	Zn	1.412612	-0.279604	-0.436113
Zn4	Zn	1.405068	-0.396981	-0.619204
O5	O	1.496665	-0.338297	-0.527664
O6	O	1.734317	-0.295157	-0.589467
O7	O	1.558339	-0.381497	-0.295559
O8	O	1.442273	-0.181315	-0.453184
O9	O	1.728705	-0.381461	-0.465888
O10	O	1.571357	-0.181288	-0.582240
O11	O	1.434867	-0.295220	-0.290083
O12	O	1.264591	-0.295167	-0.460392
O13	O	1.429414	-0.381368	-0.765237
O14	O	1.259048	-0.381404	-0.594908
O15	O	1.564041	-0.295104	-0.759776
O16	O	1.551023	-0.495313	-0.473095
O17	O	1.422008	-0.495273	-0.602136
C18	C	1.223699	-0.338284	-0.527649
C19	C	1.106921	-0.338295	-0.527668
C20	C	1.049196	-0.383271	-0.597604
C21	C	0.939471	-0.383280	-0.597616
C22	C	0.945207	-0.293336	-0.457747
C23	C	1.054930	-0.293324	-0.457741
C24	C	1.101187	-0.428242	-0.667532
C25	C	1.043462	-0.473222	-0.737473
C26	C	0.933737	-0.473231	-0.737485
C27	C	0.881738	-0.428260	-0.667556
C28	C	1.484897	-0.520777	-0.539254
C29	C	1.479958	-0.598842	-0.544247
C30	C	1.544862	-0.635515	-0.479464
C31	C	1.540223	-0.708866	-0.484167
C32	C	1.470675	-0.745543	-0.553647
C33	C	1.405769	-0.708865	-0.618437
C34	C	1.410414	-0.635515	-0.613740
C35	C	1.453294	-0.967011	-0.571195
C36	C	1.448652	-1.040366	-0.575886
C37	C	1.583108	-1.040362	-0.441616
C38	C	1.587742	-0.967011	-0.436920
C39	C	1.522840	-0.930340	-0.501714
C40	C	1.465930	-0.820519	-0.558453
C41	C	1.527591	-0.855365	-0.496912
C42	C	1.770698	-0.338311	-0.527680
C43	C	1.887474	-0.338316	-0.527686
C44	C	1.496738	-0.338226	-0.801693
C45	C	1.496769	-0.338195	-0.918468
C46	C	1.508508	-0.155105	-0.516052
C47	C	1.513555	-0.077039	-0.511103
C48	C	1.432506	-0.293262	-0.970484
C49	C	1.432539	-0.293242	-1.080207
C50	C	1.561107	-0.383088	-1.085887
C51	C	1.561068	-0.383112	-0.976167
C52	C	1.368207	-0.248346	-0.912784
C53	C	1.303940	-0.203409	-0.964800
C54	C	1.303973	-0.203388	-1.074523
C55	C	1.368274	-0.248304	-1.132230
C56	C	1.496656	-0.338318	-0.254698
C57	C	1.496842	-0.338150	-0.137911
H58	H	0.902861	-0.256724	-0.400813
H59	H	1.085807	-0.509831	-0.794413
H60	H	1.251583	-0.166844	-0.917809
H61	H	1.409302	-0.850390	-0.615023
O62	O	1.623544	-0.426644	-1.142098
C63	C	1.680545	-0.466447	-1.313650
C64	C	1.609798	-0.417075	-1.250122
H65	H	1.669441	-0.458738	-1.400999
H66	H	1.766073	-0.454120	-1.291370
H67	H	1.658442	-0.523078	-1.295604
H68	H	1.631808	-0.360428	-1.268135
H69	H	1.524288	-0.429463	-1.272411
H70	H	0.792393	-0.428265	-0.667580
O71	O	1.623585	-0.426784	-0.925795
C72	C	1.751049	-0.515937	-0.943002
C73	C	1.680326	-0.466496	-1.000179
H74	H	1.796926	-0.548067	-1.003116
H75	H	1.808121	-0.483746	-0.889615
H76	H	1.700391	-0.552635	-0.893935
H77	H	1.730900	-0.429788	-1.049302
H78	H	1.623249	-0.498731	-1.053502
H79	H	1.584221	-0.825500	-0.440345
H80	H	1.593074	-0.738722	-0.431413
H81	H	1.368175	-0.248356	-0.823442
H82	H	0.886740	-0.509850	-0.794441
O83	O	1.612511	-0.599999	-0.411940
C84	C	1.745337	-0.607746	-0.279215
C85	C	1.668787	-0.648052	-0.355655
H86	H	1.790841	-0.646579	-0.233673
H87	H	1.802494	-0.573367	-0.325243
H88	H	1.699286	-0.573445	-0.222086
H89	H	1.714751	-0.682391	-0.412802
H90	H	1.611630	-0.682387	-0.309560
H91	H	1.251636	-0.166803	-1.116872
H92	H	1.644373	-0.937151	-0.380343
H93	H	1.190530	-0.428241	-0.667528
O94	O	1.110850	-0.249620	-0.389696
C95	C	1.104971	-0.160391	-0.250991
C96	C	1.041513	-0.209862	-0.327980
H97	H	1.048940	-0.128224	-0.201088
H98	H	1.154219	-0.192561	-0.197951
H99	H	1.158748	-0.123729	-0.296997
H100	H	0.987678	-0.246534	-0.282059
H101	H	0.992334	-0.177648	-0.381020
H102	H	1.635949	-1.070228	-0.388866
H103	H	1.392030	-1.070226	-0.632484
H104	H	1.400446	-0.937159	-0.623951
H105	H	1.357564	-0.605657	-0.666494
O106	O	1.338237	-0.744599	-0.685840
C107	C	1.271530	-0.857597	-0.752623
C108	C	1.348045	-0.817218	-0.676228
H109	H	1.279450	-0.916316	-0.744894
H110	H	1.187708	-0.843282	-0.733182
H111	H	1.290840	-0.843077	-0.836415
H112	H	1.328832	-0.831716	-0.592410
H113	H	1.431845	-0.831536	-0.695760
H114	H	1.368293	-0.248285	-1.221574
