data_functionalizedCrystal
_audit_creation_method	'MofGen! by Chris Wilmer'
_symmetry_space_group_name_H-M	'P1'
_symmetry_Int_Tables_number	1
_symmetry_cell_setting	triclinic
loop_
_symmetry_equiv_pos_as_xyz
  x,y,z
_cell_length_a	17.077402
_cell_length_b	12.759401
_cell_length_c	12.759393
_cell_angle_alpha	89.979062
_cell_angle_beta	90.034688
_cell_angle_gamma	89.975592
loop_
_atom_site_label
_atom_site_type_symbol
_atom_site_fract_x
_atom_site_fract_y
_atom_site_fract_z
Zn1	Zn	-0.312438	-1.606207	0.593990
Zn2	Zn	-0.443724	-1.606073	0.418297
Zn3	Zn	-0.312480	-1.430505	0.418325
Zn4	Zn	-0.443669	-1.430472	0.593934
O5	O	-0.378078	-1.518314	0.506136
O6	O	-0.329859	-1.753210	0.570695
O7	O	-0.426355	-1.582741	0.271279
O8	O	-0.202628	-1.453882	0.441662
O9	O	-0.426314	-1.753111	0.441614
O10	O	-0.202597	-1.582969	0.570722
O11	O	-0.329930	-1.453753	0.271300
O12	O	-0.329877	-1.283480	0.441608
O13	O	-0.426221	-1.453826	0.740962
O14	O	-0.426261	-1.283456	0.570627
O15	O	-0.329806	-1.582937	0.741003
O16	O	-0.553564	-1.582709	0.441560
O17	O	-0.553524	-1.453696	0.570600
C18	C	-0.378068	-1.245347	0.506115
C19	C	-0.378083	-1.128570	0.506131
C20	C	-0.582026	-1.518213	0.506094
C21	C	-0.669276	-1.518266	0.506111
C22	C	-0.378003	-1.518393	0.780170
C23	C	-0.377971	-1.518426	0.896946
C24	C	-0.710261	-1.585511	0.438993
C25	C	-0.792241	-1.585563	0.439019
C26	C	-0.833235	-1.518362	0.506161
C27	C	-0.792244	-1.451114	0.573287
C28	C	-0.710265	-1.451068	0.573265
C29	C	-0.963114	-1.451211	0.573327
C30	C	-1.045099	-1.451255	0.573348
C31	C	-1.045090	-1.585705	0.439082
C32	C	-0.963111	-1.585660	0.439059
C33	C	-0.922126	-1.518410	0.506184
C34	C	-0.173334	-1.518445	0.506201
C35	C	-0.086084	-1.518500	0.506229
C36	C	-0.378088	-1.792347	0.506158
C37	C	-0.378093	-1.909124	0.506167
C38	C	-0.428347	-1.073723	0.573206
C39	C	-0.428350	-0.963999	0.573227
C40	C	-0.327823	-0.963979	0.439089
C41	C	-0.327817	-1.073701	0.439075
C42	C	-0.378096	-1.518296	0.233169
C43	C	-0.377907	-1.518466	0.116393
C44	C	-0.327759	-1.585660	0.951831
C45	C	-0.327725	-1.585677	1.061555
C46	C	-0.428121	-1.451226	1.061500
C47	C	-0.428150	-1.451203	0.951778
H48	H	-0.825608	-1.640320	0.384364
H49	H	-0.286837	-1.640424	1.106238
H50	H	-0.468977	-1.396497	1.106157
H51	H	-0.286881	-1.118359	0.384454
H52	H	-0.286897	-1.640394	0.907191
C53	C	-0.483384	-1.377234	0.891401
C54	C	-0.449375	-1.294756	0.815976
C55	C	-0.504601	-1.220784	0.755601
C56	C	-0.593836	-1.229288	0.770650
C57	C	-0.627849	-1.311769	0.846078
C58	C	-0.572623	-1.385742	0.906453
H59	H	-0.383314	-1.288458	0.804833
H60	H	-0.479422	-1.159726	0.699764
H61	H	-0.634718	-1.174529	0.725956
H62	H	-0.693910	-1.318068	0.857221
H63	H	-0.597802	-1.446800	0.962290
C64	C	-0.665171	-1.659434	0.365135
C65	C	-0.676522	-1.650935	0.245695
C66	C	-0.631434	-1.724863	0.171838
C67	C	-0.574995	-1.807290	0.217422
C68	C	-0.563641	-1.815793	0.336869
C69	C	-0.608729	-1.741865	0.410726
H70	H	-0.718304	-1.589914	0.211945
H71	H	-0.639839	-1.718568	0.083415
H72	H	-0.541618	-1.862016	0.162749
H73	H	-0.521860	-1.876813	0.370619
H74	H	-0.600324	-1.748160	0.499148
H75	H	-0.286900	-0.919291	0.384493
H76	H	-1.078464	-1.640466	0.384429
C77	C	-0.918018	-1.659579	0.365202
C78	C	-0.929366	-1.651076	0.245761
C79	C	-0.884274	-1.724998	0.171904
C80	C	-0.827834	-1.807425	0.217487
C81	C	-0.816484	-1.815932	0.336934
C82	C	-0.861576	-1.742009	0.410792
H83	H	-0.971149	-1.590056	0.212011
H84	H	-0.892677	-1.718701	0.083481
H85	H	-0.794454	-1.862147	0.162814
H86	H	-0.774701	-1.876951	0.370684
H87	H	-0.853173	-1.748307	0.499214
H88	H	-1.078474	-1.396554	0.628040
H89	H	-0.469279	-0.919347	0.627847
C90	C	-0.918027	-1.377232	0.647158
C91	C	-0.929377	-1.257807	0.638470
C92	C	-0.884289	-1.183825	0.712292
C93	C	-0.827849	-1.229267	0.794803
C94	C	-0.816496	-1.348698	0.803495
C95	C	-0.861585	-1.422680	0.729673
H96	H	-0.971159	-1.224162	0.577387
H97	H	-0.892693	-1.095414	0.705858
H98	H	-0.794472	-1.174501	0.849451
H99	H	-0.774714	-1.382343	0.864578
H100	H	-0.853180	-1.511091	0.736108
H101	H	-0.676896	-1.396311	0.627921
H102	H	-0.825628	-1.396402	0.627959
H103	H	-0.469275	-1.118394	0.627811
