data_functionalizedCrystal
_audit_creation_method	'MofGen! by Chris Wilmer'
_symmetry_space_group_name_H-M	'P1'
_symmetry_Int_Tables_number	1
_symmetry_cell_setting	triclinic
loop_
_symmetry_equiv_pos_as_xyz
  x,y,z
_cell_length_a	34.571875
_cell_length_b	34.571051
_cell_length_c	34.567439
_cell_angle_alpha	60.004367
_cell_angle_beta	60.008842
_cell_angle_gamma	59.994195
loop_
_atom_site_label
_atom_site_type_symbol
_atom_site_fract_x
_atom_site_fract_y
_atom_site_fract_z
O1	O	0.053721	-0.565181	0.472559
O2	O	0.020283	-0.440038	0.380761
O3	O	0.099534	-0.519209	0.380676
O4	O	-0.025530	-0.486010	0.472643
O5	O	0.125831	-0.492917	0.406885
O6	O	0.046580	-0.413746	0.406969
O7	O	0.080018	-0.538889	0.498767
Zn8	Zn	0.067475	-0.472143	0.457030
Zn9	Zn	0.032827	-0.506784	0.422498
O10	O	0.000767	-0.459718	0.498852
N11	N	0.091122	-0.448505	0.480598
N12	N	0.009184	-0.530426	0.398930
C13	C	0.124402	-0.415465	0.717633
C14	C	0.328327	-0.415388	0.513477
C15	C	0.124221	-0.415437	0.513630
C16	C	0.124201	-0.211364	0.513624
C17	C	0.157075	-0.309853	0.546423
C18	C	0.157084	-0.382601	0.546423
C19	C	0.175289	-0.364414	0.564591
C20	C	0.254624	-0.350722	0.522790
C21	C	0.304220	-0.367243	0.506229
C22	C	0.304249	-0.447494	0.536832
C23	C	0.254655	-0.430972	0.553394
C24	C	0.169014	-0.285043	0.497667
C25	C	0.152454	-0.235444	0.481153
C26	C	0.112020	-0.235469	0.562154
C27	C	0.128580	-0.285068	0.578668
C28	C	0.108321	-0.370634	0.558439
C29	C	0.091776	-0.387168	0.541918
C30	C	0.172754	-0.427637	0.501375
C31	C	0.189301	-0.411103	0.517891
C32	C	0.108399	-0.370649	0.643978
C33	C	0.091911	-0.387197	0.693575
C34	C	0.172928	-0.427676	0.693511
C35	C	0.189415	-0.411128	0.643912
C36	C	0.157149	-0.382613	0.619147
C37	C	0.229844	-0.382585	0.546371
C38	C	0.105624	-0.433333	0.772186
C39	C	0.382878	-0.432925	0.495007
C40	C	0.105380	-0.433313	0.495792
C41	C	0.105683	-0.156808	0.496094
C42	C	-0.023527	-0.563458	0.161535
C43	C	-0.023851	-0.767445	0.365663
C44	C	-0.023821	-0.563448	0.365756
C45	C	-0.227785	-0.563229	0.365355
C46	C	-0.129302	-0.596153	0.332678
C47	C	-0.056593	-0.596234	0.332823
C48	C	-0.074746	-0.614396	0.314578
C49	C	-0.088477	-0.693710	0.356299
C50	C	-0.071982	-0.743310	0.372851
C51	C	0.008266	-0.743392	0.342376
C52	C	-0.008230	-0.693794	0.325823
C53	C	-0.154162	-0.608103	0.381422
C54	C	-0.203757	-0.591517	0.397874
C55	C	-0.203630	-0.551037	0.316836
C56	C	-0.154034	-0.567623	0.300384
C57	C	-0.068543	-0.547475	0.320829
C58	C	-0.052041	-0.530969	0.337421
C59	C	-0.011639	-0.611977	0.377990
C60	C	-0.028141	-0.628485	0.361404
C61	C	-0.068417	-0.547482	0.235199
C62	C	-0.051814	-0.530977	0.185602
C63	C	-0.011349	-0.611990	0.185649
C64	C	-0.027951	-0.628493	0.235248
C65	C	-0.056486	-0.596238	0.260022
C66	C	-0.056602	-0.668955	0.332787
C67	C	-0.005599	-0.544662	0.106983
C68	C	-0.006342	-0.821999	0.384121
C69	C	-0.005979	-0.544649	0.383673
C70	C	-0.282336	-0.544682	0.382817
N71	N	0.427518	-0.448428	0.480350
O72	O	0.589573	-0.456297	0.363634
O73	O	0.589761	-0.548399	0.488643
O74	O	0.589681	-0.548188	0.409364
O75	O	0.589654	-0.456508	0.442913
O76	O	0.510890	-0.521988	0.435708
O77	O	0.510970	-0.522199	0.514987
O78	O	0.510782	-0.430098	0.389978
Zn79	Zn	0.498366	-0.471989	0.456665
Zn80	Zn	0.602177	-0.506508	0.421956
O81	O	0.510862	-0.430308	0.469257
N82	N	0.673025	-0.530068	0.398267
N83	N	0.091092	-0.112167	0.480590
O84	O	-0.025539	0.049976	0.472612
O85	O	0.099472	0.050011	0.380491
O86	O	0.020155	0.049979	0.380751
O87	O	0.053778	0.050009	0.472352
O88	O	0.046458	-0.028818	0.407008
O89	O	0.125775	-0.028785	0.406748
O90	O	0.000764	-0.028821	0.498869
Zn91	Zn	0.067445	-0.041314	0.456977
Zn92	Zn	0.032791	0.062504	0.422382
O93	O	0.080081	-0.028788	0.498609
N94	N	0.009138	0.133358	0.398771
N95	N	0.091421	-0.448552	0.816827
O96	O	0.083469	-0.565164	0.978960
O97	O	-0.008614	-0.440110	0.979002
O98	O	-0.008399	-0.519410	0.978978
O99	O	0.083253	-0.485863	0.978984
O100	O	0.017837	-0.493128	0.900185
O101	O	0.017621	-0.413827	0.900208
O102	O	0.109704	-0.538881	0.900167
Zn103	Zn	0.067828	-0.472181	0.887677
Zn104	Zn	0.033262	-0.506810	0.991491
O105	O	0.109489	-0.459581	0.900191
N106	N	0.009668	-0.530444	1.062341
C107	C	0.030297	-0.411123	0.381218
C108	C	0.128439	-0.509167	0.381113
C109	C	0.070004	-0.567805	0.498310
C110	C	-0.028138	-0.469761	0.498415
C111	C	0.550388	-0.547982	0.517564
C112	C	0.550290	-0.547721	0.419387
C113	C	0.550153	-0.430514	0.361058
C114	C	0.550253	-0.430775	0.459234
C115	C	0.128339	0.010714	0.380902
C116	C	0.030148	0.010577	0.381256
C117	C	-0.028136	0.010574	0.498426
C118	C	0.070089	0.010613	0.498104
C119	C	-0.008178	-0.411214	0.939610
C120	C	-0.007906	-0.509413	0.939566
C121	C	0.109268	-0.567777	0.939558
C122	C	0.109002	-0.469572	0.939586
H123	H	0.082121	-0.347425	0.623816
H124	H	-0.036687	-0.516580	0.939532
C125	C	0.147750	-0.615703	0.939563
C126	C	0.130771	-0.644949	0.939565
C127	C	0.166206	-0.689103	0.939575
H128	H	0.174685	-0.611614	0.912091
H129	H	0.156365	-0.629909	0.967049
H130	H	0.122164	-0.630746	0.912083
H131	H	0.103841	-0.649052	0.967035
H132	H	0.174821	-0.703309	0.967060
H133	H	0.193139	-0.685009	0.912102
H134	H	0.154690	-0.708954	0.939581
H135	H	0.137795	-0.462392	0.939581
H136	H	0.550303	-0.576522	0.412207
C137	C	-0.076008	-0.460274	0.536940
C138	C	-0.084374	-0.422203	0.547778
C139	C	-0.128463	-0.413454	0.583271
H140	H	-0.100158	-0.452753	0.526121
H141	H	-0.076088	-0.487688	0.564488
H142	H	-0.084298	-0.394795	0.520236
H143	H	-0.060236	-0.429713	0.558605
H144	H	-0.128543	-0.440868	0.610819
H145	H	-0.152608	-0.405935	0.572448
H146	H	-0.134143	-0.387625	0.590632
H147	H	0.550247	-0.401977	0.466412
C148	C	0.176158	0.010946	0.342311
C149	C	0.211778	-0.029489	0.358242
C150	C	0.255836	-0.029289	0.322710
H151	H	0.176237	0.010978	0.314776
H152	H	0.181806	0.038477	0.334943
H153	H	0.206132	-0.057012	0.365604
H154	H	0.211714	-0.029529	0.385772
H155	H	0.261484	-0.001759	0.315342
H156	H	0.255911	-0.029256	0.295177
H157	H	0.280010	-0.056721	0.333515
H158	H	0.052212	-0.377448	0.713786
C159	C	-0.046712	-0.363302	0.939528
C160	C	-0.059316	-0.342507	0.898987
C161	C	-0.094807	-0.298368	0.898891
H162	H	-0.073667	-0.367392	0.966975
H163	H	-0.035279	-0.343371	0.939507
H164	H	-0.070750	-0.362433	0.899013
H165	H	-0.032372	-0.338405	0.871534
H166	H	-0.083374	-0.278437	0.898871
H167	H	-0.121758	-0.302463	0.926340
H168	H	-0.103360	-0.284251	0.871383
C169	C	0.550437	-0.586592	0.565411
C170	C	0.550453	-0.627071	0.565354
C171	C	0.550493	-0.662647	0.609424
H172	H	0.577919	-0.594085	0.571209
H173	H	0.522963	-0.575775	0.589549
H174	H	0.577924	-0.637887	0.541224
H175	H	0.522972	-0.619595	0.559565
H176	H	0.523019	-0.651830	0.633561
H177	H	0.577976	-0.670135	0.615218
H178	H	0.550499	-0.690115	0.609393
C179	C	0.176335	-0.518506	0.342584
C180	C	0.197151	-0.486166	0.329934
C181	C	0.241270	-0.494751	0.294438
H182	H	0.196273	-0.549842	0.354016
H183	H	0.172203	-0.514922	0.315649
H184	H	0.201286	-0.489755	0.356864
H185	H	0.177227	-0.454827	0.318493
H186	H	0.237137	-0.491167	0.267503
H187	H	0.261203	-0.526088	0.305874
H188	H	0.255397	-0.472808	0.285847
H189	H	0.550093	-0.401597	0.325157
H190	H	0.077290	0.010621	0.526881
H191	H	0.011877	-0.638258	0.165483
H192	H	-0.223999	-0.601245	0.437568
C193	C	0.208035	-0.458640	0.720310
C194	C	0.254257	-0.465581	0.687946
C195	C	0.286612	-0.494107	0.712615
H196	H	0.203346	-0.443536	0.739657
H197	H	0.203322	-0.488392	0.739647
H198	H	0.258968	-0.435834	0.668617
H199	H	0.258961	-0.480689	0.668597
H200	H	0.281899	-0.523860	0.731952
H201	H	0.281918	-0.479001	0.731962
H202	H	0.317977	-0.498824	0.690660
H203	H	0.229113	-0.420876	0.623698
C204	C	-0.075966	0.010538	0.537057
C205	C	-0.075876	0.010535	0.577518
C206	C	-0.119926	0.010496	0.613117
H207	H	-0.100125	0.038003	0.526272
H208	H	-0.081745	-0.016957	0.544551
H209	H	-0.070101	0.038028	0.570025
H210	H	-0.051726	-0.016927	0.588318
H211	H	-0.125706	-0.017000	0.620611
H212	H	-0.144081	0.037960	0.602327
H213	H	-0.119869	0.010489	0.640575
C214	C	0.020714	-0.363215	0.342755
C215	C	-0.017380	-0.354873	0.331966
C216	C	-0.026217	-0.310748	0.296532
H217	H	0.013182	-0.339088	0.353609
H218	H	0.048093	-0.363072	0.315177
H219	H	-0.044753	-0.355012	0.359538
H220	H	-0.009858	-0.378989	0.321104
H221	H	0.001162	-0.310605	0.268954
H222	H	-0.033748	-0.286625	0.307389
H223	H	-0.052062	-0.305085	0.289204
C224	C	0.020567	0.010457	0.342930
C225	C	0.009529	-0.030102	0.359194
C226	C	0.000712	-0.030238	0.323899
H227	H	-0.005296	0.037893	0.335536
H228	H	0.047944	0.010434	0.315350
H229	H	-0.017844	-0.030075	0.386765
H230	H	0.035386	-0.057545	0.366585
H231	H	0.028088	-0.030261	0.296319
H232	H	-0.025150	-0.002800	0.316507
H233	H	-0.006774	-0.057759	0.334927
C234	C	0.038814	-0.374149	0.555037
C235	C	0.014140	-0.345664	0.583574
C236	C	-0.034648	-0.333669	0.595675
H237	H	0.030585	-0.357293	0.527047
H238	H	0.030684	-0.402196	0.571889
H239	H	0.022266	-0.317622	0.566722
H240	H	0.022354	-0.362511	0.611570
H241	H	-0.042778	-0.361716	0.612526
H242	H	-0.042872	-0.316814	0.567682
H243	H	-0.051396	-0.314344	0.615041
C244	C	0.207809	-0.458559	0.470387
C245	C	0.254054	-0.465490	0.463396
C246	C	0.286360	-0.493967	0.434845
H247	H	0.203123	-0.488317	0.485491
H248	H	0.203045	-0.443410	0.440653
H249	H	0.258816	-0.480640	0.493125
H250	H	0.258756	-0.435741	0.448287
H251	H	0.281596	-0.478818	0.405111
H252	H	0.281670	-0.523723	0.449952
H253	H	0.317741	-0.498670	0.430094
H254	H	0.077150	-0.603753	0.527142
H255	H	0.082085	-0.347427	0.581670
H256	H	-0.223768	-0.527810	0.290539
H257	H	0.234479	-0.456922	0.572596
C258	C	0.331106	-0.500049	0.544515
C259	C	0.298788	-0.524421	0.568721
C260	C	0.323510	-0.572835	0.575813
H261	H	0.350433	-0.504706	0.514740
H262	H	0.350465	-0.511704	0.562691
H263	H	0.279437	-0.512770	0.550546
H264	H	0.279460	-0.519779	0.598501
H265	H	0.342870	-0.584490	0.593989
H266	H	0.342837	-0.577487	0.546036
H267	H	0.301587	-0.589378	0.592241
H268	H	0.324395	-0.341295	0.487026
C269	C	0.227774	-0.298173	0.515141
C270	C	0.260095	-0.273808	0.490953
C271	C	0.235377	-0.225399	0.483903
H272	H	0.208404	-0.286479	0.496970
H273	H	0.208457	-0.293557	0.544941
H274	H	0.279403	-0.278421	0.461158
H275	H	0.279466	-0.285487	0.509117
H276	H	0.216060	-0.220783	0.513703
H277	H	0.216007	-0.213710	0.465733
H278	H	0.257303	-0.208862	0.467495
C279	C	-0.127222	-0.639100	0.416407
C280	C	-0.078468	-0.651078	0.391566
C281	C	-0.053637	-0.679637	0.423780
H282	H	-0.135315	-0.622309	0.435774
H283	H	-0.135353	-0.667146	0.435739
H284	H	-0.070340	-0.623038	0.372242
H285	H	-0.070361	-0.667876	0.372201
H286	H	-0.061768	-0.707683	0.443112
H287	H	-0.061734	-0.662843	0.443145
H288	H	-0.020555	-0.687772	0.406930
C289	C	0.199867	-0.311930	0.462640
C290	C	0.174921	-0.299877	0.434225
C291	C	0.203325	-0.324641	0.401956
H292	H	0.227907	-0.303811	0.443226
H293	H	0.208010	-0.345027	0.479442
H294	H	0.166785	-0.266787	0.417424
H295	H	0.146883	-0.307998	0.453626
H296	H	0.211468	-0.357738	0.418758
H297	H	0.231364	-0.316519	0.382545
H298	H	0.186402	-0.316470	0.382676
C299	C	0.165319	-0.208477	0.428220
C300	C	0.123889	-0.180018	0.416395
C301	C	0.135723	-0.155175	0.367638
H302	H	0.182122	-0.189083	0.420023
H303	H	0.184642	-0.230326	0.411363
H304	H	0.104573	-0.158172	0.433246
H305	H	0.107080	-0.199400	0.424580
H306	H	0.155046	-0.177025	0.350781
H307	H	0.152526	-0.135785	0.359445
H308	H	0.107615	-0.135867	0.359608
H309	H	0.229008	-0.420842	0.508101
H310	H	-0.091707	-0.521211	0.297556
H311	H	0.118851	-0.305270	0.618371
C312	C	0.081073	-0.208642	0.597236
C313	C	0.074160	-0.240986	0.643471
C314	C	0.045650	-0.216291	0.675800
H315	H	0.096175	-0.189283	0.592517
H316	H	0.051314	-0.189313	0.592526
H317	H	0.103915	-0.260307	0.648179
H318	H	0.059053	-0.260346	0.648205
H319	H	0.015890	-0.196962	0.671091
H320	H	0.060755	-0.196934	0.671078
H321	H	0.040952	-0.238233	0.707175
H322	H	-0.091654	-0.521212	0.255368
C323	C	-0.064873	-0.478032	0.158683
C324	C	-0.114200	-0.457584	0.170663
C325	C	-0.126247	-0.408814	0.145869
H326	H	-0.053532	-0.464054	0.166826
H327	H	-0.050930	-0.472798	0.125592
H328	H	-0.128138	-0.462814	0.203747
H329	H	-0.125553	-0.471548	0.162518
H330	H	-0.112305	-0.403580	0.112778
H331	H	-0.114904	-0.394841	0.154014
H332	H	-0.159716	-0.394935	0.153990
C333	C	-0.014966	-0.681451	0.262111
C334	C	0.013563	-0.706163	0.229797
C335	C	0.025528	-0.754947	0.254525
H336	H	0.001849	-0.689664	0.281507
H337	H	-0.043020	-0.689568	0.281403
H338	H	0.041612	-0.698050	0.210513
H339	H	-0.003242	-0.697965	0.210400
H340	H	-0.002526	-0.763064	0.273817
H341	H	0.042341	-0.763155	0.273920
H342	H	0.044882	-0.771721	0.232604
H343	H	0.011532	-0.638242	0.401256
C344	C	-0.065031	-0.478012	0.324317
C345	C	-0.093463	-0.453299	0.295719
C346	C	-0.105427	-0.404515	0.283627
H347	H	-0.081915	-0.469786	0.352308
H348	H	-0.036973	-0.469908	0.307513
H349	H	-0.121516	-0.461399	0.312523
H350	H	-0.076588	-0.461510	0.267721
H351	H	-0.077369	-0.396411	0.266823
H352	H	-0.122309	-0.396294	0.311621
H353	H	-0.124715	-0.387741	0.264219
H354	H	0.017729	-0.673638	0.306677
C355	C	0.060804	-0.770340	0.334721
C356	C	0.086230	-0.758317	0.286097
C357	C	0.134627	-0.783137	0.279026
H358	H	0.071105	-0.762247	0.349703
H359	H	0.066084	-0.803429	0.347919
H360	H	0.080952	-0.725235	0.272905
H361	H	0.075943	-0.766411	0.271105
H362	H	0.139907	-0.816226	0.292224
H363	H	0.144923	-0.775042	0.294011
H364	H	0.151884	-0.774986	0.246035
C365	C	-0.106663	-0.770101	0.398354
C366	C	-0.129703	-0.758017	0.368164
C367	C	-0.161673	-0.782672	0.391664
H368	H	-0.089995	-0.803211	0.407246
H369	H	-0.129398	-0.761906	0.425881
H370	H	-0.106971	-0.766216	0.340645
H371	H	-0.146380	-0.724912	0.359270
H372	H	-0.184408	-0.774477	0.419191
H373	H	-0.145001	-0.815780	0.400555
H374	H	-0.177312	-0.774474	0.371185
C375	C	-0.140971	-0.666676	0.363753
C376	C	-0.147541	-0.638199	0.319732
C377	C	-0.195892	-0.613279	0.326576
H378	H	-0.157650	-0.688465	0.380101
H379	H	-0.152632	-0.647292	0.381904
H380	H	-0.135886	-0.657581	0.301588
H381	H	-0.130874	-0.616401	0.303377
H382	H	-0.207553	-0.593895	0.344727
H383	H	-0.212566	-0.635072	0.342925
H384	H	-0.200355	-0.593951	0.296710
H385	H	-0.133793	-0.557888	0.260690
H386	H	-0.018411	-0.668189	0.371171
