data_functionalizedCrystal
_audit_creation_method	'MofGen! by Chris Wilmer'
_symmetry_space_group_name_H-M	'P1'
_symmetry_Int_Tables_number	1
_symmetry_cell_setting	triclinic
loop_
_symmetry_equiv_pos_as_xyz
  x,y,z
_cell_length_a	12.759400
_cell_length_b	12.759401
_cell_length_c	12.759393
_cell_angle_alpha	90.020011
_cell_angle_beta	89.968436
_cell_angle_gamma	89.989237
loop_
_atom_site_label
_atom_site_type_symbol
_atom_site_fract_x
_atom_site_fract_y
_atom_site_fract_z
Zn1	Zn	-0.418314	-1.606255	-0.594024
Zn2	Zn	-0.594033	-1.606150	-0.418344
Zn3	Zn	-0.418357	-1.430557	-0.418359
Zn4	Zn	-0.593940	-1.430546	-0.593981
O5	O	-0.506161	-1.518377	-0.506177
O6	O	-0.441645	-1.753262	-0.570731
O7	O	-0.570786	-1.582818	-0.271325
O8	O	-0.271330	-1.453913	-0.441685
O9	O	-0.570745	-1.753185	-0.441660
O10	O	-0.271299	-1.582998	-0.570746
O11	O	-0.441717	-1.453811	-0.271335
O12	O	-0.441627	-1.283535	-0.441643
O13	O	-0.570586	-1.453894	-0.741008
O14	O	-0.570627	-1.283527	-0.570672
O15	O	-0.441554	-1.582987	-0.741039
O16	O	-0.741042	-1.582807	-0.441618
O17	O	-0.740973	-1.453791	-0.570658
C18	C	-0.506122	-1.245410	-0.506155
C19	C	-0.506131	-1.128633	-0.506171
C20	C	-0.439033	-1.073805	-0.573481
C21	C	-0.439047	-0.964081	-0.573485
C22	C	-0.573267	-0.964023	-0.438866
C23	C	-0.573247	-1.073745	-0.438857
C24	C	-0.371917	-1.128692	-0.640795
C25	C	-0.304814	-1.073864	-0.708111
C26	C	-0.304828	-0.964140	-0.708115
C27	C	-0.371946	-0.909244	-0.640803
C28	C	-0.779128	-1.518315	-0.506155
C29	C	-0.895905	-1.518384	-0.506181
C30	C	-0.950768	-1.585637	-0.439064
C31	C	-1.060492	-1.585702	-0.439096
C32	C	-1.060480	-1.451252	-0.573365
C33	C	-0.950758	-1.451193	-0.573337
C34	C	-0.895914	-1.652828	-0.371907
C35	C	-0.950777	-1.720086	-0.304784
C36	C	-1.060501	-1.720150	-0.304817
C37	C	-1.115362	-1.652957	-0.371972
C38	C	-0.232128	-1.518468	-0.506222
C39	C	-0.115351	-1.518507	-0.506241
C40	C	-0.506055	-1.518451	-0.780210
C41	C	-0.506010	-1.518482	-0.896987
C42	C	-0.506188	-0.792410	-0.506193
C43	C	-0.506166	-0.909187	-0.506183
C44	C	-0.438817	-1.585710	-0.951867
C45	C	-0.438779	-1.585735	-1.061591
C46	C	-0.573136	-1.451301	-1.061545
C47	C	-0.573168	-1.451272	-0.951823
C48	C	-0.371659	-1.652920	-0.897031
C49	C	-0.304461	-1.720155	-0.951911
C50	C	-0.304423	-1.720180	-1.061635
C51	C	-0.371583	-1.652970	-1.116479
C52	C	-0.506191	-1.518364	-0.233209
C53	C	-0.505940	-1.518537	-0.116433
H54	H	-0.371897	-1.218035	-0.640799
H55	H	-1.204707	-1.653024	-0.372001
H56	H	-0.371534	-1.652984	-1.205824
H57	H	-0.627884	-1.118388	-0.384047
H58	H	-0.627814	-1.396582	-1.106208
C59	C	-1.228674	-1.391637	-0.633015
C60	C	-1.120782	-1.377388	-0.647169
H61	H	-1.265899	-1.346029	-0.678573
H62	H	-1.246587	-1.462220	-0.648462
H63	H	-1.246710	-1.376309	-0.562410
H64	H	-1.102745	-1.392723	-0.717772
H65	H	-1.102862	-1.306789	-0.631729
C66	C	-0.738625	-1.679454	-0.471826
C67	C	-0.775305	-1.652748	-0.371872
H68	H	-0.664167	-1.679392	-0.471802
H69	H	-0.763365	-1.747257	-0.490044
H70	H	-0.763456	-1.629812	-0.521418
H71	H	-0.750480	-1.702395	-0.322281
H72	H	-0.750554	-1.584935	-0.353641
H73	H	-0.627866	-1.396513	-0.907139
H74	H	-0.906089	-1.396431	-0.627991
H75	H	-0.250182	-0.919501	-0.762920
H76	H	-0.371930	-0.819900	-0.640789
C77	C	-0.244859	-1.779808	-0.783734
C78	C	-0.230637	-1.794023	-0.891631
H79	H	-0.199283	-1.825417	-0.746524
H80	H	-0.229477	-1.709227	-0.765754
H81	H	-0.315460	-1.795160	-0.765749
H82	H	-0.160037	-1.778664	-0.909618
H83	H	-0.246011	-1.864621	-0.909618
C84	C	-0.245198	-1.242086	-0.767886
C85	C	-0.231040	-1.134201	-0.782098
H86	H	-0.199656	-1.279332	-0.813569
H87	H	-0.229732	-1.260037	-0.697331
H88	H	-0.315808	-1.260059	-0.783139
H89	H	-0.160432	-1.116227	-0.766837
H90	H	-0.246500	-1.116243	-0.852669
C91	C	-0.632902	-0.795799	-0.379117
C92	C	-0.647049	-0.903684	-0.364890
H93	H	-0.678461	-0.758551	-0.333453
H94	H	-0.562306	-0.777816	-0.363859
H95	H	-0.648363	-0.777862	-0.449688
H96	H	-0.631581	-0.921622	-0.294321
H97	H	-0.717661	-0.921675	-0.380140
C98	C	-0.782585	-1.779682	-0.245110
C99	C	-0.890478	-1.793942	-0.230971
H100	H	-0.745363	-1.825276	-0.199534
H101	H	-0.764537	-1.795015	-0.315699
H102	H	-0.764683	-1.709086	-0.229666
H103	H	-0.908382	-1.864537	-0.246422
H104	H	-0.908534	-1.778617	-0.160365
H105	H	-0.249700	-1.774917	-1.106316
H106	H	-0.371684	-1.652910	-0.807688
C107	C	-1.049486	-1.853035	-0.172091
C108	C	-1.120808	-1.794078	-0.231039
H109	H	-1.086718	-1.898668	-0.126536
H110	H	-1.006626	-1.893176	-0.217887
H111	H	-1.006756	-1.807242	-0.131858
H112	H	-1.163534	-1.839871	-0.271278
H113	H	-1.163687	-1.753934	-0.185238
