data_functionalizedCrystal
_audit_creation_method	'MofGen! by Chris Wilmer'
_symmetry_space_group_name_H-M	'P1'
_symmetry_Int_Tables_number	1
_symmetry_cell_setting	triclinic
loop_
_symmetry_equiv_pos_as_xyz
  x,y,z
_cell_length_a	21.395364
_cell_length_b	17.641079
_cell_length_c	21.395355
_cell_angle_alpha	101.198684
_cell_angle_beta	89.975273
_cell_angle_gamma	78.821123
loop_
_atom_site_label
_atom_site_type_symbol
_atom_site_fract_x
_atom_site_fract_y
_atom_site_fract_z
Zn1	Zn	1.008318	-0.314732	-0.404766
Zn2	Zn	1.341652	0.018601	-0.071432
Zn3	Zn	1.674985	0.351935	0.261901
Zn4	Zn	1.029404	-0.446861	-0.321190
Zn5	Zn	1.362738	-0.113528	0.012144
Zn6	Zn	1.696071	0.219806	0.345477
Zn7	Zn	0.903533	-0.314728	-0.300002
Zn8	Zn	1.236866	0.018605	0.033332
Zn9	Zn	1.570199	0.351938	0.366665
Zn10	Zn	0.924682	-0.446837	-0.425925
Zn11	Zn	1.258015	-0.113503	-0.092592
Zn12	Zn	1.591349	0.219830	0.240741
O13	O	0.966484	-0.380790	-0.362971
O14	O	1.299818	-0.047456	-0.029637
O15	O	1.633151	0.285877	0.303696
O16	O	1.098795	-0.332271	-0.393691
O17	O	1.432129	0.001062	-0.060358
O18	O	1.765462	0.334396	0.272976
O19	O	1.012681	-0.429342	-0.230702
O20	O	1.346014	-0.096009	0.102631
O21	O	1.679347	0.237325	0.435964
O22	O	0.899757	-0.204145	-0.296176
O23	O	1.233090	0.129189	0.037157
O24	O	1.566424	0.462522	0.370490
O25	O	1.114287	-0.429345	-0.332288
O26	O	1.447620	-0.096012	0.001045
O27	O	1.780954	0.237321	0.334379
O28	O	0.976743	-0.204148	-0.373146
O29	O	1.310076	0.129186	-0.039813
O30	O	1.643409	0.462519	0.293521
O31	O	0.920203	-0.332265	-0.215136
O32	O	1.253537	0.001069	0.118198
O33	O	1.586870	0.334402	0.451531
O34	O	0.818658	-0.332241	-0.316694
O35	O	1.151992	0.001092	0.016639
O36	O	1.485325	0.334425	0.349973
O37	O	0.935803	-0.429304	-0.510795
O38	O	1.269137	-0.095971	-0.177462
O39	O	1.602470	0.237362	0.155872
O40	O	0.834197	-0.429301	-0.409210
O41	O	1.167530	-0.095967	-0.075876
O42	O	1.500864	0.237366	0.257457
O43	O	0.997250	-0.332248	-0.495249
O44	O	1.330584	0.001086	-0.161916
O45	O	1.663917	0.334419	0.171417
O46	O	1.033188	-0.557442	-0.352806
O47	O	1.366522	-0.224109	-0.019472
O48	O	1.699855	0.109225	0.313861
O49	O	0.956249	-0.557424	-0.429755
O50	O	1.289583	-0.224091	-0.096421
O51	O	1.622916	0.109243	0.236912
C52	C	0.803693	-0.380768	-0.362949
C53	C	1.137027	-0.047435	-0.029616
C54	C	1.470360	0.285898	0.303718
C55	C	0.734054	-0.380778	-0.362958
C56	C	1.067387	-0.047445	-0.029625
C57	C	1.400720	0.285888	0.303709
C58	C	0.240381	-0.431421	-0.411120
C59	C	0.573715	-0.098088	-0.077786
C60	C	0.907048	0.235246	0.255547
C61	C	0.305817	-0.431421	-0.411113
C62	C	0.639150	-0.098088	-0.077780
C63	C	0.972484	0.235246	0.255554
C64	C	0.330420	-0.380807	-0.362993
C65	C	0.663753	-0.047474	-0.029660
C66	C	0.997087	0.285860	0.303673
C67	C	0.289584	-0.330203	-0.314867
C68	C	0.622917	0.003130	0.018466
C69	C	0.956251	0.336464	0.351799
C70	C	0.224151	-0.330210	-0.314872
C71	C	0.557484	0.003123	0.018462
C72	C	0.890818	0.336457	0.351795
C73	C	0.422691	-0.309590	-0.346715
C74	C	0.756024	0.023743	-0.013381
C75	C	1.089358	0.357077	0.319952
C76	C	0.488123	-0.309582	-0.346714
C77	C	0.821456	0.023752	-0.013381
C78	C	1.154789	0.357085	0.319952
C79	C	0.532237	-0.380786	-0.362976
C80	C	0.865571	-0.047453	-0.029643
C81	C	1.198904	0.285881	0.303690
C82	C	0.510913	-0.452001	-0.379252
C83	C	0.844246	-0.118668	-0.045918
C84	C	1.177580	0.214666	0.287415
C85	C	0.445480	-0.452008	-0.379256
C86	C	0.778813	-0.118674	-0.045923
C87	C	1.112146	0.214659	0.287411
C88	C	0.401370	-0.380794	-0.362983
C89	C	0.734704	-0.047461	-0.029650
C90	C	1.068037	0.285873	0.303684
C91	C	0.644018	-0.431391	-0.411090
C92	C	0.977352	-0.098058	-0.077756
C93	C	1.310685	0.235276	0.255577
C94	C	0.709455	-0.431392	-0.411079
C95	C	1.042788	-0.098059	-0.077745
C96	C	1.376122	0.235274	0.255588
C97	C	0.693220	-0.330167	-0.314835
C98	C	1.026553	0.003166	0.018498
C99	C	1.359886	0.336500	0.351832
C100	C	0.627785	-0.330173	-0.314844
C101	C	0.961119	0.003161	0.018490
C102	C	1.294452	0.336494	0.351823
C103	C	0.603188	-0.380783	-0.362974
C104	C	0.936522	-0.047450	-0.029641
C105	C	1.269855	0.285883	0.303693
C106	C	0.999319	-0.586106	-0.395889
C107	C	1.332652	-0.252773	-0.062556
C108	C	1.665986	0.080560	0.270778
C109	C	1.013423	-0.673942	-0.409993
C110	C	1.346756	-0.340608	-0.076659
C111	C	1.680090	-0.007275	0.256674
C112	C	1.073337	-0.797678	-0.469964
C113	C	1.406670	-0.464345	-0.136631
C114	C	1.740004	-0.131011	0.196703
C115	C	1.060079	-0.715143	-0.456707
C116	C	1.393413	-0.381810	-0.123373
C117	C	1.726746	-0.048477	0.209960
C118	C	0.980003	-0.715265	-0.376520
C119	C	1.313336	-0.381932	-0.043186
C120	C	1.646670	-0.048598	0.290147
C121	C	0.993252	-0.797801	-0.389772
C122	C	1.326585	-0.464468	-0.056439
C123	C	1.659918	-0.131135	0.276894
C124	C	1.039920	-0.839001	-0.436495
C125	C	1.373253	-0.505668	-0.103161
C126	C	1.706586	-0.172335	0.230172
C127	C	0.959834	-0.839125	-0.356303
C128	C	1.293168	-0.505792	-0.022970
C129	C	1.626501	-0.172458	0.310363
C130	C	0.973084	-0.921654	-0.369553
C131	C	1.306418	-0.588321	-0.036220
C132	C	1.639751	-0.254987	0.297114
C133	C	1.019752	-0.962860	-0.416272
C134	C	1.353085	-0.629526	-0.082938
C135	C	1.686418	-0.296193	0.250395
C136	C	1.053170	-0.921530	-0.449744
C137	C	1.386503	-0.588197	-0.116411
C138	C	1.719836	-0.254864	0.216922
C139	C	0.913170	-0.797923	-0.309578
C140	C	1.246503	-0.464590	0.023755
C141	C	1.579836	-0.131257	0.357089
C142	C	0.879753	-0.839247	-0.276109
C143	C	1.213086	-0.505914	0.057225
C144	C	1.546419	-0.172580	0.390558
C145	C	0.892999	-0.921778	-0.289361
C146	C	1.226332	-0.588444	0.043972
C147	C	1.559666	-0.255111	0.377305
C148	C	0.939666	-0.962983	-0.336080
C149	C	1.273000	-0.629650	-0.002747
C150	C	1.606333	-0.296317	0.330587
C151	C	0.859581	-0.963107	-0.255889
C152	C	1.192914	-0.629773	0.077445
C153	C	1.526248	-0.296440	0.410778
C154	C	0.872831	-1.045636	-0.269138
C155	C	1.206164	-0.712303	0.064195
C156	C	1.539498	-0.378969	0.397528
C157	C	0.952916	-1.045512	-0.349330
C158	C	1.286250	-0.712179	-0.015996
C159	C	1.619583	-0.378846	0.317337
C160	C	1.129911	-0.380811	-0.362993
C161	C	1.463244	-0.047478	-0.029659
C162	C	1.796578	0.285855	0.303674
C163	C	1.199554	-0.380821	-0.363002
C164	C	1.532887	-0.047487	-0.029669
C165	C	1.866221	0.285846	0.303665
C166	C	0.966534	-0.380774	-0.526391
C167	C	1.299867	-0.047440	-0.193058
C168	C	1.633200	0.285893	0.140275
C169	C	0.966555	-0.380767	-0.596032
C170	C	1.299888	-0.047433	-0.262698
C171	C	1.633222	0.285900	0.070635
C172	C	0.933539	-0.174671	-0.329937
C173	C	1.266872	0.158662	0.003396
C174	C	1.600205	0.491995	0.336729
C175	C	0.919499	-0.086836	-0.315860
C176	C	1.252832	0.246498	0.017473
C177	C	1.586166	0.579831	0.350806
C178	C	0.998548	-0.330227	-0.620651
C179	C	1.331882	0.003106	-0.287317
C180	C	1.665215	0.336439	0.046016
C181	C	0.998542	-0.330193	-0.686081
C182	C	1.331875	0.003140	-0.352747
C183	C	1.665209	0.336473	-0.019414
C184	C	0.966551	-0.380713	-0.726891
C185	C	1.299884	-0.047380	-0.393558
C186	C	1.633218	0.285954	-0.060225
C187	C	0.934550	-0.431256	-0.702265
C188	C	1.267884	-0.097923	-0.368932
C189	C	1.601217	0.235411	-0.035598
C190	C	0.934552	-0.431283	-0.636835
C191	C	1.267886	-0.097950	-0.303502
C192	C	1.601219	0.235384	0.029832
C193	C	0.972983	-0.451867	-0.841974
C194	C	1.306316	-0.118534	-0.508641
C195	C	1.639650	0.214800	-0.175307
C196	C	0.972986	-0.451841	-0.907403
C197	C	1.306319	-0.118508	-0.574070
C198	C	1.639652	0.214825	-0.240736
C199	C	0.966542	-0.380629	-0.928699
C200	C	1.299875	-0.047296	-0.595365
C201	C	1.633208	0.286037	-0.262032
C202	C	0.960108	-0.309441	-0.884557
C203	C	1.293441	0.023892	-0.551224
C204	C	1.626774	0.357226	-0.217891
C205	C	0.960110	-0.309468	-0.819127
C206	C	1.293443	0.023865	-0.485794
C207	C	1.626776	0.357199	-0.152461
C208	C	0.966545	-0.380689	-0.797840
C209	C	1.299879	-0.047356	-0.464507
C210	C	1.633212	0.285978	-0.131173
C211	C	0.998530	-0.330049	-1.024264
C212	C	1.331863	0.003285	-0.690930
C213	C	1.665196	0.336618	-0.357597
C214	C	0.998519	-0.330013	-1.089695
C215	C	1.331852	0.003320	-0.756361
C216	C	1.665186	0.336653	-0.423028
C217	C	0.934532	-0.431083	-1.105879
C218	C	1.267865	-0.097750	-0.772546
C219	C	1.601198	0.235583	-0.439212
C220	C	0.934538	-0.431112	-1.040448
C221	C	1.267871	-0.097778	-0.707115
C222	C	1.601205	0.235555	-0.373782
C223	C	0.966541	-0.380595	-0.999645
C224	C	1.299874	-0.047262	-0.666311
C225	C	1.633207	0.286071	-0.332978
C226	C	0.966462	-0.380749	-0.200176
C227	C	1.299795	-0.047415	0.133157
C228	C	1.633129	0.285918	0.466490
C229	C	0.966527	-0.380533	-0.130501
C230	C	1.299860	-0.047199	0.202832
C231	C	1.633193	0.286134	0.536166
H232	H	0.742698	-0.472603	-0.450261
H233	H	1.076031	-0.139269	-0.116928
H234	H	1.409364	0.194064	0.216405
H235	H	0.821588	-0.929551	-0.217843
H236	H	1.154922	-0.596218	0.115490
H237	H	1.488255	-0.262884	0.448824
H238	H	1.111326	-0.831225	-0.508022
H239	H	1.444660	-0.497892	-0.174689
H240	H	1.777993	-0.164559	0.158644
H241	H	0.845619	-1.079282	-0.241885
H242	H	1.178952	-0.745949	0.091449
H243	H	1.512286	-0.412616	0.424782
F244	F	1.102837	-0.965383	-0.499474
F245	F	1.436171	-0.632050	-0.166141
F246	F	1.769504	-0.298716	0.167193
F247	F	0.953251	-0.233646	-0.907215
F248	F	1.286585	0.099687	-0.573882
F249	F	1.619918	0.433020	-0.240549
F250	F	1.033962	-1.050695	-0.430265
F251	F	1.367295	-0.717362	-0.096932
F252	F	1.700629	-0.384029	0.236402
F253	F	1.002584	-1.089365	-0.399059
F254	F	1.335917	-0.756032	-0.065726
F255	F	1.669251	-0.422698	0.267607
H256	H	0.908501	-0.472387	-0.735497
H257	H	1.241834	-0.139054	-0.402164
H258	H	1.575168	0.194280	-0.068830
F259	F	1.032605	-0.276460	-0.577227
F260	F	1.365939	0.056873	-0.243894
F261	F	1.699272	0.390207	0.089439
H262	H	0.713251	-0.288959	-0.275653
H263	H	1.046585	0.044375	0.057680
H264	H	1.379918	0.377708	0.391013
H265	H	1.024584	-0.288911	-0.991039
H266	H	1.357917	0.044422	-0.657706
H267	H	1.691251	0.377756	-0.324372
H268	H	0.428120	-0.509993	-0.392507
H269	H	0.761454	-0.176660	-0.059173
H270	H	1.094787	0.156673	0.274160
F271	F	1.032581	-0.276228	-1.115896
F272	F	1.365915	0.057105	-0.782563
F273	F	1.699248	0.390438	-0.449230
F274	F	0.584331	-0.276311	-0.263633
F275	F	0.917664	0.057023	0.069700
F276	F	1.250997	0.390356	0.403034
H277	H	0.942007	-0.681711	-0.338476
H278	H	1.275341	-0.348377	-0.005143
H279	H	1.608674	-0.015044	0.328190
H280	H	0.190908	-0.289003	-0.275688
H281	H	0.524241	0.044331	0.057646
H282	H	0.857575	0.377664	0.390979
F283	F	0.510812	-0.233789	-0.329401
F284	F	0.844145	0.099545	0.003933
F285	F	1.177478	0.432878	0.337266
F286	F	0.315769	-0.276338	-0.263653
F287	F	0.649103	0.056995	0.069680
F288	F	0.982436	0.390329	0.403014
H289	H	1.087297	-0.681502	-0.483965
H290	H	1.420630	-0.348168	-0.150631
H291	H	1.753963	-0.014835	0.182702
H292	H	0.386776	-0.251604	-0.333461
H293	H	0.720110	0.081730	-0.000128
H294	H	1.053443	0.415063	0.333205
F295	F	1.032583	-0.276387	-0.712286
F296	F	1.365916	0.056946	-0.378953
F297	F	1.699250	0.390280	-0.045619
H298	H	0.902386	-0.730723	-0.298789
H299	H	1.235719	-0.397390	0.034544
H300	H	1.569053	-0.064056	0.367878
F301	F	0.953259	-0.233706	-0.772152
F302	F	1.286593	0.099627	-0.438818
F303	F	1.619926	0.432960	-0.105485
H304	H	0.841757	-0.805693	-0.238066
H305	H	1.175090	-0.472359	0.095268
H306	H	1.508423	-0.139026	0.428601
F307	F	0.900479	-0.484845	-1.149308
F308	F	1.233812	-0.151511	-0.815974
F309	F	1.567145	0.181822	-0.482641
H310	H	0.908490	-0.472271	-1.020405
H311	H	1.241823	-0.138938	-0.687071
H312	H	1.575157	0.194396	-0.353738
F313	F	0.979839	-0.527606	-0.954376
F314	F	1.313172	-0.194272	-0.621042
F315	F	1.646505	0.139061	-0.287709
F316	F	0.900499	-0.485076	-0.610634
F317	F	1.233832	-0.151743	-0.277300
F318	F	1.567166	0.181590	0.056033
F319	F	0.214208	-0.485289	-0.462342
F320	F	0.547541	-0.151956	-0.129009
F321	F	0.880875	0.181377	0.204324
F322	F	0.349276	-0.485279	-0.462329
F323	F	0.682610	-0.151945	-0.128995
F324	F	1.015943	0.181388	0.204338
F325	F	0.979857	-0.527667	-0.819318
F326	F	1.313190	-0.194334	-0.485984
F327	F	1.646523	0.139000	-0.152651
H328	H	0.546831	-0.509982	-0.392498
H329	H	0.880164	-0.176649	-0.059165
H330	H	1.213497	0.156685	0.274169
H331	H	0.623991	-0.472602	-0.450280
H332	H	0.957324	-0.139269	-0.116946
H333	H	1.290657	0.194065	0.216387
