data_functionalizedCrystal
_audit_creation_method	'MofGen! by Chris Wilmer'
_symmetry_space_group_name_H-M	'P1'
_symmetry_Int_Tables_number	1
_symmetry_cell_setting	triclinic
loop_
_symmetry_equiv_pos_as_xyz
  x,y,z
_cell_length_a	16.109302
_cell_length_b	17.038272
_cell_length_c	14.586319
_cell_angle_alpha	89.995924
_cell_angle_beta	89.994552
_cell_angle_gamma	87.286668
loop_
_atom_site_label
_atom_site_type_symbol
_atom_site_fract_x
_atom_site_fract_y
_atom_site_fract_z
O1	O	1.110268	0.100498	-0.076283
O2	O	1.610268	0.600498	0.423717
O3	O	0.869094	0.113004	-0.076276
O4	O	1.369094	0.613004	0.423724
O5	O	0.988247	-0.007065	-0.076272
O6	O	1.488247	0.492935	0.423728
O7	O	0.991114	0.220566	-0.076287
O8	O	1.491114	0.720566	0.423713
O9	O	0.988238	-0.007067	0.076209
O10	O	1.488238	0.492933	0.576209
O11	O	0.869085	0.113002	0.076205
O12	O	1.369085	0.613002	0.576205
O13	O	1.110259	0.100496	0.076198
O14	O	1.610259	0.600496	0.576198
Cu15	Cu	0.989671	0.106749	0.090124
Cu16	Cu	1.489671	0.606749	0.590124
Cu17	Cu	0.989682	0.106751	-0.090202
Cu18	Cu	1.489682	0.606751	0.409798
O19	O	0.991105	0.220564	0.076194
O20	O	1.491105	0.720564	0.576194
C21	C	0.838079	0.112496	-0.000034
C22	C	1.338079	0.612496	0.499966
C23	C	0.745675	0.110977	-0.000032
C24	C	1.245675	0.610977	0.499968
C25	C	0.533080	0.107463	0.083077
C26	C	1.033080	0.607463	0.583077
C27	C	0.446258	0.106028	0.083074
C28	C	0.946258	0.606028	0.583074
C29	C	0.446279	0.106034	-0.083169
C30	C	0.946279	0.606034	0.416831
C31	C	0.533099	0.107464	-0.083165
C32	C	1.033099	0.607464	0.416835
C33	C	0.576498	0.108183	-0.000039
C34	C	1.076498	0.608183	0.499961
C35	C	0.402855	0.105317	-0.000046
C36	C	0.902855	0.605317	0.499954
C37	C	0.308719	0.103760	-0.000050
C38	C	0.808719	0.603760	0.499950
C39	C	0.670640	0.109738	-0.000035
C40	C	1.170640	0.609738	0.499965
C41	C	0.985636	-0.036194	-0.000032
C42	C	1.485636	0.463806	0.499968
C43	C	0.977856	-0.122987	-0.000032
C44	C	1.477856	0.377013	0.499968
C45	C	1.049277	-0.173101	-0.000033
C46	C	1.549277	0.326899	0.499967
C47	C	1.041963	-0.254652	-0.000041
C48	C	1.541963	0.245348	0.499959
C49	C	0.963227	-0.286086	-0.000042
C50	C	1.463227	0.213914	0.499958
C51	C	0.891801	-0.235965	-0.000044
C52	C	1.391801	0.264035	0.499956
C53	C	0.899116	-0.154416	-0.000042
C54	C	1.399116	0.345584	0.499958
C55	C	0.937385	-0.531844	-0.000054
C56	C	1.437385	-0.031844	0.499946
C57	C	0.930075	-0.613399	-0.000053
C58	C	1.430075	-0.113399	0.499947
C59	C	1.080238	-0.632080	-0.000052
C60	C	1.580238	-0.132080	0.499948
C61	C	1.087546	-0.550529	-0.000045
C62	C	1.587546	-0.050529	0.499955
C63	C	1.016120	-0.500415	-0.000051
C64	C	1.516120	-0.000415	0.499949
C65	C	0.955749	-0.369444	-0.000048
C66	C	1.455749	0.130556	0.499952
C67	C	1.023599	-0.417059	-0.000052
C68	C	1.523599	0.082941	0.499948
C69	C	1.141274	0.101003	-0.000045
C70	C	1.641274	0.601003	0.499955
C71	C	1.233677	0.102523	-0.000054
C72	C	1.733677	0.602523	0.499946
C73	C	0.993717	0.249693	-0.000048
C74	C	1.493717	0.749693	0.499952
C75	C	1.001496	0.336486	-0.000054
C76	C	1.501496	0.836486	0.499946
N77	N	0.989670	0.106747	0.216956
N78	N	1.489670	0.606747	0.716956
N79	N	0.989689	0.106747	-0.217034
N80	N	1.489689	0.606747	0.282966
C81	C	1.042451	0.053598	0.451964
C82	C	1.542451	0.553598	0.951964
C83	C	1.042453	0.053596	0.547945
C84	C	1.542453	0.553596	1.047945
C85	C	0.936902	0.159898	0.547951
C86	C	1.436902	0.659898	1.047951
C87	C	0.936896	0.159895	0.451972
C88	C	1.436896	0.659895	0.951972
C89	C	0.989675	0.106746	0.403981
C90	C	1.489675	0.606746	0.903981
C91	C	0.989683	0.106747	0.595942
C92	C	1.489683	0.606747	1.095942
C93	C	0.989686	0.106745	0.700009
C94	C	1.489686	0.606745	1.200009
C95	C	0.989672	0.106747	0.299907
C96	C	1.489672	0.606747	0.799907
H97	H	0.568451	0.108047	-0.150852
H98	H	1.068451	0.608047	0.349148
H99	H	0.893932	0.203171	0.587035
H100	H	1.393932	0.703171	1.087035
H101	H	0.568412	0.108049	0.150763
H102	H	1.068412	0.608049	0.650763
H103	H	1.085426	0.010318	0.587011
H104	H	1.585426	0.510318	1.087011
C105	C	1.100497	-0.004869	0.399177
C106	C	1.600497	0.495131	0.899177
H107	H	1.131922	-0.036527	0.441504
H108	H	1.631922	0.463473	0.941504
H109	H	1.137093	0.023260	0.361723
H110	H	1.637093	0.523260	0.861723
H111	H	1.068278	-0.037426	0.361747
H112	H	1.568278	0.462574	0.861747
H113	H	0.410933	0.105449	-0.150847
H114	H	0.910933	0.605449	0.349153
H115	H	0.410911	0.105442	0.150755
H116	H	0.910911	0.605442	0.650755
C117	C	1.120526	-0.309775	-0.000033
C118	C	1.620526	0.190225	0.499967
H119	H	1.168465	-0.279374	-0.000019
H120	H	1.668465	0.220626	0.499981
H121	H	1.120806	-0.341973	-0.053206
H122	H	1.620806	0.158027	0.446794
H123	H	1.120784	-0.341977	0.053147
H124	H	1.620784	0.158023	0.553147
C125	C	1.135887	-0.138531	-0.000032
C126	C	1.635887	0.361469	0.499968
H127	H	1.177374	-0.180060	-0.000042
H128	H	1.677374	0.319940	0.499958
H129	H	1.141861	-0.107111	0.053141
H130	H	1.641861	0.392889	0.553141
H131	H	1.141864	-0.107104	-0.053212
H132	H	1.641864	0.392896	0.446788
C133	C	0.843463	-0.647975	-0.000070
C134	C	1.343463	-0.147975	0.499930
H135	H	0.801971	-0.606450	-0.000085
H136	H	1.301971	-0.106450	0.499915
H137	H	0.837476	-0.679404	0.053101
H138	H	1.337476	-0.179404	0.553101
H139	H	0.837505	-0.679395	-0.053253
H140	H	1.337505	-0.179395	0.446747
H141	H	0.893916	0.203175	0.412901
H142	H	1.393916	0.703175	0.912901
C143	C	1.174153	-0.515953	-0.000038
C144	C	1.674153	-0.015953	0.499962
H145	H	1.168280	-0.460208	-0.000025
H146	H	1.668280	0.039792	0.499975
H147	H	1.203815	-0.533149	-0.053208
H148	H	1.703815	-0.033149	0.446792
H149	H	1.203791	-0.533163	0.053146
H150	H	1.703791	-0.033163	0.553146
C151	C	1.158801	-0.687203	-0.000055
C152	C	1.658801	-0.187203	0.499945
H153	H	1.206740	-0.656801	-0.000049
H154	H	1.706740	-0.156801	0.499951
H155	H	1.159073	-0.719400	-0.053229
H156	H	1.659073	-0.219400	0.446771
H157	H	1.159068	-0.719406	0.053125
H158	H	1.659068	-0.219406	0.553125
C159	C	0.858819	-0.476729	-0.000045
C160	C	1.358819	0.023271	0.499955
H161	H	0.810882	-0.507133	-0.000033
H162	H	1.310882	-0.007133	0.499967
H163	H	0.858546	-0.444522	-0.053215
H164	H	1.358546	0.055478	0.446785
H165	H	0.858551	-0.444536	0.053138
H166	H	1.358551	0.055464	0.553138
H167	H	0.827693	-0.261565	-0.000050
H168	H	1.327693	0.238435	0.499950
C169	C	0.820554	-0.099290	-0.000038
C170	C	1.320554	0.400710	0.499962
H171	H	0.772614	-0.129689	-0.000031
H172	H	1.272614	0.370311	0.499969
H173	H	0.820290	-0.067086	-0.053211
H174	H	1.320290	0.432914	0.446789
H175	H	0.820282	-0.067094	0.053142
H176	H	1.320282	0.432906	0.553142
H177	H	1.087705	-0.391462	-0.000072
H178	H	1.587705	0.108538	0.499928
H179	H	0.891642	-0.395047	-0.000046
H180	H	1.391642	0.104953	0.499954
