data_functionalizedCrystal
_audit_creation_method	'MofGen! by Chris Wilmer'
_symmetry_space_group_name_H-M	'P1'
_symmetry_Int_Tables_number	1
_symmetry_cell_setting	triclinic
loop_
_symmetry_equiv_pos_as_xyz
  x,y,z
_cell_length_a	17.699083
_cell_length_b	9.730217
_cell_length_c	17.699083
_cell_angle_alpha	90.005994
_cell_angle_beta	83.283015
_cell_angle_gamma	89.997695
loop_
_atom_site_label
_atom_site_type_symbol
_atom_site_fract_x
_atom_site_fract_y
_atom_site_fract_z
O1	O	1.004075	0.114100	0.095712
O2	O	1.504075	0.614100	0.595712
O3	O	0.783697	0.114145	0.108164
O4	O	1.283697	0.614145	0.608164
O5	O	0.900112	0.114109	-0.008251
O6	O	1.400112	0.614109	0.491749
O7	O	0.887659	0.114136	0.212127
O8	O	1.387659	0.614136	0.712127
O9	O	0.900104	-0.114471	-0.008256
O10	O	1.400104	0.385529	0.491744
O11	O	0.783688	-0.114435	0.108160
O12	O	1.283688	0.385565	0.608160
O13	O	1.004067	-0.114480	0.095707
O14	O	1.504067	0.385520	0.595707
Zn15	Zn	0.893876	-0.150749	0.101933
Zn16	Zn	1.393876	0.349251	0.601933
Zn17	Zn	0.893887	0.150415	0.101939
Zn18	Zn	1.393887	0.650415	0.601939
O19	O	0.887651	-0.114444	0.212123
O20	O	1.387651	0.385556	0.712123
C21	C	0.755495	-0.000139	0.107716
C22	C	1.255495	0.499861	0.607716
C23	C	0.671477	-0.000122	0.106377
C24	C	1.171477	0.499878	0.606377
N25	N	0.893874	-0.356286	0.101928
N26	N	1.393874	0.143714	0.601928
C27	C	0.622856	-0.000114	0.174710
C28	C	1.122856	0.499886	0.674710
C29	C	0.543913	-0.000132	0.173448
C30	C	1.043913	0.499868	0.673448
C31	C	0.513592	-0.000148	0.103852
C32	C	1.013592	0.499852	0.603852
C33	C	0.562219	-0.000160	0.035513
C34	C	1.062219	0.499840	0.535513
C35	C	0.641161	-0.000152	0.036776
C36	C	1.141161	0.499848	0.536776
C37	C	0.243856	-0.000195	0.030418
C38	C	0.743856	0.499805	0.530418
C39	C	0.164908	-0.000199	0.029160
C40	C	0.664908	0.499801	0.529160
C41	C	0.146608	-0.000175	0.167090
C42	C	0.646608	0.499825	0.667090
C43	C	0.225550	-0.000167	0.168353
C44	C	0.725550	0.499833	0.668353
C45	C	0.274170	-0.000186	0.100015
C46	C	0.774170	0.499814	0.600015
C47	C	0.359769	-0.000169	0.101384
C48	C	0.859769	0.499831	0.601384
C49	C	0.427995	-0.000155	0.102481
C50	C	0.927995	0.499845	0.602481
C51	C	0.802251	-0.356334	0.010225
C52	C	1.302251	0.143666	0.510225
C53	C	0.756448	-0.428298	-0.035628
C54	C	1.256448	0.071702	0.464372
C55	C	0.756459	-0.572177	-0.035628
C56	C	1.256459	-0.072177	0.464372
C57	C	0.802277	-0.644097	0.010231
C58	C	1.302277	-0.144097	0.510231
C59	C	0.848080	-0.572133	0.056084
C60	C	1.348080	-0.072133	0.556084
C61	C	0.848066	-0.428250	0.056078
C62	C	1.348066	0.071750	0.556078
C63	C	0.939698	-0.572085	0.147790
C64	C	1.439698	-0.072085	0.647790
C65	C	0.939692	-0.428205	0.147788
C66	C	1.439692	0.071795	0.647788
C67	C	0.985516	-0.644004	0.193650
C68	C	1.485516	-0.144004	0.693650
C69	C	1.031324	-0.572040	0.239500
C70	C	1.531324	-0.072040	0.739500
C71	C	1.031312	-0.428152	0.239498
C72	C	1.531312	0.071848	0.739498
C73	C	0.985495	-0.356241	0.193641
C74	C	1.485495	0.143759	0.693641
C75	C	1.032268	-0.000193	0.096156
C76	C	1.532268	0.499807	0.596156
C77	C	1.116286	-0.000201	0.097494
C78	C	1.616286	0.499799	0.597494
C79	C	0.899662	-0.000181	-0.036451
C80	C	1.399662	0.499819	0.463549
C81	C	0.898323	-0.000181	-0.120469
C82	C	1.398323	0.499819	0.379531
N83	N	0.893895	0.355951	0.101937
N84	N	1.393895	0.855951	0.601937
C85	C	0.966656	-0.000197	-0.169090
C86	C	1.466656	0.499803	0.330910
C87	C	0.965394	-0.000185	-0.248033
C88	C	1.465394	0.499815	0.251967
C89	C	0.895798	-0.000166	-0.278354
C90	C	1.395798	0.499834	0.221646
C91	C	0.827459	-0.000146	-0.229727
C92	C	1.327459	0.499854	0.270273
C93	C	0.828722	-0.000149	-0.150785
C94	C	1.328722	0.499851	0.349215
C95	C	0.822364	-0.000134	-0.548090
C96	C	1.322364	0.499866	-0.048090
C97	C	0.821106	-0.000135	-0.627038
C98	C	1.321106	0.499865	-0.127038
C99	C	0.959036	-0.000170	-0.645338
C100	C	1.459036	0.499830	-0.145338
C101	C	0.960299	-0.000173	-0.566396
C102	C	1.460299	0.499827	-0.066396
C103	C	0.891961	-0.000145	-0.517776
C104	C	1.391961	0.499855	-0.017776
C105	C	0.893330	-0.000156	-0.432177
C106	C	1.393330	0.499844	0.067823
C107	C	0.894427	-0.000165	-0.363951
C108	C	1.394427	0.499835	0.136049
C109	C	0.888102	-0.000151	0.240322
C110	C	1.388102	0.499849	0.740322
C111	C	0.889440	-0.000142	0.324340
C112	C	1.389440	0.499858	0.824340
H113	H	0.647537	-0.000100	0.231384
H114	H	1.147537	0.499900	0.731384
N115	N	0.094155	-0.000197	0.240793
N116	N	0.594155	0.499803	0.740793
H117	H	0.103902	-0.084930	0.271157
H118	H	0.603902	0.415070	0.771157
H119	H	0.103900	0.084596	0.271113
H120	H	0.603900	0.584596	0.771113
N121	N	1.035366	-0.000201	-0.533698
N122	N	1.535366	0.499799	-0.033698
H123	H	1.065300	0.084529	-0.551432
H124	H	1.565300	0.584529	-0.051432
H125	H	1.025735	-0.000255	-0.476316
H126	H	1.525735	0.499745	0.023684
H127	H	0.802243	-0.239179	0.010215
H128	H	1.302243	0.260821	0.510215
H129	H	0.802275	-0.761251	0.010234
H130	H	1.302275	-0.261251	0.510234
H131	H	0.985483	-0.239087	0.193632
H132	H	1.485483	0.260913	0.693632
N133	N	0.746034	-0.000118	-0.659736
N134	N	1.246034	0.499882	-0.159736
H135	H	0.716108	0.084628	-0.641996
H136	H	1.216108	0.584628	-0.141996
H137	H	0.755666	-0.000181	-0.717118
H138	H	1.255666	0.499819	-0.217118
H139	H	0.770792	-0.000122	-0.254420
H140	H	1.270792	0.499878	0.245580
H141	H	1.068621	-0.630608	0.276839
H142	H	1.568621	-0.130608	0.776839
N143	N	1.032745	-0.000173	-0.697781
N144	N	1.532745	0.499827	-0.197781
H145	H	1.077024	-0.000191	-0.666593
H146	H	1.577024	0.499809	-0.166593
H147	H	1.035222	-0.084908	-0.730940
H148	H	1.535222	0.415092	-0.230940
N149	N	1.041722	-0.000230	-0.136389
N150	N	1.541722	0.499770	0.363611
H151	H	1.084819	-0.000236	-0.179172
H152	H	1.584819	0.499764	0.320828
H153	H	1.045255	0.084504	-0.104028
H154	H	1.545255	0.584504	0.395972
H155	H	0.766718	-0.000112	-0.508512
H156	H	1.266718	0.499888	-0.008512
N157	N	0.755020	-0.000123	-0.098340
N158	N	1.255020	0.499877	0.401660
H159	H	0.710739	-0.000112	-0.129525
H160	H	1.210739	0.499888	0.370475
H161	H	0.752534	-0.084858	-0.065190
H162	H	1.252534	0.415142	0.434810
N163	N	0.132203	-0.000218	-0.045908
N164	N	0.632203	0.499782	0.454092
H165	H	0.174981	-0.000233	-0.089009
H166	H	0.674981	0.499767	0.410991
H167	H	0.099849	-0.084957	-0.049430
H168	H	0.599849	0.415043	0.450570
N169	N	0.985866	-0.799184	0.193318
N170	N	1.485866	-0.299184	0.693318
H171	H	0.950013	-0.833862	0.157198
H172	H	1.450013	-0.333862	0.657198
H173	H	1.039059	-0.833051	0.176194
H174	H	1.539059	-0.333051	0.676194
H175	H	1.021038	-0.000201	-0.287618
H176	H	1.521038	0.499799	0.212382
H177	H	0.719143	-0.369725	-0.072965
H178	H	1.219143	0.130275	0.427035
H179	H	0.504328	-0.000124	0.229092
H180	H	1.004328	0.499876	0.729092
H181	H	0.250232	-0.000147	0.225025
H182	H	0.750232	0.499853	0.725025
H183	H	0.283434	-0.000212	-0.025228
H184	H	0.783434	0.499788	0.474772
N185	N	0.529512	-0.000193	-0.039549
N186	N	1.029512	0.499807	0.460451
H187	H	0.497163	0.084537	-0.043148
H188	H	0.997163	0.584537	0.456852
H189	H	0.572333	-0.000255	-0.082606
H190	H	1.072333	0.499745	0.417394
N191	N	0.693606	-0.000171	-0.036926
N192	N	1.193606	0.499829	0.463074
H193	H	0.662421	-0.000181	-0.081207
H194	H	1.162421	0.499819	0.418793
H195	H	0.726757	0.084566	-0.039408
H196	H	1.226757	0.584566	0.460592
N197	N	0.707057	-0.649806	-0.085080
N198	N	1.207057	-0.149806	0.414920
H199	H	0.678029	-0.582420	-0.114131
H200	H	1.178029	-0.082420	0.385869
H201	H	0.740138	-0.709502	-0.122116
H202	H	1.240138	-0.209502	0.377884
N203	N	1.080711	-0.350537	0.288958
N204	N	1.580711	0.149463	0.788958
H205	H	1.109734	-0.417934	0.318007
H206	H	1.609734	0.082066	0.818007
H207	H	1.117772	-0.290844	0.255914
H208	H	1.617772	0.209156	0.755914
