data_functionalizedCrystal
_audit_creation_method	'MofGen! by Chris Wilmer'
_symmetry_space_group_name_H-M	'P1'
_symmetry_Int_Tables_number	1
_symmetry_cell_setting	triclinic
loop_
_symmetry_equiv_pos_as_xyz
  x,y,z
_cell_length_a	17.917559
_cell_length_b	12.970454
_cell_length_c	12.970454
_cell_angle_alpha	59.999776
_cell_angle_beta	89.999499
_cell_angle_gamma	57.010364
loop_
_atom_site_label
_atom_site_type_symbol
_atom_site_fract_x
_atom_site_fract_y
_atom_site_fract_z
Zr1	Zr	0.754921	1.033571	-0.087835
O2	O	0.629795	1.264398	-0.260328
O3	O	0.793278	0.813656	-0.034956
O4	O	0.793280	1.028745	-0.250046
O5	O	0.629793	1.049310	0.124430
O6	O	0.922239	1.012525	-0.241937
O7	O	0.629794	1.049309	-0.045237
O8	O	0.922237	0.627769	0.142821
O9	O	0.629795	1.434065	-0.260328
O10	O	0.905879	0.887963	-0.006352
O11	O	0.809637	0.900069	0.114216
O12	O	0.809638	1.153309	-0.139026
O13	O	0.713397	1.165414	-0.018457
Zr14	Zr	0.960595	1.007703	0.195697
Zr15	Zr	0.960596	1.007702	-0.074902
Zr16	Zr	0.754919	1.033572	0.182764
Zr17	Zr	0.754921	1.304170	-0.087836
Zr18	Zr	0.960595	0.737104	0.195698
O19	O	0.922237	1.227618	0.142818
O20	O	0.922239	1.227616	-0.241938
O21	O	0.629793	1.264400	0.124429
O22	O	1.085721	0.776876	0.368190
O23	O	1.085723	0.776874	-0.016566
O24	O	0.793276	0.813658	0.349801
O25	O	1.085723	0.991964	-0.016567
O26	O	0.922236	1.012529	0.357909
O27	O	0.793276	1.028749	0.349799
O28	O	1.085722	0.991965	0.153099
O29	O	0.793280	1.413503	-0.250048
O30	O	0.922236	0.627771	0.357911
O31	O	1.085721	0.607208	0.368191
O32	O	1.085722	0.607207	0.153101
O33	O	0.629794	1.434067	-0.045239
O34	O	0.793279	1.413505	-0.034959
O35	O	0.905877	0.887965	0.246888
O36	O	1.002119	0.875860	0.126319
O37	O	0.905879	1.141205	-0.006354
O38	O	0.809637	1.153311	0.114215
C39	C	0.857758	0.682158	0.053933
C40	C	0.857758	0.567281	0.053933
C41	C	0.600489	1.052995	0.037754
C42	C	0.513174	1.063977	0.032263
C43	C	0.362182	0.957255	0.085622
C44	C	0.353341	1.084012	0.022244
C45	C	0.442282	1.072861	0.027820
C46	C	0.273235	0.968404	0.080047
C47	C	1.115027	0.988279	0.070108
C48	C	1.202341	0.977297	0.075599
C49	C	0.857760	1.020635	-0.284546
C50	C	0.857760	1.020634	-0.399422
C51	C	0.857758	1.359116	0.053929
C52	C	0.857758	1.473993	0.053929
C53	C	0.857756	1.020639	0.392408
C54	C	0.857755	1.020640	0.507285
C55	C	1.115027	0.649800	0.070110
C56	C	1.202341	0.523941	0.075601
C57	C	0.857756	0.682160	0.392410
C58	C	0.857755	0.567284	0.507287
C59	C	1.115025	0.649802	0.408588
C60	C	1.202339	0.523944	0.528955
C61	C	0.600491	1.391472	-0.300725
C62	C	0.513177	1.517330	-0.421093
C63	C	0.600489	1.391474	0.037752
C64	C	0.513175	1.517333	0.032261
C65	C	0.857760	1.359114	-0.284548
C66	C	0.857760	1.473990	-0.399425
C67	C	1.193109	0.471155	0.008915
C68	C	1.275142	0.352913	0.014049
C69	C	1.366407	0.287453	0.085877
C70	C	1.375638	0.340250	0.152565
C71	C	1.293605	0.458497	0.147423
C72	C	1.293588	0.458520	0.522545
C73	C	1.375637	0.340277	0.635633
C74	C	1.366434	0.287453	0.755129
C75	C	1.275175	0.352889	0.761535
C76	C	1.193128	0.471137	0.648449
C77	C	0.421928	1.582767	-0.414683
C78	C	0.339879	1.701044	-0.527771
C79	C	0.349082	1.753873	-0.647267
C80	C	0.440341	1.688430	-0.653673
C81	C	0.522387	1.570163	-0.540587
C82	C	0.522407	1.570130	0.098936
C83	C	0.440374	1.688402	0.093772
C84	C	0.349108	1.753866	0.021941
C85	C	0.339878	1.701064	-0.044742
C86	C	0.421910	1.582802	-0.039585
H87	H	0.278976	1.200908	-0.036213
Br88	Br	0.237722	1.914382	-0.800732
H89	H	0.436542	0.840369	0.144064
H90	H	0.414416	1.539762	-0.317395
Br91	Br	1.069293	0.559908	0.657170
Br92	Br	1.069259	0.559973	-0.088580
Br93	Br	0.646223	1.481362	-0.549308
Br94	Br	0.216010	1.789921	-0.142219
Br95	Br	1.306153	0.530113	0.237943
Br96	Br	0.646257	1.481316	0.196427
Br97	Br	1.477729	0.126973	0.092841
H98	H	0.414379	1.539819	-0.093877
Br99	Br	1.499506	0.251390	0.250044
H100	H	1.267607	0.309941	-0.040257
H101	H	1.267696	0.309862	0.858844
H102	H	1.301100	0.501511	0.425257
Br103	Br	1.499476	0.251492	0.626909
Br104	Br	1.477794	0.126970	0.908594
H105	H	0.265580	1.754309	-0.522530
H106	H	0.447822	1.731460	-0.750980
Br107	Br	0.237787	1.914366	0.014956
H108	H	0.447908	1.731373	0.148079
