data_functionalizedCrystal
_audit_creation_method	'MofGen! by Chris Wilmer'
_symmetry_space_group_name_H-M	'P1'
_symmetry_Int_Tables_number	1
_symmetry_cell_setting	triclinic
loop_
_symmetry_equiv_pos_as_xyz
  x,y,z
_cell_length_a	14.519709
_cell_length_b	13.339070
_cell_length_c	11.804366
_cell_angle_alpha	74.863629
_cell_angle_beta	101.841340
_cell_angle_gamma	99.654719
loop_
_atom_site_label
_atom_site_type_symbol
_atom_site_fract_x
_atom_site_fract_y
_atom_site_fract_z
O1	O	0.475921	1.322658	0.099082
O2	O	0.415207	1.028023	0.099074
O3	O	0.313312	1.183154	0.099067
O4	O	0.577817	1.167526	0.099088
O5	O	0.286579	1.224042	-0.098990
O6	O	0.388475	1.068910	-0.098984
O7	O	0.449189	1.363546	-0.098976
Cu8	Cu	0.416391	1.219961	-0.117064
Cu9	Cu	0.448005	1.171607	0.117162
O10	O	0.551085	1.208414	-0.098969
C11	C	0.391586	1.010759	0.000044
C12	C	0.361016	0.898403	0.000040
C13	C	0.598712	0.534032	0.000078
C14	C	0.627438	0.639595	0.000085
C15	C	0.560834	0.704302	0.000073
C16	C	0.465501	0.663436	0.000055
C17	C	0.436774	0.557860	0.000058
C18	C	0.398897	0.728130	0.000053
C19	C	0.303563	0.687264	0.000035
C20	C	0.274841	0.581699	0.000037
C21	C	0.341444	0.516992	0.000048
C22	C	0.427624	0.833706	0.000051
C23	C	0.265686	0.857534	0.000031
C24	C	0.236960	0.751971	0.000024
C25	C	0.265400	1.202870	0.000038
C26	C	0.162464	1.200688	0.000038
C27	C	-0.214471	1.192649	0.000068
C28	C	-0.109597	1.194882	0.000059
C29	C	-0.026007	1.196669	0.000052
C30	C	0.078874	1.198901	0.000045
C31	C	0.598996	1.188698	0.000062
C32	C	0.701934	1.190878	0.000071
C33	C	0.472811	1.380809	0.000057
C34	C	0.503382	1.493163	0.000068
N35	N	0.470234	1.137598	0.281904
N36	N	0.394157	1.253979	-0.281806
C37	C	0.340792	1.335675	0.655845
C38	C	0.323983	1.361412	0.531182
C39	C	0.360545	1.305461	0.468856
C40	C	0.413917	1.223768	0.531206
C41	C	0.430721	1.198023	0.655881
C42	C	0.450474	1.167809	0.468892
C43	C	0.503846	1.086115	0.531242
C44	C	0.520648	1.060375	0.655904
C45	C	0.484086	1.116326	0.718230
C46	C	0.433670	1.193554	0.344217
C47	C	0.523600	1.055901	0.344253
C48	C	0.540408	1.030164	0.468916
H49	H	0.211452	0.910218	0.000026
H50	H	0.390214	1.260068	0.293464
C51	C	0.300956	1.396299	0.723504
C52	C	0.201985	1.386194	0.693230
C53	C	0.165271	1.442013	0.755571
H54	H	0.325557	1.468072	0.703160
H55	H	0.318574	1.369227	0.806680
H56	H	0.184375	1.413270	0.610072
H57	H	0.177359	1.314433	0.713577
H58	H	0.182889	1.414941	0.838748
H59	H	0.189878	1.513783	0.735223
H60	H	0.098116	1.435156	0.735048
H61	H	0.583865	0.963647	0.519696
C62	C	0.670938	0.463620	0.000280
C63	C	0.672905	0.381274	0.102165
C64	C	0.739424	0.316379	0.102386
H65	H	0.731881	0.502934	0.000346
H66	H	0.653771	0.436128	-0.068749
H67	H	0.690078	0.408765	0.171176
H68	H	0.611979	0.341934	0.102120
H69	H	0.722257	0.288887	0.033357
H70	H	0.800363	0.355702	0.102449
H71	H	0.740762	0.260495	0.171508
H72	H	0.280527	1.427925	0.480422
C73	C	0.342240	1.333600	0.333507
C74	C	0.287696	1.417136	0.292244
C75	C	0.270828	1.443102	0.167563
H76	H	0.309085	1.274854	0.305138
H77	H	0.400959	1.353314	0.305290
H78	H	0.228987	1.397418	0.320449
H79	H	0.320835	1.475900	0.320580
H80	H	0.329547	1.462816	0.139345
H81	H	0.237676	1.384351	0.139205
H82	H	0.233826	1.499790	0.139549
H83	H	0.584229	0.790255	0.000082
C84	C	0.578650	0.971673	0.723385
C85	C	0.607094	0.928200	0.642126
C86	C	0.660537	0.846495	0.704243
H87	H	0.541234	0.919428	0.772004
H88	H	0.633039	0.997994	0.772012
H89	H	0.552714	0.901877	0.593519
H90	H	0.644523	0.980417	0.593505
H91	H	0.714925	0.872816	0.752871
H92	H	0.623114	0.794258	0.752860
H93	H	0.679850	0.816994	0.649119
C94	C	0.563162	0.994972	0.276662
C95	C	0.526602	0.889295	0.306942
C96	C	0.563009	0.833141	0.244681
H97	H	0.630312	1.001589	0.297067
H98	H	0.545489	1.021940	0.193474
H99	H	0.544281	0.862335	0.390111
H100	H	0.459456	0.882646	0.286534
H101	H	0.545337	0.860109	0.161493
H102	H	0.630158	0.839767	0.265091
H103	H	0.538203	0.761436	0.265209
H104	H	0.318061	0.431032	0.000042
H105	H	0.705059	0.672859	0.000109
C106	C	0.531086	0.878252	0.000130
C107	C	0.542000	0.984547	0.000159
C108	C	0.637304	1.025612	0.000249
H109	H	0.550431	0.870417	-0.068911
H110	H	0.568989	0.841846	0.069232
H111	H	0.504110	1.020942	-0.068936
H112	H	0.522676	0.992411	0.069195
H113	H	0.675207	0.989206	0.069351
H114	H	0.656640	1.017770	-0.068794
H115	H	0.644723	1.097734	0.000280
C116	C	0.171287	0.537534	-0.000035
C117	C	0.119101	0.616798	-0.000078
C118	C	0.023702	0.576158	-0.000161
H119	H	0.165905	0.482609	0.069013
H120	H	0.147350	0.511137	-0.069130
H121	H	0.143030	0.643179	0.069010
H122	H	0.124454	0.671728	-0.069121
H123	H	-0.000234	0.549762	-0.069257
H124	H	0.018330	0.521234	0.068888
H125	H	-0.011719	0.629934	-0.000202
H126	H	0.159340	0.718680	0.000019
H127	H	0.497775	1.095374	0.819741
