data_functionalizedCrystal
_audit_creation_method	'MofGen! by Chris Wilmer'
_symmetry_space_group_name_H-M	'P1'
_symmetry_Int_Tables_number	1
_symmetry_cell_setting	triclinic
loop_
_symmetry_equiv_pos_as_xyz
  x,y,z
_cell_length_a	14.908183
_cell_length_b	25.639243
_cell_length_c	14.908308
_cell_angle_alpha	93.275293
_cell_angle_beta	89.779152
_cell_angle_gamma	93.317124
loop_
_atom_site_label
_atom_site_type_symbol
_atom_site_fract_x
_atom_site_fract_y
_atom_site_fract_z
Zn1	Zn	-0.387260	0.770059	-0.487792
Zn2	Zn	0.112740	1.270059	0.012208
Zn3	Zn	-0.528969	0.770586	-0.328755
Zn4	Zn	-0.028969	1.270586	0.171245
Zn5	Zn	-0.378625	0.687945	-0.337443
Zn6	Zn	0.121375	1.187945	0.162557
Zn7	Zn	-0.537593	0.677876	-0.479058
Zn8	Zn	-0.037593	1.177876	0.020942
O9	O	-0.458112	0.726616	-0.408262
O10	O	0.041888	1.226616	0.091738
O11	O	-0.406063	0.843293	-0.466715
O12	O	0.093937	1.343293	0.033285
O13	O	-0.501804	0.764057	-0.204083
O14	O	-0.001804	1.264057	0.295917
O15	O	-0.253936	0.702831	-0.364678
O16	O	0.246064	1.202831	0.135322
O17	O	-0.510176	0.843680	-0.349871
O18	O	-0.010176	1.343680	0.150129
O19	O	-0.260280	0.763160	-0.475139
O20	O	0.239720	1.263160	0.024861
O21	O	-0.391347	0.703342	-0.210466
O22	O	0.108653	1.203342	0.289534
O23	O	-0.399708	0.613445	-0.356209
O24	O	0.100292	1.113445	0.143791
O25	O	-0.524873	0.685670	-0.606040
O26	O	-0.024873	1.185670	-0.106040
O27	O	-0.516500	0.606047	-0.460253
O28	O	-0.016500	1.106047	0.039747
O29	O	-0.414424	0.753396	-0.612457
O30	O	0.085576	1.253396	-0.112457
O31	O	-0.655948	0.754294	-0.341402
O32	O	-0.155948	1.254294	0.158598
O33	O	-0.662283	0.686180	-0.451829
O34	O	-0.162283	1.186180	0.048171
C35	C	-0.458104	0.590775	-0.408226
C36	C	0.041896	1.090775	0.091774
C37	C	-0.458123	0.532660	-0.408231
C38	C	0.041877	1.032660	0.091769
C39	C	-0.691744	0.719215	-0.394744
C40	C	-0.191744	1.219215	0.105256
C41	C	-0.791694	0.716096	-0.388991
C42	C	-0.291694	1.216096	0.111009
C43	C	-0.403996	0.172083	-0.469193
C44	C	0.096004	0.672083	0.030807
C45	C	-0.403995	0.117479	-0.469199
C46	C	0.096005	0.617479	0.030801
O47	O	-0.357955	0.089062	-0.520987
O48	O	0.142045	0.589062	-0.020987
N49	N	-0.458111	0.090376	-0.408287
N50	N	0.041889	0.590376	0.091713
C51	C	-0.512223	0.117882	-0.347359
C52	C	-0.012223	0.617882	0.152641
O53	O	-0.558252	0.089815	-0.295548
O54	O	-0.058252	0.589815	0.204452
C55	C	-0.512218	0.172486	-0.347350
C56	C	-0.012218	0.672486	0.152650
C57	C	-0.458106	0.199585	-0.408272
C58	C	0.041894	0.699585	0.091728
C59	C	-0.349887	0.199183	-0.530110
C60	C	0.150113	0.699183	-0.030110
C61	C	-0.349889	0.253783	-0.530105
C62	C	0.150111	0.753783	-0.030105
C63	C	-0.404000	0.281285	-0.469184
C64	C	0.096000	0.781285	0.030816
C65	C	-0.458108	0.254185	-0.408267
C66	C	0.041892	0.754185	0.091733
C67	C	-0.566325	0.199990	-0.286418
C68	C	-0.066325	0.699990	0.213582
C69	C	-0.566315	0.254598	-0.286414
C70	C	-0.066315	0.754598	0.213586
C71	C	-0.512203	0.281697	-0.347336
C72	C	-0.012203	0.781697	0.152664
C73	C	-0.512220	0.336287	-0.347341
C74	C	-0.012220	0.836287	0.152659
N75	N	-0.458105	0.363390	-0.408253
N76	N	0.041895	0.863390	0.091747
C77	C	-0.403995	0.335888	-0.469174
C78	C	0.096005	0.835888	0.030826
C79	C	-0.512228	0.003210	-0.347382
C80	C	-0.012228	0.503210	0.152618
C81	C	-0.512239	-0.051393	-0.347394
C82	C	-0.012239	0.448607	0.152606
C83	C	-0.404009	-0.051792	-0.469233
C84	C	0.095991	0.448208	0.030767
C85	C	-0.404004	0.002812	-0.469224
C86	C	0.095996	0.502812	0.030776
C87	C	-0.458113	0.030313	-0.408294
C88	C	0.041887	0.530313	0.091706
C89	C	-0.404003	0.450554	-0.469160
C90	C	0.095997	0.950554	0.030840
C91	C	-0.404013	0.505159	-0.469153
C92	C	0.095987	1.005159	0.030847
C93	C	-0.512238	0.505553	-0.347311
C94	C	-0.012238	1.005553	0.152689
C95	C	-0.512232	0.450953	-0.347321
C96	C	-0.012232	0.950953	0.152679
C97	C	-0.458108	0.423454	-0.408250
C98	C	0.041892	0.923454	0.091750
O99	O	-0.558234	0.364739	-0.295577
O100	O	-0.058234	0.864739	0.204423
O101	O	-0.357965	0.363962	-0.520968
O102	O	0.142035	0.863962	-0.020968
C103	C	-0.929340	0.680318	-0.323325
C104	C	-0.429340	1.180318	0.176675
C105	C	-0.835427	0.683247	-0.328728
C106	C	-0.335427	1.183247	0.171272
C107	C	-0.841881	0.746016	-0.443857
C108	C	-0.341881	1.246016	0.056143
C109	C	-0.935794	0.743087	-0.438454
C110	C	-0.435794	1.243087	0.061546
C111	C	-0.979519	0.710238	-0.378185
C112	C	-0.479519	1.210238	0.121815
C113	C	-1.073433	0.707312	-0.372777
C114	C	-0.573433	1.207312	0.127223
C115	C	-1.079886	0.770077	-0.487910
C116	C	-0.579886	1.270077	0.012090
C117	C	-0.985973	0.773006	-0.493314
C118	C	-0.485973	1.273006	0.006686
C119	C	-0.223568	0.734060	-0.421852
C120	C	0.276432	1.234060	0.078148
C121	C	-0.123620	0.737232	-0.427643
C122	C	0.376380	1.237232	0.072357
C123	C	-0.471573	0.718351	-0.642786
C124	C	0.028427	1.218351	-0.142786
C125	C	-0.477310	0.714829	-0.742726
C126	C	0.022690	1.214829	-0.242726
C127	C	-0.458121	0.862988	-0.408298
C128	C	0.041879	1.362988	0.091702
C129	C	-0.458124	0.921101	-0.408313
C130	C	0.041876	1.421101	0.091687
C131	C	-0.373058	0.778733	-0.937209
C132	C	0.126942	1.278733	-0.437209
C133	C	-0.378445	0.775426	-1.031112
C134	C	0.121555	1.275426	-0.531112
C135	C	-0.493466	0.704904	-1.024437
C136	C	0.006534	1.204904	-0.524437
C137	C	-0.488079	0.708212	-0.930534
C138	C	0.011921	1.208212	-0.430534
C139	C	-0.427874	0.745128	-0.886923
C140	C	0.072126	1.245128	-0.386923
C141	C	-0.422492	0.748438	-0.793018
C142	C	0.077508	1.248438	-0.293018
C143	C	-0.537507	0.677914	-0.786345
C144	C	-0.037507	1.177914	-0.286345
C145	C	-0.542894	0.674606	-0.880248
C146	C	-0.042894	1.174606	-0.380248
C147	C	-0.444638	0.734881	-0.174654
C148	C	0.055362	1.234881	0.325346
C149	C	-0.438648	0.738513	-0.074729
C150	C	0.061352	1.238513	0.425271
H151	H	-0.359927	0.428171	-0.518771
H152	H	0.140073	0.928171	-0.018771
H153	H	-0.359940	0.024873	-0.518831
H154	H	0.140060	0.524873	-0.018831
H155	H	-0.610376	0.276986	-0.236795
H156	H	-0.110376	0.776986	0.263205
O157	O	-0.319329	0.811674	-1.085353
O158	O	0.180671	1.311674	-0.585353
H159	H	-0.276568	0.837901	-1.039248
H160	H	0.223432	1.337901	-0.539248
O161	O	-0.558388	0.665087	-1.071487
O162	O	-0.058388	1.165087	-0.571487
H163	H	-0.595598	0.642270	-1.020747
H164	H	-0.095598	1.142270	-0.520747
H165	H	-0.794573	0.658883	-0.284057
H166	H	-0.294573	1.158883	0.215943
O167	O	-0.357563	0.788253	-0.745974
O168	O	0.142437	1.288253	-0.245974
H169	H	-0.288022	0.780885	-0.768074
H170	H	0.211978	1.280885	-0.268074
H171	H	-0.806267	0.772757	-0.492933
H172	H	-0.306267	1.272757	0.007067
O173	O	-0.570596	0.421719	-0.281618
O174	O	-0.070596	0.921719	0.218382
H175	H	-0.608219	0.450018	-0.239252
H176	H	-0.108219	0.950018	0.260748
H177	H	-0.964942	0.653574	-0.274247
H178	H	-0.464942	1.153574	0.225753
H179	H	-0.556295	0.527955	-0.297712
H180	H	-0.056295	1.027955	0.202288
O181	O	-0.345646	0.534388	-0.534863
O182	O	0.154354	1.034388	-0.034863
H183	H	-0.297533	0.562132	-0.497342
H184	H	0.202467	1.062132	0.002658
H185	H	-0.556298	0.025598	-0.297767
H186	H	-0.056298	0.525598	0.202233
O187	O	-0.938806	0.808436	-0.558312
O188	O	-0.438806	1.308436	-0.058312
H189	H	-0.955896	0.849458	-0.541921
H190	H	-0.455896	1.349458	-0.041921
O191	O	-0.607826	0.634792	-0.927290
O192	O	-0.107826	1.134792	-0.427290
H193	H	-0.591367	0.594882	-0.910153
H194	H	-0.091367	1.094882	-0.410153
H195	H	-0.556313	-0.073453	-0.297795
H196	H	-0.056313	0.426547	0.202205
O197	O	-0.624686	0.170769	-0.220707
O198	O	-0.124686	0.670769	0.279293
H199	H	-0.581744	0.148773	-0.177368
H200	H	-0.081744	0.648773	0.322632
H201	H	-1.109034	0.680565	-0.323702
H202	H	-0.609034	1.180565	0.176298
O203	O	-1.134006	0.802349	-0.547091
O204	O	-0.634006	1.302349	-0.047091
H205	H	-1.206656	0.794792	-0.533215
H206	H	-0.706656	1.294792	-0.033215
O207	O	-0.308131	0.818549	-0.890162
O208	O	0.191869	1.318549	-0.390162
H209	H	-0.270917	0.841361	-0.940906
H210	H	0.229083	1.341361	-0.440906
H211	H	-0.582145	0.650551	-0.745392
H212	H	-0.082145	1.150551	-0.245392
H213	H	-0.305824	0.275843	-0.579713
H214	H	0.194176	0.775843	-0.079713
H215	H	-0.359947	-0.074193	-0.518837
H216	H	0.140053	0.425807	-0.018837
O217	O	-0.291524	0.169524	-0.595825
O218	O	0.208476	0.669524	-0.095825
H219	H	-0.253908	0.197550	-0.638179
H220	H	0.246092	0.697550	-0.138179
