data_functionalizedCrystal
_audit_creation_method	'MofGen! by Chris Wilmer'
_symmetry_space_group_name_H-M	'P1'
_symmetry_Int_Tables_number	1
_symmetry_cell_setting	triclinic
loop_
_symmetry_equiv_pos_as_xyz
  x,y,z
_cell_length_a	16.120530
_cell_length_b	16.625546
_cell_length_c	16.625539
_cell_angle_alpha	90.028532
_cell_angle_beta	87.085995
_cell_angle_gamma	92.882099
loop_
_atom_site_label
_atom_site_type_symbol
_atom_site_fract_x
_atom_site_fract_y
_atom_site_fract_z
Zn1	Zn	1.274529	0.383605	-0.518325
Zn2	Zn	1.274437	0.518439	-0.383483
Zn3	Zn	1.135119	0.376783	-0.376677
Zn4	Zn	1.135079	0.511551	-0.511447
O5	O	1.204791	0.447595	-0.447483
O6	O	1.391182	0.407229	-0.506164
O7	O	1.255935	0.499676	-0.269746
O8	O	1.153666	0.264858	-0.395497
O9	O	1.391115	0.506291	-0.407096
O10	O	1.256091	0.269870	-0.499565
O11	O	1.153578	0.395601	-0.264746
O12	O	1.018448	0.388922	-0.388828
O13	O	1.153600	0.494552	-0.625192
O14	O	1.018419	0.487936	-0.487842
O15	O	1.256053	0.400550	-0.630246
O16	O	1.255897	0.630355	-0.400427
O17	O	1.153511	0.625295	-0.494442
C18	C	1.204712	0.657082	-0.447445
C19	C	1.204755	0.746705	-0.447460
C20	C	0.988183	0.436942	-0.436851
C21	C	0.895517	0.432404	-0.432321
C22	C	1.204832	0.447543	-0.657794
C23	C	1.204849	0.447522	-0.747416
C24	C	0.725856	0.424100	-0.424059
C25	C	0.684567	0.471148	-0.470965
C26	C	0.590161	0.466528	-0.466368
C27	C	0.820270	0.428720	-0.428655
C28	C	1.422245	0.458290	-0.458157
C29	C	1.514910	0.462847	-0.462705
C30	C	1.204893	0.237291	-0.447539
C31	C	1.204936	0.147672	-0.447563
C32	C	1.204900	1.074888	-0.447551
C33	C	1.204857	0.983577	-0.447527
C34	C	1.204827	0.910799	-0.447505
C35	C	1.204785	0.819483	-0.447482
C36	C	1.204863	0.447504	-0.820199
C37	C	1.204882	0.447475	-0.911508
C38	C	1.204902	0.447448	-0.984286
C39	C	1.204923	0.447420	-1.075601
C40	C	1.204798	0.447590	-0.237992
C41	C	1.204942	0.447392	-0.148379
H42	H	0.720118	0.514896	-0.514577
H43	H	0.690307	0.380355	-0.380451
