data_functionalizedCrystal
_audit_creation_method	'MofGen! by Chris Wilmer'
_symmetry_space_group_name_H-M	'P1'
_symmetry_Int_Tables_number	1
_symmetry_cell_setting	triclinic
loop_
_symmetry_equiv_pos_as_xyz
  x,y,z
_cell_length_a	8.559649
_cell_length_b	12.996460
_cell_length_c	8.597304
_cell_angle_alpha	97.705996
_cell_angle_beta	77.624695
_cell_angle_gamma	90.005498
loop_
_atom_site_label
_atom_site_type_symbol
_atom_site_fract_x
_atom_site_fract_y
_atom_site_fract_z
O1	O	2.119300	0.080839	-0.053140
O2	O	1.655360	0.088016	0.027760
O3	O	1.896459	0.064074	-0.242258
O4	O	1.878201	0.104782	0.216878
O5	O	1.896433	-0.107061	-0.242268
O6	O	1.655334	-0.083119	0.027750
O7	O	2.119274	-0.090295	-0.053150
Cu8	Cu	1.887302	-0.102333	-0.012701
Cu9	Cu	1.887332	0.100054	-0.012689
O10	O	1.878175	-0.066353	0.216868
C11	C	1.595913	0.002993	0.033886
C12	C	1.418818	0.004612	0.052136
N13	N	1.887292	-0.244681	-0.012712
C14	C	1.887330	-0.664493	-0.012687
C15	C	1.887315	-0.547688	-0.012688
C16	C	1.887312	-0.454591	-0.012698
C17	C	1.887295	-0.337778	-0.012702
C18	C	2.178721	-0.005270	-0.059276
C19	C	2.355816	-0.006883	-0.077525
C20	C	1.894484	-0.026655	-0.300499
C21	C	1.888620	-0.042033	-0.474020
N22	N	1.887354	0.242400	-0.012692
C23	C	1.880150	0.024378	0.275109
C24	C	1.886014	0.039763	0.448630
H25	H	1.337266	0.015699	0.177114
C26	C	1.885557	-0.152548	-0.563875
H27	H	1.887968	-0.201798	-0.492078
H28	H	1.976156	-0.164071	-0.650640
H29	H	1.790630	-0.159957	-0.604318
C30	C	1.889070	0.150272	-0.461520
H31	H	1.886637	0.199525	-0.533309
H32	H	1.983979	0.157684	-0.421060
H33	H	1.798452	0.161789	-0.374761
C34	C	1.465965	-0.021854	-0.246353
H35	H	1.574535	-0.021024	-0.236884
H36	H	1.445679	0.032785	-0.303164
H37	H	1.445658	-0.086578	-0.303160
