data_functionalizedCrystal
_audit_creation_method	'MofGen! by Chris Wilmer'
_symmetry_space_group_name_H-M	'P1'
_symmetry_Int_Tables_number	1
_symmetry_cell_setting	triclinic
loop_
_symmetry_equiv_pos_as_xyz
  x,y,z
_cell_length_a	14.560438
_cell_length_b	18.426585
_cell_length_c	14.560438
_cell_angle_alpha	60.001119
_cell_angle_beta	90.000907
_cell_angle_gamma	59.999285
loop_
_atom_site_label
_atom_site_type_symbol
_atom_site_fract_x
_atom_site_fract_y
_atom_site_fract_z
Zr1	Zr	0.884763	0.794338	-0.120460
O2	O	0.738113	0.945742	-0.267106
O3	O	0.929720	0.642938	-0.075510
O4	O	0.929719	0.794340	-0.267107
O5	O	0.738115	0.794338	0.075632
O6	O	1.080860	0.794338	-0.267102
O7	O	0.738115	0.794340	-0.075509
O8	O	1.080862	0.523507	0.075631
O9	O	0.738113	1.065168	-0.267100
O10	O	1.061687	0.705208	-0.056329
O11	O	0.948893	0.705208	0.056462
O12	O	0.948891	0.883465	-0.169119
O13	O	0.836097	0.883465	-0.056328
Zr14	Zr	1.125816	0.794332	0.120601
Zr15	Zr	1.125816	0.794335	-0.120452
Zr16	Zr	0.884764	0.794335	0.120593
Zr17	Zr	0.884762	0.984810	-0.120451
Zr18	Zr	1.125817	0.603860	0.120592
O19	O	1.080859	0.945732	0.075651
O20	O	1.080859	0.945737	-0.267095
O21	O	0.738114	0.945737	0.075639
O22	O	1.272466	0.642928	0.267247
O23	O	1.272465	0.642933	-0.075498
O24	O	0.929720	0.642933	0.267236
O25	O	1.272464	0.794332	-0.075491
O26	O	1.080860	0.794330	0.267248
O27	O	0.929719	0.794333	0.267243
O28	O	1.272465	0.794330	0.075650
O29	O	0.929717	1.065166	-0.267094
O30	O	1.080862	0.523504	0.267235
O31	O	1.272467	0.523502	0.267241
O32	O	1.272466	0.523504	0.075637
O33	O	0.738113	1.065166	-0.075496
O34	O	0.929717	1.065163	-0.075490
O35	O	1.061688	0.705205	0.169260
O36	O	1.174482	0.705205	0.056469
O37	O	1.061686	0.883462	-0.056321
O38	O	0.948892	0.883462	0.056470
C39	C	1.005291	0.556084	0.000059
C40	C	1.005292	0.475224	0.000055
C41	C	1.005285	0.179114	0.000088
C42	C	1.005284	0.261501	0.000082
C43	C	1.005288	0.327167	0.000071
C44	C	1.005288	0.409558	0.000066
C45	C	0.703770	0.794340	0.000061
C46	C	0.601437	0.794341	0.000057
C47	C	0.553353	0.794344	-0.083206
C48	C	0.457208	0.794334	-0.083190
C49	C	0.457234	0.794323	0.083355
C50	C	0.553383	0.794326	0.083343
C51	C	0.601407	0.794359	-0.166492
C52	C	0.553323	0.794363	-0.249762
C53	C	0.457177	0.794354	-0.249747
C54	C	0.409116	0.794340	-0.166462
C55	C	1.306809	0.794331	0.000080
C56	C	1.409142	0.794329	0.000084
C57	C	1.005289	0.794339	-0.301449
C58	C	1.005289	0.794340	-0.403782
C59	C	1.005288	1.032586	0.000082
C60	C	1.005288	1.113446	0.000086
C61	C	0.946406	0.887387	-0.510733
C62	C	0.946410	0.887382	-0.606882
C63	C	1.064180	0.701276	-0.489114
C64	C	1.064183	0.701282	-0.392968
C65	C	0.887513	0.980445	-0.521547
C66	C	0.828624	1.073499	-0.628504
C67	C	0.828627	1.073494	-0.724653
C68	C	0.887519	0.980435	-0.713845
C69	C	1.005290	0.794331	0.301590
C70	C	1.005290	0.794330	0.403923
C71	C	1.306811	0.556080	0.000069
C72	C	1.409144	0.475218	0.000069
C73	C	1.005291	0.556080	0.301579
C74	C	1.005292	0.475219	0.403908
C75	C	1.306811	0.556076	0.301589
C76	C	1.409145	0.475213	0.403921
C77	C	0.703768	1.032594	-0.301448
C78	C	0.601434	1.113457	-0.403780
C79	C	0.703768	1.032590	0.000072
C80	C	0.601435	1.113452	0.000072
C81	C	1.005288	1.032590	-0.301438
C82	C	1.005287	1.113451	-0.403767
C83	C	1.398324	0.437246	-0.058821
C84	C	1.494468	0.361279	-0.058844
C85	C	1.601431	0.323279	0.000030
C86	C	1.612250	0.361259	0.058922
C87	C	1.516107	0.437230	0.058937
C88	C	1.064170	0.437244	0.510852
C89	C	1.064166	0.361276	0.607011
C90	C	1.005291	0.323280	0.596222
C91	C	0.946405	0.361263	0.489266
C92	C	0.946403	0.437234	0.393110
C93	C	1.516090	0.437238	0.393102
C94	C	1.612252	0.361270	0.489245
C95	C	1.601467	0.323271	0.596206
C96	C	1.494511	0.361253	0.607023
C97	C	1.398351	0.437226	0.510881
C98	C	0.494490	1.151441	-0.392961
C99	C	0.398327	1.227433	-0.489104
C100	C	0.409112	1.265436	-0.596065
C101	C	0.516068	1.227449	-0.606882
C102	C	0.612228	1.151463	-0.510740
C103	C	0.612256	1.151432	0.058952
C104	C	0.516112	1.227420	0.058949
C105	C	0.409148	1.265422	0.000071
C106	C	0.398329	1.227440	-0.058816
C107	C	0.494472	1.151458	-0.058818
C108	C	1.064174	1.151423	-0.392942
C109	C	1.064196	1.227391	-0.489082
C110	C	1.005323	1.265391	-0.596046
C111	C	0.946434	1.227411	-0.606868
C112	C	0.946419	1.151440	-0.510729
H113	H	0.679692	0.794370	-0.166514
H114	H	1.485637	0.330365	-0.106801
H115	H	0.524835	1.258400	-0.693982
H116	H	0.898501	1.258363	-0.693971
H117	H	1.679708	0.261418	0.000009
H118	H	1.524892	0.468166	0.306017
H119	H	0.418034	0.794347	-0.317542
N120	N	1.283011	0.478157	0.522573
H121	H	1.240501	0.464924	0.485314
H122	H	1.240559	0.554413	0.485331
H123	H	1.112149	1.258306	-0.480248
H124	H	0.485687	1.120503	-0.305876
N125	N	1.127702	0.320306	0.722358
H126	H	1.118774	0.266414	0.781644
H127	H	1.096800	0.378335	0.731257
H128	H	1.699332	0.330353	0.480417
H129	H	0.898461	0.468143	0.306035
H130	H	1.699353	0.330308	0.106855
H131	H	0.699342	1.120496	0.106905
H132	H	0.418096	0.794313	0.151162
H133	H	0.592465	0.794366	-0.317565
H134	H	0.311248	1.258349	-0.480274
H135	H	1.112114	0.468172	0.519658
H136	H	1.005301	0.261420	0.674528
H137	H	1.679776	0.261409	0.674482
N138	N	1.005355	1.347322	-0.699734
H139	H	1.051599	1.365605	-0.676635
H140	H	0.925588	1.410324	-0.745981
N141	N	1.482888	0.320263	0.722391
H142	H	1.560039	0.266370	0.781646
H143	H	1.440382	0.288787	0.731302
H144	H	0.330803	1.327308	-0.674341
N145	N	1.527786	0.478178	0.122462
H146	H	1.610139	0.442570	0.159755
H147	H	1.490470	0.464945	0.181662
H148	H	0.311226	1.258393	-0.106753
H149	H	0.699304	1.120538	-0.519563
N150	N	0.527795	1.268376	0.122466
H151	H	0.610146	1.232760	0.159771
H152	H	0.490463	1.255161	0.181656
H153	H	0.330834	0.794322	-0.166450
H154	H	0.330871	1.327292	0.000082
N155	N	0.482793	1.110497	-0.122327
H156	H	0.400441	1.146105	-0.159620
H157	H	0.520110	1.034230	-0.068270
H158	H	0.898462	1.120531	-0.519559
N159	N	0.605255	0.794319	0.173148
H160	H	0.560220	0.794317	0.225906
H161	H	0.605106	0.857599	0.136731
N162	N	0.887512	0.980450	-0.417845
H163	H	0.841272	1.053518	-0.440921
H164	H	0.967288	0.943875	-0.371618
H165	H	0.898470	0.330315	0.480499
N166	N	1.127695	0.600928	-0.277607
H167	H	1.164997	0.541975	-0.285344
H168	H	1.073636	0.596876	-0.235145
N169	N	0.765121	1.173865	-0.640165
H170	H	0.774052	1.159752	-0.563028
H171	H	0.682782	1.214500	-0.682685
N172	N	0.765155	1.173852	-0.840011
H173	H	0.727859	1.232800	-0.832266
H174	H	0.705961	1.177923	-0.882492
N175	N	1.127676	1.110449	-0.277582
H176	H	1.164983	1.146037	-0.285330
H177	H	1.186865	1.034179	-0.235126
H178	H	1.112125	0.625512	-0.480325
N179	N	0.887837	0.980168	-0.817382
H180	H	0.808198	1.016612	-0.863831
H181	H	0.934227	0.906986	-0.793936
N182	N	1.282963	0.478220	-0.122323
H183	H	1.290714	0.442632	-0.159632
H184	H	1.240504	0.554490	-0.181509
