data_functionalizedCrystal
_audit_creation_method	'MofGen! by Chris Wilmer'
_symmetry_space_group_name_H-M	'P1'
_symmetry_Int_Tables_number	1
_symmetry_cell_setting	triclinic
loop_
_symmetry_equiv_pos_as_xyz
  x,y,z
_cell_length_a	16.992694
_cell_length_b	15.944551
_cell_length_c	15.455313
_cell_angle_alpha	92.664316
_cell_angle_beta	87.142206
_cell_angle_gamma	87.083481
loop_
_atom_site_label
_atom_site_type_symbol
_atom_site_fract_x
_atom_site_fract_y
_atom_site_fract_z
O1	O	1.043832	0.174669	-0.072025
O2	O	1.543832	0.674669	0.427975
O3	O	0.815548	0.172714	-0.072051
O4	O	1.315548	0.672714	0.427949
O5	O	0.935924	0.051836	-0.072029
O6	O	1.435924	0.551836	0.427971
O7	O	0.923457	0.295548	-0.072046
O8	O	1.423457	0.795548	0.427954
O9	O	0.929040	0.058718	0.072232
O10	O	1.429040	0.558718	0.572232
O11	O	0.808664	0.179596	0.072210
O12	O	1.308664	0.679596	0.572210
O13	O	1.036949	0.181551	0.072236
O14	O	1.536949	0.681551	0.572236
Cu15	Cu	0.922178	0.181202	0.085395
Cu16	Cu	1.422178	0.681202	0.585395
Cu17	Cu	0.930319	0.173063	-0.085210
Cu18	Cu	1.430319	0.673063	0.414790
O19	O	0.916573	0.302430	0.072215
O20	O	1.416573	0.802430	0.572215
C21	C	0.782894	0.173641	0.000077
C22	C	1.282894	0.673641	0.500077
C23	C	0.695850	0.166141	0.000067
C24	C	1.195850	0.666141	0.500067
C25	C	0.645613	0.238506	0.000063
C26	C	1.145613	0.738506	0.500063
C27	C	0.563826	0.231454	0.000075
C28	C	1.063826	0.731454	0.500075
C29	C	0.532276	0.152037	0.000086
C30	C	1.032276	0.652037	0.500086
C31	C	0.582519	0.079667	0.000093
C32	C	1.082519	0.579667	0.500093
C33	C	0.664305	0.086719	0.000087
C34	C	1.164305	0.586719	0.500087
C35	C	0.288676	0.122807	0.000111
C36	C	0.788676	0.622807	0.500111
C37	C	0.206884	0.115760	0.000115
C38	C	0.706884	0.615760	0.500115
C39	C	0.188196	0.267548	0.000099
C40	C	0.688196	0.767548	0.500099
C41	C	0.269984	0.274593	0.000087
C42	C	0.769984	0.774593	0.500087
C43	C	0.320220	0.202223	0.000099
C44	C	0.820220	0.702223	0.500099
N45	N	0.448677	0.144827	0.000096
N46	N	0.948677	0.644827	0.500096
N47	N	0.403817	0.209434	0.000095
N48	N	0.903817	0.709434	0.500095
C49	C	0.931964	0.023948	0.000101
C50	C	1.431964	0.523948	0.500101
C51	C	0.930413	-0.069402	0.000102
C52	C	1.430413	0.430598	0.500102
C53	C	0.852089	-0.289513	0.000081
C54	C	1.352089	0.210487	0.500081
C55	C	0.885066	-0.344697	0.071214
C56	C	1.385066	0.155303	0.571214
C57	C	0.927606	-0.240317	0.000095
C58	C	1.427606	0.259683	0.500095
C59	C	0.891871	-0.351465	-0.071016
C60	C	1.391871	0.148535	0.428984
C61	C	0.924889	-0.405412	0.000084
C62	C	1.424889	0.094588	0.500084
C63	C	0.960600	-0.294269	0.071287
C64	C	1.460600	0.205731	0.571287
C65	C	0.967397	-0.301034	-0.071007
C66	C	1.467397	0.198966	0.428993
C67	C	1.000428	-0.356196	0.000144
C68	C	1.500428	0.143804	0.500144
C69	C	0.929168	-0.145209	0.000101
C70	C	1.429168	0.354791	0.500101
C71	C	0.923332	-0.500518	0.000084
C72	C	1.423332	-0.000518	0.500084
C73	C	1.069603	0.180624	0.000107
C74	C	1.569603	0.680624	0.500107
C75	C	1.156647	0.188124	0.000110
C76	C	1.656647	0.688124	0.500110
C77	C	0.920532	0.330318	0.000082
C78	C	1.420532	0.830318	0.500082
C79	C	0.922084	0.423668	0.000076
C80	C	1.422084	0.923668	0.500076
N81	N	0.916458	0.186926	0.205390
N82	N	1.416458	0.686926	0.705390
N83	N	0.936045	0.167333	-0.205204
N84	N	1.436045	0.667333	0.294796
C85	C	0.967616	0.135594	0.250793
C86	C	1.467616	0.635594	0.750793
C87	C	0.963297	0.139932	0.341600
C88	C	1.463297	0.639932	0.841600
C89	C	0.907824	0.195606	0.387002
C90	C	1.407824	0.695606	0.887002
C91	C	0.856661	0.246940	0.341593
C92	C	1.356661	0.746940	0.841593
C93	C	0.860976	0.242598	0.250787
C94	C	1.360976	0.742598	0.750787
C95	C	0.889197	0.214325	0.658581
C96	C	1.389197	0.714325	1.158581
C97	C	0.884887	0.218665	0.749392
C98	C	1.384887	0.718665	1.249392
C99	C	0.991523	0.111655	0.749393
C100	C	1.491523	0.611655	1.249393
C101	C	0.995836	0.107321	0.658586
C102	C	1.495836	0.607321	1.158586
C103	C	0.944671	0.158653	0.613185
C104	C	1.444671	0.658653	1.113185
N105	N	0.903410	0.200042	0.479822
N106	N	1.403410	0.700042	0.979822
N107	N	0.949081	0.154211	0.520367
N108	N	1.449081	0.654211	1.020367
H109	H	0.671294	0.303176	0.000054
H110	H	1.171294	0.803176	0.500054
C111	C	1.014387	-0.274819	-0.152246
C112	C	1.514387	0.225181	0.347754
N113	N	1.049774	-0.255072	-0.213442
N114	N	1.549774	0.244928	0.286558
C115	C	0.132930	0.347149	0.000097
C116	C	0.632930	0.847149	0.500097
N117	N	0.091304	0.407109	0.000100
N118	N	0.591304	0.907109	0.500100
H119	H	0.789404	-0.260406	0.000145
H120	H	1.289404	0.239594	0.500145
H121	H	0.847537	0.256123	0.621622
H122	H	1.347537	0.756123	1.121622
C123	C	0.804705	0.299075	0.200844
C124	C	1.304705	0.799075	0.700844
N125	N	0.762320	0.341615	0.163229
N126	N	1.262320	0.841615	0.663229
H127	H	1.063164	-0.385145	0.000191
H128	H	1.563164	0.114855	0.500191
C129	C	0.852580	-0.385371	-0.152257
C130	C	1.352580	0.114629	0.347743
N131	N	0.822982	-0.410904	-0.213445
N132	N	1.322982	0.089096	0.286555
H133	H	0.181200	0.051085	0.000123
H134	H	0.681200	0.551085	0.500123
C135	C	1.028640	0.074347	0.200859
C136	C	1.528640	0.574347	0.700859
N137	N	1.074603	0.028211	0.163251
N138	N	1.574603	0.528211	0.663251
H139	H	0.522926	0.290381	0.000071
H140	H	1.022926	0.790381	0.500071
C141	C	0.823858	0.279911	0.799333
C142	C	1.323858	0.779911	1.299333
N143	N	0.777893	0.326040	0.836949
N144	N	1.277893	0.826040	1.336949
H145	H	0.850256	-0.364079	0.131345
H146	H	1.350256	0.135921	0.631345
H147	H	1.004953	0.098132	0.378567
H148	H	1.504953	0.598132	0.878567
H149	H	0.811490	0.292268	0.378565
H150	H	1.311490	0.792268	0.878565
H151	H	0.295665	0.339262	0.000069
H152	H	0.795665	0.839262	0.500069
C153	C	0.343925	0.043197	0.000118
C154	C	0.843925	0.543197	0.500118
N155	N	0.385541	-0.016770	0.000122
N156	N	0.885541	0.483230	0.500122
C157	C	0.547812	-0.007693	0.000106
C158	C	1.047812	0.492307	0.500106
N159	N	0.521672	-0.073495	0.000113
N160	N	1.021672	0.426505	0.500113
H161	H	1.041007	0.061987	0.621621
H162	H	1.541007	0.561987	1.121621
C163	C	0.719565	0.007112	0.000089
C164	C	1.219565	0.507112	0.500089
N165	N	0.761187	-0.052851	0.000093
N166	N	1.261187	0.447149	0.500093
H167	H	0.989641	-0.269266	0.131491
H168	H	1.489641	0.230734	0.631491
C169	C	1.047795	0.055188	0.799342
C170	C	1.547795	0.555188	1.299342
N171	N	1.090178	0.012651	0.836964
N172	N	1.590178	0.512651	1.336964
