data_functionalizedCrystal
_audit_creation_method	'MofGen! by Chris Wilmer'
_symmetry_space_group_name_H-M	'P1'
_symmetry_Int_Tables_number	1
_symmetry_cell_setting	triclinic
loop_
_symmetry_equiv_pos_as_xyz
  x,y,z
_cell_length_a	10.908878
_cell_length_b	12.837942
_cell_length_c	11.892095
_cell_angle_alpha	85.697431
_cell_angle_beta	92.931932
_cell_angle_gamma	77.456865
loop_
_atom_site_label
_atom_site_type_symbol
_atom_site_fract_x
_atom_site_fract_y
_atom_site_fract_z
O1	O	1.691912	-0.164675	0.093981
O2	O	1.327750	-0.085398	0.093988
O3	O	1.501756	-0.274547	0.093978
O4	O	1.517907	0.024474	0.093992
O5	O	1.487245	-0.258796	-0.094029
O6	O	1.313239	-0.069647	-0.094018
O7	O	1.677402	-0.148924	-0.094025
Zn8	Zn	1.493016	-0.106785	-0.123872
Zn9	Zn	1.512135	-0.127537	0.123835
O10	O	1.503396	0.040225	-0.094015
C11	C	1.273559	-0.070113	-0.000014
C12	C	1.133707	-0.048049	-0.000012
C13	C	1.074847	-0.128557	-0.000015
C14	C	0.930302	-0.105755	-0.000012
C15	C	1.489045	-0.304351	-0.000025
C16	C	1.472773	-0.416624	-0.000023
C17	C	1.668387	-0.691305	-0.000003
C18	C	1.653104	-0.796796	-0.000000
C19	C	1.426928	-0.733101	-0.000008
C20	C	1.442210	-0.627610	-0.000010
C21	C	1.562943	-0.606716	-0.000009
C22	C	1.578224	-0.501222	-0.000019
C23	C	1.352050	-0.437529	-0.000019
C24	C	1.336767	-0.543021	-0.000017
C25	C	1.731592	-0.164209	-0.000020
C26	C	1.871445	-0.186273	-0.000015
C27	C	1.516107	0.070029	-0.000010
C28	C	1.532379	0.182301	-0.000005
N29	N	1.479978	-0.092624	-0.292925
C30	C	1.615905	-0.240303	-0.529581
C31	C	1.606801	-0.230399	-0.647923
C32	C	1.452660	-0.062916	-0.647952
C33	C	1.461764	-0.072820	-0.529610
C34	C	1.543391	-0.161516	-0.470429
C35	C	1.552501	-0.171415	-0.352086
C36	C	1.398353	-0.003937	-0.352117
C37	C	1.389249	0.005967	-0.470458
N38	N	1.525183	-0.141708	0.292888
H39	H	1.676531	-0.484214	-0.000023
N40	N	1.149828	-0.242222	-0.000016
H41	H	1.242458	-0.242399	-0.000017
H42	H	1.123150	-0.274307	-0.069715
H43	H	1.328633	-0.750134	0.000003
N44	N	0.855326	0.007915	0.000004
H45	H	0.762696	0.008092	0.000006
H46	H	0.871243	0.051682	-0.069691
N47	N	1.703935	-0.335952	-0.465723
H48	H	1.793043	-0.337889	-0.486291
H49	H	1.678949	-0.403743	-0.486339
H50	H	1.238470	-0.560048	-0.000013
H51	H	1.766691	-0.674293	-0.000013
H52	H	0.928058	-0.272087	-0.000011
H53	H	1.665848	-0.294556	-0.696081
N54	N	1.058718	0.065618	-0.000052
H55	H	1.117855	0.116213	-0.000064
H56	H	1.009394	0.072493	0.069633
H57	H	1.738968	-0.865668	0.000009
H58	H	1.266189	-0.368643	-0.000033
N59	N	1.640541	-0.267071	-0.288250
H60	H	1.685094	-0.315480	-0.343684
H61	H	1.590679	-0.307781	-0.239158
H62	H	1.386192	0.009292	-0.696152
N63	N	1.301206	0.101623	-0.534291
H64	H	1.306439	0.095943	-0.618237
H65	H	1.326142	0.169413	-0.513604
N66	N	1.320143	0.081054	-0.288319
H67	H	1.338297	0.061326	-0.204369
H68	H	1.227898	0.086404	-0.309016
