data_functionalizedCrystal
_audit_creation_method	'MofGen! by Chris Wilmer'
_symmetry_space_group_name_H-M	'P1'
_symmetry_Int_Tables_number	1
_symmetry_cell_setting	triclinic
loop_
_symmetry_equiv_pos_as_xyz
  x,y,z
_cell_length_a	6.817900
_cell_length_b	12.200863
_cell_length_c	19.453114
_cell_angle_alpha	94.895602
_cell_angle_beta	101.709288
_cell_angle_gamma	107.143441
loop_
_atom_site_label
_atom_site_type_symbol
_atom_site_fract_x
_atom_site_fract_y
_atom_site_fract_z
V1	V	-4.025501	-0.159907	-0.219071
V2	V	-3.525501	0.340093	0.280929
O3	O	-3.993988	0.006455	-0.214827
O4	O	-3.493988	0.506455	0.285173
O5	O	-3.995349	-0.315887	-0.217643
O6	O	-3.495349	0.184113	0.282357
O7	O	-3.968192	-0.157987	-0.314583
O8	O	-3.468192	0.342013	0.185417
O9	O	-4.021333	-0.152538	-0.117216
O10	O	-3.521333	0.347462	0.382784
V11	V	-4.507919	-0.139945	-0.206880
V12	V	-4.007919	0.360055	0.293120
O13	O	-4.289184	-0.203697	-0.245813
O14	O	-3.789184	0.296303	0.254187
O15	O	-4.694434	-0.096155	-0.180137
O16	O	-4.194434	0.403845	0.319863
O17	O	-4.314864	0.016035	-0.208307
O18	O	-3.814864	0.516035	0.291693
O19	O	-4.656830	-0.306307	-0.211123
O20	O	-4.156830	0.193693	0.288877
O21	O	-4.629484	-0.147314	-0.308734
O22	O	-4.129484	0.352686	0.191266
O23	O	-4.342022	-0.141865	-0.111368
O24	O	-3.842022	0.358135	0.388632
C25	C	-3.845078	-0.353895	-0.214206
C26	C	-3.345078	0.146105	0.285794
C27	C	-3.901652	-0.481414	-0.213675
C28	C	-3.401652	0.018586	0.286325
C29	C	-3.810434	-0.152476	-0.337861
C30	C	-3.310434	0.347524	0.162139
C31	C	-3.844982	-0.151938	-0.415943
C32	C	-3.344982	0.348062	0.084057
C33	C	-4.005195	-0.714885	-0.212709
C34	C	-3.505195	-0.214885	0.287291
C35	C	-3.947568	-0.584965	-0.213247
C36	C	-3.447568	-0.084965	0.286753
C37	C	-4.043668	-0.157443	-0.456203
C38	C	-3.543668	0.342557	0.043797
C39	C	-4.076129	-0.156937	-0.529569
C40	C	-3.576129	0.343063	-0.029569
C41	C	-3.909904	-0.150950	-0.562675
C42	C	-3.409904	0.349050	-0.062675
C43	C	-3.711187	-0.145437	-0.522406
C44	C	-3.211187	0.354563	-0.022406
C45	C	-3.678726	-0.145931	-0.449040
C46	C	-3.178726	0.354069	0.050960
N47	N	-3.857248	-0.211530	-0.681492
N48	N	-3.357248	0.288470	-0.181492
N49	N	-3.888099	-0.211063	-0.751187
N50	N	-3.388099	0.288937	-0.251187
C51	C	-4.007696	-0.149459	-0.783723
C52	C	-3.507696	0.350541	-0.283723
N53	N	-4.095315	-0.088353	-0.743933
N54	N	-3.595315	0.411647	-0.243933
N55	N	-4.064470	-0.088825	-0.674232
N56	N	-3.564470	0.411175	-0.174232
C57	C	-3.945082	-0.150413	-0.642228
C58	C	-3.445082	0.349587	-0.142228
C59	C	-4.241592	-0.154414	-0.903535
C60	C	-3.741592	0.345586	-0.403535
C61	C	-4.274043	-0.153902	-0.976902
C62	C	-3.774043	0.346098	-0.476902
C63	C	-3.909101	-0.142413	-0.969738
C64	C	-3.409101	0.357587	-0.469738
C65	C	-3.876650	-0.142914	-0.896372
C66	C	-3.376650	0.357086	-0.396372
C67	C	-4.042906	-0.148921	-0.863275
C68	C	-3.542906	0.351079	-0.363275
C69	C	-4.128479	0.054037	-0.211743
C70	C	-3.628479	0.554037	0.288257
C71	C	-4.051142	0.181555	-0.212278
C72	C	-3.551142	0.681555	0.287722
C73	C	-4.163122	-0.147380	-0.088086
C74	C	-3.663122	0.352620	0.411914
C75	C	-4.107813	-0.147912	-0.010003
C76	C	-3.607813	0.352088	0.489997
H77	H	-4.237931	-0.161426	-0.562356
H78	H	-3.737931	0.338574	-0.062356
H79	H	-3.714865	-0.138444	-0.863593
H80	H	-3.214865	0.361556	-0.363593
O81	O	-3.729529	-0.136152	-1.005270
O82	O	-3.229529	0.363848	-0.505270
H83	H	-3.696462	-0.057120	-1.031033
H84	H	-3.196462	0.442880	-0.531033
H85	H	-3.575846	-0.140559	-0.549365
H86	H	-3.075846	0.359441	-0.049365
O87	O	-4.420881	-0.160869	-0.867827
O88	O	-3.920881	0.339131	-0.367827
H89	H	-4.564490	-0.164590	-0.908149
H90	H	-4.064490	0.335410	-0.408149
O91	O	-4.488341	-0.159818	-1.020329
O92	O	-3.988341	0.340182	-0.520329
H93	H	-4.598485	-0.164081	-0.984986
H94	H	-4.098485	0.335919	-0.484986
H95	H	-4.179048	-0.162329	-0.429260
H96	H	-3.679048	0.337671	0.070740
H97	H	-3.516925	-0.141440	-0.416259
H98	H	-3.016925	0.358560	0.083741
