data_functionalizedCrystal
_audit_creation_method	'MofGen! by Chris Wilmer'
_symmetry_space_group_name_H-M	'P1'
_symmetry_Int_Tables_number	1
_symmetry_cell_setting	triclinic
loop_
_symmetry_equiv_pos_as_xyz
  x,y,z
_cell_length_a	14.908783
_cell_length_b	14.908520
_cell_length_c	12.759393
_cell_angle_alpha	93.262420
_cell_angle_beta	86.678583
_cell_angle_gamma	96.791586
loop_
_atom_site_label
_atom_site_type_symbol
_atom_site_fract_x
_atom_site_fract_y
_atom_site_fract_z
Zn1	Zn	1.363074	-0.280548	-0.704626
Zn2	Zn	1.354227	-0.431944	-0.538511
Zn3	Zn	1.211694	-0.289319	-0.519357
Zn4	Zn	1.202935	-0.440593	-0.704542
O5	O	1.282983	-0.360601	-0.616759
O6	O	1.488570	-0.293340	-0.690641
O7	O	1.335283	-0.413076	-0.388950
O8	O	1.239144	-0.161487	-0.535952
O9	O	1.482070	-0.404571	-0.568598
O10	O	1.350362	-0.155042	-0.672069
O11	O	1.230565	-0.308289	-0.374878
O12	O	1.083863	-0.316676	-0.535871
O13	O	1.224214	-0.419312	-0.851573
O14	O	1.077427	-0.427817	-0.671926
O15	O	1.341868	-0.301727	-0.851635
O16	O	1.326789	-0.559760	-0.568516
O17	O	1.215635	-0.566115	-0.690499
C18	C	1.047801	-0.374138	-0.601812
C19	C	0.947188	-0.379950	-0.595443
C20	C	1.269326	-0.595780	-0.631601
C21	C	1.263567	-0.696386	-0.637991
C22	C	0.764883	-0.275208	-0.710776
C23	C	0.670348	-0.280666	-0.704796
C24	C	0.663582	-0.396321	-0.577498
C25	C	0.758117	-0.390862	-0.583478
C26	C	0.808764	-0.330305	-0.650121
C27	C	0.903300	-0.324851	-0.656106
C28	C	0.896533	-0.440501	-0.528802
C29	C	0.801998	-0.445959	-0.522822
C30	C	1.368608	-0.878750	-0.523095
C31	C	1.363199	-0.973277	-0.529095
C32	C	1.247346	-0.979971	-0.655999
C33	C	1.252755	-0.885443	-0.649998
C34	C	1.313387	-0.834835	-0.583542
C35	C	1.318790	-0.740306	-0.577537
C36	C	1.202942	-0.747001	-0.704445
C37	C	1.197534	-0.841529	-0.710446
C38	C	1.519083	-0.347012	-0.631765
C39	C	1.619694	-0.341221	-0.638160
C40	C	1.283051	-0.360506	-0.890791
C41	C	1.283080	-0.360465	-1.007567
C42	C	1.296717	-0.124502	-0.601883
C43	C	1.302570	-0.023891	-0.595544
C44	C	1.228575	-0.305891	-1.055101
C45	C	1.228598	-0.305862	-1.164825
C46	C	1.337639	-0.414983	-1.179470
C47	C	1.337610	-0.415016	-1.069749
C48	C	1.282970	-0.360627	-0.343793
C49	C	1.283131	-0.360403	-0.227012
H50	H	0.806120	-0.225903	-0.765044
H51	H	0.932270	-0.485372	-0.479421
H52	H	1.157975	-0.711236	-0.753663
C53	C	1.432766	-0.743188	-0.452709
C54	C	1.385436	-0.684676	-0.504493
H55	H	1.473916	-0.708844	-0.407620
H56	H	1.391237	-0.782388	-0.412322
H57	H	1.465257	-0.778005	-0.503069
H58	H	1.352940	-0.649864	-0.454133
H59	H	1.426971	-0.645460	-0.544882
H60	H	1.408168	-1.009028	-0.479875
H61	H	1.184213	-0.261424	-1.203522
C62	C	0.686535	-0.165807	-0.831233
C63	C	0.622113	-0.220107	-0.771477
H64	H	0.656754	-0.128423	-0.872405
H65	H	0.725393	-0.129011	-0.785665
H66	H	0.721139	-0.203163	-0.876169
H67	H	0.587513	-0.182751	-0.726535
H68	H	0.583239	-0.256906	-0.817051
C69	C	0.515659	-0.456022	-0.511801
C70	C	0.607900	-0.462875	-0.504241
H71	H	0.481285	-0.497113	-0.466577
H72	H	0.503701	-0.396087	-0.491721
H73	H	0.499431	-0.470233	-0.582231
H74	H	0.624130	-0.448656	-0.433812
H75	H	0.619864	-0.522823	-0.524315
C76	C	1.343067	-0.536093	-0.954824
C77	C	1.397527	-0.475011	-1.017492
H78	H	1.380054	-0.573134	-0.922569
H79	H	1.310593	-0.503613	-0.902094
H80	H	1.301628	-0.572969	-0.997315
H81	H	1.438961	-0.438130	-0.975000
H82	H	1.430016	-0.507494	-1.070228
C83	C	0.770263	-0.491575	-0.345765
C84	C	0.746322	-0.512524	-0.449574
H85	H	0.735887	-0.532670	-0.300547
H86	H	0.832837	-0.496214	-0.340655
H87	H	0.758286	-0.431637	-0.325688
H88	H	0.758305	-0.572460	-0.469654
H89	H	0.683733	-0.507894	-0.454688
H90	H	1.417970	-0.837545	-0.468976
H91	H	1.148172	-0.882746	-0.764555
C92	C	0.900489	-0.211076	-0.781327
C93	C	0.958974	-0.258286	-0.729356
H94	H	0.934860	-0.169977	-0.826543
H95	H	0.861348	-0.252679	-0.821601
H96	H	0.865606	-0.178542	-0.731080
H97	H	0.993853	-0.290826	-0.779604
H98	H	0.998131	-0.216678	-0.689080
C99	C	1.187623	-1.127852	-0.721539
C100	C	1.180704	-1.035609	-0.729040
H101	H	1.146475	-1.162199	-0.766627
H102	H	1.247546	-1.139765	-0.741824
H103	H	1.173526	-1.144151	-0.651077
H104	H	1.194808	-1.019308	-0.799501
H105	H	1.120767	-1.023690	-0.708761
C106	C	1.120783	-0.198040	-1.051650
C107	C	1.168624	-0.245942	-0.986750
H108	H	1.083766	-0.161036	-1.009453
H109	H	1.162246	-0.161131	-1.094767
H110	H	1.083881	-0.239471	-1.094733
H111	H	1.205531	-0.204511	-0.943672
H112	H	1.127157	-0.282853	-0.943615
H113	H	1.382036	-0.459396	-1.230112
