data_functionalizedCrystal
_audit_creation_method	'MofGen! by Chris Wilmer'
_symmetry_space_group_name_H-M	'P1'
_symmetry_Int_Tables_number	1
_symmetry_cell_setting	triclinic
loop_
_symmetry_equiv_pos_as_xyz
  x,y,z
_cell_length_a	21.395364
_cell_length_b	21.395363
_cell_length_c	21.395355
_cell_angle_alpha	90.004913
_cell_angle_beta	90.024552
_cell_angle_gamma	90.016642
loop_
_atom_site_label
_atom_site_type_symbol
_atom_site_fract_x
_atom_site_fract_y
_atom_site_fract_z
Zn1	Zn	0.957985	-0.249261	0.354321
Zn2	Zn	0.957941	-0.354021	0.249568
Zn3	Zn	0.853200	-0.249289	0.249557
Zn4	Zn	0.853223	-0.354032	0.354308
O5	O	0.905587	-0.301651	0.301939
O6	O	1.045657	-0.263141	0.340435
O7	O	0.944019	-0.340135	0.161889
O8	O	0.867110	-0.161607	0.263455
O9	O	1.045625	-0.340108	0.263473
O10	O	0.944095	-0.161587	0.340424
O11	O	0.867067	-0.263188	0.161881
O12	O	0.765526	-0.263199	0.263443
O13	O	0.867148	-0.340127	0.441988
O14	O	0.765542	-0.340154	0.340403
O15	O	0.944116	-0.263152	0.441997
O16	O	0.944041	-0.441700	0.263461
O17	O	0.867105	-0.441708	0.340414
C18	C	0.742800	-0.301681	0.301921
C19	C	0.673159	-0.301709	0.301928
C20	C	0.640485	-0.261698	0.342064
C21	C	0.575049	-0.261682	0.342067
C22	C	0.542290	-0.301687	0.301940
C23	C	0.574972	-0.341701	0.261796
C24	C	0.640406	-0.341712	0.261791
C25	C	0.438594	-0.358112	0.296916
C26	C	0.373162	-0.358102	0.296926
C27	C	0.340469	-0.301653	0.301954
C28	C	0.373218	-0.245212	0.306985
C29	C	0.438653	-0.245223	0.306979
C30	C	0.471338	-0.301679	0.301941
C31	C	0.236843	-0.261620	0.342094
C32	C	0.171407	-0.261603	0.342092
C33	C	0.171330	-0.341627	0.261825
C34	C	0.236766	-0.341639	0.261824
C35	C	0.269518	-0.301637	0.301962
C36	C	0.905587	-0.464438	0.301951
C37	C	0.905644	-0.534079	0.301977
C38	C	0.905639	-0.301638	0.465362
C39	C	0.905662	-0.301633	0.535003
C40	C	1.069011	-0.301620	0.301957
C41	C	1.138652	-0.301608	0.301964
C42	C	0.905605	-0.138227	0.301940
C43	C	0.905612	-0.068586	0.301941
C44	C	0.865556	-0.035882	0.342002
C45	C	0.865562	0.029554	0.342011
C46	C	0.905617	0.062282	0.301947
C47	C	0.945682	0.029570	0.261882
C48	C	0.945679	-0.035864	0.261879
C49	C	0.910549	0.165949	0.245503
C50	C	0.910547	0.231382	0.245505
C51	C	0.905629	0.264103	0.301957
C52	C	0.900700	0.231383	0.358408
C53	C	0.900697	0.165949	0.358405
C54	C	0.905625	0.133235	0.301946
C55	C	0.865577	0.367760	0.342031
C56	C	0.865588	0.433197	0.342041
C57	C	0.945704	0.433212	0.261907
C58	C	0.945697	0.367776	0.261903
C59	C	0.905630	0.335054	0.301964
C60	C	0.905572	-0.301618	0.139151
C61	C	0.905671	-0.301447	0.069510
C62	C	0.945737	-0.261550	0.567722
C63	C	0.945737	-0.261523	0.633158
C64	C	0.905666	-0.301590	0.665872
C65	C	0.865583	-0.341675	0.633145
C66	C	0.865580	-0.341696	0.567711
C67	C	0.900719	-0.358006	0.769551
C68	C	0.900726	-0.357986	0.834984
C69	C	0.905670	-0.301524	0.867692
C70	C	0.910621	-0.245080	0.834960
C71	C	0.910619	-0.245101	0.769526
C72	C	0.905664	-0.301571	0.736824
C73	C	0.945747	-0.261409	0.971364
C74	C	0.945742	-0.261381	1.036801
C75	C	0.865592	-0.341538	1.036787
C76	C	0.865594	-0.341561	0.971351
C77	C	0.905675	-0.301497	0.938644
H78	H	0.346602	-0.199245	0.311079
Cl79	Cl	0.894508	-0.428944	0.876126
H80	H	0.832928	-0.062520	0.374621
H81	H	0.832959	-0.374155	1.063422
Cl82	Cl	0.815231	0.474311	0.392413
H83	H	0.465207	-0.404083	0.292821
Cl84	Cl	0.278021	-0.211328	0.392547
H85	H	0.832955	-0.374296	0.659785
H86	H	0.978376	-0.228737	1.063439
Cl87	Cl	0.533965	-0.211378	0.392526
Cl88	Cl	0.815212	-0.391956	0.930217
H89	H	0.144805	-0.229017	0.374774
H90	H	0.914648	-0.199102	0.861590
Cl91	Cl	0.894522	-0.428997	0.728438
H92	H	0.346502	-0.404059	0.292832
Cl93	Cl	0.815195	-0.392091	0.526576
H94	H	0.667148	-0.229125	0.374747
H95	H	0.667009	-0.374295	0.229106
Cl96	Cl	0.479821	-0.174272	0.313300
Cl97	Cl	0.130154	-0.391916	0.211375
H98	H	0.263369	-0.374223	0.229144
Cl99	Cl	0.533790	-0.391991	0.211348
H100	H	0.978313	0.341148	0.229277
H101	H	0.832942	0.056186	0.374635
H102	H	0.896692	0.139312	0.404371
Cl103	Cl	0.894433	0.272511	0.429374
H104	H	0.832961	0.341116	0.374660
H105	H	0.978321	0.459859	0.229289
Cl106	Cl	0.916821	0.272508	0.174545
H107	H	0.978299	-0.062492	0.229256
H108	H	0.914556	0.139312	0.199530
Cl109	Cl	0.996040	0.070714	0.211519
H110	H	0.978370	-0.228880	0.659802
Cl111	Cl	0.996122	-0.211180	0.526608
H112	H	0.914648	-0.199142	0.742878
Cl113	Cl	0.996131	-0.211040	0.930243
