data_functionalizedCrystal
_audit_creation_method	'MofGen! by Chris Wilmer'
_symmetry_space_group_name_H-M	'P1'
_symmetry_Int_Tables_number	1
_symmetry_cell_setting	triclinic
loop_
_symmetry_equiv_pos_as_xyz
  x,y,z
_cell_length_a	21.295417
_cell_length_b	10.686220
_cell_length_c	10.686551
_cell_angle_alpha	89.691918
_cell_angle_beta	85.587790
_cell_angle_gamma	85.587318
loop_
_atom_site_label
_atom_site_type_symbol
_atom_site_fract_x
_atom_site_fract_y
_atom_site_fract_z
Zn1	Zn	-0.153473	-1.972201	-0.562351
Zn2	Zn	0.346527	-1.472201	-0.062351
Zn3	Zn	-0.267413	-1.955908	-0.352566
Zn4	Zn	0.232587	-1.455908	0.147434
Zn5	Zn	-0.169576	-1.746311	-0.368665
Zn6	Zn	0.330424	-1.246311	0.131335
Zn7	Zn	-0.266137	-1.762339	-0.578344
Zn8	Zn	0.233863	-1.262339	-0.078344
O9	O	-0.214150	-1.859190	-0.465482
O10	O	0.285850	-1.359190	0.034518
O11	O	-0.162382	-2.145585	-0.521092
O12	O	0.337618	-1.645585	-0.021092
O13	O	-0.261708	-1.914578	-0.179155
O14	O	0.238292	-1.414578	0.320845
O15	O	-0.079345	-1.776387	-0.394402
O16	O	0.420655	-1.276387	0.105598
O17	O	-0.246093	-2.133615	-0.366964
O18	O	0.253907	-1.633615	0.133036
O19	O	-0.067514	-1.942347	-0.536702
O20	O	0.432486	-1.442347	-0.036702
O21	O	-0.189828	-1.760588	-0.190982
O22	O	0.310172	-1.260588	0.309018
O23	O	-0.188591	-1.572892	-0.409910
O24	O	0.311409	-1.072892	0.090090
O25	O	-0.243919	-1.803704	-0.751770
O26	O	0.256081	-1.303704	-0.251770
O27	O	-0.259534	-1.584668	-0.563960
O28	O	0.240466	-1.084668	-0.063960
O29	O	-0.161145	-1.957889	-0.740020
O30	O	0.338855	-1.457889	-0.240020
O31	O	-0.355339	-1.930120	-0.382472
O32	O	0.144661	-1.430120	0.117528
O33	O	-0.354402	-1.787905	-0.548351
O34	O	0.145598	-1.287905	-0.048351
C35	C	-0.377710	-1.859020	-0.465425
C36	C	0.122290	-1.359020	0.034575
C37	C	-0.447676	-1.859065	-0.465434
C38	C	0.052324	-1.359065	0.034566
C39	C	-0.225672	-1.533263	-0.490418
C40	C	0.274328	-1.033263	0.009582
C41	C	-0.230615	-1.393832	-0.501116
C42	C	0.269385	-0.893832	-0.001116
C43	C	-0.202583	-2.186390	-0.440448
C44	C	0.297417	-1.686390	0.059552
C45	C	-0.197654	-2.325823	-0.429781
C46	C	0.302346	-1.825823	0.070219
C47	C	-0.481004	-1.933194	-0.379138
C48	C	0.018996	-1.433194	0.120862
C49	C	-0.546743	-1.933255	-0.379161
C50	C	-0.046743	-1.433255	0.120839
C51	C	-0.579154	-1.859164	-0.465470
C52	C	-0.079154	-1.359164	0.034530
C53	C	-0.545817	-1.785031	-0.551782
C54	C	-0.045817	-1.285031	-0.051782
C55	C	-0.480079	-1.784982	-0.551764
C56	C	0.019921	-1.284982	-0.051764
N57	N	-0.685908	-1.750160	-0.483429
N58	N	-0.185908	-1.250160	0.016571
N59	N	-0.748357	-1.750210	-0.483439
N60	N	-0.248357	-1.250210	0.016561
C61	C	-0.777220	-1.859310	-0.465531
C62	C	-0.277220	-1.359310	0.034469
N63	N	-0.741276	-1.968359	-0.447588
N64	N	-0.241276	-1.468359	0.052412
N65	N	-0.678822	-1.968308	-0.447572
N66	N	-0.178822	-1.468308	0.052428
C67	C	-0.650436	-1.859210	-0.465499
C68	C	-0.150436	-1.359210	0.034501
C69	C	-0.881830	-1.933511	-0.379256
C70	C	-0.381830	-1.433511	0.120744
C71	C	-0.947570	-1.933575	-0.379288
C72	C	-0.447570	-1.433575	0.120712
C73	C	-0.946643	-1.785339	-0.551903
C74	C	-0.446643	-1.285339	-0.051903
C75	C	-0.880904	-1.785287	-0.551876
C76	C	-0.380904	-1.285287	-0.051876
C77	C	-0.848502	-1.859371	-0.465546
C78	C	-0.348502	-1.359371	0.034454
C79	C	-0.049948	-1.859397	-0.465564
C80	C	0.450052	-1.359397	0.034436
C81	C	0.020024	-1.859485	-0.465599
C82	C	0.520024	-1.359485	0.034401
C83	C	-0.200593	-1.884402	-0.792685
C84	C	0.299407	-1.384402	-0.292685
C85	C	-0.194816	-1.895146	-0.932120
C86	C	0.305184	-1.395146	-0.432120
C87	C	-0.227606	-1.834148	-0.139546
C88	C	0.272394	-1.334148	0.360454
C89	C	-0.233197	-1.823647	-0.000093
C90	C	0.266803	-1.323647	0.499907
H91	H	-0.454624	-1.993521	-0.308846
H92	H	0.045376	-1.493521	0.191154
H93	H	-0.157537	-1.964589	-0.980602
H94	H	0.342463	-1.464589	-0.480602
H95	H	-0.262621	-1.345382	-0.570371
H96	H	0.237379	-0.845382	-0.070371
H97	H	-0.270478	-1.754217	-0.951617
H98	H	0.229522	-1.254217	-0.451617
H99	H	-0.573884	-1.993624	-0.308889
H100	H	-0.073884	-1.493624	0.191111
H101	H	-0.165655	-1.374266	-0.360523
H102	H	0.334345	-0.874266	0.139477
H103	H	-0.452942	-1.724616	-0.622038
H104	H	0.047058	-1.224616	-0.122038
Cl105	Cl	-0.586560	-1.691894	-0.660289
Cl106	Cl	-0.086560	-1.191894	-0.160289
H107	H	-0.855447	-1.993839	-0.308964
H108	H	-0.355447	-1.493839	0.191036
H109	H	-0.973031	-1.725019	-0.622182
H110	H	-0.473031	-1.225019	-0.122182
Cl111	Cl	-0.989468	-2.026784	-0.270800
Cl112	Cl	-0.489468	-1.526784	0.229200
H113	H	-0.853767	-1.724919	-0.622141
H114	H	-0.353767	-1.224919	-0.122141
