data_functionalizedCrystal
_audit_creation_method	'MofGen! by Chris Wilmer'
_symmetry_space_group_name_H-M	'P1'
_symmetry_Int_Tables_number	1
_symmetry_cell_setting	triclinic
loop_
_symmetry_equiv_pos_as_xyz
  x,y,z
_cell_length_a	18.050591
_cell_length_b	25.639240
_cell_length_c	18.050583
_cell_angle_alpha	89.954476
_cell_angle_beta	89.979141
_cell_angle_gamma	90.029204
loop_
_atom_site_label
_atom_site_type_symbol
_atom_site_fract_x
_atom_site_fract_y
_atom_site_fract_z
Zn1	Zn	1.135277	-0.208163	-0.419961
Zn2	Zn	1.135176	-0.295612	-0.295751
Zn3	Zn	1.011094	-0.208186	-0.295774
Zn4	Zn	1.011035	-0.295564	-0.419889
O5	O	1.073145	-0.251881	-0.357844
O6	O	1.239188	-0.219773	-0.403504
O7	O	1.118698	-0.284044	-0.191829
O8	O	1.027635	-0.135018	-0.312288
O9	O	1.239114	-0.284021	-0.312248
O10	O	1.118871	-0.135001	-0.403527
O11	O	1.027536	-0.219814	-0.191846
O12	O	0.907162	-0.219767	-0.312218
O13	O	1.027533	-0.283940	-0.523823
O14	O	0.907118	-0.283963	-0.403404
O15	O	1.118814	-0.219727	-0.523876
O16	O	1.118641	-0.368770	-0.312178
O17	O	1.027435	-0.368735	-0.403381
C18	C	0.880193	-0.251863	-0.357806
C19	C	0.797647	-0.251867	-0.357808
C20	C	0.548824	-0.216922	-0.308338
C21	C	0.598259	-0.204181	-0.376117
C22	C	0.500527	-0.251894	-0.357869
C23	C	0.598174	-0.264597	-0.290064
C24	C	0.646512	-0.251880	-0.357835
C25	C	0.548875	-0.239129	-0.425684
C26	C	0.548785	-0.299567	-0.339585
C27	C	0.598198	-0.286844	-0.407410
C28	C	0.416429	-0.251901	-0.357887
C29	C	0.730609	-0.251873	-0.357825
C30	C	1.073040	-0.387724	-0.357785
C31	C	1.073063	-0.445838	-0.357785
C32	C	1.120676	-0.806153	-0.405438
C33	C	1.120698	-0.860758	-0.405453
O34	O	1.161055	-0.888954	-0.445908
N35	N	1.073248	-0.888120	-0.357915
C36	C	1.025769	-0.860876	-0.310365
O37	O	0.985411	-0.889164	-0.269933
C38	C	1.025743	-0.806272	-0.310354
C39	C	1.073201	-0.778913	-0.357889
C40	C	1.168129	-0.778793	-0.452969
C41	C	1.168108	-0.724193	-0.452953
C42	C	1.120634	-0.696952	-0.405405
C43	C	1.073180	-0.724312	-0.357873
C44	C	0.978260	-0.779029	-0.262809
C45	C	0.978239	-0.724422	-0.262802
C46	C	1.025697	-0.697062	-0.310337
C47	C	1.025685	-0.642471	-0.310309
N48	N	1.073134	-0.615108	-0.357846
C49	C	1.120609	-0.642349	-0.405394
C50	C	1.025824	-0.975546	-0.310392
C51	C	1.025852	-1.030149	-0.310399
C52	C	1.120781	-1.030027	-0.405487
C53	C	1.120756	-0.975423	-0.405477
C54	C	1.073273	-0.948184	-0.357930
C55	C	1.120561	-0.527684	-0.405356
C56	C	1.120538	-0.473078	-0.405333
C57	C	1.025607	-0.473205	-0.310248
C58	C	1.025633	-0.527806	-0.310267
C59	C	1.073112	-0.555044	-0.357828
O60	O	0.985346	-0.614240	-0.269876
O61	O	1.160953	-0.614054	-0.445827
C62	C	1.266851	-0.251900	-0.357881
C63	C	1.349397	-0.251908	-0.357897
C64	C	1.073178	-0.251825	-0.551549
C65	C	1.073192	-0.251802	-0.634095
C66	C	1.073271	-0.115508	-0.357918
C67	C	1.073324	-0.057394	-0.357950
C68	C	1.122880	-0.216866	-0.833575
C69	C	1.055148	-0.204066	-0.882967
C70	C	1.073222	-0.251793	-0.785226
C71	C	1.140981	-0.264559	-0.882915
C72	C	1.073257	-0.251783	-0.931211
C73	C	1.005454	-0.238969	-0.833530
C74	C	1.091333	-0.299483	-0.833475
C75	C	1.023554	-0.286702	-0.882844
C76	C	1.073203	-0.251797	-0.701127
C77	C	1.073268	-0.251779	-1.015307
C78	C	1.073155	-0.251899	-0.164891
C79	C	1.073285	-0.251775	-0.082346
H80	H	0.527039	-0.339878	-0.324109
H81	H	1.159218	-0.549855	-0.444089
C82	C	0.973589	-0.945587	-0.258081
N83	N	0.934244	-0.923025	-0.218681
C84	C	0.519530	-0.176946	-0.251845
N85	N	0.497463	-0.146835	-0.209299
H86	H	0.986995	-0.550083	-0.271555
C87	C	1.179519	-0.176939	-0.804340
N88	N	1.222174	-0.146865	-0.782318
H89	H	0.986956	-0.451017	-0.271532
C90	C	1.220319	-0.694104	-0.505243
N91	N	1.259647	-0.671445	-0.544631
H92	H	0.939571	-0.702246	-0.224085
C93	C	1.034472	-0.149577	-0.912343
N94	N	1.018905	-0.108535	-0.934470
H95	H	0.948149	-0.228120	-0.811928
H96	H	1.198270	-0.275360	-0.904611
H97	H	0.981526	-0.316234	-0.904342
C98	C	1.112045	-0.353956	-0.804075
N99	N	1.127655	-0.394985	-0.781928
H100	H	0.987215	-1.052420	-0.271683
C101	C	0.926047	-0.809112	-0.210520
N102	N	0.886714	-0.831771	-0.171136
H103	H	0.619976	-0.163857	-0.391582
H104	H	0.619739	-0.316414	-0.449331
C105	C	0.519743	-0.224538	-0.503153
N106	N	0.497799	-0.213547	-0.561501
C107	C	1.172750	-0.442986	-0.457626
N108	N	1.212074	-0.420322	-0.497011
C109	C	0.627428	-0.279123	-0.212616
N110	N	0.649460	-0.290060	-0.154281
H111	H	1.206789	-0.800967	-0.491693
H112	H	1.159399	-0.953150	-0.444184
H113	H	1.159436	-1.052216	-0.444205
