data_functionalizedCrystal
_audit_creation_method	'MofGen! by Chris Wilmer'
_symmetry_space_group_name_H-M	'P1'
_symmetry_Int_Tables_number	1
_symmetry_cell_setting	triclinic
loop_
_symmetry_equiv_pos_as_xyz
  x,y,z
_cell_length_a	8.559649
_cell_length_b	9.798715
_cell_length_c	8.597275
_cell_angle_alpha	82.299407
_cell_angle_beta	102.375283
_cell_angle_gamma	89.996030
loop_
_atom_site_label
_atom_site_type_symbol
_atom_site_fract_x
_atom_site_fract_y
_atom_site_fract_z
O1	O	-2.119297	0.119741	-0.053146
O2	O	-1.655356	0.110229	0.027754
O3	O	-1.896460	0.141976	-0.242263
O4	O	-1.878193	0.087994	0.216871
O5	O	-1.896442	-0.085006	-0.242261
O6	O	-1.655338	-0.116754	0.027756
O7	O	-2.119279	-0.107241	-0.053144
Zn8	Zn	-1.887305	-0.148036	-0.012694
Zn9	Zn	-1.887329	0.151023	-0.012696
O10	O	-1.878175	-0.138989	0.216873
C11	C	-1.595913	-0.003983	0.033886
C12	C	-1.418817	-0.006129	0.052135
N13	N	-1.887301	-0.352135	-0.012695
C14	C	-1.988530	-0.406531	-0.126509
C15	C	-1.988556	-0.563692	-0.126518
C16	C	-1.178722	0.006971	-0.059276
C17	C	-1.355817	0.009117	-0.077525
C18	C	-1.894490	0.035335	-0.300497
C19	C	-1.888630	0.055745	-0.474017
N20	N	-1.887346	0.355124	-0.012709
C21	C	-1.880144	-0.032344	0.275107
C22	C	-1.886005	-0.052746	0.448627
H23	H	-1.337262	-0.020816	0.177113
H24	H	-2.075229	-0.610521	-0.223954
H25	H	-1.437363	0.023818	-0.202494
H26	H	-1.800681	-0.598057	0.084742
C27	C	-2.104142	-0.313723	-0.256620
C28	C	-2.197512	-0.394361	-0.361645
C29	C	-2.304019	-0.308918	-0.481538
H30	H	-2.171660	-0.263610	-0.208584
H31	H	-2.045524	-0.251186	-0.314766
H32	H	-2.256125	-0.456874	-0.303507
H33	H	-2.130038	-0.444473	-0.409721
H34	H	-2.245402	-0.246380	-0.539685
H35	H	-2.371526	-0.258809	-0.433487
H36	H	-2.367373	-0.363617	-0.552821
C37	C	-1.889049	-0.197531	-0.462979
C38	C	-1.885484	-0.293523	-0.569121
C39	C	-1.888300	-0.426908	-0.487755
H40	H	-1.798463	-0.212992	-0.376224
H41	H	-1.983990	-0.207442	-0.422560
H42	H	-1.790553	-0.283618	-0.609516
H43	H	-1.976063	-0.278107	-0.655878
H44	H	-1.983241	-0.436819	-0.447336
H45	H	-1.797712	-0.442355	-0.401002
H46	H	-1.885897	-0.492054	-0.559763
H47	H	-1.800646	-0.421915	0.084735
C48	C	-1.885303	0.200369	-0.562710
C49	C	-1.745270	0.214482	-0.622129
C50	C	-1.742136	0.347696	-0.703837
H51	H	-1.975797	0.215787	-0.649570
H52	H	-1.887644	0.265746	-0.490951
H53	H	-1.742943	0.149124	-0.693884
H54	H	-1.654753	0.199091	-0.535303
H55	H	-1.744478	0.413073	-0.632078
H56	H	-1.832636	0.363102	-0.790690
H57	H	-1.647119	0.357293	-0.744150
