data_functionalizedCrystal
_audit_creation_method	'MofGen! by Chris Wilmer'
_symmetry_space_group_name_H-M	'P1'
_symmetry_Int_Tables_number	1
_symmetry_cell_setting	triclinic
loop_
_symmetry_equiv_pos_as_xyz
  x,y,z
_cell_length_a	12.594516
_cell_length_b	21.395362
_cell_length_c	21.395355
_cell_angle_alpha	90.048039
_cell_angle_beta	89.988593
_cell_angle_gamma	89.965683
loop_
_atom_site_label
_atom_site_type_symbol
_atom_site_fract_x
_atom_site_fract_y
_atom_site_fract_z
Zn1	Zn	-0.423347	-0.957923	-0.354685
Zn2	Zn	-0.601311	-0.957853	-0.249921
Zn3	Zn	-0.423403	-0.853138	-0.249879
Zn4	Zn	-0.601340	-0.853134	-0.354618
O5	O	-0.512350	-0.905512	-0.302276
O6	O	-0.446918	-1.045592	-0.340834
O7	O	-0.577723	-0.943934	-0.162237
O8	O	-0.274450	-0.867070	-0.263792
O9	O	-0.577667	-1.045540	-0.263863
O10	O	-0.274408	-0.944055	-0.340793
O11	O	-0.447015	-0.867001	-0.162207
O12	O	-0.447043	-0.765460	-0.263727
O13	O	-0.577717	-0.867063	-0.442305
O14	O	-0.577773	-0.765457	-0.340678
O15	O	-0.446946	-0.944051	-0.442354
O16	O	-0.750261	-0.943930	-0.263798
O17	O	-0.750282	-0.866994	-0.340719
C18	C	-0.512418	-0.742724	-0.302191
C19	C	-0.512473	-0.673083	-0.302170
C20	C	-0.580636	-0.640385	-0.342176
C21	C	-0.580614	-0.574950	-0.342200
C22	C	-0.512441	-0.542215	-0.302205
C23	C	-0.444264	-0.574921	-0.262196
C24	C	-0.444280	-0.640355	-0.262179
C25	C	-0.503874	-0.438489	-0.245792
C26	C	-0.503865	-0.373056	-0.245809
C27	C	-0.512386	-0.340394	-0.302260
C28	C	-0.520937	-0.373173	-0.358697
C29	C	-0.520953	-0.438608	-0.358679
C30	C	-0.512416	-0.471263	-0.302220
C31	C	-0.580529	-0.236743	-0.342295
C32	C	-0.580500	-0.171307	-0.342319
C33	C	-0.444156	-0.171280	-0.262310
C34	C	-0.444179	-0.236715	-0.262292
C35	C	-0.512372	-0.269443	-0.302283
C36	C	-0.788891	-0.905471	-0.302269
C37	C	-0.907197	-0.905511	-0.302288
C38	C	-0.976500	-0.863661	-0.344096
C39	C	-1.047349	-0.848392	-0.286917
C40	C	-1.047147	-0.920837	-0.359476
C41	C	-0.976487	-0.890211	-0.245079
C42	C	-0.976279	-0.962683	-0.317677
C43	C	-1.047096	-0.947436	-0.260459
C44	C	-0.234729	-0.905570	-0.302296
C45	C	-0.116424	-0.905595	-0.302304
C46	C	-0.512329	-0.905564	-0.465699
C47	C	-0.512319	-0.905586	-0.535340
C48	C	-0.512301	-0.068935	-0.302343
C49	C	-0.512325	-0.138577	-0.302325
C50	C	-0.444224	-0.945672	-0.568080
C51	C	-0.444178	-0.945671	-0.633516
C52	C	-0.512247	-0.905591	-0.666209
C53	C	-0.580347	-0.865497	-0.633461
C54	C	-0.580383	-0.865495	-0.568027
C55	C	-0.608087	-0.900630	-0.769879
C56	C	-0.608053	-0.900636	-0.835312
C57	C	-0.512134	-0.905595	-0.868030
C58	C	-0.416248	-0.910560	-0.835306
C59	C	-0.416284	-0.910557	-0.769872
C60	C	-0.512215	-0.905589	-0.737161
C61	C	-0.443984	-0.945682	-0.971722
C62	C	-0.443936	-0.945677	-1.037159
C63	C	-0.580114	-0.865506	-1.037103
C64	C	-0.580153	-0.865508	-0.971667
C65	C	-0.512089	-0.905600	-0.938981
C66	C	-0.512295	-0.905496	-0.139488
C67	C	-0.512004	-0.905596	-0.069847
H68	H	-0.527873	-0.346582	-0.404665
O69	O	-0.935417	-0.816701	-0.390855
H70	H	-1.003451	-0.793046	-0.413826
O71	O	-0.654176	-0.675679	-0.385317
H72	H	-0.708273	-0.705434	-0.357215
O73	O	-0.934897	-1.026661	-0.334936
H74	H	-0.886415	-1.045360	-0.295870
H75	H	-0.388755	-0.548264	-0.229634
H76	H	-0.388643	-0.144628	-0.229749
O77	O	-0.370681	-0.271981	-0.219124
H78	H	-0.287165	-0.259469	-0.229944
H79	H	-1.078185	-0.933766	-0.407833
O80	O	-0.653584	-0.822254	-0.936360
H81	H	-0.737118	-0.832969	-0.948926
H82	H	-0.388800	-0.978317	-0.541471
O83	O	-0.653832	-0.822249	-0.532720
H84	H	-0.707997	-0.850269	-0.502930
H85	H	-0.388721	-0.978313	-0.660178
O86	O	-0.370485	-0.988911	-1.072479
H87	H	-0.388739	-1.038082	-1.059970
O88	O	-0.654022	-0.136039	-0.385475
H89	H	-0.642546	-0.085040	-0.378777
H90	H	-1.077899	-0.982863	-0.225069
H91	H	-0.338210	-0.914598	-0.743231
H92	H	-0.635766	-0.832862	-0.660084
H93	H	-1.078588	-0.800081	-0.273914
H94	H	-0.945577	-0.877226	-0.196709
O95	O	-0.654060	-0.272051	-0.385433
H96	H	-0.701443	-0.238317	-0.413266
H97	H	-0.338142	-0.914599	-0.861943
O98	O	-0.370565	-0.988913	-0.936460
H99	H	-0.323191	-1.016781	-0.970222
H100	H	-0.496931	-0.465077	-0.199819
H101	H	-0.686129	-0.896598	-0.861951
O102	O	-0.653534	-0.822274	-1.072354
H103	H	-0.642074	-0.829011	-1.123355
O104	O	-0.711546	-0.895273	-0.734592
H105	H	-0.778214	-0.891828	-0.768338
O106	O	-0.494637	-0.337702	-0.184942
H107	H	-0.488691	-0.371405	-0.145686
H108	H	-0.636121	-0.548321	-0.374780
O109	O	-0.370773	-0.675622	-0.219014
H110	H	-0.287257	-0.663112	-0.229837
O111	O	-0.530153	-0.473965	-0.419545
H112	H	-0.536066	-0.440266	-0.458805
