data_functionalizedCrystal
_audit_creation_method	'MofGen! by Chris Wilmer'
_symmetry_space_group_name_H-M	'P1'
_symmetry_Int_Tables_number	1
_symmetry_cell_setting	triclinic
loop_
_symmetry_equiv_pos_as_xyz
  x,y,z
_cell_length_a	18.050589
_cell_length_b	10.686220
_cell_length_c	10.686551
_cell_angle_alpha	90.308082
_cell_angle_beta	85.596139
_cell_angle_gamma	94.409750
loop_
_atom_site_label
_atom_site_type_symbol
_atom_site_fract_x
_atom_site_fract_y
_atom_site_fract_z
Zn1	Zn	-0.181059	1.972217	-0.562396
Zn2	Zn	0.318941	2.472217	-0.062396
Zn3	Zn	-0.315479	1.955936	-0.352644
Zn4	Zn	0.184521	2.455936	0.147356
Zn5	Zn	-0.200057	1.746328	-0.368714
Zn6	Zn	0.299943	2.246328	0.131286
Zn7	Zn	-0.313974	1.762366	-0.578422
Zn8	Zn	0.186026	2.262366	-0.078422
O9	O	-0.252642	1.859212	-0.465544
O10	O	0.247358	2.359212	0.034456
O11	O	-0.191569	2.145602	-0.521139
O12	O	0.308431	2.645602	-0.021139
O13	O	-0.308749	1.914605	-0.179231
O14	O	0.191251	2.414605	0.320769
O15	O	-0.093607	1.776395	-0.394425
O16	O	0.406393	2.276395	0.105575
O17	O	-0.290327	2.133640	-0.367036
O18	O	0.209673	2.633640	0.132964
O19	O	-0.079649	1.942354	-0.536722
O20	O	0.420351	2.442354	-0.036722
O21	O	-0.223949	1.760607	-0.191038
O22	O	0.276051	2.260607	0.308962
O23	O	-0.222489	1.572911	-0.409965
O24	O	0.277511	2.072911	0.090035
O25	O	-0.287762	1.803729	-0.751841
O26	O	0.212238	2.303729	-0.251841
O27	O	-0.306184	1.584694	-0.564036
O28	O	0.193816	2.084694	-0.064036
O29	O	-0.190110	1.957906	-0.740067
O30	O	0.309890	2.457906	-0.240067
O31	O	-0.419209	1.930156	-0.382576
O32	O	0.080791	2.430156	0.117424
O33	O	-0.418104	1.787942	-0.548454
O34	O	0.081896	2.287942	-0.048454
C35	C	-0.266235	1.533286	-0.490484
C36	C	0.233765	2.033286	0.009516
C37	C	-0.272067	1.393856	-0.501183
C38	C	0.227933	1.893856	-0.001183
C39	C	-0.445602	1.859059	-0.465535
C40	C	0.054398	2.359059	0.034465
C41	C	-0.528144	1.859111	-0.465564
C42	C	-0.028144	2.359111	0.034436
C43	C	-0.727018	1.781855	-0.555733
C44	C	-0.227018	2.281855	-0.055733
C45	C	-0.783311	1.742482	-0.443604
C46	C	-0.283311	2.242482	0.056396
C47	C	-0.679268	1.859236	-0.465571
C48	C	-0.179268	2.359236	0.034429
C49	C	-0.770054	1.898671	-0.577708
C50	C	-0.270054	2.398671	-0.077708
C51	C	-0.825247	1.859354	-0.465588
C52	C	-0.325247	2.359354	0.034412
C53	C	-0.734480	1.819798	-0.353387
C54	C	-0.234480	2.319798	0.146613
C55	C	-0.721212	1.976046	-0.487563
C56	C	-0.221212	2.476046	0.012437
C57	C	-0.777484	1.936711	-0.375352
C58	C	-0.277484	2.436711	0.124648
C59	C	-0.595174	1.859164	-0.465563
C60	C	-0.095174	2.359164	0.034437
C61	C	-0.909341	1.859425	-0.465583
C62	C	-0.409341	2.359425	0.034417
C63	C	-0.058926	1.859402	-0.465578
C64	C	0.441074	2.359402	0.034422
C65	C	0.023624	1.859483	-0.465593
C66	C	0.523624	2.359483	0.034407
C67	C	-0.236649	1.884423	-0.792743
C68	C	0.263351	2.384423	-0.292743
C69	C	-0.229833	1.895166	-0.932176
C70	C	0.270167	2.395166	-0.432176
C71	C	-0.238997	2.186411	-0.440508
C72	C	0.261003	2.686411	0.059492
C73	C	-0.233182	2.325843	-0.429838
C74	C	0.266818	2.825843	0.070162
C75	C	-0.268517	1.834171	-0.139612
C76	C	0.231483	2.334171	0.360388
C77	C	-0.275113	1.823671	-0.000161
C78	C	0.224887	2.323671	0.499839
H79	H	-0.195430	1.374283	-0.360571
H80	H	0.304570	1.874283	0.139429
Br81	Br	-0.335006	1.313119	-0.616626
Br82	Br	0.164994	1.813119	-0.116626
Br83	Br	-0.156531	2.010909	-1.012953
Br84	Br	0.343469	2.510909	-0.512953
Br85	Br	-0.348424	1.707954	-0.919387
Br86	Br	0.151576	2.207954	-0.419387
Br87	Br	-0.690127	1.672610	-0.682666
Br88	Br	-0.190127	2.172610	-0.182666
H89	H	-0.785908	1.931977	-0.672534
H90	H	-0.285908	2.431977	-0.172534
H91	H	-0.810397	1.643756	-0.425021
H92	H	-0.310397	2.143756	0.074979
H93	H	-0.799490	2.002194	-0.299031
H94	H	-0.299490	2.502194	0.200969
Br95	Br	-0.708219	1.764101	-0.195302
Br96	Br	-0.208219	2.264101	0.304698
H97	H	-0.694126	2.074755	-0.506203
H98	H	-0.194126	2.574755	-0.006203
