data_functionalizedCrystal
_audit_creation_method	'MofGen! by Chris Wilmer'
_symmetry_space_group_name_H-M	'P1'
_symmetry_Int_Tables_number	1
_symmetry_cell_setting	triclinic
loop_
_symmetry_equiv_pos_as_xyz
  x,y,z
_cell_length_a	10.489711
_cell_length_b	19.288865
_cell_length_c	17.766277
_cell_angle_alpha	89.986610
_cell_angle_beta	89.997215
_cell_angle_gamma	83.831628
loop_
_atom_site_label
_atom_site_type_symbol
_atom_site_fract_x
_atom_site_fract_y
_atom_site_fract_z
O1	O	-1.691855	-0.097898	0.062631
O2	O	-1.191855	0.402102	0.562631
O3	O	-1.320446	-0.107118	0.062628
O4	O	-0.820446	0.392882	0.562628
O5	O	-1.516883	-0.001449	0.062615
O6	O	-1.016883	0.498551	0.562615
O7	O	-1.495419	-0.203567	0.062644
O8	O	-0.995419	0.296433	0.562644
O9	O	-1.516879	-0.001438	-0.062574
O10	O	-1.016879	0.498562	0.437426
O11	O	-1.320443	-0.107107	-0.062561
O12	O	-0.820443	0.392893	0.437439
O13	O	-1.691852	-0.097887	-0.062557
O14	O	-1.191852	0.402113	0.437443
Cu15	Cu	-1.506147	-0.102496	-0.073990
Cu16	Cu	-1.006147	0.397504	0.426010
Cu17	Cu	-1.506151	-0.102509	0.074060
Cu18	Cu	-1.006151	0.397491	0.574060
O19	O	-1.495415	-0.203556	-0.062544
O20	O	-0.995415	0.296444	0.437456
C21	C	-1.272928	-0.106421	0.000033
C22	C	-0.772928	0.393579	0.500033
C23	C	-1.131343	-0.104350	0.000031
C24	C	-0.631343	0.395650	0.500031
C25	C	-1.739370	-0.098585	0.000039
C26	C	-1.239370	0.401415	0.500039
C27	C	-1.880955	-0.100655	0.000046
C28	C	-1.380955	0.399345	0.500046
C29	C	-0.947520	-0.167896	0.000049
C30	C	-0.447520	0.332104	0.500049
C31	C	-1.040385	-0.136160	0.061767
C32	C	-0.540385	0.363840	0.561767
C33	C	-1.040355	-0.136132	-0.061659
C34	C	-0.540355	0.363868	0.438341
C35	C	-0.971955	-0.068891	0.061816
C36	C	-0.471955	0.431109	0.561816
C37	C	-0.971915	-0.068872	-0.061666
C38	C	-0.471915	0.431128	0.438334
C39	C	-1.064754	-0.037086	0.000068
C40	C	-0.564754	0.462914	0.500068
C41	C	-1.516190	0.024437	0.000018
C42	C	-1.016190	0.524437	0.500018
C43	C	-1.514117	0.101555	0.000011
C44	C	-1.014117	0.601555	0.500011
N45	N	-1.506155	-0.102513	0.178190
N46	N	-1.006155	0.397487	0.678190
C47	C	-1.496108	-0.229443	0.000054
C48	C	-0.996108	0.270557	0.500054
C49	C	-1.498181	-0.306560	0.000065
C50	C	-0.998181	0.193440	0.500065
C51	C	-1.629377	0.145485	0.000009
C52	C	-1.129377	0.645485	0.500009
C53	C	-1.627429	0.217945	0.000021
C54	C	-1.127429	0.717945	0.500021
C55	C	-1.510215	0.246471	0.000020
C56	C	-1.010215	0.746471	0.500020
C57	C	-1.394940	0.202532	0.000027
C58	C	-0.894940	0.702532	0.500027
C59	C	-1.396891	0.130073	0.000023
C60	C	-0.896891	0.630073	0.500023
C61	C	-1.418070	0.355375	-0.043832
C62	C	-0.918070	0.855375	0.456168
C63	C	-1.416124	0.427833	-0.043832
C64	C	-0.916124	0.927833	0.456168
C65	C	-1.504193	0.469957	0.000037
C66	C	-1.004193	0.969957	0.500037
C67	C	-1.594230	0.439617	0.043896
C68	C	-1.094230	0.939617	0.543896
C69	C	-1.596181	0.367158	0.043892
C70	C	-1.096181	0.867158	0.543892
C71	C	-1.508086	0.325040	0.000025
C72	C	-1.008086	0.825040	0.500025
C73	C	-1.617349	0.592457	0.000048
C74	C	-1.117349	1.092457	0.500048
C75	C	-1.615396	0.664918	0.000065
C76	C	-1.115396	1.164918	0.500065
C77	C	-1.382903	0.649503	0.000063
C78	C	-0.882903	1.149503	0.500063
C79	C	-1.384859	0.577044	0.000054
C80	C	-0.884859	1.077044	0.500054
C81	C	-1.502085	0.548525	0.000043
C82	C	-1.002085	1.048525	0.500043
N83	N	-1.506153	-0.102487	-0.178120
N84	N	-1.006153	0.397513	0.321880
C85	C	-1.593306	-0.055803	0.782473
C86	C	-1.093306	0.444197	1.282473
C87	C	-1.593302	-0.055801	0.703672
C88	C	-1.093302	0.444199	1.203672
C89	C	-1.506159	-0.102496	0.664279
C90	C	-1.006159	0.397504	1.164279
C91	C	-1.418990	-0.149184	0.703695
C92	C	-0.918990	0.350816	1.203695
C93	C	-1.418987	-0.149179	0.782495
C94	C	-0.918987	0.350821	1.282495
C95	C	-1.488846	-0.165668	0.539456
C96	C	-0.988846	0.334332	1.039456
C97	C	-1.488857	-0.165674	0.460657
C98	C	-0.988857	0.334326	0.960657
C99	C	-1.506159	-0.102511	0.421233
C100	C	-1.006159	0.397489	0.921233
C101	C	-1.523477	-0.039339	0.460617
C102	C	-1.023477	0.460661	0.960617
C103	C	-1.523475	-0.039334	0.539418
C104	C	-1.023475	0.460666	1.039418
C105	C	-1.506151	-0.102506	0.578834
C106	C	-1.006151	0.397494	1.078834
C107	C	-1.593313	-0.055821	0.296381
C108	C	-1.093313	0.444179	0.796381
C109	C	-1.593301	-0.055819	0.217577
C110	C	-1.093301	0.444181	0.717577
C111	C	-1.418994	-0.149208	0.217602
C112	C	-0.918994	0.350792	0.717602
C113	C	-1.419000	-0.149204	0.296404
C114	C	-0.919000	0.350796	0.796404
C115	C	-1.506166	-0.102511	0.335788
C116	C	-1.006166	0.397489	0.835788
H117	H	-0.896579	-0.223164	0.000118
H118	H	-0.396579	0.276836	0.500118
H119	H	-1.348034	-0.187203	0.671618
H120	H	-0.848034	0.312797	1.171618
H121	H	-1.346350	0.321083	-0.079559
H122	H	-0.846350	0.821083	0.420441
C123	C	-1.469804	-0.235151	0.582819
C124	C	-0.969804	0.264849	1.082819
H125	H	-1.472267	-0.226101	0.635389
H126	H	-0.972267	0.273899	1.135389
H127	H	-1.536231	-0.262797	0.569919
H128	H	-1.036231	0.237203	1.069919
H129	H	-1.389141	-0.259413	0.569907
H130	H	-0.889141	0.240587	1.069907
C131	C	-1.758317	0.114114	-0.000001
C132	C	-1.258317	0.614114	0.499999
H133	H	-1.742975	0.064668	-0.000010
H134	H	-1.242975	0.564668	0.499990
H135	H	-1.805769	0.129144	0.043653
H136	H	-1.305769	0.629144	0.543653
H137	H	-1.805746	0.129168	-0.043665
H138	H	-1.305746	0.629168	0.456335
H139	H	-1.342805	0.452530	-0.079540
H140	H	-0.842805	0.952530	0.420460
H141	H	-1.664267	-0.017799	0.185492
H142	H	-1.164267	0.482201	0.685492
H143	H	-0.941534	-0.040439	-0.113855
H144	H	-0.441534	0.459561	0.386145
C145	C	-1.081293	-0.174570	-0.132152
C146	C	-0.581293	0.325430	0.367848
H147	H	-1.040718	-0.221039	-0.132064
H148	H	-0.540718	0.278961	0.367936
H149	H	-1.171703	-0.175266	-0.131899
H150	H	-0.671703	0.324734	0.368101
H151	H	-1.056680	-0.151125	-0.175985
H152	H	-0.556680	0.348875	0.324015
C153	C	-1.323137	-0.200571	0.174280
C154	C	-0.823137	0.299429	0.674280
H155	H	-1.335624	-0.193891	0.121705
H156	H	-0.835624	0.306109	0.621705
H157	H	-1.238107	-0.192490	0.187189
H158	H	-0.738107	0.307510	0.687189
H159	H	-1.336559	-0.247025	0.187209
H160	H	-0.836559	0.252975	0.687209
H161	H	-1.537566	0.012095	0.428520
H162	H	-1.037566	0.512095	0.928520
C163	C	-1.323125	-0.200539	0.825844
C164	C	-0.823125	0.299461	1.325844
H165	H	-1.271226	-0.228352	0.791101
H166	H	-0.771226	0.271648	1.291101
H167	H	-1.270283	-0.175213	0.856578
H168	H	-0.770283	0.324787	1.356578
H169	H	-1.368735	-0.229749	0.856591
H170	H	-0.868735	0.270251	1.356591
C171	C	-1.746289	0.561083	0.000045
C172	C	-1.246289	1.061083	0.500045
H173	H	-1.814657	0.597627	0.000056
H174	H	-1.314657	1.097627	0.500056
H175	H	-1.751884	0.533151	-0.043614
H176	H	-1.251884	1.033151	0.456386
H177	H	-1.751881	0.533124	0.043703
H178	H	-1.251881	1.033124	0.543703
C179	C	-1.253970	0.680874	0.000065
C180	C	-0.753970	1.180874	0.500065
H181	H	-1.269313	0.730320	0.000064
H182	H	-0.769313	1.230320	0.500064
H183	H	-1.206529	0.665820	0.043720
H184	H	-0.706529	1.165820	0.543720
H185	H	-1.206528	0.665846	-0.043598
H186	H	-0.706528	1.165846	0.456402
C187	C	-1.270103	0.081745	0.000024
C188	C	-0.770103	0.581745	0.500024
H189	H	-1.288054	0.034507	0.000025
H190	H	-0.788054	0.534507	0.500025
H191	H	-1.222012	0.090465	-0.043629
H192	H	-0.722012	0.590465	0.456371
H193	H	-1.222031	0.090441	0.043689
H194	H	-0.722031	0.590441	0.543689
H195	H	-0.941790	-0.040470	0.114055
H196	H	-0.441790	0.459530	0.614055
C197	C	-1.081392	-0.174600	0.132264
C198	C	-0.581392	0.325400	0.632264
H199	H	-1.040845	-0.221074	0.132197
H200	H	-0.540845	0.278926	0.632197
H201	H	-1.056826	-0.151163	0.176094
H202	H	-0.556826	0.348837	0.676094
H203	H	-1.171811	-0.175291	0.131981
H204	H	-0.671811	0.324709	0.631981
H205	H	-1.721291	0.253719	0.000022
H206	H	-1.221291	0.753719	0.500022
C207	C	-1.695204	0.333782	0.092135
C208	C	-1.195204	0.833782	0.592135
H209	H	-1.683754	0.284596	0.085843
H210	H	-1.183754	0.784596	0.585843
H211	H	-1.683681	0.344897	0.143603
H212	H	-1.183681	0.844897	0.643603
H213	H	-1.779276	0.351253	0.076710
H214	H	-1.279276	0.851253	0.576710
C215	C	-1.691104	0.485943	0.092159
C216	C	-1.191104	0.985943	0.592159
H217	H	-1.677040	0.533441	0.085890
H218	H	-1.177040	1.033441	0.585890
H219	H	-1.775813	0.479671	0.076742
H220	H	-1.275813	0.979671	0.576742
H221	H	-1.680203	0.473305	0.143627
H222	H	-1.180203	0.973305	0.643627
H223	H	-1.115463	0.018232	0.000091
H224	H	-0.615463	0.518232	0.500091
H225	H	-1.709259	0.700686	0.000067
H226	H	-1.209259	1.200686	0.500067
H227	H	-1.291002	0.541275	0.000052
H228	H	-0.791002	1.041275	0.500052
H229	H	-1.299503	0.225763	0.000028
H230	H	-0.799503	0.725763	0.500028
C231	C	-1.689171	-0.004436	0.825792
C232	C	-1.189171	0.495564	1.325792
H233	H	-1.741068	0.023373	0.791032
H234	H	-1.241068	0.523373	1.291032
H235	H	-1.742015	-0.029756	0.856546
H236	H	-1.242015	0.470244	1.356546
H237	H	-1.643562	0.024779	0.856516
H238	H	-1.143562	0.524779	1.356516
C239	C	-1.323157	-0.200569	0.339757
C240	C	-0.823157	0.299431	0.839757
H241	H	-1.335634	-0.193877	0.392329
H242	H	-0.835634	0.306123	0.892329
H243	H	-1.336581	-0.247019	0.326854
H244	H	-0.836581	0.252981	0.826854
H245	H	-1.238118	-0.192489	0.326841
H246	H	-0.738118	0.307511	0.826841
C247	C	-1.689176	-0.004448	0.660315
C248	C	-1.189176	0.495552	1.160315
H249	H	-1.741091	0.023358	0.695057
H250	H	-1.241091	0.523358	1.195057
H251	H	-1.643584	0.024759	0.629562
H252	H	-1.143584	0.524759	1.129562
H253	H	-1.742019	-0.029785	0.629588
H254	H	-1.242019	0.470215	1.129588
H255	H	-1.474764	-0.217112	0.428596
H256	H	-0.974764	0.282888	0.928596
C257	C	-1.689176	-0.004456	0.339707
C258	C	-1.189176	0.495544	0.839707
H259	H	-1.741069	0.023357	0.304948
H260	H	-1.241069	0.523357	0.804948
H261	H	-1.742024	-0.029778	0.370456
H262	H	-1.242024	0.470222	0.870456
H263	H	-1.643568	0.024755	0.370435
H264	H	-1.143568	0.524755	0.870435
H265	H	-1.537572	0.012102	0.571481
H266	H	-1.037572	0.512102	1.071481
