data_functionalizedCrystal
_audit_creation_method	'MofGen! by Chris Wilmer'
_symmetry_space_group_name_H-M	'P1'
_symmetry_Int_Tables_number	1
_symmetry_cell_setting	triclinic
loop_
_symmetry_equiv_pos_as_xyz
  x,y,z
_cell_length_a	17.699104
_cell_length_b	22.610064
_cell_length_c	17.699092
_cell_angle_alpha	89.994252
_cell_angle_beta	83.288943
_cell_angle_gamma	90.009101
loop_
_atom_site_label
_atom_site_type_symbol
_atom_site_fract_x
_atom_site_fract_y
_atom_site_fract_z
O1	O	1.004074	0.049194	0.095776
O2	O	1.504074	0.549194	0.595776
O3	O	0.783698	0.049193	0.108212
O4	O	1.283698	0.549193	0.608212
O5	O	0.900109	0.049192	-0.008195
O6	O	1.400109	0.549192	0.491805
O7	O	0.887663	0.049195	0.212182
O8	O	1.387663	0.549195	0.712182
O9	O	0.900088	-0.049177	-0.008178
O10	O	1.400088	0.450823	0.491822
O11	O	0.783678	-0.049177	0.108228
O12	O	1.283678	0.450823	0.608228
O13	O	1.004053	-0.049175	0.095793
O14	O	1.504053	0.450825	0.595793
Zn15	Zn	0.893862	-0.064794	0.102013
Zn16	Zn	1.393862	0.435206	0.602013
Zn17	Zn	0.893889	0.064812	0.101991
Zn18	Zn	1.393889	0.564812	0.601991
O19	O	0.887643	-0.049174	0.212199
O20	O	1.387643	0.450826	0.712199
C21	C	0.755491	0.000008	0.107772
C22	C	1.255491	0.500008	0.607772
C23	C	0.671474	0.000007	0.106427
C24	C	1.171474	0.500007	0.606427
C25	C	0.146605	0.000014	0.167170
C26	C	0.646605	0.500014	0.667170
C27	C	0.225548	0.000016	0.168430
C28	C	0.725548	0.500016	0.668430
C29	C	0.274164	0.000015	0.100095
C30	C	0.774164	0.500015	0.600095
C31	C	0.243832	0.000018	0.030496
C32	C	0.743832	0.500018	0.530496
C33	C	0.164890	0.000021	0.029238
C34	C	0.664890	0.500021	0.529238
C35	C	0.562198	0.000009	0.035569
C36	C	1.062198	0.500009	0.535569
C37	C	0.641145	0.000005	0.036833
C38	C	1.141145	0.500005	0.536833
C39	C	0.622857	0.000004	0.174761
C40	C	1.122857	0.500004	0.674761
C41	C	0.543915	0.000006	0.173503
C42	C	1.043915	0.500006	0.673503
C43	C	0.513590	0.000013	0.103905
C44	C	1.013590	0.500013	0.603905
C45	C	0.427990	0.000012	0.102540
C46	C	0.927990	0.500012	0.602540
C47	C	0.359762	0.000011	0.101458
C48	C	0.859762	0.500011	0.601458
N49	N	0.893849	-0.153246	0.102028
N50	N	1.393849	0.346754	0.602028
C51	C	0.945438	-0.561888	0.050454
C52	C	1.445438	-0.061888	0.550454
C53	C	0.945442	-0.623808	0.050449
C54	C	1.445442	-0.123808	0.550449
O55	O	0.989273	-0.655827	0.006610
O56	O	1.489273	-0.155827	0.506610
N57	N	0.893889	-0.654784	0.101975
N58	N	1.393889	-0.154784	0.601975
C59	C	0.842323	-0.623836	0.153505
C60	C	1.342323	-0.123836	0.653505
O61	O	0.798472	-0.655869	0.197332
O62	O	1.298472	-0.155869	0.697332
C63	C	0.842316	-0.561917	0.153507
C64	C	1.342316	-0.061917	0.653507
C65	C	0.893878	-0.530945	0.101982
C66	C	1.393878	-0.030945	0.601982
C67	C	0.996996	-0.530916	-0.001067
C68	C	1.496996	-0.030916	0.498933
C69	C	0.996992	-0.469000	-0.001061
C70	C	1.496992	0.031000	0.498939
C71	C	0.945432	-0.438057	0.050467
C72	C	1.445432	0.061943	0.550467
C73	C	0.893875	-0.469029	0.101989
C74	C	1.393875	0.030971	0.601989
C75	C	0.790747	-0.530971	0.205033
C76	C	1.290747	-0.030971	0.705033
C77	C	0.790744	-0.469048	0.205029
C78	C	1.290744	0.030952	0.705029
C79	C	0.842306	-0.438076	0.153504
C80	C	1.342306	0.061924	0.653504
C81	C	0.842311	-0.376170	0.153523
C82	C	1.342311	0.123830	0.653523
N83	N	0.893865	-0.345195	0.101996
N84	N	1.393865	0.154805	0.601996
C85	C	0.945425	-0.376138	0.050469
C86	C	1.445425	0.123862	0.550469
C87	C	0.842340	-0.753870	0.153498
C88	C	1.342340	-0.253870	0.653498
C89	C	0.842350	-0.815787	0.153501
C90	C	1.342350	-0.315787	0.653501
C91	C	0.945469	-0.815755	0.050443
C92	C	1.445469	-0.315755	0.550443
C93	C	0.945462	-0.753836	0.050444
C94	C	1.445462	-0.253836	0.550444
C95	C	0.893894	-0.722894	0.101971
C96	C	1.393894	-0.222894	0.601971
C97	C	0.945415	-0.246111	0.050487
C98	C	1.445415	0.253889	0.550487
C99	C	0.945410	-0.184190	0.050500
C100	C	1.445410	0.315810	0.550500
C101	C	0.842289	-0.184227	0.153555
C102	C	1.342289	0.315773	0.653555
C103	C	0.842297	-0.246143	0.153545
C104	C	1.342297	0.253857	0.653545
C105	C	0.893863	-0.277083	0.102004
C106	C	1.393863	0.222917	0.602004
O107	O	0.798501	-0.344112	0.197337
O108	O	1.298501	0.155888	0.697337
O109	O	0.989262	-0.344097	0.006643
O110	O	1.489262	0.155903	0.506643
C111	C	1.032260	0.000011	0.096232
C112	C	1.532260	0.500011	0.596232
C113	C	1.116278	0.000016	0.097577
C114	C	1.616278	0.500016	0.597577
N115	N	0.893908	0.153264	0.101970
N116	N	1.393908	0.653264	0.601970
C117	C	0.899652	0.000008	-0.036383
C118	C	1.399652	0.500008	0.463617
C119	C	0.898311	0.000011	-0.120401
C120	C	1.398311	0.500011	0.379599
C121	C	0.897694	0.053633	-0.159878
C122	C	1.397694	0.553633	0.340122
C123	C	0.896429	0.053634	-0.238821
C124	C	1.396429	0.553634	0.261179
C125	C	0.895786	0.000012	-0.278286
C126	C	1.395786	0.500012	0.221714
C127	C	0.896401	-0.053614	-0.238804
C128	C	1.396401	0.446386	0.261196
C129	C	0.897661	-0.053614	-0.159862
C130	C	1.397661	0.446386	0.340138
C131	C	0.891321	-0.053615	-0.557169
C132	C	1.391321	0.446385	-0.057169
C133	C	0.890063	-0.053611	-0.636117
C134	C	1.390063	0.446389	-0.136117
C135	C	0.890089	0.053633	-0.636129
C136	C	1.390089	0.553633	-0.136129
C137	C	0.891348	0.053633	-0.557186
C138	C	1.391348	0.553633	-0.057186
C139	C	0.891959	0.000007	-0.517710
C140	C	1.391959	0.500007	-0.017710
C141	C	0.893329	0.000007	-0.432111
C142	C	1.393329	0.500007	0.067889
C143	C	0.894421	0.000011	-0.363885
C144	C	1.394421	0.500011	0.136115
C145	C	0.888100	0.000011	0.240387
C146	C	1.388100	0.500011	0.740387
C147	C	0.889441	0.000012	0.324405
C148	C	1.389441	0.500012	0.824405
H149	H	0.140199	0.000023	-0.027432
H150	H	0.640199	0.500023	0.472568
C151	C	0.898400	0.112618	-0.116472
C152	C	1.398400	0.612618	0.383528
H153	H	0.897844	0.144552	-0.151292
H154	H	1.397844	0.644552	0.348708
H155	H	0.943009	0.114849	-0.091525
H156	H	1.443009	0.614849	0.408475
H157	H	0.854767	0.114846	-0.079829
H158	H	1.354767	0.614846	0.420171
C159	C	0.528846	0.000017	-0.040983
C160	C	1.028846	0.500017	0.459017
H161	H	0.474869	0.000027	-0.031951
H162	H	0.974869	0.500027	0.468049
H163	H	0.545529	-0.034285	-0.069113
H164	H	1.045529	0.465715	0.430887
H165	H	0.545555	0.034326	-0.069111
H166	H	1.045555	0.534326	0.430889
C167	C	1.053721	-0.564944	-0.057749
C168	C	1.553721	-0.064944	0.442251
H169	H	1.084424	-0.537621	-0.088424
H170	H	1.584424	-0.037621	0.411576
H171	H	1.026570	-0.589103	-0.089232
H172	H	1.526570	-0.089103	0.410768
H173	H	1.085183	-0.589090	-0.030554
H174	H	1.585183	-0.089090	0.469446
H175	H	0.987400	-0.158974	0.008542
H176	H	1.487400	0.341026	0.508542
H177	H	0.800311	-0.159024	0.195511
H178	H	1.300311	0.340976	0.695511
H179	H	0.895929	0.097298	-0.270960
H180	H	1.395929	0.597298	0.229040
C181	C	0.656213	0.000004	0.251321
C182	C	1.156213	0.500004	0.751321
H183	H	0.615952	-0.000001	0.291837
H184	H	1.115952	0.499999	0.791837
H185	H	0.686636	0.034307	0.254677
H186	H	1.186636	0.534307	0.754677
H187	H	0.686619	-0.034304	0.254684
H188	H	1.186619	0.465696	0.754684
C189	C	0.895697	-0.112597	-0.282214
C190	C	1.395697	0.387403	0.217786
H191	H	0.894867	-0.104918	-0.334885
H192	H	1.394867	0.395082	0.165115
H193	H	0.851781	-0.134632	-0.263427
H194	H	1.351781	0.365368	0.236573
H195	H	0.940024	-0.134626	-0.275120
H196	H	1.440024	0.365374	0.224880
C197	C	0.892058	0.112615	-0.513775
C198	C	1.392058	0.612615	-0.013775
H199	H	0.892904	0.104934	-0.461107
H200	H	1.392904	0.604934	0.038893
H201	H	0.847739	0.134649	-0.520865
H202	H	1.347739	0.634649	-0.020865
H203	H	0.935982	0.134645	-0.532566
H204	H	1.435982	0.634645	-0.032566
H205	H	0.250236	0.000020	0.225099
H206	H	0.750236	0.500020	0.725099
H207	H	0.891833	-0.097280	-0.525039
H208	H	1.391833	0.402720	-0.025039
C209	C	0.694625	0.000008	-0.038337
C210	C	1.194625	0.500008	0.461663
H211	H	0.745983	-0.000001	-0.027617
H212	H	1.245983	0.499999	0.472383
H213	H	0.685457	0.034314	-0.066883
H214	H	1.185457	0.534314	0.433117
H215	H	0.685435	-0.034297	-0.066878
H216	H	1.185435	0.465703	0.433122
H217	H	0.898152	-0.097278	-0.127719
H218	H	1.398152	0.402722	0.372281
H219	H	0.504335	0.000004	0.229148
H220	H	1.004335	0.500004	0.729148
H221	H	0.987404	-0.271295	0.008517
H222	H	1.487404	0.228705	0.508517
C223	C	0.889406	0.112621	-0.679553
C224	C	1.389406	0.612621	-0.179553
H225	H	0.888555	0.104944	-0.732219
H226	H	1.388555	0.604944	-0.232219
H227	H	0.933736	0.134653	-0.672468
H228	H	1.433736	0.634653	-0.172468
H229	H	0.845494	0.134652	-0.660765
H230	H	1.345494	0.634652	-0.160765
H231	H	0.107027	0.000010	0.222817
H232	H	0.607027	0.500010	0.722817
H233	H	0.800372	-0.841001	0.195465
H234	H	1.300372	-0.341001	0.695465
H235	H	0.283421	0.000021	-0.025143
H236	H	0.783421	0.500021	0.474857
C237	C	0.889348	-0.112597	-0.679527
C238	C	1.389348	0.387403	-0.179527
H239	H	0.889884	-0.144535	-0.644710
H240	H	1.389884	0.355465	-0.144710
H241	H	0.932974	-0.114830	-0.716172
H242	H	1.432974	0.385170	-0.216172
H243	H	0.844731	-0.114819	-0.704472
H244	H	1.344731	0.385181	-0.204472
C245	C	0.734022	-0.435012	0.261712
C246	C	1.234022	0.064988	0.761712
H247	H	0.741396	-0.393699	0.254336
H248	H	1.241396	0.106301	0.754336
H249	H	0.742145	-0.445167	0.312215
H250	H	1.242145	0.054833	0.812215
H251	H	0.683527	-0.445168	0.253542
H252	H	1.183527	0.054832	0.753542
C253	C	1.053702	-0.434938	-0.057747
C254	C	1.553702	0.065062	0.442253
H255	H	1.084400	-0.462242	-0.088437
H256	H	1.584400	0.037758	0.411563
H257	H	1.085160	-0.410778	-0.030567
H258	H	1.585160	0.089222	0.469433
H259	H	1.026528	-0.410789	-0.089225
H260	H	1.526528	0.089211	0.410775
H261	H	0.987448	-0.728622	0.008488
H262	H	1.487448	-0.228622	0.508488
C263	C	1.002178	-0.849800	-0.006245
C264	C	1.502178	-0.349800	0.493755
H265	H	0.994787	-0.891112	0.001132
H266	H	1.494787	-0.391112	0.501132
H267	H	1.052675	-0.839650	0.001907
H268	H	1.552675	-0.339650	0.501907
H269	H	0.994042	-0.839649	-0.056750
H270	H	1.494042	-0.339649	0.443250
H271	H	0.800349	-0.728680	0.195464
H272	H	1.300349	-0.228680	0.695464
H273	H	0.748760	-0.556180	0.246988
H274	H	1.248760	-0.056180	0.746988
C275	C	0.785552	-0.280214	0.210192
C276	C	1.285552	0.219786	0.710192
H277	H	0.754833	-0.252915	0.240869
H278	H	1.254833	0.247085	0.740869
H279	H	0.812681	-0.304387	0.241677
H280	H	1.312681	0.195613	0.741677
H281	H	0.754108	-0.304351	0.182959
H282	H	1.254108	0.195649	0.682959
