data_functionalizedCrystal
_audit_creation_method	'MofGen! by Chris Wilmer'
_symmetry_space_group_name_H-M	'P1'
_symmetry_Int_Tables_number	1
_symmetry_cell_setting	triclinic
loop_
_symmetry_equiv_pos_as_xyz
  x,y,z
_cell_length_a	10.540539
_cell_length_b	26.210047
_cell_length_c	10.540539
_cell_angle_alpha	89.993305
_cell_angle_beta	84.525492
_cell_angle_gamma	90.007062
loop_
_atom_site_label
_atom_site_type_symbol
_atom_site_fract_x
_atom_site_fract_y
_atom_site_fract_z
O1	O	1.685898	0.042402	0.178882
O2	O	2.185898	0.542402	0.678882
O3	O	1.316484	0.042408	0.195738
O4	O	1.816484	0.542408	0.695738
O5	O	1.509619	0.042405	0.002604
O6	O	2.009619	0.542405	0.502604
O7	O	1.492763	0.042406	0.372017
O8	O	1.992763	0.542406	0.872017
O9	O	1.509582	-0.042453	0.002634
O10	O	2.009582	0.457547	0.502634
O11	O	1.316447	-0.042450	0.195768
O12	O	1.816447	0.457550	0.695768
O13	O	1.685860	-0.042456	0.178912
O14	O	2.185860	0.457544	0.678912
Cu15	Cu	1.501150	-0.050201	0.187343
Cu16	Cu	2.001150	0.449799	0.687343
Cu17	Cu	1.501194	0.050154	0.187308
Cu18	Cu	2.001194	0.550154	0.687308
O19	O	1.492726	-0.042452	0.372047
O20	O	1.992726	0.457548	0.872047
C21	C	1.269163	-0.000020	0.194489
C22	C	1.769163	0.499980	0.694489
C23	C	1.128215	-0.000017	0.190707
C24	C	1.628215	0.499983	0.690707
N25	N	1.501128	-0.120785	0.187367
N26	N	2.001128	0.379215	0.687367
C27	C	0.944788	-0.000216	0.045790
C28	C	1.444788	0.499784	0.545790
C29	C	1.091406	-0.000020	0.049624
C30	C	1.591406	0.499980	0.549624
C31	C	1.066563	0.048439	0.258585
C32	C	1.566563	0.548439	0.758585
C33	C	0.920019	0.048474	0.253770
C34	C	1.420019	0.548474	0.753770
C35	C	0.919488	-0.048025	0.256675
C36	C	1.419488	0.451975	0.756675
C37	C	1.066470	-0.048660	0.257974
C38	C	1.566470	0.451340	0.757974
C39	C	1.586706	-0.473301	0.101807
C40	C	2.086706	0.026699	0.601807
C41	C	1.586733	-0.686959	0.101790
C42	C	2.086733	-0.186959	0.601790
O43	O	1.659446	-0.714583	0.029048
O44	O	2.159446	-0.214583	0.529048
N45	N	1.501201	-0.713679	0.187280
N46	N	2.001201	-0.213679	0.687280
C47	C	1.415650	-0.686980	0.272775
C48	C	1.915650	-0.186980	0.772775
O49	O	1.342891	-0.714610	0.345480
O50	O	1.842891	-0.214610	0.845480
C51	C	1.415617	-0.473323	0.272785
C52	C	1.915617	0.026677	0.772785
C53	C	1.501164	-0.446606	0.187298
C54	C	2.001164	0.053394	0.687298
C55	C	1.672245	-0.446584	0.016326
C56	C	2.172245	0.053416	0.516326
C57	C	1.672242	-0.393172	0.016336
C58	C	2.172242	0.106828	0.516336
C59	C	1.586699	-0.366478	0.101827
C60	C	2.086699	0.133522	0.601827
C61	C	1.501160	-0.393195	0.187308
C62	C	2.001160	0.106805	0.687308
C63	C	1.330060	-0.446625	0.358273
C64	C	1.830060	0.053375	0.858273
C65	C	1.330057	-0.393208	0.358265
C66	C	1.830057	0.106792	0.858265
C67	C	1.415604	-0.366491	0.272778
C68	C	1.915604	0.133509	0.772778
C69	C	1.415615	-0.313089	0.272808
C70	C	1.915615	0.186911	0.772808
N71	N	1.501148	-0.286369	0.187318
N72	N	2.001148	0.213631	0.687318
C73	C	1.586690	-0.313064	0.101828
C74	C	2.086690	0.186936	0.601828
C75	C	1.415675	-0.799154	0.272765
C76	C	1.915675	-0.299154	0.772765
C77	C	1.415684	-0.852568	0.272764
C78	C	1.915684	-0.352568	0.772764
C79	C	1.586767	-0.852543	0.101777
C80	C	2.086767	-0.352543	0.601777
C81	C	1.586762	-0.799128	0.101785
C82	C	2.086762	-0.299128	0.601785
C83	C	1.501207	-0.772434	0.187275
C84	C	2.001207	-0.272434	0.687275
C85	C	1.586678	-0.200896	0.101855
C86	C	2.086678	0.299104	0.601855
C87	C	1.586670	-0.147479	0.101877
C88	C	2.086670	0.352521	0.601877
C89	C	1.415584	-0.147509	0.272858
C90	C	1.915584	0.352491	0.772858
C91	C	1.415595	-0.200921	0.272842
C92	C	1.915595	0.299079	0.772842
C93	C	1.501147	-0.227613	0.187330
C94	C	2.001147	0.272387	0.687330
O95	O	1.342932	-0.285432	0.345502
O96	O	1.842932	0.214568	0.845502
O97	O	1.659419	-0.285425	0.029114
O98	O	2.159419	0.214575	0.529114
C99	C	1.586709	-0.526712	0.101797
C100	C	2.086709	-0.026712	0.601797
C101	C	1.501170	-0.553429	0.187278
C102	C	2.001170	-0.053429	0.687278
C103	C	1.415628	-0.526734	0.272769
C104	C	1.915628	-0.026734	0.772769
C105	C	1.501179	-0.606843	0.187277
C106	C	2.001179	-0.106843	0.687277
C107	C	1.586721	-0.633538	0.101787
C108	C	2.086721	-0.133538	0.601787
C109	C	1.672254	-0.606818	0.016296
C110	C	2.172254	-0.106818	0.516296
C111	C	1.672251	-0.553407	0.016306
C112	C	2.172251	-0.053407	0.516306
C113	C	1.330095	-0.553454	0.358259
C114	C	1.830095	-0.053454	0.858259
C115	C	1.330106	-0.606865	0.358243
C116	C	1.830106	-0.106865	0.858243
C117	C	1.415648	-0.633560	0.272752
C118	C	1.915648	-0.133560	0.772752
C119	C	1.733182	-0.000026	0.180161
C120	C	2.233182	0.499974	0.680161
C121	C	1.874130	-0.000025	0.183943
C122	C	2.374130	0.499975	0.683943
C123	C	1.508336	-0.000024	-0.044684
C124	C	2.008336	0.499976	0.455316
C125	C	1.504554	-0.000021	-0.185632
C126	C	2.004554	0.499979	0.314368
N127	N	1.501226	0.120737	0.187273
N128	N	2.001226	0.620737	0.687273
C129	C	1.359637	0.000172	-0.369059
C130	C	1.859637	0.500172	0.130941
C131	C	1.363471	-0.000019	-0.222441
C132	C	1.863471	0.499981	0.277559
C133	C	1.572429	-0.048480	-0.247273
C134	C	2.072429	0.451520	0.252727
C135	C	1.567614	-0.048521	-0.393817
C136	C	2.067614	0.451479	0.106183
C137	C	1.570525	0.047979	-0.394370
C138	C	2.070525	0.547979	0.105630
C139	C	1.571825	0.048619	-0.247388
C140	C	2.071825	0.548619	0.252612
C141	C	1.494008	-0.000023	0.419335
C142	C	1.994008	0.499977	0.919335
C143	C	1.497790	-0.000022	0.560283
C144	C	1.997790	0.499978	1.060283
H145	H	1.134005	-0.034755	-0.003786
H146	H	1.634005	0.465245	0.496214
H147	H	1.345940	-0.125766	0.342468
H148	H	1.845940	0.374234	0.842468
H149	H	1.107416	-0.084508	0.208387
H150	H	1.607416	0.415492	0.708387
H151	H	1.741911	-0.628561	-0.053310
H152	H	2.241911	-0.128561	0.446690
H153	H	0.887926	-0.084755	0.211030
H154	H	1.387926	0.415245	0.711030
H155	H	0.891825	0.084696	0.203577
H156	H	1.391825	0.584696	0.703577
H157	H	1.656338	-0.125728	0.032263
H158	H	2.156338	0.374272	0.532263
H159	H	1.522162	0.084468	-0.206542
H160	H	2.022162	0.584468	0.293458
H161	H	1.260384	-0.371476	0.427880
H162	H	1.760384	0.128524	0.927880
H163	H	1.260435	-0.531723	0.427875
H164	H	1.760435	-0.031723	0.927875
H165	H	1.674687	0.051544	-0.223168
H166	H	2.174687	0.551544	0.276832
H167	H	1.346037	-0.874317	0.342389
H168	H	1.846037	-0.374317	0.842389
H169	H	0.916187	-0.034967	-0.009933
H170	H	1.416187	0.465033	0.490067
H171	H	1.741911	-0.531658	-0.053305
H172	H	2.241911	-0.031658	0.446695
H173	H	0.872051	0.050674	0.355235
H174	H	1.372051	0.550674	0.855235
H175	H	1.524880	0.084708	-0.425936
H176	H	2.024880	0.584708	0.074064
H177	H	1.260400	-0.468371	0.427883
H178	H	1.760400	0.031629	0.927883
H179	H	1.310062	0.034719	-0.179850
H180	H	1.810062	0.534719	0.320150
H181	H	1.304117	-0.034382	-0.399254
H182	H	1.804117	0.465618	0.100746
H183	H	1.345947	-0.222674	0.342466
H184	H	1.845947	0.277326	0.842466
H185	H	1.309657	-0.034813	-0.180673
H186	H	1.809657	0.465187	0.319327
H187	H	0.872261	-0.048352	0.358578
H188	H	1.372261	0.451648	0.858578
H189	H	1.133167	0.034776	-0.004188
H190	H	1.633167	0.534776	0.495812
H191	H	1.303921	0.034923	-0.397672
H192	H	1.803921	0.534923	0.102328
H193	H	1.672429	0.048303	-0.441596
H194	H	2.172429	0.548303	0.058404
H195	H	1.088917	0.050242	0.362193
H196	H	1.588917	0.550242	0.862193
H197	H	0.914596	0.034341	-0.009722
H198	H	1.414596	0.534341	0.490278
H199	H	1.109168	0.084501	0.211408
H200	H	1.609168	0.584501	0.711408
H201	H	1.741897	-0.371422	-0.053278
H202	H	2.241897	0.128578	0.446722
H203	H	1.517420	-0.084743	-0.422004
H204	H	2.017420	0.415257	0.077996
H205	H	1.741903	-0.468314	-0.053297
H206	H	2.241903	0.031686	0.446703
H207	H	1.669078	-0.050721	-0.441785
H208	H	2.169078	0.449279	0.058215
H209	H	1.090695	-0.051586	0.360834
H210	H	1.590695	0.448414	0.860834
H211	H	1.676035	-0.050283	-0.224918
H212	H	2.176035	0.449717	0.275082
H213	H	1.656340	-0.222622	0.032222
H214	H	2.156340	0.277378	0.532222
H215	H	1.656421	-0.874287	0.032169
H216	H	2.156421	-0.374287	0.532169
H217	H	1.656421	-0.777378	0.032174
H218	H	2.156421	-0.277378	0.532174
H219	H	1.346003	-0.777423	0.342384
H220	H	1.846003	-0.277423	0.842384
H221	H	1.260446	-0.628615	0.427868
H222	H	1.760446	-0.128615	0.927868
H223	H	1.525249	-0.084540	-0.204660
H224	H	2.025249	0.415460	0.295340
