data_functionalizedCrystal
_audit_creation_method	'MofGen! by Chris Wilmer'
_symmetry_space_group_name_H-M	'P1'
_symmetry_Int_Tables_number	1
_symmetry_cell_setting	triclinic
loop_
_symmetry_equiv_pos_as_xyz
  x,y,z
_cell_length_a	29.839131
_cell_length_b	21.395364
_cell_length_c	21.395355
_cell_angle_alpha	90.025600
_cell_angle_beta	89.979828
_cell_angle_gamma	89.961079
loop_
_atom_site_label
_atom_site_type_symbol
_atom_site_fract_x
_atom_site_fract_y
_atom_site_fract_z
Zn1	Zn	-0.178935	-0.957812	-0.354272
Zn2	Zn	0.071065	-0.707812	-0.104272
Zn3	Zn	0.321065	-0.457812	0.145728
Zn4	Zn	0.571065	-0.207812	0.395728
Zn5	Zn	-0.254051	-0.957695	-0.249491
Zn6	Zn	-0.004051	-0.707695	0.000509
Zn7	Zn	0.245949	-0.457695	0.250509
Zn8	Zn	0.495949	-0.207695	0.500509
Zn9	Zn	-0.178932	-0.853027	-0.249506
Zn10	Zn	0.071068	-0.603027	0.000494
Zn11	Zn	0.321068	-0.353027	0.250494
Zn12	Zn	0.571068	-0.103027	0.500494
Zn13	Zn	-0.254036	-0.852977	-0.354229
Zn14	Zn	-0.004036	-0.602977	-0.104229
Zn15	Zn	0.245964	-0.352977	0.145771
Zn16	Zn	0.495964	-0.102977	0.395771
O17	O	-0.216488	-0.905378	-0.301875
O18	O	0.033512	-0.655378	-0.051875
O19	O	0.283512	-0.405378	0.198125
O20	O	0.533512	-0.155378	0.448125
O21	O	-0.188907	-1.045475	-0.340384
O22	O	0.061093	-0.795475	-0.090384
O23	O	0.311093	-0.545475	0.159616
O24	O	0.561093	-0.295475	0.409616
O25	O	-0.244091	-0.943783	-0.161815
O26	O	0.005909	-0.693783	0.088185
O27	O	0.255909	-0.443783	0.338185
O28	O	0.505909	-0.193783	0.588185
O29	O	-0.116065	-0.866997	-0.263428
O30	O	0.133935	-0.616997	-0.013428
O31	O	0.383935	-0.366997	0.236572
O32	O	0.633935	-0.116997	0.486572
O33	O	-0.244094	-1.045389	-0.263402
O34	O	0.005906	-0.795389	-0.013402
O35	O	0.255906	-0.545389	0.236598
O36	O	0.505906	-0.295389	0.486598
O37	O	-0.116068	-0.943982	-0.340398
O38	O	0.133932	-0.693982	-0.090398
O39	O	0.383932	-0.443982	0.159602
O40	O	0.633932	-0.193982	0.409602
O41	O	-0.188902	-0.866884	-0.161827
O42	O	0.061098	-0.616884	0.088173
O43	O	0.311098	-0.366884	0.338173
O44	O	0.561098	-0.116884	0.588173
O45	O	-0.188887	-0.765343	-0.263387
O46	O	0.061113	-0.515343	-0.013387
O47	O	0.311113	-0.265343	0.236613
O48	O	0.561113	-0.015343	0.486613
O49	O	-0.244069	-0.866911	-0.441913
O50	O	0.005931	-0.616911	-0.191913
O51	O	0.255931	-0.366911	0.058087
O52	O	0.505931	-0.116911	0.308087
O53	O	-0.244066	-0.765306	-0.340326
O54	O	0.005934	-0.515306	-0.090326
O55	O	0.255934	-0.265306	0.159674
O56	O	0.505934	-0.015306	0.409674
O57	O	-0.188893	-0.943934	-0.441944
O58	O	0.061107	-0.693934	-0.191944
O59	O	0.311107	-0.443934	0.058056
O60	O	0.561107	-0.193934	0.308056
O61	O	-0.316916	-0.943734	-0.263361
O62	O	-0.066916	-0.693734	-0.013361
O63	O	0.183084	-0.443734	0.236639
O64	O	0.433084	-0.193734	0.486639
O65	O	-0.316905	-0.866798	-0.340312
O66	O	-0.066905	-0.616798	-0.090312
O67	O	0.183095	-0.366798	0.159688
O68	O	0.433095	-0.116798	0.409688
C69	C	-0.216475	-0.742590	-0.301854
C70	C	0.033525	-0.492590	-0.051854
C71	C	0.283525	-0.242590	0.198146
C72	C	0.533525	0.007410	0.448146
C73	C	-0.216480	-0.672949	-0.301860
C74	C	0.033520	-0.422949	-0.051860
C75	C	0.283520	-0.172949	0.198140
C76	C	0.533520	0.077051	0.448140
C77	C	-0.333211	-0.905265	-0.301844
C78	C	-0.083211	-0.655265	-0.051844
C79	C	0.166789	-0.405265	0.198156
C80	C	0.416789	-0.155265	0.448156
C81	C	-0.383145	-0.905274	-0.301851
C82	C	-0.133145	-0.655274	-0.051851
C83	C	0.116855	-0.405274	0.198149
C84	C	0.366855	-0.155274	0.448149
C85	C	-0.245265	-0.171150	-0.341887
C86	C	0.004735	0.078850	-0.091887
C87	C	0.254735	0.328850	0.158113
C88	C	0.504735	0.578850	0.408113
C89	C	-0.245266	-0.236585	-0.341882
C90	C	0.004734	0.013415	-0.091882
C91	C	0.254734	0.263415	0.158118
C92	C	0.504734	0.513415	0.408118
C93	C	-0.216492	-0.269311	-0.301885
C94	C	0.033508	-0.019311	-0.051885
C95	C	0.283508	0.230689	0.198115
C96	C	0.533508	0.480689	0.448115
C97	C	-0.187723	-0.236595	-0.261879
C98	C	0.062277	0.013405	-0.011879
C99	C	0.312277	0.263405	0.238121
C100	C	0.562277	0.513405	0.488121
C101	C	-0.187726	-0.171161	-0.261882
C102	C	0.062274	0.078839	-0.011882
C103	C	0.312274	0.328839	0.238118
C104	C	0.562274	0.578839	0.488118
C105	C	-0.176006	-0.373010	-0.297037
C106	C	0.073994	-0.123010	-0.047037
C107	C	0.323994	0.126990	0.202963
C108	C	0.573994	0.376990	0.452963
C109	C	-0.176002	-0.438443	-0.297039
C110	C	0.073998	-0.188443	-0.047039
C111	C	0.323998	0.061557	0.202961
C112	C	0.573998	0.311557	0.452961
C113	C	-0.216482	-0.471132	-0.301874
C114	C	0.033518	-0.221132	-0.051874
C115	C	0.283518	0.028868	0.198126
C116	C	0.533518	0.278868	0.448126
C117	C	-0.256967	-0.438379	-0.306720
C118	C	-0.006967	-0.188379	-0.056720
C119	C	0.243033	0.061621	0.193280
C120	C	0.493033	0.311621	0.443280
C121	C	-0.256970	-0.372945	-0.306723
C122	C	-0.006970	-0.122945	-0.056723
C123	C	0.243030	0.127055	0.193277
C124	C	0.493030	0.377055	0.443277
C125	C	-0.216485	-0.340263	-0.301878
C126	C	0.033515	-0.090263	-0.051878
C127	C	0.283515	0.159737	0.198122
C128	C	0.533515	0.409737	0.448122
C129	C	-0.245252	-0.574792	-0.341868
C130	C	0.004748	-0.324792	-0.091868
C131	C	0.254748	-0.074792	0.158132
C132	C	0.504748	0.175208	0.408132
C133	C	-0.245253	-0.640228	-0.341858
C134	C	0.004747	-0.390228	-0.091858
C135	C	0.254747	-0.140228	0.158142
C136	C	0.504747	0.109772	0.408142
C137	C	-0.187707	-0.640237	-0.261859
C138	C	0.062293	-0.390237	-0.011859
C139	C	0.312293	-0.140237	0.238141
C140	C	0.562293	0.109763	0.488141
C141	C	-0.187709	-0.574802	-0.261866
C142	C	0.062291	-0.324802	-0.011866
C143	C	0.312291	-0.074802	0.238134
C144	C	0.562291	0.175198	0.488134
C145	C	-0.216481	-0.542083	-0.301874
C146	C	0.033519	-0.292083	-0.051874
C147	C	0.283519	-0.042083	0.198126
C148	C	0.533519	0.207917	0.448126
C149	C	-0.692782	-0.945511	-0.261865
C150	C	-0.442782	-0.695511	-0.011865
C151	C	-0.192782	-0.445511	0.238135
C152	C	0.057218	-0.195511	0.488135
C153	C	-0.880455	-0.945589	-0.261889
C154	C	-0.630455	-0.695589	-0.011889
C155	C	-0.380455	-0.445589	0.238111
C156	C	-0.130455	-0.195589	0.488111
O157	O	-0.904714	-0.979711	-0.227868
O158	O	-0.654714	-0.729711	0.022132
O159	O	-0.404714	-0.479711	0.272132
O160	O	-0.154714	-0.229711	0.522132
N161	N	-0.903930	-0.905508	-0.301922
N162	N	-0.653930	-0.655508	-0.051922
N163	N	-0.403930	-0.405508	0.198078
N164	N	-0.153930	-0.155508	0.448078
C165	C	-0.880485	-0.865408	-0.341954
C166	C	-0.630485	-0.615408	-0.091954
C167	C	-0.380485	-0.365408	0.158046
C168	C	-0.130485	-0.115408	0.408046
O169	O	-0.904759	-0.831323	-0.376010
O170	O	-0.654759	-0.581323	-0.126010
O171	O	-0.404759	-0.331323	0.123990
O172	O	-0.154759	-0.081323	0.373990
C173	C	-0.692813	-0.865334	-0.341933
C174	C	-0.442813	-0.615334	-0.091933
C175	C	-0.192813	-0.365334	0.158067
C176	C	0.057187	-0.115334	0.408067
C177	C	-0.669340	-0.905413	-0.301893
C178	C	-0.419340	-0.655413	-0.051893
C179	C	-0.169340	-0.405413	0.198107
C180	C	0.080660	-0.155413	0.448107
C181	C	-0.669309	-0.985588	-0.221829
C182	C	-0.419309	-0.735588	0.028171
C183	C	-0.169309	-0.485588	0.278171
C184	C	0.080691	-0.235588	0.528171
C185	C	-0.622393	-0.985566	-0.221821
C186	C	-0.372393	-0.735566	0.028179
C187	C	-0.122393	-0.485566	0.278179
C188	C	0.127607	-0.235566	0.528179
C189	C	-0.598951	-0.945467	-0.261849
C190	C	-0.348951	-0.695467	-0.011849
C191	C	-0.098951	-0.445467	0.238151
C192	C	0.151049	-0.195467	0.488151
C193	C	-0.622424	-0.905391	-0.301885
C194	C	-0.372424	-0.655391	-0.051885
C195	C	-0.122424	-0.405391	0.198115
C196	C	0.127576	-0.155391	0.448115
C197	C	-0.669368	-0.825237	-0.381968
C198	C	-0.419368	-0.575237	-0.131968
C199	C	-0.169368	-0.325237	0.118032
C200	C	0.080632	-0.075237	0.368032
C201	C	-0.622447	-0.825224	-0.381960
C202	C	-0.372447	-0.575224	-0.131960
C203	C	-0.122447	-0.325224	0.118040
C204	C	0.127553	-0.075224	0.368040
C205	C	-0.598974	-0.865303	-0.341920
C206	C	-0.348974	-0.615303	-0.091920
C207	C	-0.098974	-0.365303	0.158080
C208	C	0.151026	-0.115303	0.408080
C209	C	-0.552066	-0.865270	-0.341905
C210	C	-0.302066	-0.615270	-0.091905
C211	C	-0.052066	-0.365270	0.158095
C212	C	0.197934	-0.115270	0.408095
N213	N	-0.528591	-0.905351	-0.301872
N214	N	-0.278591	-0.655351	-0.051872
N215	N	-0.028591	-0.405351	0.198128
N216	N	0.221409	-0.155351	0.448128
C217	C	-0.552033	-0.945450	-0.261844
C218	C	-0.302033	-0.695450	-0.011844
C219	C	-0.052033	-0.445450	0.238156
C220	C	0.197967	-0.195450	0.488156
C221	C	-0.979016	-0.865448	-0.341962
C222	C	-0.729016	-0.615448	-0.091962
C223	C	-0.479016	-0.365448	0.158038
C224	C	-0.229016	-0.115448	0.408038
C225	C	-1.025933	-0.865466	-0.341967
C226	C	-0.775933	-0.615466	-0.091967
C227	C	-0.525933	-0.365466	0.158033
C228	C	-0.275933	-0.115466	0.408033
C229	C	-1.025900	-0.945648	-0.261902
C230	C	-0.775900	-0.695648	-0.011902
C231	C	-0.525900	-0.445648	0.238098
C232	C	-0.275900	-0.195648	0.488098
C233	C	-0.978981	-0.945627	-0.261895
C234	C	-0.728981	-0.695627	-0.011895
C235	C	-0.478981	-0.445627	0.238105
C236	C	-0.228981	-0.195627	0.488105
C237	C	-0.955540	-0.905529	-0.301929
C238	C	-0.705540	-0.655529	-0.051929
C239	C	-0.455540	-0.405529	0.198071
C240	C	-0.205540	-0.155529	0.448071
C241	C	-0.453507	-0.945400	-0.261830
C242	C	-0.203507	-0.695400	-0.011830
C243	C	0.046493	-0.445400	0.238170
C244	C	0.296493	-0.195400	0.488170
C245	C	-0.406588	-0.945372	-0.261823
C246	C	-0.156588	-0.695372	-0.011823
C247	C	0.093412	-0.445372	0.238177
C248	C	0.343412	-0.195372	0.488177
C249	C	-0.406625	-0.865193	-0.341890
C250	C	-0.156625	-0.615193	-0.091890
C251	C	0.093375	-0.365193	0.158110
C252	C	0.343375	-0.115193	0.408110
C253	C	-0.453541	-0.865218	-0.341894
C254	C	-0.203541	-0.615218	-0.091894
C255	C	0.046459	-0.365218	0.158106
C256	C	0.296459	-0.115218	0.408106
C257	C	-0.476981	-0.905326	-0.301862
C258	C	-0.226981	-0.655326	-0.051862
C259	C	0.023019	-0.405326	0.198138
C260	C	0.273019	-0.155326	0.448138
O261	O	-0.527779	-0.831171	-0.375913
O262	O	-0.277779	-0.581171	-0.125913
O263	O	-0.027779	-0.331171	0.124087
O264	O	0.222221	-0.081171	0.374087
O265	O	-0.527751	-0.979539	-0.227804
O266	O	-0.277751	-0.729539	0.022196
O267	O	-0.027751	-0.479539	0.272196
O268	O	0.222249	-0.229539	0.522196
C269	C	-0.739697	-0.945534	-0.261873
C270	C	-0.489697	-0.695534	-0.011873
C271	C	-0.239697	-0.445534	0.238127
C272	C	0.010303	-0.195534	0.488127
C273	C	-0.763171	-0.905457	-0.301909
C274	C	-0.513171	-0.655457	-0.051909
C275	C	-0.263171	-0.405457	0.198091
C276	C	-0.013171	-0.155457	0.448091
C277	C	-0.739728	-0.865359	-0.341937
C278	C	-0.489728	-0.615359	-0.091937
C279	C	-0.239728	-0.365359	0.158063
C280	C	0.010272	-0.115359	0.408063
C281	C	-0.810088	-0.905475	-0.301914
C282	C	-0.560088	-0.655475	-0.051914
C283	C	-0.310088	-0.405475	0.198086
C284	C	-0.060088	-0.155475	0.448086
C285	C	-0.833531	-0.945573	-0.261886
C286	C	-0.583531	-0.695573	-0.011886
C287	C	-0.333531	-0.445573	0.238114
C288	C	-0.083531	-0.195573	0.488114
C289	C	-0.810055	-0.985654	-0.221853
C290	C	-0.560055	-0.735654	0.028147
C291	C	-0.310055	-0.485654	0.278147
C292	C	-0.060055	-0.235654	0.528147
C293	C	-0.763140	-0.985632	-0.221845
C294	C	-0.513140	-0.735632	0.028155
C295	C	-0.263140	-0.485632	0.278155
C296	C	-0.013140	-0.235632	0.528155
C297	C	-0.763204	-0.825278	-0.381970
C298	C	-0.513204	-0.575278	-0.131970
C299	C	-0.263204	-0.325278	0.118030
C300	C	-0.013204	-0.075278	0.368030
C301	C	-0.810119	-0.825303	-0.381974
C302	C	-0.560119	-0.575303	-0.131974
C303	C	-0.310119	-0.325303	0.118026
C304	C	-0.060119	-0.075303	0.368026
C305	C	-0.833562	-0.865401	-0.341946
C306	C	-0.583562	-0.615401	-0.091946
C307	C	-0.333562	-0.365401	0.158054
C308	C	-0.083562	-0.115401	0.408054
C309	C	-0.099310	-0.905509	-0.301920
C310	C	0.150690	-0.655509	-0.051920
C311	C	0.400690	-0.405509	0.198080
C312	C	0.650690	-0.155509	0.448080
C313	C	-0.049376	-0.905564	-0.301939
C314	C	0.200624	-0.655564	-0.051939
C315	C	0.450624	-0.405564	0.198061
C316	C	0.700624	-0.155564	0.448061
C317	C	-0.216479	-0.905430	-0.465298
C318	C	0.033521	-0.655430	-0.215298
C319	C	0.283521	-0.405430	0.034702
C320	C	0.533521	-0.155430	0.284702
C321	C	-0.216475	-0.905452	-0.534939
C322	C	0.033525	-0.655452	-0.284939
C323	C	0.283525	-0.405452	-0.034939
C324	C	0.533525	-0.155452	0.215061
C325	C	-0.216500	-0.068801	-0.301892
C326	C	0.033500	0.181199	-0.051892
C327	C	0.283500	0.431199	0.198108
C328	C	0.533500	0.681199	0.448108
C329	C	-0.216498	-0.138442	-0.301889
C330	C	0.033502	0.111558	-0.051889
C331	C	0.283502	0.361558	0.198111
C332	C	0.533502	0.611558	0.448111
C333	C	-0.187744	-0.945556	-0.567670
C334	C	0.062256	-0.695556	-0.317670
C335	C	0.312256	-0.445556	-0.067670
C336	C	0.562256	-0.195556	0.182330
C337	C	-0.187725	-0.945555	-0.633105
C338	C	0.062275	-0.695555	-0.383105
C339	C	0.312275	-0.445555	-0.133105
C340	C	0.562275	-0.195555	0.116895
C341	C	-0.216445	-0.905457	-0.665808
C342	C	0.033555	-0.655457	-0.415808
C343	C	0.283555	-0.405457	-0.165808
C344	C	0.533555	-0.155457	0.084192
C345	C	-0.245178	-0.865346	-0.633070
C346	C	0.004822	-0.615346	-0.383070
C347	C	0.254822	-0.365346	-0.133070
C348	C	0.504822	-0.115346	0.116930
C349	C	-0.245194	-0.865343	-0.567635
C350	C	0.004806	-0.615343	-0.317635
C351	C	0.254806	-0.365343	-0.067635
C352	C	0.504806	-0.115343	0.182365
C353	C	-0.256896	-0.900471	-0.769472
C354	C	-0.006896	-0.650471	-0.519472
C355	C	0.243104	-0.400471	-0.269472
C356	C	0.493104	-0.150471	-0.019472
C357	C	-0.256881	-0.900477	-0.834905
C358	C	-0.006881	-0.650477	-0.584905
C359	C	0.243119	-0.400477	-0.334905
C360	C	0.493119	-0.150477	-0.084905
C361	C	-0.216397	-0.905461	-0.867629
C362	C	0.033603	-0.655461	-0.617629
C363	C	0.283603	-0.405461	-0.367629
C364	C	0.533603	-0.155461	-0.117629
C365	C	-0.175927	-0.910451	-0.834912
C366	C	0.074073	-0.660451	-0.584912
C367	C	0.324073	-0.410451	-0.334912
C368	C	0.574073	-0.160451	-0.084912
C369	C	-0.175942	-0.910448	-0.769477
C370	C	0.074058	-0.660448	-0.519477
C371	C	0.324058	-0.410448	-0.269477
C372	C	0.574058	-0.160448	-0.019477
C373	C	-0.216431	-0.905455	-0.736760
C374	C	0.033569	-0.655455	-0.486760
C375	C	0.283569	-0.405455	-0.236760
C376	C	0.533569	-0.155455	0.013240
C377	C	-0.187643	-0.945566	-0.971311
C378	C	0.062357	-0.695566	-0.721311
C379	C	0.312357	-0.445566	-0.471311
C380	C	0.562357	-0.195566	-0.221311
C381	C	-0.187623	-0.945561	-1.036748
C382	C	0.062377	-0.695561	-0.786748
C383	C	0.312377	-0.445561	-0.536748
C384	C	0.562377	-0.195561	-0.286748
C385	C	-0.245080	-0.865354	-1.036711
C386	C	0.004920	-0.615354	-0.786711
C387	C	0.254920	-0.365354	-0.536711
C388	C	0.504920	-0.115354	-0.286711
C389	C	-0.245096	-0.865356	-0.971276
C390	C	0.004904	-0.615356	-0.721276
C391	C	0.254904	-0.365356	-0.471276
C392	C	0.504904	-0.115356	-0.221276
C393	C	-0.216378	-0.905465	-0.938580
C394	C	0.033622	-0.655465	-0.688580
C395	C	0.283622	-0.405465	-0.438580
C396	C	0.533622	-0.155465	-0.188580
C397	C	-0.216465	-0.905362	-0.139087
C398	C	0.033535	-0.655362	0.110913
C399	C	0.283535	-0.405362	0.360913
C400	C	0.533535	-0.155362	0.610913
C401	C	-0.216342	-0.905462	-0.069446
C402	C	0.033658	-0.655462	0.180554
C403	C	0.283658	-0.405462	0.430554
C404	C	0.533658	-0.155462	0.680554
H405	H	-0.268695	-0.144515	-0.374462
H406	H	-0.018695	0.105485	-0.124462
H407	H	0.231305	0.355485	0.125538
H408	H	0.481305	0.605485	0.375538
H409	H	-0.472653	-0.832584	-0.374500
H410	H	-0.222653	-0.582584	-0.124500
H411	H	0.027347	-0.332584	0.125500
H412	H	0.277347	-0.082584	0.375500
F413	F	-0.275743	-0.822669	-0.667875
F414	F	-0.025743	-0.572669	-0.417875
F415	F	0.224257	-0.322669	-0.167875
F416	F	0.474257	-0.072669	0.082125
H417	H	-0.829150	-1.018302	-0.189259
H418	H	-0.579150	-0.768302	0.060741
H419	H	-0.329150	-0.518302	0.310741
H420	H	-0.079150	-0.268302	0.560741
F421	F	-0.835096	-0.782640	-0.424591
F422	F	-0.585096	-0.532640	-0.174591
F423	F	-0.335096	-0.282640	0.075409
F424	F	-0.085096	-0.032640	0.325409
H425	H	-0.164280	-0.666881	-0.229291
H426	H	0.085720	-0.416881	0.020709
H427	H	0.335720	-0.166881	0.270709
H428	H	0.585720	0.083119	0.520709
H429	H	-0.268691	-0.263221	-0.374455
H430	H	-0.018691	-0.013221	-0.124455
H431	H	0.231309	0.236779	0.125545
H432	H	0.481309	0.486779	0.375545
H433	H	-0.164359	-0.978215	-0.541053
H434	H	0.085641	-0.728215	-0.291053
H435	H	0.335641	-0.478215	-0.041053
H436	H	0.585641	-0.228215	0.208947
F437	F	-0.275678	-0.822674	-0.936441
F438	F	-0.025678	-0.572674	-0.686441
F439	F	0.224322	-0.322674	-0.436441
F440	F	0.474322	-0.072674	-0.186441
H441	H	-0.143040	-0.346401	-0.293089
H442	H	0.106960	-0.096401	-0.043089
H443	H	0.356960	0.153599	0.206911
H444	H	0.606960	0.403599	0.456911
H445	H	-0.289935	-0.346280	-0.310667
H446	H	-0.039935	-0.096280	-0.060667
H447	H	0.210065	0.153720	0.189333
H448	H	0.460065	0.403720	0.439333
H449	H	-0.744031	-1.018268	-0.189241
H450	H	-0.494031	-0.768268	0.060759
H451	H	-0.244031	-0.518268	0.310759
H452	H	0.005969	-0.268268	0.560759
F453	F	-0.299988	-0.895180	-0.734650
F454	F	-0.049988	-0.645180	-0.484650
F455	F	0.200012	-0.395180	-0.234650
F456	F	0.450012	-0.145180	0.015350
H457	H	-0.289835	-0.896418	-0.861538
H458	H	-0.039835	-0.646418	-0.611538
H459	H	0.210165	-0.396418	-0.361538
H460	H	0.460165	-0.146418	-0.111538
F461	F	-0.157101	-0.271425	-0.219310
F462	F	0.092899	-0.021425	0.030690
F463	F	0.342899	0.228575	0.280690
F464	F	0.592899	0.478575	0.530690
F465	F	-0.157088	-0.539990	-0.219298
F466	F	0.092912	-0.289990	0.030702
F467	F	0.342912	-0.039990	0.280702
F468	F	0.592912	0.210010	0.530702
H469	H	-0.688472	-0.792598	-0.414569
H470	H	-0.438472	-0.542598	-0.164569
H471	H	-0.188472	-0.292598	0.085431
H472	H	0.061528	-0.042598	0.335431
F473	F	-1.050857	-0.988322	-0.219300
F474	F	-0.800857	-0.738322	0.030700
F475	F	-0.550857	-0.488322	0.280700
F476	F	-0.300857	-0.238322	0.530700
F477	F	-0.132837	-0.915757	-0.869733
F478	F	0.117163	-0.665757	-0.619733
F479	F	0.367163	-0.415757	-0.369733
F480	F	0.617163	-0.165757	-0.119733
H481	H	-1.045041	-0.832824	-0.374565
H482	H	-0.795041	-0.582824	-0.124565
H483	H	-0.545041	-0.332824	0.125435
H484	H	-0.295041	-0.082824	0.375435
H485	H	-0.744121	-0.792626	-0.414566
H486	H	-0.494121	-0.542626	-0.164566
H487	H	-0.244121	-0.292626	0.085434
H488	H	0.005879	-0.042626	0.335434
H489	H	-0.143036	-0.465105	-0.293100
H490	H	0.106964	-0.215105	-0.043100
H491	H	0.356964	0.034895	0.206900
H492	H	0.606964	0.284895	0.456900
F493	F	-0.300053	-0.473163	-0.311865
F494	F	-0.050053	-0.223163	-0.061865
F495	F	0.199947	0.026837	0.188135
F496	F	0.449947	0.276837	0.438135
F497	F	-0.381668	-0.822521	-0.384490
F498	F	-0.131668	-0.572521	-0.134490
F499	F	0.118332	-0.322521	0.115510
F500	F	0.368332	-0.072521	0.365510
F501	F	-0.694251	-1.028271	-0.179223
F502	F	-0.444251	-0.778271	0.070777
F503	F	-0.194251	-0.528271	0.320777
F504	F	0.055749	-0.278271	0.570777
F505	F	-0.597417	-1.028231	-0.179212
F506	F	-0.347417	-0.778231	0.070788
F507	F	-0.097417	-0.528231	0.320788
F508	F	0.152583	-0.278231	0.570788
F509	F	-0.275875	-0.539968	-0.384445
F510	F	-0.025875	-0.289968	-0.134445
F511	F	0.224125	-0.039968	0.115555
F512	F	0.474125	0.210032	0.365555
F513	F	-0.954004	-0.988284	-0.219280
F514	F	-0.704004	-0.738284	0.030720
F515	F	-0.454004	-0.488284	0.280720
F516	F	-0.204004	-0.238284	0.530720
H517	H	-0.268589	-0.832683	-0.540987
H518	H	-0.018589	-0.582683	-0.290987
H519	H	0.231411	-0.332683	-0.040987
H520	H	0.481411	-0.082683	0.209013
H521	H	-0.268682	-0.666858	-0.374427
H522	H	-0.018682	-0.416858	-0.124427
H523	H	0.231318	-0.166858	0.125573
H524	H	0.481318	0.083142	0.375573
H525	H	-0.164326	-0.978211	-0.659759
H526	H	0.085674	-0.728211	-0.409759
H527	H	0.335674	-0.478211	-0.159759
H528	H	0.585674	-0.228211	0.090241
F529	F	-0.157107	-0.136350	-0.219309
F530	F	0.092893	0.113650	0.030691
F531	F	0.342893	0.363650	0.280691
F532	F	0.592893	0.613650	0.530691
F533	F	-0.381608	-0.988031	-0.219205
F534	F	-0.131608	-0.738031	0.030795
F535	F	0.118392	-0.488031	0.280795
F536	F	0.368392	-0.238031	0.530795
H537	H	-0.472587	-0.978061	-0.229233
H538	H	-0.222587	-0.728061	0.020767
H539	H	0.027413	-0.478061	0.270767
H540	H	0.277413	-0.228061	0.520767
H541	H	-0.164256	-0.978222	-0.944689
H542	H	0.085744	-0.728222	-0.694689
H543	H	0.335744	-0.478222	-0.444689
H544	H	0.585744	-0.228222	-0.194689
F545	F	-0.954073	-0.822767	-0.384574
F546	F	-0.704073	-0.572767	-0.134574
F547	F	-0.454073	-0.322767	0.115426
F548	F	-0.204073	-0.072767	0.365426
F549	F	-0.275643	-0.822674	-1.071512
F550	F	-0.025643	-0.572674	-0.821512
F551	F	0.224357	-0.322674	-0.571512
F552	F	0.474357	-0.072674	-0.321512
H553	H	-0.603363	-0.792572	-0.414563
H554	H	-0.353363	-0.542572	-0.164563
H555	H	-0.103363	-0.292572	0.085437
H556	H	0.146637	-0.042572	0.335437
F557	F	-0.132872	-0.915756	-0.734660
F558	F	0.117128	-0.665756	-0.484660
F559	F	0.367128	-0.415756	-0.234660
F560	F	0.617128	-0.165756	0.015340
F561	F	-0.157046	-0.988254	-1.071582
F562	F	0.092954	-0.738254	-0.821582
F563	F	0.342954	-0.488254	-0.571582
F564	F	0.592954	-0.238254	-0.321582
