data_functionalizedCrystal
_audit_creation_method	'MofGen! by Chris Wilmer'
_symmetry_space_group_name_H-M	'P1'
_symmetry_Int_Tables_number	1
_symmetry_cell_setting	triclinic
loop_
_symmetry_equiv_pos_as_xyz
  x,y,z
_cell_length_a	23.532355
_cell_length_b	23.532407
_cell_length_c	17.666332
_cell_angle_alpha	90.009886
_cell_angle_beta	90.003432
_cell_angle_gamma	82.838088
loop_
_atom_site_label
_atom_site_type_symbol
_atom_site_fract_x
_atom_site_fract_y
_atom_site_fract_z
O1	O	0.755283	0.068994	0.062853
O2	O	1.088616	0.402327	0.396186
O3	O	1.421949	0.735661	0.729520
O4	O	0.589415	0.079028	0.062878
O5	O	0.922748	0.412361	0.396211
O6	O	1.256082	0.745695	0.729545
O7	O	0.677351	-0.008922	0.062851
O8	O	1.010684	0.324412	0.396184
O9	O	1.344017	0.657745	0.729518
O10	O	0.667347	0.156944	0.062880
O11	O	1.000680	0.490277	0.396214
O12	O	1.334014	0.823610	0.729547
O13	O	0.677335	-0.008924	-0.063046
O14	O	1.010668	0.324409	0.270288
O15	O	1.344002	0.657743	0.603621
O16	O	0.589400	0.079026	-0.063019
O17	O	0.922733	0.412359	0.270315
O18	O	1.256066	0.745692	0.603648
O19	O	0.755267	0.068992	-0.063044
O20	O	1.088601	0.402325	0.270290
O21	O	1.421934	0.735658	0.603623
Cu22	Cu	0.672332	0.074008	-0.074527
Cu23	Cu	1.005665	0.407342	0.258807
Cu24	Cu	1.338999	0.740675	0.592140
Cu25	Cu	0.672350	0.074011	0.074361
Cu26	Cu	1.005684	0.407345	0.407694
Cu27	Cu	1.339017	0.740678	0.741028
O28	O	0.667332	0.156941	-0.063017
O29	O	1.000665	0.490275	0.270317
O30	O	1.333998	0.823608	0.603650
C31	C	0.568191	0.078776	-0.000067
C32	C	0.901524	0.412109	0.333266
C33	C	1.234857	0.745443	0.666599
C34	C	0.504972	0.078022	-0.000058
C35	C	0.838305	0.411355	0.333275
C36	C	1.171639	0.744689	0.666608
C37	C	0.677088	-0.030139	-0.000099
C38	C	1.010421	0.303195	0.333234
C39	C	1.343755	0.636528	0.666567
C40	C	0.676322	-0.093356	-0.000105
C41	C	1.009656	0.239978	0.333228
C42	C	1.342989	0.573311	0.666562
C43	C	0.112950	0.073283	-0.068717
C44	C	0.446283	0.406616	0.264616
C45	C	0.779617	0.739949	0.597950
C46	C	0.053550	0.072565	-0.068720
C47	C	0.386884	0.405898	0.264613
C48	C	0.720217	0.739232	0.597947
O49	O	0.022825	0.072174	-0.127083
O50	O	0.356158	0.405507	0.206250
O51	O	0.689491	0.738840	0.539583
N52	N	0.023850	0.072211	-0.000094
N53	N	0.357184	0.405544	0.333239
N54	N	0.690517	0.738877	0.666573
C55	C	0.053554	0.072568	0.068539
C56	C	0.386887	0.405901	0.401873
C57	C	0.720220	0.739235	0.735206
O58	O	0.022837	0.072200	0.126911
O59	O	0.356170	0.405533	0.460244
O60	O	0.689504	0.738867	0.793578
C61	C	0.112952	0.073281	0.068542
C62	C	0.446286	0.406615	0.401875
C63	C	0.779619	0.739948	0.735208
C64	C	0.142649	0.073641	-0.000089
C65	C	0.475982	0.406975	0.333245
C66	C	0.809315	0.740308	0.666578
C67	C	0.142646	0.073642	-0.137342
C68	C	0.475980	0.406975	0.195991
C69	C	0.809313	0.740309	0.529325
C70	C	0.202041	0.074361	-0.137339
C71	C	0.535375	0.407694	0.195995
C72	C	0.868708	0.741027	0.529328
C73	C	0.231740	0.074719	-0.068710
C74	C	0.565074	0.408053	0.264623
C75	C	0.898407	0.741386	0.597956
C76	C	0.202044	0.074360	-0.000085
C77	C	0.535377	0.407693	0.333248
C78	C	0.868711	0.741027	0.666581
C79	C	0.142655	0.073634	0.137174
C80	C	0.475989	0.406968	0.470508
C81	C	0.809322	0.740301	0.803841
C82	C	0.202058	0.074347	0.137171
C83	C	0.535391	0.407681	0.470504
C84	C	0.868725	0.741014	0.803837
C85	C	0.231754	0.074708	0.068540
C86	C	0.565088	0.408041	0.401874
C87	C	0.898421	0.741374	0.735207
C88	C	0.291138	0.075437	0.068546
C89	C	0.624471	0.408771	0.401879
C90	C	0.957805	0.742104	0.735213
N91	N	0.320838	0.075792	-0.000080
N92	N	0.654171	0.409125	0.333253
N93	N	0.987505	0.742458	0.666587
C94	C	0.291139	0.075433	-0.068708
C95	C	0.624472	0.408766	0.264625
C96	C	0.957806	0.742099	0.597959
C97	C	-0.071188	0.071069	0.068529
C98	C	0.262145	0.404402	0.401863
C99	C	0.595479	0.737736	0.735196
C100	C	-0.130586	0.070360	0.068528
C101	C	0.202747	0.403693	0.401861
C102	C	0.536080	0.737026	0.735195
C103	C	-0.130585	0.070356	-0.068732
C104	C	0.202748	0.403689	0.264602
C105	C	0.536082	0.737022	0.597935
C106	C	-0.071186	0.071069	-0.068730
C107	C	0.262147	0.404402	0.264604
C108	C	0.595480	0.737736	0.597937
C109	C	-0.041488	0.071423	-0.000097
C110	C	0.291846	0.404757	0.333237
C111	C	0.625179	0.738090	0.666570
C112	C	0.415873	0.076942	-0.068696
C113	C	0.749207	0.410275	0.264637
C114	C	1.082540	0.743609	0.597971
C115	C	0.475273	0.077663	-0.068686
C116	C	0.808607	0.410996	0.264647
C117	C	1.141940	0.744330	0.597980
C118	C	0.475267	0.077664	0.068573
C119	C	0.808601	0.410997	0.401906
C120	C	1.141934	0.744331	0.735240
C121	C	0.415872	0.076946	0.068564
C122	C	0.749205	0.410279	0.401897
C123	C	1.082539	0.743613	0.735231
C124	C	0.386177	0.076583	-0.000077
C125	C	0.719510	0.409917	0.333257
C126	C	1.052843	0.743250	0.666590
O127	O	0.321902	0.075827	0.126880
O128	O	0.655235	0.409160	0.460213
O129	O	0.988568	0.742494	0.793546
O130	O	0.321864	0.075793	-0.127070
O131	O	0.655197	0.409127	0.206264
O132	O	0.988530	0.742460	0.539597
C133	C	0.723557	-0.492468	-0.000071
C134	C	1.056890	-0.159134	0.333263
C135	C	1.390224	0.174199	0.666596
C136	C	0.722845	-0.551868	-0.000065
C137	C	1.056179	-0.218534	0.333268
C138	C	1.389512	0.114799	0.666602
O139	O	0.766632	-0.588620	-0.000044
O140	O	1.099966	-0.255287	0.333290
O141	O	1.433299	0.078046	0.666623
N142	N	0.670568	-0.574484	-0.000057
N143	N	1.003901	-0.241151	0.333276
N144	N	1.337234	0.092183	0.666609
C145	C	0.618998	-0.537697	-0.000048
C146	C	0.952332	-0.204364	0.333285
C147	C	1.285665	0.128970	0.666618
O148	O	0.574467	-0.562388	-0.000041
O149	O	0.907800	-0.229055	0.333293
O150	O	1.241133	0.104278	0.666626
C151	C	0.619710	-0.478298	-0.000049
C152	C	0.953044	-0.144965	0.333285
C153	C	1.286377	0.188369	0.666618
C154	C	0.671991	-0.455685	-0.000064
C155	C	1.005325	-0.122352	0.333270
C156	C	1.338658	0.210982	0.666603
C157	C	0.775834	-0.469854	-0.000085
C158	C	1.109167	-0.136521	0.333248
C159	C	1.442500	0.196813	0.666582
C160	C	0.776545	-0.410458	-0.000092
C161	C	1.109878	-0.077125	0.333241
C162	C	1.443212	0.256209	0.666574
C163	C	0.724979	-0.373676	-0.000085
C164	C	1.058313	-0.040342	0.333248
C165	C	1.391646	0.292991	0.666581
C166	C	0.672703	-0.396289	-0.000071
C167	C	1.006036	-0.062956	0.333262
C168	C	1.339369	0.270378	0.666596
C169	C	0.568141	-0.441512	-0.000034
C170	C	0.901475	-0.108179	0.333299
C171	C	1.234808	0.225155	0.666633
C172	C	0.568858	-0.382110	-0.000034
C173	C	0.902191	-0.048776	0.333299
C174	C	1.235525	0.284557	0.666633
C175	C	0.621139	-0.359497	-0.000049
C176	C	0.954472	-0.026163	0.333284
C177	C	1.287806	0.307170	0.666618
C178	C	0.621848	-0.300110	-0.000071
C179	C	0.955182	0.033223	0.333262
C180	C	1.288515	0.366556	0.666595
N181	N	0.674126	-0.277494	-0.000079
N182	N	1.007459	0.055839	0.333255
N183	N	1.340793	0.389173	0.666588
C184	C	0.725691	-0.314277	-0.000086
C185	C	1.059025	0.019057	0.333248
C186	C	1.392358	0.352390	0.666581
C187	C	0.617507	-0.662439	-0.000046
C188	C	0.950840	-0.329106	0.333287
C189	C	1.284173	0.004228	0.666621
C190	C	0.616794	-0.721837	-0.000051
C191	C	0.950127	-0.388504	0.333282
C192	C	1.283461	-0.055170	0.666616
C193	C	0.720642	-0.736004	-0.000066
C194	C	1.053975	-0.402670	0.333267
C195	C	1.387308	-0.069337	0.666601
C196	C	0.721354	-0.676605	-0.000067
C197	C	1.054687	-0.343271	0.333267
C198	C	1.388020	-0.009938	0.666600
C199	C	0.669784	-0.639823	-0.000053
C200	C	1.003118	-0.306489	0.333280
C201	C	1.336451	0.026844	0.666613
C202	C	0.727181	-0.189540	-0.000102
C203	C	1.060514	0.143793	0.333232
C204	C	1.393848	0.477127	0.666565
C205	C	0.727888	-0.130138	-0.000112
C206	C	1.061221	0.203195	0.333221
C207	C	1.394554	0.536528	0.666555
C208	C	0.624041	-0.115977	-0.000093
C209	C	0.957374	0.217357	0.333241
C210	C	1.290707	0.550690	0.666574
C211	C	0.623334	-0.175373	-0.000086
C212	C	0.956667	0.157960	0.333247
C213	C	1.290000	0.491293	0.666580
C214	C	0.674909	-0.212154	-0.000088
C215	C	1.008242	0.121179	0.333245
C216	C	1.341575	0.454512	0.666578
O217	O	0.578084	-0.263323	-0.000090
O218	O	0.911418	0.070010	0.333244
O219	O	1.244751	0.403344	0.666577
O220	O	0.770216	-0.289577	-0.000083
O221	O	1.103549	0.043756	0.333250
O222	O	1.436882	0.377090	0.666583
C223	C	0.776491	0.069244	-0.000097
C224	C	1.109825	0.402577	0.333237
C225	C	1.443158	0.735910	0.666570
C226	C	0.839710	0.069998	-0.000101
C227	C	1.173043	0.403331	0.333233
C228	C	1.506377	0.736664	0.666566
C229	C	0.667594	0.178158	-0.000065
C230	C	1.000927	0.511492	0.333269
C231	C	1.334261	0.844825	0.666602
C232	C	0.668360	0.241375	-0.000054
C233	C	1.001693	0.574709	0.333279
C234	C	1.335027	0.908042	0.666613
N235	N	0.672323	0.074006	-0.179246
N236	N	1.005657	0.407339	0.154087
N237	N	1.338990	0.740673	0.487421
C238	C	0.706664	0.108369	-0.218848
C239	C	1.039997	0.441702	0.114485
C240	C	1.373331	0.775036	0.447818
C241	C	0.706673	0.108367	-0.298096
C242	C	1.040006	0.441701	0.035237
C243	C	1.373340	0.775034	0.368571
C244	C	0.672331	0.074009	-0.337738
C245	C	1.005664	0.407343	-0.004405
C246	C	1.338998	0.740676	0.328929
C247	C	0.637988	0.039639	-0.298126
C248	C	0.971322	0.372973	0.035207
C249	C	1.304655	0.706306	0.368541
C250	C	0.637985	0.039638	-0.218880
C251	C	0.971318	0.372971	0.114453
C252	C	1.304651	0.706304	0.447787
N253	N	0.622455	0.072745	-0.462171
N254	N	0.955789	0.406079	-0.128837
N255	N	1.289122	0.739412	0.204496
N256	N	0.622460	0.072750	-0.537451
N257	N	0.955794	0.406083	-0.204118
N258	N	1.289127	0.739417	0.129216
C259	C	0.672341	0.074011	-0.576502
C260	C	1.005675	0.407344	-0.243169
C261	C	1.339008	0.740678	0.090165
N262	N	0.722217	0.075278	-0.537429
N263	N	1.055551	0.408612	-0.204095
N264	N	1.388884	0.741945	0.129238
N265	N	0.722211	0.075277	-0.462141
N266	N	1.055545	0.408610	-0.128808
N267	N	1.388878	0.741943	0.204525
C268	C	0.672332	0.074007	-0.423667
C269	C	1.005665	0.407340	-0.090334
C270	C	1.338998	0.740674	0.242999
C271	C	0.706695	0.108374	-0.702034
C272	C	1.040028	0.441707	-0.368701
C273	C	1.373361	0.775041	-0.035367
C274	C	0.706705	0.108368	-0.781283
C275	C	1.040038	0.441702	-0.447950
C276	C	1.373372	0.775035	-0.114616
C277	C	0.638015	0.039644	-0.781311
C278	C	0.971348	0.372977	-0.447978
C279	C	1.304682	0.706310	-0.114645
C280	C	0.638010	0.039646	-0.702064
C281	C	0.971343	0.372979	-0.368731
C282	C	1.304677	0.706313	-0.035397
C283	C	0.672349	0.074014	-0.662430
C284	C	1.005682	0.407348	-0.329097
C285	C	1.339016	0.740681	0.004237
N286	N	0.672363	0.074009	0.179080
N287	N	1.005697	0.407343	0.512414
N288	N	1.339030	0.740676	0.845747
H289	H	0.499449	0.077958	-0.124576
H290	H	0.832782	0.411292	0.208757
H291	H	1.166116	0.744625	0.542091
H292	H	-0.047012	0.071363	-0.124615
H293	H	0.286322	0.404696	0.208719
H294	H	0.619655	0.738030	0.542052
H295	H	-0.154777	0.070062	-0.124613
H296	H	0.178557	0.403396	0.208721
H297	H	0.511890	0.736729	0.542054
H298	H	0.391702	0.076652	-0.124590
H299	H	0.725035	0.409985	0.208744
H300	H	1.058368	0.743319	0.542077
H301	H	0.526863	-0.352164	-0.000022
H302	H	0.860196	-0.018830	0.333311
H303	H	1.193530	0.314503	0.666645
H304	H	0.580762	-0.193785	-0.000095
H305	H	0.914096	0.139548	0.333238
H306	H	1.247429	0.472881	0.666572
H307	H	0.391691	0.076662	0.124448
H308	H	0.725024	0.409995	0.457782
H309	H	1.058358	0.743329	0.791115
H310	H	0.610028	0.011664	-0.330408
H311	H	0.943361	0.344997	0.002926
H312	H	1.276694	0.678331	0.336259
H313	H	0.817827	-0.499797	-0.000088
H314	H	1.151160	-0.166464	0.333246
H315	H	1.484494	0.166869	0.666579
H316	H	0.610044	0.011666	-0.669819
H317	H	0.943377	0.345000	-0.336486
H318	H	1.276711	0.678333	-0.003153
H319	H	0.610019	0.011654	-0.186636
H320	H	0.943353	0.344988	0.146697
H321	H	1.276686	0.678321	0.480031
H322	H	0.525569	-0.459912	-0.000017
H323	H	0.858902	-0.126579	0.333316
H324	H	1.192235	0.206754	0.666649
H325	H	0.582057	-0.086018	-0.000090
H326	H	0.915391	0.247315	0.333244
H327	H	1.248724	0.580649	0.666577
H328	H	0.734628	0.136352	-0.186583
H329	H	1.067961	0.469685	0.146750
H330	H	1.401294	0.803019	0.480083
H331	H	0.734656	0.136358	-0.669762
H332	H	1.067989	0.469692	-0.336429
H333	H	1.401322	0.803025	-0.003096
H334	H	0.734673	0.136349	-0.813526
H335	H	1.068007	0.469683	-0.480193
H336	H	1.401340	0.803016	-0.146859
H337	H	0.610054	0.011668	-0.813587
H338	H	0.943387	0.345001	-0.480254
H339	H	1.276721	0.678335	-0.146921
H340	H	-0.154761	0.070076	0.124414
H341	H	0.178572	0.403409	0.457747
H342	H	0.511905	0.736742	0.791081
H343	H	0.226215	0.074650	-0.193225
H344	H	0.559549	0.407984	0.140109
H345	H	0.892882	0.741317	0.473442
H346	H	-0.047012	0.071363	0.124422
H347	H	0.286321	0.404696	0.457756
H348	H	0.619655	0.738029	0.791089
H349	H	0.118472	0.073349	-0.193230
H350	H	0.451805	0.406682	0.140103
H351	H	0.785139	0.740015	0.473436
H352	H	0.762629	-0.765963	-0.000069
H353	H	1.095962	-0.432630	0.333264
H354	H	1.429296	-0.099296	0.666598
H355	H	0.118487	0.073341	0.193061
H356	H	0.451820	0.406674	0.526394
H357	H	0.785153	0.740007	0.859728
H358	H	0.226235	0.074636	0.193061
H359	H	0.559569	0.407970	0.526395
H360	H	0.892902	0.741303	0.859728
H361	H	0.499459	0.077959	0.124448
H362	H	0.832792	0.411292	0.457782
H363	H	1.166125	0.744625	0.791115
H364	H	0.770463	-0.111731	-0.000126
H365	H	1.103796	0.221603	0.333207
H366	H	1.437130	0.554936	0.666540
H367	H	0.574222	-0.740243	-0.000052
H368	H	0.907555	-0.406909	0.333282
H369	H	1.240888	-0.073576	0.666615
H370	H	0.769178	-0.219481	-0.000100
H371	H	1.102512	0.113853	0.333233
H372	H	1.435845	0.447186	0.666567
H373	H	0.575510	-0.632494	-0.000042
H374	H	0.908844	-0.299160	0.333292
H375	H	1.242177	0.034173	0.666625
H376	H	0.819117	-0.392053	-0.000101
H377	H	1.152451	-0.058719	0.333232
H378	H	1.485784	0.274614	0.666565
H379	H	0.763925	-0.658198	-0.000078
H380	H	1.097259	-0.324865	0.333255
H381	H	1.430592	0.008469	0.666588
H382	H	0.734637	0.136351	-0.330347
H383	H	1.067971	0.469685	0.002987
H384	H	1.401304	0.803018	0.336320
