data_functionalizedCrystal
_audit_creation_method	'MofGen! by Chris Wilmer'
_symmetry_space_group_name_H-M	'P1'
_symmetry_Int_Tables_number	1
_symmetry_cell_setting	triclinic
loop_
_symmetry_equiv_pos_as_xyz
  x,y,z
_cell_length_a	19.188930
_cell_length_b	10.654550
_cell_length_c	9.730223
_cell_angle_alpha	90.003749
_cell_angle_beta	89.993564
_cell_angle_gamma	96.185159
loop_
_atom_site_label
_atom_site_type_symbol
_atom_site_fract_x
_atom_site_fract_y
_atom_site_fract_z
O1	O	0.098059	-1.665759	-0.114420
O2	O	0.107401	-1.300083	-0.114400
O3	O	0.001144	-1.493474	-0.114384
O4	O	0.204317	-1.472368	-0.114436
O5	O	0.001146	-1.493471	0.114196
O6	O	0.107404	-1.300081	0.114180
O7	O	0.098061	-1.665757	0.114160
Zn8	Zn	0.102733	-1.482918	0.150462
Zn9	Zn	0.102730	-1.482921	-0.150702
O10	O	0.204319	-1.472366	0.114144
C11	C	0.106717	-1.253298	-0.000107
C12	C	0.104664	-1.113898	-0.000098
C13	C	-0.024871	-1.492789	-0.000090
C14	C	-0.102389	-1.490737	-0.000078
C15	C	0.098746	-1.712541	-0.000136
C16	C	0.100798	-1.851941	-0.000154
C17	C	-0.146570	-1.604213	-0.000078
C18	C	-0.219407	-1.602285	-0.000099
C19	C	-0.248058	-1.486876	-0.000094
C20	C	-0.203867	-1.373386	-0.000102
C21	C	-0.131032	-1.375316	-0.000094
N22	N	-0.356639	-1.398658	0.077701
N23	N	-0.425830	-1.396832	0.077696
C24	C	-0.467505	-1.481052	-0.000121
N25	N	-0.437377	-1.567186	-0.077917
N26	N	-0.368180	-1.569016	-0.077906
C27	C	-0.327034	-1.484770	-0.000104
C28	C	-0.590665	-1.592445	-0.000147
C29	C	-0.663502	-1.590513	-0.000177
C30	C	-0.647960	-1.361610	-0.000166
C31	C	-0.575125	-1.363545	-0.000149
C32	C	-0.546481	-1.478966	-0.000133
C33	C	0.230334	-1.473051	-0.000153
C34	C	0.307852	-1.475102	-0.000174
N35	N	0.102735	-1.482925	0.355998
C36	C	0.167227	-1.033089	-0.000134
C37	C	0.165295	-0.902109	-0.000157
C38	C	0.038231	-0.932761	-0.000114
C39	C	0.040164	-1.063738	-0.000081
C40	C	0.231728	-1.083249	-0.000151
C41	C	0.294296	-1.002438	-0.000189
C42	C	0.292363	-0.871458	-0.000212
C43	C	0.227863	-0.821289	-0.000198
N44	N	0.102722	-1.482924	-0.356238
C45	C	0.055700	-1.568581	0.427932
C46	C	0.055692	-1.568577	0.571815
C47	C	0.149759	-1.397260	0.571818
C48	C	0.149764	-1.397258	0.427938
C49	C	0.008672	-1.654248	0.355992
C50	C	-0.038367	-1.739911	0.427925
C51	C	-0.038375	-1.739908	0.571808
C52	C	0.008655	-1.654242	0.643758
H53	H	-0.123254	-1.698197	-0.000069
C54	C	-0.679468	-1.234662	-0.000165
H55	H	-0.729174	-1.249762	-0.000163
H56	H	-0.664331	-1.187955	-0.079871
H57	H	-0.664348	-1.187954	0.079561
H58	H	0.226294	-0.714635	-0.000195
H59	H	-0.076661	-1.809651	0.369336
C60	C	0.365242	-1.057613	-0.000200
H61	H	0.402226	-0.990723	-0.000211
H62	H	0.368636	-1.108088	-0.079902
H63	H	0.368639	-1.108051	0.079530
H64	H	-0.255386	-1.694693	-0.000105
H65	H	-0.227199	-1.279418	-0.000101
H66	H	-0.076680	-1.809649	0.630375
H67	H	-0.095058	-1.282908	-0.000094
C68	C	-0.526522	-1.238721	-0.000126
H69	H	-0.554016	-1.169709	-0.000114
H70	H	-0.497777	-1.234713	-0.079830
H71	H	-0.497797	-1.234721	0.079601
C72	C	-0.028651	-1.152639	-0.000042
H73	H	-0.018261	-1.237827	-0.000009
H74	H	-0.055077	-1.137499	-0.079747
H75	H	-0.055067	-1.137448	0.079684
H76	H	0.233309	-1.189898	-0.000138
H77	H	0.343309	-0.805665	-0.000229
C78	C	-0.032713	-0.877577	-0.000118
H79	H	-0.024903	-0.787997	-0.000157
H80	H	-0.058503	-0.905312	0.079603
H81	H	-0.058497	-0.905362	-0.079829
H82	H	0.008676	-1.654261	0.238835
H83	H	0.008639	-1.654238	0.760917
C84	C	0.201493	-1.303048	0.650960
H85	H	0.194758	-1.315326	0.746952
H86	H	0.193481	-1.219281	0.627393
H87	H	0.248163	-1.316435	0.627372
C88	C	0.201505	-1.303046	0.348806
H89	H	0.229520	-1.252039	0.412256
H90	H	0.176120	-1.250917	0.292682
H91	H	0.230805	-1.348066	0.292675
H92	H	-0.567342	-1.686428	-0.000140
H93	H	-0.699475	-1.682922	-0.000185
