data_functionalizedCrystal
_audit_creation_method	'MofGen! by Chris Wilmer'
_symmetry_space_group_name_H-M	'P1'
_symmetry_Int_Tables_number	1
_symmetry_cell_setting	triclinic
loop_
_symmetry_equiv_pos_as_xyz
  x,y,z
_cell_length_a	10.723024
_cell_length_b	14.421503
_cell_length_c	10.723024
_cell_angle_alpha	89.997356
_cell_angle_beta	84.467869
_cell_angle_gamma	89.992654
loop_
_atom_site_label
_atom_site_type_symbol
_atom_site_fract_x
_atom_site_fract_y
_atom_site_fract_z
O1	O	1.657169	0.077103	0.175018
O2	O	2.157169	0.577103	0.675018
O3	O	1.294016	0.077106	0.191771
O4	O	1.794016	0.577106	0.691771
O5	O	1.483969	0.077101	0.001818
O6	O	1.983969	0.577101	0.501818
O7	O	1.467216	0.077108	0.364971
O8	O	1.967216	0.577108	0.864971
O9	O	1.483992	-0.077122	0.001831
O10	O	1.983992	0.422878	0.501831
O11	O	1.294040	-0.077117	0.191784
O12	O	1.794040	0.422883	0.691784
O13	O	1.657192	-0.077120	0.175031
O14	O	2.157192	0.422880	0.675031
Cu15	Cu	1.475618	-0.091201	0.183408
Cu16	Cu	1.975618	0.408799	0.683408
Cu17	Cu	1.475590	0.091186	0.183393
Cu18	Cu	1.975590	0.591186	0.683393
O19	O	1.467239	-0.077115	0.364983
O20	O	1.967239	0.422885	0.864983
C21	C	1.247528	-0.000005	0.190558
C22	C	1.747528	0.499995	0.690558
C23	C	1.108974	-0.000004	0.186911
C24	C	1.608974	0.499996	0.686911
N25	N	1.475646	-0.219482	0.183418
N26	N	1.975646	0.280518	0.683418
C27	C	0.917217	-0.000005	0.073603
C28	C	1.417217	0.499995	0.573603
C29	C	1.060420	-0.000006	0.077371
C30	C	1.560420	0.499994	0.577371
C31	C	1.563499	-0.469113	0.095565
C32	C	2.063499	0.030887	0.595565
C33	C	1.450531	-0.530910	0.070364
C34	C	1.950531	-0.030910	0.570364
C35	C	1.475618	-0.408643	0.183403
C36	C	1.975618	0.091357	0.683403
C37	C	1.588559	-0.530941	0.208531
C38	C	2.088559	-0.030941	0.708531
C39	C	1.475602	-0.591365	0.183385
C40	C	1.975602	-0.091365	0.683385
C41	C	1.362593	-0.469079	0.158146
C42	C	1.862593	0.030921	0.658146
C43	C	1.500695	-0.469105	0.296362
C44	C	2.000695	0.030895	0.796362
C45	C	1.387646	-0.530873	0.271208
C46	C	1.887646	-0.030873	0.771208
C47	C	1.475630	-0.303382	0.183410
C48	C	1.975630	0.196618	0.683410
C49	C	1.475577	-0.696624	0.183379
C50	C	1.975577	-0.196624	0.683379
C51	C	1.703680	-0.000007	0.176243
C52	C	2.203680	0.499993	0.676243
C53	C	1.842234	-0.000002	0.179891
C54	C	2.342234	0.499998	0.679891
C55	C	1.482762	-0.000010	-0.044675
C56	C	1.982762	0.499990	0.455325
C57	C	1.479114	-0.000006	-0.183229
C58	C	1.979114	0.499994	0.316771
N59	N	1.475571	0.219468	0.183374
N60	N	1.975571	0.719468	0.683374
C61	C	1.585401	-0.000006	-0.258212
C62	C	2.085401	0.499994	0.241788
C63	C	1.581634	-0.000002	-0.401415
C64	C	2.081634	0.499998	0.098585
C65	C	1.468447	-0.000003	0.411477
C66	C	1.968447	0.499997	0.911477
C67	C	1.472094	0.000000	0.550031
C68	C	1.972094	0.500000	1.050031
H69	H	0.875395	-0.000020	-0.020182
H70	H	1.375395	0.499980	0.479818
H71	H	1.267050	-0.442020	0.136776
H72	H	1.767050	0.057980	0.636776
H73	H	1.381099	-0.000007	-0.385544
H74	H	1.881099	0.499993	0.114456
F75	F	1.356524	0.000003	-0.237887
F76	F	1.856524	0.500003	0.262113
H77	H	1.124853	-0.000002	-0.013619
H78	H	1.624853	0.499998	0.486381
H79	H	1.044549	0.000002	0.277906
H80	H	1.544549	0.500002	0.777906
F81	F	1.528487	-0.433588	0.421193
F82	F	2.028487	0.066412	0.921193
F83	F	0.896892	-0.000007	0.302481
F84	F	1.396892	0.499993	0.802481
F85	F	1.700570	-0.000009	-0.485629
F86	F	2.200570	0.499991	0.014371
H87	H	1.637738	-0.441994	0.021240
H88	H	2.137738	0.058006	0.521240
F89	F	1.422777	-0.566388	-0.054507
F90	F	1.922777	-0.066388	0.445493
H91	H	1.313239	-0.557820	0.345487
H92	H	1.813239	-0.057820	0.845487
F93	F	1.713408	-0.566463	0.236319
F94	F	2.213408	-0.066463	0.736319
F95	F	1.707991	-0.000001	-0.203554
F96	F	2.207991	0.499999	0.296446
