data_functionalizedCrystal
_audit_creation_method	'MofGen! by Chris Wilmer'
_symmetry_space_group_name_H-M	'P1'
_symmetry_Int_Tables_number	1
_symmetry_cell_setting	triclinic
loop_
_symmetry_equiv_pos_as_xyz
  x,y,z
_cell_length_a	12.759400
_cell_length_b	12.759401
_cell_length_c	16.959447
_cell_angle_alpha	90.016368
_cell_angle_beta	90.024021
_cell_angle_gamma	90.014696
loop_
_atom_site_label
_atom_site_type_symbol
_atom_site_fract_x
_atom_site_fract_y
_atom_site_fract_z
Zn1	Zn	-0.418282	1.606224	0.446900
Zn2	Zn	-0.593978	1.606127	0.314728
Zn3	Zn	-0.418314	1.430535	0.314740
Zn4	Zn	-0.593920	1.430514	0.446869
O5	O	-0.506123	1.518350	0.380809
O6	O	-0.441600	1.753232	0.429375
O7	O	-0.570713	1.582803	0.204118
O8	O	-0.271288	1.453889	0.332290
O9	O	-0.570683	1.753161	0.332269
O10	O	-0.271265	1.582967	0.429387
O11	O	-0.441653	1.453796	0.204128
O12	O	-0.441597	1.283511	0.332259
O13	O	-0.570584	1.453854	0.557484
O14	O	-0.570614	1.283496	0.429334
O15	O	-0.441543	1.582947	0.557507
O16	O	-0.740991	1.582783	0.332238
O17	O	-0.740948	1.453761	0.429322
C18	C	-0.779091	1.518288	0.380793
C19	C	-0.895867	1.518357	0.380812
C20	C	-0.506103	1.245383	0.380795
C21	C	-0.506120	1.128606	0.380808
C22	C	-0.950717	1.585614	0.330317
C23	C	-1.060441	1.585678	0.330341
C24	C	-1.060456	1.451221	0.431359
C25	C	-0.950734	1.451162	0.431338
C26	C	-0.895850	1.652808	0.279791
C27	C	-0.950699	1.720069	0.229291
C28	C	-1.060423	1.720134	0.229315
C29	C	-1.115298	1.652937	0.279840
C30	C	-0.573418	0.964039	0.431289
C31	C	-0.573405	1.073763	0.431276
C32	C	-0.438852	1.073720	0.330344
C33	C	-0.438872	0.963998	0.330353
C34	C	-0.640700	0.909201	0.481766
C35	C	-0.707970	0.964080	0.532229
C36	C	-0.707956	1.073804	0.532216
C37	C	-0.640673	1.128649	0.481740
C38	C	-0.232090	1.518441	0.380843
C39	C	-0.115313	1.518480	0.380857
C40	C	-0.506053	1.518409	0.586978
C41	C	-0.506024	1.518434	0.674834
C42	C	-0.506144	1.792383	0.380824
C43	C	-0.506153	1.909160	0.380830
C44	C	-0.506117	1.518352	0.175443
C45	C	-0.505851	1.518530	0.087587
C46	C	-0.573196	1.451234	0.716098
C47	C	-0.438817	1.585651	0.716124
C48	C	-0.438782	1.585673	0.798670
C49	C	-0.505955	1.518473	0.839934
C50	C	-0.573161	1.451252	0.798651
C51	C	-0.371569	1.652886	0.839959
C52	C	-0.371531	1.652909	0.922510
C53	C	-0.438710	1.585714	0.963775
C54	C	-0.505920	1.518491	0.922487
C55	C	-0.573092	1.451291	0.963751
C56	C	-0.640309	1.384073	0.922465
C57	C	-0.640340	1.384057	0.839917
C58	C	-0.438679	1.585730	1.046323
C59	C	-0.573058	1.451309	1.046305
H60	H	-0.906015	1.774785	0.188160
H61	H	-0.640716	0.819859	0.481784
H62	H	-0.762755	0.919418	0.573320
H63	H	-0.627925	1.396509	0.682479
C64	C	-1.234428	1.653234	0.279876
C65	C	-1.270628	1.753271	0.300096
C66	C	-1.380361	1.753585	0.300125
H67	H	-1.259386	1.603661	0.317191
H68	H	-1.259353	1.635178	0.228853
H69	H	-1.245714	1.771315	0.351111
H70	H	-1.245699	1.802862	0.262788
H71	H	-1.405286	1.735529	0.249102
H72	H	-1.405308	1.704008	0.337440
H73	H	-1.404936	1.821461	0.313837
H74	H	-1.105144	1.396512	0.472493
C75	C	-0.780948	1.133578	0.586916
C76	C	-0.766555	1.241406	0.576092
C77	C	-0.833784	1.296500	0.626465
H78	H	-0.765726	1.115753	0.640077
H79	H	-0.851546	1.115643	0.575255
H80	H	-0.695974	1.259334	0.587757
H81	H	-0.781785	1.259263	0.522941
H82	H	-0.904382	1.278565	0.614805
H83	H	-0.818556	1.278666	0.679623
H84	H	-0.824035	1.369667	0.619123
H85	H	-1.105079	1.774908	0.188201
H86	H	-0.640673	1.217994	0.481729
C87	C	-0.365839	1.133452	0.275636
C88	C	-0.380198	1.241288	0.286444
C89	C	-0.312943	1.296344	0.236070
H90	H	-0.381057	1.115571	0.222476
H91	H	-0.295249	1.115542	0.287306
H92	H	-0.450772	1.259191	0.274769
H93	H	-0.364972	1.259201	0.339593
H94	H	-0.242353	1.278434	0.247740
H95	H	-0.328167	1.278455	0.182913
H96	H	-0.322669	1.369516	0.243401
H97	H	-0.316878	1.707592	0.806356
C98	C	-0.365724	0.904596	0.275542
C99	C	-0.306772	0.976102	0.231354
C100	C	-0.239371	0.921419	0.180857
H101	H	-0.405748	0.861768	0.240985
H102	H	-0.319952	0.861835	0.305824
H103	H	-0.352538	1.018845	0.201073
H104	H	-0.266726	1.018932	0.265889
H105	H	-0.193598	0.878658	0.211140
H106	H	-0.279403	0.878594	0.146306
H107	H	-0.199357	0.969928	0.150875
H108	H	-0.906076	1.396397	0.472456
C109	C	-0.646031	1.378232	1.090960
C110	C	-0.704880	1.319349	1.037133
C111	C	-0.772103	1.252011	1.078240
H112	H	-0.691885	1.418298	1.123168
H113	H	-0.605851	1.332412	1.123141
H114	H	-0.745057	1.365163	1.004965
H115	H	-0.659053	1.279262	1.004923
H116	H	-0.731922	1.206192	1.110421
H117	H	-0.817950	1.292086	1.110447
H118	H	-0.812032	1.212045	1.041725
C119	C	-0.366013	1.658576	0.671184
C120	C	-0.380449	1.644193	0.590055
C121	C	-0.313413	1.711372	0.548629
H122	H	-0.295370	1.643303	0.684618
H123	H	-0.381408	1.729186	0.684673
H124	H	-0.365047	1.573600	0.576571
H125	H	-0.451078	1.659475	0.576597
H126	H	-0.328808	1.781982	0.562118
H127	H	-0.242774	1.696093	0.562069
H128	H	-0.323205	1.701630	0.493578
H129	H	-0.694995	1.329353	0.956073
C130	C	-0.713444	1.311059	0.795234
C131	C	-0.772297	1.252242	0.849036
C132	C	-0.839668	1.185006	0.807901
H133	H	-0.673403	1.265186	0.763020
H134	H	-0.759281	1.351229	0.763056
H135	H	-0.726466	1.212075	0.881201
H136	H	-0.812360	1.298087	0.881251
H137	H	-0.885505	1.225175	0.775722
H138	H	-0.799619	1.139140	0.775688
H139	H	-0.879615	1.145097	0.844399
C140	C	-0.298525	1.726009	0.967188
C141	C	-0.239725	1.784872	0.913381
C142	C	-0.172474	1.852235	0.954511
H143	H	-0.252641	1.685961	0.999397
H144	H	-0.338683	1.771840	0.999370
H145	H	-0.199570	1.739047	0.881212
H146	H	-0.285581	1.824941	0.881170
H147	H	-0.212633	1.898066	0.986693
H148	H	-0.126598	1.812179	0.986719
H149	H	-0.132578	1.892188	0.918010
H150	H	-0.806507	1.652761	0.279763
H151	H	-0.383944	1.640450	1.079934
