data_functionalizedCrystal
_audit_creation_method	'MofGen! by Chris Wilmer'
_symmetry_space_group_name_H-M	'P1'
_symmetry_Int_Tables_number	1
_symmetry_cell_setting	triclinic
loop_
_symmetry_equiv_pos_as_xyz
  x,y,z
_cell_length_a	9.065218
_cell_length_b	9.565339
_cell_length_c	9.065218
_cell_angle_alpha	90.002079
_cell_angle_beta	94.984115
_cell_angle_gamma	90.003684
loop_
_atom_site_label
_atom_site_type_symbol
_atom_site_fract_x
_atom_site_fract_y
_atom_site_fract_z
O1	O	1.960401	0.116257	-0.216346
O2	O	1.531116	0.116259	-0.234093
O3	O	1.754631	0.116255	-0.010577
O4	O	1.736885	0.116261	-0.439862
O5	O	1.754614	-0.116265	-0.010591
O6	O	1.531098	-0.116261	-0.234107
O7	O	1.960383	-0.116263	-0.216360
Zn8	Zn	1.745738	-0.153180	-0.225236
Zn9	Zn	1.745761	0.153176	-0.225217
O10	O	1.736867	-0.116259	-0.439876
C11	C	1.476120	-0.000001	-0.232394
C12	C	1.312277	-0.000000	-0.227294
N13	N	1.745732	-0.362259	-0.225247
C14	C	1.642332	-0.453460	-0.328581
C15	C	1.776053	-0.546639	-0.358994
C16	C	1.612069	-0.546635	-0.194846
C17	C	1.879522	-0.453386	-0.255728
C18	C	1.715449	-0.453374	-0.091521
C19	C	1.849266	-0.546511	-0.121879
C20	C	2.015378	0.000000	-0.218059
C21	C	2.179221	0.000009	-0.223158
C22	C	1.752917	-0.000003	0.044403
C23	C	1.747817	0.000004	0.208245
N24	N	1.745778	0.362255	-0.225194
C25	C	1.738582	0.000002	-0.494855
C26	C	1.743681	0.000004	-0.658698
H27	H	1.554971	-0.412604	-0.416049
H28	H	1.801698	-0.587605	-0.472061
O29	O	2.014318	-0.404710	-0.286869
C30	C	1.998146	-0.322740	-0.416528
H31	H	1.891947	-0.353744	-0.485348
H32	H	2.096959	-0.340637	-0.483886
H33	H	1.992456	-0.207560	-0.385196
O34	O	1.953909	-0.594895	-0.017755
C35	C	2.094588	-0.547093	-0.050320
H36	H	2.092008	-0.521096	-0.173242
H37	H	2.180467	-0.632115	-0.021753
H38	H	2.125046	-0.449419	0.017700
O39	O	1.684550	-0.404516	0.043267
C40	C	1.543449	-0.451973	0.074876
H41	H	1.474868	-0.478186	-0.032972
H42	H	1.485402	-0.366659	0.135913
H43	H	1.555979	-0.549445	0.147246
H44	H	1.499013	-0.587599	-0.169156
