data_functionalizedCrystal
_audit_creation_method	'MofGen! by Chris Wilmer'
_symmetry_space_group_name_H-M	'P1'
_symmetry_Int_Tables_number	1
_symmetry_cell_setting	triclinic
loop_
_symmetry_equiv_pos_as_xyz
  x,y,z
_cell_length_a	19.805407
_cell_length_b	16.625545
_cell_length_c	19.805399
_cell_angle_alpha	89.976761
_cell_angle_beta	90.017803
_cell_angle_gamma	89.975733
loop_
_atom_site_label
_atom_site_type_symbol
_atom_site_fract_x
_atom_site_fract_y
_atom_site_fract_z
Zn1	Zn	1.034733	0.321078	0.382708
Zn2	Zn	1.534733	0.821078	0.882708
Zn3	Zn	1.034647	0.455915	0.269528
Zn4	Zn	1.534647	0.955915	0.769528
Zn5	Zn	0.921548	0.321094	0.269536
Zn6	Zn	1.421548	0.821094	0.769536
Zn7	Zn	0.921510	0.455866	0.382679
Zn8	Zn	1.421510	0.955866	0.882679
O9	O	0.978109	0.388488	0.326113
O10	O	1.478109	0.888488	0.826113
O11	O	1.129438	0.338978	0.367704
O12	O	1.629438	0.838978	0.867704
O13	O	1.019624	0.438058	0.174813
O14	O	1.519624	0.938058	0.674813
O15	O	0.936614	0.208259	0.284564
O16	O	1.436614	0.708259	0.784564
O17	O	1.129375	0.438043	0.284551
O18	O	1.629375	0.938043	0.784551
O19	O	1.019771	0.208248	0.367711
O20	O	1.519771	0.708248	0.867711
O21	O	0.936530	0.339006	0.174819
O22	O	1.436530	0.839006	0.674819
O23	O	0.826826	0.338958	0.284536
O24	O	1.326826	0.838958	0.784536
O25	O	0.936550	0.437959	0.477399
O26	O	1.436550	0.937959	0.977399
O27	O	0.826799	0.437974	0.367661
O28	O	1.326799	0.937974	0.867661
O29	O	1.019734	0.338931	0.477421
O30	O	1.519734	0.838931	0.977421
O31	O	1.019587	0.568741	0.284522
O32	O	1.519587	1.068741	0.784522
O33	O	0.936466	0.568705	0.367653
O34	O	1.436466	1.068705	0.867653
C35	C	0.802253	0.388463	0.326096
C36	C	1.302253	0.888463	0.826096
C37	C	0.727021	0.388472	0.326105
C38	C	1.227021	0.888472	0.826105
C39	C	0.691711	0.336980	0.369469
C40	C	1.191711	0.836980	0.869469
C41	C	0.621023	0.336984	0.369471
C42	C	1.121023	0.836984	0.869471
C43	C	0.585646	0.388485	0.326114
C44	C	1.085646	0.888485	0.826114
C45	C	0.620961	0.439979	0.282745
C46	C	1.120961	0.939979	0.782745
C47	C	0.691649	0.439970	0.282740
C48	C	1.191649	0.939970	0.782740
C49	C	0.335888	0.440015	0.282766
C50	C	0.835888	0.940015	0.782766
C51	C	0.265196	0.440022	0.282776
C52	C	0.765196	0.940022	0.782776
C53	C	0.265262	0.337030	0.369498
C54	C	0.765262	0.837030	0.869498
C55	C	0.335949	0.337021	0.369492
C56	C	0.835949	0.837021	0.869492
C57	C	0.371259	0.388511	0.326122
C58	C	0.871259	0.888511	0.826122
C59	C	0.447907	0.388505	0.326119
C60	C	0.947907	0.888505	0.826119
C61	C	0.508999	0.388496	0.326120
C62	C	1.008999	0.888496	0.826120
C63	C	0.978032	0.597979	0.326099
C64	C	1.478032	1.097979	0.826099
C65	C	0.978060	0.687600	0.326115
C66	C	1.478060	1.187600	0.826115
C67	C	0.978085	0.760383	0.326131
C68	C	1.478085	1.260383	0.826131
C69	C	0.978123	0.851691	0.326149
C70	C	1.478123	1.351691	0.826149
C71	C	0.978156	0.924468	0.326160
C72	C	1.478156	1.424468	0.826160
C73	C	0.978193	1.015782	0.326177
C74	C	1.478193	1.515782	0.826177
C75	C	1.154652	0.388514	0.326130
C76	C	1.654652	0.888514	0.826130
C77	C	1.229884	0.388525	0.326137
C78	C	1.729884	0.888525	0.826137
C79	C	0.978147	0.388438	0.502656
C80	C	1.478147	0.888438	1.002656
C81	C	0.978164	0.388416	0.577888
C82	C	1.478164	0.888416	1.077888
C83	C	0.978201	1.178179	0.326150
C84	C	1.478201	1.678179	0.826150
C85	C	0.978227	1.088558	0.326188
C86	C	1.478227	1.588558	0.826188
C87	C	0.978111	0.388481	0.150257
C88	C	1.478111	0.888481	0.650257
C89	C	0.978226	0.388275	0.075025
C90	C	1.478226	0.888275	0.575025
C91	C	1.021479	0.336849	0.613244
C92	C	1.521479	0.836849	1.113244
C93	C	1.021486	0.336826	0.683933
C94	C	1.521486	0.836826	1.183933
C95	C	0.978180	0.388374	0.719263
C96	C	1.478180	0.888374	1.219263
C97	C	0.934861	0.439943	0.683902
C98	C	1.434861	0.939943	1.183902
C99	C	0.934851	0.439961	0.613215
C100	C	1.434851	0.939961	1.113215
C101	C	0.934899	0.439867	0.968975
C102	C	1.434899	0.939867	1.468975
C103	C	0.934913	0.439846	1.039667
C104	C	1.434913	0.939846	1.539667
C105	C	1.021534	0.336732	1.039693
C106	C	1.521534	0.836732	1.539693
C107	C	1.021524	0.336751	0.969006
C108	C	1.521524	0.836751	1.469006
C109	C	0.978202	0.388316	0.933651
C110	C	1.478202	0.888316	1.433651
C111	C	0.978194	0.388340	0.857002
C112	C	1.478194	0.888340	1.357002
C113	C	0.978191	0.388355	0.795910
C114	C	1.478191	0.888355	1.295910
H115	H	0.592276	0.295056	0.404784
H116	H	1.092276	0.795056	0.904784
O117	O	0.888196	0.495437	1.077779
O118	O	1.388196	0.995437	1.577779
H119	H	0.858063	0.531291	1.041319
H120	H	1.358063	1.031291	1.541319
O121	O	0.373964	0.495547	0.235986
O122	O	0.873964	0.995547	0.735986
H123	H	0.360390	0.558850	0.247505
H124	H	0.860390	1.058850	0.747505
H125	H	0.592152	0.481907	0.247439
H126	H	1.092152	0.981907	0.747439
O127	O	1.068257	0.281110	1.077831
O128	O	1.568257	0.781110	1.577831
H129	H	1.098373	0.245277	1.041386
H130	H	1.598373	0.745277	1.541386
H131	H	0.720397	0.481899	0.247428
H132	H	1.220397	0.981899	0.747428
O133	O	0.374103	0.281464	0.416251
O134	O	0.874103	0.781464	0.916251
H135	H	0.360551	0.295367	0.469356
H136	H	0.860551	0.795367	0.969356
H137	H	1.056745	0.294876	0.584483
H138	H	1.556745	0.794876	1.084483
O139	O	0.227041	0.495565	0.236000
O140	O	0.727041	0.995565	0.736000
H141	H	0.194842	0.536648	0.266234
H142	H	0.694842	1.036648	0.766234
H143	H	0.720510	0.295045	0.404778
H144	H	1.220510	0.795045	0.904778
O145	O	0.227180	0.281478	0.416269
O146	O	0.727180	0.781478	0.916269
H147	H	0.172083	0.290124	0.408984
H148	H	0.672083	0.790124	0.908984
O149	O	1.068208	0.281213	0.722070
O150	O	1.568208	0.781213	1.222070
H151	H	1.098326	0.245381	0.685627
H152	H	1.598326	0.745381	1.185627
O153	O	1.068232	0.281155	0.930897
O154	O	1.568232	0.781155	1.430897
H155	H	1.098350	0.245287	0.967359
H156	H	1.598350	0.745287	1.467359
H157	H	0.899633	0.481867	0.940198
H158	H	1.399633	0.981867	1.440198
H159	H	0.899598	0.481911	0.712674
H160	H	1.399598	0.981911	1.212674
O161	O	0.888124	0.495568	0.575075
O162	O	1.388124	0.995568	1.075075
H163	H	0.858013	0.531410	0.611516
H164	H	1.358013	1.031410	1.111516
