data_functionalizedCrystal
_audit_creation_method	'MofGen! by Chris Wilmer'
_symmetry_space_group_name_H-M	'P1'
_symmetry_Int_Tables_number	1
_symmetry_cell_setting	triclinic
loop_
_symmetry_equiv_pos_as_xyz
  x,y,z
_cell_length_a	27.732064
_cell_length_b	27.732048
_cell_length_c	13.101039
_cell_angle_alpha	93.329410
_cell_angle_beta	86.677803
_cell_angle_gamma	82.646040
loop_
_atom_site_label
_atom_site_type_symbol
_atom_site_fract_x
_atom_site_fract_y
_atom_site_fract_z
O1	O	0.643596	0.054873	-0.085041
O2	O	1.143596	0.554873	0.414959
O3	O	0.502805	0.063609	-0.085085
O4	O	1.002805	0.563609	0.414915
O5	O	0.577572	-0.011155	-0.085042
O6	O	1.077572	0.488845	0.414958
O7	O	0.568828	0.129637	-0.085084
O8	O	1.068828	0.629637	0.414916
O9	O	0.572208	-0.005782	0.085384
O10	O	1.072208	0.494218	0.585384
O11	O	0.497440	0.068982	0.085342
O12	O	0.997440	0.568982	0.585342
O13	O	0.638231	0.060246	0.085385
O14	O	1.138231	0.560246	0.585385
Zn15	Zn	0.566984	0.065467	0.112422
Zn16	Zn	1.066984	0.565467	0.612422
Zn17	Zn	0.574052	0.058388	-0.112122
Zn18	Zn	1.074052	0.558388	0.387878
O19	O	0.563463	0.135010	0.085343
O20	O	1.063463	0.635010	0.585343
C21	C	0.482116	0.066110	0.000123
C22	C	0.982116	0.566110	0.500123
C23	C	0.428462	0.065554	0.000107
C24	C	0.928462	0.565554	0.500107
C25	C	0.051387	0.017589	0.000180
C26	C	0.551387	0.517589	0.500180
C27	C	0.253048	0.019634	0.000152
C28	C	0.753048	0.519634	0.500152
O29	O	0.284299	-0.017585	0.000202
O30	O	0.784299	0.482415	0.500202
N31	N	0.272176	0.063968	0.000135
N32	N	0.772176	0.563968	0.500135
C33	C	0.240885	0.107794	0.000131
C34	C	0.740885	0.607794	0.500131
O35	O	0.261781	0.145550	0.000125
O36	O	0.761781	0.645550	0.500125
C37	C	0.039225	0.105748	0.000165
C38	C	0.539225	0.605748	0.500165
C39	C	0.020100	0.061411	0.000172
C40	C	0.520100	0.561411	0.500172
C41	C	0.032261	-0.026744	0.000188
C42	C	0.532261	0.473256	0.500188
C43	C	-0.018151	-0.027255	0.000189
C44	C	0.481849	0.472745	0.500189
C45	C	-0.049438	0.016567	0.000182
C46	C	0.450562	0.516567	0.500182
C47	C	-0.030312	0.060900	0.000174
C48	C	0.469688	0.560900	0.500174
C49	C	0.007934	0.149574	0.000168
C50	C	0.507934	0.649574	0.500168
C51	C	-0.042483	0.149058	0.000180
C52	C	0.457517	0.649058	0.500180
C53	C	-0.061608	0.104721	0.000187
C54	C	0.438392	0.604721	0.500187
C55	C	-0.112011	0.104211	0.000168
C56	C	0.387989	0.604211	0.500168
N57	N	-0.131139	0.059878	0.000185
N58	N	0.368861	0.559878	0.500185
C59	C	-0.099852	0.016055	0.000193
C60	C	0.400148	0.516055	0.500193
C61	C	0.346760	0.108865	0.000110
C62	C	0.846760	0.608865	0.500110
C63	C	0.397175	0.109376	0.000100
C64	C	0.897175	0.609376	0.500100
C65	C	0.409334	0.021217	0.000124
C66	C	0.909334	0.521217	0.500124
C67	C	0.358919	0.020705	0.000127
C68	C	0.858919	0.520705	0.500127
C69	C	0.327632	0.064531	0.000128
C70	C	0.827632	0.564531	0.500128
C71	C	-0.205722	0.014986	0.000194
C72	C	0.294278	0.514986	0.500194
C73	C	-0.256139	0.014478	0.000191
C74	C	0.243861	0.514478	0.500191
C75	C	-0.268294	0.102638	0.000173
C76	C	0.231706	0.602638	0.500173
C77	C	-0.217881	0.103145	0.000171
C78	C	0.282119	0.603145	0.500171
C79	C	-0.186596	0.059315	0.000185
C80	C	0.313404	0.559315	0.500185
O81	O	-0.143291	0.141411	0.000130
O82	O	0.356709	0.641411	0.500130
O83	O	-0.120759	-0.021694	0.000221
O84	O	0.379241	0.478306	0.500221
C85	C	0.101799	0.018100	0.000178
C86	C	0.601799	0.518100	0.500178
C87	C	0.120924	0.062433	0.000170
C88	C	0.620924	0.562433	0.500170
C89	C	0.089637	0.106256	0.000163
C90	C	0.589637	0.606256	0.500163
C91	C	0.171339	0.062945	0.000160
C92	C	0.671339	0.562945	0.500160
C93	C	0.202626	0.019123	0.000167
C94	C	0.702626	0.519123	0.500167
C95	C	0.183498	-0.025211	0.000184
C96	C	0.683498	0.474789	0.500184
C97	C	0.133086	-0.025722	0.000186
C98	C	0.633086	0.474278	0.500186
C99	C	0.108765	0.150589	0.000145
C100	C	0.608765	0.650589	0.500145
C101	C	0.159178	0.151097	0.000143
C102	C	0.659178	0.651097	0.500143
C103	C	0.190465	0.107274	0.000150
C104	C	0.690465	0.607274	0.500150
C105	C	0.574706	-0.026475	0.000174
C106	C	1.074706	0.473525	0.500174
C107	C	0.574153	-0.080130	0.000182
C108	C	1.074153	0.419870	0.500182
C109	C	0.614858	-0.418944	0.000142
C110	C	1.114858	0.081056	0.500142
C111	C	0.612807	-0.620604	0.000127
C112	C	1.112807	-0.120604	0.500127
O113	O	0.650029	-0.651859	0.000094
O114	O	1.150029	-0.151859	0.500094
N115	N	0.568473	-0.639731	0.000114
N116	N	1.068473	-0.139731	0.500114
C117	C	0.524648	-0.608439	0.000099
C118	C	1.024648	-0.108439	0.500099
O119	O	0.486892	-0.629335	0.000077
O120	O	0.986892	-0.129335	0.500077
C121	C	0.526699	-0.406780	0.000106
C122	C	1.026699	0.093220	0.500106
C123	C	0.571036	-0.387656	0.000129
C124	C	1.071036	0.112344	0.500129
C125	C	0.659191	-0.399819	0.000164
C126	C	1.159191	0.100181	0.500164
C127	C	0.659703	-0.349407	0.000173
C128	C	1.159703	0.150593	0.500173
C129	C	0.615882	-0.318119	0.000161
C130	C	1.115882	0.181881	0.500161
C131	C	0.571548	-0.337244	0.000139
C132	C	1.071548	0.162756	0.500139
C133	C	0.482875	-0.375490	0.000083
C134	C	0.982875	0.124510	0.500083
C135	C	0.483392	-0.325073	0.000082
C136	C	0.983392	0.174927	0.500082
C137	C	0.527729	-0.305949	0.000105
C138	C	1.027729	0.194051	0.500105
C139	C	0.528239	-0.255544	0.000135
C140	C	1.028239	0.244456	0.500135
N141	N	0.572573	-0.236417	0.000148
N142	N	1.072573	0.263583	0.500148
C143	C	0.616395	-0.267705	0.000161
C144	C	1.116395	0.232295	0.500161
C145	C	0.523574	-0.714314	0.000097
C146	C	1.023574	-0.214314	0.500097
C147	C	0.523061	-0.764728	0.000096
C148	C	1.023061	-0.264728	0.500096
C149	C	0.611221	-0.776889	0.000123
C150	C	1.111221	-0.276889	0.500123
C151	C	0.611733	-0.726474	0.000131
C152	C	1.111733	-0.226474	0.500131
C153	C	0.567909	-0.695187	0.000109
C154	C	1.067909	-0.195187	0.500109
C155	C	0.617467	-0.161835	0.000181
C156	C	1.117467	0.338165	0.500181
C157	C	0.617975	-0.111418	0.000195
C158	C	1.117975	0.388582	0.500195
C159	C	0.529816	-0.099261	0.000163
C160	C	1.029816	0.400739	0.500163
C161	C	0.529307	-0.149674	0.000154
C162	C	1.029307	0.350326	0.500154
C163	C	0.573137	-0.180960	0.000160
C164	C	1.073137	0.319040	0.500160
O165	O	0.491038	-0.224262	0.000157
O166	O	0.991038	0.275738	0.500157
O167	O	0.654146	-0.246800	0.000160
O168	O	1.154146	0.253200	0.500160
C169	C	0.614346	-0.469356	0.000133
C170	C	1.114346	0.030644	0.500133
C171	C	0.570012	-0.488481	0.000111
C172	C	1.070012	0.011519	0.500111
C173	C	0.526191	-0.457193	0.000098
C174	C	1.026191	0.042807	0.500098
C175	C	0.569499	-0.538895	0.000111
C176	C	1.069499	-0.038895	0.500111
C177	C	0.613321	-0.570183	0.000123
C178	C	1.113321	-0.070183	0.500123
C179	C	0.657655	-0.551056	0.000136
C180	C	1.157655	-0.051056	0.500136
C181	C	0.658167	-0.500644	0.000145
C182	C	1.158167	-0.000644	0.500145
C183	C	0.481857	-0.476320	0.000085
C184	C	0.981857	0.023680	0.500085
C185	C	0.481348	-0.526733	0.000077
C186	C	0.981348	-0.026733	0.500077
C187	C	0.525170	-0.558020	0.000090
C188	C	1.025170	-0.058020	0.500090
C189	C	0.658920	0.057744	0.000175
C190	C	1.158920	0.557744	0.500175
C191	C	0.712574	0.058300	0.000184
C192	C	1.212574	0.558300	0.500184
C193	C	0.566329	0.150330	0.000124
C194	C	1.066329	0.650330	0.500124
C195	C	0.566883	0.203984	0.000109
C196	C	1.066883	0.703984	0.500109
N197	N	0.562164	0.070298	0.265668
N198	N	1.062164	0.570298	0.765668
N199	N	0.578876	0.053553	-0.265368
N200	N	1.078876	0.553553	0.234632
C201	C	0.555605	0.076875	0.474707
C202	C	1.055605	0.576875	0.974707
C203	C	0.585432	0.046977	0.525600
C204	C	1.085432	0.546977	1.025600
C205	C	0.581783	0.050637	0.641916
C206	C	1.081783	0.550637	1.141916
C207	C	0.559254	0.073216	0.358380
C208	C	1.059254	0.573216	0.858380
H209	H	-0.271707	-0.021628	0.000195
H210	H	0.228293	0.478372	0.500195
Br211	Br	-0.310764	0.162108	0.000155
Br212	Br	0.189236	0.662108	0.500155
H213	H	0.653157	-0.187303	0.000182
H214	H	1.153157	0.312697	0.500182
Br215	Br	0.719879	-0.323462	0.000176
Br216	Br	1.219879	0.176538	0.500176
Br217	Br	0.717126	-0.593528	0.000162
Br218	Br	1.217126	-0.093528	0.500162
Br219	Br	0.508479	0.124117	0.547680
Br220	Br	1.008479	0.624117	1.047680
Br221	Br	0.332969	-0.039468	0.000139
Br222	Br	0.832969	0.460532	0.500139
Br223	Br	-0.163271	-0.044498	0.000213
Br224	Br	0.336729	0.455502	0.500213
Br225	Br	-0.044097	-0.087430	0.000186
Br226	Br	0.455903	0.412570	0.500186
Br227	Br	0.185126	0.211274	0.000122
Br228	Br	0.685126	0.711274	0.500122
Br229	Br	0.421170	-0.552679	0.000054
Br230	Br	0.921170	-0.052679	0.500054
H231	H	0.654081	-0.095850	0.000216
H232	H	1.154081	0.404150	0.500216
Br233	Br	0.422378	-0.433865	0.000063
Br234	Br	0.922378	0.066135	0.500063
Br235	Br	0.632764	-0.000064	0.452627
Br236	Br	1.132764	0.499936	0.952627
H237	H	0.057731	-0.062432	0.000197
H238	H	0.557731	0.437568	0.500197
Br239	Br	0.423913	-0.282614	0.000049
Br240	Br	0.923913	0.217386	0.500049
Br241	Br	0.451805	-0.038256	0.000130
Br242	Br	0.951805	0.461744	0.500130
Br243	Br	0.066312	0.210069	0.000132
Br244	Br	0.566312	0.710069	0.500132
Br245	Br	0.718672	-0.442273	0.000180
Br246	Br	1.218672	0.057727	0.500180
Br247	Br	0.671906	-0.700525	0.000164
Br248	Br	1.171906	-0.200525	0.500164
Br249	Br	0.225969	-0.084684	0.000188
Br250	Br	0.725969	0.415316	0.500188
H251	H	0.486957	-0.780293	0.000095
H252	H	0.986957	-0.280293	0.500095
Br253	Br	0.423124	0.169549	0.000064
Br254	Br	0.923124	0.669549	0.500064
Br255	Br	0.304306	0.168348	0.000105
Br256	Br	0.804306	0.668348	0.500105
Br257	Br	-0.084942	0.208540	0.000189
Br258	Br	0.415058	0.708540	0.500189
Br259	Br	0.464092	-0.671859	0.000066
Br260	Br	0.964092	-0.171859	0.500066
Br261	Br	0.469135	-0.175628	0.000147
Br262	Br	0.969135	0.324372	0.500147
Br263	Br	0.107139	-0.085897	0.000188
Br264	Br	0.607139	0.414103	0.500188
Br265	Br	-0.191925	0.163316	0.000144
Br266	Br	0.308075	0.663316	0.500144
H267	H	0.023497	0.185677	0.000158
H268	H	0.523497	0.685677	0.500158
H269	H	0.446772	-0.391052	0.000058
H270	H	0.946772	0.108948	0.500058
H271	H	0.646902	-0.802373	0.000134
H272	H	1.146902	-0.302373	0.500134
H273	H	0.694271	-0.485078	0.000164
H274	H	1.194271	0.014922	0.500164
H275	H	0.494137	-0.073777	0.000156
H276	H	0.994137	0.426223	0.500156
