data_functionalizedCrystal
_audit_creation_method	'MofGen! by Chris Wilmer'
_symmetry_space_group_name_H-M	'P1'
_symmetry_Int_Tables_number	1
_symmetry_cell_setting	triclinic
loop_
_symmetry_equiv_pos_as_xyz
  x,y,z
_cell_length_a	10.540514
_cell_length_b	10.540539
_cell_length_c	13.101018
_cell_angle_alpha	86.605148
_cell_angle_beta	93.396424
_cell_angle_gamma	84.520326
loop_
_atom_site_label
_atom_site_type_symbol
_atom_site_fract_x
_atom_site_fract_y
_atom_site_fract_z
O1	O	1.692835	0.171809	0.085223
O2	O	2.192835	0.671809	0.585223
O3	O	1.323418	0.188698	0.085221
O4	O	1.823418	0.688698	0.585221
O5	O	1.516554	-0.004454	0.085221
O6	O	2.016554	0.495546	0.585221
O7	O	1.499698	0.364961	0.085223
O8	O	1.999698	0.864961	0.585223
O9	O	1.502681	0.009417	-0.085209
O10	O	2.002681	0.509417	0.414791
O11	O	1.309544	0.202569	-0.085209
O12	O	1.809544	0.702569	0.414791
O13	O	1.678961	0.185679	-0.085208
O14	O	2.178961	0.685679	0.414792
Zn15	Zn	1.492050	0.196326	-0.112268
Zn16	Zn	1.992050	0.696326	0.387732
Zn17	Zn	1.510329	0.178051	0.112282
Zn18	Zn	2.010329	0.678051	0.612282
O19	O	1.485825	0.378831	-0.085207
O20	O	1.985825	0.878831	0.414793
C21	C	1.269177	0.194374	0.000006
C22	C	1.769177	0.694374	0.500006
C23	C	1.128228	0.190605	0.000006
C24	C	1.628228	0.690605	0.500006
C25	C	1.057522	0.328744	0.000009
C26	C	1.557522	0.828744	0.500009
C27	C	0.910941	0.324838	0.000401
C28	C	1.410941	0.824838	0.500401
C29	C	0.943797	0.107572	0.097146
C30	C	1.443797	0.607572	0.597146
C31	C	1.090343	0.112419	0.097222
C32	C	1.590343	0.612419	0.597222
C33	C	1.074969	0.126149	-0.096596
C34	C	1.574969	0.626149	0.403404
C35	C	0.927886	0.124920	-0.097867
C36	C	1.427886	0.624920	0.402133
C37	C	1.508353	-0.044821	0.000008
C38	C	2.008353	0.455179	0.500008
C39	C	1.504572	-0.185770	0.000013
C40	C	2.004572	0.314230	0.500013
C41	C	1.359684	-0.369214	0.000395
C42	C	1.859684	0.130786	0.500395
C43	C	1.363487	-0.222565	0.000011
C44	C	1.863487	0.277435	0.500011
C45	C	1.564546	-0.239513	-0.097311
C46	C	2.064546	0.260487	0.402689
C47	C	1.559724	-0.386050	-0.097393
C48	C	2.059724	0.113950	0.402607
C49	C	1.578370	-0.402342	0.096418
C50	C	2.078370	0.097658	0.596418
C51	C	1.579774	-0.255465	0.097705
C52	C	2.079774	0.244535	0.597705
C53	C	1.733202	0.180004	0.000010
C54	C	2.233202	0.680004	0.500010
C55	C	1.874152	0.183772	0.000017
C56	C	2.374152	0.683772	0.500017
C57	C	1.494026	0.419199	0.000009
C58	C	1.994026	0.919199	0.500009
C59	C	1.497808	0.560146	0.000010
C60	C	1.997808	1.060146	0.500010
N61	N	1.479585	0.208798	-0.265517
N62	N	1.979585	0.708798	0.234483
C63	C	1.539757	0.148597	-0.525426
C64	C	2.039757	0.648597	-0.025426
C65	C	1.462636	0.225767	-0.474553
C66	C	1.962636	0.725767	0.025447
C67	C	1.472069	0.216323	-0.358234
C68	C	1.972069	0.716323	0.141766
C69	C	1.530326	0.158039	-0.641756
C70	C	2.030326	0.658039	-0.141756
N71	N	1.522804	0.165570	0.265531
N72	N	2.022804	0.665570	0.765531
H73	H	1.122148	0.024332	-0.097534
H74	H	1.622148	0.524332	0.402466
H75	H	1.612864	0.075443	-0.481627
H76	H	2.112864	0.575443	0.018373
F77	F	1.714847	-0.224438	0.105394
F78	F	2.214847	0.275562	0.605394
F79	F	1.486392	-0.415167	-0.192482
F80	F	1.986392	0.084833	0.307518
F81	F	1.134993	0.169862	0.192487
F82	F	1.634993	0.669862	0.692487
F83	F	1.104426	0.393523	0.090917
F84	F	1.604426	0.893523	0.590917
H85	H	1.389526	0.298927	-0.518358
H86	H	1.889526	0.798927	-0.018358
F87	F	1.153535	-0.020652	0.102636
F88	F	1.653535	0.479348	0.602636
H89	H	1.080393	0.390451	-0.069633
H90	H	1.580393	0.890451	0.430367
F91	F	0.847765	0.402463	-0.090580
F92	F	1.347765	0.902463	0.409420
H93	H	1.309634	-0.403489	0.070188
H94	H	1.809634	0.096511	0.570188
F95	F	0.863841	0.387297	0.091945
F96	F	1.363841	0.887297	0.591945
H97	H	0.921755	0.003668	0.100483
H98	H	1.421755	0.503668	0.600483
H99	H	1.680329	-0.449630	0.097073
H100	H	2.180329	0.050370	0.597073
F101	F	0.895613	-0.008851	-0.105919
F102	F	1.395613	0.491149	0.394081
F103	F	1.108298	0.194086	-0.192854
F104	F	1.608298	0.694086	0.307146
F105	F	0.895929	0.161127	0.191989
F106	F	1.395929	0.661127	0.691989
H107	H	1.535956	-0.220462	0.169703
H108	H	2.035956	0.279538	0.669703
H109	H	1.315742	-0.185635	0.069777
H110	H	1.815742	0.314365	0.569777
F111	F	0.866657	0.197797	-0.191792
F112	F	1.366657	0.697797	0.308208
H113	H	1.303999	-0.175117	-0.069871
H114	H	1.803999	0.324883	0.430129
F115	F	1.691874	-0.448294	-0.103174
F116	F	2.191874	0.051706	0.396826
F117	F	1.279580	-0.401757	-0.090069
F118	F	1.779580	0.098243	0.409931
F119	F	1.699586	-0.209924	-0.102044
F120	F	2.199586	0.290076	0.397956
F121	F	1.495194	-0.176126	-0.191978
F122	F	1.995194	0.323874	0.308022
F123	F	1.526527	-0.451411	0.192836
F124	F	2.026527	0.048589	0.692836
