data_functionalizedCrystal
_audit_creation_method	'MofGen! by Chris Wilmer'
_symmetry_space_group_name_H-M	'P1'
_symmetry_Int_Tables_number	1
_symmetry_cell_setting	triclinic
loop_
_symmetry_equiv_pos_as_xyz
  x,y,z
_cell_length_a	16.959455
_cell_length_b	16.120444
_cell_length_c	16.959447
_cell_angle_alpha	87.132720
_cell_angle_beta	90.014322
_cell_angle_gamma	92.923490
loop_
_atom_site_label
_atom_site_type_symbol
_atom_site_fract_x
_atom_site_fract_y
_atom_site_fract_z
Zn1	Zn	1.192388	-0.331959	0.462855
Zn2	Zn	1.185592	-0.471387	0.337374
Zn3	Zn	1.060215	-0.331985	0.330694
Zn4	Zn	1.053466	-0.471325	0.469510
O5	O	1.122915	-0.401664	0.400108
O6	O	1.302097	-0.350469	0.446221
O7	O	1.168941	-0.452932	0.225879
O8	O	1.083417	-0.215316	0.342645
O9	O	1.297104	-0.452907	0.354030
O10	O	1.180524	-0.215296	0.439743
O11	O	1.076827	-0.350514	0.220971
O12	O	0.948710	-0.350454	0.349097
O13	O	1.071914	-0.452801	0.579236
O14	O	0.943751	-0.452826	0.451085
O15	O	1.173979	-0.350409	0.574347
O16	O	1.162397	-0.588045	0.360483
O17	O	1.065324	-0.587999	0.457563
C18	C	0.917550	-0.401637	0.400089
C19	C	0.829693	-0.401645	0.400100
C20	C	0.460777	-0.348315	0.347107
C21	C	0.455654	-0.455082	0.453158
C22	C	0.538200	-0.455070	0.453153
C23	C	0.582039	-0.401681	0.400123
C24	C	0.543331	-0.348303	0.347098
C25	C	0.576914	-0.508452	0.506171
C26	C	0.659466	-0.508443	0.506167
C27	C	0.703306	-0.455049	0.453141
C28	C	0.664593	-0.401669	0.400114
C29	C	0.708431	-0.348279	0.347084
C30	C	0.669720	-0.294894	0.294061
C31	C	0.587171	-0.294909	0.294071
C32	C	0.785855	-0.455034	0.453130
C33	C	0.790985	-0.348268	0.347076
C34	C	1.112412	-0.618272	0.410487
C35	C	1.107991	-0.710938	0.414954
C36	C	1.146044	-0.921883	0.377108
C37	C	1.099933	-0.880594	0.423117
C38	C	1.104418	-0.786189	0.418574
C39	C	1.141560	-1.016297	0.381650
C40	C	1.329082	-0.401692	0.400128
C41	C	1.416938	-0.401704	0.400137
C42	C	1.122952	-0.401595	0.606273
C43	C	1.122967	-0.401566	0.694129
C44	C	1.133482	-0.184210	0.389706
C45	C	1.137984	-0.091544	0.385273
C46	C	1.122928	-0.401673	0.194743
C47	C	1.123077	-0.401467	0.106877
C48	C	1.069925	-0.454788	1.068148
C49	C	1.176207	-0.348167	1.063052
C50	C	1.176185	-0.348185	0.980507
C51	C	1.123033	-0.401506	0.941779
C52	C	1.069903	-0.454810	0.985596
C53	C	1.229319	-0.294888	0.936684
C54	C	1.229300	-0.294904	0.854134
C55	C	1.176144	-0.348222	0.815404
C56	C	1.123011	-0.401527	0.859226
C57	C	1.069859	-0.454848	0.820498
C58	C	1.016722	-0.508150	0.864318
C59	C	1.016746	-0.508127	0.946866
C60	C	1.176119	-0.348244	0.732857
C61	C	1.069837	-0.454869	0.737946
H62	H	0.555645	-0.251447	0.250902
H63	H	1.057089	-0.916147	0.465920
H64	H	1.219384	-0.304849	0.697182
N65	N	0.419031	-0.290752	0.289907
H66	H	0.360083	-0.298861	0.297952
H67	H	0.432824	-0.303671	0.234058
H68	H	1.188885	-0.886334	0.334307
H69	H	1.026547	-0.498283	0.706419
H70	H	0.419956	-0.498554	0.496329
N71	N	0.529634	-0.566041	0.563357
H72	H	0.471466	-0.557945	0.555318
H73	H	0.544706	-0.553143	0.619211
N74	N	0.959400	-0.565665	0.822545
H75	H	0.967456	-0.557590	0.763603
H76	H	0.903581	-0.552678	0.836345
N77	N	0.959450	-0.565623	0.994131
H78	H	0.925774	-0.599405	0.957073
H79	H	0.924530	-0.531676	1.026764
H80	H	1.272597	-0.251482	0.968223
N81	N	0.701216	-0.566019	0.563352
H82	H	0.660917	-0.599843	0.596946
H83	H	0.737115	-0.532125	0.598359
H84	H	1.026660	-0.498183	1.103830
N85	N	1.233537	-0.290664	1.104819
H86	H	1.225490	-0.298741	1.163762
H87	H	1.224122	-0.231124	1.087549
N88	N	1.286608	-0.237418	0.806874
H89	H	1.320283	-0.203638	0.843935
H90	H	1.256298	-0.198839	0.770784
H91	H	0.705424	-0.251428	0.250881
N92	N	0.838259	-0.290672	0.289881
H93	H	0.823249	-0.303543	0.234002
H94	H	0.896414	-0.298786	0.297984
N95	N	0.827609	-0.512612	0.510306
H96	H	0.787311	-0.546439	0.543898
H97	H	0.863509	-0.478722	0.545315
