data_functionalizedCrystal
_audit_creation_method	'MofGen! by Chris Wilmer'
_symmetry_space_group_name_H-M	'P1'
_symmetry_Int_Tables_number	1
_symmetry_cell_setting	triclinic
loop_
_symmetry_equiv_pos_as_xyz
  x,y,z
_cell_length_a	10.489711
_cell_length_b	22.610064
_cell_length_c	10.489741
_cell_angle_alpha	90.004402
_cell_angle_beta	95.466909
_cell_angle_gamma	90.009845
loop_
_atom_site_label
_atom_site_type_symbol
_atom_site_fract_x
_atom_site_fract_y
_atom_site_fract_z
O1	O	1.694084	0.049206	-0.179770
O2	O	1.322884	0.049202	-0.196702
O3	O	1.516931	0.049200	-0.002637
O4	O	1.500038	0.049207	-0.373835
O5	O	1.516896	-0.049169	-0.002666
O6	O	1.322850	-0.049167	-0.196731
O7	O	1.694050	-0.049164	-0.179798
Zn8	Zn	1.508444	-0.064784	-0.188269
Zn9	Zn	1.508490	0.064822	-0.188232
O10	O	1.500003	-0.049162	-0.373863
C11	C	1.275334	0.000017	-0.195446
C12	C	1.133703	0.000016	-0.191644
C13	C	0.951317	0.000025	-0.308348
C14	C	1.043479	0.048524	-0.250039
C15	C	1.043418	-0.048461	-0.250035
C16	C	0.973528	0.048567	-0.126496
C17	C	0.973458	-0.048461	-0.126510
C18	C	1.065593	0.000050	-0.068111
N19	N	1.508423	-0.153236	-0.188294
C20	C	1.594418	-0.561878	-0.102313
C21	C	1.594424	-0.623798	-0.102304
O22	O	1.667486	-0.655817	-0.029219
N23	N	1.508488	-0.654773	-0.188205
C24	C	1.422532	-0.623825	-0.274113
O25	O	1.349437	-0.655858	-0.347177
C26	C	1.422520	-0.561906	-0.274115
C27	C	1.508470	-0.530934	-0.188216
C28	C	1.680360	-0.530906	-0.016421
C29	C	1.680354	-0.468991	-0.016432
C30	C	1.594407	-0.438047	-0.102335
C31	C	1.508465	-0.469019	-0.188228
C32	C	1.336559	-0.530959	-0.360015
C33	C	1.336554	-0.469036	-0.360009
C34	C	1.422504	-0.438065	-0.274111
C35	C	1.422513	-0.376160	-0.274142
N36	N	1.508449	-0.345184	-0.188241
C37	C	1.594396	-0.376128	-0.102337
C38	C	1.422561	-0.753859	-0.274100
C39	C	1.422578	-0.815776	-0.274106
C40	C	1.594469	-0.815745	-0.102295
C41	C	1.594457	-0.753826	-0.102297
C42	C	1.508497	-0.722884	-0.188199
C43	C	1.594379	-0.246101	-0.102368
C44	C	1.594370	-0.184180	-0.102390
C45	C	1.422475	-0.184216	-0.274196
C46	C	1.422488	-0.246132	-0.274179
C47	C	1.508445	-0.277073	-0.188254
O48	O	1.349485	-0.344101	-0.347187
O49	O	1.667467	-0.344088	-0.029274
C50	C	1.741600	0.000023	-0.181055
C51	C	1.883231	0.000028	-0.184857
C52	C	1.515638	0.000016	0.044880
C53	C	1.511820	0.000017	0.186509
N54	N	1.508521	0.153275	-0.188197
C55	C	1.501296	0.000024	-0.421381
C56	C	1.505114	0.000027	-0.563010
C57	C	1.388354	0.000020	0.254636
C58	C	1.446661	-0.048480	0.346751
C59	C	1.446725	0.048504	0.346753
C60	C	1.570179	-0.048523	0.276758
C61	C	1.570225	0.048504	0.276751
C62	C	1.628622	-0.000008	0.368839
H63	H	0.942421	-0.089467	-0.074313
Br64	Br	1.305856	-0.288164	-0.390775
Br65	Br	0.868491	0.000104	-0.477520
Br66	Br	1.657251	0.116852	0.225034
Br67	Br	0.922215	0.116984	-0.039449
Br68	Br	1.359640	0.116841	0.398412
Br69	Br	1.095144	0.116871	-0.337102
H70	H	1.115050	0.000073	0.033484
Br71	Br	1.305840	-0.142212	-0.390779
Br72	Br	1.219160	-0.000057	0.171864
Br73	Br	1.095000	-0.116799	-0.337179
Br74	Br	1.711029	-0.142149	0.014188
H75	H	1.664371	-0.271286	-0.032399
H76	H	1.750348	-0.556095	0.053538
Br77	Br	1.796998	-0.426964	0.100154
Br78	Br	1.711107	-0.711800	0.014283
H79	H	1.664450	-0.840951	-0.032346
H80	H	1.352603	-0.840989	-0.344065
Br81	Br	1.305898	-0.711871	-0.390701
H82	H	1.266570	-0.556168	-0.429960
H83	H	1.266551	-0.443846	-0.429960
H84	H	1.394406	-0.089485	0.377745
H85	H	1.622360	-0.089573	0.245920
Br86	Br	1.797967	-0.000047	0.451238
