data_functionalizedCrystal
_audit_creation_method	'MofGen! by Chris Wilmer'
_symmetry_space_group_name_H-M	'P1'
_symmetry_Int_Tables_number	1
_symmetry_cell_setting	triclinic
loop_
_symmetry_equiv_pos_as_xyz
  x,y,z
_cell_length_a	14.519710
_cell_length_b	10.654541
_cell_length_c	9.730217
_cell_angle_alpha	90.003041
_cell_angle_beta	89.999532
_cell_angle_gamma	95.917963
loop_
_atom_site_label
_atom_site_type_symbol
_atom_site_fract_x
_atom_site_fract_y
_atom_site_fract_z
O1	O	1.224716	-0.164621	-0.114259
O2	O	0.956340	-0.184008	-0.114269
O3	O	1.096699	0.008484	-0.114255
O4	O	1.084356	-0.357113	-0.114272
O5	O	1.096695	0.008486	0.114325
O6	O	0.956335	-0.184006	0.114312
O7	O	1.224712	-0.164619	0.114321
Zn8	Zn	1.090523	-0.174312	0.150608
Zn9	Zn	1.090528	-0.174315	-0.150556
O10	O	1.084352	-0.357112	0.114308
C11	C	1.095791	0.055275	0.000034
C12	C	1.093081	0.194692	0.000031
C13	C	0.921973	-0.183103	0.000020
C14	C	0.819578	-0.180396	0.000017
C15	C	1.259078	-0.165524	0.000029
C16	C	1.361474	-0.168231	0.000023
C17	C	1.736421	-0.178198	0.000022
C18	C	1.632099	-0.175431	0.000022
C19	C	1.548951	-0.173215	0.000021
C20	C	1.444622	-0.170447	0.000024
C21	C	1.085260	-0.403902	0.000015
C22	C	1.087970	-0.543319	0.000009
N23	N	1.090526	-0.174310	0.356145
C24	C	1.260920	0.224277	0.000055
C25	C	1.343562	0.304566	0.000069
C26	C	1.341010	0.435559	0.000065
C27	C	1.255806	0.486265	0.000042
C28	C	1.173164	0.405976	0.000027
C29	C	1.175725	0.274981	0.000036
C30	C	1.005328	0.376392	-0.000006
C31	C	1.007878	0.245398	0.000009
C32	C	0.920124	0.427098	-0.000028
C33	C	0.837480	0.346809	-0.000033
C34	C	0.840036	0.215808	-0.000027
C35	C	0.925236	0.165109	-0.000006
N36	N	1.090533	-0.174307	-0.356092
C37	C	1.214865	-0.003908	0.356147
C38	C	1.277042	0.081290	0.428088
C39	C	1.277051	0.081291	0.571968
C40	C	1.214876	-0.003913	0.643910
C41	C	1.152700	-0.089110	0.571969
C42	C	1.152699	-0.089104	0.428086
C43	C	1.028357	-0.259505	0.571967
C44	C	1.028350	-0.259514	0.428087
C45	C	0.966181	-0.344708	0.643909
C46	C	0.904008	-0.429914	0.571967
C47	C	0.904002	-0.429912	0.428079
C48	C	0.966174	-0.344711	0.356146
H49	H	1.412933	0.263266	0.000100
C50	C	1.214750	-0.004153	0.199934
C51	C	1.147007	-0.097021	0.152329
C52	C	1.146883	-0.097293	0.008434
H53	H	1.201591	0.076079	0.167215
H54	H	1.273779	-0.021597	0.167333
H55	H	1.087991	-0.079568	0.184916
H56	H	1.160150	-0.177266	0.185010
H57	H	1.205913	-0.114737	-0.024167
H58	H	1.133727	-0.017057	-0.024271
H59	H	1.100927	-0.160310	-0.023884
H60	H	0.853367	-0.499286	0.369512
H61	H	0.768114	0.388105	-0.000060
H62	H	1.408304	0.500931	0.000065
H63	H	1.253736	0.592928	0.000021
H64	H	0.772738	0.150442	-0.000045
H65	H	1.263006	0.117616	0.000077
C66	C	1.344422	0.173789	0.349764
C67	C	1.294853	0.250812	0.267098
C68	C	1.356902	0.335998	0.194901
H69	H	1.381503	0.224655	0.413026
H70	H	1.383051	0.128454	0.293577
H71	H	1.256241	0.296144	0.323279
H72	H	1.257776	0.199982	0.203810
H73	H	1.395530	0.290663	0.138714
H74	H	1.393979	0.386855	0.258173
H75	H	1.323278	0.388260	0.138794
H76	H	0.927325	0.058449	0.000007
C77	C	1.344652	0.173854	0.649835
C78	C	1.399111	0.248457	0.556046
C79	C	1.461400	0.333731	0.627727
H80	H	1.311252	0.226349	0.705974
H81	H	1.383378	0.128589	0.705929
H82	H	1.360390	0.293719	0.499977
H83	H	1.432531	0.195997	0.499905
H84	H	1.500126	0.288466	0.683821
H85	H	1.427992	0.386217	0.683863
H86	H	1.498363	0.384352	0.564103
C87	C	0.836464	-0.522208	0.650253
C88	C	0.779611	-0.455121	0.732882
C89	C	0.717386	-0.540101	0.805038
H90	H	0.799344	-0.572992	0.586966
H91	H	0.869944	-0.574567	0.706461
H92	H	0.746133	-0.402783	0.676679
H93	H	0.816705	-0.404341	0.796195
H94	H	0.750866	-0.592460	0.861246
H95	H	0.680273	-0.590880	0.741741
H96	H	0.678810	-0.494595	0.861120
H97	H	0.918052	0.533761	-0.000040
H98	H	1.214880	-0.003896	0.761064
H99	H	0.966188	-0.344699	0.761063
H100	H	0.966178	-0.344707	0.238991
