data_functionalizedCrystal
_audit_creation_method	'MofGen! by Chris Wilmer'
_symmetry_space_group_name_H-M	'P1'
_symmetry_Int_Tables_number	1
_symmetry_cell_setting	triclinic
loop_
_symmetry_equiv_pos_as_xyz
  x,y,z
_cell_length_a	19.188930
_cell_length_b	11.792241
_cell_length_c	10.868271
_cell_angle_alpha	89.999844
_cell_angle_beta	90.006533
_cell_angle_gamma	96.330901
loop_
_atom_site_label
_atom_site_type_symbol
_atom_site_fract_x
_atom_site_fract_y
_atom_site_fract_z
O1	O	0.095691	-1.505477	0.102218
O2	O	0.105554	-1.174988	0.102248
O3	O	-0.000979	-1.349770	0.102208
O4	O	0.202224	-1.330695	0.102258
O5	O	-0.000976	-1.349754	-0.102437
O6	O	0.105557	-1.174972	-0.102396
O7	O	0.095695	-1.505461	-0.102427
Zn8	Zn	0.100626	-1.340214	-0.134903
Zn9	Zn	0.100622	-1.340235	0.134725
O10	O	0.202228	-1.330679	-0.102387
C11	C	0.104936	-1.132699	-0.000071
C12	C	0.103082	-1.006713	-0.000060
C13	C	-0.026992	-1.349144	-0.000118
C14	C	-0.104507	-1.347290	-0.000128
C15	C	0.096313	-1.547751	-0.000105
C16	C	0.098167	-1.673737	-0.000108
C17	C	-0.148850	-1.449846	-0.000143
C18	C	-0.221684	-1.448104	-0.000123
C19	C	-0.250171	-1.343800	-0.000113
C20	C	-0.205818	-1.241230	-0.000091
C21	C	-0.132986	-1.242975	-0.000098
N22	N	-0.358626	-1.264067	-0.069750
N23	N	-0.427814	-1.262416	-0.069746
C24	C	-0.469609	-1.338536	-0.000088
N25	N	-0.439604	-1.416387	0.069550
N26	N	-0.370410	-1.418041	0.069540
C27	C	-0.329144	-1.341896	-0.000104
C28	C	-0.592928	-1.439211	-0.000080
C29	C	-0.665762	-1.437464	-0.000052
C30	C	-0.649895	-1.230588	-0.000032
C31	C	-0.577062	-1.232337	-0.000047
C32	C	-0.548583	-1.336652	-0.000077
C33	C	0.228240	-1.331305	-0.000058
C34	C	0.305755	-1.333159	-0.000040
N35	N	0.100629	-1.340208	-0.318917
C36	C	0.099672	-0.776051	-0.000096
C37	C	0.101566	-0.904408	-0.000076
C38	C	0.100629	-1.340217	-0.430255
C39	C	0.100623	-1.340232	-0.569933
N40	N	0.100614	-1.340250	0.318739
H41	H	-0.257795	-1.531620	-0.000131
H42	H	-0.673089	-1.145661	-0.000017
C43	C	-0.561594	-1.553951	-0.000102
C44	C	-0.610375	-1.666767	-0.000103
C45	C	-0.579044	-1.781508	-0.000128
C46	C	-0.498932	-1.783433	-0.000152
C47	C	-0.450147	-1.670613	-0.000151
C48	C	-0.481478	-1.555872	-0.000126
H49	H	-0.669683	-1.665345	-0.000085
H50	H	-0.615159	-1.865024	-0.000128
H51	H	-0.475739	-1.868371	-0.000170
H52	H	-0.390839	-1.672034	-0.000169
H53	H	-0.445363	-1.472356	-0.000126
H54	H	-0.229017	-1.156305	-0.000080
C55	C	-0.714542	-1.550286	-0.000070
C56	C	-0.766807	-1.577515	-0.106332
C57	C	-0.815587	-1.690339	-0.106351
C58	C	-0.812103	-1.775933	-0.000108
C59	C	-0.759836	-1.748705	0.106162
C60	C	-0.711056	-1.635882	0.106181
H61	H	-0.769388	-1.514151	-0.184986
H62	H	-0.854278	-1.710493	-0.185020
H63	H	-0.848213	-1.859451	-0.000122
H64	H	-0.757255	-1.812069	0.184816
H65	H	-0.672365	-1.615727	0.184850
C66	C	-0.117527	-1.564592	-0.000153
C67	C	-0.134096	-1.649682	-0.106421
C68	C	-0.102772	-1.764429	-0.106424
C69	C	-0.054879	-1.794085	-0.000158
C70	C	-0.038307	-1.708993	0.106118
C71	C	-0.069631	-1.594246	0.106121
H72	H	-0.169552	-1.627730	-0.185093
H73	H	-0.115040	-1.827420	-0.185097
H74	H	-0.031691	-1.879028	-0.000160
H75	H	-0.002851	-1.730945	0.184789
H76	H	-0.057363	-1.531255	0.184794
H77	H	-0.096881	-1.159459	-0.000086
H78	H	-0.540957	-1.148825	-0.000042
