data_functionalizedCrystal
_audit_creation_method	'MofGen! by Chris Wilmer'
_symmetry_space_group_name_H-M	'P1'
_symmetry_Int_Tables_number	1
_symmetry_cell_setting	triclinic
loop_
_symmetry_equiv_pos_as_xyz
  x,y,z
_cell_length_a	21.295418
_cell_length_b	17.640280
_cell_length_c	17.640968
_cell_angle_alpha	114.317439
_cell_angle_beta	78.759571
_cell_angle_gamma	101.187999
loop_
_atom_site_label
_atom_site_type_symbol
_atom_site_fract_x
_atom_site_fract_y
_atom_site_fract_z
Zn1	Zn	1.064429	0.233368	-0.400276
Zn2	Zn	1.397763	0.566702	-0.066943
Zn3	Zn	1.731096	0.900035	0.266390
Zn4	Zn	1.064378	0.399037	-0.234637
Zn5	Zn	1.397711	0.732370	0.098696
Zn6	Zn	1.731045	1.065704	0.432029
Zn7	Zn	0.941462	0.261311	-0.262411
Zn8	Zn	1.274796	0.594645	0.070923
Zn9	Zn	1.608129	0.927978	0.404256
Zn10	Zn	0.976850	0.371174	-0.372369
Zn11	Zn	1.310183	0.704507	-0.039036
Zn12	Zn	1.643516	1.037840	0.294297
O13	O	1.011780	0.316223	-0.317423
O14	O	1.345113	0.649556	0.015910
O15	O	1.678447	0.982889	0.349243
O16	O	1.152516	0.255311	-0.378360
O17	O	1.485849	0.588645	-0.045027
O18	O	1.819182	0.921978	0.288307
O19	O	1.033242	0.404122	-0.122983
O20	O	1.366575	0.737456	0.210350
O21	O	1.699908	1.070789	0.543684
O22	O	0.942986	0.142294	-0.304001
O23	O	1.276319	0.475627	0.029332
O24	O	1.609653	0.808961	0.362666
O25	O	1.152478	0.377027	-0.256666
O26	O	1.485811	0.710361	0.076668
O27	O	1.819144	1.043694	0.410001
O28	O	1.033329	0.121764	-0.405290
O29	O	1.366663	0.455098	-0.071957
O30	O	1.699996	0.788431	0.261376
O31	O	0.942936	0.302936	-0.143388
O32	O	1.276269	0.636269	0.189945
O33	O	1.609603	0.969603	0.523279
O34	O	0.858063	0.275918	-0.276941
O35	O	1.191397	0.609252	0.056393
O36	O	1.524730	0.942585	0.389726
O37	O	1.003299	0.329538	-0.491410
O38	O	1.336632	0.662872	-0.158076
O39	O	1.669965	0.996205	0.175257
O40	O	0.884063	0.356634	-0.357727
O41	O	1.217396	0.689967	-0.024394
O42	O	1.550729	1.023300	0.308940
O43	O	1.067643	0.228293	-0.511913
O44	O	1.400977	0.561627	-0.178579
O45	O	1.734310	0.894960	0.154754
O46	O	1.067555	0.510652	-0.229606
O47	O	1.400889	0.843985	0.103728
O48	O	1.734222	1.177318	0.437061
O49	O	1.003249	0.490181	-0.330796
O50	O	1.336582	0.823514	0.002537
O51	O	1.669915	1.156847	0.335870
C52	C	0.848222	0.316285	-0.317320
C53	C	1.181555	0.649618	0.016014
C54	C	1.514888	0.982952	0.349347
C55	C	0.778256	0.316328	-0.317291
C56	C	1.111589	0.649661	0.016042
C57	C	1.444922	0.982994	0.349376
C58	C	1.039256	0.530311	-0.274177
C59	C	1.372589	0.863645	0.059156
C60	C	1.705923	1.196978	0.392490
C61	C	1.051071	0.621894	-0.255704
C62	C	1.384405	0.955227	0.077630
C63	C	1.717738	1.288560	0.410963
C64	C	1.039424	0.272691	-0.532403
C65	C	1.372757	0.606024	-0.199070
C66	C	1.706091	0.939358	0.134263
C67	C	1.051204	0.254140	-0.624015
C68	C	1.384538	0.587474	-0.290682
C69	C	1.717871	0.920807	0.042652
C70	C	0.758942	0.358442	-0.359263
C71	C	1.092275	0.691775	-0.025930
C72	C	1.425609	1.025109	0.307403
C73	C	0.693202	0.358414	-0.359305
C74	C	1.026535	0.691748	-0.025971
C75	C	1.359868	1.025081	0.307362
C76	C	0.646777	0.316284	-0.317357
C77	C	0.980110	0.649617	0.015977
C78	C	1.313443	0.982950	0.349310
C79	C	0.666096	0.274160	-0.275383
C80	C	0.999430	0.607493	0.057951
C81	C	1.332763	0.940827	0.391284
C82	C	0.731836	0.274182	-0.275350
C83	C	1.065169	0.607515	0.057984
C84	C	1.398503	0.940849	0.391317
N85	N	0.533417	0.324426	-0.246570
N86	N	0.866751	0.657759	0.086763
N87	N	1.200084	0.991093	0.420096
N88	N	0.470968	0.324410	-0.246603
N89	N	0.804302	0.657743	0.086730
N90	N	1.137635	0.991076	0.420064
C91	C	0.448707	0.316214	-0.317455
C92	C	0.782040	0.649547	0.015879
C93	C	1.115373	0.982880	0.349212
N94	N	0.491255	0.308050	-0.388271
N95	N	0.824588	0.641384	-0.054937
N96	N	1.157922	0.974717	0.278396
N97	N	0.553710	0.308071	-0.388236
N98	N	0.887043	0.641405	-0.054903
N99	N	1.220377	0.974738	0.278430
C100	C	0.575492	0.316255	-0.317388
C101	C	0.908825	0.649588	0.015945
C102	C	1.242158	0.982922	0.349279
C103	C	0.358111	0.358300	-0.359476
C104	C	0.691444	0.691633	-0.026142
C105	C	1.024777	1.024966	0.307191
C106	C	0.292369	0.358266	-0.359519
C107	C	0.625702	0.691599	-0.026186
C108	C	0.959035	1.024932	0.307147
C109	C	0.265264	0.274017	-0.275589
C110	C	0.598598	0.607351	0.057744
C111	C	0.931931	0.940684	0.391078
C112	C	0.331005	0.274045	-0.275554
C113	C	0.664339	0.607379	0.057780
C114	C	0.997672	0.940712	0.391113
C115	C	0.377425	0.316191	-0.317495
C116	C	0.710758	0.649524	0.015838
C117	C	1.044092	0.982858	0.349172
C118	C	1.175977	0.316160	-0.317528
C119	C	1.509310	0.649494	0.015806
C120	C	1.842644	0.982827	0.349139
C121	C	1.245948	0.316134	-0.317572
C122	C	1.579281	0.649467	0.015761
C123	C	1.912615	0.982800	0.349094
C124	C	0.984216	0.101294	-0.360857
C125	C	1.317549	0.434628	-0.027523
C126	C	1.650883	0.767961	0.305810
C127	C	0.972470	0.009705	-0.379365
C128	C	1.305803	0.343038	-0.046032
C129	C	1.639137	0.676371	0.287301
C130	C	0.922316	0.870005	-0.458064
C131	C	1.255649	1.203339	-0.124730
C132	C	1.588982	1.536672	0.208603
C133	C	0.933416	0.956066	-0.440679
C134	C	1.266749	1.289400	-0.107346
C135	C	1.600083	1.622733	0.225988
C136	C	1.000442	0.977296	-0.335415
C137	C	1.333775	1.310629	-0.002082
C138	C	1.667109	1.643963	0.331251
C139	C	0.989350	0.891234	-0.352794
C140	C	1.322683	1.224568	-0.019461
C141	C	1.656016	1.557901	0.313872
C142	C	0.950285	0.837596	-0.414119
C143	C	1.283619	1.170929	-0.080785
C144	C	1.616952	1.504262	0.252548
C145	C	1.017320	0.858825	-0.308849
C146	C	1.350653	1.192158	0.024484
C147	C	1.683986	1.525491	0.357818
C148	C	1.006226	0.772771	-0.326224
C149	C	1.339559	1.106105	0.007110
C150	C	1.672892	1.439438	0.340443
C151	C	0.967161	0.719128	-0.387543
C152	C	1.300495	1.052461	-0.054210
C153	C	1.633828	1.385794	0.279123
C154	C	0.939191	0.751542	-0.431493
C155	C	1.272525	1.084876	-0.098160
C156	C	1.605858	1.418209	0.235173
C157	C	1.056380	0.912466	-0.247521
C158	C	1.389713	1.245799	0.085813
C159	C	1.723047	1.579132	0.419146
C160	C	1.084350	0.880056	-0.203576
C161	C	1.417683	1.213389	0.129758
C162	C	1.751017	1.546723	0.463091
C163	C	1.073260	0.794000	-0.220954
C164	C	1.406593	1.127334	0.112379
C165	C	1.739926	1.460667	0.445712
C166	C	1.034196	0.740357	-0.282274
C167	C	1.367529	1.073690	0.051059
C168	C	1.700862	1.407023	0.384393
C169	C	1.101230	0.761586	-0.177004
C170	C	1.434563	1.094919	0.156329
C171	C	1.767897	1.428252	0.489662
C172	C	1.090136	0.675532	-0.194379
C173	C	1.423469	1.008866	0.138954
C174	C	1.756802	1.342199	0.472288
C175	C	1.023102	0.654303	-0.299649
C176	C	1.356435	0.987637	0.033685
C177	C	1.689768	1.320970	0.367018
C178	C	0.922470	0.456701	-0.871938
C179	C	1.255803	0.790035	-0.538605
C180	C	1.589137	1.123368	-0.205272
C181	C	0.933551	0.439260	-0.958024
C182	C	1.266885	0.772593	-0.624690
C183	C	1.600218	1.105926	-0.291357
C184	C	1.000547	0.333842	-0.979361
C185	C	1.333881	0.667175	-0.646028
C186	C	1.667214	1.000509	-0.312695
C187	C	0.989469	0.351272	-0.893277
C188	C	1.322802	0.684605	-0.559943
C189	C	1.656136	1.017939	-0.226610
C190	C	0.950430	0.412703	-0.839571
C191	C	1.283764	0.746036	-0.506238
C192	C	1.617097	1.079370	-0.172905
C193	C	1.017430	0.307274	-0.860910
C194	C	1.350763	0.640607	-0.527576
C195	C	1.684096	0.973941	-0.194243
C196	C	1.006355	0.324706	-0.774832
C197	C	1.339688	0.658039	-0.441499
C198	C	1.673022	0.991372	-0.108165
C199	C	0.967320	0.386136	-0.721121
C200	C	1.300653	0.719469	-0.387788
C201	C	1.633986	1.052802	-0.054455
C202	C	0.939356	0.430135	-0.753494
C203	C	1.272689	0.763468	-0.420160
C204	C	1.606022	1.096802	-0.086827
C205	C	1.056472	0.245847	-0.914616
C206	C	1.389805	0.579181	-0.581282
C207	C	1.723139	0.912514	-0.247949
C208	C	1.084432	0.201849	-0.882249
C209	C	1.417766	0.535182	-0.548915
C210	C	1.751099	0.868516	-0.215582
C211	C	1.073354	0.219277	-0.796170
C212	C	1.406687	0.552610	-0.462837
C213	C	1.740021	0.885943	-0.129504
C214	C	1.034319	0.280706	-0.742460
C215	C	1.367652	0.614040	-0.409126
C216	C	1.700985	0.947373	-0.075793
C217	C	1.101318	0.175277	-0.763798
C218	C	1.434651	0.508611	-0.430465
C219	C	1.767985	0.841944	-0.097131
C220	C	1.090243	0.192709	-0.677720
C221	C	1.423576	0.526042	-0.344387
C222	C	1.756910	0.859376	-0.011054
C223	C	1.023244	0.298138	-0.656382
C224	C	1.356577	0.631472	-0.323049
C225	C	1.689911	0.964805	0.010285
C226	C	0.984272	0.359525	-0.103292
C227	C	1.317605	0.692859	0.230042
C228	C	1.650938	1.026192	0.563375
C229	C	0.972584	0.377844	-0.011727
C230	C	1.305917	0.711177	0.321606
C231	C	1.639250	1.044510	0.654939
H232	H	0.796734	0.392759	-0.393417
H233	H	1.130067	0.726092	-0.060083
H234	H	1.463401	1.059426	0.273250
H235	H	0.890663	0.506705	-0.828212
H236	H	1.223996	0.840038	-0.494878
H237	H	1.557330	1.173371	-0.161545
H238	H	0.747559	0.239885	-0.241171
H239	H	1.080892	0.573218	0.092162
H240	H	1.414225	0.906552	0.425496
Cl241	Cl	0.890088	0.684103	-0.508596
Cl242	Cl	1.223421	1.017436	-0.175263
Cl243	Cl	1.556755	1.350769	0.158071
Cl244	Cl	1.070354	1.020642	-0.225708
Cl245	Cl	1.403687	1.353976	0.107625
Cl246	Cl	1.737020	1.687309	0.440958
Cl247	Cl	0.355287	0.221101	-0.222782
Cl248	Cl	0.688620	0.554435	0.110551
Cl249	Cl	1.021953	0.887768	0.443884
H250	H	0.991297	0.610627	-0.349591
H251	H	1.324630	0.943960	-0.016258
H252	H	1.657963	1.277293	0.317075
H253	H	1.113010	0.156880	-0.651367
H254	H	1.446344	0.490213	-0.318034
H255	H	1.779677	0.823547	0.015299
H256	H	1.116154	0.923740	-0.153643
H257	H	1.449487	1.257074	0.179690
H258	H	1.782821	1.590407	0.513024
H259	H	0.910645	0.982447	-0.476479
H260	H	1.243979	1.315781	-0.143146
H261	H	1.577312	1.649114	0.190188
H262	H	1.065489	0.231658	-0.984705
H263	H	1.398823	0.564992	-0.651371
H264	H	1.732156	0.898325	-0.318038
Cl265	Cl	0.668914	0.411362	-0.412074
Cl266	Cl	1.002248	0.744696	-0.078740
Cl267	Cl	1.335581	1.078029	0.254593
H268	H	0.628293	0.239855	-0.241230
H269	H	0.961626	0.573189	0.092103
H270	H	1.294960	0.906522	0.425436
Cl271	Cl	0.953383	0.610906	-0.409578
Cl272	Cl	1.286716	0.944240	-0.076244
Cl273	Cl	1.620049	1.277573	0.257089
Cl274	Cl	1.049625	0.256619	-1.046883
Cl275	Cl	1.382958	0.589953	-0.713550
Cl276	Cl	1.716291	0.923286	-0.380216
H277	H	0.276647	0.392558	-0.393704
H278	H	0.609980	0.725891	-0.060370
H279	H	0.943313	1.059224	0.272963
H280	H	0.227465	0.239709	-0.241439
H281	H	0.560799	0.573043	0.091894
H282	H	0.894132	0.906376	0.425228
H283	H	1.133108	0.125266	-0.807536
H284	H	1.466442	0.458599	-0.474203
H285	H	1.799775	0.791933	-0.140869
H286	H	1.133031	0.805272	-0.127069
H287	H	1.466364	1.138605	0.206265
H288	H	1.799697	1.471939	0.539598
H289	H	1.116220	0.151834	-0.925986
H290	H	1.449553	0.485168	-0.592653
H291	H	1.782886	0.818501	-0.259320
Cl292	Cl	0.416470	0.411275	-0.412207
Cl293	Cl	0.749803	0.744609	-0.078873
Cl294	Cl	1.083136	1.077942	0.254460
Cl295	Cl	1.049551	1.044734	-0.258327
Cl296	Cl	1.382885	1.378067	0.075006
Cl297	Cl	1.716218	1.711400	0.408340
Cl298	Cl	0.873212	0.802566	-0.535167
Cl299	Cl	1.206545	1.135899	-0.201833
Cl300	Cl	1.539879	1.469232	0.131500
Cl301	Cl	1.125291	0.634786	-0.139126
Cl302	Cl	1.458625	0.968120	0.194208
Cl303	Cl	1.791958	1.301453	0.527541
Cl304	Cl	0.974159	0.375360	-0.588862
Cl305	Cl	1.307493	0.708694	-0.255528
Cl306	Cl	1.640826	1.042027	0.077805
Cl307	Cl	0.953400	0.408056	-0.612907
Cl308	Cl	1.286733	0.741389	-0.279573
Cl309	Cl	1.620066	1.074723	0.053760
Cl310	Cl	0.890271	0.507357	-0.685973
Cl311	Cl	1.223604	0.840690	-0.352640
Cl312	Cl	1.556938	1.174024	-0.019307
H313	H	0.910780	0.475093	-0.984372
H314	H	1.244113	0.808426	-0.651038
H315	H	1.577446	1.141760	-0.317705
