data_functionalizedCrystal
_audit_creation_method	'MofGen! by Chris Wilmer'
_symmetry_space_group_name_H-M	'P1'
_symmetry_Int_Tables_number	1
_symmetry_cell_setting	triclinic
loop_
_symmetry_equiv_pos_as_xyz
  x,y,z
_cell_length_a	6.817900
_cell_length_b	17.253917
_cell_length_c	10.992410
_cell_angle_alpha	97.468994
_cell_angle_beta	108.764651
_cell_angle_gamma	102.659311
loop_
_atom_site_label
_atom_site_type_symbol
_atom_site_fract_x
_atom_site_fract_y
_atom_site_fract_z
V1	V	-4.090111	-0.111294	-0.412788
O2	O	-4.073536	0.005348	-0.392381
O3	O	-4.043968	-0.220677	-0.422033
O4	O	-4.068075	-0.109582	-0.587312
O5	O	-4.049262	-0.106516	-0.225958
V6	V	-4.570031	-0.097342	-0.388975
O7	O	-4.359275	-0.141898	-0.465022
O8	O	-4.751065	-0.066738	-0.336741
O9	O	-4.392968	0.012041	-0.379730
O10	O	-4.704003	-0.213985	-0.409381
O11	O	-4.728277	-0.102120	-0.575805
O12	O	-4.368861	-0.099054	-0.214450
C13	C	-3.888665	-0.247343	-0.418635
C14	C	-3.932399	-0.336765	-0.427357
C15	C	-3.894626	-0.367288	-0.312538
C16	C	-3.935740	-0.451311	-0.320738
C17	C	-4.014613	-0.504808	-0.443759
C18	C	-4.052394	-0.474280	-0.558587
C19	C	-4.011295	-0.390260	-0.550386
C20	C	-4.143799	-0.757327	-0.481038
C21	C	-4.184891	-0.841353	-0.489230
C22	C	-4.068237	-0.818378	-0.251381
C23	C	-4.027130	-0.734356	-0.243190
C24	C	-4.064925	-0.703836	-0.358019
N25	N	-4.056633	-0.590693	-0.452143
N26	N	-4.022920	-0.617953	-0.349633
C27	C	-3.919414	-0.105629	-0.629464
C28	C	-3.982695	-0.104953	-0.772218
C29	C	-3.851154	-0.098794	-0.966667
C30	C	-3.785379	-0.099830	-0.818297
C31	C	-4.163510	-0.184266	-0.858013
C32	C	-4.227976	-0.183564	-1.006502
C33	C	-4.139049	-0.029986	-0.951643
C34	C	-4.068422	-0.029610	-0.802589
C35	C	-4.211613	0.038702	-0.383125
C36	C	-4.147117	0.128124	-0.374411
C37	C	-4.180863	-0.103010	-0.172292
C38	C	-4.096820	-0.103682	-0.029536
H39	H	-4.037474	-0.843237	-0.157894
Br40	Br	-3.884502	-0.492732	-0.164906
Br41	Br	-4.411771	-0.195290	-0.811226
H42	H	-4.249112	-0.884910	-0.589413
H43	H	-3.649292	-0.042801	-0.758708
H44	H	-3.830385	-0.323735	-0.212361
H45	H	-4.317408	-0.032868	-0.992799
H46	H	-3.962919	-0.690803	-0.143014
H47	H	-4.200312	-0.239366	-1.058887
H48	H	-4.116631	-0.517845	-0.658753
H49	H	-3.716556	-0.153517	-0.799365
H50	H	-4.105617	-0.240205	-0.838536
H51	H	-4.174551	-0.732488	-0.574538
H52	H	-3.814733	-0.151746	-1.020461
H53	H	-4.210737	-0.028678	-0.769975
Br54	Br	-4.062584	-0.348835	-0.706219
H55	H	-3.746404	-0.041372	-0.979204
Br56	Br	-3.850862	0.068186	-0.704620
H57	H	-4.408482	-0.190461	-1.049889
H58	H	-4.049197	0.030243	-0.965402
