data_functionalizedCrystal
_audit_creation_method	'MofGen! by Chris Wilmer'
_symmetry_space_group_name_H-M	'P1'
_symmetry_Int_Tables_number	1
_symmetry_cell_setting	triclinic
loop_
_symmetry_equiv_pos_as_xyz
  x,y,z
_cell_length_a	9.065218
_cell_length_b	9.065218
_cell_length_c	8.140239
_cell_angle_alpha	90.001686
_cell_angle_beta	89.996101
_cell_angle_gamma	94.984115
loop_
_atom_site_label
_atom_site_type_symbol
_atom_site_fract_x
_atom_site_fract_y
_atom_site_fract_z
O1	O	1.960398	-0.216355	-0.136652
O2	O	2.293731	0.116979	0.196681
O3	O	2.627065	0.450312	0.530015
O4	O	1.531113	-0.234101	-0.136645
O5	O	1.864446	0.099232	0.196689
O6	O	2.197780	0.432566	0.530022
O7	O	1.754629	-0.010585	-0.136645
O8	O	2.087962	0.322748	0.196688
O9	O	2.421295	0.656081	0.530021
O10	O	1.736882	-0.439870	-0.136652
O11	O	2.070216	-0.106537	0.196682
O12	O	2.403549	0.226796	0.530015
O13	O	1.754616	-0.010583	0.136582
O14	O	2.087950	0.322751	0.469915
O15	O	2.421283	0.656084	0.803249
O16	O	1.531101	-0.234098	0.136582
O17	O	1.864434	0.099235	0.469916
O18	O	2.197767	0.432568	0.803249
O19	O	1.960385	-0.216352	0.136575
O20	O	2.293719	0.116981	0.469908
O21	O	2.627052	0.450315	0.803242
Zn22	Zn	1.745741	-0.225225	0.179959
Zn23	Zn	2.079074	0.108109	0.513293
Zn24	Zn	2.412408	0.441442	0.846626
Zn25	Zn	1.745758	-0.225228	-0.180029
Zn26	Zn	2.079091	0.108105	0.153304
Zn27	Zn	2.412424	0.441438	0.486638
O28	O	1.736870	-0.439868	0.136575
O29	O	2.070203	-0.106534	0.469909
O30	O	2.403536	0.226799	0.803242
C31	C	1.476120	-0.232394	-0.000030
C32	C	1.809454	0.100939	0.333303
C33	C	2.142787	0.434273	0.666636
C34	C	1.312277	-0.227294	-0.000028
C35	C	1.645611	0.106039	0.333306
C36	C	1.978944	0.439372	0.666639
C37	C	1.752917	0.044403	-0.000034
C38	C	2.086250	0.377736	0.333299
C39	C	2.419584	0.711069	0.666632
C40	C	1.747817	0.208245	-0.000042
C41	C	2.081151	0.541579	0.333291
C42	C	2.414484	0.874912	0.666625
C43	C	2.015378	-0.218059	-0.000043
C44	C	2.348712	0.115275	0.333290
C45	C	2.682045	0.448608	0.666624
C46	C	2.179221	-0.223158	-0.000057
C47	C	2.512555	0.110175	0.333277
C48	C	2.845888	0.443508	0.666610
C49	C	1.738582	-0.494855	-0.000039
C50	C	2.071915	-0.161522	0.333294
C51	C	2.405248	0.171811	0.666628
C52	C	1.743681	-0.658698	-0.000042
C53	C	2.077015	-0.325365	0.333291
C54	C	2.410348	0.007968	0.666625
N55	N	1.745741	-0.225221	0.425642
N56	N	2.079074	0.108112	0.758975
N57	N	2.412407	0.441445	1.092309
N58	N	1.745770	-0.225220	-0.425712
N59	N	2.079103	0.108113	-0.092378
N60	N	2.412436	0.441447	0.240955
