data_functionalizedCrystal
_audit_creation_method	'MofGen! by Chris Wilmer'
_symmetry_space_group_name_H-M	'P1'
_symmetry_Int_Tables_number	1
_symmetry_cell_setting	triclinic
loop_
_symmetry_equiv_pos_as_xyz
  x,y,z
_cell_length_a	19.121102
_cell_length_b	25.639239
_cell_length_c	25.639233
_cell_angle_alpha	90.018747
_cell_angle_beta	92.451631
_cell_angle_gamma	87.592882
loop_
_atom_site_label
_atom_site_type_symbol
_atom_site_fract_x
_atom_site_fract_y
_atom_site_fract_z
Zn1	Zn	1.073601	-0.242371	0.329671
Zn2	Zn	1.406934	0.090963	0.663004
Zn3	Zn	1.740267	0.424296	0.996338
Zn4	Zn	1.073498	-0.329786	0.242232
Zn5	Zn	1.406831	0.003547	0.575566
Zn6	Zn	1.740165	0.336881	0.908899
Zn7	Zn	0.956164	-0.238634	0.238524
Zn8	Zn	1.289498	0.094700	0.571857
Zn9	Zn	1.622831	0.428033	0.905191
Zn10	Zn	0.956091	-0.326038	0.325912
Zn11	Zn	1.289424	0.007295	0.659245
Zn12	Zn	1.622757	0.340628	0.992578
O13	O	1.014838	-0.284207	0.284085
O14	O	1.348172	0.049126	0.617418
O15	O	1.681505	0.382459	0.950751
O16	O	1.171870	-0.257099	0.321197
O17	O	1.505203	0.076234	0.654531
O18	O	1.838537	0.409568	0.987864
O19	O	1.057921	-0.317699	0.168575
O20	O	1.391254	0.015634	0.501908
O21	O	1.724588	0.348968	0.835241
O22	O	0.971816	-0.165966	0.250636
O23	O	1.305150	0.167367	0.583969
O24	O	1.638483	0.500700	0.917303
O25	O	1.171794	-0.321323	0.256956
O26	O	1.505128	0.012011	0.590290
O27	O	1.838461	0.345344	0.923623
O28	O	1.058096	-0.168712	0.317602
O29	O	1.391430	0.164621	0.650935
O30	O	1.724763	0.497955	0.984268
O31	O	0.971717	-0.250730	0.165850
O32	O	1.305050	0.082604	0.499183
O33	O	1.638383	0.415937	0.832517
O34	O	0.857872	-0.247096	0.246991
O35	O	1.191205	0.086238	0.580324
O36	O	1.524538	0.419571	0.913657
O37	O	0.971691	-0.314935	0.399576
O38	O	1.305024	0.018398	0.732909
O39	O	1.638357	0.351732	1.066243
O40	O	0.857817	-0.311311	0.311194
O41	O	1.191151	0.022022	0.644528
O42	O	1.524484	0.355355	0.977861
O43	O	1.058025	-0.253465	0.402338
O44	O	1.391358	0.079869	0.735671
O45	O	1.724692	0.413202	1.069005
O46	O	1.057850	-0.402452	0.253311
O47	O	1.391183	-0.069119	0.586644
O48	O	1.724516	0.264215	0.919978
O49	O	0.971591	-0.399698	0.314790
O50	O	1.304924	-0.066365	0.648123
O51	O	1.638258	0.266968	0.981457
C52	C	0.832361	-0.278392	0.278282
C53	C	1.165694	0.054942	0.611616
C54	C	1.499027	0.388275	0.944949
C55	C	0.754296	-0.275916	0.275813
C56	C	1.087629	0.057417	0.609146
C57	C	1.420963	0.390750	0.942479
C58	C	0.717611	-0.308238	0.308027
C59	C	1.050945	0.025096	0.641360
C60	C	1.384278	0.358429	0.974694
C61	C	0.644261	-0.305905	0.305709
C62	C	0.977594	0.027428	0.639042
C63	C	1.310928	0.360762	0.972376
C64	C	0.607597	-0.271253	0.271173
C65	C	0.940931	0.062080	0.604507
C66	C	1.274264	0.395413	0.937840
C67	C	0.644287	-0.238929	0.238958
C68	C	0.977620	0.094405	0.572291
C69	C	1.310954	0.427738	0.905624
C70	C	0.717636	-0.241259	0.241279
C71	C	1.050969	0.092074	0.574612
C72	C	1.384303	0.425408	0.907945
C73	C	0.386132	-0.262539	0.262498
C74	C	0.719465	0.070794	0.595831
C75	C	1.052799	0.404127	0.929164
C76	C	0.312778	-0.260212	0.260178
C77	C	0.646111	0.073121	0.593511
C78	C	0.979445	0.406454	0.926844
C79	C	0.312757	-0.327189	0.326930
C80	C	0.646090	0.006145	0.660263
C81	C	0.979424	0.339478	0.993597
C82	C	0.386107	-0.329518	0.329246
C83	C	0.719440	0.003815	0.662579
C84	C	1.052774	0.337148	0.995913
C85	C	0.422791	-0.297191	0.297032
C86	C	0.756124	0.036142	0.630366
C87	C	1.089457	0.369475	0.963699
C88	C	0.532622	-0.268869	0.268802
C89	C	0.865955	0.064464	0.602135
C90	C	1.199288	0.397797	0.935468
C91	C	0.497765	-0.299573	0.299407
C92	C	0.831098	0.033760	0.632740
C93	C	1.164432	0.367093	0.966073
C94	C	1.014720	-0.420046	0.284057
C95	C	1.348054	-0.086713	0.617390
C96	C	1.681387	0.246621	0.950724
C97	C	1.014734	-0.478160	0.284065
C98	C	1.348067	-0.144827	0.617398
C99	C	1.681401	0.188506	0.950731
C100	C	1.059870	-0.839952	0.252133
C101	C	1.393204	-0.506618	0.585467
C102	C	1.726537	-0.173285	0.918800
C103	C	1.059898	-0.894557	0.252141
C104	C	1.393231	-0.561224	0.585474
C105	C	1.726564	-0.227890	0.918808
O106	O	1.098152	-0.924004	0.224962
O107	O	1.431485	-0.590671	0.558295
O108	O	1.764818	-0.257337	0.891628
N109	N	1.014962	-0.920450	0.284123
N110	N	1.348295	-0.587117	0.617457
N111	N	1.681628	-0.253783	0.950790
C112	C	0.970001	-0.891735	0.316104
C113	C	1.303334	-0.558402	0.649437
C114	C	1.636667	-0.225069	0.982770
O115	O	0.931782	-0.918774	0.343308
O116	O	1.265116	-0.585440	0.676641
O117	O	1.598449	-0.252107	1.009975
C118	C	0.969978	-0.837131	0.316098
C119	C	1.303311	-0.503798	0.649431
C120	C	1.636644	-0.170465	0.982765
C121	C	1.014911	-0.811241	0.284110
C122	C	1.348245	-0.477908	0.617443
C123	C	1.681578	-0.144574	0.950777
C124	C	1.104801	-0.814061	0.220148
C125	C	1.438134	-0.480728	0.553482
C126	C	1.771468	-0.147394	0.886815
C127	C	1.104773	-0.759460	0.220140
C128	C	1.438106	-0.426126	0.553473
C129	C	1.771439	-0.092793	0.886806
C130	C	1.059814	-0.730749	0.252116
C131	C	1.393147	-0.397416	0.585450
C132	C	1.726480	-0.064082	0.918783
C133	C	1.014883	-0.756639	0.284101
C134	C	1.348216	-0.423306	0.617435
C135	C	1.681550	-0.089973	0.950768
C136	C	0.925021	-0.808418	0.348081
C137	C	1.258354	-0.475084	0.681414
C138	C	1.591687	-0.141751	1.014747
C139	C	0.925002	-0.753810	0.348073
C140	C	1.258335	-0.420477	0.681406
C141	C	1.591668	-0.087144	1.014739
C142	C	0.969936	-0.727920	0.316085
C143	C	1.303269	-0.394586	0.649418
C144	C	1.636602	-0.061253	0.982751
C145	C	0.969896	-0.673327	0.316070
C146	C	1.303229	-0.339994	0.649403
C147	C	1.636562	-0.006661	0.982736
N148	N	1.014832	-0.647434	0.284088
N149	N	1.348165	-0.314101	0.617421
N150	N	1.681498	0.019233	0.950754
C151	C	1.059791	-0.676145	0.252111
C152	C	1.393124	-0.342811	0.585444
C153	C	1.726457	-0.009478	0.918778
C154	C	0.970054	-1.006408	0.316113
C155	C	1.303387	-0.673074	0.649447
C156	C	1.636720	-0.339741	0.982780
C157	C	0.970073	-1.061011	0.316116
C158	C	1.303406	-0.727677	0.649450
C159	C	1.636739	-0.394344	0.982783
C160	C	1.059971	-1.063828	0.252155
C161	C	1.393304	-0.730495	0.585488
C162	C	1.726637	-0.397162	0.918821
C163	C	1.059948	-1.009224	0.252149
C164	C	1.393281	-0.675891	0.585482
C165	C	1.726614	-0.342558	0.918816
C166	C	1.014990	-0.980515	0.284131
C167	C	1.348323	-0.647181	0.617464
C168	C	1.681656	-0.313848	0.950798
C169	C	1.059727	-0.561478	0.252095
C170	C	1.393061	-0.228144	0.585429
C171	C	1.726394	0.105189	0.918762
C172	C	1.059693	-0.506871	0.252088
C173	C	1.393026	-0.173538	0.585421
C174	C	1.726360	0.159795	0.918755
C175	C	0.969798	-0.504058	0.316052
C176	C	1.303131	-0.170725	0.649385
C177	C	1.636465	0.162608	0.982718
C178	C	0.969829	-0.558660	0.316057
C179	C	1.303163	-0.225327	0.649390
C180	C	1.636496	0.108007	0.982724
C181	C	1.014800	-0.587369	0.284077
C182	C	1.348133	-0.254035	0.617411
C183	C	1.681466	0.079298	0.950744
O184	O	0.931663	-0.643846	0.343237
O185	O	1.264996	-0.310513	0.676570
O186	O	1.598330	0.022821	1.009903
O187	O	1.098009	-0.649100	0.224916
O188	O	1.431343	-0.315767	0.558250
O189	O	1.764676	0.017567	0.891583
C190	C	1.198028	-0.290046	0.289910
C191	C	1.531362	0.043288	0.623243
C192	C	1.864695	0.376621	0.956577
C193	C	1.276093	-0.292534	0.292392
C194	C	1.609426	0.040800	0.625726
C195	C	1.942760	0.374133	0.959059
C196	C	1.014861	-0.284199	0.420458
C197	C	1.348194	0.049135	0.753792
C198	C	1.681528	0.382468	1.087125
C199	C	1.014871	-0.284195	0.478573
C200	C	1.348204	0.049138	0.811906
C201	C	1.681537	0.382472	1.145239
C202	C	1.014976	-0.147839	0.284125
C203	C	1.348309	0.185495	0.617458
C204	C	1.681643	0.518828	0.950791
C205	C	1.015035	-0.089726	0.284142
C206	C	1.348368	0.243607	0.617475
C207	C	1.681701	0.576940	0.950808
C208	C	1.014856	-0.284179	0.148243
C209	C	1.348190	0.049154	0.481576
C210	C	1.681523	0.382488	0.814909
C211	C	1.014983	-0.284040	0.090133
C212	C	1.348316	0.049294	0.423466
C213	C	1.681649	0.382627	0.756800
C214	C	1.059882	-0.252090	0.840382
C215	C	1.393215	0.081243	1.173715
C216	C	1.726549	0.414577	1.507048
C217	C	1.059891	-0.252076	0.894986
C218	C	1.393224	0.081257	1.228320
C219	C	1.726557	0.414591	1.561653
O220	O	1.098104	-0.224839	0.924450
O221	O	1.431437	0.108495	1.257784
O222	O	1.764771	0.441828	1.591117
N223	N	1.014948	-0.284075	0.920858
N224	N	1.348281	0.049258	1.254191
N225	N	1.681615	0.382592	1.587525
C226	C	0.969989	-0.316087	0.892122
C227	C	1.303322	0.017247	1.225455
C228	C	1.636656	0.350580	1.558789
O229	O	0.931762	-0.343303	0.919142
O230	O	1.265096	-0.009969	1.252475
O231	O	1.598429	0.323364	1.585808
C232	C	0.969977	-0.316098	0.837518
C233	C	1.303311	0.017236	1.170852
C234	C	1.636644	0.350569	1.504185
C235	C	1.014928	-0.284100	0.811650
C236	C	1.348261	0.049233	1.144983
C237	C	1.681594	0.382566	1.478316
C238	C	1.104828	-0.220095	0.814513
C239	C	1.438161	0.113239	1.147846
C240	C	1.771495	0.446572	1.481180
C241	C	1.104820	-0.220110	0.759912
C242	C	1.438153	0.113223	1.093245
C243	C	1.771487	0.446557	1.426579
C244	C	1.059866	-0.252120	0.731180
C245	C	1.393199	0.081213	1.064513
C246	C	1.726533	0.414547	1.397847
C247	C	1.014920	-0.284115	0.757049
C248	C	1.348253	0.049218	1.090382
C249	C	1.681586	0.382551	1.423715
C250	C	0.925015	-0.348106	0.808783
C251	C	1.258348	-0.014773	1.142116
C252	C	1.591682	0.318561	1.475450
C253	C	0.925007	-0.348114	0.754176
C254	C	1.258340	-0.014781	1.087509
C255	C	1.591674	0.318553	1.420842
C256	C	0.969957	-0.316117	0.728307
C257	C	1.303291	0.017217	1.061641
C258	C	1.636624	0.350550	1.394974
C259	C	0.969958	-0.316141	0.673716
C260	C	1.303291	0.017193	1.007049
C261	C	1.636624	0.350526	1.340383
N262	N	1.014900	-0.284141	0.647844
N263	N	1.348233	0.049192	0.981178
N264	N	1.681567	0.382525	1.314511
C265	C	1.059854	-0.252131	0.676576
C266	C	1.393188	0.081202	1.009910
C267	C	1.726521	0.414536	1.343243
C268	C	0.970016	-0.316060	1.006793
C269	C	1.303349	0.017273	1.340127
C270	C	1.636683	0.350606	1.673460
C271	C	0.970031	-0.316052	1.061396
C272	C	1.303364	0.017281	1.394730
C273	C	1.636697	0.350614	1.728063
C274	C	1.059932	-0.252041	1.064257
C275	C	1.393265	0.081293	1.397590
C276	C	1.726598	0.414626	1.730924
C277	C	1.059920	-0.252052	1.009653
C278	C	1.393253	0.081282	1.342986
C279	C	1.726587	0.414615	1.676320
C280	C	1.014959	-0.284061	0.980922
C281	C	1.348292	0.049272	1.314255
C282	C	1.681625	0.382606	1.647588
C283	C	1.059835	-0.252165	0.561911
C284	C	1.393168	0.081168	0.895244
C285	C	1.726501	0.414501	1.228577
C286	C	1.059825	-0.252185	0.507305
C287	C	1.393158	0.081148	0.840638
C288	C	1.726491	0.414482	1.173972
C289	C	0.969922	-0.316194	0.504449
C290	C	1.303255	0.017139	0.837782
C291	C	1.636588	0.350472	1.171116
C292	C	0.969934	-0.316177	0.559050
C293	C	1.303267	0.017156	0.892383
C294	C	1.636601	0.350490	1.225717
C295	C	1.014893	-0.284158	0.587780
C296	C	1.348226	0.049175	0.921113
C297	C	1.681559	0.382508	1.254446
O298	O	0.931762	-0.343362	0.644218
O299	O	1.265095	-0.010029	0.977551
O300	O	1.598428	0.323305	1.310884
O301	O	1.098068	-0.224915	0.649549
O302	O	1.431401	0.108419	0.982883
O303	O	1.764735	0.441752	1.316216
H304	H	0.282881	-0.353506	0.353157
H305	H	0.616215	-0.020173	0.686491
H306	H	0.949548	0.313160	1.019824
H307	H	0.614430	-0.210712	0.210840
H308	H	0.947763	0.122621	0.544174
H309	H	1.281096	0.455955	0.877507
H310	H	0.933438	-0.983034	0.342155
H311	H	1.266771	-0.649701	0.675488
H312	H	1.600104	-0.316368	1.008822
H313	H	0.282928	-0.231989	0.232058
H314	H	0.616262	0.101344	0.565391
H315	H	0.949595	0.434678	0.898725
N316	N	0.876565	-0.836332	0.382591
N317	N	1.209898	-0.502999	0.715924
N318	N	1.543231	-0.169665	1.049258
H319	H	0.883395	-0.875282	0.377750
H320	H	1.216729	-0.541948	0.711084
H321	H	1.550062	-0.208615	1.044417
H322	H	0.826407	-0.825232	0.372833
H323	H	1.159740	-0.491899	0.706166
H324	H	1.493073	-0.158565	1.039500
H325	H	1.096431	-0.226128	0.486245
H326	H	1.429765	0.107205	0.819579
H327	H	1.763098	0.440538	1.152912
N328	N	0.425692	-0.227666	0.227763
N329	N	0.759026	0.105667	0.561096
N330	N	1.092359	0.439000	0.894429
H331	H	0.391334	-0.205361	0.205535
H332	H	0.724667	0.127973	0.538868
H333	H	1.058001	0.461306	0.872201
H334	H	0.456105	-0.249868	0.204487
H335	H	0.789439	0.083465	0.537820
H336	H	1.122772	0.416798	0.871153
N337	N	0.876512	-0.722845	0.382570
N338	N	1.209845	-0.389512	0.715903
N339	N	1.543179	-0.056178	1.049236
H340	H	0.848054	-0.747536	0.402832
H341	H	1.181387	-0.414202	0.736166
H342	H	1.514721	-0.080869	1.069499
H343	H	0.844015	-0.699191	0.360234
H344	H	1.177348	-0.365857	0.693567
H345	H	1.510681	-0.032524	1.026900
H346	H	0.747504	-0.214937	0.215049
H347	H	1.080837	0.118397	0.548382
H348	H	1.414170	0.451730	0.881716
H349	H	0.747458	-0.336457	0.336148
H350	H	1.080791	-0.003123	0.669481
H351	H	1.414124	0.330210	1.002815
N352	N	0.921438	-0.350684	0.586943
N353	N	1.254771	-0.017351	0.920276
N354	N	1.588104	0.315982	1.253610
H355	H	0.888914	-0.328386	0.608556
H356	H	1.222247	0.004947	0.941889
H357	H	1.555580	0.338281	1.275223
H358	H	0.949987	-0.375818	0.610482
H359	H	1.283320	-0.042485	0.943816
H360	H	1.616654	0.290849	1.277149
H361	H	1.141416	-0.837432	0.194109
H362	H	1.474749	-0.504099	0.527442
H363	H	1.808083	-0.170765	0.860776
N364	N	0.921359	-0.586589	0.350551
N365	N	1.254693	-0.253255	0.683884
N366	N	1.588026	0.080078	1.017218
H367	H	0.892872	-0.560112	0.370805
H368	H	1.226205	-0.226779	0.704138
H369	H	1.559539	0.106554	1.037472
H370	H	0.949939	-0.610117	0.375678
H371	H	1.283272	-0.276783	0.709011
H372	H	1.616606	0.056550	1.042345
H373	H	0.933191	-0.480674	0.342085
H374	H	1.266524	-0.147340	0.675418
H375	H	1.599857	0.185993	1.008752
H376	H	0.614396	-0.332225	0.331941
H377	H	0.947729	0.001108	0.665274
H378	H	1.281062	0.334442	0.998608
N379	N	1.153249	-0.731539	0.185647
N380	N	1.486582	-0.398206	0.518981
N381	N	1.819916	-0.064873	0.852314
H382	H	1.142388	-0.740723	0.147938
H383	H	1.475722	-0.407389	0.481272
H384	H	1.809055	-0.074056	0.814605
H385	H	1.203403	-0.742616	0.195448
H386	H	1.536736	-0.409282	0.528781
H387	H	1.870069	-0.075949	0.862114
H388	H	0.415954	-0.357736	0.357367
H389	H	0.749287	-0.024403	0.690701
H390	H	1.082621	0.308930	1.024034
H391	H	1.096581	-1.087215	0.226119
H392	H	1.429915	-0.753881	0.559453
H393	H	1.763248	-0.420548	0.892786
N394	N	0.537302	-0.336949	0.336654
N395	N	0.870636	-0.003616	0.669987
N396	N	1.203969	0.329718	1.003321
H397	H	0.567765	-0.316707	0.361886
H398	H	0.901098	0.016627	0.695219
H399	H	1.234432	0.349960	1.028553
H400	H	0.567664	-0.362101	0.316281
H401	H	0.900997	-0.028767	0.649614
H402	H	1.234331	0.304566	0.982947
H403	H	1.096442	-0.226091	0.585296
H404	H	1.429775	0.107242	0.918629
H405	H	1.763109	0.440576	1.251962
H406	H	1.141422	-0.194053	0.738855
H407	H	1.474755	0.139280	1.072188
H408	H	1.808089	0.472613	1.405521
N409	N	0.921597	-1.088932	0.350608
N410	N	1.254930	-0.755599	0.683941
N411	N	1.588263	-0.422265	1.017275
H412	H	0.893113	-1.062453	0.370861
H413	H	1.226446	-0.729120	0.704194
H414	H	1.559779	-0.395787	1.037528
H415	H	0.950169	-1.112464	0.375736
H416	H	1.283502	-0.779131	0.709069
H417	H	1.616835	-0.445797	1.042403
H418	H	1.141435	-0.194025	0.837901
H419	H	1.474769	0.139308	1.171234
H420	H	1.808102	0.472641	1.504568
N421	N	0.876532	-0.382617	0.836675
N422	N	1.209865	-0.049284	1.170009
N423	N	1.543198	0.284049	1.503342
H424	H	0.848053	-0.402891	0.810180
H425	H	1.181386	-0.069558	1.143514
H426	H	1.514720	0.263775	1.476847
H427	H	0.844053	-0.360293	0.858298
H428	H	1.177387	-0.026960	1.191631
H429	H	1.510720	0.306374	1.524965
N430	N	1.108405	-0.217509	1.095259
N431	N	1.441738	0.115825	1.428592
N432	N	1.775072	0.449158	1.761925
H433	H	1.097527	-0.179808	1.085415
H434	H	1.430860	0.153525	1.418748
H435	H	1.764194	0.486859	1.752081
H436	H	1.158563	-0.227266	1.087347
H437	H	1.491896	0.106067	1.420681
H438	H	1.825230	0.439401	1.754014
N439	N	1.108401	-0.217541	0.981754
N440	N	1.441735	0.115792	1.315087
N441	N	1.775068	0.449126	1.648421
H442	H	1.136880	-0.197264	1.008246
H443	H	1.470214	0.136069	1.341579
H444	H	1.803547	0.469403	1.674913
H445	H	1.079835	-0.192437	0.958195
H446	H	1.413168	0.140897	1.291528
H447	H	1.746502	0.474230	1.624861
H448	H	0.933435	-0.342114	1.082454
H449	H	1.266769	-0.008780	1.415787
H450	H	1.600102	0.324553	1.749121
H451	H	1.096537	-0.988148	0.226102
H452	H	1.429870	-0.654814	0.559435
H453	H	1.763204	-0.321481	0.892769
N454	N	0.921515	-0.350583	0.975806
N455	N	1.254848	-0.017250	1.309139
N456	N	1.588181	0.316084	1.642473
H457	H	0.893047	-0.370849	1.000485
H458	H	1.226380	-0.037515	1.333818
H459	H	1.559713	0.295818	1.667152
H460	H	0.950064	-0.375698	0.954052
H461	H	1.283397	-0.042365	1.287386
H462	H	1.616731	0.290969	1.620719
H463	H	1.096348	-0.584846	0.226056
H464	H	1.429681	-0.251513	0.559389
H465	H	1.763015	0.081821	0.892722
H466	H	0.888386	-0.374175	0.730785
H467	H	1.221719	-0.040841	1.064118
H468	H	1.555052	0.292492	1.397452
H469	H	0.502762	-0.240657	0.240682
H470	H	0.836095	0.092676	0.574015
H471	H	1.169428	0.426010	0.907348
H472	H	1.096283	-0.485793	0.226038
H473	H	1.429617	-0.152460	0.559371
H474	H	1.762950	0.180874	0.892704
N475	N	0.921439	-0.350720	0.473454
N476	N	1.254772	-0.017386	0.806788
N477	N	1.588106	0.315947	1.140121
H478	H	0.928256	-0.345869	0.434939
H479	H	1.261590	-0.012536	0.768272
H480	H	1.594923	0.320798	1.101605
H481	H	0.871289	-0.340979	0.481403
H482	H	1.204622	-0.007645	0.814736
H483	H	1.537956	0.325688	1.148070
