data_functionalizedCrystal
_audit_creation_method	'MofGen! by Chris Wilmer'
_symmetry_space_group_name_H-M	'P1'
_symmetry_Int_Tables_number	1
_symmetry_cell_setting	triclinic
loop_
_symmetry_equiv_pos_as_xyz
  x,y,z
_cell_length_a	23.532407
_cell_length_b	10.489741
_cell_length_c	9.565339
_cell_angle_alpha	90.000516
_cell_angle_beta	90.001814
_cell_angle_gamma	83.693926
loop_
_atom_site_label
_atom_site_type_symbol
_atom_site_fract_x
_atom_site_fract_y
_atom_site_fract_z
O1	O	0.756285	0.154816	-0.116085
O2	O	0.590570	0.177218	-0.116126
O3	O	0.677199	-0.019706	-0.116096
O4	O	0.669657	0.351741	-0.116115
O5	O	0.677192	-0.019694	0.116424
O6	O	0.590563	0.177231	0.116394
O7	O	0.756278	0.154829	0.116435
Zn8	Zn	0.673420	0.166032	0.153332
Zn9	Zn	0.673429	0.166015	-0.153023
O10	O	0.669650	0.351753	0.116406
C11	C	0.676625	-0.067213	0.000163
C12	C	0.674921	-0.208785	0.000160
C13	C	0.569347	0.176654	0.000129
C14	C	0.506119	0.174939	0.000114
C15	C	0.619802	-0.275093	0.000136
C16	C	0.645837	-0.368075	0.114787
C17	C	0.645857	-0.368062	-0.114459
C18	C	0.700978	-0.299903	0.114906
C19	C	0.700991	-0.299880	-0.114444
C20	C	0.727065	-0.392836	0.000235
C21	C	0.107717	0.280717	0.000172
C22	C	0.048306	0.279124	0.000180
O23	O	0.012211	0.377181	0.000226
N24	N	0.024904	0.162052	0.000184
C25	C	0.060916	0.046567	0.000193
O26	O	0.035555	-0.053158	0.000198
C27	C	0.120326	0.048161	0.000194
C28	C	0.143724	0.165240	0.000177
C29	C	0.131116	0.397786	0.000156
C30	C	0.190522	0.399379	0.000144
C31	C	0.226530	0.283902	0.000149
C32	C	0.203131	0.166833	0.000165
C33	C	0.156337	-0.067323	0.000213
C34	C	0.215750	-0.065718	0.000216
C35	C	0.239148	0.051361	0.000198
C36	C	0.298545	0.052949	0.000159
N37	N	0.321947	0.170020	0.000155
C38	C	0.285940	0.285497	0.000151
C39	C	-0.063849	0.043227	0.000192
C40	C	-0.123257	0.041631	0.000181
C41	C	-0.135863	0.274188	0.000171
C42	C	-0.076454	0.275783	0.000173
C43	C	-0.040447	0.160298	0.000189
C44	C	0.410699	0.288833	0.000126
C45	C	0.470111	0.290416	0.000109
C46	C	0.482712	0.057859	0.000126
C47	C	0.423305	0.056275	0.000136
C48	C	0.387299	0.171773	0.000140
O49	O	0.334675	-0.045057	0.000119
O50	O	0.311308	0.385205	0.000164
C51	C	0.777502	0.155393	0.000177
C52	C	0.840730	0.157108	0.000184
C53	C	0.670223	0.399259	0.000143
C54	C	0.671927	0.540832	0.000137
N55	N	0.673418	0.166042	0.362412
N56	N	0.673435	0.165995	-0.362102
C57	C	0.633343	0.257083	0.453601
C58	C	0.684905	0.281179	0.546791
C59	C	0.621878	0.141955	0.546777
C60	C	0.725006	0.190195	0.453550
C61	C	0.661945	0.050921	0.453527
C62	C	0.713544	0.074968	0.546676
H63	H	0.574484	-0.223935	0.000241
C64	C	0.521786	-0.067549	-0.000156
C65	C	0.511153	-0.138094	-0.119789
C66	C	0.547145	-0.253617	-0.120097
H67	H	0.514679	-0.115733	0.080841
H68	H	0.560526	-0.049873	-0.000235
H69	H	0.472422	-0.155774	-0.119697
H70	H	0.518264	-0.089949	-0.200806
H71	H	0.585885	-0.235941	-0.120176
H72	H	0.540034	-0.301790	-0.039094
H73	H	0.539939	-0.301491	-0.201272
H74	H	-0.142303	-0.053707	0.000174
H75	H	0.578285	0.121603	0.587731
H76	H	0.101804	0.491827	0.000157
H77	H	0.772424	-0.443768	0.000310
H78	H	0.381389	0.382882	0.000134
C79	C	0.697877	0.410850	0.601708
C80	C	0.698235	0.408704	0.748062
C81	C	0.710184	0.528130	0.798696
H82	H	0.669389	0.475567	0.569999
H83	H	0.734236	0.428589	0.568500
H84	H	0.661881	0.390979	0.781256
H85	H	0.726723	0.344012	0.779808
H86	H	0.746544	0.545870	0.765489
H87	H	0.681695	0.592838	0.766978
H88	H	0.710434	0.526687	0.898002
C89	C	0.588116	0.359744	0.399285
C90	C	0.534326	0.335453	0.448572
C91	C	0.492655	0.430007	0.398577
H92	H	0.588118	0.358623	0.299987
H93	H	0.596332	0.441488	0.431262
H94	H	0.526113	0.253730	0.416587
H95	H	0.534307	0.336585	0.547864
H96	H	0.500871	0.511751	0.430554
H97	H	0.492662	0.428879	0.299280
H98	H	0.456155	0.413546	0.432021
C99	C	0.783086	0.217640	0.398917
C100	C	0.782380	0.217476	0.252553
C101	C	0.835862	0.242819	0.202174
H102	H	0.811646	0.153421	0.431351
H103	H	0.791278	0.299181	0.431577
H104	H	0.774194	0.135945	0.219906
H105	H	0.753831	0.281694	0.220081
H106	H	0.844054	0.324360	0.234834
H107	H	0.864418	0.178596	0.234618
H108	H	0.835388	0.242722	0.102862
H109	H	-0.057407	0.371119	0.000166
H110	H	0.622530	-0.398256	-0.211397
C111	C	0.495543	0.417502	-0.000206
C112	C	0.529262	0.425220	-0.119863
C113	C	0.552689	0.542277	-0.120213
H114	H	0.518501	0.423103	0.080775
H115	H	0.465600	0.486078	-0.000282
H116	H	0.559201	0.356664	-0.119774
H117	H	0.506317	0.419643	-0.200863
H118	H	0.522746	0.610853	-0.120289
H119	H	0.575644	0.547867	-0.039226
H120	H	0.575565	0.547535	-0.201404
C121	C	0.758877	-0.027567	0.600764
C122	C	0.812722	-0.001764	0.553299
C123	C	0.854497	-0.096174	0.603116
H124	H	0.751110	-0.109183	0.567450
H125	H	0.758463	-0.027479	0.700082
H126	H	0.813135	-0.001865	0.454002
H127	H	0.820507	0.079836	0.586610
H128	H	0.854083	-0.096086	0.702434
H129	H	0.846725	-0.177784	0.569798
H130	H	0.891037	-0.078673	0.570929
C131	C	0.648853	-0.078759	0.398923
C132	C	0.594806	-0.103452	0.446047
C133	C	0.582716	-0.222892	0.395755
H134	H	0.676900	-0.143734	0.432144
H135	H	0.649259	-0.078046	0.299609
H136	H	0.594405	-0.104175	0.545340
H137	H	0.566747	-0.038508	0.412830
H138	H	0.583121	-0.222179	0.296441
H139	H	0.610766	-0.287856	0.428979
H140	H	0.546042	-0.239656	0.427710
C141	C	-0.024729	-0.082128	0.000472
C142	C	0.009740	-0.088036	0.120112
C143	C	0.045774	-0.203499	0.120427
H144	H	-0.001241	-0.086469	-0.080521
H145	H	-0.047160	-0.152108	0.000546
H146	H	0.032168	-0.018075	0.120026
H147	H	-0.013734	-0.083717	0.201124
H148	H	0.023344	-0.273479	0.120501
H149	H	0.069259	-0.207830	0.039429
H150	H	0.069162	-0.207529	0.201607
C151	C	0.732001	-0.259567	0.244249
C152	C	0.733203	-0.126421	0.242799
C153	C	0.761768	-0.089213	0.361935
H154	H	0.770011	-0.300818	0.244713
H155	H	0.712543	-0.283378	0.325593
H156	H	0.752662	-0.102623	0.161477
H157	H	0.695202	-0.085139	0.242356
H158	H	0.742310	-0.113024	0.443279
H159	H	0.799775	-0.130472	0.362389
H160	H	0.762582	0.001130	0.360974
C161	C	0.397821	-0.070746	0.000363
C162	C	0.364080	-0.078437	0.119986
C163	C	0.340595	-0.195425	0.120248
H164	H	0.427718	-0.139397	0.000431
H165	H	0.374869	-0.076224	-0.080671
H166	H	0.387031	-0.072972	0.200998
H167	H	0.334174	-0.009813	0.119943
H168	H	0.317643	-0.200903	0.039214
H169	H	0.370496	-0.264067	0.120312
H170	H	0.317695	-0.200654	0.201403
H171	H	0.622512	-0.398306	0.211705
H172	H	0.209568	0.494717	0.000129
C173	C	-0.174869	0.399704	0.000109
C174	C	-0.141667	0.502585	0.000069
C175	C	-0.177581	0.618220	-0.000007
H176	H	-0.198316	0.404091	0.081176
H177	H	-0.198302	0.403980	-0.081005
H178	H	-0.118245	0.498311	0.081175
H179	H	-0.118222	0.498241	-0.080991
H180	H	-0.201013	0.622496	-0.081121
H181	H	-0.201026	0.622593	0.081061
H182	H	-0.155058	0.688038	-0.000047
C183	C	0.130913	-0.194406	-0.000049
C184	C	0.097185	-0.202169	-0.119687
C185	C	0.073765	-0.319235	-0.119984
H186	H	0.107963	-0.199989	0.080945
H187	H	0.160860	-0.262974	-0.000114
H188	H	0.067243	-0.133620	-0.119609
H189	H	0.120122	-0.196609	-0.200700
H190	H	0.103712	-0.387803	-0.120050
H191	H	0.050818	-0.324807	-0.038985
H192	H	0.050882	-0.324523	-0.201163
H193	H	0.245065	-0.159762	0.000230
H194	H	0.724296	-0.269615	-0.211367
