data_functionalizedCrystal
_audit_creation_method	'MofGen! by Chris Wilmer'
_symmetry_space_group_name_H-M	'P1'
_symmetry_Int_Tables_number	1
_symmetry_cell_setting	triclinic
loop_
_symmetry_equiv_pos_as_xyz
  x,y,z
_cell_length_a	20.919309
_cell_length_b	17.052993
_cell_length_c	17.052832
_cell_angle_alpha	62.965436
_cell_angle_beta	77.702601
_cell_angle_gamma	64.684431
loop_
_atom_site_label
_atom_site_type_symbol
_atom_site_fract_x
_atom_site_fract_y
_atom_site_fract_z
Zr1	Zr	0.747870	0.661152	0.075517
O2	O	0.685449	0.803606	-0.024598
O3	O	0.753774	0.523233	0.084988
O4	O	0.802595	0.656764	-0.050931
O5	O	0.613168	0.671956	0.242676
O6	O	0.910053	0.648144	-0.047565
O7	O	0.636628	0.670075	0.111321
O8	O	0.822721	0.409282	0.195570
O9	O	0.700500	0.910818	-0.000459
O10	O	0.852472	0.571849	0.117177
O11	O	0.754770	0.579686	0.212693
O12	O	0.812250	0.736901	0.052666
O13	O	0.714548	0.744737	0.148181
Zr14	Zr	0.881838	0.650405	0.290382
Zr15	Zr	0.919253	0.647406	0.080887
Zr16	Zr	0.710455	0.664152	0.285012
Zr17	Zr	0.771875	0.832144	0.114016
Zr18	Zr	0.857833	0.479414	0.251883
O19	O	0.875934	0.788325	0.280911
O20	O	0.929133	0.784060	-0.016963
O21	O	0.632249	0.807871	0.273277
O22	O	0.944259	0.507952	0.390497
O23	O	0.997459	0.503687	0.092622
O24	O	0.700574	0.527498	0.382863
O25	O	1.016539	0.639602	0.123224
O26	O	0.827113	0.654794	0.416831
O27	O	0.719655	0.663413	0.413464
O28	O	0.993080	0.641483	0.254578
O29	O	0.836726	0.899891	0.003809
O30	O	0.792981	0.411666	0.362090
O31	O	0.929208	0.400740	0.366358
O32	O	0.958948	0.398355	0.199838
O33	O	0.670760	0.913203	0.166062
O34	O	0.806986	0.902276	0.170330
O35	O	0.817457	0.574657	0.313234
O36	O	0.915159	0.566821	0.217718
O37	O	0.874937	0.731872	0.153206
O38	O	0.777235	0.739708	0.248722
C39	C	0.784827	0.441895	0.134793
C40	C	0.774637	0.369304	0.118450
C41	C	0.731860	0.397989	0.049848
C42	C	0.722285	0.329793	0.034484
C43	C	0.755480	0.232905	0.087724
C44	C	0.798253	0.204219	0.156331
C45	C	0.807834	0.272422	0.171692
C46	C	0.831454	0.107338	0.209568
C47	C	0.874227	0.078652	0.278175
C48	C	0.883806	0.146850	0.293534
C49	C	0.850611	0.243737	0.240294
C50	C	0.821873	0.039136	0.194207
C51	C	0.897847	-0.086432	0.316051
C52	C	0.907423	-0.018235	0.331415
C53	C	0.600480	0.672974	0.176233
C54	C	0.527723	0.678810	0.173954
C55	C	0.514536	0.595399	0.206553
C56	C	0.446172	0.600888	0.204410
C57	C	0.390997	0.689789	0.169662
C58	C	0.404186	0.773207	0.137064
C59	C	0.472548	0.767717	0.139212
C60	C	0.183536	0.710675	0.161495
C61	C	0.115171	0.716159	0.159346
C62	C	0.157162	0.543839	0.226695
C63	C	0.225524	0.538357	0.228836
C64	C	0.238707	0.621775	0.196241
C65	C	0.321117	0.695402	0.167469
C66	C	0.308584	0.616161	0.198441
C67	C	1.029228	0.638584	0.189666
C68	C	1.101984	0.632748	0.191945
C69	C	0.861654	0.652027	-0.079097
C70	C	0.877538	0.650753	-0.168033
C71	C	0.844880	0.869663	0.231106
C72	C	0.855071	0.942253	0.247450
C73	C	0.685505	0.666149	-0.426141
C74	C	0.670581	0.667340	-0.342579
C75	C	0.722319	0.663194	-0.298938
C76	C	0.788983	0.657856	-0.338868
C77	C	0.803910	0.656658	-0.422435
C78	C	0.840724	0.653702	-0.295233
C79	C	0.907388	0.648364	-0.335162
C80	C	0.922312	0.647167	-0.418722
C81	C	0.870574	0.651313	-0.462362
C82	C	0.825797	0.654900	-0.211665
C83	C	0.944203	0.645409	-0.207960
C84	C	0.959126	0.644218	-0.291522
C85	C	0.768053	0.659531	0.444996
C86	C	0.752169	0.660805	0.533932
C87	C	0.999201	0.424700	0.141510
C88	C	1.061767	0.346273	0.127445
C89	C	0.738027	0.445647	0.396840
C90	C	0.711952	0.374330	0.469432
C91	C	0.952401	0.428452	0.403556
C92	C	0.999083	0.351299	0.478428
C93	C	0.677307	0.883106	-0.037657
C94	C	0.630625	0.960259	-0.112528
C95	C	0.630506	0.886858	0.224390
C96	C	0.567940	0.965284	0.238454
C97	C	0.891681	0.865911	-0.030940
C98	C	0.917755	0.937227	-0.103533
C99	C	1.058429	0.312068	0.068350
C100	C	1.117214	0.238388	0.055118
C101	C	1.179336	0.198910	0.100986
C102	C	1.182674	0.233122	0.160083
C103	C	1.123891	0.306805	0.173310
C104	C	0.732428	0.338214	0.556012
C105	C	0.707925	0.271215	0.624230
C106	C	0.662951	0.240327	0.605866
C107	C	0.642472	0.276450	0.519277
C108	C	0.666971	0.343453	0.451062
C109	C	1.072012	0.310977	0.463730
C110	C	1.115884	0.238492	0.534074
C111	C	1.086825	0.206327	0.619114
C112	C	1.013889	0.246657	0.633811
C113	C	0.970019	0.319145	0.563469
C114	C	0.557697	1.000590	-0.097829
C115	C	0.513827	1.073095	-0.168169
C116	C	0.542887	1.105263	-0.253208
C117	C	0.615822	1.064929	-0.267906
C118	C	0.659691	0.992430	-0.197566
C119	C	0.571281	0.999496	0.297542
C120	C	0.512503	1.073195	0.310755
C121	C	0.450381	1.112676	0.264885
C122	C	0.447042	1.078461	0.205791
C123	C	0.505822	1.004768	0.192573
C124	C	0.962729	0.968093	-0.085141
C125	C	0.987242	1.035093	-0.153343
C126	C	0.966776	1.071230	-0.239935
C127	C	0.921799	1.040358	-0.258326
C128	C	0.897292	0.973355	-0.190126
H129	H	0.687459	0.353155	-0.021376
H130	H	1.122555	0.147303	0.676384
O131	O	0.435162	1.116575	-0.152311
H132	H	0.422329	1.082005	-0.081364
O133	O	0.495570	1.183470	-0.329070
H134	H	0.439976	1.206103	-0.304554
O135	O	0.386979	1.192154	0.279145
H136	H	0.341490	1.169325	0.304136
H137	H	0.986736	1.125789	-0.295460
H138	H	0.979400	0.938680	-0.014639
H139	H	0.918642	0.123486	0.349392
O140	O	0.526339	0.965911	-0.006115
H141	H	0.537667	0.888920	0.018375
O142	O	0.848778	0.940068	-0.209960
H143	H	0.799727	1.001913	-0.239658
H144	H	1.114483	0.210543	0.006996
O145	O	1.103364	0.345662	0.372013
H146	H	1.092010	0.422661	0.347522
H147	H	0.146420	0.475926	0.253232
O148	O	0.431949	0.510924	0.239555
H149	H	0.481804	0.448183	0.264063
H150	H	1.175270	0.205662	0.522092
O151	O	0.899719	1.079348	-0.351721
H152	H	0.924312	1.131134	-0.396044
O153	O	0.891357	0.362628	0.579323
H154	H	0.862737	0.351681	0.539715
H155	H	0.747683	0.177380	0.075208
H156	H	0.787047	0.062501	0.138346
O157	O	0.994216	0.641407	-0.461781
H158	H	1.019556	0.576210	-0.474577
H159	H	1.227196	0.138912	0.090208
H160	H	0.990238	0.220458	0.703060
H161	H	0.719072	0.959592	-0.209546
O162	O	0.647161	1.099622	-0.359630
H163	H	0.604397	1.156801	-0.406065
O164	O	0.638285	0.956934	0.347007
H165	H	0.630726	0.993126	0.390300
H166	H	0.769047	0.363355	0.570982
O167	O	0.516107	1.110079	0.374505
H168	H	0.569175	1.070227	0.404191
H169	H	0.396455	1.110617	0.168447
O170	O	0.502212	0.967861	0.128849
H171	H	0.449136	1.007694	0.099186
O172	O	1.035748	1.068387	-0.133498
H173	H	1.045849	1.032009	-0.061825
H174	H	0.070246	0.788557	0.131047
O175	O	0.696062	0.502481	-0.007573
H176	H	0.709910	0.545081	0.014638
H177	H	0.986333	0.642030	-0.172427
H178	H	0.942249	-0.041580	0.387275
O179	O	0.860950	0.317303	0.256841
H180	H	0.808946	0.365458	0.271864
H181	H	0.559457	0.523006	0.234852
O182	O	0.933653	-0.190927	0.373485
H183	H	0.919798	-0.233530	0.351285
H184	H	0.616304	0.671684	-0.310071
H185	H	0.270449	0.465964	0.257112
H186	H	0.724608	0.241811	0.694729
H187	H	0.643007	0.185768	0.661419
H188	H	0.194263	0.778600	0.134937
H189	H	0.359255	0.845592	0.108777
H190	H	0.483279	0.835639	0.112679
O191	O	0.593974	0.243107	0.499491
H192	H	0.544907	0.304920	0.469798
O193	O	0.368094	0.520277	0.235907
H194	H	0.390585	0.514428	0.292602
H195	H	0.276186	0.767786	0.139178
H196	H	0.710165	0.664163	-0.230898
O197	O	0.753904	0.660645	-0.168593
H198	H	0.728569	0.725830	-0.155777
O199	O	0.629706	0.670623	-0.473207
H200	H	0.651285	0.668898	-0.538023
O201	O	0.886668	0.650040	-0.552498
H202	H	0.880749	0.587356	-0.550163
H203	H	1.013405	0.639871	-0.324043
O204	O	0.991432	0.354650	0.018865
H205	H	0.999001	0.318486	-0.024456
H206	H	1.233262	0.200968	0.197425
H207	H	0.650297	0.372850	0.380565
H208	H	1.126617	0.334645	0.221436
