data_functionalizedCrystal
_audit_creation_method	'MofGen! by Chris Wilmer'
_symmetry_space_group_name_H-M	'P1'
_symmetry_Int_Tables_number	1
_symmetry_cell_setting	triclinic
loop_
_symmetry_equiv_pos_as_xyz
  x,y,z
_cell_length_a	12.759401
_cell_length_b	12.759400
_cell_length_c	12.759393
_cell_angle_alpha	90.023884
_cell_angle_beta	89.979062
_cell_angle_gamma	89.995030
loop_
_atom_site_label
_atom_site_type_symbol
_atom_site_fract_x
_atom_site_fract_y
_atom_site_fract_z
Zn1	Zn	-1.606349	-0.418173	0.594068
Zn2	Zn	-1.606274	-0.593888	0.418409
Zn3	Zn	-1.430647	-0.418229	0.418404
Zn4	Zn	-1.430674	-0.593815	0.594046
O5	O	-1.518486	-0.506026	0.506232
O6	O	-1.753360	-0.441489	0.570778
O7	O	-1.582935	-0.570641	0.271387
O8	O	-1.453975	-0.271200	0.441713
O9	O	-1.753305	-0.570586	0.441722
O10	O	-1.583061	-0.271159	0.570773
O11	O	-1.453902	-0.441584	0.271383
O12	O	-1.283630	-0.441513	0.441691
O13	O	-1.454019	-0.570461	0.741070
O14	O	-1.283649	-0.570516	0.570735
O15	O	-1.583087	-0.441418	0.741087
O16	O	-1.582960	-0.740899	0.441700
O17	O	-1.453947	-0.740846	0.570740
C18	C	-1.245519	-0.506013	0.506211
C19	C	-1.128742	-0.506033	0.506227
C20	C	-1.518477	-0.778993	0.506241
C21	C	-1.518569	-0.895770	0.506281
C22	C	-1.518564	-0.505925	0.780265
C23	C	-1.518598	-0.505882	0.897042
C24	C	-1.792519	-0.506040	0.506253
C25	C	-1.909296	-0.506046	0.506262
C26	C	-1.073918	-0.573307	0.573314
C27	C	-0.964194	-0.573311	0.573335
C28	C	-0.964128	-0.438764	0.439172
C29	C	-1.073850	-0.438756	0.439157
C30	C	-1.518523	-0.231993	0.506245
C31	C	-1.518539	-0.115216	0.506251
C32	C	-1.451342	-0.060374	0.439062
C33	C	-1.451354	0.049350	0.439079
C34	C	-1.585770	0.049380	0.573477
C35	C	-1.585752	-0.060342	0.573465
C36	C	-1.518468	-0.506051	0.233264
C37	C	-1.518638	-0.505798	0.116488
C38	C	-1.585808	-0.438678	0.951914
C39	C	-1.585826	-0.438633	1.061638
C40	C	-1.451420	-0.573004	1.061608
C41	C	-1.451398	-0.573044	0.951886
H42	H	-1.118607	-0.628086	0.627929
H43	H	-1.396634	0.094000	0.384369
N44	N	-1.133000	-0.366200	0.366795
H45	H	-1.178543	-0.317565	0.409572
H46	H	-1.081519	-0.323653	0.324314
N47	N	-1.658258	0.108566	0.645971
H48	H	-1.648075	0.186397	0.635785
H49	H	-1.733286	0.089377	0.629629
N50	N	-0.905060	-0.645875	0.645689
H51	H	-0.956487	-0.688492	0.688169
H52	H	-0.859515	-0.694442	0.602843
N53	N	-1.658326	-0.366147	1.120809
H54	H	-1.707016	-0.408826	1.166342
H55	H	-1.615576	-0.317445	1.166263
H56	H	-1.396660	-0.627768	0.907208
N57	N	-1.378927	-0.645424	1.120762
H58	H	-1.389135	-0.635199	1.198597
H59	H	-1.395245	-0.720473	1.101589
H60	H	-1.640472	-0.104996	0.628185
N61	N	-1.658285	-0.366246	0.892756
H62	H	-1.641987	-0.291169	0.911845
H63	H	-1.648040	-0.376565	0.814941
N64	N	-0.904923	-0.366232	0.366808
H65	H	-0.827095	-0.376455	0.376985
H66	H	-0.924081	-0.382518	0.291755
H67	H	-1.396610	-0.105049	0.384334
