data_functionalizedCrystal
_audit_creation_method	'MofGen! by Chris Wilmer'
_symmetry_space_group_name_H-M	'P1'
_symmetry_Int_Tables_number	1
_symmetry_cell_setting	triclinic
loop_
_symmetry_equiv_pos_as_xyz
  x,y,z
_cell_length_a	9.016244
_cell_length_b	14.519709
_cell_length_c	10.540535
_cell_angle_alpha	95.898106
_cell_angle_beta	89.990771
_cell_angle_gamma	89.991383
loop_
_atom_site_label
_atom_site_type_symbol
_atom_site_fract_x
_atom_site_fract_y
_atom_site_fract_z
O1	O	-0.123152	-1.224752	0.166405
O2	O	0.376848	-0.724752	0.666405
O3	O	-0.123198	-0.956380	0.186001
O4	O	0.376802	-0.456380	0.686001
O5	O	-0.123159	-1.096691	-0.008566
O6	O	0.376841	-0.596691	0.491434
O7	O	-0.123191	-1.084441	0.360972
O8	O	0.376809	-0.584441	0.860972
O9	O	0.123522	-1.096700	-0.008587
O10	O	0.623522	-0.596700	0.491413
O11	O	0.123483	-0.956389	0.185980
O12	O	0.623483	-0.456389	0.685980
O13	O	0.123529	-1.224760	0.166385
O14	O	0.623529	-0.724760	0.666385
Cu15	Cu	0.146030	-1.090575	0.176180
Cu16	Cu	0.646030	-0.590575	0.676180
Cu17	Cu	-0.145699	-1.090565	0.176205
Cu18	Cu	0.354301	-0.590565	0.676205
O19	O	0.123490	-1.084450	0.360952
O20	O	0.623490	-0.584450	0.860952
C21	C	0.000137	-0.922020	0.185077
C22	C	0.500137	-0.422020	0.685077
C23	C	0.000120	-0.819624	0.182341
C24	C	0.500120	-0.319624	0.682341
N25	N	-0.350885	-1.090558	0.176213
N26	N	0.149115	-0.590558	0.676213
C27	C	0.000182	-1.095777	-0.055870
C28	C	0.500182	-0.595777	0.444130
C29	C	0.000184	-1.093032	-0.196791
C30	C	0.500184	-0.593032	0.303209
C31	C	-0.585938	-1.015593	0.280391
C32	C	-0.085938	-0.515593	0.780391
C33	C	-0.414047	-1.015304	0.280151
C34	C	0.085953	-0.515304	0.780151
C35	C	-0.413242	-1.068921	0.043607
C36	C	0.086758	-0.568921	0.543607
C37	C	-0.585187	-1.068400	0.044189
C38	C	-0.085187	-0.568400	0.544189
C39	C	-0.585389	-1.187436	0.203360
C40	C	-0.085389	-0.687436	0.703360
C41	C	-0.413434	-1.186793	0.206397
C42	C	0.086566	-0.686793	0.706397
N43	N	0.351216	-1.090590	0.176163
N44	N	0.851216	-0.590590	0.676163
C45	C	0.000191	-1.259121	0.167308
C46	C	0.500191	-0.759121	0.667308
C47	C	0.000198	-1.361517	0.170045
C48	C	0.500198	-0.861517	0.670045
C49	C	0.000188	-0.444674	0.172266
C50	C	0.500188	0.055326	0.672266
C51	C	0.000169	-0.548997	0.175064
C52	C	0.500169	-0.048997	0.675064
C53	C	0.000153	-0.632145	0.177303
C54	C	0.500153	-0.132145	0.677303
C55	C	0.000136	-0.736475	0.180101
C56	C	0.500136	-0.236475	0.680101
C57	C	0.000156	-0.990588	-0.232415
C58	C	0.500156	-0.490588	0.267585
C59	C	-0.000431	-0.987698	-0.378986
C60	C	0.499569	-0.487698	0.121014
C61	C	-0.140435	-1.139791	-0.406581
C62	C	0.359565	-0.639791	0.093419
C63	C	-0.140526	-1.141970	-0.259838
C64	C	0.359474	-0.641970	0.240162
C65	C	0.140006	-1.143471	-0.260015
C66	C	0.640006	-0.643471	0.239985
C67	C	0.141827	-1.138733	-0.406313
C68	C	0.641827	-0.638733	0.093687
C69	C	0.000146	-1.085363	0.408256
C70	C	0.500146	-0.585363	0.908256
C71	C	0.000135	-1.088109	0.549176
C72	C	0.500135	-0.588109	1.049176
H73	H	-0.371890	-1.028284	0.378703
H74	H	0.128110	-0.528284	0.878703
H75	H	0.246598	-1.111507	-0.217247
H76	H	0.746598	-0.611507	0.282753
H77	H	-0.146500	-1.217070	-0.237573
H78	H	0.353500	-0.717070	0.262427
H79	H	-0.626756	-1.120914	-0.035727
H80	H	-0.126756	-0.620914	0.464273
H81	H	-0.370181	-0.999072	0.019163
H82	H	0.129819	-0.499072	0.519163
H83	H	-0.245468	-1.104325	-0.437102
H84	H	0.254532	-0.604325	0.062898
F85	F	-0.642111	-1.214421	0.327065
F86	F	-0.142111	-0.714421	0.827065
H87	H	-0.627321	-1.028377	0.379258
H88	H	-0.127321	-0.528377	0.879258
H89	H	-0.372930	-0.943442	0.262730
H90	H	0.127070	-0.443442	0.762730
F91	F	0.277760	-1.089575	-0.443218
F92	F	0.777760	-0.589575	0.056782
H93	H	-0.372706	-1.203189	0.303959
H94	H	0.127294	-0.703189	0.803959
H95	H	-0.370435	-1.245259	0.135461
H96	H	0.129565	-0.745259	0.635461
F97	F	-0.638510	-1.260394	0.104025
F98	F	-0.138510	-0.760394	0.604025
H99	H	0.100305	-0.947271	-0.407926
H100	H	0.600305	-0.447271	0.092074
H101	H	-0.625305	-0.997751	0.020308
H102	H	-0.125305	-0.497751	0.520308
F103	F	0.131900	-0.939168	-0.177051
F104	F	0.631900	-0.439168	0.322949
H105	H	-0.246020	-1.107061	-0.219293
H106	H	0.253980	-0.607061	0.280707
F107	F	-0.146741	-1.236424	-0.469461
F108	F	0.353259	-0.736424	0.030539
H109	H	-0.101815	-0.947474	-0.407013
H110	H	0.398185	-0.447474	0.092987
H111	H	0.150752	-1.212020	-0.456098
H112	H	0.650752	-0.712020	0.043902
H113	H	-0.100515	-0.951903	-0.188547
H114	H	0.399485	-0.451903	0.311453
F115	F	-0.359761	-1.138374	-0.060224
F116	F	0.140239	-0.638374	0.439776
F117	F	0.141810	-1.241988	-0.232021
F118	F	0.641810	-0.741988	0.267979
H119	H	-0.629162	-0.944143	0.263204
H120	H	-0.129162	-0.444143	0.763204
