data_functionalizedCrystal
_audit_creation_method	'MofGen! by Chris Wilmer'
_symmetry_space_group_name_H-M	'P1'
_symmetry_Int_Tables_number	1
_symmetry_cell_setting	triclinic
loop_
_symmetry_equiv_pos_as_xyz
  x,y,z
_cell_length_a	13.033293
_cell_length_b	16.120484
_cell_length_c	13.032268
_cell_angle_alpha	80.357249
_cell_angle_beta	90.920818
_cell_angle_gamma	100.430752
loop_
_atom_site_label
_atom_site_type_symbol
_atom_site_fract_x
_atom_site_fract_y
_atom_site_fract_z
Zn1	Zn	1.479900	-0.262705	0.795792
Zn2	Zn	1.979900	0.237295	1.295792
Zn3	Zn	1.493069	-0.384050	0.630429
Zn4	Zn	1.993069	0.115950	1.130429
Zn5	Zn	1.330075	-0.258246	0.601725
Zn6	Zn	1.830075	0.241754	1.101725
Zn7	Zn	1.296833	-0.419251	0.782387
Zn8	Zn	1.796833	0.080749	1.282387
O9	O	1.399969	-0.331063	0.702583
O10	O	1.899969	0.168937	1.202583
O11	O	1.626475	-0.265936	0.791480
O12	O	2.126475	0.234064	1.291480
O13	O	1.490871	-0.350765	0.481809
O14	O	1.990871	0.149235	0.981809
O15	O	1.358351	-0.140673	0.621066
O16	O	1.858351	0.359327	1.121066
O17	O	1.636150	-0.355088	0.669988
O18	O	2.136150	0.144912	1.169988
O19	O	1.468427	-0.143949	0.763647
O20	O	1.968427	0.356051	1.263647
O21	O	1.371120	-0.258337	0.460720
O22	O	1.871120	0.241663	0.960720
O23	O	1.180838	-0.292469	0.608067
O24	O	1.680838	0.207531	1.108067
O25	O	1.301693	-0.415082	0.928978
O26	O	1.801693	0.084918	1.428978
O27	O	1.156415	-0.410758	0.740799
O28	O	1.656415	0.089242	1.240799
O29	O	1.436192	-0.300069	0.938827
O30	O	1.936192	0.199931	1.438827
O31	O	1.458637	-0.506884	0.656989
O32	O	1.958637	-0.006884	1.156989
O33	O	1.314463	-0.532746	0.768632
O34	O	1.814463	-0.032746	1.268632
C35	C	1.131074	-0.354950	0.669864
C36	C	1.631074	0.145050	1.169864
C37	C	1.016035	-0.365192	0.655892
C38	C	1.516035	0.134808	1.155892
C39	C	0.959940	-0.325739	0.709877
C40	C	1.459940	0.174261	1.209877
C41	C	0.841041	-0.336324	0.695437
C42	C	1.341041	0.163676	1.195437
C43	C	1.384397	-0.550454	0.714497
C44	C	1.884397	-0.050454	1.214497
C45	C	1.377825	-0.644306	0.719639
C46	C	1.877825	-0.144306	1.219639
C47	C	1.365829	-0.816134	0.729050
C48	C	1.865829	-0.316134	1.229050
C49	C	1.434293	-0.845136	0.676156
C50	C	1.934293	-0.345136	1.176156
C51	C	1.427618	-0.940748	0.681393
C52	C	1.927618	-0.440748	1.181393
C53	C	1.372502	-0.720515	0.723815
C54	C	1.872502	-0.220515	1.223815
C55	C	1.669915	-0.307083	0.735431
C56	C	2.169915	0.192917	1.235431
C57	C	1.784949	-0.296865	0.749429
C58	C	2.284949	0.203135	1.249429
C59	C	1.363766	-0.361999	0.972500
C60	C	1.863766	0.138001	1.472500
C61	C	1.348338	-0.375183	1.087523
C62	C	1.848338	0.124817	1.587523
C63	C	1.415628	-0.110816	0.690650
C64	C	1.915628	0.389184	1.190650
C65	C	1.422301	-0.016959	0.685564
C66	C	1.922301	0.483041	1.185564
C67	C	1.436096	-0.300181	0.433721
C68	C	1.936096	0.199819	0.933721
C69	C	1.451741	-0.286742	0.318710
C70	C	1.951741	0.213258	0.818710
C71	C	1.408007	-0.324154	1.143677
C72	C	1.908007	0.175846	1.643677
C73	C	1.392063	-0.337778	1.262558
C74	C	1.892063	0.162222	1.762558
H75	H	1.497919	-0.798159	0.626939
H76	H	1.997919	-0.298159	1.126939
H77	H	1.329164	-0.391551	1.302489
H78	H	1.829164	0.108449	1.802489
H79	H	1.470892	-0.270377	1.103740
H80	H	1.970892	0.229623	1.603740
N81	N	1.012914	-0.270621	0.785266
N82	N	1.512914	0.229379	1.285266
H83	H	0.959144	-0.245747	0.819310
H84	H	1.459144	0.254253	1.319310
H85	H	1.066172	-0.222707	0.746504
H86	H	1.566172	0.277293	1.246504
N87	N	0.788076	-0.391443	0.620040
N88	N	1.288076	0.108557	1.120040
H89	H	0.710647	-0.391189	0.620409
H90	H	1.210647	0.108811	1.120409
H91	H	0.800501	-0.451937	0.641572
H92	H	1.300501	0.048063	1.141572
N93	N	0.963068	-0.420321	0.580510
N94	N	1.463068	0.079679	1.080510
H95	H	0.992662	-0.396984	0.508141
H96	H	1.492662	0.103016	1.008141
H97	H	0.885647	-0.420052	0.580967
H98	H	1.385647	0.079948	1.080967
N99	N	1.281548	-0.878351	0.794237
N100	N	1.781548	-0.378351	1.294237
H101	H	1.288669	-0.938820	0.788777
H102	H	1.788669	-0.438820	1.288777
H103	H	1.210864	-0.867770	0.768248
H104	H	1.710864	-0.367770	1.268248
H105	H	0.824945	-0.255243	0.806336
H106	H	1.324945	0.244757	1.306336
H107	H	1.514629	-0.232960	1.278779
H108	H	2.014629	0.267040	1.778779
N109	N	1.265017	-0.446404	1.140407
N110	N	1.765017	0.053596	1.640407
H111	H	1.265432	-0.446037	1.217835
H112	H	1.765432	0.053963	1.717835
H113	H	1.279335	-0.503142	1.126801
H114	H	1.779335	-0.003142	1.626801
