data_functionalizedCrystal
_audit_creation_method	'MofGen! by Chris Wilmer'
_symmetry_space_group_name_H-M	'P1'
_symmetry_Int_Tables_number	1
_symmetry_cell_setting	triclinic
loop_
_symmetry_equiv_pos_as_xyz
  x,y,z
_cell_length_a	17.640112
_cell_length_b	16.625546
_cell_length_c	17.637815
_cell_angle_alpha	101.174404
_cell_angle_beta	109.604340
_cell_angle_gamma	101.247770
loop_
_atom_site_label
_atom_site_type_symbol
_atom_site_fract_x
_atom_site_fract_y
_atom_site_fract_z
Zn1	Zn	1.165512	-0.124032	-0.211654
Zn2	Zn	1.193293	-0.224727	-0.073876
Zn3	Zn	1.055586	-0.124077	-0.101687
Zn4	Zn	1.027689	-0.293006	-0.239423
O5	O	1.110520	-0.191460	-0.156660
O6	O	1.284507	-0.108796	-0.170118
O7	O	1.198328	-0.182820	0.037738
O8	O	1.070216	-0.011232	-0.116292
O9	O	1.304918	-0.182777	-0.068893
O10	O	1.150978	-0.011199	-0.197084
O11	O	1.097155	-0.108872	0.017306
O12	O	0.936576	-0.175079	-0.143218
O13	O	1.022670	-0.299147	-0.351043
O14	O	0.916080	-0.299190	-0.244412
O15	O	1.123928	-0.175003	-0.330642
O16	O	1.171277	-0.346624	-0.095819
O17	O	1.049609	-0.396787	-0.217446
C18	C	0.896429	-0.244549	-0.199847
C19	C	0.804836	-0.267285	-0.218341
C20	C	0.556757	-0.018727	-0.016163
C21	C	0.470689	-0.040109	-0.033553
C22	C	0.449437	-0.169444	-0.138745
C23	C	0.535505	-0.148069	-0.121367
C24	C	0.589158	-0.072710	-0.060075
C25	C	0.567906	-0.202053	-0.165278
C26	C	0.653967	-0.180683	-0.147898
C27	C	0.707626	-0.105329	-0.086607
C28	C	0.675219	-0.051340	-0.042695
C29	C	0.514252	-0.277415	-0.226566
C30	C	0.546654	-0.331399	-0.270477
C31	C	0.632715	-0.310026	-0.253102
C32	C	0.686374	-0.234671	-0.191810
C33	C	0.665122	-0.364014	-0.297014
C34	C	0.751182	-0.342644	-0.279634
C35	C	0.772434	-0.213301	-0.174430
C36	C	1.110449	-0.400962	-0.156641
C37	C	1.110489	-0.490576	-0.156646
C38	C	1.110615	-0.818737	-0.156703
C39	C	1.110577	-0.727434	-0.156690
C40	C	1.110551	-0.654659	-0.156674
C41	C	1.110514	-0.563350	-0.156661
C42	C	1.325447	-0.138165	-0.113306
C43	C	1.417037	-0.115454	-0.094831
C44	C	1.067088	-0.244686	-0.371575
C45	C	1.048580	-0.267368	-0.463159
C46	C	1.110610	0.018860	-0.156693
C47	C	1.110649	0.108487	-0.156706
C48	C	1.251304	-0.018810	-0.711258
C49	C	1.233903	-0.040143	-0.797317
C50	C	1.128472	-0.169403	-0.818549
C51	C	1.145867	-0.148083	-0.732490
C52	C	1.207283	-0.072785	-0.678851
C53	C	1.101846	-0.202058	-0.700082
C54	C	1.119236	-0.180737	-0.614031
C55	C	1.180647	-0.105441	-0.560387
C56	C	1.224673	-0.051463	-0.592799
C57	C	1.040426	-0.277353	-0.753724
C58	C	0.996406	-0.331328	-0.721316
C59	C	1.013800	-0.310010	-0.635262
C60	C	1.075211	-0.234714	-0.581618
C61	C	0.969774	-0.363987	-0.602850
C62	C	0.987164	-0.342666	-0.516799
C63	C	1.092601	-0.213393	-0.495567
C64	C	1.153831	-0.138372	0.057428
C65	C	1.172498	-0.115424	0.149044
H66	H	0.600442	0.042647	0.033735
H67	H	1.194806	-0.088083	-0.490319
O68	O	1.023403	-0.298027	-0.837341
C69	C	0.938624	-0.304042	-0.882031
H70	H	0.914594	-0.265048	-0.839324
H71	H	0.899813	-0.373762	-0.904487
C72	C	0.960418	-0.317002	-1.010656
C73	C	0.930905	-0.269102	-0.958205
H74	H	0.955655	-0.295453	-1.057646
H75	H	1.017534	-0.312952	-0.980548
H76	H	0.928072	-0.375099	-1.029360
H77	H	0.963258	-0.211009	-0.939493
H78	H	0.873794	-0.273141	-0.988311
H79	H	0.502958	-0.392758	-0.320379
H80	H	1.269750	0.003819	-0.823699
H81	H	1.078466	-0.230710	-0.862234
O82	O	0.613056	-0.437298	-0.356457
C83	C	0.637752	-0.507920	-0.334077
H84	H	0.674697	-0.489722	-0.263471
H85	H	0.678796	-0.527580	-0.368126
C86	C	0.514004	-0.605436	-0.445734
C87	C	0.559374	-0.583088	-0.359012
H88	H	0.465657	-0.651806	-0.461118
H89	H	0.497366	-0.557858	-0.460814
H90	H	0.548215	-0.621815	-0.474097
H91	H	0.525166	-0.566700	-0.330651
H92	H	0.576004	-0.630665	-0.343928
H93	H	0.777563	-0.386602	-0.315392
H94	H	0.444311	0.003861	0.002203
H95	H	1.274688	0.009849	-0.549122
H96	H	0.951305	-0.386609	-0.490415
H97	H	1.142616	-0.152080	-0.451890
H98	H	0.816120	-0.151927	-0.124532
H99	H	0.405742	-0.230803	-0.188647
O100	O	1.310876	0.054362	-0.659073
C101	C	1.274046	0.107154	-0.618783
H102	H	1.214184	0.066430	-0.618492
H103	H	1.258331	0.156459	-0.653777
C104	C	1.409428	0.203244	-0.528254
C105	C	1.335909	0.153225	-0.527890
H106	H	1.447589	0.231667	-0.472188
H107	H	1.434242	0.167679	-0.555400
H108	H	1.396321	0.244325	-0.557420
H109	H	1.349016	0.112139	-0.498735
H110	H	1.311099	0.188784	-0.500738
O111	O	0.936860	-0.404535	-0.773437
C112	C	0.973692	-0.457300	-0.813753
H113	H	1.043830	-0.439759	-0.774729
H114	H	0.963358	-0.447822	-0.878404
C115	C	0.846994	-0.572979	-0.871104
C116	C	0.933138	-0.551440	-0.823170
H117	H	0.821977	-0.631049	-0.876917
H118	H	0.822178	-0.537430	-0.843945
H119	H	0.838394	-0.565074	-0.924975
H120	H	0.941737	-0.559334	-0.769298
H121	H	0.957955	-0.586993	-0.850320
O122	O	0.910174	-0.437205	-0.654861
C123	C	0.932408	-0.507900	-0.630201
H124	H	0.976712	-0.486242	-0.561333
H125	H	0.964971	-0.536550	-0.670084
C126	C	0.798444	-0.602278	-0.727003
C127	C	0.852854	-0.575678	-0.642416
H128	H	0.749372	-0.644089	-0.734541
H129	H	0.783465	-0.554650	-0.743620
H130	H	0.825590	-0.626147	-0.760229
H131	H	0.825712	-0.551800	-0.609193
H132	H	0.867827	-0.623304	-0.625794
O133	O	0.791227	-0.084712	-0.069712
C134	C	0.824271	-0.149534	-0.042584
H135	H	0.771847	-0.211783	-0.066600
H136	H	0.853332	-0.130422	0.028867
C137	C	0.956316	-0.085618	-0.047533
C138	C	0.891928	-0.162075	-0.077036
H139	H	0.998052	-0.093352	-0.068781
H140	H	0.934055	-0.041944	-0.065807
H141	H	0.980523	-0.069699	0.012008
H142	H	0.867715	-0.177987	-0.136575
H143	H	0.914186	-0.205752	-0.058773
O144	O	0.430639	-0.298331	-0.243518
C145	C	0.390231	-0.376416	-0.307034
H146	H	0.437514	-0.414054	-0.308477
H147	H	0.362807	-0.363230	-0.370257
C148	C	0.261189	-0.382456	-0.287291
C149	C	0.319262	-0.428686	-0.289058
H150	H	0.217410	-0.414698	-0.276206
H151	H	0.288412	-0.329847	-0.244502
H152	H	0.238346	-0.371470	-0.339979
H153	H	0.342112	-0.439662	-0.236369
H154	H	0.292042	-0.481299	-0.331839
O155	O	0.727335	0.021797	0.016957
C156	C	0.722872	0.019428	0.094856
H157	H	0.700055	-0.049797	0.094351
H158	H	0.677266	0.055611	0.106234
C159	C	0.838448	0.146498	0.165884
C160	C	0.810431	0.061474	0.165266
H161	H	0.892457	0.172437	0.209317
H162	H	0.841453	0.148097	0.113402
H163	H	0.800435	0.176640	0.175363
H164	H	0.848437	0.031332	0.155776
H165	H	0.807434	0.059871	0.217748
