data_functionalizedCrystal
_audit_creation_method	'MofGen! by Chris Wilmer'
_symmetry_space_group_name_H-M	'P1'
_symmetry_Int_Tables_number	1
_symmetry_cell_setting	triclinic
loop_
_symmetry_equiv_pos_as_xyz
  x,y,z
_cell_length_a	16.120484
_cell_length_b	10.686154
_cell_length_c	10.686551
_cell_angle_alpha	89.693980
_cell_angle_beta	88.707809
_cell_angle_gamma	82.931688
loop_
_atom_site_label
_atom_site_type_symbol
_atom_site_fract_x
_atom_site_fract_y
_atom_site_fract_z
Zn1	Zn	-0.203197	-1.957921	-0.579114
Zn2	Zn	-0.354007	-1.931026	-0.381723
Zn3	Zn	-0.224504	-1.730532	-0.387172
Zn4	Zn	-0.352313	-1.737576	-0.607355
O5	O	-0.283505	-1.839264	-0.488841
O6	O	-0.214994	-2.130477	-0.538830
O7	O	-0.346455	-1.890227	-0.207689
O8	O	-0.105075	-1.769004	-0.403095
O9	O	-0.325793	-2.110717	-0.393808
O10	O	-0.089420	-1.936066	-0.544114
O11	O	-0.251310	-1.742925	-0.211692
O12	O	-0.249667	-1.555344	-0.430479
O13	O	-0.322906	-1.781008	-0.778365
O14	O	-0.343567	-1.560518	-0.592247
O15	O	-0.213351	-1.942895	-0.757617
O16	O	-0.470385	-1.897056	-0.421192
O17	O	-0.469140	-1.754929	-0.586963
C18	C	-0.298746	-1.512264	-0.515019
C19	C	-0.305284	-1.372374	-0.526250
C20	C	-0.499993	-1.823875	-0.506575
C21	C	-0.592600	-1.817410	-0.514195
C22	C	-0.762153	-1.805616	-0.528131
C23	C	-0.804005	-1.873139	-0.449554
C24	C	-0.898350	-1.866577	-0.457308
C25	C	-0.667799	-1.812176	-0.520378
C26	C	-0.066168	-1.854750	-0.471062
C27	C	0.026448	-1.861349	-0.463485
C28	C	-0.265562	-1.865738	-0.814570
C29	C	-0.257916	-1.877019	-0.953377
C30	C	-0.268198	-1.167540	-0.462552
C31	C	-0.261656	-1.307432	-0.451327
C32	C	-0.301315	-1.812970	-0.164368
C33	C	-0.308715	-1.801949	-0.025523
H34	H	-0.219302	-1.358852	-0.378590
O35	O	-0.355753	-1.310840	-0.612998
C36	C	-0.351282	-1.180177	-0.605262
H37	H	-0.290007	-1.163585	-0.560664
H38	H	-0.354191	-1.137341	-0.703230
H39	H	-0.406033	-1.133946	-0.545642
H40	H	-0.358057	-1.729050	-0.981099
H41	H	-0.208576	-1.949931	-0.997806
H42	H	-0.768981	-1.935875	-0.376457
H43	H	-0.797174	-1.742883	-0.601219
