data_functionalizedCrystal
_audit_creation_method	'MofGen! by Chris Wilmer'
_symmetry_space_group_name_H-M	'P1'
_symmetry_Int_Tables_number	1
_symmetry_cell_setting	triclinic
loop_
_symmetry_equiv_pos_as_xyz
  x,y,z
_cell_length_a	14.519731
_cell_length_b	15.500215
_cell_length_c	14.519709
_cell_angle_alpha	86.820847
_cell_angle_beta	96.315501
_cell_angle_gamma	93.178262
loop_
_atom_site_label
_atom_site_type_symbol
_atom_site_fract_x
_atom_site_fract_y
_atom_site_fract_z
O1	O	1.227686	0.071949	-0.124815
O2	O	0.959212	0.071950	-0.139031
O3	O	1.100567	0.071941	0.002315
O4	O	1.086331	0.071957	-0.266162
O5	O	1.092893	-0.071948	0.009980
O6	O	0.951539	-0.071940	-0.131366
O7	O	1.220013	-0.071941	-0.117150
Cu8	Cu	1.085075	-0.085079	-0.123558
Cu9	Cu	1.094150	0.085088	-0.132623
O10	O	1.078658	-0.071933	-0.258497
C11	C	0.921016	0.000005	-0.134533
C12	C	0.818636	0.000006	-0.132537
C13	C	0.735492	0.000009	-0.130915
C14	C	0.631183	0.000009	-0.128888
C15	C	0.548044	0.000009	-0.127280
C16	C	0.443729	0.000011	-0.125254
N17	N	1.078699	-0.204764	-0.117182
C18	C	1.132309	-0.250034	-0.170836
C19	C	1.127499	-0.340608	-0.166008
C20	C	1.069074	-0.385910	-0.107530
C21	C	1.015461	-0.340633	-0.053870
C22	C	1.020277	-0.250061	-0.058694
C23	C	1.051736	-0.659379	-0.090156
C24	C	1.046923	-0.749957	-0.085338
C25	C	1.158963	-0.749925	-0.197475
C26	C	1.163769	-0.659352	-0.202298
C27	C	1.110160	-0.614083	-0.148634
C28	C	1.064154	-0.478490	-0.102596
C29	C	1.115086	-0.521504	-0.153564
C30	C	1.258209	0.000005	-0.121649
C31	C	1.360590	0.000011	-0.123645
C32	C	1.096067	-0.000004	0.040507
C33	C	1.094078	-0.000004	0.142889
N34	N	1.100533	0.204773	-0.138992
C35	C	1.083158	0.000014	-0.296689
C36	C	1.085147	0.000021	-0.399071
C37	C	1.086760	0.000019	0.517784
C38	C	1.088793	0.000012	0.413476
C39	C	1.090419	0.000006	0.330340
C40	C	1.092452	0.000002	0.226025
H41	H	1.171157	-0.377463	-0.209697
C42	C	0.992760	-0.609594	-0.031138
H43	H	0.957267	-0.649549	0.004370
H44	H	1.032355	-0.574260	0.009341
H45	H	0.952253	-0.574267	-0.070720
C46	C	1.179355	-0.471679	-0.217884
H47	H	1.210602	-0.511609	-0.249147
H48	H	1.143511	-0.436345	-0.262117
H49	H	1.223617	-0.436348	-0.182061
H50	H	1.211348	-0.622473	-0.249914
C51	C	1.217935	-0.799722	-0.256491
H52	H	1.206708	-0.860151	-0.245240
H53	H	1.201695	-0.784876	-0.320344
H54	H	1.281796	-0.784869	-0.240282
C55	C	0.982630	-0.799787	-0.021032
H56	H	0.951391	-0.759856	0.010237
H57	H	0.938377	-0.835109	-0.056866
H58	H	1.018461	-0.835131	0.023212
H59	H	0.967894	-0.377525	-0.006252
C60	C	0.961302	-0.200264	0.000321
H61	H	0.925809	-0.240215	0.035833
H62	H	1.000901	-0.164930	0.040796
H63	H	0.920795	-0.164936	-0.039261
H64	H	1.179880	-0.213156	-0.218460
H65	H	1.016583	-0.515385	-0.054983
