data_functionalizedCrystal
_audit_creation_method	'MofGen! by Chris Wilmer'
_symmetry_space_group_name_H-M	'P1'
_symmetry_Int_Tables_number	1
_symmetry_cell_setting	triclinic
loop_
_symmetry_equiv_pos_as_xyz
  x,y,z
_cell_length_a	12.759400
_cell_length_b	11.169417
_cell_length_c	11.169409
_cell_angle_alpha	89.980176
_cell_angle_beta	90.033794
_cell_angle_gamma	89.984437
loop_
_atom_site_label
_atom_site_type_symbol
_atom_site_fract_x
_atom_site_fract_y
_atom_site_fract_z
Zn1	Zn	-0.418157	-1.834926	0.678531
Zn2	Zn	-0.593882	-1.834800	0.477842
Zn3	Zn	-0.418221	-1.634212	0.477865
Zn4	Zn	-0.593797	-1.634204	0.678487
O5	O	-0.506014	-1.734536	0.578181
O6	O	-0.441476	-2.002859	0.651918
O7	O	-0.570643	-1.808142	0.309896
O8	O	-0.271191	-1.660893	0.504511
O9	O	-0.570581	-2.002767	0.504473
O10	O	-0.271144	-1.808357	0.651939
O11	O	-0.441585	-1.660771	0.309912
O12	O	-0.441502	-1.466261	0.504469
O13	O	-0.570435	-1.660880	0.846443
O14	O	-0.570497	-1.466256	0.651866
O15	O	-0.441393	-1.808349	0.846475
O16	O	-0.740892	-1.808135	0.504431
O17	O	-0.740829	-1.660758	0.651844
C18	C	-0.505998	-1.422711	0.578166
C19	C	-0.506017	-1.289311	0.578188
C20	C	-0.778981	-1.734464	0.578156
C21	C	-0.895758	-1.734544	0.578186
C22	C	-0.505897	-1.734628	0.891224
C23	C	-0.505848	-1.734667	1.024624
C24	C	-0.950618	-1.811368	0.501513
C25	C	-1.060342	-1.811442	0.501550
C26	C	-1.060337	-1.657857	0.654936
C27	C	-0.950615	-1.657790	0.654904
C28	C	-0.895761	-1.888122	0.424794
C29	C	-0.950621	-1.964952	0.348114
C30	C	-1.060345	-1.965025	0.348151
C31	C	-1.115209	-1.888270	0.424868
C32	C	-0.231981	-1.734640	0.578233
C33	C	-0.115204	-1.734684	0.578255
C34	C	-0.506031	-2.047578	0.578198
C35	C	-0.506038	-2.180978	0.578204
C36	C	-0.506054	-1.734513	0.266357
C37	C	-0.505808	-1.734706	0.132957
H38	H	-0.806419	-1.888067	0.424752
H39	H	-1.105016	-1.595365	0.717395
C40	C	-1.120694	-2.049523	0.263804
H41	H	-1.193897	-2.038579	0.274813
H42	H	-1.102781	-2.031975	0.183149
H43	H	-1.102643	-2.130150	0.281426
C44	C	-0.890281	-2.049383	0.263735
H45	H	-0.938671	-2.095157	0.218086
H46	H	-0.847551	-2.003474	0.211389
H47	H	-0.847407	-2.101630	0.309685
H48	H	-0.905947	-1.595233	0.717340
H49	H	-1.204554	-1.888345	0.424902
