data_functionalizedCrystal
_audit_creation_method	'MofGen! by Chris Wilmer'
_symmetry_space_group_name_H-M	'P1'
_symmetry_Int_Tables_number	1
_symmetry_cell_setting	triclinic
loop_
_symmetry_equiv_pos_as_xyz
  x,y,z
_cell_length_a	18.050591
_cell_length_b	18.050590
_cell_length_c	18.050582
_cell_angle_alpha	90.023337
_cell_angle_beta	90.019760
_cell_angle_gamma	90.015000
loop_
_atom_site_label
_atom_site_type_symbol
_atom_site_fract_x
_atom_site_fract_y
_atom_site_fract_z
Zn1	Zn	1.135342	-0.295777	0.420004
Zn2	Zn	1.635342	0.204223	0.920004
Zn3	Zn	1.135274	-0.419960	0.295813
Zn4	Zn	1.635274	0.080040	0.795813
Zn5	Zn	1.011162	-0.295781	0.295818
Zn6	Zn	1.511162	0.204219	0.795818
Zn7	Zn	1.011131	-0.419922	0.419951
Zn8	Zn	1.511131	0.080078	0.919951
O9	O	1.073227	-0.357860	0.357897
O10	O	1.573227	0.142140	0.857897
O11	O	1.239258	-0.312265	0.403550
O12	O	1.739258	0.187735	0.903550
O13	O	1.118795	-0.403505	0.191889
O14	O	1.618795	0.096495	0.691889
O15	O	1.027676	-0.191856	0.312316
O16	O	1.527676	0.308144	0.812316
O17	O	1.239208	-0.403501	0.312307
O18	O	1.739208	0.096499	0.812307
O19	O	1.118911	-0.191853	0.403556
O20	O	1.618911	0.308147	0.903556
O21	O	1.027610	-0.312271	0.191893
O22	O	1.527610	0.187729	0.691893
O23	O	0.907233	-0.312234	0.312264
O24	O	1.407233	0.187766	0.812264
O25	O	1.027623	-0.403436	0.523883
O26	O	1.527623	0.096564	1.023883
O27	O	0.907210	-0.403440	0.403464
O28	O	1.407210	0.096560	0.903464
O29	O	1.118881	-0.312227	0.523922
O30	O	1.618881	0.187773	1.023922
O31	O	1.118765	-0.523880	0.312255
O32	O	1.618765	-0.023880	0.812255
O33	O	1.027557	-0.523852	0.403459
O34	O	1.527557	-0.023852	0.903459
C35	C	0.880275	-0.357834	0.357859
C36	C	1.380275	0.142166	0.857859
C37	C	0.797729	-0.357841	0.357861
C38	C	1.297729	0.142159	0.857861
C39	C	1.073170	-0.550812	0.357867
C40	C	1.573170	-0.050812	0.857867
C41	C	1.073214	-0.633358	0.357879
C42	C	1.573214	-0.133358	0.857879
C43	C	0.548895	-0.308191	0.308384
C44	C	1.048895	0.191809	0.808384
C45	C	0.598323	-0.290110	0.376160
C46	C	1.098323	0.209890	0.876160
C47	C	0.500609	-0.357879	0.357922
C48	C	1.000609	0.142121	0.857922
C49	C	0.598262	-0.375906	0.290119
C50	C	1.098262	0.124094	0.790119
C51	C	0.646594	-0.357858	0.357888
C52	C	1.146594	0.142142	0.857888
C53	C	0.548951	-0.339762	0.425734
C54	C	1.048951	0.160238	0.925734
C55	C	0.548884	-0.425589	0.339648
C56	C	1.048884	0.074411	0.839648
C57	C	0.598291	-0.407534	0.407471
C58	C	1.098291	0.092466	0.907471
C59	C	0.416511	-0.357888	0.357940
C60	C	0.916511	0.142112	0.857940
C61	C	0.730690	-0.357848	0.357878
C62	C	1.230690	0.142152	0.857878
C63	C	1.122916	-0.832797	0.308352
C64	C	1.622916	-0.332797	0.808352
C65	C	1.141051	-0.882137	0.376133
C66	C	1.641051	-0.382137	0.876133
C67	C	1.073256	-0.784488	0.357909
C68	C	1.573256	-0.284488	0.857909
C69	C	1.055196	-0.882230	0.290158
C70	C	1.555196	-0.382230	0.790158
C71	C	1.073298	-0.930473	0.357931
C72	C	1.573298	-0.430473	0.857931
C73	C	1.091426	-0.832741	0.425726
C74	C	1.591426	-0.332741	0.925726
C75	C	1.005539	-0.832830	0.339704
C76	C	1.505539	-0.332830	0.839704
C77	C	1.023649	-0.882147	0.407533
C78	C	1.523649	-0.382147	0.907533
C79	C	1.073233	-0.700390	0.357895
C80	C	1.573233	-0.200390	0.857895
C81	C	1.073320	-1.014570	0.357953
C82	C	1.573320	-0.514570	0.857953
C83	C	1.266933	-0.357887	0.357934
C84	C	1.766933	0.142113	0.857934
C85	C	1.349479	-0.357898	0.357950
C86	C	1.849479	0.142102	0.857950
C87	C	1.073256	-0.357827	0.551602
C88	C	1.573256	0.142173	1.051602
C89	C	1.073269	-0.357813	0.634148
C90	C	1.573269	0.142187	1.134148
C91	C	1.073305	-0.164154	0.357943
C92	C	1.573305	0.335846	0.857943
C93	C	1.073338	-0.081609	0.357962
C94	C	1.573338	0.418391	0.857962
C95	C	1.073241	-0.357839	0.164944
C96	C	1.573241	0.142161	0.664944
C97	C	1.073372	-0.357644	0.082399
C98	C	1.573372	0.142356	0.582399
C99	C	1.023681	-0.407345	0.833577
C100	C	1.523681	0.092655	1.333577
C101	C	1.091439	-0.425502	0.882974
C102	C	1.591439	0.074498	1.382974
C103	C	1.073305	-0.357756	0.785278
C104	C	1.573305	0.142244	1.285278
C105	C	1.005584	-0.339578	0.882963
C106	C	1.505584	0.160422	1.382963
C107	C	1.073335	-0.357703	0.931264
C108	C	1.573335	0.142297	1.431264
C109	C	1.141099	-0.375950	0.833588
C110	C	1.641099	0.124050	1.333588
C111	C	1.055199	-0.289994	0.833573
C112	C	1.555199	0.210006	1.333573
C113	C	1.123004	-0.308126	0.882948
C114	C	1.623004	0.191874	1.382948
C115	C	1.073287	-0.357789	0.701180
C116	C	1.573287	0.142211	1.201180
C117	C	1.073360	-0.357670	1.015360
C118	C	1.573360	0.142330	1.515360
H119	H	0.527208	-0.266150	0.266557
H120	H	1.027208	0.233850	0.766557
C121	C	1.179662	-0.803515	0.251798
C122	C	1.679662	-0.303515	0.751798
H123	H	1.227768	-0.820397	0.264865
H124	H	1.727768	-0.320397	0.764865
H125	H	1.167292	-0.821185	0.203783
H126	H	1.667292	-0.321185	0.703783
H127	H	1.178945	-0.750890	0.251871
H128	H	1.678945	-0.250890	0.751871
H129	H	1.198335	-0.903797	0.391545
H130	H	1.698335	-0.403797	0.891545
C131	C	1.112182	-0.803505	0.503162
C132	C	1.612182	-0.303505	1.003162
H133	H	1.112066	-0.750876	0.502674
H134	H	1.612066	-0.250876	1.002674
H135	H	1.077144	-0.820796	0.538401
H136	H	1.577144	-0.320796	1.038401
H137	H	1.160155	-0.820797	0.516175
H138	H	1.660155	-0.320797	1.016175
C139	C	0.627526	-0.396523	0.212682
C140	C	1.127526	0.103477	0.712682
H141	H	0.656482	-0.440343	0.215958
H142	H	1.156482	0.059657	0.715958
H143	H	0.586941	-0.404711	0.180176
H144	H	1.086941	0.095289	0.680176
H145	H	0.657222	-0.357229	0.194143
H146	H	1.157222	0.142771	0.694143
C147	C	0.627414	-0.464283	0.464106
C148	C	1.127414	0.035717	0.964106
H149	H	0.610439	-0.451348	0.512215
H150	H	1.110439	0.048652	1.012215
H151	H	0.609738	-0.512246	0.451548
H152	H	1.109738	-0.012246	0.951548
H153	H	0.680041	-0.464251	0.463505
H154	H	1.180041	0.035749	0.963505
C155	C	0.967041	-0.464062	0.804286
C156	C	1.467041	0.035938	1.304286
H157	H	0.930752	-0.439281	0.775324
H158	H	1.430752	0.060719	1.275324
H159	H	0.991740	-0.499816	0.774605
H160	H	1.491740	0.000184	1.274605
H161	H	0.943680	-0.488070	0.844864
H162	H	1.443680	0.011930	1.344864
H163	H	1.039903	-0.903968	0.232852
H164	H	1.539903	-0.403968	0.732852
H165	H	1.039846	-0.232728	0.811857
H166	H	1.539846	0.267272	1.311857
C167	C	0.519820	-0.319060	0.503199
C168	C	1.019820	0.180940	1.003199
H169	H	0.560470	-0.310437	0.535521
H170	H	1.060470	0.189563	1.035521
H171	H	0.490528	-0.275476	0.499860
H172	H	0.990528	0.224524	0.999860
H173	H	0.490500	-0.358505	0.522012
H174	H	0.990500	0.141495	1.022012
H175	H	0.981672	-0.903680	0.449500
H176	H	1.481672	-0.403680	0.949500
C177	C	0.519518	-0.502931	0.318753
C178	C	1.019518	-0.002931	0.818753
H179	H	0.536369	-0.515675	0.270550
H180	H	1.036369	-0.015675	0.770550
H181	H	0.537165	-0.538344	0.353438
H182	H	1.037165	-0.038344	0.853438
H183	H	0.466893	-0.502482	0.319362
H184	H	0.966893	-0.002482	0.819362
C185	C	0.928179	-0.803539	0.318857
C186	C	1.428179	-0.303539	0.818857
H187	H	0.915404	-0.820454	0.270670
H188	H	1.415404	-0.320454	0.770670
H189	H	0.892792	-0.821170	0.353576
H190	H	1.392792	-0.321170	0.853576
H191	H	0.928620	-0.750914	0.319445
H192	H	1.428620	-0.250914	0.819445
C193	C	1.218515	-0.396745	0.804417
C194	C	1.718515	0.103255	1.304417
H195	H	1.218029	-0.396651	0.751788
H196	H	1.718029	0.103349	1.251788
H197	H	1.253779	-0.361703	0.821727
H198	H	1.753779	0.138297	1.321727
H199	H	1.231494	-0.444712	0.821732
H200	H	1.731494	0.055288	1.321732
C201	C	1.112150	-0.502882	0.912296
C202	C	1.612150	-0.002882	1.412296
H203	H	1.076834	-0.538078	0.895397
H204	H	1.576834	-0.038078	1.395397
H205	H	1.159928	-0.516119	0.894665
H206	H	1.659928	-0.016119	1.394665
H207	H	1.112450	-0.502187	0.964921
H208	H	1.612450	-0.002187	1.464921
C209	C	1.179772	-0.251446	0.912058
C210	C	1.679772	0.248554	1.412058
H211	H	1.155044	-0.215123	0.941028
H212	H	1.655044	0.284877	1.441028
H213	H	1.215586	-0.276105	0.941696
H214	H	1.715586	0.223895	1.441696
H215	H	1.203700	-0.228132	0.871405
H216	H	1.703700	0.271868	1.371405
C217	C	0.627667	-0.212747	0.397027
C218	C	1.127667	0.287253	0.897027
H219	H	0.610759	-0.177507	0.361794
H220	H	1.110759	0.322493	0.861794
H221	H	0.610059	-0.199590	0.444841
H222	H	1.110059	0.300410	0.944841
H223	H	0.680292	-0.213416	0.397302
H224	H	1.180292	0.286584	0.897302
C225	C	0.928202	-0.318833	0.912262
C226	C	1.428202	0.181167	1.412262
H227	H	0.892997	-0.354134	0.895348
H228	H	1.392997	0.145866	1.395348
H229	H	0.928876	-0.318518	0.964883
H230	H	1.428876	0.181482	1.464883
H231	H	0.914988	-0.271052	0.894613
H232	H	1.414988	0.228948	1.394613
