data_functionalizedCrystal
_audit_creation_method	'MofGen! by Chris Wilmer'
_symmetry_space_group_name_H-M	'P1'
_symmetry_Int_Tables_number	1
_symmetry_cell_setting	triclinic
loop_
_symmetry_equiv_pos_as_xyz
  x,y,z
_cell_length_a	17.077404
_cell_length_b	13.031981
_cell_length_c	17.077396
_cell_angle_alpha	82.787914
_cell_angle_beta	89.981638
_cell_angle_gamma	97.189720
loop_
_atom_site_label
_atom_site_type_symbol
_atom_site_fract_x
_atom_site_fract_y
_atom_site_fract_z
Zn1	Zn	1.160409	-0.416167	-0.404091
Zn2	Zn	1.143664	-0.590961	-0.256139
Zn3	Zn	1.029138	-0.416196	-0.272839
Zn4	Zn	1.012463	-0.590892	-0.387372
O5	O	1.086418	-0.503554	-0.330111
O6	O	1.268033	-0.439370	-0.384473
O7	O	1.128442	-0.567820	-0.148504
O8	O	1.060537	-0.269929	-0.304236
O9	O	1.255730	-0.567791	-0.275774
O10	O	1.156981	-0.269907	-0.400666
O11	O	1.044300	-0.439421	-0.160773
O12	O	0.917080	-0.439354	-0.288024
O13	O	1.032118	-0.567673	-0.499441
O14	O	0.904830	-0.567702	-0.372171
O15	O	1.140813	-0.439303	-0.511725
O16	O	1.112274	-0.737215	-0.259562
O17	O	1.015881	-0.737165	-0.355978
C18	C	0.882473	-0.503525	-0.330096
C19	C	0.795222	-0.503537	-0.330106
C20	C	0.760627	-0.436787	-0.386771
C21	C	0.678646	-0.436794	-0.386774
C22	C	0.631261	-0.503557	-0.330114
C23	C	0.665861	-0.570309	-0.273443
C24	C	0.747842	-0.570297	-0.273438
C25	C	0.494989	-0.570333	-0.273461
C26	C	0.413003	-0.570348	-0.273467
C27	C	0.425794	-0.436830	-0.386797
C28	C	0.507774	-0.436818	-0.386791
C29	C	0.542369	-0.503572	-0.330121
C30	C	1.060472	-0.775114	-0.304161
C31	C	1.049444	-0.891289	-0.293085
C32	C	1.092216	-0.942989	-0.335907
C33	C	1.080819	-1.063062	-0.324461
C34	C	1.291160	-0.503585	-0.330126
C35	C	1.378408	-0.503598	-0.330132
C36	C	1.086473	-0.503477	-0.534862
C37	C	1.086497	-0.503444	-0.622115
C38	C	1.112487	-0.230934	-0.356179
C39	C	1.123596	-0.114759	-0.367288
C40	C	1.143096	-0.436596	-0.669503
C41	C	1.143109	-0.436562	-0.751487
C42	C	1.086525	-0.503381	-0.786081
C43	C	1.029919	-0.570232	-0.738687
C44	C	1.029904	-0.570261	-0.656705
C45	C	1.029957	-0.570169	-0.909563
C46	C	1.029973	-0.570142	-0.991550
C47	C	1.143162	-0.436470	-1.004345
C48	C	1.143147	-0.436499	-0.922363
C49	C	1.086542	-0.503351	-0.874975
C50	C	1.086416	-0.503556	-0.126163
C51	C	1.086573	-0.503294	-0.038938
H52	H	0.546353	-0.382460	-0.432932
O53	O	0.614758	-0.642314	-0.212325
H54	H	0.572345	-0.695566	-0.242305
H55	H	1.189176	-0.382188	-0.641343
H56	H	1.189200	-0.382130	-0.790067
O57	O	0.388490	-0.364819	-0.447918
H58	H	0.323524	-0.376031	-0.438398
O59	O	1.204178	-0.364432	-0.885051
H60	H	1.239635	-0.411239	-0.843238
O61	O	1.183299	-1.055665	-0.427066
H62	H	1.167845	-1.076507	-0.486693
O63	O	0.989768	-0.950392	-0.233289
H64	H	0.990188	-1.035427	-0.233675
O65	O	1.204211	-0.364352	-1.055451
H66	H	1.194711	-0.375543	-1.118271
O67	O	1.151904	-0.883886	-0.395692
H68	H	1.151494	-0.798851	-0.395295
H69	H	0.983807	-0.624685	-0.618123
H70	H	0.983896	-0.624550	-1.019714
O71	O	1.021129	-1.122161	-0.264670
H72	H	1.036592	-1.101300	-0.205050
H73	H	0.983845	-0.624633	-0.766860
O74	O	0.811736	-0.364772	-0.447878
H75	H	0.773904	-0.318349	-0.487275
O76	O	0.641330	-0.364799	-0.447890
H77	H	0.688052	-0.318382	-0.487293
O78	O	0.361891	-0.642339	-0.212349
H79	H	0.369797	-0.724397	-0.217851
O80	O	0.532307	-0.642333	-0.212341
H81	H	0.485585	-0.688769	-0.172948
O82	O	0.785161	-0.642292	-0.212322
H83	H	0.738439	-0.688725	-0.172927
H84	H	0.983852	-0.624591	-0.870983
