data_functionalizedCrystal
_audit_creation_method	'MofGen! by Chris Wilmer'
_symmetry_space_group_name_H-M	'P1'
_symmetry_Int_Tables_number	1
_symmetry_cell_setting	triclinic
loop_
_symmetry_equiv_pos_as_xyz
  x,y,z
_cell_length_a	13.897449
_cell_length_b	17.077396
_cell_length_c	13.897448
_cell_angle_alpha	89.971798
_cell_angle_beta	89.982475
_cell_angle_gamma	90.018309
loop_
_atom_site_label
_atom_site_type_symbol
_atom_site_fract_x
_atom_site_fract_y
_atom_site_fract_z
Zn1	Zn	-1.474659	-0.443871	-0.384011
Zn2	Zn	-1.474566	-0.312608	-0.545326
Zn3	Zn	-1.313361	-0.312617	-0.384046
Zn4	Zn	-1.313330	-0.443829	-0.545265
O5	O	-1.393979	-0.378231	-0.464662
O6	O	-1.609629	-0.426473	-0.405421
O7	O	-1.453156	-0.202762	-0.523972
O8	O	-1.334810	-0.330049	-0.249060
O9	O	-1.609560	-0.330034	-0.523938
O10	O	-1.453315	-0.426481	-0.249034
O11	O	-1.334719	-0.202768	-0.405481
O12	O	-1.178376	-0.330008	-0.405422
O13	O	-1.334757	-0.553681	-0.523835
O14	O	-1.178353	-0.426409	-0.523869
O15	O	-1.453285	-0.553712	-0.405362
O16	O	-1.453126	-0.329993	-0.680300
O17	O	-1.334666	-0.426401	-0.680255
C18	C	-1.143365	-0.378206	-0.464643
C19	C	-1.036151	-0.378213	-0.464658
C20	C	-1.394028	-0.582975	-0.464588
C21	C	-1.394048	-0.670225	-0.464556
C22	C	-1.393909	-0.378208	-0.715277
C23	C	-1.393967	-0.378225	-0.822491
C24	C	-0.839856	-0.378228	-0.464657
C25	C	-0.949088	-0.378218	-0.464654
C26	C	-0.645572	-0.378249	-0.464676
C27	C	-0.752786	-0.378238	-0.464666
C28	C	-1.332397	-0.711218	-0.402850
C29	C	-1.332413	-0.793199	-0.402828
C30	C	-1.394085	-0.834185	-0.464508
C31	C	-1.455739	-0.793186	-0.526221
C32	C	-1.455718	-0.711207	-0.526247
C33	C	-1.455781	-0.964056	-0.526160
C34	C	-1.455804	-1.046041	-0.526133
C35	C	-1.332476	-1.046048	-0.402742
C36	C	-1.332455	-0.964069	-0.402768
C37	C	-1.394110	-0.923076	-0.464479
C38	C	-1.393986	-0.174283	-0.464667
C39	C	-1.394153	-0.087034	-0.464427
C40	C	-1.394068	-0.378274	-1.018786
C41	C	-1.394009	-0.378249	-0.909553
C42	C	-1.394076	-0.378271	-0.213069
C43	C	-1.394117	-0.378288	-0.105855
H44	H	-1.282207	-0.826572	-0.352584
N45	N	-1.518748	-0.835032	-0.589233
N46	N	-1.512325	-0.825857	-0.678243
H47	H	-1.556833	-0.855406	-0.722744
H48	H	-1.505928	-0.677832	-0.576487
H49	H	-1.506023	-1.079409	-0.576358
N50	N	-1.269405	-0.669368	-0.339826
N51	N	-1.214366	-0.705983	-0.284734
H52	H	-1.169876	-0.676429	-0.240220
H53	H	-1.282275	-1.079428	-0.352492
N54	N	-1.269459	-0.922213	-0.339752
N55	N	-1.214415	-0.958821	-0.284659
H56	H	-1.169921	-0.929261	-0.240155
N57	N	-1.518760	-0.922194	-0.589208
N58	N	-1.573822	-0.958795	-0.644275
H59	H	-1.618303	-0.929230	-0.688800
