data_functionalizedCrystal
_audit_creation_method	'MofGen! by Chris Wilmer'
_symmetry_space_group_name_H-M	'P1'
_symmetry_Int_Tables_number	1
_symmetry_cell_setting	triclinic
loop_
_symmetry_equiv_pos_as_xyz
  x,y,z
_cell_length_a	13.897448
_cell_length_b	12.759401
_cell_length_c	12.759393
_cell_angle_alpha	89.979062
_cell_angle_beta	90.032272
_cell_angle_gamma	89.980783
loop_
_atom_site_label
_atom_site_type_symbol
_atom_site_fract_x
_atom_site_fract_y
_atom_site_fract_z
Zn1	Zn	-0.383929	-1.606245	0.594007
Zn2	Zn	-0.545255	-1.606126	0.418322
Zn3	Zn	-0.383980	-1.430543	0.418342
Zn4	Zn	-0.545188	-1.430526	0.593959
O5	O	-0.464588	-1.518360	0.506158
O6	O	-0.405336	-1.753250	0.570714
O7	O	-0.523912	-1.582793	0.271303
O8	O	-0.248992	-1.453907	0.441673
O9	O	-0.523862	-1.753163	0.441638
O10	O	-0.248954	-1.582994	0.570734
O11	O	-0.405423	-1.453793	0.271318
O12	O	-0.405358	-1.283520	0.441627
O13	O	-0.523747	-1.453878	0.740987
O14	O	-0.523797	-1.283507	0.570652
O15	O	-0.405271	-1.582977	0.741022
O16	O	-0.680228	-1.582776	0.441592
O17	O	-0.680179	-1.453763	0.570632
C18	C	-0.715203	-1.518283	0.506127
C19	C	-0.822416	-1.518347	0.506149
C20	C	-0.464576	-1.245393	0.506137
C21	C	-0.464595	-1.128616	0.506153
C22	C	-0.464496	-1.518439	0.780191
C23	C	-0.464456	-1.518472	0.896968
C24	C	-1.018711	-1.518457	0.506215
C25	C	-0.909479	-1.518393	0.506182
C26	C	-0.212995	-1.518466	0.506211
C27	C	-0.105781	-1.518511	0.506234
C28	C	-0.464601	-1.792393	0.506179
C29	C	-0.464606	-1.909170	0.506188
C30	C	-0.526359	-1.073775	0.573230
C31	C	-0.526363	-0.964051	0.573251
C32	C	-0.402834	-0.964019	0.439108
C33	C	-0.402827	-1.073741	0.439093
C34	C	-0.464611	-1.518342	0.233190
C35	C	-0.464379	-1.518512	0.116414
C36	C	-0.402756	-1.585699	0.951850
C37	C	-0.402714	-1.585717	1.061574
C38	C	-0.526082	-1.451278	1.061524
C39	C	-0.526118	-1.451255	0.951802
H40	H	-0.576652	-1.118451	0.627837
O41	O	-0.586454	-0.910941	0.638441
C42	C	-0.640948	-0.982909	0.697643
H43	H	-0.644234	-1.061098	0.654588
H44	H	-0.716961	-0.951190	0.708707
H45	H	-0.605715	-0.994632	0.777502
H46	H	-0.352470	-1.640459	1.106254
O47	O	-0.342714	-1.650872	0.898632
C48	C	-0.246570	-1.627969	0.925485
H49	H	-0.241690	-1.544044	0.955632
H50	H	-0.198936	-1.637026	0.853342
H51	H	-0.221339	-1.684317	0.989192
O52	O	-0.342752	-0.910873	0.373929
C53	C	-0.288252	-0.982810	0.314702
H54	H	-0.284951	-1.061045	0.357734
H55	H	-0.212244	-0.951122	0.303642
H56	H	-0.323488	-0.994433	0.234842
H57	H	-0.576287	-1.396554	1.106184
H58	H	-0.352524	-1.118394	0.384470
H59	H	-0.576361	-1.396503	0.907116
