data_functionalizedCrystal
_audit_creation_method	'MofGen! by Chris Wilmer'
_symmetry_space_group_name_H-M	'P1'
_symmetry_Int_Tables_number	1
_symmetry_cell_setting	triclinic
loop_
_symmetry_equiv_pos_as_xyz
  x,y,z
_cell_length_a	10.654550
_cell_length_b	9.730223
_cell_length_c	10.654551
_cell_angle_alpha	90.002638
_cell_angle_beta	95.514820
_cell_angle_gamma	89.999957
loop_
_atom_site_label
_atom_site_type_symbol
_atom_site_fract_x
_atom_site_fract_y
_atom_site_fract_z
O1	O	-1.667840	0.114181	0.176399
O2	O	-1.302361	0.114206	0.193205
O3	O	-1.493503	0.114190	0.002062
O4	O	-1.476698	0.114197	0.367541
O5	O	-1.493490	-0.114390	0.002057
O6	O	-1.302349	-0.114374	0.193199
O7	O	-1.667827	-0.114398	0.176393
Zn8	Zn	-1.485086	-0.150678	0.184795
Zn9	Zn	-1.485103	0.150486	0.184802
O10	O	-1.476686	-0.114383	0.367535
C11	C	-1.255557	-0.000081	0.191968
C12	C	-1.116114	-0.000071	0.188276
N13	N	-1.485084	-0.356214	0.184790
C14	C	-1.492262	-0.000097	-0.044738
C15	C	-1.488570	-0.000091	-0.184181
C16	C	-1.714632	-0.000109	0.177630
C17	C	-1.854075	-0.000109	0.181322
C18	C	-1.036629	-0.000073	0.300818
C19	C	-0.905608	-0.000097	0.297341
C20	C	-0.933570	-0.000112	0.068772
C21	C	-1.064589	-0.000097	0.072249
C22	C	-1.569751	-0.428147	0.100188
C23	C	-1.569763	-0.572030	0.100189
C24	C	-1.400439	-0.572035	0.269404
C25	C	-1.400421	-0.428154	0.269396
N26	N	-1.485114	0.356022	0.184798
C27	C	-1.486844	0.124510	-0.249682
C28	C	-1.483364	0.124511	-0.380703
C29	C	-1.483342	-0.124699	-0.380710
C30	C	-1.486813	-0.124699	-0.249691
C31	C	-1.477926	-0.000092	0.414336
C32	C	-1.481619	-0.000089	0.553779
H33	H	-1.078576	-0.000062	0.395294
Br34	Br	-1.684648	-0.330520	-0.014637
Br35	Br	-1.480953	-0.293803	-0.469624
H36	H	-1.129309	-0.000100	-0.019401
H37	H	-1.488211	-0.226170	-0.196358
H38	H	-0.840896	-0.000101	0.388984
H39	H	-1.331469	-0.369583	0.338290
H40	H	-1.488271	0.225974	-0.196348
H41	H	-0.891602	-0.000141	-0.025693
H42	H	-1.638705	-0.630594	0.031297
Br43	Br	-1.285546	-0.669672	0.384225
H44	H	-1.481955	0.225973	-0.434027
