data_functionalizedCrystal
_audit_creation_method	'MofGen! by Chris Wilmer'
_symmetry_space_group_name_H-M	'P1'
_symmetry_Int_Tables_number	1
_symmetry_cell_setting	triclinic
loop_
_symmetry_equiv_pos_as_xyz
  x,y,z
_cell_length_a	12.759401
_cell_length_b	12.759400
_cell_length_c	12.759393
_cell_angle_alpha	89.970195
_cell_angle_beta	89.980198
_cell_angle_gamma	90.013730
loop_
_atom_site_label
_atom_site_type_symbol
_atom_site_fract_x
_atom_site_fract_y
_atom_site_fract_z
Zn1	Zn	1.606267	-0.418241	-0.593993
Zn2	Zn	1.939600	-0.084908	-0.260660
Zn3	Zn	2.272933	0.248426	0.072673
Zn4	Zn	1.606158	-0.593957	-0.418316
Zn5	Zn	1.939491	-0.260623	-0.084982
Zn6	Zn	2.272825	0.072710	0.248351
Zn7	Zn	1.430565	-0.418290	-0.418332
Zn8	Zn	1.763899	-0.084956	-0.084999
Zn9	Zn	2.097232	0.248377	0.248335
Zn10	Zn	1.430558	-0.593876	-0.593956
Zn11	Zn	1.763891	-0.260542	-0.260623
Zn12	Zn	2.097224	0.072791	0.072710
O13	O	1.518387	-0.506091	-0.506149
O14	O	1.851720	-0.172757	-0.172816
O15	O	2.185054	0.160576	0.160517
O16	O	1.753273	-0.441564	-0.570698
O17	O	2.086607	-0.108230	-0.237365
O18	O	2.419940	0.225103	0.095969
O19	O	1.582823	-0.570708	-0.271297
O20	O	1.916156	-0.237375	0.062037
O21	O	2.249490	0.095959	0.395370
O22	O	1.453921	-0.271262	-0.441656
O23	O	1.787255	0.062071	-0.108323
O24	O	2.120588	0.395405	0.225010
O25	O	1.753193	-0.570661	-0.441628
O26	O	2.086527	-0.237328	-0.108295
O27	O	2.419860	0.096005	0.225038
O28	O	1.583008	-0.271226	-0.570714
O29	O	1.916342	0.062107	-0.237380
O30	O	2.249675	0.395440	0.095953
O31	O	1.453816	-0.441646	-0.271309
O32	O	1.787149	-0.108313	0.062025
O33	O	2.120483	0.225020	0.395358
O34	O	1.283543	-0.441568	-0.441620
O35	O	1.616877	-0.108234	-0.108287
O36	O	1.950210	0.225099	0.225046
O37	O	1.453908	-0.570523	-0.740982
O38	O	1.787241	-0.237190	-0.407649
O39	O	2.120575	0.096143	-0.074316
O40	O	1.283538	-0.570570	-0.570651
O41	O	1.616871	-0.237237	-0.237317
O42	O	1.950204	0.096096	0.096016
O43	O	1.583001	-0.441485	-0.741009
O44	O	1.916334	-0.108152	-0.407676
O45	O	2.249667	0.225181	-0.074343
O46	O	1.582815	-0.740967	-0.441592
O47	O	1.916149	-0.407634	-0.108259
O48	O	2.249482	-0.074300	0.225074
O49	O	1.453802	-0.740908	-0.570635
O50	O	1.787136	-0.407574	-0.237301
O51	O	2.120469	-0.074241	0.096032
C52	C	1.245420	-0.506066	-0.506134
C53	C	1.578753	-0.172733	-0.172800
C54	C	1.912086	0.160600	0.160533
C55	C	1.128643	-0.506081	-0.506152
C56	C	1.461976	-0.172748	-0.172819
C57	C	1.795310	0.160586	0.160515
C58	C	0.964086	-0.439006	-0.573470
C59	C	1.297419	-0.105673	-0.240136
C60	C	1.630753	0.227661	0.093197
C61	C	1.073810	-0.438985	-0.573463
C62	C	1.407143	-0.105652	-0.240129
C63	C	1.740477	0.227681	0.093204
C64	C	1.073746	-0.573210	-0.438852
C65	C	1.407079	-0.239876	-0.105518
C66	C	1.740413	0.093457	0.227815
C67	C	0.964024	-0.573235	-0.438865
C68	C	1.297357	-0.239901	-0.105531
C69	C	1.630691	0.093432	0.227802
C70	C	1.518325	-0.779058	-0.506131
C71	C	1.851658	-0.445725	-0.172797
C72	C	2.184991	-0.112391	0.160536
C73	C	1.518394	-0.895835	-0.506158
C74	C	1.851728	-0.562501	-0.172824
C75	C	2.185061	-0.229168	0.160509
C76	C	1.585581	-0.950588	-0.573415
C77	C	1.918914	-0.617255	-0.240082
C78	C	2.252247	-0.283922	0.093251
C79	C	1.585640	-1.060312	-0.573444
C80	C	1.918973	-0.726979	-0.240110
C81	C	2.252306	-0.393646	0.093223
C82	C	1.451323	-1.060520	-0.438948
C83	C	1.784656	-0.727186	-0.105615
C84	C	2.117990	-0.393853	0.227718
C85	C	1.451260	-0.950798	-0.438926
C86	C	1.784593	-0.617464	-0.105592
C87	C	2.117926	-0.284131	0.227741
C88	C	1.792420	-0.506116	-0.506165
C89	C	2.125754	-0.172783	-0.172832
C90	C	2.459087	0.160551	0.160501
C91	C	1.909197	-0.506127	-0.506172
C92	C	2.242530	-0.172794	-0.172839
C93	C	2.575863	0.160540	0.160494
C94	C	1.518466	-0.505990	-0.780183
C95	C	1.851799	-0.172657	-0.446849
C96	C	2.185132	0.160677	-0.113516
C97	C	1.518499	-0.505947	-0.896959
C98	C	1.851832	-0.172614	-0.563626
C99	C	2.185166	0.160720	-0.230293
C100	C	1.518478	-0.232057	-0.506191
C101	C	1.851811	0.101276	-0.172858
C102	C	2.185145	0.434609	0.160476
C103	C	1.518517	-0.115281	-0.506209
C104	C	1.851850	0.218053	-0.172875
C105	C	2.185183	0.551386	0.160458
C106	C	1.585723	-0.438746	-0.951837
C107	C	1.919056	-0.105413	-0.618504
C108	C	2.252389	0.227921	-0.285171
C109	C	1.585740	-0.438701	-1.061561
C110	C	1.919074	-0.105367	-0.728228
C111	C	2.252407	0.227966	-0.394895
C112	C	1.451308	-0.573066	-1.061520
C113	C	1.784641	-0.239733	-0.728187
C114	C	2.117975	0.093600	-0.394854
C115	C	1.451286	-0.573105	-0.951798
C116	C	1.784619	-0.239772	-0.618465
C117	C	2.117952	0.093561	-0.285131
C118	C	1.518369	-0.506115	-0.233182
C119	C	1.851702	-0.172782	0.100151
C120	C	2.185036	0.160551	0.433485
C121	C	1.518539	-0.505862	-0.116406
C122	C	1.851872	-0.172529	0.216928
C123	C	2.185206	0.160804	0.550261
H124	H	1.118496	-0.384330	-0.628264
H125	H	1.451829	-0.050996	-0.294931
H126	H	1.785163	0.282337	0.038403
H127	H	1.640244	-0.905840	-0.628161
H128	H	1.973578	-0.572507	-0.294828
H129	H	2.306911	-0.239174	0.038506
H130	H	1.118400	-0.627844	-0.384050
H131	H	1.451733	-0.294511	-0.050717
H132	H	1.785066	0.038822	0.282616
H133	H	1.396666	-1.105284	-0.384209
H134	H	1.729999	-0.771950	-0.050875
H135	H	2.063333	-0.438617	0.282458
H136	H	0.919449	-0.384362	-0.628276
H137	H	1.252782	-0.051029	-0.294942
H138	H	1.586116	0.282305	0.038391
H139	H	1.396588	-0.627747	-1.106183
H140	H	1.729921	-0.294413	-0.772850
H141	H	2.063254	0.038920	-0.439517
H142	H	0.919332	-0.627899	-0.384062
H143	H	1.252665	-0.294565	-0.050729
H144	H	1.585999	0.038768	0.282604
H145	H	1.640347	-1.104888	-0.628214
H146	H	1.973680	-0.771555	-0.294881
H147	H	2.307014	-0.438221	0.038453
F148	F	1.379740	-0.892521	-0.367344
F149	F	1.713073	-0.559188	-0.034011
F150	F	2.046407	-0.225855	0.299323
H151	H	1.640449	-0.384058	-0.907191
H152	H	1.973783	-0.050725	-0.573858
H153	H	2.307116	0.282608	-0.240524
H154	H	1.640479	-0.383977	-1.106238
H155	H	1.973812	-0.050644	-0.772905
H156	H	2.307146	0.282689	-0.439571
F157	F	1.379728	-0.644629	-0.893390
F158	F	1.713062	-0.311295	-0.560056
F159	F	2.046395	0.022038	-0.226723
