data_functionalizedCrystal
_audit_creation_method	'MofGen! by Chris Wilmer'
_symmetry_space_group_name_H-M	'P1'
_symmetry_Int_Tables_number	1
_symmetry_cell_setting	triclinic
loop_
_symmetry_equiv_pos_as_xyz
  x,y,z
_cell_length_a	17.077404
_cell_length_b	19.077068
_cell_length_c	17.077396
_cell_angle_alpha	92.267122
_cell_angle_beta	89.980499
_cell_angle_gamma	92.327269
loop_
_atom_site_label
_atom_site_type_symbol
_atom_site_fract_x
_atom_site_fract_y
_atom_site_fract_z
Zn1	Zn	1.187475	-0.280197	-0.456376
Zn2	Zn	1.687475	0.219803	0.043624
Zn3	Zn	1.182097	-0.397901	-0.330375
Zn4	Zn	1.682097	0.102099	0.169625
Zn5	Zn	1.056205	-0.280222	-0.325125
Zn6	Zn	1.556205	0.219778	0.174875
Zn7	Zn	1.050892	-0.397859	-0.461596
Zn8	Zn	1.550892	0.102141	0.038404
O9	O	1.119167	-0.339045	-0.393368
O10	O	1.619167	0.160955	0.106632
O11	O	1.296608	-0.295818	-0.439674
O12	O	1.796608	0.204182	0.060326
O13	O	1.165371	-0.382318	-0.219833
O14	O	1.665371	0.117682	0.280167
O15	O	1.078093	-0.181727	-0.338154
O16	O	1.578093	0.318273	0.161846
O17	O	1.292657	-0.382294	-0.347101
O18	O	1.792657	0.117706	0.152899
O19	O	1.174536	-0.181709	-0.434583
O20	O	1.674536	0.318291	0.065417
O21	O	1.072878	-0.295860	-0.215976
O22	O	1.572878	0.204140	0.284024
O23	O	0.945654	-0.295819	-0.343216
O24	O	1.445654	0.204181	0.156784
O25	O	1.069036	-0.382223	-0.570750
O26	O	1.569036	0.117777	-0.070750
O27	O	0.941750	-0.382247	-0.443481
O28	O	1.441750	0.117753	0.056519
O29	O	1.169383	-0.295777	-0.566914
O30	O	1.669383	0.204223	-0.066914
O31	O	1.160218	-0.496386	-0.352163
O32	O	1.660218	0.003614	0.147837
O33	O	1.063822	-0.496356	-0.448571
O34	O	1.563822	0.003644	0.051429
C35	C	0.915220	-0.339032	-0.393346
C36	C	1.415220	0.160968	0.106654
C37	C	0.827970	-0.339043	-0.393356
C38	C	1.327970	0.160957	0.106644
C39	C	0.784964	-0.384114	-0.445486
C40	C	1.284964	0.115886	0.054514
C41	C	0.702984	-0.384116	-0.445499
C42	C	1.202984	0.115884	0.054501
C43	C	0.664010	-0.339050	-0.393376
C44	C	1.164010	0.160950	0.106624
C45	C	0.707021	-0.293974	-0.341243
C46	C	1.207021	0.206026	0.158757
C47	C	0.789000	-0.293969	-0.341235
C48	C	1.289000	0.206031	0.158765
C49	C	0.536151	-0.293988	-0.341263
C50	C	1.036151	0.206012	0.158737
C51	C	0.454166	-0.293993	-0.341270
C52	C	0.954166	0.206007	0.158730
C53	C	0.450134	-0.384134	-0.445526
C54	C	0.950134	0.115866	0.054474
C55	C	0.532113	-0.384130	-0.445518
C56	C	1.032113	0.115870	0.054482
C57	C	0.575119	-0.339055	-0.393384
C58	C	1.075119	0.160945	0.106616
C59	C	1.110881	-0.521909	-0.401521
C60	C	1.610881	-0.021909	0.098479
C61	C	1.107408	-0.600139	-0.405035
C62	C	1.607408	-0.100139	0.094965
C63	C	1.156004	-0.636884	-0.356533
C64	C	1.656004	-0.136884	0.143467
C65	C	1.152742	-0.710389	-0.359843
C66	C	1.652742	-0.210389	0.140157
C67	C	1.100880	-0.747148	-0.411651
C68	C	1.600880	-0.247148	0.088349
C69	C	1.052283	-0.710398	-0.460158
C70	C	1.552283	-0.210398	0.039842
C71	C	1.055549	-0.636894	-0.456852
C72	C	1.555549	-0.136894	0.043148
C73	C	1.085729	-0.966982	-0.426921
C74	C	1.585729	-0.466982	0.073079
C75	C	1.082465	-1.040491	-0.430222
C76	C	1.582465	-0.540491	0.069778
C77	C	1.182926	-1.040478	-0.329907
C78	C	1.682926	-0.540478	0.170093
C79	C	1.186184	-0.966973	-0.326602
C80	C	1.686184	-0.466973	0.173398
C81	C	1.137590	-0.930229	-0.375112
C82	C	1.637590	-0.430229	0.124888
N83	N	1.097543	-0.822282	-0.415033
N84	N	1.597543	-0.322282	0.084967
N85	N	1.140931	-0.855096	-0.371733
N86	N	1.640931	-0.355096	0.128267
C87	C	1.323911	-0.339058	-0.393391
C88	C	1.823911	0.160942	0.106609
C89	C	1.411160	-0.339064	-0.393400
C90	C	1.911160	0.160936	0.106600
C91	C	1.119217	-0.338993	-0.598110
C92	C	1.619217	0.161007	-0.098110
C93	C	1.119238	-0.338971	-0.685359
C94	C	1.619238	0.161029	-0.185359
C95	C	1.127507	-0.155467	-0.385201
C96	C	1.627507	0.344533	0.114799
C97	C	1.131061	-0.077237	-0.381720
C98	C	1.631061	0.422763	0.118280
C99	C	1.171491	-0.293955	-0.724353
C100	C	1.671491	0.206045	-0.224353
C101	C	1.171501	-0.293931	-0.806332
C102	C	1.671501	0.206069	-0.306332
C103	C	1.119262	-0.338928	-0.849316
C104	C	1.619262	0.161072	-0.349316
C105	C	1.067004	-0.383946	-0.810317
C106	C	1.567004	0.116054	-0.310317
C107	C	1.066990	-0.383965	-0.728339
C108	C	1.566990	0.116035	-0.228339
C109	C	1.067038	-0.383904	-0.981185
C110	C	1.567038	0.116096	-0.481185
C111	C	1.067052	-0.383885	-1.063169
C112	C	1.567052	0.116115	-0.563169
C113	C	1.171549	-0.293870	-1.059179
C114	C	1.671549	0.206130	-0.559179
C115	C	1.171535	-0.293889	-0.977201
C116	C	1.671535	0.206111	-0.477201
C117	C	1.119277	-0.338908	-0.938207
C118	C	1.619277	0.161092	-0.438207
C119	C	1.119165	-0.339046	-0.189420
C120	C	1.619165	0.160954	0.310580
C121	C	1.119305	-0.338869	-0.102163
C122	C	1.619305	0.161131	0.397837
H123	H	0.571164	-0.257277	-0.298816
H124	H	1.071164	0.242723	0.201184
H125	H	1.024468	-0.420581	-0.845321
H126	H	1.524468	0.079419	-0.345321
H127	H	0.667972	-0.420818	-0.487948
H128	H	1.167972	0.079182	0.012052
H129	H	1.198232	-0.606960	-0.314342
H130	H	1.698232	-0.106960	0.185658
H131	H	0.675282	-0.257277	-0.298808
H132	H	1.175282	0.242723	0.201192
O133	O	1.222313	-0.250343	-0.682570
O134	O	1.722313	0.249657	-0.182570
C135	C	1.328673	-0.240893	-0.589574
C136	C	1.828673	0.259107	-0.089574
C137	C	1.271178	-0.290367	-0.636859
C138	C	1.771178	0.209633	-0.136859
H139	H	1.368184	-0.273231	-0.552593
H140	H	1.868184	0.226769	-0.052593
H141	H	1.366077	-0.208724	-0.631493
H142	H	1.866077	0.291276	-0.131493
H143	H	1.294279	-0.204086	-0.549586
H144	H	1.794279	0.295914	-0.049586
H145	H	1.305509	-0.327217	-0.676850
H146	H	1.805509	0.172783	-0.176850
H147	H	1.233774	-0.322486	-0.594896
H148	H	1.733774	0.177514	-0.094896
O149	O	0.569851	-0.427930	-0.496222
O150	O	1.069851	0.072070	0.003778
C151	C	0.557204	-0.517368	-0.599599
C152	C	1.057204	-0.017368	-0.099599
C153	C	0.514368	-0.467790	-0.542230
C154	C	1.014368	0.032210	-0.042230
H155	H	0.512365	-0.549619	-0.636800
H156	H	1.012365	-0.049619	-0.136800
H157	H	0.597042	-0.485132	-0.639313
H158	H	1.097042	0.014868	-0.139313
H159	H	0.593928	-0.554094	-0.565110
H160	H	1.093928	-0.054094	-0.065110
H161	H	0.477602	-0.431055	-0.576655
H162	H	0.977602	0.068945	-0.076655
H163	H	0.474578	-0.500070	-0.502516
H164	H	0.974578	-0.000070	-0.002516
O165	O	1.016262	-0.427489	-1.105001
O166	O	1.516262	0.072511	-0.605001
C167	C	0.909827	-0.436897	-1.197914
C168	C	1.409827	0.063103	-0.697914
C169	C	0.967320	-0.387441	-1.150601
C170	C	1.467320	0.112559	-0.650601
H171	H	0.870232	-0.404537	-1.234780
H172	H	1.370232	0.095463	-0.734780
H173	H	0.944143	-0.473689	-1.237993
H174	H	1.444143	0.026311	-0.737993
H175	H	0.872507	-0.469082	-1.155943
H176	H	1.372507	0.030918	-0.655943
H177	H	1.004654	-0.355209	-1.192513
H178	H	1.504654	0.144791	-0.692513
H179	H	0.932956	-0.350694	-1.110512
H180	H	1.432956	0.149306	-0.610512
H181	H	0.824015	-0.257264	-0.298789
H182	H	1.324015	0.242736	0.201211
H183	H	1.214097	-0.257212	-1.090932
H184	H	1.714097	0.242788	-0.590932
H185	H	1.214077	-0.257253	-0.942205
H186	H	1.714077	0.242747	-0.442205
O187	O	0.416253	-0.250301	-0.290588
O188	O	0.916253	0.249699	0.209412
C189	C	0.324002	-0.240669	-0.184283
C190	C	0.824002	0.259331	0.315717
C191	C	0.366908	-0.290238	-0.241606
C192	C	0.866908	0.209762	0.258394
H193	H	0.284085	-0.272937	-0.144678
H194	H	0.784085	0.227063	0.355322
H195	H	0.368769	-0.208443	-0.146966
H196	H	0.868769	0.291557	0.353034
H197	H	0.287348	-0.203919	-0.218812
H198	H	0.787348	0.296081	0.281188
H199	H	0.403561	-0.327030	-0.207140
H200	H	0.903561	0.172970	0.292860
H201	H	0.322101	-0.322414	-0.278924
H202	H	0.822101	0.177586	0.221076
H203	H	1.228414	-0.937045	-0.284416
H204	H	1.728414	-0.437045	0.215584
O205	O	1.199976	-0.745974	-0.312646
O206	O	1.699976	-0.245974	0.187354
C207	C	1.299991	-0.738204	-0.212827
C208	C	1.799991	-0.238204	0.287173
C209	C	1.246528	-0.697817	-0.266221
C210	C	1.746528	-0.197817	0.233779
H211	H	1.337654	-0.699287	-0.175291
H212	H	1.837654	-0.199287	0.324709
H213	H	1.262482	-0.772652	-0.173248
H214	H	1.762482	-0.272652	0.326752
H215	H	1.339458	-0.772581	-0.250460
H216	H	1.839458	-0.272581	0.249540
H217	H	1.207051	-0.663402	-0.228650
H218	H	1.707051	-0.163402	0.271350
H219	H	1.284084	-0.663413	-0.305804
H220	H	1.784084	-0.163413	0.194196
O221	O	1.016260	-0.427713	-0.943430
O222	O	1.516260	0.072287	-0.443430
C223	C	0.912617	-0.516996	-0.956034
C224	C	1.412617	-0.016996	-0.456034
C225	C	0.970080	-0.467421	-0.998891
C226	C	1.470080	0.032579	-0.498891
H227	H	0.875255	-0.549103	-1.000854
H228	H	1.375255	-0.049103	-0.500854
H229	H	0.946958	-0.553850	-0.919331
H230	H	1.446958	-0.053850	-0.419331
H231	H	0.873061	-0.484694	-0.916178
H232	H	1.373061	0.015306	-0.416178
H233	H	1.009650	-0.499666	-1.038787
H234	H	1.509650	0.000334	-0.538787
H235	H	0.935691	-0.430565	-1.035544
H236	H	1.435691	0.069435	-0.535544
H237	H	1.040242	-1.070418	-0.472424
H238	H	1.540242	-0.570418	0.027576
O239	O	1.016262	-0.427630	-0.690333
O240	O	1.516262	0.072370	-0.190333
C241	C	0.969960	-0.467581	-0.565808
C242	C	1.469960	0.032419	-0.065808
C243	C	1.027443	-0.418087	-0.608748
C244	C	1.527443	0.081913	-0.108748
H245	H	0.978991	-0.459894	-0.499840
H246	H	1.478991	0.040106	0.000160
H247	H	0.907212	-0.455212	-0.581307
H248	H	1.407212	0.044788	-0.081307
H249	H	0.981159	-0.524324	-0.584498
H250	H	1.481159	-0.024324	-0.084498
H251	H	1.016315	-0.361328	-0.590082
H252	H	1.516315	0.138672	-0.090082
H253	H	1.090172	-0.430517	-0.593248
H254	H	1.590172	0.069483	-0.093248
O255	O	0.822697	-0.427915	-0.496194
O256	O	1.322697	0.072085	0.003806
C257	C	0.810035	-0.517347	-0.599576
C258	C	1.310035	-0.017347	-0.099576
C259	C	0.767207	-0.467769	-0.542200
C260	C	1.267207	0.032231	-0.042200
H261	H	0.765190	-0.549592	-0.636775
H262	H	1.265190	-0.049592	-0.136775
H263	H	0.849871	-0.485111	-0.639292
H264	H	1.349871	0.014889	-0.139292
H265	H	0.846758	-0.554077	-0.565093
H266	H	1.346758	-0.054077	-0.065093
H267	H	0.730442	-0.431029	-0.576619
H268	H	1.230442	0.068971	-0.076619
H269	H	0.727418	-0.500048	-0.502484
H270	H	1.227418	-0.000048	-0.002484
H271	H	1.046160	-0.937071	-0.466418
H272	H	1.546160	-0.437071	0.033582
O273	O	0.408244	-0.427851	-0.496146
O274	O	0.908244	0.072149	0.003854
C275	C	0.280162	-0.467837	-0.542338
C276	C	0.780162	0.032163	-0.042338
C277	C	0.327510	-0.418280	-0.484990
C278	C	0.827510	0.081720	0.015010
H279	H	0.214880	-0.460127	-0.533327
H280	H	0.714880	0.039873	-0.033327
H281	H	0.296810	-0.455551	-0.605124
H282	H	0.796810	0.044449	-0.105124
H283	H	0.293751	-0.524565	-0.530982
H284	H	0.793751	-0.024565	-0.030982
H285	H	0.313946	-0.361536	-0.496274
H286	H	0.813946	0.138464	0.003726
H287	H	0.310856	-0.430627	-0.422222
H288	H	0.810856	0.069373	0.077778
O289	O	1.230248	-1.076092	-0.282828
O290	O	1.730248	-0.576092	0.217172
C291	C	1.362805	-1.098528	-0.245895
C292	C	1.862805	-0.598528	0.254105
C293	C	1.309297	-1.058142	-0.299246
C294	C	1.809297	-0.558142	0.200754
H295	H	1.426728	-1.084042	-0.259162
H296	H	1.926728	-0.584042	0.240838
H297	H	1.349765	-1.084112	-0.181925
H298	H	1.849765	-0.584112	0.318075
H299	H	1.351529	-1.157375	-0.257140
H300	H	1.851529	-0.657375	0.242860
H301	H	1.320543	-0.999287	-0.288071
H302	H	1.820543	-0.499287	0.211929
H303	H	1.322348	-1.072617	-0.363199
H304	H	1.822348	-0.572617	0.136801
O305	O	1.001924	-0.746212	-0.510416
O306	O	1.501924	-0.246212	-0.010416
C307	C	0.952397	-0.859452	-0.559998
C308	C	1.452397	-0.359452	-0.059998
C309	C	1.009455	-0.818983	-0.503033
C310	C	1.509455	-0.318983	-0.003033
H311	H	0.958478	-0.918294	-0.554060
H312	H	1.458478	-0.418294	-0.054060
H313	H	0.889730	-0.845106	-0.545508
H314	H	1.389730	-0.345106	-0.045508
H315	H	0.966783	-0.844908	-0.622644
H316	H	1.466783	-0.344908	-0.122644
H317	H	0.995141	-0.833505	-0.440368
H318	H	1.495141	-0.333505	0.059632
H319	H	1.072105	-0.833332	-0.517591
H320	H	1.572105	-0.333332	-0.017591
H321	H	1.214052	-0.257276	-0.838078
H322	H	1.714052	0.242724	-0.338078
H323	H	1.015978	-0.606976	-0.496348
H324	H	1.515978	-0.106976	0.003652
