data_functionalizedCrystal
_audit_creation_method	'MofGen! by Chris Wilmer'
_symmetry_space_group_name_H-M	'P1'
_symmetry_Int_Tables_number	1
_symmetry_cell_setting	triclinic
loop_
_symmetry_equiv_pos_as_xyz
  x,y,z
_cell_length_a	10.654550
_cell_length_b	15.944551
_cell_length_c	9.130313
_cell_angle_alpha	89.997799
_cell_angle_beta	89.996220
_cell_angle_gamma	83.991820
loop_
_atom_site_label
_atom_site_type_symbol
_atom_site_fract_x
_atom_site_fract_y
_atom_site_fract_z
O1	O	1.666308	0.117973	-0.121923
O2	O	1.300684	0.129213	-0.121900
O3	O	1.493480	0.001376	-0.121899
O4	O	1.473511	0.245810	-0.121924
O5	O	1.493478	0.001379	0.121700
O6	O	1.300681	0.129216	0.121699
O7	O	1.666305	0.117976	0.121676
Cu8	Cu	1.483493	0.123596	0.143930
Cu9	Cu	1.483496	0.123592	-0.144154
O10	O	1.473509	0.245813	0.121675
C11	C	1.253895	0.128389	-0.000098
C12	C	1.114484	0.125920	-0.000088
C13	C	1.492650	-0.029921	-0.000099
C14	C	1.490165	-0.123182	-0.000098
C15	C	1.034024	0.201188	-0.000117
C16	C	0.903034	0.198863	-0.000142
C17	C	0.932975	0.045995	-0.000116
C18	C	1.063963	0.048321	-0.000080
C19	C	1.084545	0.278788	-0.000126
C20	C	1.004084	0.354062	-0.000156
C21	C	0.873094	0.351737	-0.000182
C22	C	0.822564	0.274137	-0.000176
C23	C	1.364720	-0.338765	-0.000111
C24	C	1.422971	-0.399443	0.119995
C25	C	1.485668	-0.293934	-0.000109
C26	C	1.423002	-0.399430	-0.120175
C27	C	1.481317	-0.458872	-0.000126
C28	C	1.543953	-0.353384	0.120095
C29	C	1.543967	-0.353364	-0.120182
C30	C	1.602306	-0.414024	-0.000048
C31	C	1.488172	-0.198917	-0.000098
C32	C	1.478822	-0.553887	-0.000127
C33	C	1.713094	0.118800	-0.000130
C34	C	1.852505	0.121269	-0.000149
C35	C	1.474339	0.277110	-0.000128
C36	C	1.476824	0.370371	-0.000139
N37	N	1.483500	0.123599	0.346552
N38	N	1.483499	0.123583	-0.346777
C39	C	1.568892	0.067012	0.423205
C40	C	1.568889	0.067002	0.576542
C41	C	1.398098	0.180173	0.576560
C42	C	1.398096	0.180178	0.423226
C43	C	1.654296	0.010433	0.346531
C44	C	1.739696	-0.046158	0.423184
C45	C	1.739693	-0.046168	0.576520
C46	C	1.654290	0.010412	0.653205
H47	H	1.045235	0.417241	-0.000149
H48	H	1.654286	0.010394	0.778062
H49	H	1.654309	0.010437	0.221677
H50	H	1.191203	0.280689	-0.000112
H51	H	0.807585	0.413029	-0.000192
H52	H	1.371814	-0.419846	0.221540
C53	C	1.080412	-0.103017	-0.000091
C54	C	1.152414	-0.034415	-0.000067
H55	H	1.135021	-0.154094	-0.000090
H56	H	1.028684	-0.100749	0.084841
H57	H	1.028714	-0.100739	-0.085057
H58	H	1.204106	-0.036689	0.084905
H59	H	1.204164	-0.036684	-0.085007
C60	C	1.166163	-0.317680	0.125995
C61	C	1.229200	-0.294576	0.000053
H62	H	1.082505	-0.290394	0.126102
H63	H	1.163657	-0.377049	0.126855
H64	H	1.209570	-0.301250	0.210440
H65	H	1.185798	-0.311012	-0.084393
H66	H	1.231699	-0.235194	-0.000820
H67	H	1.595065	-0.333096	0.221746
H68	H	0.891822	-0.017184	-0.000135
H69	H	1.809222	-0.092229	0.360739
H70	H	0.715901	0.272250	-0.000174
C71	C	1.312639	-0.355858	-0.341145
C72	C	1.353930	-0.426948	-0.257253
H73	H	1.269999	-0.372846	-0.425770
H74	H	1.256690	-0.318526	-0.284572
H75	H	1.383231	-0.327996	-0.370007
H76	H	1.283337	-0.454806	-0.228381
H77	H	1.409882	-0.464294	-0.313836
C78	C	1.908516	-0.158027	0.561093
C79	C	1.833559	-0.108372	0.660779
H80	H	1.966474	-0.196424	0.613112
H81	H	1.856249	-0.188566	0.501291
H82	H	1.953678	-0.122765	0.501285
H83	H	1.788390	-0.143633	0.720581
H84	H	1.885833	-0.077831	0.720606
H85	H	1.702787	-0.446602	0.000014
H86	H	1.595080	-0.332939	-0.221733
H87	H	1.328567	0.226239	0.639006
C88	C	1.229290	0.292053	0.438634
C89	C	1.304240	0.242384	0.338958
H90	H	1.171351	0.330458	0.386607
H91	H	1.184119	0.256807	0.498438
H92	H	1.281574	0.322589	0.498441
H93	H	1.251957	0.211842	0.279158
H94	H	1.349414	0.277635	0.279129
