data_functionalizedCrystal
_audit_creation_method	'MofGen! by Chris Wilmer'
_symmetry_space_group_name_H-M	'P1'
_symmetry_Int_Tables_number	1
_symmetry_cell_setting	triclinic
loop_
_symmetry_equiv_pos_as_xyz
  x,y,z
_cell_length_a	19.288864
_cell_length_b	27.732048
_cell_length_c	17.766277
_cell_angle_alpha	89.988664
_cell_angle_beta	89.976791
_cell_angle_gamma	82.889449
loop_
_atom_site_label
_atom_site_type_symbol
_atom_site_fract_x
_atom_site_fract_y
_atom_site_fract_z
O1	O	0.920977	0.060300	-0.062844
O2	O	0.718666	0.068434	-0.062793
O3	O	0.826105	-0.006011	-0.062806
O4	O	0.813538	0.134745	-0.062831
O5	O	0.826086	-0.006014	0.062383
O6	O	0.718647	0.068430	0.062395
O7	O	0.920958	0.060296	0.062345
Cu8	Cu	0.819801	0.064363	0.073801
Cu9	Cu	0.819823	0.064367	-0.074249
O10	O	0.813519	0.134741	0.062357
C11	C	0.692781	0.068171	-0.000192
C12	C	0.615683	0.067385	-0.000172
C13	C	0.570714	0.111066	-0.000192
C14	C	0.498271	0.110328	-0.000200
C15	C	0.470801	0.065906	-0.000204
C16	C	0.515780	0.022219	-0.000180
C17	C	0.588220	0.022959	-0.000164
C18	C	0.362763	0.030987	-0.044082
C19	C	0.290324	0.030250	-0.044102
C20	C	0.247370	0.063624	-0.000249
C21	C	0.276863	0.097744	0.043615
C22	C	0.349304	0.098483	0.043631
C23	C	0.392252	0.065099	-0.000220
C24	C	0.123850	0.106507	-0.000277
C25	C	0.051406	0.105767	-0.000280
C26	C	0.068916	0.017658	-0.000267
C27	C	0.141358	0.018399	-0.000256
C28	C	0.168820	0.062825	-0.000264
C29	C	0.825831	-0.024020	-0.000209
C30	C	0.825037	-0.077678	-0.000203
C31	C	0.883526	-0.416316	-0.000256
C32	C	0.880579	-0.617985	-0.000266
O33	O	0.934063	-0.649079	-0.000312
N34	N	0.816872	-0.637301	-0.000249
C35	C	0.753897	-0.606196	-0.000235
O36	O	0.699643	-0.627253	-0.000229
C37	C	0.756845	-0.404529	-0.000231
C38	C	0.820556	-0.385216	-0.000240
C39	C	0.947232	-0.397002	-0.000266
C40	C	0.947968	-0.346588	-0.000259
C41	C	0.884998	-0.315488	-0.000243
C42	C	0.821292	-0.334801	-0.000233
C43	C	0.693871	-0.373425	-0.000222
C44	C	0.694614	-0.323006	-0.000223
C45	C	0.758325	-0.303693	-0.000232
C46	C	0.759059	-0.253287	-0.000210
N47	N	0.822766	-0.233971	-0.000227
C48	C	0.885735	-0.265071	-0.000243
C49	C	0.752354	-0.712075	-0.000236
C50	C	0.751617	-0.762492	-0.000236
C51	C	0.878299	-0.774276	-0.000268
C52	C	0.879035	-0.723859	-0.000263
C53	C	0.816061	-0.692759	-0.000253
C54	C	0.887276	-0.159197	-0.000229
C55	C	0.888007	-0.108778	-0.000219
C56	C	0.761325	-0.096998	-0.000191
C57	C	0.760595	-0.147412	-0.000197
C58	C	0.823576	-0.178511	-0.000218
O59	O	0.705603	-0.222164	-0.000172
O60	O	0.939982	-0.244005	-0.000266
C61	C	0.882790	-0.466730	-0.000263
C62	C	0.819084	-0.486044	-0.000253
C63	C	0.756114	-0.454943	-0.000236
C64	C	0.818347	-0.536461	-0.000253
C65	C	0.881317	-0.567561	-0.000269
C66	C	0.945023	-0.548245	-0.000285
C67	C	0.945760	-0.497831	-0.000279
C68	C	0.692407	-0.474260	-0.000220
C69	C	0.691676	-0.524674	-0.000226
C70	C	0.754646	-0.555775	-0.000242
C71	C	0.946842	0.060560	-0.000258
C72	C	1.023941	0.061345	-0.000282
N73	N	0.819790	0.064359	0.177931
C74	C	0.813792	0.152751	-0.000241
C75	C	0.814587	0.206408	-0.000252
N76	N	0.819839	0.064367	-0.178379
C77	C	0.867380	0.031411	0.217313
C78	C	0.867384	0.031409	0.296114
C79	C	0.819805	0.064363	0.335532
C80	C	0.772207	0.097314	0.296141
C81	C	0.772200	0.097312	0.217341
C82	C	0.810231	0.108406	0.460363
C83	C	0.810244	0.108408	0.539162
C84	C	0.819823	0.064369	0.578578
C85	C	0.829406	0.020325	0.539186
C86	C	0.829399	0.020323	0.460385
C87	C	0.819807	0.064369	0.420977
C88	C	0.867420	0.031416	0.703405
C89	C	0.867419	0.031413	0.782209
C90	C	0.772245	0.097322	0.782234
C91	C	0.772243	0.097321	0.703432
C92	C	0.819834	0.064368	0.664023
H93	H	0.397731	0.003809	-0.079797
O94	O	0.726040	0.129389	0.179116
C95	C	0.684404	0.213512	0.155035
C96	C	0.736726	0.177237	0.198358
H97	H	0.693015	0.252205	0.170588
H98	H	0.692572	0.207894	0.091935
H99	H	0.628848	0.207286	0.170549
H100	H	0.792302	0.183441	0.182907
H101	H	0.728497	0.182863	0.261447
O102	O	0.801056	0.151179	0.577461
C103	C	0.849414	0.203452	0.666424
C104	C	0.859920	0.155005	0.623085
H105	H	0.896990	0.206557	0.703333
H106	H	0.842593	0.234950	0.624757
H107	H	0.800848	0.204701	0.703308
H108	H	0.908488	0.153708	0.586200
H109	H	0.866699	0.123529	0.664793
H110	H	0.146211	0.142682	-0.000272
O111	O	0.913678	-0.000619	0.334264
C112	C	1.008045	-0.066011	0.325929
C113	C	0.955669	-0.029758	0.282635
H114	H	1.041998	-0.089587	0.284205
H115	H	1.042567	-0.045228	0.362776
H116	H	0.978304	-0.090082	0.362865
H117	H	0.985353	-0.005677	0.245657
H118	H	0.921148	-0.050571	0.245835
H119	H	0.906170	0.004580	0.814274
H120	H	0.266316	0.002469	-0.079822
H121	H	0.373314	0.126263	0.079349
H122	H	0.997640	-0.482111	-0.000286
O123	O	0.185074	-0.024020	-0.000115
C124	C	0.277020	-0.074308	0.064737
C125	C	0.227540	-0.026254	0.064678
H126	H	0.311377	-0.076126	0.117108
H127	H	0.244982	-0.106205	0.064780
H128	H	0.311368	-0.076154	0.012328
H129	H	0.193182	-0.024361	0.117078
H130	H	0.259621	0.005620	0.064595
H131	H	0.493409	-0.013949	-0.000193
O132	O	0.007820	0.148246	-0.000331
C133	C	-0.001899	0.235715	-0.000309
C134	C	0.047543	0.187644	-0.000270
H135	H	0.030197	0.267580	-0.000244
H136	H	-0.036213	0.237604	-0.052718
H137	H	-0.036292	0.237546	0.052064
H138	H	0.081979	0.185781	-0.052608
H139	H	0.081809	0.185775	0.052174
H140	H	0.929571	-0.799607	-0.000281
O141	O	0.838678	-0.022501	0.422236
C142	C	0.857718	-0.109867	0.430565
C143	C	0.847204	-0.061404	0.473863
H144	H	0.864628	-0.141332	0.472286
H145	H	0.810117	-0.113037	0.393723
H146	H	0.906245	-0.111106	0.393624
H147	H	0.798702	-0.060132	0.510845
H148	H	0.894841	-0.058254	0.510657
H149	H	0.643331	-0.297686	-0.000216
O150	O	0.698752	-0.166235	-0.000282
C151	C	0.624394	-0.216278	-0.065160
C152	C	0.694461	-0.195007	-0.065139
H153	H	0.620895	-0.239537	-0.117599
H154	H	0.620863	-0.239631	-0.012810
H155	H	0.579525	-0.185381	-0.065107
H156	H	0.739370	-0.225874	-0.065219
H157	H	0.697931	-0.171642	-0.117485
H158	H	0.710057	-0.071667	-0.000175
O159	O	0.631808	-0.019519	-0.000183
C160	C	0.641531	-0.106988	-0.000126
C161	C	0.592087	-0.058918	-0.000119
H162	H	0.609436	-0.138854	-0.000057
H163	H	0.675897	-0.108876	-0.052524
H164	H	0.675872	-0.108819	0.052259
H165	H	0.557702	-0.057055	-0.052467
H166	H	0.557769	-0.057050	0.052314
H167	H	0.461651	0.145899	-0.000214
H168	H	0.906129	0.004578	0.185228
H169	H	0.802418	0.144270	0.428277
H170	H	0.046551	-0.018511	-0.000317
H171	H	0.593069	0.147241	-0.000200
H172	H	0.998512	-0.422320	-0.000282
O173	O	0.949960	-0.090099	-0.000264
C174	C	1.075533	-0.107118	-0.000253
C175	C	1.005424	-0.128334	-0.000217
H176	H	1.120393	-0.138021	-0.000199
H177	H	1.079101	-0.083818	-0.052655
H178	H	1.079002	-0.083801	0.052128
H179	H	1.001907	-0.151673	-0.052563
H180	H	1.001885	-0.151606	0.052219
O181	O	0.948437	-0.189422	-0.000379
C182	C	1.021136	-0.253189	-0.065228
C183	C	0.951856	-0.218980	-0.065167
H184	H	1.023917	-0.277102	-0.117595
H185	H	1.066817	-0.230741	-0.065280
H186	H	1.023943	-0.277072	-0.012815
H187	H	0.948981	-0.195089	-0.117571
H188	H	0.906208	-0.241456	-0.065074
O189	O	0.913668	-0.000643	0.665234
C190	C	1.008091	-0.065997	0.673525
C191	C	0.955743	-0.029724	0.716844
H192	H	1.042132	-0.089511	0.715232
H193	H	0.978398	-0.090124	0.636676
H194	H	1.042530	-0.045179	0.636587
H195	H	0.921290	-0.050501	0.753821
H196	H	0.985479	-0.005597	0.753645
H197	H	0.996296	-0.573576	-0.000295
H198	H	0.241891	0.124920	0.079325
H199	H	0.999848	-0.330868	-0.000270
H200	H	0.837207	-0.015536	0.571276
O201	O	0.725962	0.129260	0.334511
C202	C	0.630977	0.139717	0.423497
C203	C	0.683326	0.103487	0.380104
H204	H	0.596483	0.118894	0.460357
H205	H	0.660670	0.163807	0.460413
H206	H	0.596992	0.163277	0.381797
H207	H	0.717325	0.079895	0.421749
H208	H	0.653591	0.079430	0.343177
H209	H	0.930914	-0.708138	-0.000271
H210	H	0.699737	-0.778212	-0.000215
O211	O	0.629721	-0.543351	-0.000249
C212	C	0.504149	-0.526327	-0.000188
C213	C	0.574260	-0.505113	-0.000169
H214	H	0.459291	-0.495422	-0.000107
H215	H	0.500598	-0.549608	-0.052596
H216	H	0.500658	-0.549663	0.052187
H217	H	0.577799	-0.481756	-0.052508
H218	H	0.577781	-0.481861	0.052274
O219	O	0.691113	-0.681936	-0.000186
C220	C	0.565386	-0.675582	-0.000190
C221	C	0.634689	-0.709766	-0.000234
H222	H	0.519749	-0.698068	-0.000245
H223	H	0.562505	-0.651699	0.052216
H224	H	0.562600	-0.651666	-0.052567
H225	H	0.637522	-0.733712	0.052107
H226	H	0.637540	-0.733615	-0.052674
H227	H	0.641128	-0.448942	-0.000208
H228	H	0.733503	0.124152	0.814327
O229	O	0.631920	-0.392098	-0.000250
C230	C	0.506349	-0.375066	-0.000191
C231	C	0.576464	-0.353857	-0.000175
H232	H	0.461494	-0.344158	-0.000114
H233	H	0.502796	-0.398348	-0.052597
H234	H	0.502854	-0.398398	0.052186
H235	H	0.580006	-0.330502	-0.052516
H236	H	0.579987	-0.330602	0.052265
O237	O	0.725993	0.129378	0.665289
C238	C	0.631569	0.194730	0.673632
C239	C	0.683924	0.158459	0.716922
H240	H	0.597533	0.218245	0.715358
H241	H	0.661256	0.218858	0.636735
H242	H	0.597126	0.173911	0.636746
H243	H	0.718382	0.179238	0.753849
H244	H	0.654194	0.134332	0.753771
