data_functionalizedCrystal
_audit_creation_method	'MofGen! by Chris Wilmer'
_symmetry_space_group_name_H-M	'P1'
_symmetry_Int_Tables_number	1
_symmetry_cell_setting	triclinic
loop_
_symmetry_equiv_pos_as_xyz
  x,y,z
_cell_length_a	25.639242
_cell_length_b	25.639240
_cell_length_c	18.101390
_cell_angle_alpha	89.957874
_cell_angle_beta	89.972459
_cell_angle_gamma	90.027658
loop_
_atom_site_label
_atom_site_type_symbol
_atom_site_fract_x
_atom_site_fract_y
_atom_site_fract_z
Zn1	Zn	0.799277	-0.208202	-0.418848
Zn2	Zn	1.049277	0.041798	-0.168848
Zn3	Zn	1.299277	0.291798	0.081152
Zn4	Zn	1.549277	0.541798	0.331152
Zn5	Zn	0.799201	-0.295645	-0.294986
Zn6	Zn	1.049201	-0.045645	-0.044986
Zn7	Zn	1.299201	0.204355	0.205014
Zn8	Zn	1.549201	0.454355	0.455014
Zn9	Zn	0.711845	-0.208218	-0.295003
Zn10	Zn	0.961845	0.041782	-0.045003
Zn11	Zn	1.211845	0.291782	0.204997
Zn12	Zn	1.461845	0.541782	0.454997
Zn13	Zn	0.711808	-0.295600	-0.418769
Zn14	Zn	0.961808	-0.045600	-0.168769
Zn15	Zn	1.211808	0.204400	0.081231
Zn16	Zn	1.461808	0.454400	0.331231
O17	O	0.755533	-0.251916	-0.356901
O18	O	1.005533	-0.001916	-0.106901
O19	O	1.255533	0.248084	0.143099
O20	O	1.505533	0.498084	0.393099
O21	O	0.872432	-0.219814	-0.402444
O22	O	1.122432	0.030186	-0.152444
O23	O	1.372432	0.280186	0.097556
O24	O	1.622432	0.530186	0.347556
O25	O	0.787596	-0.284074	-0.191356
O26	O	1.037596	-0.034074	0.058644
O27	O	1.287596	0.215926	0.308644
O28	O	1.537596	0.465926	0.558644
O29	O	0.723490	-0.135051	-0.311471
O30	O	0.973490	0.114949	-0.061471
O31	O	1.223490	0.364949	0.188529
O32	O	1.473490	0.614949	0.438529
O33	O	0.872376	-0.284058	-0.311443
O34	O	1.122376	-0.034058	-0.061443
O35	O	1.372376	0.215942	0.188557
O36	O	1.622376	0.465942	0.438557
O37	O	0.787727	-0.135039	-0.402459
O38	O	1.037727	0.114961	-0.152459
O39	O	1.287727	0.364961	0.097541
O40	O	1.537727	0.614961	0.347541
O41	O	0.723416	-0.219841	-0.191368
O42	O	0.973416	0.030159	0.058632
O43	O	1.223416	0.280159	0.308632
O44	O	1.473416	0.530159	0.558632
O45	O	0.638675	-0.219797	-0.311394
O46	O	0.888675	0.030203	-0.061394
O47	O	1.138675	0.280203	0.188606
O48	O	1.388675	0.530203	0.438606
O49	O	0.723428	-0.283981	-0.522412
O50	O	0.973428	-0.033981	-0.272412
O51	O	1.223428	0.216019	-0.022412
O52	O	1.473428	0.466019	0.227588
O53	O	0.638648	-0.283997	-0.402325
O54	O	0.888648	-0.033997	-0.152325
O55	O	1.138648	0.216003	0.097675
O56	O	1.388648	0.466003	0.347675
O57	O	0.787691	-0.219770	-0.522470
O58	O	1.037691	0.030230	-0.272470
O59	O	1.287691	0.280230	-0.022470
O60	O	1.537691	0.530230	0.227530
O61	O	0.787560	-0.368805	-0.311366
O62	O	1.037560	-0.118805	-0.061366
O63	O	1.287560	0.131195	0.188634
O64	O	1.537560	0.381195	0.438634
O65	O	0.723353	-0.368772	-0.402309
O66	O	0.973353	-0.118772	-0.152309
O67	O	1.223353	0.131228	0.097691
O68	O	1.473353	0.381228	0.347691
C69	C	0.619690	-0.251894	-0.356853
C70	C	0.869690	-0.001894	-0.106853
C71	C	1.119690	0.248106	0.143147
C72	C	1.369690	0.498106	0.393147
C73	C	0.561576	-0.251897	-0.356850
C74	C	0.811576	-0.001897	-0.106850
C75	C	1.061576	0.248103	0.143150
C76	C	1.311576	0.498103	0.393150
C77	C	0.755459	-0.387759	-0.356843
C78	C	1.005459	-0.137759	-0.106843
C79	C	1.255459	0.112241	0.143157
C80	C	1.505459	0.362241	0.393157
C81	C	0.755475	-0.445873	-0.356843
C82	C	1.005475	-0.195873	-0.106843
C83	C	1.255475	0.054127	0.143157
C84	C	1.505475	0.304127	0.393157
C85	C	0.310388	-0.218432	-0.309636
C86	C	0.560388	0.031568	-0.059636
C87	C	0.810388	0.281568	0.190364
C88	C	1.060388	0.531568	0.440364
C89	C	0.364992	-0.218427	-0.309626
C90	C	0.614992	0.031573	-0.059626
C91	C	0.864992	0.281573	0.190374
C92	C	1.114992	0.531573	0.440374
O93	O	0.393233	-0.189943	-0.269442
O94	O	0.643233	0.060057	-0.019442
O95	O	0.893233	0.310057	0.230558
O96	O	1.143233	0.560057	0.480558
N97	N	0.392302	-0.251904	-0.356887
N98	N	0.642302	-0.001904	-0.106887
N99	N	0.892302	0.248096	0.143113
N100	N	1.142302	0.498096	0.393113
C101	C	0.365005	-0.285384	-0.404166
C102	C	0.615005	-0.035384	-0.154166
C103	C	0.865005	0.214616	0.095834
C104	C	1.115005	0.464616	0.345834
O105	O	0.393248	-0.313858	-0.444365
O106	O	0.643248	-0.063858	-0.194365
O107	O	0.893248	0.186142	0.055635
O108	O	1.143248	0.436142	0.305635
C109	C	0.310402	-0.285386	-0.404179
C110	C	0.560402	-0.035386	-0.154179
C111	C	0.810402	0.214614	0.095821
C112	C	1.060402	0.464614	0.345821
C113	C	0.283095	-0.251911	-0.356909
C114	C	0.533095	-0.001911	-0.106909
C115	C	0.783095	0.248089	0.143091
C116	C	1.033095	0.498089	0.393091
C117	C	0.283081	-0.184959	-0.262371
C118	C	0.533081	0.065041	-0.012371
C119	C	0.783081	0.315041	0.237629
C120	C	1.033081	0.565041	0.487629
C121	C	0.228480	-0.184965	-0.262380
C122	C	0.478480	0.065035	-0.012380
C123	C	0.728480	0.315035	0.237620
C124	C	0.978480	0.565035	0.487620
C125	C	0.201187	-0.218443	-0.309653
C126	C	0.451187	0.031557	-0.059653
C127	C	0.701187	0.281557	0.190347
C128	C	0.951187	0.531557	0.440347
C129	C	0.228494	-0.251916	-0.356918
C130	C	0.478494	-0.001916	-0.106918
C131	C	0.728494	0.248084	0.143082
C132	C	0.978494	0.498084	0.393082
C133	C	0.283105	-0.318863	-0.451461
C134	C	0.533105	-0.068863	-0.201461
C135	C	0.783105	0.181137	0.048539
C136	C	1.033105	0.431137	0.298539
C137	C	0.228498	-0.318862	-0.451470
C138	C	0.478498	-0.068862	-0.201470
C139	C	0.728498	0.181138	0.048530
C140	C	0.978498	0.431138	0.298530
C141	C	0.201191	-0.285386	-0.404200
C142	C	0.451191	-0.035386	-0.154200
C143	C	0.701191	0.214614	0.095800
C144	C	0.951191	0.464614	0.345800
C145	C	0.146600	-0.285401	-0.404200
C146	C	0.396600	-0.035401	-0.154200
C147	C	0.646600	0.214599	0.095800
C148	C	0.896600	0.464599	0.345800
N149	N	0.119290	-0.251924	-0.356939
N150	N	0.369290	-0.001924	-0.106939
N151	N	0.619290	0.248076	0.143061
N152	N	0.869290	0.498076	0.393061
C153	C	0.146583	-0.218445	-0.309666
C154	C	0.396583	0.031555	-0.059666
C155	C	0.646583	0.281555	0.190334
C156	C	0.896583	0.531555	0.440334
C157	C	0.479676	-0.285377	-0.404137
C158	C	0.729676	-0.035377	-0.154137
C159	C	0.979676	0.214623	0.095863
C160	C	1.229676	0.464623	0.345863
C161	C	0.534278	-0.285378	-0.404121
C162	C	0.784278	-0.035378	-0.154121
C163	C	1.034278	0.214622	0.095879
C164	C	1.284278	0.464622	0.345879
C165	C	0.534261	-0.218421	-0.309582
C166	C	0.784261	0.031579	-0.059582
C167	C	1.034261	0.281579	0.190418
C168	C	1.284261	0.531579	0.440418
C169	C	0.479658	-0.218422	-0.309595
C170	C	0.729658	0.031578	-0.059595
C171	C	0.979658	0.281578	0.190405
C172	C	1.229658	0.531578	0.440405
C173	C	0.452366	-0.251900	-0.356876
C174	C	0.702366	-0.001900	-0.106876
C175	C	0.952366	0.248100	0.143124
C176	C	1.202366	0.498100	0.393124
C177	C	0.031918	-0.218460	-0.309687
C178	C	0.281918	0.031540	-0.059687
C179	C	0.531918	0.281540	0.190313
C180	C	0.781918	0.531540	0.440313
C181	C	-0.022687	-0.218470	-0.309698
C182	C	0.227313	0.031530	-0.059698
C183	C	0.477313	0.281530	0.190302
C184	C	0.727313	0.531530	0.440302
C185	C	-0.022666	-0.285426	-0.404239
C186	C	0.227334	-0.035426	-0.154239
C187	C	0.477334	0.214574	0.095761
C188	C	0.727334	0.464574	0.345761
C189	C	0.031935	-0.285418	-0.404226
C190	C	0.281935	-0.035418	-0.154226
C191	C	0.531935	0.214582	0.095774
C192	C	0.781935	0.464582	0.345774
C193	C	0.059226	-0.251930	-0.356947
C194	C	0.309226	-0.001930	-0.106947
C195	C	0.559226	0.248070	0.143053
C196	C	0.809226	0.498070	0.393053
O197	O	0.118324	-0.313869	-0.444367
O198	O	0.368324	-0.063869	-0.194367
O199	O	0.618324	0.186131	0.055633
O200	O	0.868324	0.436131	0.305633
O201	O	0.118334	-0.189971	-0.269481
O202	O	0.368334	0.060029	-0.019481
O203	O	0.618334	0.310029	0.230519
O204	O	0.868334	0.560029	0.480519
C205	C	0.788997	-0.806191	-0.404365
C206	C	1.038997	-0.556191	-0.154365
C207	C	1.288997	-0.306191	0.095635
C208	C	1.538997	-0.056191	0.345635
C209	C	0.789013	-0.860796	-0.404380
C210	C	1.039013	-0.610796	-0.154380
C211	C	1.289013	-0.360796	0.095620
C212	C	1.539013	-0.110796	0.345620
O213	O	0.817427	-0.888994	-0.444724
O214	O	1.067427	-0.638994	-0.194724
O215	O	1.317427	-0.388994	0.055276
O216	O	1.567427	-0.138994	0.305276
N217	N	0.755605	-0.888155	-0.356973
N218	N	1.005605	-0.638155	-0.106973
N219	N	1.255605	-0.388155	0.143027
N220	N	1.505605	-0.138155	0.393027
C221	C	0.722176	-0.860908	-0.309554
C222	C	0.972176	-0.610908	-0.059554
C223	C	1.222176	-0.360908	0.190446
C224	C	1.472176	-0.110908	0.440446
O225	O	0.693762	-0.889194	-0.269232
O226	O	0.943762	-0.639194	-0.019232
O227	O	1.193762	-0.389194	0.230768
O228	O	1.443762	-0.139194	0.480768
C229	C	0.722159	-0.806305	-0.309543
C230	C	0.972159	-0.556305	-0.059543
C231	C	1.222159	-0.306305	0.190457
C232	C	1.472159	-0.056305	0.440457
C233	C	0.755572	-0.778948	-0.356947
C234	C	1.005572	-0.528948	-0.106947
C235	C	1.255572	-0.278948	0.143053
C236	C	1.505572	-0.028948	0.393053
C237	C	0.822407	-0.778834	-0.451766
C238	C	1.072407	-0.528834	-0.201766
C239	C	1.322407	-0.278834	0.048234
C240	C	1.572407	-0.028834	0.298234
C241	C	0.822393	-0.724234	-0.451749
C242	C	1.072393	-0.474234	-0.201749
C243	C	1.322393	-0.224234	0.048251
C244	C	1.572393	0.025766	0.298251
C245	C	0.788967	-0.696990	-0.404332
C246	C	1.038967	-0.446990	-0.154332
C247	C	1.288967	-0.196990	0.095668
C248	C	1.538967	0.053010	0.345668
C249	C	0.755557	-0.724347	-0.356931
C250	C	1.005557	-0.474347	-0.106931
C251	C	1.255557	-0.224347	0.143069
C252	C	1.505557	0.025653	0.393069
C253	C	0.688728	-0.779058	-0.262128
C254	C	0.938728	-0.529058	-0.012128
C255	C	1.188728	-0.279058	0.237872
C256	C	1.438728	-0.029058	0.487872
C257	C	0.688713	-0.724451	-0.262121
C258	C	0.938713	-0.474451	-0.012121
C259	C	1.188713	-0.224451	0.237879
C260	C	1.438713	0.025549	0.487879
C261	C	0.722126	-0.697094	-0.309526
C262	C	0.972126	-0.447094	-0.059526
C263	C	1.222126	-0.197094	0.190474
C264	C	1.472126	0.052906	0.440474
C265	C	0.722117	-0.642503	-0.309497
C266	C	0.972117	-0.392503	-0.059497
C267	C	1.222117	-0.142503	0.190503
C268	C	1.472117	0.107497	0.440503
N269	N	0.755525	-0.615143	-0.356904
N270	N	1.005525	-0.365143	-0.106904
N271	N	1.255525	-0.115143	0.143096
N272	N	1.505525	0.134857	0.393096
C273	C	0.788950	-0.642387	-0.404321
C274	C	1.038950	-0.392387	-0.154321
C275	C	1.288950	-0.142387	0.095679
C276	C	1.538950	0.107613	0.345679
C277	C	0.722215	-0.975579	-0.309581
C278	C	0.972215	-0.725579	-0.059581
C279	C	1.222215	-0.475579	0.190419
C280	C	1.472215	-0.225579	0.440419
C281	C	0.722235	-1.030181	-0.309587
C282	C	0.972235	-0.780181	-0.059587
C283	C	1.222235	-0.530181	0.190413
C284	C	1.472235	-0.280181	0.440413
C285	C	0.789071	-1.030065	-0.404414
C286	C	1.039071	-0.780065	-0.154414
C287	C	1.289071	-0.530065	0.095586
C288	C	1.539071	-0.280065	0.345586
C289	C	0.789053	-0.975462	-0.404404
C290	C	1.039053	-0.725462	-0.154404
C291	C	1.289053	-0.475462	0.095596
C292	C	1.539053	-0.225462	0.345596
C293	C	0.755623	-0.948219	-0.356987
C294	C	1.005623	-0.698219	-0.106987
C295	C	1.255623	-0.448219	0.143013
C296	C	1.505623	-0.198219	0.393013
C297	C	0.788916	-0.527722	-0.404283
C298	C	1.038916	-0.277722	-0.154283
C299	C	1.288916	-0.027722	0.095717
C300	C	1.538916	0.222278	0.345717
C301	C	0.788900	-0.473117	-0.404261
C302	C	1.038900	-0.223117	-0.154261
C303	C	1.288900	0.026883	0.095739
C304	C	1.538900	0.276883	0.345739
C305	C	0.722063	-0.473238	-0.309437
C306	C	0.972063	-0.223238	-0.059437
C307	C	1.222063	0.026762	0.190563
C308	C	1.472063	0.276762	0.440563
C309	C	0.722081	-0.527838	-0.309456
C310	C	0.972081	-0.277838	-0.059456
C311	C	1.222081	-0.027838	0.190544
C312	C	1.472081	0.222162	0.440544
C313	C	0.755509	-0.555079	-0.356885
C314	C	1.005509	-0.305079	-0.106885
C315	C	1.255509	-0.055079	0.143115
C316	C	1.505509	0.194921	0.393115
O317	O	0.693716	-0.614270	-0.269176
O318	O	0.943716	-0.364270	-0.019176
O319	O	1.193716	-0.114270	0.230824
O320	O	1.443716	0.135730	0.480824
O321	O	0.817355	-0.614095	-0.444643
O322	O	1.067355	-0.364095	-0.194643
O323	O	1.317355	-0.114095	0.055357
O324	O	1.567355	0.135905	0.305357
C325	C	0.891906	-0.251939	-0.356950
C326	C	1.141906	-0.001939	-0.106950
C327	C	1.391906	0.248061	0.143050
C328	C	1.641906	0.498061	0.393050
C329	C	0.950020	-0.251949	-0.356971
C330	C	1.200020	-0.001949	-0.106971
C331	C	1.450020	0.248051	0.143029
C332	C	1.700020	0.498051	0.393029
C333	C	0.755564	-0.251869	-0.550063
C334	C	1.005564	-0.001869	-0.300063
C335	C	1.255564	0.248131	-0.050063
C336	C	1.505564	0.498131	0.199937
C337	C	0.755577	-0.251848	-0.632378
C338	C	1.005577	-0.001848	-0.382378
C339	C	1.255577	0.248152	-0.132378
C340	C	1.505577	0.498152	0.117622
C341	C	0.755621	-0.115543	-0.356976
C342	C	1.005621	0.134457	-0.106976
C343	C	1.255621	0.384457	0.143024
C344	C	1.505621	0.634457	0.393024
C345	C	0.755659	-0.057429	-0.357008
C346	C	1.005659	0.192571	-0.107008
C347	C	1.255659	0.442571	0.142992
C348	C	1.505659	0.692571	0.392992
C349	C	0.755605	-0.251816	-0.931469
C350	C	1.005605	-0.001816	-0.681469
C351	C	1.255605	0.248184	-0.431469
C352	C	1.505605	0.498184	-0.181469
C353	C	0.796171	-0.211558	-0.900180
C354	C	1.046171	0.038442	-0.650180
C355	C	1.296171	0.288442	-0.400180
C356	C	1.546171	0.538442	-0.150180
C357	C	0.796045	-0.211408	-0.814562
C358	C	1.046045	0.038592	-0.564562
C359	C	1.296045	0.288592	-0.314562
C360	C	1.546045	0.538592	-0.064562
C361	C	0.755592	-0.251832	-0.783086
C362	C	1.005592	-0.001832	-0.533086
C363	C	1.255592	0.248168	-0.283086
C364	C	1.505592	0.498168	-0.033086
C365	C	0.700512	-0.236857	-0.814152
C366	C	0.950512	0.013143	-0.564152
C367	C	1.200512	0.263143	-0.314152
C368	C	1.450512	0.513143	-0.064152
C369	C	0.700755	-0.236556	-0.899798
C370	C	0.950755	0.013444	-0.649798
C371	C	1.200755	0.263444	-0.399798
C372	C	1.450755	0.513444	-0.149798
C373	C	0.769634	-0.307152	-0.899871
C374	C	1.019634	-0.057152	-0.649871
C375	C	1.269634	0.192848	-0.399871
C376	C	1.519634	0.442848	-0.149871
C377	C	0.770843	-0.306869	-0.814221
C378	C	1.020843	-0.056869	-0.564221
C379	C	1.270843	0.193131	-0.314221
C380	C	1.520843	0.443131	-0.064221
C381	C	0.755581	-0.251842	-0.699227
C382	C	1.005581	-0.001842	-0.449227
C383	C	1.255581	0.248158	-0.199227
C384	C	1.505581	0.498158	0.050773
C385	C	0.755613	-0.251804	-1.015328
C386	C	1.005613	-0.001804	-0.765328
C387	C	1.255613	0.248196	-0.515328
C388	C	1.505613	0.498196	-0.265328
C389	C	0.755532	-0.251926	-0.164491
C390	C	1.005532	-0.001926	0.085509
C391	C	1.255532	0.248074	0.335509
C392	C	1.505532	0.498074	0.585509
C393	C	0.755620	-0.251799	-0.082177
C394	C	1.005620	-0.001799	0.167823
C395	C	1.255620	0.248201	0.417823
C396	C	1.505620	0.498201	0.667823
H397	H	-0.044918	-0.191209	-0.271203
H398	H	0.205082	0.058791	-0.021203
H399	H	0.455082	0.308791	0.228797
H400	H	0.705082	0.558791	0.478797
H401	H	0.836887	-0.220787	-0.793560
H402	H	1.086887	0.029213	-0.543560
H403	H	1.336887	0.279213	-0.293560
H404	H	1.586887	0.529213	-0.043560
H405	H	0.688862	-0.196105	-0.919795
H406	H	0.938862	0.053895	-0.669795
H407	H	1.188862	0.303895	-0.419795
H408	H	1.438862	0.553895	-0.169795
H409	H	0.837148	-0.220820	-0.920788
H410	H	1.087148	0.029180	-0.670788
H411	H	1.337148	0.279180	-0.420788
H412	H	1.587148	0.529180	-0.170788
H413	H	0.688403	-0.196857	-0.792721
H414	H	0.938403	0.053143	-0.542721
H415	H	1.188403	0.303143	-0.292721
H416	H	1.438403	0.553143	-0.042721
H417	H	0.054132	-0.191189	-0.271192
H418	H	0.304132	0.058811	-0.021192
H419	H	0.554132	0.308811	0.228808
H420	H	0.804132	0.558811	0.478808
H421	H	0.849599	-0.701963	-0.490352
H422	H	1.099599	-0.451963	-0.240352
H423	H	1.349599	-0.201963	0.009648
H424	H	1.599599	0.048037	0.259648
H425	H	0.816134	-0.549895	-0.442910
H426	H	1.066134	-0.299895	-0.192910
H427	H	1.316134	-0.049895	0.057090
H428	H	1.566134	0.200105	0.307090
H429	H	0.694850	-0.451047	-0.270828
H430	H	0.944850	-0.201047	-0.020828
H431	H	1.194850	0.048953	0.229172
H432	H	1.444850	0.298953	0.479172
H433	H	0.457457	-0.312643	-0.442638
H434	H	0.707457	-0.062643	-0.192638
H435	H	0.957457	0.187357	0.057362
H436	H	1.207457	0.437357	0.307362
H437	H	0.556507	-0.312643	-0.442605
H438	H	0.806507	-0.062643	-0.192605
H439	H	1.056507	0.187357	0.057395
H440	H	1.306507	0.437357	0.307395
H441	H	0.694877	-0.550113	-0.270850
H442	H	0.944877	-0.300113	-0.020850
H443	H	1.194877	-0.050113	0.229150
H444	H	1.444877	0.199887	0.479150
H445	H	0.669502	-0.264602	-0.920493
H446	H	0.919502	-0.014602	-0.670493
H447	H	1.169502	0.235398	-0.420493
H448	H	1.419502	0.485398	-0.170493
H449	H	0.816287	-1.052256	-0.443026
H450	H	1.066287	-0.802256	-0.193026
H451	H	1.316287	-0.552256	0.056974
H452	H	1.566287	-0.302256	0.306974
H453	H	0.740090	-0.337148	-0.920109
H454	H	0.990090	-0.087148	-0.670109
H455	H	1.240090	0.162852	-0.420109
H456	H	1.490090	0.412852	-0.170109
H457	H	0.811376	-0.318161	-0.793917
H458	H	1.061376	-0.068161	-0.543917
H459	H	1.311376	0.181839	-0.293917
H460	H	1.561376	0.431839	-0.043917
H461	H	0.849626	-0.801010	-0.490383
H462	H	1.099626	-0.551010	-0.240383
H463	H	1.349626	-0.301010	0.009617
H464	H	1.599626	-0.051010	0.259617
H465	H	0.809093	-0.320786	-0.921520
H466	H	1.059093	-0.070786	-0.671520
H467	H	1.309093	0.179214	-0.421520
H468	H	1.559093	0.429214	-0.171520
H469	H	0.787003	-0.170793	-0.921725
H470	H	1.037003	0.079207	-0.671725
H471	H	1.287003	0.329207	-0.421725
H472	H	1.537003	0.579207	-0.171725
H473	H	0.786759	-0.170415	-0.794097
H474	H	1.036759	0.079585	-0.544097
H475	H	1.286759	0.329585	-0.294097
H476	H	1.536759	0.579585	-0.044097
H477	H	0.669467	-0.265276	-0.793761
H478	H	0.919467	-0.015276	-0.543761
H479	H	1.169467	0.234724	-0.293761
H480	H	1.419467	0.484724	-0.043761
H481	H	0.206251	-0.157706	-0.223888
H482	H	0.456251	0.092294	0.026112
H483	H	0.706251	0.342294	0.276112
H484	H	0.956251	0.592294	0.526112
H485	H	0.743445	-0.338477	-0.792792
H486	H	0.993445	-0.088477	-0.542792
H487	H	1.243445	0.161523	-0.292792
H488	H	1.493445	0.411523	-0.042792
H489	H	0.206280	-0.346122	-0.489975
H490	H	0.456280	-0.096122	-0.239975
H491	H	0.706280	0.153878	0.010025
H492	H	0.956280	0.403878	0.260025
H493	H	0.457428	-0.191162	-0.271107
H494	H	0.707428	0.058838	-0.021107
H495	H	0.957428	0.308838	0.228893
H496	H	1.207428	0.558838	0.478893
H497	H	0.305297	-0.157694	-0.223875
H498	H	0.555297	0.092306	0.026125
H499	H	0.805297	0.342306	0.276125
H500	H	1.055297	0.592306	0.526125
H501	H	0.661519	-0.801323	-0.223526
H502	H	0.911519	-0.551323	0.026474
H503	H	1.161519	-0.301323	0.276474
H504	H	1.411519	-0.051323	0.526474
H505	H	0.556494	-0.191159	-0.271091
H506	H	0.806494	0.058841	-0.021091
H507	H	1.056494	0.308841	0.228909
H508	H	1.306494	0.558841	0.478909
H509	H	0.305330	-0.346122	-0.489952
H510	H	0.555330	-0.096122	-0.239952
H511	H	0.805330	0.153878	0.010048
H512	H	1.055330	0.403878	0.260048
H513	H	0.695032	-1.052450	-0.270978
H514	H	0.945032	-0.802450	-0.020978
H515	H	1.195032	-0.552450	0.229022
H516	H	1.445032	-0.302450	0.479022
H517	H	0.054170	-0.312680	-0.442711
H518	H	0.304170	-0.062680	-0.192711
H519	H	0.554170	0.187320	0.057289
H520	H	0.804170	0.437320	0.307289
H521	H	0.816111	-0.450844	-0.442863
H522	H	1.066111	-0.200844	-0.192863
H523	H	1.316111	0.049156	0.057137
H524	H	1.566111	0.299156	0.307137
H525	H	-0.044898	-0.312685	-0.442725
H526	H	0.205102	-0.062685	-0.192725
H527	H	0.455102	0.187315	0.057275
H528	H	0.705102	0.437315	0.307275
H529	H	0.816261	-0.953191	-0.443005
H530	H	1.066261	-0.703191	-0.193005
H531	H	1.316261	-0.453191	0.056995
H532	H	1.566261	-0.203191	0.306995
H533	H	0.661488	-0.702273	-0.223510
H534	H	0.911488	-0.452273	0.026490
H535	H	1.161488	-0.202273	0.276490
H536	H	1.411488	0.047727	0.526490
H537	H	0.694994	-0.953400	-0.270963
H538	H	0.944994	-0.703400	-0.020963
H539	H	1.194994	-0.453400	0.229037
H540	H	1.444994	-0.203400	0.479037
