data_functionalizedCrystal
_audit_creation_method	'MofGen! by Chris Wilmer'
_symmetry_space_group_name_H-M	'P1'
_symmetry_Int_Tables_number	1
_symmetry_cell_setting	triclinic
loop_
_symmetry_equiv_pos_as_xyz
  x,y,z
_cell_length_a	14.044191
_cell_length_b	10.540510
_cell_length_c	12.503572
_cell_angle_alpha	93.560801
_cell_angle_beta	86.162165
_cell_angle_gamma	88.852544
loop_
_atom_site_label
_atom_site_type_symbol
_atom_site_fract_x
_atom_site_fract_y
_atom_site_fract_z
O1	O	1.265175	0.299581	-0.089257
O2	O	1.765175	0.799581	0.410743
O3	O	0.989132	0.288519	-0.089271
O4	O	1.489132	0.788519	0.410729
O5	O	1.133466	0.109979	-0.089264
O6	O	1.633466	0.609979	0.410736
O7	O	1.120841	0.478120	-0.089265
O8	O	1.620841	0.978120	0.410735
O9	O	1.122611	0.123431	0.089378
O10	O	1.622611	0.623431	0.589378
O11	O	0.978277	0.301970	0.089370
O12	O	1.478277	0.801970	0.589370
O13	O	1.254320	0.313032	0.089384
O14	O	1.754320	0.813032	0.589384
Cu15	Cu	1.115308	0.308729	0.105688
Cu16	Cu	1.615308	0.808729	0.605688
Cu17	Cu	1.128144	0.292821	-0.105576
Cu18	Cu	1.628144	0.792821	0.394424
O19	O	1.109986	0.491572	0.089376
O20	O	1.609986	0.991572	0.589376
C21	C	0.948358	0.290405	0.000047
C22	C	1.448358	0.790405	0.500047
C23	C	0.843036	0.275972	0.000042
C24	C	1.343036	0.775972	0.500042
C25	C	0.593257	0.351951	0.000052
C26	C	1.093257	0.851951	0.500052
C27	C	0.650201	0.249605	0.000051
C28	C	1.150201	0.749605	0.500051
C29	C	0.757504	0.264279	0.000046
C30	C	1.257504	0.764279	0.500046
C31	C	0.485944	0.337279	0.000057
C32	C	0.985944	0.837279	0.500057
C33	C	1.127098	0.069306	0.000055
C34	C	1.627098	0.569306	0.500055
C35	C	1.124283	-0.071929	0.000048
C36	C	1.624283	0.428071	0.500048
C37	C	1.224527	-0.279213	0.000462
C38	C	1.724527	0.220787	0.500462
C39	C	1.227554	-0.132344	0.000054
C40	C	1.727554	0.367656	0.500054
C41	C	1.077617	-0.129716	-0.101965
C42	C	1.577617	0.370284	0.398035
C43	C	1.075351	-0.276712	-0.102045
C44	C	1.575351	0.223288	0.397955
C45	C	1.060857	-0.261441	0.101103
C46	C	1.560857	0.238559	0.601103
C47	C	1.065673	-0.114504	0.102446
C48	C	1.565673	0.385496	0.602446
C49	C	1.295094	0.311145	0.000063
C50	C	1.795094	0.811145	0.500063
C51	C	1.400417	0.325579	0.000061
C52	C	1.900417	0.825579	0.500061
C53	C	1.116354	0.532245	0.000055
C54	C	1.616354	1.032245	0.500055
C55	C	1.119169	0.673479	0.000055
C56	C	1.619169	1.173479	0.500055
N57	N	1.106286	0.319918	0.254280
N58	N	1.606286	0.819918	0.754280
N59	N	1.137174	0.281623	-0.254168
N60	N	1.637174	0.781623	0.245832
C61	C	1.093014	0.336388	0.473395
C62	C	1.593014	0.836388	0.973395
C63	C	1.150442	0.265157	0.526725
C64	C	1.650442	0.765157	1.026725
C65	C	1.143058	0.274321	0.648648
C66	C	1.643058	0.774321	1.148648
C67	C	1.100398	0.327226	0.351461
C68	C	1.600398	0.827226	0.851461
H69	H	0.625090	0.450584	0.000049
H70	H	1.125090	0.950584	0.500049
Cl71	Cl	1.008551	0.441166	0.544270
Cl72	Cl	1.508551	0.941166	1.044270
H73	H	1.088976	-0.294482	0.178429
H74	H	1.588976	0.205518	0.678429
Cl75	Cl	1.284532	-0.072071	0.112972
Cl76	Cl	1.784532	0.427929	0.612972
Cl77	Cl	0.601055	0.097309	0.000051
Cl78	Cl	1.101055	0.597309	0.500051
Cl79	Cl	1.279787	-0.329199	0.113416
Cl80	Cl	1.779787	0.170801	0.613416
H81	H	1.268948	-0.324150	-0.072279
H82	H	1.768948	0.175850	0.427721
H83	H	1.273608	-0.105247	-0.073195
H84	H	1.773608	0.394753	0.426805
H85	H	1.099554	-0.076319	0.177915
H86	H	1.599554	0.423681	0.677915
Cl87	Cl	1.138290	-0.342031	-0.219768
Cl88	Cl	1.638290	0.157969	0.280232
Cl89	Cl	0.956537	-0.324821	-0.109208
Cl90	Cl	1.456537	0.175179	0.390792
H91	H	0.989904	-0.072598	0.108602
H92	H	1.489904	0.427402	0.608602
H93	H	1.205154	0.197293	0.480815
H94	H	1.705154	0.697293	0.980815
Cl95	Cl	0.960597	-0.068860	-0.107839
Cl96	Cl	1.460597	0.431140	0.392161
Cl97	Cl	1.141421	-0.085180	-0.219175
Cl98	Cl	1.641421	0.414820	0.280825
Cl99	Cl	0.941084	-0.307668	0.102162
Cl100	Cl	1.441084	0.192332	0.602162
