data_functionalizedCrystal
_audit_creation_method	'MofGen! by Chris Wilmer'
_symmetry_space_group_name_H-M	'P1'
_symmetry_Int_Tables_number	1
_symmetry_cell_setting	triclinic
loop_
_symmetry_equiv_pos_as_xyz
  x,y,z
_cell_length_a	23.532407
_cell_length_b	9.482900
_cell_length_c	10.908937
_cell_angle_alpha	97.018133
_cell_angle_beta	71.467316
_cell_angle_gamma	80.775065
loop_
_atom_site_label
_atom_site_type_symbol
_atom_site_fract_x
_atom_site_fract_y
_atom_site_fract_z
O1	O	0.751647	-0.120704	0.135857
O2	O	0.583705	-0.120745	0.158432
O3	O	0.689938	-0.120725	-0.040070
O4	O	0.645414	-0.120725	0.334359
O5	O	0.668345	0.121064	0.000411
O6	O	0.562111	0.121043	0.198913
O7	O	0.730053	0.121084	0.176338
Cu8	Cu	0.644111	0.143141	0.191322
Cu9	Cu	0.669648	-0.142802	0.143448
O10	O	0.623820	0.121064	0.374840
C11	C	0.551746	0.000143	0.178096
C12	C	0.488689	0.000127	0.176365
N13	N	0.626154	0.344258	0.224992
N14	N	0.687610	-0.343918	0.109767
C15	C	0.079750	0.000193	0.283003
C16	C	0.020497	0.000202	0.281398
O17	O	-0.025366	0.000255	0.380252
N18	N	0.008751	0.000200	0.163387
C19	C	0.056262	0.000203	0.046974
O20	O	0.040830	0.000203	-0.053551
C21	C	0.115512	0.000205	0.048582
C22	C	0.127255	0.000192	0.166599
C23	C	0.091494	0.000182	0.401011
C24	C	0.150743	0.000171	0.402614
C25	C	0.198248	0.000170	0.286210
C26	C	0.186504	0.000181	0.168203
C27	C	0.163020	0.000218	-0.067827
C28	C	0.222273	0.000221	-0.066209
C29	C	0.234016	0.000209	0.051808
C30	C	0.293258	0.000168	0.053402
N31	N	0.305004	0.000171	0.171414
C32	C	0.257499	0.000171	0.287818
C33	C	-0.068171	0.000202	0.043608
C34	C	-0.127419	0.000190	0.041997
C35	C	-0.163180	0.000192	0.276422
C36	C	-0.103929	0.000194	0.278029
C37	C	-0.056425	0.000205	0.161619
C38	C	0.381928	0.000146	0.291176
C39	C	0.441184	0.000128	0.292769
C40	C	0.476939	0.000134	0.058346
C41	C	0.417689	0.000144	0.056751
C42	C	0.370182	0.000155	0.173178
O43	O	0.339150	0.000121	-0.045398
O44	O	0.272938	0.000190	0.388330
C45	C	0.762013	0.000192	0.156673
C46	C	0.825070	0.000199	0.158403
C47	C	0.683303	0.000166	-0.067724
C48	C	0.695695	0.000156	-0.210436
C49	C	0.664348	0.416464	0.153373
C50	C	0.649410	0.583879	0.181397
C51	C	0.630456	0.000170	0.402493
C52	C	0.618064	0.000171	0.545203
C53	C	0.650479	0.000153	0.741128
C54	C	0.663286	0.000174	0.593634
H55	H	0.450740	0.000117	0.388876
N56	N	0.270806	0.000211	-0.185115
N57	N	0.323709	0.000197	-0.183678
H58	H	0.357986	0.000185	-0.267655
N59	N	0.719222	0.338637	0.050312
N60	N	0.770326	0.355504	0.053785
H61	H	0.809073	0.300576	-0.019051
H62	H	0.731369	0.593966	0.027693
N63	N	0.756156	0.000195	0.704637
N64	N	0.781520	0.102122	0.725891
H65	H	0.824222	0.102151	0.665915
H66	H	0.582394	0.406379	0.307052
H67	H	0.343253	0.000159	0.385983
N68	N	0.594505	0.661791	0.284334
N69	N	0.555356	0.746756	0.258328
H70	H	0.516579	0.801784	0.331024
N71	N	0.557604	0.000162	0.630167
N72	N	0.547284	0.000150	0.749863
H73	H	0.504585	0.000144	0.809872
H74	H	0.602287	0.000141	0.808856
H75	H	0.160297	0.000160	0.498715
H76	H	0.052818	0.000188	0.495807
N77	N	-0.211707	0.000197	0.395339
N78	N	-0.207976	-0.101716	0.456948
H79	H	-0.242249	-0.101713	0.540929
N80	N	0.405703	0.000133	-0.063812
N81	N	0.448127	0.000124	-0.167736
H82	H	0.439666	0.000127	-0.252886
N83	N	-0.091947	0.000180	0.398591
N84	N	-0.134374	0.000173	0.502506
H85	H	-0.125916	0.000166	0.587660
H86	H	-0.136971	0.000178	-0.054108
N87	N	0.723753	0.000182	0.508703
N88	N	0.766270	0.000179	0.554165
H89	H	0.808975	0.000183	0.494183
N90	N	-0.019654	0.000208	-0.075324
N91	N	-0.030156	0.000208	-0.180675
H92	H	0.004106	0.000215	-0.264671
H93	H	0.153471	0.000230	-0.163929
H94	H	0.515629	0.000128	-0.036428
