data_functionalizedCrystal
_audit_creation_method	'MofGen! by Chris Wilmer'
_symmetry_space_group_name_H-M	'P1'
_symmetry_Int_Tables_number	1
_symmetry_cell_setting	triclinic
loop_
_symmetry_equiv_pos_as_xyz
  x,y,z
_cell_length_a	17.699104
_cell_length_b	17.699083
_cell_length_c	15.186229
_cell_angle_alpha	89.995368
_cell_angle_beta	89.995758
_cell_angle_gamma	83.287266
loop_
_atom_site_label
_atom_site_type_symbol
_atom_site_fract_x
_atom_site_fract_y
_atom_site_fract_z
O1	O	1.004065	0.095785	-0.073248
O2	O	0.783689	0.108221	-0.073246
O3	O	0.900103	-0.008185	-0.073239
O4	O	0.887650	0.212192	-0.073255
O5	O	0.900095	-0.008187	0.073218
O6	O	0.783681	0.108220	0.073211
O7	O	1.004057	0.095784	0.073209
Zn8	Zn	0.893868	0.102001	0.096463
Zn9	Zn	0.893878	0.102004	-0.096500
O10	O	0.887643	0.212190	0.073202
C11	C	0.755488	0.107772	-0.000017
C12	C	0.671471	0.106427	-0.000016
C13	C	0.146600	0.167171	-0.000030
C14	C	0.225543	0.168430	-0.000032
C15	C	0.274161	0.100095	-0.000027
C16	C	0.243831	0.030496	-0.000029
C17	C	0.164889	0.029238	-0.000032
C18	C	0.562197	0.035569	-0.000015
C19	C	0.641144	0.036833	-0.000009
C20	C	0.622852	0.174762	-0.000015
C21	C	0.543909	0.173503	-0.000019
C22	C	0.513587	0.103905	-0.000025
C23	C	0.427987	0.102541	-0.000024
C24	C	0.359759	0.101459	-0.000022
C25	C	0.899653	-0.036383	-0.000011
C26	C	0.898314	-0.120402	-0.000010
C27	C	0.966647	-0.169017	-0.000010
C28	C	0.965385	-0.247961	-0.000017
C29	C	0.895789	-0.278287	-0.000020
C30	C	0.827451	-0.229665	-0.000023
C31	C	0.828714	-0.150723	-0.000021
C32	C	0.822356	-0.548028	-0.000030
C33	C	0.821098	-0.626976	-0.000029
C34	C	0.959026	-0.645266	-0.000026
C35	C	0.960289	-0.566324	-0.000025
C36	C	0.891952	-0.517709	-0.000032
C37	C	0.893321	-0.432110	-0.000026
C38	C	0.894419	-0.363885	-0.000020
C39	C	1.032258	0.096233	-0.000022
C40	C	1.116275	0.097578	-0.000028
C41	C	0.888093	0.240388	-0.000028
C42	C	0.889431	0.324406	-0.000034
N43	N	0.893866	0.101999	0.228156
N44	N	0.893885	0.101999	-0.228193
C45	C	0.945432	0.050472	0.453882
C46	C	0.945434	0.050470	0.546072
C47	C	0.842314	0.153529	0.546075
C48	C	0.842309	0.153527	0.453887
C49	C	0.893872	0.101999	0.407793
C50	C	0.893880	0.102000	0.592170
C51	C	0.893882	0.101998	0.692126
C52	C	0.893869	0.101999	0.307830
H53	H	0.537518	-0.021102	-0.000017
H54	H	0.107020	0.222818	-0.000027
H55	H	0.764421	-0.651664	-0.000029
O56	O	1.025482	-0.692385	0.000009
C57	C	1.087177	-0.648688	-0.000007
H58	H	1.067855	-0.589738	0.027724
H59	H	1.135045	-0.677898	0.042512
H60	H	1.108522	-0.643096	-0.070269
O61	O	0.995449	0.000447	0.590979
C62	C	0.984411	0.011505	0.682231
H63	H	0.924188	0.039864	0.694829
H64	H	0.992942	-0.045823	0.717271
H65	H	1.027177	0.049416	0.708383
H66	H	0.766711	-0.508455	-0.000036
H67	H	0.283422	-0.025143	-0.000030
O68	O	0.792306	0.203557	0.590989
C69	C	0.803355	0.192501	0.682240
H70	H	0.863578	0.164139	0.694824
H71	H	0.794832	0.249831	0.717268
H72	H	0.760589	0.154594	0.708416
O73	O	0.792192	0.203658	0.409246
C74	C	0.746674	0.249130	0.469696
H75	H	0.777703	0.249953	0.535406
H76	H	0.735014	0.309586	0.443049
H77	H	0.690499	0.224622	0.479513
H78	H	0.250230	0.225100	-0.000042
H79	H	0.504328	0.229149	-0.000018
O80	O	0.652434	0.242306	-0.000061
C81	C	0.732536	0.228769	-0.000040
H82	H	0.751180	0.169672	-0.027764
H83	H	0.756697	0.273295	-0.042564
H84	H	0.754501	0.232395	0.070223
H85	H	0.770785	-0.254362	-0.000030
H86	H	1.016961	-0.541638	-0.000019
H87	H	0.680728	-0.018817	-0.000007
O88	O	1.034235	-0.139527	0.000147
C89	C	1.039085	-0.094402	0.075988
H90	H	0.999567	-0.113002	0.129006
H91	H	1.100096	-0.101601	0.101445
H92	H	1.021517	-0.032114	0.058840
O93	O	0.762266	-0.103603	0.000017
C94	C	0.700567	-0.147295	-0.000008
H95	H	0.719881	-0.206250	0.027724
H96	H	0.652693	-0.118089	0.042508
H97	H	0.679235	-0.152876	-0.070272
H98	H	0.140200	-0.027432	-0.000033
H99	H	0.987417	0.008514	0.416354
H100	H	1.021028	-0.287541	-0.000015
