data_functionalizedCrystal
_audit_creation_method	'MofGen! by Chris Wilmer'
_symmetry_space_group_name_H-M	'P1'
_symmetry_Int_Tables_number	1
_symmetry_cell_setting	triclinic
loop_
_symmetry_equiv_pos_as_xyz
  x,y,z
_cell_length_a	8.597213
_cell_length_b	8.634740
_cell_length_c	8.140239
_cell_angle_alpha	89.998579
_cell_angle_beta	82.295622
_cell_angle_gamma	92.879744
loop_
_atom_site_label
_atom_site_type_symbol
_atom_site_fract_x
_atom_site_fract_y
_atom_site_fract_z
O1	O	2.117343	0.230680	-0.436293
O2	O	2.450677	0.564013	-0.102959
O3	O	2.784010	0.897346	0.230374
O4	O	1.663080	0.248377	-0.371999
O5	O	1.996413	0.581710	-0.038666
O6	O	2.329747	0.915043	0.294667
O7	O	1.868708	0.014728	-0.401099
O8	O	2.202042	0.348061	-0.067765
O9	O	2.535375	0.681395	0.265568
O10	O	1.911715	0.464328	-0.407193
O11	O	2.245048	0.797662	-0.073860
O12	O	2.578381	1.130995	0.259473
O13	O	1.868695	0.014725	-0.127870
O14	O	2.202028	0.348058	0.205464
O15	O	2.535361	0.681392	0.538797
O16	O	1.663066	0.248374	-0.098770
O17	O	1.996399	0.581707	0.234563
O18	O	2.329733	0.915040	0.567896
O19	O	2.117330	0.230677	-0.163064
O20	O	2.450663	0.564010	0.170270
O21	O	2.783996	0.897343	0.503603
Zn22	Zn	1.890196	0.239525	-0.087536
Zn23	Zn	2.223529	0.572858	0.245797
Zn24	Zn	2.556862	0.906191	0.579131
Zn25	Zn	1.890214	0.239529	-0.447527
Zn26	Zn	2.223547	0.572862	-0.114194
Zn27	Zn	2.556880	0.906195	0.219140
O28	O	1.911701	0.464325	-0.133964
O29	O	2.245034	0.797659	0.199369
O30	O	2.578368	1.130992	0.532702
C31	C	1.604313	0.246475	-0.227069
C32	C	1.937647	0.579808	0.106265
C33	C	2.270980	0.913141	0.439598
C34	C	1.429225	0.240793	-0.202288
C35	C	1.762559	0.574127	0.131045
C36	C	2.095892	0.907460	0.464379
C37	C	1.858959	-0.042870	-0.263108
C38	C	2.192292	0.290463	0.070226
C39	C	2.525626	0.623796	0.403559
C40	C	1.829910	-0.214492	-0.259004
C41	C	2.163244	0.118842	0.074329
C42	C	2.496577	0.452175	0.407663
C43	C	2.176096	0.232579	-0.307998
C44	C	2.509429	0.565912	0.025335
C45	C	2.842763	0.899245	0.358669
C46	C	2.351184	0.238260	-0.332789
C47	C	2.684518	0.571593	0.000544
C48	C	3.017851	0.904927	0.333877
C49	C	1.921450	0.521924	-0.271959
C50	C	2.254784	0.855257	0.061374
C51	C	2.588117	1.188590	0.394708
C52	C	1.950499	0.693545	-0.276074
C53	C	2.283832	1.026878	0.057260
C54	C	2.617166	1.360212	0.390593
N55	N	1.890195	0.239521	0.158147
N56	N	2.223528	0.572855	0.491480
N57	N	2.556861	0.906188	0.824813
N58	N	1.890225	0.239520	-0.693211
N59	N	2.223559	0.572853	-0.359878
N60	N	2.556892	0.906187	-0.026545
H61	H	1.418318	0.240451	-0.463469
H62	H	1.751651	0.573784	-0.130136
H63	H	2.084985	0.907117	0.203197
H64	H	1.362084	0.238620	-0.071599
H65	H	1.695417	0.571954	0.261734
H66	H	2.028751	0.905287	0.595067
H67	H	2.075963	-0.253893	-0.293888
H68	H	2.409297	0.079440	0.039446
H69	H	2.742630	0.412773	0.372779
H70	H	1.704438	-0.267060	-0.241256
H71	H	2.037771	0.066273	0.092077
H72	H	2.371104	0.399606	0.425411
