data_functionalizedCrystal
_audit_creation_method	'MofGen! by Chris Wilmer'
_symmetry_space_group_name_H-M	'P1'
_symmetry_Int_Tables_number	1
_symmetry_cell_setting	triclinic
loop_
_symmetry_equiv_pos_as_xyz
  x,y,z
_cell_length_a	10.489741
_cell_length_b	14.853567
_cell_length_c	13.330367
_cell_angle_alpha	89.997939
_cell_angle_beta	90.001350
_cell_angle_gamma	95.912948
loop_
_atom_site_label
_atom_site_type_symbol
_atom_site_fract_x
_atom_site_fract_y
_atom_site_fract_z
O1	O	0.166523	-1.197300	0.083354
O2	O	0.186360	-0.934951	0.083371
O3	O	-0.009223	-1.072095	0.083356
O4	O	0.362107	-1.060156	0.083369
O5	O	-0.009217	-1.072081	-0.083491
O6	O	0.186366	-0.934937	-0.083476
O7	O	0.166529	-1.197285	-0.083493
Cu8	Cu	0.176448	-1.066110	-0.098719
Cu9	Cu	0.176441	-1.066127	0.098597
O10	O	0.362112	-1.060142	-0.083479
C11	C	0.185464	-0.901351	-0.000051
C12	C	0.182771	-0.801252	-0.000044
C13	C	-0.056742	-1.071186	-0.000067
C14	C	-0.198341	-1.068488	-0.000065
N15	N	0.176452	-1.066105	-0.237501
C16	C	-0.265502	-0.981228	-0.000052
C17	C	-0.358084	-1.022442	-0.082319
C18	C	-0.358065	-1.022477	0.082179
C19	C	-0.289058	-1.109738	-0.082400
C20	C	-0.289029	-1.109761	0.082172
C21	C	-0.381585	-1.151038	-0.000115
C22	C	0.409631	-1.061051	-0.000053
C23	C	0.551230	-1.063748	-0.000049
C24	C	0.167425	-1.230886	-0.000070
C25	C	0.170118	-1.330985	-0.000070
C26	C	0.055204	-0.388003	-0.000071
C27	C	0.287562	-0.368025	-0.000062
C28	C	0.290094	-0.462072	-0.000059
C29	C	0.175180	-0.519090	-0.000060
C30	C	0.057733	-0.482060	-0.000065
C31	C	0.407539	-0.499110	-0.000044
C32	C	0.410077	-0.593163	-0.000040
C33	C	0.295161	-0.650183	-0.000048
C34	C	0.177709	-0.613147	-0.000054
C35	C	0.062795	-0.670164	-0.000055
C36	C	-0.054658	-0.633130	-0.000068
C37	C	-0.057183	-0.539079	-0.000073
C38	C	0.297685	-0.744234	-0.000043
C39	C	0.065324	-0.764221	-0.000049
C40	C	0.263030	-1.005369	-0.290020
C41	C	0.089869	-1.126846	-0.290010
C42	C	0.089864	-1.126855	-0.395029
C43	C	0.176442	-1.066119	-0.447547
C44	C	0.263025	-1.005374	-0.395048
C45	C	0.003274	-1.187593	-0.447536
C46	C	0.003264	-1.187604	-0.552561
C47	C	0.089850	-1.126871	-0.605081
C48	C	0.176437	-1.066125	-0.552575
C49	C	0.263015	-1.005389	-0.605094
C50	C	0.349610	-0.944646	-0.552590
C51	C	0.349610	-0.944642	-0.447568
C52	C	0.089849	-1.126875	-0.710103
C53	C	0.263010	-1.005394	-0.710122
N54	N	0.176427	-1.066139	0.237378
H55	H	-0.215045	-0.909483	-0.000130
H56	H	0.501096	-0.452680	-0.000033
O57	O	-0.253004	-1.153797	-0.165501
C58	C	-0.321039	-1.231899	-0.317803
C59	C	-0.362054	-1.182045	-0.223724
H60	H	-0.409180	-1.254734	-0.364913
H61	H	-0.271790	-1.293494	-0.294274
H62	H	-0.251757	-1.184311	-0.363906
H63	H	-0.431377	-1.229560	-0.177580
H64	H	-0.411231	-1.120438	-0.247322
H65	H	-0.258401	-1.146657	0.151722
O66	O	-0.394358	-0.978304	0.165126
C67	C	-0.376023	-0.838831	0.258811
C68	C	-0.334802	-0.888762	0.164852
H69	H	-0.327913	-0.766422	0.258610
H70	H	-0.346216	-0.875271	0.328948
H71	H	-0.484545	-0.837824	0.258398
H72	H	-0.226287	-0.889783	0.165167
H73	H	-0.364704	-0.852305	0.094756
H74	H	-0.388679	-0.985514	-0.151865
O75	O	-0.171156	-0.502955	-0.000035
C76	C	-0.278021	-0.366914	-0.000099
C77	C	-0.148861	-0.407708	-0.000122
H78	H	-0.260041	-0.289902	-0.000191
H79	H	-0.334838	-0.390267	0.069742
H80	H	-0.334814	-0.390382	-0.069909
H81	H	-0.091965	-0.384258	0.069641
H82	H	-0.092142	-0.384359	-0.070009
H83	H	-0.040424	-0.357845	-0.000085
O84	O	0.524248	-0.629022	0.000102
C85	C	0.723587	-0.640747	0.086581
C86	C	0.594344	-0.600064	0.086536
H87	H	0.780285	-0.617366	0.156466
H88	H	0.780469	-0.617295	0.016806
H89	H	0.705642	-0.717761	0.086533
H90	H	0.612173	-0.523048	0.086619
H91	H	0.537503	-0.623587	0.156305
H92	H	-0.028255	-0.810640	-0.000054
H93	H	0.333517	-0.955939	-0.752877
O94	O	-0.166368	-0.688428	-0.000199
C95	C	-0.364149	-0.734348	-0.086669
C96	C	-0.237705	-0.671654	-0.086636
H97	H	-0.421849	-0.720821	-0.156557
H98	H	-0.422032	-0.720769	-0.016897
H99	H	-0.342127	-0.807921	-0.086607
H100	H	-0.259612	-0.598059	-0.086734
H101	H	-0.179859	-0.685310	-0.156403
H102	H	-0.067222	-1.237038	-0.404772
H103	H	-0.067244	-1.237064	-0.595303
O104	O	0.433578	-0.885521	-0.603568
C105	C	0.507965	-0.729255	-0.635687
C106	C	0.412787	-0.796111	-0.577905
H107	H	0.491207	-0.656953	-0.614944
H108	H	0.493073	-0.739616	-0.719777
H109	H	0.610152	-0.741710	-0.615063
H110	H	0.310563	-0.783696	-0.598444
H111	H	0.427791	-0.785734	-0.493828
H112	H	0.393314	-0.774383	-0.000034
O113	O	0.433588	-0.885667	-0.396411
C114	C	0.510365	-0.831850	-0.234620
C115	C	0.415180	-0.898675	-0.292434
H116	H	0.495533	-0.842356	-0.150544
H117	H	0.493555	-0.759519	-0.255205
H118	H	0.612548	-0.844247	-0.255319
H119	H	0.312960	-0.886361	-0.271765
H120	H	0.432101	-0.970983	-0.271844
H121	H	0.333538	-0.955915	-0.247268
O122	O	0.005648	-1.185873	-0.239153
C123	C	-0.166050	-1.306406	-0.250220
C124	C	-0.070756	-1.239587	-0.307944
H125	H	-0.227829	-1.349864	-0.305812
H126	H	-0.229957	-1.267113	-0.201085
H127	H	-0.110838	-1.351752	-0.201015
H128	H	-0.125864	-1.194224	-0.357203
H129	H	-0.006850	-1.278936	-0.357015
O130	O	0.005684	-1.185952	-0.760950
C131	C	-0.166156	-1.306380	-0.749852
C132	C	-0.070879	-1.239538	-0.692145
H133	H	-0.228100	-1.349709	-0.694248
H134	H	-0.111060	-1.351848	-0.798992
H135	H	-0.229906	-1.267017	-0.799048
H136	H	-0.007105	-1.278828	-0.642894
H137	H	-0.126054	-1.194071	-0.643068
H138	H	-0.431815	-1.222848	-0.000165
H139	H	0.381119	-0.321596	-0.000052
