data_functionalizedCrystal
_audit_creation_method	'MofGen! by Chris Wilmer'
_symmetry_space_group_name_H-M	'P1'
_symmetry_Int_Tables_number	1
_symmetry_cell_setting	triclinic
loop_
_symmetry_equiv_pos_as_xyz
  x,y,z
_cell_length_a	12.759401
_cell_length_b	16.625546
_cell_length_c	16.625548
_cell_angle_alpha	90.011514
_cell_angle_beta	90.002963
_cell_angle_gamma	90.023993
loop_
_atom_site_label
_atom_site_type_symbol
_atom_site_fract_x
_atom_site_fract_y
_atom_site_fract_z
Zn1	Zn	1.606023	-0.321118	0.455859
Zn2	Zn	1.605946	-0.455916	0.321021
Zn3	Zn	1.430377	-0.321105	0.321044
Zn4	Zn	1.430290	-0.455916	0.455815
O5	O	1.518159	-0.388514	0.388435
O6	O	1.753034	-0.339005	0.437981
O7	O	1.582660	-0.438028	0.208192
O8	O	1.453746	-0.208274	0.338955
O9	O	1.752977	-0.438041	0.338917
O10	O	1.582792	-0.208284	0.438003
O11	O	1.453671	-0.338983	0.208208
O12	O	1.283345	-0.338982	0.338913
O13	O	1.453597	-0.438039	0.568653
O14	O	1.283281	-0.438027	0.437929
O15	O	1.582708	-0.339004	0.568685
O16	O	1.582576	-0.568749	0.338874
O17	O	1.453522	-0.568748	0.437907
C18	C	1.245192	-0.388504	0.388419
C19	C	1.128415	-0.388519	0.388431
C20	C	1.073547	-0.440170	0.439908
C21	C	0.963823	-0.440173	0.439924
C22	C	0.963844	-0.336872	0.336980
C23	C	1.073566	-0.336865	0.336968
C24	C	1.518060	-0.598005	0.388401
C25	C	1.518113	-0.687626	0.388414
C26	C	1.518296	-1.015801	0.388498
C27	C	1.518242	-0.924493	0.388476
C28	C	1.518204	-0.851716	0.388455
C29	C	1.518151	-0.760402	0.388435
C30	C	1.792192	-0.388524	0.388451
C31	C	1.908969	-0.388529	0.388458
C32	C	1.518152	-0.388523	0.598744
C33	C	1.518148	-0.388527	0.688365
C34	C	1.518287	-0.178205	0.388486
C35	C	1.518342	-0.088584	0.388508
C36	C	1.518145	-0.388531	0.761147
C37	C	1.518144	-0.388528	0.852456
C38	C	1.518149	-0.388521	0.925232
C39	C	1.518149	-0.388519	1.016546
C40	C	1.518156	-0.388521	1.178944
C41	C	1.518154	-0.388512	1.089323
H42	H	1.118202	-0.482228	0.481814
H43	H	0.919173	-0.294819	0.295079
H44	H	0.919155	-0.482231	0.481842
H45	H	1.118241	-0.294800	0.295050
