data_functionalizedCrystal
_audit_creation_method	'MofGen! by Chris Wilmer'
_symmetry_space_group_name_H-M	'P1'
_symmetry_Int_Tables_number	1
_symmetry_cell_setting	triclinic
loop_
_symmetry_equiv_pos_as_xyz
  x,y,z
_cell_length_a	19.188930
_cell_length_b	10.723024
_cell_length_c	9.198806
_cell_angle_alpha	90.002012
_cell_angle_beta	90.017817
_cell_angle_gamma	83.806325
loop_
_atom_site_label
_atom_site_type_symbol
_atom_site_fract_x
_atom_site_fract_y
_atom_site_fract_z
O1	O	-0.927157	-0.155778	-0.121357
O2	O	-0.723982	-0.176749	-0.121257
O3	O	-0.830256	0.015410	-0.121304
O4	O	-0.820883	-0.347937	-0.121310
O5	O	-0.830247	0.015410	0.120481
O6	O	-0.723973	-0.176749	0.120528
O7	O	-0.927148	-0.155778	0.120428
Cu8	Cu	-0.825560	-0.166263	0.142555
Cu9	Cu	-0.825570	-0.166264	-0.143384
O10	O	-0.820874	-0.347937	0.120475
C11	C	-0.697962	-0.176070	-0.000351
C12	C	-0.620444	-0.174031	-0.000313
C13	C	-0.953168	-0.156457	-0.000480
C14	C	-1.030686	-0.158496	-0.000528
C15	C	-0.576253	-0.286784	-0.000338
C16	C	-0.503417	-0.284869	-0.000354
C17	C	-0.474775	-0.170195	-0.000374
C18	C	-0.518976	-0.057427	-0.000341
C19	C	-0.591811	-0.059346	-0.000311
N20	N	-0.366228	-0.082541	-0.082721
N21	N	-0.297038	-0.080726	-0.082753
C22	C	-0.255329	-0.164408	-0.000463
N23	N	-0.285423	-0.249992	0.081842
N24	N	-0.354619	-0.251810	0.081868
C25	C	-0.395799	-0.168102	-0.000406
C26	C	-0.132160	-0.275091	-0.000503
C27	C	-0.059322	-0.273171	-0.000510
C28	C	-0.074883	-0.045726	-0.000512
C29	C	-0.147719	-0.047650	-0.000490
C30	C	-0.176353	-0.162335	-0.000493
C31	C	-0.829569	0.061895	-0.000412
C32	C	-0.827529	0.200407	-0.000417
C33	C	-0.821561	-0.394423	-0.000419
C34	C	-0.823601	-0.532935	-0.000424
N35	N	-0.825558	-0.166262	0.343669
C36	C	-0.886994	0.276624	-0.000448
C37	C	-0.884886	0.419784	-0.000452
N38	N	-0.825577	-0.166255	-0.344497
C39	C	-0.870179	-0.085229	0.415847
C40	C	-0.870190	-0.085224	0.583259
H41	H	-0.599562	-0.380170	-0.000343
Cl42	Cl	-0.928992	0.022161	0.319910
Cl43	Cl	-0.447852	-0.426626	-0.000381
H44	H	-0.908395	-0.015852	0.645328
Cl45	Cl	-0.203277	0.094105	-0.000468
H46	H	-0.051564	0.047644	-0.000619
H47	H	-0.939465	0.235891	-0.000465
Cl48	Cl	-0.647369	0.082413	-0.000281
H49	H	-0.495651	0.035941	-0.000378
H50	H	-0.155474	-0.368475	-0.000484
H51	H	-0.787376	-0.235640	0.593442
Cl52	Cl	-0.003766	-0.414931	-0.000534
Cl53	Cl	-0.744998	0.365969	-0.000372
Cl54	Cl	-0.746513	0.263284	-0.000391
Cl55	Cl	-0.766583	-0.273367	0.439606
H56	H	-0.935793	0.485273	-0.000472
