data_functionalizedCrystal
_audit_creation_method	'MofGen! by Chris Wilmer'
_symmetry_space_group_name_H-M	'P1'
_symmetry_Int_Tables_number	1
_symmetry_cell_setting	triclinic
loop_
_symmetry_equiv_pos_as_xyz
  x,y,z
_cell_length_a	16.109302
_cell_length_b	16.109301
_cell_length_c	9.130313
_cell_angle_alpha	89.994060
_cell_angle_beta	89.994534
_cell_angle_gamma	83.461631
loop_
_atom_site_label
_atom_site_type_symbol
_atom_site_fract_x
_atom_site_fract_y
_atom_site_fract_z
O1	O	1.103130	0.106870	-0.121870
O2	O	0.861068	0.120169	-0.121859
O3	O	0.988749	-0.007512	-0.121850
O4	O	0.975450	0.234550	-0.121879
O5	O	0.988740	-0.007515	0.121749
O6	O	0.861060	0.120165	0.121740
O7	O	1.103122	0.106866	0.121729
Cu8	Cu	0.982090	0.113515	0.143977
Cu9	Cu	0.982100	0.113520	-0.144107
O10	O	0.975441	0.234547	0.121720
C11	C	0.830089	0.119628	-0.000058
C12	C	0.737794	0.118013	-0.000053
C13	C	0.525448	0.114275	0.132718
C14	C	0.438728	0.112749	0.132714
C15	C	0.438748	0.112757	-0.132871
C16	C	0.525467	0.114278	-0.132865
C17	C	0.568815	0.115041	-0.000066
C18	C	0.395375	0.111994	-0.000077
C19	C	0.301350	0.110338	-0.000083
C20	C	0.662847	0.116695	-0.000059
C21	C	0.988206	-0.038488	-0.000050
C22	C	0.986591	-0.130784	-0.000047
C23	C	1.058599	-0.353056	-0.000074
C24	C	1.057074	-0.439776	-0.000086
C25	C	0.905586	-0.419902	-0.000073
C26	C	0.907111	-0.333184	-0.000072
C27	C	0.983620	-0.299763	-0.000065
C28	C	0.980571	-0.473202	-0.000078
C29	C	0.978918	-0.567228	-0.000091
C30	C	0.985273	-0.205731	-0.000054
C31	C	1.134101	0.107407	-0.000075
C32	C	1.226396	0.109022	-0.000089
C33	C	0.975984	0.265523	-0.000083
C34	C	0.977599	0.357819	-0.000095
N35	N	0.982089	0.113512	0.346600
N36	N	0.982108	0.113517	-0.346729
C37	C	1.038645	0.056998	0.423256
C38	C	1.038653	0.056999	0.576592
C39	C	0.925546	0.170032	0.576604
C40	C	0.925535	0.170028	0.423270
H41	H	0.403444	0.112136	-0.240992
H42	H	0.560739	0.114897	0.240852
Br43	Br	0.584329	0.115307	-0.313085
Br44	Br	0.379877	0.111708	0.312929
Br45	Br	0.848769	0.246723	0.319225
H46	H	1.120897	-0.325848	-0.000071
Br47	Br	1.158836	-0.512100	-0.000107
Br48	Br	0.801757	-0.465265	-0.000087
H49	H	1.084704	0.010979	0.639001
Br50	Br	0.805346	-0.260851	-0.000079
H51	H	1.084693	0.010979	0.360834
H52	H	0.879502	0.216048	0.639044
