data_functionalizedCrystal
_audit_creation_method	'MofGen! by Chris Wilmer'
_symmetry_space_group_name_H-M	'P1'
_symmetry_Int_Tables_number	1
_symmetry_cell_setting	triclinic
loop_
_symmetry_equiv_pos_as_xyz
  x,y,z
_cell_length_a	19.077312
_cell_length_b	18.101397
_cell_length_c	19.076919
_cell_angle_alpha	92.268541
_cell_angle_beta	94.668947
_cell_angle_gamma	87.726658
loop_
_atom_site_label
_atom_site_type_symbol
_atom_site_fract_x
_atom_site_fract_y
_atom_site_fract_z
Zn1	Zn	1.061675	-0.354669	-0.355251
Zn2	Zn	1.066338	-0.473726	-0.237364
Zn3	Zn	0.948532	-0.345132	-0.242119
Zn4	Zn	0.943769	-0.473696	-0.359946
O5	O	1.005078	-0.411806	-0.298670
O6	O	1.160940	-0.374466	-0.335658
O7	O	1.054655	-0.452690	-0.139347
O8	O	0.963582	-0.242767	-0.257151
O9	O	1.164365	-0.461937	-0.249046
O10	O	1.046708	-0.249774	-0.340269
O11	O	0.968104	-0.358212	-0.142841
O12	O	0.849254	-0.358183	-0.261704
O13	O	0.955465	-0.461885	-0.457971
O14	O	0.845755	-0.452638	-0.348272
O15	O	1.042090	-0.374437	-0.454521
O16	O	1.050037	-0.577352	-0.253600
O17	O	0.959986	-0.577330	-0.343661
C18	C	0.821927	-0.404373	-0.306014
C19	C	0.743573	-0.401211	-0.309172
C20	C	0.302331	-0.378477	-0.331833
C21	C	0.375953	-0.381461	-0.328861
C22	C	0.414541	-0.428414	-0.282209
C23	C	0.379504	-0.472391	-0.238530
C24	C	0.305883	-0.469410	-0.241506
C25	C	0.634915	-0.442207	-0.268469
C26	C	0.708540	-0.445183	-0.265495
C27	C	0.704984	-0.354254	-0.355828
C28	C	0.631362	-0.351274	-0.358797
C29	C	0.596331	-0.395254	-0.315121
N30	N	0.489795	-0.431464	-0.279169
N31	N	0.521079	-0.392208	-0.318165
C32	C	1.005019	-0.604213	-0.298638
C33	C	1.005058	-0.686529	-0.298646
C34	C	1.005145	-0.985626	-0.298706
C35	C	1.061657	-0.954272	-0.241903
C36	C	1.061839	-0.868667	-0.242036
C37	C	1.005102	-0.837240	-0.298676
C38	C	1.022252	-0.872080	-0.372172
C39	C	1.022684	-0.957730	-0.371858
C40	C	0.931313	-0.950340	-0.282663
C41	C	0.931748	-0.864638	-0.280989
C42	C	1.005076	-0.753379	-0.298663
C43	C	1.005173	-1.069487	-0.298724
C44	C	1.188945	-0.419269	-0.291298
C45	C	1.267299	-0.422449	-0.288156
C46	C	0.997726	-0.419221	-0.482539
C47	C	0.994593	-0.422381	-0.560894
C48	C	1.005156	-0.218649	-0.298716
C49	C	1.005189	-0.136337	-0.298736
C50	C	1.038220	-0.378338	-0.595910
C51	C	1.035267	-0.381304	-0.669532
C52	C	0.988691	-0.428317	-0.708137
C53	C	0.945060	-0.472362	-0.673116
C54	C	0.948009	-0.469392	-0.599495
C55	C	0.975030	-0.442079	-0.928513
C56	C	0.972086	-0.445048	-1.002139
C57	C	1.062293	-0.353988	-0.998550
C58	C	1.065241	-0.351025	-0.924928
C59	C	1.021607	-0.395067	-0.889913
N60	N	0.985674	-0.431352	-0.783391
N61	N	1.024621	-0.392028	-0.814661
C62	C	1.012443	-0.404368	-0.115514
C63	C	1.015712	-0.401005	-0.037155
H64	H	1.051456	-0.844958	-0.187446
O65	O	1.134362	-0.845088	-0.255781
H66	H	1.148330	-0.868579	-0.307661
O67	O	1.133791	-0.986322	-0.255472
H68	H	1.173281	-0.963834	-0.215082
H69	H	0.404473	-0.345657	-0.364430
O70	O	1.048123	-0.977986	-0.169364
H71	H	1.088648	-0.955192	-0.130241
O72	O	0.742772	-0.306828	-0.402936
H73	H	0.729140	-0.247630	-0.391516
H74	H	0.939511	-0.477953	-0.900013
H75	H	0.912476	-0.505249	-0.570986
O76	O	0.921841	-0.495748	-1.043783
H77	H	0.934459	-0.553792	-1.029155
H78	H	0.907134	-0.510639	-0.704554
H79	H	0.982221	-0.851864	-0.415504
O80	O	0.268099	-0.516832	-0.194390
H81	H	0.233300	-0.554481	-0.227228
O82	O	1.092802	-0.847381	-0.391032
H83	H	1.115760	-0.810311	-0.348180
H84	H	1.103170	-0.312744	-0.893500
H85	H	1.076564	-0.980512	-0.385796
H86	H	0.983164	-0.978633	-0.415477
O87	O	0.914536	-0.834048	-0.209367
H88	H	0.912680	-0.772681	-0.209294
O89	O	1.082324	-0.333801	-0.707298
H90	H	1.116825	-0.369757	-0.739402
H91	H	0.599948	-0.313043	-0.396789
O92	O	0.909883	-0.975169	-0.213104
H93	H	0.906785	-1.036325	-0.214924
O94	O	0.260710	-0.327832	-0.382148
H95	H	0.272636	-0.343434	-0.436881
O96	O	0.750165	-0.495833	-0.215181
H97	H	0.713438	-0.525921	-0.185315
H98	H	0.887620	-0.843022	-0.319573
O99	O	1.109333	-0.306464	-1.036314
H100	H	1.099450	-0.316415	-1.093993
H101	H	0.606401	-0.478016	-0.232903
O102	O	0.875616	-0.977305	-0.337466
H103	H	0.888499	-0.961047	-0.390288
O104	O	0.421119	-0.523030	-0.188205
H105	H	0.478199	-0.517709	-0.193466
O106	O	1.088455	-0.327630	-0.554272
H107	H	1.118290	-0.297498	-0.590993
