data_functionalizedCrystal
_audit_creation_method	'MofGen! by Chris Wilmer'
_symmetry_space_group_name_H-M	'P1'
_symmetry_Int_Tables_number	1
_symmetry_cell_setting	triclinic
loop_
_symmetry_equiv_pos_as_xyz
  x,y,z
_cell_length_a	12.811415
_cell_length_b	14.853558
_cell_length_c	11.295483
_cell_angle_alpha	85.889573
_cell_angle_beta	88.701575
_cell_angle_gamma	83.838233
loop_
_atom_site_label
_atom_site_type_symbol
_atom_site_fract_x
_atom_site_fract_y
_atom_site_fract_z
O1	O	0.128938	1.203632	-0.112932
O2	O	0.145147	0.941322	-0.114688
O3	O	-0.014573	1.078079	-0.097432
O4	O	0.288659	1.066876	-0.130188
O5	O	-0.000566	1.066067	0.099106
O6	O	0.159154	0.929311	0.081850
O7	O	0.142945	1.191620	0.083606
Cu8	Cu	0.152329	1.059369	0.100673
Cu9	Cu	0.135764	1.073574	-0.131755
O10	O	0.302665	1.054864	0.066350
C11	C	0.151418	0.901721	-0.016340
C12	C	0.149222	0.801616	-0.016105
C13	C	0.140557	0.761135	-0.123131
C14	C	0.155816	0.748037	0.091143
C15	C	0.153747	0.653984	0.091368
C16	C	0.145082	0.613502	-0.015657
C17	C	0.138485	0.667073	-0.122909
C18	C	0.160333	0.600407	0.198619
C19	C	0.158264	0.506348	0.198849
C20	C	0.149606	0.465864	0.091821
C21	C	0.143010	0.519441	-0.015435
C22	C	0.134345	0.478959	-0.122461
C23	C	0.127756	0.532534	-0.229719
C24	C	0.129827	0.626589	-0.229937
C25	C	0.147535	0.371809	0.092039
C26	C	0.132273	0.384898	-0.122238
C27	C	-0.046376	1.071077	0.005027
C28	C	-0.162007	1.068099	0.017510
C29	C	-0.394552	1.075583	-0.173323
C30	C	-0.503198	1.072785	-0.161599
C31	C	-0.487948	1.059699	0.052679
C32	C	-0.379301	1.062497	0.040956
C33	C	-0.332608	1.070440	-0.072049
C34	C	-0.223960	1.073245	-0.083771
C35	C	-0.208711	1.060152	0.130506
C36	C	-0.317357	1.057354	0.142229
C37	C	0.334468	1.061866	-0.036111
C38	C	0.450099	1.064844	-0.048602
C39	C	0.136674	1.231222	-0.014744
C40	C	0.138870	1.331327	-0.014987
N41	N	0.163979	1.049384	0.264151
N42	N	0.124105	1.083566	-0.295232
C43	C	0.040183	1.155441	0.526815
C44	C	0.048994	1.147902	0.650527
C45	C	0.190408	1.026763	0.635289
C46	C	0.181596	1.034302	0.511577
C47	C	0.106482	1.098644	0.457345
C48	C	0.097677	1.106187	0.333630
C49	C	0.239084	0.985044	0.318395
C50	C	0.247896	0.977505	0.442107
H51	H	0.125223	0.351944	-0.209394
H52	H	-0.185945	1.079716	-0.175785
O53	O	0.153800	0.319876	0.196304
C54	C	0.075994	0.289150	0.389211
C55	C	0.068784	0.348044	0.271192
H56	H	0.007256	0.311889	0.449781
H57	H	0.152952	0.296934	0.434233
H58	H	0.073078	0.214973	0.370952
H59	H	0.071656	0.422243	0.289348
H60	H	-0.008167	0.340181	0.226207
O61	O	-0.032861	1.217964	0.474320
C62	C	-0.172141	1.337369	0.502479
C63	C	-0.089481	1.266586	0.562082
H64	H	-0.217925	1.376712	0.573406
H65	H	-0.228452	1.301484	0.450240
H66	H	-0.131181	1.386359	0.439646
H67	H	-0.130351	1.217576	0.624970
H68	H	-0.033176	1.302532	0.614247
O69	O	0.303458	0.929737	0.251041
C70	C	0.361448	0.775927	0.206607
C71	C	0.288508	0.838447	0.282986
H72	H	0.349370	0.702107	0.232389
H73	H	0.446653	0.786984	0.221940
H74	H	0.342265	0.792417	0.108876
H75	H	0.307597	0.821996	0.380743
H76	H	0.203324	0.827380	0.267552
H77	H	0.309050	0.925117	0.486277
O78	O	0.263248	0.964137	0.687948
C79	C	0.326669	0.805703	0.719250
C80	C	0.244106	0.876532	0.659564
H81	H	0.311235	0.734860	0.696303
H82	H	0.321563	0.809995	0.819616
H83	H	0.408389	0.819832	0.685946
H84	H	0.162348	0.862450	0.692772
H85	H	0.249305	0.872224	0.559205
H86	H	0.162862	0.781004	0.178279
H87	H	-0.356534	1.082059	-0.265335
H88	H	0.120695	0.499562	-0.316858
H89	H	0.167379	0.633376	0.285754
H90	H	0.135197	0.804759	-0.210458
O91	O	0.123383	0.678769	-0.334006
C92	C	0.119858	0.829469	-0.429309
C93	C	0.127146	0.770481	-0.311367
H94	H	0.122921	0.903628	-0.411049
H95	H	0.042835	0.821772	-0.474247
H96	H	0.188506	0.806660	-0.489964
H97	H	0.058555	0.793251	-0.250622
H98	H	0.204211	0.778184	-0.266524
H99	H	0.163627	0.462735	0.286185
H100	H	-0.004995	1.194150	0.707087
O101	O	-0.563223	1.077822	-0.260099
C102	C	-0.566866	1.091013	-0.473872
C103	C	-0.498771	1.085348	-0.362416
H104	H	-0.514782	1.097080	-0.556624
H105	H	-0.627543	1.153001	-0.472824
H106	H	-0.608687	1.027079	-0.474674
H107	H	-0.456882	1.149236	-0.361542
H108	H	-0.438157	1.023319	-0.363507
H109	H	-0.525984	1.053224	0.144682
H110	H	-0.355390	1.050883	0.234234
H111	H	-0.158264	1.055967	0.212970
O112	O	0.024554	1.168588	0.281043
C113	C	-0.159163	1.221838	0.262871
C114	C	-0.076448	1.151103	0.322467
H115	H	-0.240840	1.207737	0.296358
H116	H	-0.154198	1.217494	0.162509
H117	H	-0.143672	1.292697	0.285689
H118	H	-0.091884	1.080211	0.299743
H119	H	-0.081433	1.155526	0.422815
