data_functionalizedCrystal
_audit_creation_method	'MofGen! by Chris Wilmer'
_symmetry_space_group_name_H-M	'P1'
_symmetry_Int_Tables_number	1
_symmetry_cell_setting	triclinic
loop_
_symmetry_equiv_pos_as_xyz
  x,y,z
_cell_length_a	16.959455
_cell_length_b	29.839131
_cell_length_c	29.839135
_cell_angle_alpha	90.008321
_cell_angle_beta	90.012987
_cell_angle_gamma	90.032247
loop_
_atom_site_label
_atom_site_type_symbol
_atom_site_fract_x
_atom_site_fract_y
_atom_site_fract_z
Zn1	Zn	1.208243	-0.179028	0.254044
Zn2	Zn	1.708243	0.320972	0.754044
Zn3	Zn	1.208147	-0.254117	0.178903
Zn4	Zn	1.708147	0.245883	0.678903
Zn5	Zn	1.076088	-0.178998	0.178919
Zn6	Zn	1.576088	0.321002	0.678919
Zn7	Zn	1.076001	-0.254127	0.253998
Zn8	Zn	1.576001	0.245873	0.753998
O9	O	1.142120	-0.216568	0.216466
O10	O	1.642120	0.283432	0.716466
O11	O	1.318841	-0.188996	0.244088
O12	O	1.818841	0.311004	0.744088
O13	O	1.190626	-0.244136	0.116038
O14	O	1.690626	0.255864	0.616038
O15	O	1.093695	-0.116135	0.188910
O16	O	1.593695	0.383865	0.688910
O17	O	1.318771	-0.244165	0.188883
O18	O	1.818771	0.255835	0.688883
O19	O	1.190789	-0.116157	0.244104
O20	O	1.690789	0.383843	0.744104
O21	O	1.093603	-0.188946	0.116050
O22	O	1.593603	0.311054	0.616050
O23	O	0.965466	-0.188956	0.188866
O24	O	1.465466	0.311044	0.688866
O25	O	1.093546	-0.244182	0.316871
O26	O	1.593546	0.255818	0.816871
O27	O	0.965402	-0.244153	0.244026
O28	O	1.465402	0.255847	0.744026
O29	O	1.190704	-0.189006	0.316905
O30	O	1.690704	0.310994	0.816905
O31	O	1.190541	-0.316986	0.188839
O32	O	1.690541	0.183014	0.688839
O33	O	1.093454	-0.316993	0.244011
O34	O	1.593454	0.183007	0.744011
C35	C	0.936754	-0.216553	0.216443
C36	C	1.436754	0.283447	0.716443
C37	C	0.848897	-0.216557	0.216444
C38	C	1.348897	0.283443	0.716444
C39	C	0.477374	-0.245265	0.187706
C40	C	0.977374	0.254735	0.687706
C41	C	0.477469	-0.187907	0.245281
C42	C	0.977469	0.312093	0.745281
C43	C	0.560014	-0.187900	0.245270
C44	C	1.060014	0.312100	0.745270
C45	C	0.601244	-0.216576	0.216477
C46	C	1.101244	0.283424	0.716477
C47	C	0.559928	-0.245260	0.187695
C48	C	1.059928	0.254740	0.687695
C49	C	0.601337	-0.159220	0.274054
C50	C	1.101337	0.340780	0.774054
C51	C	0.683888	-0.159212	0.274045
C52	C	1.183888	0.340788	0.774045
C53	C	0.725119	-0.187886	0.245250
C54	C	1.225119	0.312114	0.745250
C55	C	0.683798	-0.216570	0.216466
C56	C	1.183798	0.283430	0.716466
C57	C	0.725027	-0.245247	0.187674
C58	C	1.225027	0.254753	0.687674
C59	C	0.683707	-0.273929	0.158888
C60	C	1.183707	0.226071	0.658888
C61	C	0.601159	-0.273934	0.158900
C62	C	1.101159	0.226066	0.658900
C63	C	0.807667	-0.187881	0.245237
C64	C	1.307667	0.312119	0.745237
C65	C	0.807581	-0.245241	0.187663
C66	C	1.307581	0.254759	0.687663
C67	C	1.141999	-0.333290	0.216428
C68	C	1.641999	0.166710	0.716428
C69	C	1.142020	-0.383225	0.216427
C70	C	1.642020	0.116775	0.716427
C71	C	1.192665	-0.692844	0.245246
C72	C	1.692665	-0.192844	0.745246
C73	C	1.192751	-0.880517	0.245273
C74	C	1.692751	-0.380517	0.745273
O75	O	1.235693	-0.904762	0.269748
O76	O	1.735693	-0.404762	0.769748
N77	N	1.142254	-0.904010	0.216516
N78	N	1.642254	-0.404010	0.716516
C79	C	1.091728	-0.880581	0.187752
C80	C	1.591728	-0.380581	0.687752
O81	O	1.048774	-0.904869	0.163296
O82	O	1.548774	-0.404869	0.663296
C83	C	1.091639	-0.692909	0.187728
C84	C	1.591639	-0.192909	0.687728
C85	C	1.142145	-0.669419	0.216484
C86	C	1.642145	-0.169419	0.716484
C87	C	1.243167	-0.669354	0.274000
C88	C	1.743167	-0.169354	0.774000
C89	C	1.243148	-0.622439	0.273991
C90	C	1.743148	-0.122439	0.773991
C91	C	1.192628	-0.599013	0.245229
C92	C	1.692628	-0.099013	0.745229
C93	C	1.142126	-0.622503	0.216475
C94	C	1.642126	-0.122503	0.716475
C95	C	1.041110	-0.669481	0.158966
C96	C	1.541110	-0.169481	0.658966
C97	C	1.041091	-0.622560	0.158963
C98	C	1.541091	-0.122560	0.658963
C99	C	1.091597	-0.599070	0.187719
C100	C	1.591597	-0.099070	0.687719
C101	C	1.091587	-0.552162	0.187703
C102	C	1.591587	-0.052162	0.687703
N103	N	1.142084	-0.528670	0.216461
N104	N	1.642084	-0.028670	0.716461
C105	C	1.192604	-0.552096	0.245223
C106	C	1.692604	-0.052096	0.745223
C107	C	1.091780	-0.979111	0.187766
C108	C	1.591780	-0.479111	0.687766
C109	C	1.091803	-1.026029	0.187772
C110	C	1.591803	-0.526029	0.687772
C111	C	1.192825	-1.025963	0.245294
C112	C	1.692825	-0.525963	0.745294
C113	C	1.192805	-0.979044	0.245286
C114	C	1.692805	-0.479044	0.745286
C115	C	1.142277	-0.955619	0.216523
C116	C	1.642277	-0.455619	0.716523
C117	C	1.192561	-0.453570	0.245202
C118	C	1.692561	0.046430	0.745202
C119	C	1.192540	-0.406650	0.245190
C120	C	1.692540	0.093350	0.745190
C121	C	1.091516	-0.406721	0.187670
C122	C	1.591516	0.093279	0.687670
C123	C	1.091539	-0.453636	0.187680
C124	C	1.591539	0.046364	0.687680
C125	C	1.142065	-0.477060	0.216450
C126	C	1.642065	0.022940	0.716450
O127	O	1.048661	-0.527889	0.163245
O128	O	1.548661	-0.027889	0.663245
O129	O	1.235540	-0.527800	0.269683
O130	O	1.735540	-0.027800	0.769683
C131	C	1.192684	-0.739760	0.245255
C132	C	1.692684	-0.239760	0.745255
C133	C	1.142183	-0.763250	0.216501
C134	C	1.642183	-0.263250	0.716501
C135	C	1.091663	-0.739824	0.187738
C136	C	1.591663	-0.239824	0.687738
C137	C	1.142206	-0.810168	0.216506
C138	C	1.642206	-0.310168	0.716506
C139	C	1.192726	-0.833593	0.245269
C140	C	1.692726	-0.333593	0.745269
C141	C	1.243223	-0.810101	0.274026
C142	C	1.743223	-0.310101	0.774026
C143	C	1.243204	-0.763185	0.274018
C144	C	1.743204	-0.263185	0.774018
C145	C	1.041166	-0.763316	0.158981
C146	C	1.541166	-0.263316	0.658981
C147	C	1.041189	-0.810232	0.158992
C148	C	1.541189	-0.310232	0.658992
C149	C	1.091710	-0.833657	0.187755
C150	C	1.591710	-0.333657	0.687755
C151	C	1.348288	-0.216583	0.216489
C152	C	1.848288	0.283417	0.716489
C153	C	1.436145	-0.216589	0.216499
C154	C	1.936145	0.283411	0.716499
C155	C	1.142126	-0.216598	0.333644
C156	C	1.642126	0.283402	0.833644
C157	C	1.142129	-0.216612	0.383579
C158	C	1.642129	0.283388	0.883579
C159	C	1.142262	-0.099389	0.216514
C160	C	1.642262	0.400611	0.716514
C161	C	1.142323	-0.049455	0.216534
C162	C	1.642323	0.450545	0.716534
C163	C	1.091530	-0.245306	0.740149
C164	C	1.591530	0.254694	1.240149
C165	C	1.091535	-0.245322	0.552476
C166	C	1.591535	0.254678	1.052476
O167	O	1.048495	-0.269742	0.528196
O168	O	1.548495	0.230258	1.028196
N169	N	1.142120	-0.216598	0.529024
N170	N	1.642120	0.283402	1.029024
C171	C	1.192704	-0.187865	0.552494
C172	C	1.692704	0.312135	1.052494
O173	O	1.235724	-0.163430	0.528240
O174	O	1.735724	0.336570	1.028240
C175	C	1.192694	-0.187847	0.740166
C176	C	1.692694	0.312153	1.240166
C177	C	1.142111	-0.216577	0.763615
C178	C	1.642111	0.283423	1.263615
C179	C	1.040950	-0.274034	0.763598
C180	C	1.540950	0.225966	1.263598
C181	C	1.040952	-0.274031	0.810513
C182	C	1.540952	0.225969	1.310513
C183	C	1.091534	-0.245301	0.833980
C184	C	1.591534	0.254699	1.333980
C185	C	1.142113	-0.216574	0.810530
C186	C	1.642113	0.283426	1.310530
C187	C	1.243273	-0.159112	0.763634
C188	C	1.743273	0.340888	1.263634
C189	C	1.243265	-0.159110	0.810555
C190	C	1.743265	0.340890	1.310555
C191	C	1.192682	-0.187839	0.834005
C192	C	1.692682	0.312161	1.334005
C193	C	1.192697	-0.187842	0.880912
C194	C	1.692697	0.312158	1.380912
N195	N	1.142112	-0.216567	0.904364
N196	N	1.642112	0.283433	1.404364
C197	C	1.091530	-0.245296	0.880897
C198	C	1.591530	0.254704	1.380897
C199	C	1.192707	-0.187877	0.453963
C200	C	1.692707	0.312123	0.953963
C201	C	1.192710	-0.187882	0.407045
C202	C	1.692710	0.312118	0.907045
C203	C	1.091540	-0.245339	0.407030
C204	C	1.591540	0.254661	0.907030
C205	C	1.091541	-0.245336	0.453949
C206	C	1.591541	0.254664	0.953949
C207	C	1.142122	-0.216602	0.477415
C208	C	1.642122	0.283398	0.977415
C209	C	1.091539	-0.245289	0.979423
C210	C	1.591539	0.254711	1.479423
C211	C	1.091548	-0.245285	1.026343
C212	C	1.591548	0.254715	1.526343
C213	C	1.192715	-0.187827	1.026353
C214	C	1.692715	0.312173	1.526353
C215	C	1.192710	-0.187832	0.979438
C216	C	1.692710	0.312168	1.479438
C217	C	1.142115	-0.216565	0.955974
C218	C	1.642115	0.283435	1.455974
O219	O	1.235708	-0.163432	0.905220
O220	O	1.735708	0.336568	1.405220
O221	O	1.048504	-0.269721	0.905159
O222	O	1.548504	0.230279	1.405159
C223	C	1.091527	-0.245309	0.693233
C224	C	1.591527	0.254691	1.193233
C225	C	1.142107	-0.216582	0.669784
C226	C	1.642107	0.283418	1.169784
C227	C	1.192688	-0.187852	0.693250
C228	C	1.692688	0.312148	1.193250
C229	C	1.142110	-0.216587	0.622866
C230	C	1.642110	0.283413	1.122866
C231	C	1.091529	-0.245317	0.599400
C232	C	1.591529	0.254683	1.099400
C233	C	1.040944	-0.274041	0.622852
C234	C	1.540944	0.225959	1.122852
C235	C	1.040946	-0.274039	0.669767
C236	C	1.540946	0.225961	1.169767
C237	C	1.243274	-0.159128	0.669799
C238	C	1.743274	0.340872	1.169799
C239	C	1.243268	-0.159133	0.622883
C240	C	1.743268	0.340867	1.122883
C241	C	1.192686	-0.187863	0.599417
C242	C	1.692686	0.312137	1.099417
C243	C	1.142114	-0.216552	1.099744
C244	C	1.642114	0.283448	1.599744
C245	C	1.142130	-0.216556	1.049809
C246	C	1.642130	0.283444	1.549809
H247	H	0.443894	-0.164563	0.268725
H248	H	0.943894	0.335437	0.768725
O249	O	0.986380	-0.305021	0.695057
O250	O	1.486380	0.194979	1.195057
H251	H	0.951205	-0.324992	0.670850
H252	H	1.451205	0.175008	1.170850
O253	O	0.728453	-0.128276	0.305088
O254	O	1.228453	0.371724	0.805088
H255	H	0.766065	-0.105383	0.285018
H256	H	1.266065	0.394617	0.785018
O257	O	0.556872	-0.128288	0.305104
O258	O	1.056872	0.371712	0.805104
H259	H	0.492530	-0.133106	0.300270
H260	H	0.992530	0.366894	0.800270
H261	H	1.284464	-0.135718	0.744550
H262	H	1.784464	0.364282	1.244550
H263	H	1.284466	-0.135738	0.603795
H264	H	1.784466	0.364262	1.103795
H265	H	0.999761	-0.297425	0.829602
H266	H	1.499761	0.202575	1.329602
H267	H	0.841306	-0.164530	0.268675
H268	H	1.341306	0.335470	0.768675
O269	O	1.036980	-0.276271	1.051632
O270	O	1.536980	0.223729	1.551632
H271	H	1.072326	-0.299134	1.073008
H272	H	1.572326	0.200866	1.573008
H273	H	1.284464	-0.135732	0.688900
H274	H	1.784464	0.364268	1.188900
H275	H	0.999942	-0.603489	0.135542
H276	H	1.499942	-0.103489	0.635542
O277	O	1.247025	-0.381313	0.276201
O278	O	1.747025	0.118687	0.776201
H279	H	1.282155	-0.405488	0.296203
H280	H	1.782155	0.094512	0.796203
H281	H	0.841144	-0.268591	0.164214
H282	H	1.341144	0.231409	0.664214
O283	O	1.247060	-0.478826	0.276233
O284	O	1.747060	0.021174	0.776233
H285	H	1.211666	-0.500207	0.299079
H286	H	1.711666	-0.000207	0.799079
H287	H	1.050684	-1.045151	0.164351
H288	H	1.550684	-0.545151	0.664351
O289	O	1.036959	-0.276275	0.954123
O290	O	1.536959	0.223725	1.454123
H291	H	1.050475	-0.311534	0.963126
H292	H	1.550475	0.188466	1.463126
O293	O	0.728185	-0.304855	0.127832
O294	O	1.228185	0.195145	0.627832
H295	H	0.712327	-0.340130	0.135469
H296	H	1.212327	0.159870	0.635469
O297	O	1.297634	-0.597106	0.305000
O298	O	1.797634	-0.097106	0.805000
H299	H	1.332763	-0.621284	0.324999
H300	H	1.832763	-0.121284	0.824999
H301	H	1.050356	-0.268732	0.387916
H302	H	1.550356	0.231268	0.887916
H303	H	1.233908	-0.164492	0.387957
H304	H	1.733908	0.335508	0.887957
O305	O	1.247272	-0.156888	0.479270
O306	O	1.747272	0.343112	0.979270
H307	H	1.282449	-0.136921	0.455076
H308	H	1.782449	0.363079	0.955076
O309	O	0.432813	-0.276197	0.156657
O310	O	0.932813	0.223803	0.656657
H311	H	0.448637	-0.311470	0.164287
H312	H	0.948637	0.188530	0.664287
H313	H	1.284306	-0.688423	0.297425
H314	H	1.784306	-0.188423	0.797425
H315	H	1.233931	-0.959921	0.268701
H316	H	1.733931	-0.459921	0.768701
H317	H	0.999761	-0.297436	0.603737
H318	H	1.499761	0.202564	1.103737
O319	O	1.297825	-0.128120	0.835866
O320	O	1.797825	0.371880	1.335866
H321	H	1.333000	-0.108148	0.811674
H322	H	1.833000	0.391852	1.311674
O323	O	1.247266	-0.156848	0.954142
O324	O	1.747266	0.343152	1.454142
H325	H	1.282436	-0.136868	0.978344
H326	H	1.782436	0.363132	1.478344
O327	O	0.556596	-0.304869	0.127855
O328	O	1.056596	0.195131	0.627855
H329	H	0.492268	-0.300058	0.132704
H330	H	0.992268	0.199942	0.632704
H331	H	1.233961	-1.045044	0.268713
H332	H	1.733961	-0.545044	0.768713
H333	H	1.284331	-0.744063	0.297434
H334	H	1.784331	-0.244063	0.797434
H335	H	1.050633	-0.960042	0.164343
H336	H	1.550633	-0.460042	0.664343
O337	O	1.247247	-0.156827	1.051667
O338	O	1.747247	0.343173	1.551667
H339	H	1.238730	-0.161646	1.088231
H340	H	1.738730	0.338354	1.588231
H341	H	0.999983	-0.688598	0.135550
H342	H	1.499983	-0.188598	0.635550
O343	O	1.037069	-0.478977	0.156665
O344	O	1.537069	0.021023	0.656665
H345	H	1.001934	-0.454803	0.136665
H346	H	1.501934	0.045197	0.636665
H347	H	1.050385	-0.387640	0.164250
H348	H	1.550385	0.112360	0.664250
H349	H	1.284361	-0.829182	0.297445
H350	H	1.784361	-0.329182	0.797445
H351	H	1.000063	-0.829353	0.135571
H352	H	1.500063	-0.329353	0.635571
H353	H	1.000025	-0.744247	0.135559
H354	H	1.500025	-0.244247	0.635559
H355	H	0.999756	-0.297429	0.744497
H356	H	1.499756	0.202571	1.244497
H357	H	1.050351	-0.268730	0.473038
H358	H	1.550351	0.231270	0.973038
