data_functionalizedCrystal
_audit_creation_method	'MofGen! by Chris Wilmer'
_symmetry_space_group_name_H-M	'P1'
_symmetry_Int_Tables_number	1
_symmetry_cell_setting	triclinic
loop_
_symmetry_equiv_pos_as_xyz
  x,y,z
_cell_length_a	16.625547
_cell_length_b	18.101397
_cell_length_c	16.625539
_cell_angle_alpha	89.968146
_cell_angle_beta	89.975178
_cell_angle_gamma	90.020402
loop_
_atom_site_label
_atom_site_type_symbol
_atom_site_fract_x
_atom_site_fract_y
_atom_site_fract_z
Zn1	Zn	1.232692	-0.294829	-0.455981
Zn2	Zn	1.232600	-0.418678	-0.321140
Zn3	Zn	1.097854	-0.294855	-0.321151
Zn4	Zn	1.097829	-0.418634	-0.455920
O5	O	1.165243	-0.356749	-0.388548
O6	O	1.345512	-0.311266	-0.438115
O7	O	1.214697	-0.402283	-0.208309
O8	O	1.115789	-0.191219	-0.339067
O9	O	1.345444	-0.402258	-0.339048
O10	O	1.214854	-0.191200	-0.438126
O11	O	1.115700	-0.311310	-0.208317
O12	O	0.985018	-0.311267	-0.339008
O13	O	1.115747	-0.402181	-0.568760
O14	O	0.985000	-0.402206	-0.438022
O15	O	1.214830	-0.311223	-0.568805
O16	O	1.214673	-0.522305	-0.338988
O17	O	1.115657	-0.522272	-0.438010
C18	C	0.955753	-0.356735	-0.388510
C19	C	0.866131	-0.356746	-0.388513
C20	C	0.793349	-0.356748	-0.388523
C21	C	0.702041	-0.356752	-0.388543
C22	C	0.629264	-0.356759	-0.388563
C23	C	0.537950	-0.356764	-0.388583
C24	C	1.165174	-0.549160	-0.388509
C25	C	1.165219	-0.631474	-0.388519
C26	C	1.165322	-0.930565	-0.388593
C27	C	1.227446	-0.899230	-0.326124
C28	C	1.227661	-0.813611	-0.326286
C29	C	1.165271	-0.782182	-0.388556
C30	C	1.188307	-0.813188	-0.473547
C31	C	1.188788	-0.898833	-0.473207
C32	C	1.079995	-0.899074	-0.366805
C33	C	1.080417	-0.813425	-0.364908
C34	C	1.165240	-0.698323	-0.388540
C35	C	1.165354	-1.014424	-0.388614
C36	C	1.375552	-0.356764	-0.388587
C37	C	1.465173	-0.356771	-0.388603
C38	C	1.165296	-0.356694	-0.598857
C39	C	1.165318	-0.356670	-0.688478
C40	C	1.165335	-0.163587	-0.388605
C41	C	1.165373	-0.081273	-0.388629
C42	C	1.165355	-0.356588	-1.016654
C43	C	1.165343	-0.356613	-0.925346
C44	C	1.165337	-0.356630	-0.852569
C45	C	1.165324	-0.356654	-0.761255
C46	C	1.165238	-0.356751	-0.179057
C47	C	1.165371	-0.356566	-0.089437
H48	H	1.213249	-0.792651	-0.263266
H49	H	1.031640	-0.792038	-0.407075
O50	O	1.210374	-0.923949	-0.250770
C51	C	1.141957	-0.969929	-0.253394
H52	H	1.134623	-0.993180	-0.316678
H53	H	1.086306	-0.936470	-0.236758
C54	C	1.161309	-1.005389	-0.115517
C55	C	1.152306	-1.033951	-0.193243
H56	H	1.167690	-1.044879	-0.078412
H57	H	1.207402	-0.974409	-0.113748
H58	H	1.114932	-0.977507	-0.101666
H59	H	1.198687	-1.061825	-0.207098
H60	H	1.106221	-1.064937	-0.195013
H61	H	1.145521	-0.919558	-0.521356
H62	H	1.251157	-0.918751	-0.491662
O63	O	1.136021	-0.789010	-0.530664
C64	C	1.158457	-0.817855	-0.606167
H65	H	1.195719	-0.870052	-0.597099
H66	H	1.195631	-0.775108	-0.640199
C67	C	1.036646	-0.772489	-0.666059
C68	C	1.082406	-0.836601	-0.654921
H69	H	0.989736	-0.784050	-0.696135
H70	H	1.021531	-0.753053	-0.615192
H71	H	1.067634	-0.736873	-0.694416
H72	H	1.051422	-0.872212	-0.626556
H73	H	1.097514	-0.856044	-0.705784
H74	H	1.290305	-0.920697	-0.340374
H75	H	1.059039	-0.920736	-0.305904
H76	H	1.290866	-0.793067	-0.340701
O77	O	1.261947	-0.787624	-0.495841
C78	C	1.319904	-0.810592	-0.439226
H79	H	1.297057	-0.861631	-0.406133
H80	H	1.331082	-0.764265	-0.394166
C81	C	1.427039	-0.766628	-0.523599
C82	C	1.398979	-0.829320	-0.482959
H83	H	1.475817	-0.778177	-0.550574
H84	H	1.387992	-0.751151	-0.561741
H85	H	1.436347	-0.728028	-0.486042
H86	H	1.389662	-0.867915	-0.520517
H87	H	1.438026	-0.844803	-0.444824
O88	O	1.024673	-0.923160	-0.421027
C89	C	0.948389	-0.894606	-0.400900
H90	H	0.956072	-0.842546	-0.363118
H91	H	0.913325	-0.937598	-0.365044
C92	C	0.892610	-0.939604	-0.524793
C93	C	0.902047	-0.875660	-0.478394
H94	H	0.864022	-0.927920	-0.572594
H95	H	0.944003	-0.958844	-0.538353
H96	H	0.863392	-0.975425	-0.494904
H97	H	0.931272	-0.839844	-0.508280
H98	H	0.850657	-0.856413	-0.464841
O99	O	1.059794	-0.789164	-0.290299
C100	C	1.121811	-0.744170	-0.259561
H101	H	1.158787	-0.720858	-0.311464
H102	H	1.162314	-0.778473	-0.218745
C103	C	1.039480	-0.708805	-0.147258
C104	C	1.084891	-0.680168	-0.211007
H105	H	1.016708	-0.669328	-0.117305
H106	H	0.997699	-0.739121	-0.167965
H107	H	1.073240	-0.737391	-0.113254
H108	H	1.051130	-0.651591	-0.245015
H109	H	1.126666	-0.649846	-0.190305
