data_functionalizedCrystal
_audit_creation_method	'MofGen! by Chris Wilmer'
_symmetry_space_group_name_H-M	'P1'
_symmetry_Int_Tables_number	1
_symmetry_cell_setting	triclinic
loop_
_symmetry_equiv_pos_as_xyz
  x,y,z
_cell_length_a	19.288866
_cell_length_b	19.288865
_cell_length_c	17.766277
_cell_angle_alpha	90.011603
_cell_angle_beta	90.007831
_cell_angle_gamma	83.136446
loop_
_atom_site_label
_atom_site_type_symbol
_atom_site_fract_x
_atom_site_fract_y
_atom_site_fract_z
O1	O	-0.921353	-0.086652	-0.062576
O2	O	-0.719092	-0.098340	-0.062584
O3	O	-0.826067	0.008634	-0.062565
O4	O	-0.814378	-0.193626	-0.062595
O5	O	-0.826048	0.008640	0.062624
O6	O	-0.719073	-0.098335	0.062604
O7	O	-0.921334	-0.086647	0.062613
Cu8	Cu	-0.820202	-0.092490	0.074039
Cu9	Cu	-0.820224	-0.092496	-0.074011
O10	O	-0.814359	-0.193621	0.062593
C11	C	-0.693206	-0.097961	0.000009
C12	C	-0.616103	-0.096832	0.000006
N13	N	-0.820191	-0.092485	0.178170
C14	C	-0.825681	0.034513	0.000032
C15	C	-0.824552	0.111617	0.000038
C16	C	-0.060547	-0.088701	-0.068224
C17	C	-0.132995	-0.089757	-0.068227
C18	C	-0.169213	-0.090286	0.000013
C19	C	-0.132980	-0.089740	0.068261
C20	C	-0.060535	-0.088676	0.068262
C21	C	-0.278533	-0.132651	0.052287
C22	C	-0.350976	-0.133719	0.052283
C23	C	-0.392659	-0.093565	0.000013
C24	C	-0.361888	-0.052350	-0.052267
C25	C	-0.289443	-0.051286	-0.052266
C26	C	-0.247768	-0.091439	0.000019
C27	C	-0.507440	-0.095252	-0.068234
C28	C	-0.579889	-0.096304	-0.068234
C29	C	-0.579872	-0.096294	0.068256
C30	C	-0.507425	-0.095234	0.068254
C31	C	-0.471213	-0.094717	0.000007
C32	C	0.052780	-0.087026	0.000018
C33	C	-0.024323	-0.088158	0.000015
C34	C	-0.814745	-0.219500	-0.000005
C35	C	-0.815874	-0.296604	-0.000016
C36	C	-0.887320	0.156313	0.000045
C37	C	-0.886259	0.228760	0.000033
C38	C	-0.822427	0.256508	0.000029
C39	C	-0.759651	0.211802	0.000019
C40	C	-0.760714	0.139357	0.000023
C41	C	-0.772241	0.364797	0.043878
C42	C	-0.771181	0.437242	0.043878
C43	C	-0.819148	0.479954	0.000012
C44	C	-0.868186	0.450213	-0.043844
C45	C	-0.869248	0.377768	-0.043840
C46	C	-0.821268	0.335062	0.000024
C47	C	-0.880770	0.603206	0.000005
C48	C	-0.879706	0.675654	-0.000012
C49	C	-0.753096	0.658694	-0.000018
C50	C	-0.754161	0.586247	-0.000009
C51	C	-0.818000	0.558508	0.000006
N52	N	-0.820240	-0.092496	-0.178141
C53	C	-0.867575	-0.045140	0.217565
C54	C	-0.867579	-0.045137	0.296367
C55	C	-0.820206	-0.092491	0.335770
C56	C	-0.772813	-0.139839	0.296365
C57	C	-0.772806	-0.139837	0.217565
C58	C	-0.810907	-0.155778	0.460598
C59	C	-0.810919	-0.155782	0.539397
C60	C	-0.820225	-0.092499	0.578816
C61	C	-0.829532	-0.029210	0.539427
C62	C	-0.829525	-0.029207	0.460627
C63	C	-0.820208	-0.092499	0.421216
C64	C	-0.867615	-0.045146	0.703658
C65	C	-0.867614	-0.045142	0.782461
C66	C	-0.772852	-0.139851	0.782458
C67	C	-0.772850	-0.139849	0.703656
C68	C	-0.820235	-0.092498	0.664261
H69	H	-0.162494	-0.090203	-0.123797
N70	N	-0.918727	0.005919	0.824959
H71	H	-0.949387	-0.020559	0.857639
H72	H	-0.892241	0.036597	0.857625
H73	H	-0.803318	-0.207314	0.428510
N74	N	-0.922132	0.345693	-0.091142
H75	H	-0.897069	0.312209	-0.128645
H76	H	-0.952384	0.319677	-0.057488
H77	H	-0.803345	-0.207316	0.571462
N78	N	-0.233580	-0.175962	0.108672
H79	H	-0.239386	-0.226914	0.101691
H80	H	-0.183039	-0.168975	0.100713
N81	N	-0.693011	0.091143	0.000016
H82	H	-0.652411	0.119711	0.000009
H83	H	-0.690687	0.060728	0.046428
H84	H	-0.031068	-0.088276	-0.123797
H85	H	-0.837109	0.022321	0.571521
N86	N	-0.172040	-0.090308	0.141864
H87	H	-0.223430	-0.091067	0.131509
H88	H	-0.153605	-0.133169	0.171660
H89	H	-0.376021	-0.167295	0.094837
N90	N	-0.256253	-0.006835	-0.108644
H91	H	-0.293647	0.018444	-0.141760
H92	H	-0.230849	0.028357	-0.081081
N93	N	-0.021460	-0.088090	0.141866
H94	H	-0.055458	-0.088103	0.185095
H95	H	0.014037	-0.130943	0.145060
N96	N	-0.406834	-0.009040	-0.108654
H97	H	-0.457397	-0.015964	-0.100723
H98	H	-0.400965	0.041893	-0.101650
H99	H	-0.703049	0.549855	-0.000010
N100	N	-0.956171	0.126394	0.000059
H101	H	-0.995774	0.165706	0.000061
H102	H	-0.959380	0.096696	-0.046348
N103	N	-0.953961	0.276980	0.000038
H104	H	-0.994563	0.248414	0.000047
H105	H	-0.956264	0.307416	0.046446
H106	H	-0.907244	0.484988	-0.079564
N107	N	-0.947411	0.723864	0.000001
H108	H	-0.937053	0.773968	-0.000007
H109	H	-0.975253	0.714891	-0.046401
H110	H	-0.477931	-0.094795	0.123822
N111	N	-0.468376	-0.094691	-0.141838
H112	H	-0.502321	-0.095189	-0.185070
H113	H	-0.444081	-0.051202	-0.144806
H114	H	-0.609383	-0.096740	-0.123805
N115	N	-0.618927	-0.096856	0.141860
H116	H	-0.670318	-0.097610	0.131506
H117	H	-0.600496	-0.139717	0.171658
N118	N	-0.721720	-0.190913	0.338865
H119	H	-0.729557	-0.240191	0.325134
H120	H	-0.672473	-0.182974	0.325152
N121	N	-0.949619	0.573279	0.000018
H122	H	-0.989223	0.612591	0.000014
H123	H	-0.952824	0.543577	-0.046387
H124	H	-0.734268	-0.178405	0.671578
H125	H	-0.906157	-0.006582	0.185492
N126	N	-0.721695	-0.190901	0.175068
H127	H	-0.691681	-0.220898	0.211984
H128	H	-0.748183	-0.221542	0.142359
N129	N	-0.684247	0.688611	-0.000030
H130	H	-0.693097	0.741288	-0.000034
H131	H	-0.656780	0.672257	0.046378
H132	H	-0.733179	0.330027	0.079603
N133	N	-0.690803	0.241725	0.000011
H134	H	-0.699653	0.294401	0.000012
H135	H	-0.663337	0.225368	0.046418
H136	H	-0.906166	-0.006581	0.328449
H137	H	-0.731249	0.461450	0.079584
N138	N	-0.839561	0.039048	0.418141
H139	H	-0.845458	0.079140	0.455064
H140	H	-0.797376	0.042996	0.385459
H141	H	-0.906197	-0.006588	0.671581
H142	H	-0.734277	-0.178405	0.814539
