data_functionalizedCrystal
_audit_creation_method	'MofGen! by Chris Wilmer'
_symmetry_space_group_name_H-M	'P1'
_symmetry_Int_Tables_number	1
_symmetry_cell_setting	triclinic
loop_
_symmetry_equiv_pos_as_xyz
  x,y,z
_cell_length_a	12.594509
_cell_length_b	18.215407
_cell_length_c	18.215405
_cell_angle_alpha	90.025333
_cell_angle_beta	90.034644
_cell_angle_gamma	90.021159
loop_
_atom_site_label
_atom_site_type_symbol
_atom_site_fract_x
_atom_site_fract_y
_atom_site_fract_z
Zn1	Zn	-0.601808	-1.125082	0.292953
Zn2	Zn	-0.101808	-0.625082	0.792953
Zn3	Zn	-0.423809	-1.124987	0.416033
Zn4	Zn	0.076191	-0.624987	0.916033
Zn5	Zn	-0.423837	-1.002011	0.292986
Zn6	Zn	0.076163	-0.502011	0.792986
Zn7	Zn	-0.601740	-1.001980	0.415984
Zn8	Zn	-0.101740	-0.501980	0.915984
O9	O	-0.512799	-1.063515	0.354489
O10	O	-0.012799	-0.563515	0.854489
O11	O	-0.578213	-1.228053	0.309287
O12	O	-0.078213	-0.728053	0.809287
O13	O	-0.274867	-1.108648	0.399745
O14	O	0.225133	-0.608648	0.899745
O15	O	-0.447485	-1.018389	0.189998
O16	O	0.052515	-0.518389	0.689998
O17	O	-0.447438	-1.227984	0.399714
O18	O	0.052562	-0.727984	0.899714
O19	O	-0.578240	-1.108809	0.189973
O20	O	-0.078240	-0.608809	0.689973
O21	O	-0.274888	-1.018298	0.309343
O22	O	0.225112	-0.518298	0.809343
O23	O	-0.447420	-0.899023	0.309295
O24	O	0.052580	-0.399023	0.809295
O25	O	-0.750695	-1.018336	0.399629
O26	O	-0.250695	-0.518336	0.899629
O27	O	-0.578124	-0.899000	0.399661
O28	O	-0.078124	-0.399000	0.899661
O29	O	-0.750745	-1.108778	0.309239
O30	O	-0.250745	-0.608778	0.809239
O31	O	-0.447372	-1.108617	0.519011
O32	O	0.052628	-0.608617	1.019011
O33	O	-0.578097	-1.018245	0.518974
O34	O	-0.078097	-0.518245	1.018974
C35	C	-0.512768	-0.872309	0.354477
C36	C	-0.012768	-0.372309	0.854477
C37	C	-0.512780	-0.790510	0.354489
C38	C	-0.012780	-0.290510	0.854489
C39	C	-0.512747	-1.063437	0.545695
C40	C	-0.012747	-0.563437	1.045695
C41	C	-0.512761	-1.063471	0.627494
C42	C	-0.012761	-0.563471	1.127494
C43	C	-0.790420	-1.063564	0.354425
C44	C	-0.290420	-0.563564	0.854425
C45	C	-0.908725	-1.063585	0.354397
C46	C	-0.408725	-0.563585	0.854397
C47	C	-0.977951	-1.014409	0.403532
C48	C	-0.477951	-0.514409	0.903532
C49	C	-1.048738	-1.081558	0.421513
C50	C	-0.548738	-0.581558	0.921513
C51	C	-1.048737	-0.996489	0.336372
C52	C	-0.548737	-0.496489	0.836372
C53	C	-0.977954	-1.130769	0.372413
C54	C	-0.477954	-0.630769	0.872413
C55	C	-0.977947	-1.045655	0.287241
C56	C	-0.477947	-0.545655	0.787241
C57	C	-1.048702	-1.112850	0.305196
C58	C	-0.548702	-0.612850	0.805196
C59	C	-0.236258	-1.063508	0.354500
C60	C	0.263742	-0.563508	0.854500
C61	C	-0.117953	-1.063630	0.354320
C62	C	0.382047	-0.563630	0.854320
C63	C	-0.512830	-1.255468	0.354502
C64	C	-0.012830	-0.755468	0.854502
C65	C	-0.512843	-1.337267	0.354508
C66	C	-0.012843	-0.837267	0.854508
C67	C	-0.580753	-0.602323	0.401616
C68	C	-0.080753	-0.102323	0.901616
C69	C	-0.580766	-0.525464	0.401619
C70	C	-0.080766	-0.025464	0.901619
C71	C	-0.444868	-0.525459	0.307375
C72	C	0.055132	-0.025459	0.807375
C73	C	-0.444861	-0.602316	0.307370
C74	C	0.055139	-0.102316	0.807370
C75	C	-0.512802	-0.640746	0.354494
C76	C	-0.012802	-0.140746	0.854494
C77	C	-0.512822	-0.487030	0.354502
C78	C	-0.012822	0.012970	0.854502
C79	C	-0.512836	-0.403697	0.354504
C80	C	-0.012836	0.096303	0.854504
C81	C	-0.512789	-0.724085	0.354492
C82	C	-0.012789	-0.224085	0.854492
C83	C	-0.512873	-1.063613	0.162536
C84	C	-0.012873	-0.563613	0.662536
C85	C	-0.512905	-1.063655	0.080737
C86	C	-0.012905	-0.563655	0.580737
C87	C	-0.444818	-1.110639	0.815683
C88	C	0.055182	-0.610639	1.315683
C89	C	-0.444844	-1.110672	0.892541
C90	C	0.055156	-0.610672	1.392541
C91	C	-0.580856	-1.016485	0.892543
C92	C	-0.080856	-0.516485	1.392543
C93	C	-0.580835	-1.016457	0.815686
C94	C	-0.080835	-0.516457	1.315686
C95	C	-0.512810	-1.063532	0.777258
C96	C	-0.012810	-0.563532	1.277258
C97	C	-0.512857	-1.063594	0.930974
C98	C	-0.012857	-0.563594	1.430974
C99	C	-0.512885	-1.063629	1.014307
C100	C	-0.012885	-0.563629	1.514307
C101	C	-0.512782	-1.063498	0.693919
C102	C	-0.012782	-0.563498	1.193919
H103	H	-0.946887	-0.972855	0.445149
H104	H	-0.446887	-0.472855	0.945149
C105	C	-0.654367	-0.483654	0.452824
C106	C	-0.154367	0.016346	0.952824
C107	C	-0.593986	-0.439477	0.499933
C108	C	-0.093986	0.060523	0.999933
C109	C	-0.661757	-0.400944	0.547108
C110	C	-0.161757	0.099056	1.047108
H111	H	-0.694851	-0.517467	0.480957
H112	H	-0.194851	-0.017467	0.980957
H113	H	-0.700806	-0.453656	0.424733
H114	H	-0.200806	0.046344	0.924733
H115	H	-0.547567	-0.469472	0.528022
H116	H	-0.047567	0.030528	1.028022
H117	H	-0.553505	-0.405650	0.471821
H118	H	-0.053505	0.094350	0.971821
H119	H	-0.708195	-0.370946	0.519016
H120	H	-0.208195	0.129054	1.019016
H121	H	-0.702237	-0.434762	0.575236
H122	H	-0.202237	0.065238	1.075236
H123	H	-0.620799	-0.370960	0.579072
H124	H	-0.120799	0.129040	1.079072
H125	H	-0.389429	-1.148972	0.784396
H126	H	0.110571	-0.648972	1.284396
H127	H	-1.079571	-1.154504	0.263611
H128	H	-0.579571	-0.654504	0.763611
H129	H	-0.636207	-0.978097	0.784398
H130	H	-0.136207	-0.478097	1.284398
C131	C	-0.370904	-1.161843	0.934127
C132	C	0.129096	-0.661843	1.434127
C133	C	-0.311312	-1.203048	0.884020
C134	C	0.188688	-0.703048	1.384020
C135	C	-0.243176	-1.250190	0.922302
C136	C	0.256824	-0.750190	1.422302
H137	H	-0.411552	-1.193971	0.964062
H138	H	0.088448	-0.693971	1.464062
H139	H	-0.324441	-1.133737	0.964144
H140	H	0.175559	-0.633737	1.464144
H141	H	-0.357769	-1.231151	0.854017
H142	H	0.142231	-0.731151	1.354017
H143	H	-0.270642	-1.170940	0.854084
H144	H	0.229358	-0.670940	1.354084
H145	H	-0.196713	-1.222085	0.952318
H146	H	0.303287	-0.722085	1.452318
H147	H	-0.283833	-1.282313	0.952235
H148	H	0.216167	-0.782313	1.452235
H149	H	-0.202728	-1.278148	0.888310
H150	H	0.297272	-0.778148	1.388310
C151	C	-1.090132	-0.920831	0.315931
C152	C	-0.590132	-0.420831	0.815931
C153	C	-1.052748	-0.901726	0.246130
C154	C	-0.552748	-0.401726	0.746130
C155	C	-1.090867	-0.832038	0.227279
C156	C	-0.590867	-0.332038	0.727279
H157	H	-1.065931	-0.885863	0.350843
H158	H	-0.565931	-0.385863	0.850843
H159	H	-1.165559	-0.921490	0.315566
H160	H	-0.665559	-0.421490	0.815566
H161	H	-0.977337	-0.901061	0.246500
H162	H	-0.477337	-0.401061	0.746500
H163	H	-1.076946	-0.936674	0.211202
H164	H	-0.576946	-0.436674	0.711202
H165	H	-1.166294	-0.832698	0.226914
H166	H	-0.666294	-0.332698	0.726914
H167	H	-1.066663	-0.797077	0.262196
H168	H	-0.566663	-0.297077	0.762196
H169	H	-1.065516	-0.819069	0.179915
H170	H	-0.565516	-0.319069	0.679915
C171	C	-0.371145	-0.483600	0.256295
C172	C	0.128855	0.016400	0.756295
C173	C	-0.385673	-0.408067	0.266398
C174	C	0.114327	0.091933	0.766398
C175	C	-0.317767	-0.369486	0.219361
C176	C	0.182233	0.130514	0.719361
H177	H	-0.386785	-0.496131	0.206831
H178	H	0.113215	0.003869	0.706831
H179	H	-0.299577	-0.496127	0.267011
H180	H	0.200423	0.003873	0.767011
H181	H	-0.457225	-0.395545	0.255677
H182	H	0.042775	0.104455	0.755677
H183	H	-0.370026	-0.395515	0.315852
H184	H	0.129974	0.104485	0.815852
H185	H	-0.246199	-0.382013	0.230077
H186	H	0.253801	0.117987	0.730077
H187	H	-0.333413	-0.382023	0.169900
H188	H	0.166587	0.117977	0.669900
H189	H	-0.327608	-0.318233	0.226214
H190	H	0.172392	0.181767	0.726214
H191	H	-0.636077	-0.633611	0.439986
H192	H	-0.136077	-0.133611	0.939986
C193	C	-1.090153	-1.101671	0.497246
C194	C	-0.590153	-0.601671	0.997246
C195	C	-1.054335	-1.049981	0.548508
C196	C	-0.554335	-0.549981	1.048508
C197	C	-1.092471	-1.068474	0.618279
C198	C	-0.592471	-0.568474	1.118279
H199	H	-1.064900	-1.148989	0.510462
H200	H	-0.564900	-0.648989	1.010462
H201	H	-1.165580	-1.101948	0.496587
H202	H	-0.665580	-0.601948	0.996587
H203	H	-0.978923	-1.049711	0.549169
H204	H	-0.478923	-0.549711	1.049169
H205	H	-1.079584	-1.002659	0.535316
H206	H	-0.579584	-0.502659	1.035316
H207	H	-1.167899	-1.068752	0.617621
H208	H	-0.667899	-0.568752	1.117621
H209	H	-1.067216	-1.115793	0.631488
H210	H	-0.567216	-0.615793	1.131488
H211	H	-1.068183	-1.033402	0.653068
H212	H	-0.568183	-0.533402	1.153068
H213	H	-0.946827	-1.030446	0.230498
H214	H	-0.446827	-0.530446	0.730498
C215	C	-0.936473	-1.206415	0.392816
C216	C	-0.436473	-0.706415	0.892816
C217	C	-0.825311	-1.205495	0.392668
C218	C	-0.325311	-0.705495	0.892668
C219	C	-0.787060	-1.275161	0.411472
C220	C	-0.287060	-0.775161	0.911472
H221	H	-0.961149	-1.241454	0.358135
H222	H	-0.461149	-0.741454	0.858135
H223	H	-0.961242	-1.219252	0.440365
H224	H	-0.461242	-0.719252	0.940365
H225	H	-0.800552	-1.192667	0.345126
H226	H	-0.300552	-0.692667	0.845126
H227	H	-0.800606	-1.170471	0.427349
H228	H	-0.300606	-0.670471	0.927349
H229	H	-0.811829	-1.287998	0.459020
H230	H	-0.311829	-0.787998	0.959020
H231	H	-0.811743	-1.310194	0.376788
H232	H	-0.311743	-0.810194	0.876788
H233	H	-0.711634	-1.274544	0.411380
H234	H	-0.211634	-0.774544	0.911380
C235	C	-0.370963	-0.643906	0.256178
C236	C	0.129037	-0.143906	0.756178
C237	C	-0.311438	-0.593802	0.214928
C238	C	0.188562	-0.093802	0.714928
C239	C	-0.243350	-0.632088	0.167771
C240	C	0.256650	-0.132088	0.667771
H241	H	-0.411642	-0.673915	0.224080
H242	H	0.088358	-0.173915	0.724080
H243	H	-0.324456	-0.673848	0.284275
H244	H	0.175544	-0.173848	0.784275
H245	H	-0.357939	-0.563872	0.186833
H246	H	0.142061	-0.063872	0.686833
H247	H	-0.270737	-0.563792	0.247007
H248	H	0.229263	-0.063792	0.747007
H249	H	-0.196843	-0.662030	0.195868
H250	H	0.303157	-0.162030	0.695868
H251	H	-0.284038	-0.662095	0.135677
H252	H	0.215962	-0.162095	0.635677
H253	H	-0.202947	-0.598098	0.139782
H254	H	0.297053	-0.098098	0.639782
C255	C	-0.654583	-0.965398	0.934400
C256	C	-0.154583	-0.465398	1.434400
C257	C	-0.640029	-0.975489	1.009933
C258	C	-0.140029	-0.475489	1.509933
C259	C	-0.707917	-0.928431	1.048513
C260	C	-0.207917	-0.428431	1.548513
H261	H	-0.726154	-0.976086	0.921847
H262	H	-0.226154	-0.476086	1.421847
H263	H	-0.638920	-0.915938	0.921894
H264	H	-0.138920	-0.415938	1.421894
H265	H	-0.655699	-1.024938	1.022435
H266	H	-0.155699	-0.524938	1.522435
H267	H	-0.568472	-0.964796	1.022509
H268	H	-0.068472	-0.464796	1.522509
H269	H	-0.692254	-0.878970	1.036006
H270	H	-0.192254	-0.378970	1.536006
H271	H	-0.779483	-0.939122	1.035953
H272	H	-0.279483	-0.439122	1.535953
H273	H	-0.698044	-0.935266	1.099766
H274	H	-0.198044	-0.435266	1.599766
