data_functionalizedCrystal
_audit_creation_method	'MofGen! by Chris Wilmer'
_symmetry_space_group_name_H-M	'P1'
_symmetry_Int_Tables_number	1
_symmetry_cell_setting	triclinic
loop_
_symmetry_equiv_pos_as_xyz
  x,y,z
_cell_length_a	27.731993
_cell_length_b	27.732048
_cell_length_c	14.472310
_cell_angle_alpha	89.993924
_cell_angle_beta	89.998550
_cell_angle_gamma	82.631525
loop_
_atom_site_label
_atom_site_type_symbol
_atom_site_fract_x
_atom_site_fract_y
_atom_site_fract_z
O1	O	0.640951	0.057388	-0.076602
O2	O	0.500154	0.066161	-0.076660
O3	O	0.574925	-0.008623	-0.076612
O4	O	0.566179	0.132172	-0.076650
O5	O	0.574906	-0.008619	0.077070
O6	O	0.500134	0.066166	0.077022
O7	O	0.640932	0.057393	0.077080
Cu8	Cu	0.570531	0.061779	0.091083
Cu9	Cu	0.570554	0.061774	-0.090663
O10	O	0.566160	0.132177	0.077032
C11	C	0.482137	0.065983	0.000174
C12	C	0.428480	0.065441	0.000153
C13	C	0.045331	0.061508	-0.083574
C14	C	0.246988	0.063575	-0.083599
O15	O	0.273070	0.063821	-0.154846
N16	N	0.272198	0.063836	0.000171
C17	C	0.246991	0.063577	0.083953
O18	O	0.273061	0.063842	0.155204
C19	C	0.045335	0.061507	0.083978
C20	C	0.020127	0.061251	0.000202
C21	C	0.020123	0.061251	-0.167342
C22	C	-0.030289	0.060737	-0.167335
C23	C	-0.055493	0.060480	-0.083559
C24	C	-0.030285	0.060736	0.000210
C25	C	0.020129	0.061244	0.167760
C26	C	-0.030288	0.060725	0.167758
C27	C	-0.055496	0.060469	0.083983
C28	C	-0.105900	0.059965	0.083993
N29	N	-0.131110	0.059704	0.000223
C30	C	-0.105906	0.059961	-0.083553
C31	C	0.352863	0.064665	0.083935
C32	C	0.403276	0.065184	0.083929
C33	C	0.403270	0.065181	-0.083624
C34	C	0.352855	0.064666	-0.083617
C35	C	0.327653	0.064404	0.000164
C36	C	-0.211775	0.058882	-0.083532
C37	C	-0.262191	0.058370	-0.083517
C38	C	-0.262180	0.058371	0.084035
C39	C	-0.211769	0.058885	0.084021
C40	C	-0.186567	0.059139	0.000230
O41	O	-0.132013	0.059713	0.155202
O42	O	-0.131984	0.059686	-0.154794
C43	C	0.095742	0.062022	-0.083581
C44	C	0.120950	0.062279	0.000188
C45	C	0.095746	0.062021	0.083964
C46	C	0.171364	0.062797	0.000182
C47	C	0.196568	0.063055	-0.083594
C48	C	0.171358	0.062794	-0.167364
C49	C	0.120946	0.062279	-0.167357
C50	C	0.120956	0.062282	0.167734
C51	C	0.171368	0.062797	0.167720
C52	C	0.196572	0.063054	0.083944
C53	C	0.574732	-0.026628	0.000232
C54	C	0.574179	-0.080282	0.000239
C55	C	0.614884	-0.419105	0.000208
C56	C	0.612833	-0.620765	0.000195
O57	O	0.650055	-0.652028	0.000170
N58	N	0.568497	-0.639880	0.000177
C59	C	0.524670	-0.608576	0.000157
O60	O	0.486912	-0.629462	0.000133
C61	C	0.526721	-0.406918	0.000164
C62	C	0.571061	-0.387806	0.000191
C63	C	0.659220	-0.399993	0.000234
C64	C	0.659732	-0.349581	0.000243
C65	C	0.615909	-0.318282	0.000225
C66	C	0.571573	-0.337394	0.000200
C67	C	0.482895	-0.375616	0.000138
C68	C	0.483412	-0.325199	0.000137
C69	C	0.527751	-0.306087	0.000164
C70	C	0.528262	-0.255683	0.000191
N71	N	0.572598	-0.236568	0.000208
C72	C	0.616422	-0.267867	0.000225
C73	C	0.523596	-0.714450	0.000155
C74	C	0.523083	-0.764865	0.000155
C75	C	0.611246	-0.777049	0.000191
C76	C	0.611759	-0.726634	0.000198
C77	C	0.567932	-0.695335	0.000173
C78	C	0.617494	-0.161998	0.000244
C79	C	0.618003	-0.111582	0.000256
C80	C	0.529839	-0.099401	0.000216
C81	C	0.529331	-0.149814	0.000208
C82	C	0.573162	-0.181112	0.000219
O83	O	0.491060	-0.224392	0.000206
O84	O	0.654174	-0.246972	0.000230
C85	C	0.614372	-0.469517	0.000200
C86	C	0.570036	-0.488630	0.000174
C87	C	0.526213	-0.457331	0.000157
C88	C	0.569523	-0.539044	0.000174
C89	C	0.613346	-0.570343	0.000191
C90	C	0.657683	-0.551228	0.000209
C91	C	0.658195	-0.500817	0.000217
C92	C	0.481876	-0.476446	0.000140
C93	C	0.481368	-0.526858	0.000132
C94	C	0.525191	-0.558157	0.000150
C95	C	0.658949	0.057570	0.000244
C96	C	0.712605	0.058113	0.000259
C97	C	0.566353	0.150181	0.000186
C98	C	0.566906	0.203836	0.000173
N99	N	0.570519	0.061783	0.218914
N100	N	0.570570	0.061767	-0.218494
C101	C	0.570553	0.061772	0.593005
C102	C	0.530412	0.101656	0.553814
C103	C	0.530503	0.101799	0.446726
C104	C	0.570536	0.061778	0.407414
C105	C	0.620892	0.072407	0.446269
C106	C	0.620666	0.072690	0.553390
C107	C	0.560789	0.011139	0.553544
C108	C	0.559630	0.011486	0.446416
C109	C	0.570529	0.061780	0.302526
C110	C	0.570563	0.061771	0.697894
H111	H	0.332334	0.064457	-0.151835
H112	H	0.590066	-0.018537	0.578889
Cl113	Cl	-0.293875	0.058048	0.189348
Cl114	Cl	0.668089	0.028726	0.406960
H115	H	0.524887	0.000821	0.580600
Cl116	Cl	0.714320	-0.439332	0.000257
Cl117	Cl	0.051798	0.061575	-0.272676
Cl118	Cl	0.203051	0.063122	0.273049
H119	H	-0.050806	0.060517	0.235985
H120	H	-0.191245	0.059103	0.152238
Cl121	Cl	0.666338	-0.816406	0.000208
Cl122	Cl	0.667501	-0.702613	0.000230
H123	H	-0.050809	0.060526	-0.235554
H124	H	0.493060	0.095523	0.420456
H125	H	0.492847	0.095488	0.579588
Cl126	Cl	0.540050	0.159829	0.407131
Cl127	Cl	0.426778	-0.437105	0.000116
Cl128	Cl	0.467340	-0.788885	0.000140
H129	H	0.423800	0.065392	-0.151838
Cl130	Cl	0.427151	-0.399630	0.000098
H131	H	0.536521	0.139027	0.580716
Cl132	Cl	0.051807	0.061566	0.273085
H133	H	0.445259	-0.542414	0.000119
H134	H	0.100426	0.062071	-0.235576
Cl135	Cl	0.713939	-0.476798	0.000243
Cl136	Cl	0.634039	0.129684	0.591946
H137	H	0.629771	0.108899	0.419426
Cl138	Cl	0.502441	-0.000985	0.407209
Cl139	Cl	0.668095	0.029469	0.593422
H140	H	-0.282713	0.058163	-0.151740
Cl141	Cl	-0.180100	0.059203	-0.188870
H142	H	0.423795	0.065400	0.152147
Cl143	Cl	0.321186	0.064344	0.189272
Cl144	Cl	0.428312	-0.285854	0.000105
H145	H	0.191887	0.063006	-0.235578
Cl146	Cl	0.089278	0.061964	0.273064
Cl147	Cl	0.468494	-0.675110	0.000125
Cl148	Cl	0.601887	-0.036439	0.405122
H149	H	0.654110	-0.096024	0.000280
Cl150	Cl	0.715476	-0.325562	0.000250
Cl151	Cl	0.672597	-0.201337	0.000259
H152	H	0.494160	-0.073909	0.000205
Cl153	Cl	0.473589	-0.173841	0.000192
Cl154	Cl	0.712774	-0.590586	0.000234
