data_functionalizedCrystal
_audit_creation_method	'MofGen! by Chris Wilmer'
_symmetry_space_group_name_H-M	'P1'
_symmetry_Int_Tables_number	1
_symmetry_cell_setting	triclinic
loop_
_symmetry_equiv_pos_as_xyz
  x,y,z
_cell_length_a	12.759395
_cell_length_b	17.077402
_cell_length_c	17.077396
_cell_angle_alpha	90.029784
_cell_angle_beta	89.983868
_cell_angle_gamma	89.977272
loop_
_atom_site_label
_atom_site_type_symbol
_atom_site_fract_x
_atom_site_fract_y
_atom_site_fract_z
Zn1	Zn	1.606175	0.312511	-0.443765
Zn2	Zn	2.106175	0.812511	0.056235
Zn3	Zn	1.606050	0.443786	-0.312496
Zn4	Zn	2.106050	0.943786	0.187504
Zn5	Zn	1.430483	0.312538	-0.312521
Zn6	Zn	1.930483	0.812538	0.187479
Zn7	Zn	1.430440	0.443739	-0.443727
Zn8	Zn	1.930440	0.943739	0.056273
O9	O	1.518287	0.378144	-0.378127
O10	O	2.018287	0.878144	0.121873
O11	O	1.753179	0.329934	-0.426357
O12	O	2.253179	0.829934	0.073643
O13	O	1.582727	0.426407	-0.202652
O14	O	2.082727	0.926407	0.297348
O15	O	1.453859	0.202688	-0.329957
O16	O	1.953859	0.702688	0.170043
O17	O	1.753088	0.426381	-0.329915
O18	O	2.253088	0.926381	0.170085
O19	O	1.582939	0.202668	-0.426381
O20	O	2.082939	0.702668	0.073619
O21	O	1.453738	0.329979	-0.202670
O22	O	1.953738	0.829979	0.297330
O23	O	1.283456	0.329933	-0.329920
O24	O	1.783456	0.829933	0.170080
O25	O	1.453786	0.426300	-0.553579
O26	O	1.953786	0.926300	-0.053579
O27	O	1.283425	0.426326	-0.426317
O28	O	1.783425	0.926326	0.073683
O29	O	1.582897	0.329888	-0.553607
O30	O	2.082897	0.829888	-0.053607
O31	O	1.582685	0.553627	-0.329878
O32	O	2.082685	1.053627	0.170122
O33	O	1.453665	0.553592	-0.426293
O34	O	1.953665	1.053592	0.073707
C35	C	1.245320	0.378128	-0.378118
C36	C	1.745320	0.878128	0.121882
C37	C	1.128543	0.378140	-0.378132
C38	C	1.628543	0.878140	0.121868
C39	C	1.128619	0.277872	-0.478720
C40	C	1.628619	0.777872	0.021280
C41	C	1.073796	0.227748	-0.529021
C42	C	1.573796	0.727748	-0.029021
C43	C	0.964074	0.227762	-0.529030
C44	C	1.464074	0.727762	-0.029030
C45	C	0.909173	0.277904	-0.478733
C46	C	1.409173	0.777904	0.021267
C47	C	0.963996	0.328028	-0.428432
C48	C	1.463996	0.828028	0.071568
C49	C	1.073720	0.328011	-0.428430
C50	C	1.573720	0.828011	0.071570
C51	C	0.963920	0.428291	-0.327841
C52	C	1.463920	0.928291	0.172159
C53	C	1.073642	0.428282	-0.327834
C54	C	1.573642	0.928282	0.172166
C55	C	0.909019	0.478433	-0.277544
C56	C	1.409019	0.978433	0.222456
C57	C	0.963842	0.528563	-0.227246
C58	C	1.463842	1.028563	0.272754
C59	C	1.073570	0.528548	-0.227239
C60	C	1.573570	1.028548	0.272761
C61	C	1.128465	0.478407	-0.277534
C62	C	1.628465	0.978407	0.222466
C63	C	1.518186	0.582092	-0.378096
C64	C	2.018186	1.082092	0.121904
C65	C	1.518238	0.669341	-0.378109
C66	C	2.018238	1.169341	0.121891
C67	C	1.518351	0.378086	-0.582872
C68	C	2.018351	0.878086	-0.082872
C69	C	1.518378	0.378061	-0.670121
C70	C	2.018378	0.878061	-0.170121
C71	C	1.792320	0.378160	-0.378137
C72	C	2.292320	0.878160	0.121863
C73	C	1.909097	0.378167	-0.378142
C74	C	2.409097	0.878167	0.121858
C75	C	1.518417	0.173399	-0.378176
C76	C	2.018417	0.673399	0.121824
C77	C	1.518473	0.086150	-0.378197
C78	C	2.018473	0.586150	0.121803
C79	C	1.585488	0.710324	-0.327959
C80	C	2.085488	1.210324	0.172041
C81	C	1.585539	0.792304	-0.327979
C82	C	2.085539	1.292304	0.172021
C83	C	1.518335	0.833301	-0.378145
C84	C	2.018335	1.333301	0.121855
C85	C	1.451083	0.792313	-0.428300
C86	C	1.951083	1.292313	0.071700
C87	C	1.451037	0.710334	-0.428284
C88	C	1.951037	1.210334	0.071716
C89	C	1.451180	0.963183	-0.428330
C90	C	1.951180	1.463183	0.071670
C91	C	1.451224	1.045167	-0.428346
C92	C	1.951224	1.545167	0.071654
C93	C	1.585682	1.045153	-0.328026
C94	C	2.085682	1.545153	0.171974
C95	C	1.585636	0.963174	-0.328009
C96	C	2.085636	1.463174	0.171991
C97	C	1.518382	0.922192	-0.378163
C98	C	2.018382	1.422192	0.121837
C99	C	1.585608	0.327855	-0.711127
C100	C	2.085608	0.827855	-0.211127
C101	C	1.585621	0.327829	-0.793108
C102	C	2.085621	0.827829	-0.293108
C103	C	1.518408	0.378013	-0.834081
C104	C	2.018408	0.878013	-0.334081
C105	C	1.451169	0.428222	-0.793069
C106	C	1.951169	0.928222	-0.293069
C107	C	1.451152	0.428243	-0.711090
C108	C	1.951152	0.928243	-0.211090
C109	C	1.451212	0.428174	-0.963940
C110	C	1.951212	0.928174	-0.463940
C111	C	1.451230	0.428154	-1.045924
C112	C	1.951230	0.928154	-0.545924
C113	C	1.585681	0.327760	-1.045957
C114	C	2.085681	0.827760	-0.545957
C115	C	1.585663	0.327782	-0.963978
C116	C	2.085663	0.827782	-0.463978
C117	C	1.518426	0.377991	-0.922972
C118	C	2.018426	0.877991	-0.422972
C119	C	1.518284	0.378145	-0.174179
C120	C	2.018284	0.878145	0.325821
C121	C	1.518461	0.377948	-0.086930
C122	C	2.018461	0.877948	0.413070
H123	H	0.919132	0.569381	-0.186295
H124	H	1.419132	1.069381	0.313705
H125	H	1.640345	0.286992	-0.677773
H126	H	2.140345	0.786992	-0.177773
O127	O	1.658126	0.918957	-0.273904
O128	O	2.158126	1.418957	0.226096
H129	H	1.611114	0.881668	-0.233926
H130	H	2.111114	1.381668	0.266074
H131	H	1.396496	0.469017	-1.079282
H132	H	1.896496	0.969017	-0.579282
O133	O	1.658165	0.273662	-0.919782
O134	O	2.158165	0.773662	-0.419782
H135	H	1.640190	0.212046	-0.935520
H136	H	2.140190	0.712046	-0.435520
O137	O	1.658194	0.273596	-1.090177
O138	O	2.158194	0.773596	-0.590177
H139	H	1.646906	0.282001	-1.154066
H140	H	2.146906	0.782001	-0.654066
H141	H	1.640370	0.286948	-0.826491
H142	H	2.140370	0.786948	-0.326491
H143	H	1.640208	0.676949	-0.287105
H144	H	2.140208	1.176949	0.212895
O145	O	1.378664	0.482344	-0.837258
O146	O	1.878664	0.982344	-0.337258
H147	H	1.425664	0.522281	-0.874598
H148	H	1.925664	1.022281	-0.374598
H149	H	1.396395	0.469118	-0.677704
H150	H	1.896395	0.969118	-0.177704
O151	O	1.378687	0.482322	-0.919707
O152	O	1.878687	0.982322	-0.419707
H153	H	1.331956	0.517219	-0.961969
H154	H	1.831956	1.017219	-0.461969
O155	O	1.658233	1.089348	-0.273936
O156	O	2.158233	1.589348	0.226064
H157	H	1.646989	1.153240	-0.282381
H158	H	2.146989	1.653240	0.217619
H159	H	1.217960	0.277852	-0.478714
H160	H	1.717960	0.777852	0.021286
H161	H	1.118200	0.569363	-0.186276
H162	H	1.618200	1.069363	0.313724
H163	H	1.640300	0.825668	-0.287142
H164	H	2.140300	1.325668	0.212858
H165	H	1.396520	1.078545	-0.469210
H166	H	1.896520	1.578545	0.030790
H167	H	1.118508	0.186922	-0.569970
H168	H	1.618508	0.686922	-0.069970
H169	H	1.396418	0.929818	-0.469174
H170	H	1.896418	1.429818	0.030826
H171	H	1.217806	0.478386	-0.277529
H172	H	1.717806	0.978386	0.222471
O173	O	0.790676	0.478444	-0.277551
O174	O	1.290676	0.978444	0.222449
H175	H	0.761713	0.521725	-0.234122
H176	H	1.261713	1.021725	0.265878
H177	H	0.919438	0.186941	-0.569985
H178	H	1.419438	0.686941	-0.069985
H179	H	1.396369	0.825699	-0.469150
H180	H	1.896369	1.325699	0.030850
O181	O	0.790830	0.277915	-0.478733
O182	O	1.290830	0.777915	0.021267
H183	H	0.761932	0.234637	-0.522159
H184	H	1.261932	0.734637	-0.022159
H185	H	1.396278	0.676967	-0.469122
H186	H	1.896278	1.176967	0.030878
