data_functionalizedCrystal
_audit_creation_method	'MofGen! by Chris Wilmer'
_symmetry_space_group_name_H-M	'P1'
_symmetry_Int_Tables_number	1
_symmetry_cell_setting	triclinic
loop_
_symmetry_equiv_pos_as_xyz
  x,y,z
_cell_length_a	14.853567
_cell_length_b	10.268362
_cell_length_c	14.853559
_cell_angle_alpha	89.997859
_cell_angle_beta	83.633192
_cell_angle_gamma	90.007610
loop_
_atom_site_label
_atom_site_type_symbol
_atom_site_fract_x
_atom_site_fract_y
_atom_site_fract_z
O1	O	1.196349	-0.108204	0.117705
O2	O	0.933889	-0.108226	0.131727
O3	O	1.072134	-0.108213	-0.006514
O4	O	1.058104	-0.108217	0.255946
O5	O	1.072146	0.108388	-0.006520
O6	O	0.933901	0.108375	0.131721
O7	O	1.196361	0.108397	0.117700
Cu8	Cu	1.065132	0.128163	0.124710
Cu9	Cu	1.065118	-0.127992	0.124717
O10	O	1.058117	0.108384	0.255941
C11	C	0.900307	0.000072	0.131089
C12	C	0.800223	0.000064	0.129185
C13	C	0.387692	0.000094	0.039019
C14	C	0.366406	0.000090	0.203252
C15	C	0.460440	0.000086	0.205042
C16	C	0.518104	0.000084	0.123819
C17	C	0.481735	0.000086	0.040806
C18	C	0.496816	0.000071	0.288054
C19	C	0.590855	0.000065	0.289847
C20	C	0.648521	0.000072	0.208623
C21	C	0.612147	0.000076	0.125607
C22	C	0.669811	0.000074	0.044384
C23	C	0.633438	0.000086	-0.038633
C24	C	0.539401	0.000093	-0.040418
C25	C	0.742559	0.000066	0.210408
C26	C	0.763854	0.000066	0.046172
N27	N	1.065109	-0.308158	0.124715
C28	C	1.065115	-0.426000	0.124715
C29	C	1.065131	-0.573838	0.124712
C30	C	1.229944	0.000096	0.118338
C31	C	1.330028	0.000096	0.120242
C32	C	1.071506	0.000085	-0.040106
C33	C	1.069605	0.000078	-0.140190
N34	N	1.065149	0.308329	0.124704
C35	C	1.061534	-0.117992	-0.563362
C36	C	1.061548	0.118154	-0.563363
C37	C	1.063341	0.118155	-0.469330
C38	C	1.064230	0.000081	-0.422308
C39	C	1.063325	-0.117995	-0.469319
C40	C	1.064236	0.236229	-0.422310
C41	C	1.066029	0.236235	-0.328271
C42	C	1.066924	0.118159	-0.281248
C43	C	1.066021	0.000079	-0.328266
C44	C	1.066910	-0.117996	-0.281244
C45	C	1.066012	-0.236078	-0.328261
C46	C	1.064221	-0.236070	-0.422297
C47	C	1.068716	0.118152	-0.187212
C48	C	1.068700	-0.117998	-0.187202
C49	C	1.058745	0.000083	0.289532
C50	C	1.060646	0.000082	0.389616
H51	H	0.358073	0.000109	-0.028572
H52	H	0.509777	0.000134	-0.108006
H53	H	0.680401	0.000076	-0.104765
H54	H	1.066729	-0.332214	-0.289962
H55	H	0.319450	0.000081	0.269380
C56	C	0.434061	0.000143	0.376136
C57	C	0.343923	0.000198	0.356800
C58	C	0.286084	0.000288	0.437921
H59	H	0.444963	-0.075372	0.410239
H60	H	0.445059	0.075705	0.410173
H61	H	0.332930	-0.075356	0.322777
H62	H	0.332992	0.075708	0.322709
H63	H	0.297082	0.075849	0.471958
H64	H	0.296994	-0.075229	0.472018
H65	H	0.224919	0.000337	0.424813
C66	C	1.063189	-0.364128	-0.473499
C67	C	1.061401	-0.338850	-0.565912
C68	C	1.060434	-0.456781	-0.613108
H69	H	1.115994	-0.412740	-0.465011
H70	H	1.010925	-0.412655	-0.451323
H71	H	1.113659	-0.290343	-0.588082
H72	H	1.008599	-0.290256	-0.574428
H73	H	1.008170	-0.505308	-0.590932
H74	H	1.113240	-0.505385	-0.604613
H75	H	1.059212	-0.439646	-0.675814
C76	C	1.060447	0.246243	-0.614515
C77	C	0.981932	0.253130	-0.658474
C78	C	0.980899	0.371102	-0.705620
H79	H	1.061198	0.316678	-0.573149
H80	H	1.112254	0.251150	-0.658058
H81	H	0.930139	0.248236	-0.614935
H82	H	0.981165	0.182723	-0.699854
H83	H	1.032706	0.376009	-0.749163
H84	H	0.981653	0.441527	-0.664248
H85	H	0.927632	0.375785	-0.735458
C86	C	1.066827	0.364394	-0.277160
C87	C	0.990348	0.371311	-0.213135
C88	C	0.991051	0.489359	-0.166044
H89	H	1.120001	0.369432	-0.247211
H90	H	1.065993	0.434749	-0.318601
H91	H	0.991191	0.300975	-0.171700
H92	H	0.937163	0.366296	-0.243060
H93	H	0.990217	0.559714	-0.207485
H94	H	1.044228	0.494386	-0.136100
H95	H	0.939157	0.494073	-0.122604
H96	H	0.810799	0.000069	-0.019971
C97	C	1.069499	0.246294	-0.136086
C98	C	0.993014	0.253175	-0.072065
C99	C	0.993698	0.371212	-0.024957
H100	H	1.122669	0.251337	-0.106131
H101	H	1.068658	0.316659	-0.177517
H102	H	0.993863	0.182829	-0.030640
H103	H	0.939832	0.248155	-0.101996
H104	H	0.992857	0.441577	-0.066389
H105	H	1.046871	0.376244	0.004991
H106	H	0.941800	0.375902	0.018480
C107	C	0.630167	0.000131	0.380068
C108	C	0.559539	0.000166	0.450814
C109	C	0.595719	0.000249	0.533937
H110	H	0.666389	-0.075380	0.384313
H111	H	0.666389	0.075696	0.384224
H112	H	0.523332	-0.075392	0.446660
H113	H	0.523311	0.075672	0.446599
H114	H	0.631941	0.075815	0.538093
H115	H	0.631941	-0.075263	0.538173
H116	H	0.547804	0.000285	0.581949
H117	H	0.772169	0.000058	0.277999
H118	H	1.063508	0.332359	-0.460601
H119	H	1.069428	-0.214150	-0.148924
H120	H	1.060808	-0.214132	-0.601647
