data_functionalizedCrystal
_audit_creation_method	'MofGen! by Chris Wilmer'
_symmetry_space_group_name_H-M	'P1'
_symmetry_Int_Tables_number	1
_symmetry_cell_setting	triclinic
loop_
_symmetry_equiv_pos_as_xyz
  x,y,z
_cell_length_a	14.853567
_cell_length_b	16.109301
_cell_length_c	15.186229
_cell_angle_alpha	90.000638
_cell_angle_beta	90.000050
_cell_angle_gamma	96.451795
loop_
_atom_site_label
_atom_site_type_symbol
_atom_site_fract_x
_atom_site_fract_y
_atom_site_fract_z
O1	O	0.115881	-1.103293	-0.073165
O2	O	0.615881	-0.603293	0.426835
O3	O	0.130302	-0.861252	-0.073178
O4	O	0.630302	-0.361252	0.426822
O5	O	-0.008149	-0.988738	-0.073174
O6	O	0.491851	-0.488738	0.426826
O7	O	0.254332	-0.975807	-0.073170
O8	O	0.754332	-0.475807	0.426830
O9	O	-0.008151	-0.988729	0.073283
O10	O	0.491849	-0.488729	0.573283
O11	O	0.130300	-0.861243	0.073279
O12	O	0.630300	-0.361243	0.573279
O13	O	0.115879	-1.103285	0.073292
O14	O	0.615879	-0.603285	0.573292
Zn15	Zn	0.123089	-0.982263	0.096539
Zn16	Zn	0.623089	-0.482263	0.596539
Zn17	Zn	0.123092	-0.982274	-0.096425
Zn18	Zn	0.623092	-0.482274	0.403575
O19	O	0.254330	-0.975799	0.073288
O20	O	0.754330	-0.475799	0.573288
C21	C	-0.041738	-0.988148	0.000052
C22	C	0.458262	-0.488148	0.500052
C23	C	-0.141819	-0.986392	0.000044
C24	C	0.358181	-0.486392	0.500044
C25	C	0.129717	-0.830272	0.000048
C26	C	0.629717	-0.330272	0.500048
C27	C	0.127965	-0.737974	0.000043
C28	C	0.627965	-0.237974	0.500043
N29	N	0.123087	-0.982261	0.228231
N30	N	0.623087	-0.482261	0.728231
C31	C	-0.554215	-0.903241	0.000056
C32	C	-0.054215	-0.403241	0.500056
C33	C	-0.575746	-1.054697	0.000064
C34	C	-0.075746	-0.554697	0.500064
C35	C	-0.481715	-1.056348	0.000059
C36	C	0.018285	-0.556348	0.500059
C37	C	-0.423930	-0.981444	0.000054
C38	C	0.076070	-0.481444	0.500054
C39	C	-0.460175	-0.904889	0.000054
C40	C	0.039825	-0.404889	0.500054
C41	C	-0.445463	-1.132901	0.000068
C42	C	0.054537	-0.632901	0.500068
C43	C	-0.351426	-1.134555	0.000064
C44	C	0.148574	-0.634555	0.500064
C45	C	-0.293639	-1.059650	0.000053
C46	C	0.206361	-0.559650	0.500053
C47	C	-0.329890	-0.983093	0.000052
C48	C	0.170110	-0.483093	0.500052
C49	C	-0.272104	-0.908189	0.000046
C50	C	0.227896	-0.408189	0.500046
C51	C	-0.308353	-0.831630	0.000039
C52	C	0.191647	-0.331630	0.500039
C53	C	-0.402388	-0.829984	0.000042
C54	C	0.097612	-0.329984	0.500042
C55	C	-0.199604	-1.061296	0.000049
C56	C	0.300396	-0.561296	0.500049
C57	C	-0.178064	-0.909837	0.000044
C58	C	0.321936	-0.409837	0.500044
C59	C	0.287918	-0.976389	0.000060
C60	C	0.787918	-0.476389	0.500060
C61	C	0.387999	-0.978145	0.000062
C62	C	0.887999	-0.478145	0.500062
C63	C	0.116464	-1.134265	0.000063
C64	C	0.616464	-0.634265	0.500063
C65	C	0.118215	-1.226563	0.000063
C66	C	0.618215	-0.726563	0.500063
C67	C	0.206047	-0.515811	0.000055
C68	C	0.706047	-0.015811	0.500055
C69	C	0.204395	-0.429089	0.000060
C70	C	0.704395	0.070911	0.500060
C71	C	0.040127	-0.448732	0.000054
C72	C	0.540127	0.051268	0.500054
C73	C	0.041781	-0.535453	0.000054
C74	C	0.541781	-0.035453	0.500054
C75	C	0.124743	-0.568990	0.000050
C76	C	0.624743	-0.068990	0.500050
C77	C	0.121437	-0.395546	0.000055
C78	C	0.621437	0.104454	0.500055
C79	C	0.119645	-0.301518	0.000061
C80	C	0.619645	0.198482	0.500061
C81	C	0.126536	-0.663025	0.000046
C82	C	0.626536	-0.163025	0.500046
N83	N	0.123087	-0.982282	-0.228118
N84	N	0.623087	-0.482282	0.271882
C85	C	0.061801	-1.038731	0.453956
C86	C	0.561801	-0.538731	0.953956
C87	C	0.061799	-1.038734	0.546146
C88	C	0.561799	-0.538734	1.046146
C89	C	0.184375	-0.925806	0.546151
C90	C	0.684375	-0.425806	1.046151
C91	C	0.184372	-0.925800	0.453963
C92	C	0.684372	-0.425800	0.953963
C93	C	0.123086	-0.982267	0.407868
C94	C	0.623086	-0.482267	0.907868
C95	C	0.123087	-0.982276	0.592246
C96	C	0.623087	-0.482276	1.092246
C97	C	0.123085	-0.982278	0.692202
C98	C	0.623085	-0.482278	1.192202
C99	C	0.123087	-0.982264	0.307905
C100	C	0.623087	-0.482264	0.807905
H101	H	-0.131020	-0.848840	0.000036
H102	H	0.368980	-0.348840	0.500036
H103	H	0.273601	-0.543114	0.000058
H104	H	0.773601	-0.043114	0.500058
H105	H	-0.024431	-0.578754	0.000053
H106	H	0.475569	-0.078754	0.500053
Br107	Br	-0.229919	-0.729979	0.000043
Br108	Br	0.270081	-0.229979	0.500043
H109	H	0.270600	-0.385793	0.000066
H110	H	0.770600	0.114207	0.500066
H111	H	-0.431911	-0.767654	0.000037
H112	H	0.068089	-0.267654	0.500037
Br113	Br	-0.072460	-0.403212	0.000056
Br114	Br	0.427540	0.096788	0.500056
Br115	Br	0.267548	-0.849176	0.608712
Br116	Br	0.767548	-0.349176	1.108712
H117	H	0.234278	-0.879816	0.416436
H118	H	0.734278	-0.379816	0.916436
H119	H	-0.583733	-0.840908	0.000047
H120	H	-0.083733	-0.340908	0.500047
Br121	Br	-0.021381	-1.115362	0.608692
Br122	Br	0.478619	-0.615362	1.108692
Br123	Br	-0.654169	-1.156348	0.000090
Br124	Br	-0.154169	-0.656348	0.500090
H125	H	-0.170094	-1.123629	0.000061
H126	H	0.329906	-0.623629	0.500061
Br127	Br	-0.523888	-1.234550	0.000100
Br128	Br	-0.023888	-0.734550	0.500100
Br129	Br	-0.302239	-1.238453	0.000061
Br130	Br	0.197761	-0.738453	0.500061
H131	H	0.011897	-1.084709	0.416427
H132	H	0.511897	-0.584709	0.916427
