data_functionalizedCrystal
_audit_creation_method	'MofGen! by Chris Wilmer'
_symmetry_space_group_name_H-M	'P1'
_symmetry_Int_Tables_number	1
_symmetry_cell_setting	triclinic
loop_
_symmetry_equiv_pos_as_xyz
  x,y,z
_cell_length_a	16.625545
_cell_length_b	19.121141
_cell_length_c	16.625539
_cell_angle_alpha	92.461242
_cell_angle_beta	89.971893
_cell_angle_gamma	92.420937
loop_
_atom_site_label
_atom_site_type_symbol
_atom_site_fract_x
_atom_site_fract_y
_atom_site_fract_z
Zn1	Zn	-0.373688	-1.073731	-0.508473
Zn2	Zn	-0.508526	-1.073640	-0.373637
Zn3	Zn	-0.367952	-0.956278	-0.367904
Zn4	Zn	-0.502717	-0.956246	-0.502680
O5	O	-0.438221	-1.014974	-0.438173
O6	O	-0.396406	-1.172003	-0.495411
O7	O	-0.489910	-1.058047	-0.260042
O8	O	-0.255883	-0.971910	-0.386577
O9	O	-0.495471	-1.171937	-0.396347
O10	O	-0.260097	-1.058202	-0.489852
O11	O	-0.386631	-0.971822	-0.255831
O12	O	-0.380998	-0.857989	-0.380959
O13	O	-0.485570	-0.971855	-0.616282
O14	O	-0.480009	-0.857966	-0.479978
O15	O	-0.390773	-1.058171	-0.620538
O16	O	-0.620586	-1.058016	-0.390729
O17	O	-0.616317	-0.971767	-0.485536
C18	C	-0.429251	-0.832493	-0.429218
C19	C	-0.425433	-0.754427	-0.425406
C20	C	-0.475267	-0.717758	-0.475088
C21	C	-0.471669	-0.644407	-0.471510
C22	C	-0.418241	-0.607726	-0.418245
C23	C	-0.368402	-0.644401	-0.368561
C24	C	-0.371996	-0.717751	-0.372144
C25	C	-0.404802	-0.386257	-0.404856
C26	C	-0.401213	-0.312902	-0.401276
C27	C	-0.504480	-0.312913	-0.504226
C28	C	-0.508073	-0.386264	-0.507800
C29	C	-0.458231	-0.422932	-0.458119
C30	C	-0.414564	-0.532750	-0.414585
C31	C	-0.461904	-0.497908	-0.461784
C32	C	-0.647708	-1.014897	-0.438144
C33	C	-0.737331	-1.014929	-0.438162
C34	C	-0.810114	-1.014956	-0.438179
C35	C	-0.901425	-1.014997	-0.438199
C36	C	-0.974203	-1.015034	-0.438211
C37	C	-1.065519	-1.015074	-0.438230
C38	C	-0.227917	-1.015069	-0.438221
C39	C	-0.138297	-1.015110	-0.438242
C40	C	-0.438163	-1.015019	-0.648485
C41	C	-0.438138	-1.015039	-0.738107
C42	C	-0.447222	-0.198167	-0.447155
C43	C	-0.451047	-0.276233	-0.450958
C44	C	-0.438050	-1.015071	-1.066284
C45	C	-0.438077	-1.015060	-0.974975
C46	C	-0.438095	-1.015055	-0.902198
C47	C	-0.438120	-1.015044	-0.810883
C48	C	-0.438222	-1.014969	-0.228682
C49	C	-0.438026	-1.015085	-0.139067
H50	H	-0.357696	-0.283039	-0.357906
C51	C	-0.310523	-0.604540	-0.310632
C52	C	-0.354045	-0.562407	-0.256799
C53	C	-0.300755	-0.525685	-0.203415
H54	H	-0.274013	-0.575892	-0.340048
H55	H	-0.281368	-0.636862	-0.281509
H56	H	-0.383187	-0.530088	-0.285919
H57	H	-0.390552	-0.591037	-0.227364
H58	H	-0.271600	-0.558007	-0.174292
H59	H	-0.264248	-0.497041	-0.232838
H60	H	-0.330278	-0.497098	-0.166879
H61	H	-0.505402	-0.527776	-0.505156
H62	H	-0.518777	-0.747618	-0.518459
C63	C	-0.318029	-0.757658	-0.318159
C64	C	-0.365679	-0.799747	-0.268470
C65	C	-0.315989	-0.836526	-0.218737
H66	H	-0.285679	-0.725391	-0.285847
H67	H	-0.284355	-0.786336	-0.350445
H68	H	-0.399339	-0.771072	-0.236186
H69	H	-0.398028	-0.832027	-0.300759
H70	H	-0.282315	-0.865204	-0.251024
H71	H	-0.283642	-0.804254	-0.186431
H72	H	-0.348312	-0.865092	-0.185023
H73	H	-0.551582	-0.416124	-0.551172
C74	C	-0.525881	-0.604721	-0.525476
C75	C	-0.573463	-0.652543	-0.572866
C76	C	-0.623425	-0.616011	-0.622581
H77	H	-0.493782	-0.576126	-0.559344
H78	H	-0.559609	-0.576101	-0.493181
H79	H	-0.539739	-0.681151	-0.605159
H80	H	-0.605579	-0.681140	-0.539020
H81	H	-0.657154	-0.587391	-0.590285
H82	H	-0.591320	-0.587418	-0.656443
H83	H	-0.655721	-0.648453	-0.654736
C84	C	-0.558491	-0.272974	-0.558132
C85	C	-0.543896	-0.200887	-0.543613
C86	C	-0.593629	-0.164074	-0.593268
H87	H	-0.613268	-0.284888	-0.546872
H88	H	-0.547337	-0.284982	-0.612931
H89	H	-0.555057	-0.188884	-0.488826
H90	H	-0.489129	-0.188952	-0.554878
H91	H	-0.582474	-0.176082	-0.648067
H92	H	-0.648403	-0.175994	-0.582004
H93	H	-0.583728	-0.115159	-0.583429
C94	C	-0.350651	-0.425935	-0.350825
C95	C	-0.303109	-0.378110	-0.303398
C96	C	-0.253220	-0.414639	-0.253607
H97	H	-0.316889	-0.454572	-0.383043
H98	H	-0.382826	-0.454513	-0.316988
H99	H	-0.270937	-0.349544	-0.337231
H100	H	-0.336850	-0.349472	-0.271164
H101	H	-0.285395	-0.443217	-0.219771
H102	H	-0.219463	-0.443274	-0.285831
H103	H	-0.220962	-0.382195	-0.221417
H104	H	-0.371064	-0.502876	-0.371215
