data_functionalizedCrystal
_audit_creation_method	'MofGen! by Chris Wilmer'
_symmetry_space_group_name_H-M	'P1'
_symmetry_Int_Tables_number	1
_symmetry_cell_setting	triclinic
loop_
_symmetry_equiv_pos_as_xyz
  x,y,z
_cell_length_a	15.944551
_cell_length_b	15.944551
_cell_length_c	16.776229
_cell_angle_alpha	89.997350
_cell_angle_beta	90.001761
_cell_angle_gamma	96.501262
loop_
_atom_site_label
_atom_site_type_symbol
_atom_site_fract_x
_atom_site_fract_y
_atom_site_fract_z
O1	O	-0.108334	1.114527	-0.066196
O2	O	0.224999	1.447860	0.267137
O3	O	0.558333	1.781194	0.600470
O4	O	-0.121690	0.869977	-0.066215
O5	O	0.211643	1.203311	0.267118
O6	O	0.544976	1.536644	0.600452
O7	O	0.007263	0.998930	-0.066210
O8	O	0.340596	1.332264	0.267124
O9	O	0.673929	1.665597	0.600457
O10	O	-0.237287	0.985574	-0.066202
O11	O	0.096046	1.318908	0.267132
O12	O	0.429380	1.652241	0.600465
O13	O	0.007271	0.998913	0.066367
O14	O	0.340604	1.332247	0.399700
O15	O	0.673937	1.665580	0.733033
O16	O	-0.121682	0.869960	0.066361
O17	O	0.211651	1.203294	0.399695
O18	O	0.544984	1.536627	0.733028
O19	O	-0.108326	1.114510	0.066380
O20	O	0.225007	1.447843	0.399714
O21	O	0.558341	1.781177	0.733047
Zn22	Zn	-0.115003	0.992232	0.087420
Zn23	Zn	0.218330	1.325566	0.420754
Zn24	Zn	0.551664	1.658899	0.754087
Zn25	Zn	-0.115013	0.992255	-0.087255
Zn26	Zn	0.218320	1.325588	0.246078
Zn27	Zn	0.551653	1.658922	0.579412
O28	O	-0.237279	0.985557	0.066375
O29	O	0.096054	1.318890	0.399708
O30	O	0.429388	1.652224	0.733042
C31	C	-0.121132	0.838675	0.000071
C32	C	0.212202	1.172008	0.333404
C33	C	0.545535	1.505342	0.666737
C34	C	-0.119470	0.745429	0.000063
C35	C	0.213864	1.078762	0.333396
C36	C	0.547197	1.412096	0.666730
C37	C	-0.035565	0.530572	0.000076
C38	C	0.297768	0.863906	0.333409
C39	C	0.631102	1.197239	0.666742
C40	C	-0.074531	0.469561	-0.065290
C41	C	0.258802	0.802894	0.268043
C42	C	0.592135	1.136227	0.601376
C43	C	-0.116462	0.574703	0.000072
C44	C	0.216871	0.908036	0.333406
C45	C	0.550204	1.241370	0.666739
C46	C	-0.074543	0.469566	0.065420
C47	C	0.258791	0.802899	0.398753
C48	C	0.592124	1.136233	0.732086
C49	C	-0.113551	0.409790	0.000085
C50	C	0.219782	0.743124	0.333418
C51	C	0.553115	1.076457	0.666752
C52	C	-0.155451	0.514920	-0.065347
C53	C	0.177883	0.848253	0.267986
C54	C	0.511216	1.181586	0.601319
C55	C	-0.155451	0.514931	0.065421
C56	C	0.177883	0.848265	0.398755
C57	C	0.511216	1.181598	0.732088
C58	C	-0.194476	0.453937	0.000039
C59	C	0.138857	0.787271	0.333373
C60	C	0.472191	1.120604	0.666706
C61	C	-0.118137	0.669705	0.000065
C62	C	0.215197	1.003039	0.333398
C63	C	0.548530	1.336372	0.666731
C64	C	-0.111883	0.314789	0.000087
C65	C	0.221450	0.648123	0.333420
C66	C	0.554783	0.981456	0.666754
C67	C	-0.268577	0.986120	0.000088
C68	C	0.064756	1.319453	0.333421
C69	C	0.398090	1.652787	0.666755
C70	C	-0.361823	0.987782	0.000091
C71	C	-0.028490	1.321116	0.333425
C72	C	0.304844	1.654449	0.666758
C73	C	-0.576680	1.071687	0.000086
C74	C	-0.243346	1.405020	0.333419
C75	C	0.089987	1.738353	0.666752
C76	C	-0.637692	1.032716	0.065451
C77	C	-0.304359	1.366049	0.398784
C78	C	0.028975	1.699383	0.732117
C79	C	-0.532549	0.990790	0.000085
C80	C	-0.199216	1.324123	0.333418
C81	C	0.134118	1.657456	0.666751
C82	C	-0.637685	1.032714	-0.065259
C83	C	-0.304352	1.366047	0.268074
C84	C	0.028981	1.699380	0.601407
C85	C	-0.697462	0.993700	0.000074
C86	C	-0.364128	1.327034	0.333408
C87	C	-0.030795	1.660367	0.666741
C88	C	-0.592333	0.951797	0.065503
C89	C	-0.259000	1.285130	0.398837
C90	C	0.074334	1.618463	0.732170
C91	C	-0.592320	0.951806	-0.065265
C92	C	-0.258987	1.285139	0.268068
C93	C	0.074347	1.618472	0.601401
C94	C	-0.653315	0.912776	0.000115
C95	C	-0.319981	1.246109	0.333449
C96	C	0.013352	1.579443	0.666782
C97	C	-0.437547	0.989115	0.000091
C98	C	-0.104213	1.322448	0.333424
C99	C	0.229120	1.655782	0.666758
C100	C	-0.792463	0.995369	0.000074
C101	C	-0.459129	1.328702	0.333407
C102	C	-0.125796	1.662035	0.666740
C103	C	0.038561	0.998367	0.000076
C104	C	0.371894	1.331701	0.333409
C105	C	0.705227	1.665034	0.666742
C106	C	0.131807	0.996705	0.000067
C107	C	0.465140	1.330038	0.333400
C108	C	0.798473	1.663372	0.666733
C109	C	-0.108885	1.145813	0.000093
C110	C	0.224449	1.479146	0.333426
C111	C	0.557782	1.812479	0.666759
C112	C	-0.110547	1.239059	0.000095
C113	C	0.222787	1.572392	0.333428
C114	C	0.556120	1.905725	0.666762
N115	N	-0.114995	0.992223	0.206631
N116	N	0.218338	1.325557	0.539965
N117	N	0.551671	1.658890	0.873298
N118	N	-0.115014	0.992271	-0.206466
N119	N	0.218319	1.325604	0.126867
N120	N	0.551652	1.658938	0.460200
C121	C	-0.057918	1.049341	0.248351
C122	C	0.275415	1.382674	0.581684
C123	C	0.608748	1.716008	0.915018
C124	C	-0.057918	1.049346	0.331803
C125	C	0.275416	1.382679	0.665136
C126	C	0.608749	1.716012	0.998470
C127	C	-0.114999	0.992236	0.373534
C128	C	0.218335	1.325569	0.706868
C129	C	0.551668	1.658903	1.040201
C130	C	-0.172078	0.935112	0.331809
C131	C	0.161255	1.268445	0.665142
C132	C	0.494588	1.601779	0.998476
C133	C	-0.172074	0.935104	0.248358
C134	C	0.161259	1.268437	0.581692
C135	C	0.494592	1.601771	0.915025
C136	C	-0.172095	0.935142	0.668356
C137	C	0.161239	1.268476	1.001690
C138	C	0.494572	1.601809	1.335023
C139	C	-0.172096	0.935157	0.751813
C140	C	0.161237	1.268490	1.085146
C141	C	0.494571	1.601823	1.418479
C142	C	-0.057938	1.049384	0.751801
C143	C	0.275395	1.382717	1.085134
C144	C	0.608728	1.716051	1.418468
C145	C	-0.057934	1.049376	0.668350
C146	C	0.275399	1.382709	1.001684
C147	C	0.608732	1.716043	1.335017
C148	C	-0.115010	0.992250	0.626632
C149	C	0.218323	1.325583	0.959966
C150	C	0.551656	1.658916	1.293299
C151	C	-0.115009	0.992244	0.536144
C152	C	0.218324	1.325578	0.869477
C153	C	0.551657	1.658911	1.202811
C154	C	-0.115004	0.992245	0.464021
C155	C	0.218329	1.325578	0.797354
C156	C	0.551662	1.658911	1.130688
H157	H	0.031573	0.563905	-0.000007
H158	H	0.364906	0.897238	0.333326
H159	H	0.698240	1.230572	0.666659
O160	O	-0.233660	0.873539	0.623364
O161	O	0.099674	1.206872	0.956698
O162	O	0.433007	1.540205	1.290031
H163	H	-0.273358	0.833838	0.666405
H164	H	0.059976	1.167171	0.999738
H165	H	0.393309	1.500505	1.333072
O166	O	-0.200728	0.541611	0.138624
O167	O	0.132605	0.874944	0.471957
O168	O	0.465939	1.208278	0.805290
H169	H	-0.167012	0.523663	0.192808
H170	H	0.166322	0.856996	0.526141
H171	H	0.499655	1.190330	0.859474
O172	O	-0.565626	0.906563	-0.138483
O173	O	-0.232293	1.239897	0.194851
O174	O	0.101040	1.573230	0.528184
H175	H	-0.622013	0.885774	-0.175290
H176	H	-0.288679	1.219107	0.158043
H177	H	0.044654	1.552440	0.491376
H178	H	-0.189645	0.534914	-0.120669
H179	H	0.143689	0.868248	0.212664
H180	H	0.477022	1.201581	0.545997
O181	O	-0.029208	0.442954	0.138626
O182	O	0.304125	0.776287	0.471959
O183	O	0.637458	1.109620	0.805293
H184	H	0.036728	0.473958	0.138481
H185	H	0.370061	0.807291	0.471814
H186	H	0.703395	1.140624	0.805147
H187	H	-0.543374	1.138836	0.000155
H188	H	-0.210041	1.472169	0.333489
H189	H	0.123293	1.805503	0.666822
O190	O	-0.664338	1.078024	0.138654
O191	O	-0.331004	1.411357	0.471987
O192	O	0.002329	1.744690	0.805321
H193	H	-0.633354	1.143968	0.138525
H194	H	-0.300020	1.477301	0.471858
H195	H	0.033313	1.810634	0.805191
O196	O	-0.283501	0.410019	0.000010
O197	O	0.049833	0.743352	0.333344
O198	O	0.383166	1.076686	0.666677
H199	H	-0.316875	0.428184	-0.054298
H200	H	0.016459	0.761517	0.279036
H201	H	0.349792	1.094851	0.612369
O202	O	-0.029218	0.442915	-0.138490
O203	O	0.304115	0.776248	0.194843
O204	O	0.637449	1.109581	0.528176
H205	H	0.036726	0.473898	-0.138358
H206	H	0.370059	0.807231	0.194975
H207	H	0.703393	1.140565	0.528309
H208	H	-0.572338	0.917600	0.120824
H209	H	-0.239005	1.250933	0.454157
H210	H	0.094328	1.584267	0.787491
H211	H	-0.218551	0.888592	0.214391
H212	H	0.114782	1.221925	0.547725
H213	H	0.448116	1.555259	0.881058
H214	H	-0.686473	0.845569	0.000147
H215	H	-0.353140	1.178902	0.333480
H216	H	-0.019806	1.512235	0.666813
H217	H	-0.011461	1.095897	0.785777
H218	H	0.321873	1.429230	1.119110
H219	H	0.655206	1.762564	1.452443
H220	H	-0.218552	0.888608	0.365791
H221	H	0.114782	1.221941	0.699125
H222	H	0.448115	1.555275	1.032458
H223	H	-0.218580	0.888648	0.785789
H224	H	0.114754	1.221981	1.119122
H225	H	0.448087	1.555314	1.452456
O226	O	-0.664296	1.078053	-0.138464
O227	O	-0.330962	1.411386	0.194870
O228	O	0.002371	1.744720	0.528203
H229	H	-0.633291	1.143989	-0.138316
H230	H	-0.299958	1.477322	0.195017
H231	H	0.033375	1.810656	0.528351
H232	H	-0.011440	1.095850	0.214379
H233	H	0.321893	1.429183	0.547712
H234	H	0.655227	1.762516	0.881045
H235	H	-0.011441	1.095855	0.365771
H236	H	0.321892	1.429188	0.699104
H237	H	0.655226	1.762521	1.032437
O238	O	0.003643	1.110966	0.623344
O239	O	0.336976	1.444299	0.956678
O240	O	0.670309	1.777633	1.290011
H241	H	-0.005945	1.101366	0.558307
H242	H	0.327388	1.434699	0.891640
H243	H	0.660721	1.768032	1.224973
