data_functionalizedCrystal
_audit_creation_method	'MofGen! by Chris Wilmer'
_symmetry_space_group_name_H-M	'P1'
_symmetry_Int_Tables_number	1
_symmetry_cell_setting	triclinic
loop_
_symmetry_equiv_pos_as_xyz
  x,y,z
_cell_length_a	18.050591
_cell_length_b	29.839131
_cell_length_c	18.050582
_cell_angle_alpha	89.974523
_cell_angle_beta	89.979078
_cell_angle_gamma	90.037426
loop_
_atom_site_label
_atom_site_type_symbol
_atom_site_fract_x
_atom_site_fract_y
_atom_site_fract_z
Zn1	Zn	1.135224	-0.178930	-0.420016
Zn2	Zn	1.635224	0.321070	0.079984
Zn3	Zn	1.135106	-0.254052	-0.295820
Zn4	Zn	1.635106	0.245948	0.204180
Zn5	Zn	1.011044	-0.178932	-0.295827
Zn6	Zn	1.511044	0.321068	0.204173
Zn7	Zn	1.010963	-0.254028	-0.419956
Zn8	Zn	1.510963	0.245972	0.080044
O9	O	1.073084	-0.216485	-0.357905
O10	O	1.573084	0.283515	0.142095
O11	O	1.239133	-0.188904	-0.403564
O12	O	1.739133	0.311096	0.096436
O13	O	1.118634	-0.244098	-0.191896
O14	O	1.618634	0.255902	0.308104
O15	O	1.027600	-0.116064	-0.312330
O16	O	1.527600	0.383936	0.187670
O17	O	1.239047	-0.244096	-0.312317
O18	O	1.739047	0.255904	0.187683
O19	O	1.118835	-0.116063	-0.403571
O20	O	1.618835	0.383937	0.096429
O21	O	1.027485	-0.188907	-0.191902
O22	O	1.527485	0.311093	0.308098
O23	O	0.907108	-0.188884	-0.312271
O24	O	1.407108	0.311116	0.187729
O25	O	1.027462	-0.244056	-0.523888
O26	O	1.527462	0.255944	-0.023888
O27	O	0.907049	-0.244057	-0.403467
O28	O	1.407049	0.255943	0.096533
O29	O	1.118756	-0.188881	-0.523933
O30	O	1.618756	0.311119	-0.023933
O31	O	1.118555	-0.316916	-0.312258
O32	O	1.618555	0.183084	0.187742
O33	O	1.027348	-0.316898	-0.403460
O34	O	1.527348	0.183102	0.096540
C35	C	0.880132	-0.216469	-0.357864
C36	C	1.380132	0.283531	0.142136
C37	C	0.797586	-0.216472	-0.357864
C38	C	1.297586	0.283528	0.142136
C39	C	0.598146	-0.186434	-0.308386
C40	C	1.098146	0.313566	0.191614
C41	C	0.548711	-0.227410	-0.290106
C42	C	1.048711	0.272590	0.209894
C43	C	0.646456	-0.216486	-0.357897
C44	C	1.146456	0.283514	0.142103
C45	C	0.548810	-0.175525	-0.376175
C46	C	1.048810	0.324475	0.123825
C47	C	0.500471	-0.216495	-0.357928
C48	C	1.000471	0.283505	0.142072
C49	C	0.598108	-0.257483	-0.339583
C50	C	1.098108	0.242517	0.160417
C51	C	0.598211	-0.205570	-0.425683
C52	C	1.098211	0.294430	0.074317
C53	C	0.548798	-0.246574	-0.407429
C54	C	1.048798	0.253426	0.092571
C55	C	0.730554	-0.216480	-0.357878
C56	C	1.230554	0.283520	0.142122
C57	C	0.416374	-0.216506	-0.357948
C58	C	0.916374	0.283494	0.142052
C59	C	1.072950	-0.333208	-0.357868
C60	C	1.572950	0.166792	0.142132
C61	C	1.072961	-0.383142	-0.357877
C62	C	1.572961	0.116858	0.142123
C63	C	1.120663	-0.692782	-0.310485
C64	C	1.620663	-0.192782	0.189515
C65	C	1.120754	-0.880455	-0.310514
C66	C	1.620754	-0.380455	0.189486
O67	O	1.161206	-0.904717	-0.270192
O68	O	1.661206	-0.404717	0.229808
N69	N	1.073238	-0.903927	-0.357961
N70	N	1.573238	-0.403927	0.142039
C71	C	1.025700	-0.880478	-0.405407
C72	C	1.525700	-0.380478	0.094593
O73	O	0.985292	-0.904749	-0.445769
O74	O	1.485292	-0.404749	0.054231
C75	C	1.025612	-0.692806	-0.405381
C76	C	1.525612	-0.192806	0.094619
C77	C	1.073126	-0.669337	-0.357926
C78	C	1.573126	-0.169337	0.142074
C79	C	1.168173	-0.669312	-0.263035
C80	C	1.668173	-0.169312	0.236965
C81	C	1.168147	-0.622397	-0.263025
C82	C	1.668147	-0.122397	0.236975
C83	C	1.120610	-0.598951	-0.310466
C84	C	1.620610	-0.098951	0.189534
C85	C	1.073100	-0.622421	-0.357917
C86	C	1.573100	-0.122421	0.142083
C87	C	0.978078	-0.669358	-0.452831
C88	C	1.478078	-0.169358	0.047169
C89	C	0.978062	-0.622437	-0.452822
C90	C	1.478062	-0.122437	0.047178
C91	C	1.025575	-0.598967	-0.405367
C92	C	1.525575	-0.098967	0.094633
C93	C	1.025537	-0.552060	-0.405348
C94	C	1.525537	-0.052060	0.094652
N95	N	1.073053	-0.528588	-0.357902
N96	N	1.573053	-0.028588	0.142098
C97	C	1.120589	-0.552033	-0.310461
C98	C	1.620589	-0.052033	0.189539
C99	C	1.025748	-0.979009	-0.405416
C100	C	1.525748	-0.479009	0.094584
C101	C	1.025769	-1.025927	-0.405422
C102	C	1.525769	-0.525927	0.094578
C103	C	1.120824	-1.025900	-0.310530
C104	C	1.620824	-0.525900	0.189470
C105	C	1.120799	-0.978982	-0.310521
C106	C	1.620799	-0.478982	0.189479
C107	C	1.073264	-0.955537	-0.357970
C108	C	1.573264	-0.455537	0.142030
C109	C	1.120530	-0.453508	-0.310444
C110	C	1.620530	0.046492	0.189556
C111	C	1.120497	-0.406588	-0.310436
C112	C	1.620497	0.093412	0.189564
C113	C	1.025445	-0.406619	-0.405331
C114	C	1.525445	0.093381	0.094669
C115	C	1.025474	-0.453534	-0.405336
C116	C	1.525474	0.046466	0.094664
C117	C	1.073023	-0.476977	-0.357890
C118	C	1.573023	0.023023	0.142110
O119	O	0.985113	-0.527769	-0.445655
O120	O	1.485113	-0.027769	0.054345
O121	O	1.161002	-0.527755	-0.270116
O122	O	1.661002	-0.027755	0.229884
C123	C	1.120689	-0.739698	-0.310495
C124	C	1.620689	-0.239698	0.189505
C125	C	1.073178	-0.763167	-0.357946
C126	C	1.573178	-0.263167	0.142054
C127	C	1.025642	-0.739722	-0.405387
C128	C	1.525642	-0.239722	0.094613
C129	C	1.073199	-0.810085	-0.357951
C130	C	1.573199	-0.310085	0.142049
C131	C	1.120736	-0.833531	-0.310510
C132	C	1.620736	-0.333531	0.189490
C133	C	1.168252	-0.810059	-0.263064
C134	C	1.668252	-0.310059	0.236936
C135	C	1.168225	-0.763143	-0.263054
C136	C	1.668225	-0.263143	0.236946
C137	C	0.978126	-0.763194	-0.452833
C138	C	1.478126	-0.263194	0.047167
C139	C	0.978155	-0.810109	-0.452838
C140	C	1.478155	-0.310109	0.047162
C141	C	1.025692	-0.833555	-0.405397
C142	C	1.525692	-0.333555	0.094603
C143	C	1.266790	-0.216502	-0.357947
C144	C	1.766790	0.283498	0.142053
C145	C	1.349336	-0.216510	-0.357964
C146	C	1.849336	0.283490	0.142036
C147	C	1.073113	-0.216465	-0.551611
C148	C	1.573113	0.283535	-0.051611
C149	C	1.073126	-0.216457	-0.634156
C150	C	1.573126	0.283543	-0.134156
C151	C	1.073239	-0.099307	-0.357958
C152	C	1.573239	0.400693	0.142042
C153	C	1.073305	-0.049373	-0.357981
C154	C	1.573305	0.450627	0.142019
C155	C	1.023518	-0.246420	-0.833583
C156	C	1.523518	0.253580	-0.333583
C157	C	1.091269	-0.257404	-0.882980
C158	C	1.591269	0.242596	-0.382980
C159	C	1.073162	-0.216423	-0.785287
C160	C	1.573162	0.283577	-0.285287
C161	C	1.005449	-0.205426	-0.882971
C162	C	1.505449	0.294574	-0.382971
C163	C	1.073192	-0.216390	-0.931272
C164	C	1.573192	0.283610	-0.431272
C165	C	1.140949	-0.227429	-0.833597
C166	C	1.640949	0.272571	-0.333597
C167	C	1.055083	-0.175431	-0.833584
C168	C	1.555083	0.324569	-0.333584
C169	C	1.122881	-0.186400	-0.882959
C170	C	1.622881	0.313600	-0.382959
C171	C	1.073145	-0.216442	-0.701189
C172	C	1.573145	0.283558	-0.201189
C173	C	1.073218	-0.216371	-1.015369
C174	C	1.573218	0.283629	-0.515369
C175	C	1.073098	-0.216473	-0.164953
C176	C	1.573098	0.283527	0.335047
C177	C	1.073230	-0.216355	-0.082407
C178	C	1.573230	0.283645	0.417593
H179	H	0.619673	-0.292138	-0.324073
H180	H	1.119673	0.207862	0.175927
N181	N	1.219444	-0.694598	-0.211861
N182	N	1.719444	-0.194598	0.288139
H183	H	1.272495	-0.686398	-0.223445
H184	H	1.772495	-0.186398	0.276555
H185	H	1.207871	-0.686442	-0.158810
H186	H	1.707871	-0.186442	0.341190
N187	N	0.967965	-0.280065	-0.804856
N188	N	1.467965	0.219935	-0.304856
H189	H	0.968015	-0.279637	-0.748907
H190	H	1.468015	0.220363	-0.248907
H191	H	0.916958	-0.272070	-0.823639
H192	H	1.416958	0.227930	-0.323639
H193	H	1.039754	-0.140789	-0.811869
H194	H	1.539754	0.359211	-0.311869
N195	N	0.926844	-0.737909	-0.503996
N196	N	1.426844	-0.237909	-0.003996
H197	H	0.956982	-0.718412	-0.538445
H198	H	1.456982	-0.218412	-0.038445
H199	H	0.896760	-0.759929	-0.534000
H200	H	1.396760	-0.259929	-0.034000
H201	H	0.948172	-0.196138	-0.904660
H202	H	1.448172	0.303862	-0.404660
N203	N	1.178571	-0.152784	-0.911510
N204	N	1.678571	0.347216	-0.411510
H205	H	1.165371	-0.121921	-0.892747
H206	H	1.665371	0.378079	-0.392747
H207	H	1.229662	-0.161179	-0.893444
H208	H	1.729662	0.338821	-0.393444
H209	H	1.106579	-0.292056	-0.904678
H210	H	1.606579	0.207944	-0.404678
N211	N	0.626856	-0.152807	-0.252870
N212	N	1.126856	0.347193	0.247130
H213	H	0.608849	-0.161118	-0.201689
H214	H	1.108849	0.338882	0.298311
H215	H	0.682803	-0.152855	-0.253650
H216	H	1.182803	0.347145	0.246350
H217	H	0.526970	-0.236650	-0.232794
H218	H	1.026970	0.263350	0.267206
N219	N	0.627032	-0.193315	-0.501577
N220	N	1.127032	0.306685	-0.001577
H221	H	0.658641	-0.165463	-0.497916
H222	H	1.158641	0.334537	0.002084
H223	H	0.657772	-0.218832	-0.521686
H224	H	1.157772	0.281168	-0.021686
H225	H	0.986787	-0.472644	-0.443980
H226	H	1.486787	0.027356	0.056020
H227	H	0.527267	-0.272021	-0.449313
H228	H	1.027267	0.227979	0.050687
N229	N	1.216843	-0.239784	-0.804998
N230	N	1.716843	0.260216	-0.304998
H231	H	1.216358	-0.239733	-0.749047
H232	H	1.716358	0.260267	-0.249047
H233	H	1.230578	-0.270627	-0.823457
H234	H	1.730578	0.229373	-0.323457
H235	H	0.527115	-0.140885	-0.391596
H236	H	1.027115	0.359115	0.108404
H237	H	1.159250	-0.472590	-0.271810
H238	H	1.659250	0.027410	0.228190
N239	N	1.171748	-0.381274	-0.259253
N240	N	1.671748	0.118726	0.240747
H241	H	1.201868	-0.403249	-0.229205
H242	H	1.701868	0.096751	0.270795
H243	H	1.206085	-0.361778	-0.289516
H244	H	1.706085	0.138222	0.210484
H245	H	1.206838	-0.603291	-0.224386
H246	H	1.706838	-0.103291	0.275614
N247	N	1.172055	-0.953673	-0.259343
N248	N	1.672055	-0.453673	0.240657
H249	H	1.206444	-0.934180	-0.289557
H250	H	1.706444	-0.434180	0.210443
H251	H	1.141842	-0.934259	-0.224900
H252	H	1.641842	-0.434259	0.275100
N253	N	1.172095	-1.051192	-0.259358
N254	N	1.672095	-0.551192	0.240642
H255	H	1.164894	-1.084475	-0.266567
H256	H	1.664894	-0.584475	0.233433
H257	H	1.225123	-1.042960	-0.270975
H258	H	1.725123	-0.542960	0.229025
H259	H	0.987071	-1.045032	-0.444057
H260	H	1.487071	-0.545032	0.055943
H261	H	0.987037	-0.959923	-0.444056
H262	H	1.487037	-0.459923	0.055944
H263	H	0.939383	-0.688459	-0.491470
H264	H	1.439383	-0.188459	0.008530
N265	N	0.926790	-0.597147	-0.503996
N266	N	1.426790	-0.097147	-0.003996
H267	H	0.938295	-0.605289	-0.557071
H268	H	1.438295	-0.105289	-0.057071
H269	H	0.873760	-0.605358	-0.492347
H270	H	1.373760	-0.105358	0.007653
N271	N	0.974170	-0.381326	-0.456492
N272	N	1.474170	0.118674	0.043508
H273	H	0.981369	-0.348043	-0.449283
H274	H	1.481369	0.151957	0.050717
H275	H	0.985699	-0.389500	-0.509546
H276	H	1.485699	0.110500	-0.009546
H277	H	1.206916	-0.744038	-0.224412
H278	H	1.706916	-0.244038	0.275588
H279	H	1.206956	-0.829156	-0.224433
H280	H	1.706956	-0.329156	0.275567
H281	H	0.939458	-0.829214	-0.491481
H282	H	1.439458	-0.329214	0.008519
