data_functionalizedCrystal
_audit_creation_method	'MofGen! by Chris Wilmer'
_symmetry_space_group_name_H-M	'P1'
_symmetry_Int_Tables_number	1
_symmetry_cell_setting	triclinic
loop_
_symmetry_equiv_pos_as_xyz
  x,y,z
_cell_length_a	12.759399
_cell_length_b	17.077404
_cell_length_c	17.077396
_cell_angle_alpha	90.021457
_cell_angle_beta	89.974693
_cell_angle_gamma	89.985345
loop_
_atom_site_label
_atom_site_type_symbol
_atom_site_fract_x
_atom_site_fract_y
_atom_site_fract_z
Zn1	Zn	-0.418291	-1.200095	-0.443901
Zn2	Zn	-0.593992	-1.200019	-0.312642
Zn3	Zn	-0.418325	-1.068826	-0.312644
Zn4	Zn	-0.593926	-1.068811	-0.443861
O5	O	-0.506134	-1.134438	-0.378262
O6	O	-0.441612	-1.309931	-0.426505
O7	O	-0.570731	-1.182590	-0.202796
O8	O	-0.271299	-1.086278	-0.330073
O9	O	-0.570698	-1.309876	-0.330070
O10	O	-0.271275	-1.182720	-0.426507
O11	O	-0.441669	-1.086204	-0.202797
O12	O	-0.441605	-0.958978	-0.330035
O13	O	-0.570586	-1.086252	-0.553714
O14	O	-0.570619	-0.958966	-0.426440
O15	O	-0.441548	-1.182705	-0.553743
O16	O	-0.741004	-1.182575	-0.330031
O17	O	-0.740956	-1.086178	-0.426437
C18	C	-0.506109	-0.930490	-0.378234
C19	C	-0.506124	-0.843240	-0.378240
C20	C	-0.779101	-1.134388	-0.378247
C21	C	-0.895878	-1.134439	-0.378267
C22	C	-0.506056	-1.134485	-0.583007
C23	C	-0.506023	-1.134505	-0.670256
C24	C	-1.060477	-1.084283	-0.428448
C25	C	-0.950753	-1.084234	-0.428430
C26	C	-0.950731	-1.184700	-0.328125
C27	C	-1.060453	-1.184752	-0.328148
C28	C	-1.060489	-1.026277	-0.486356
C29	C	-0.950765	-1.026229	-0.486338
C30	C	-0.232100	-1.134509	-0.378295
C31	C	-0.115324	-1.134539	-0.378309
C32	C	-0.573402	-0.802265	-0.428356
C33	C	-0.573402	-0.720284	-0.428366
C34	C	-0.506129	-0.679281	-0.378255
C35	C	-0.438844	-0.720262	-0.328137
C36	C	-0.438839	-0.802241	-0.328132
C37	C	-0.438860	-0.549392	-0.328150
C38	C	-0.438866	-0.467407	-0.328154
C39	C	-0.573423	-0.467435	-0.428384
C40	C	-0.573418	-0.549414	-0.428379
C41	C	-0.506134	-0.590390	-0.378259
C42	C	-0.506152	-0.339182	-0.378283
C43	C	-0.506143	-0.426432	-0.378270
C44	C	-0.438827	-1.184731	-0.711263
C45	C	-0.438792	-1.184740	-0.793244
C46	C	-0.505959	-1.134528	-0.834216
C47	C	-0.573158	-1.084297	-0.793204
C48	C	-0.573187	-1.084284	-0.711225
C49	C	-0.573095	-1.084329	-0.964074
C50	C	-0.573068	-1.084342	-1.046058
C51	C	-0.438700	-1.184784	-1.046093
C52	C	-0.438729	-1.184772	-0.964114
C53	C	-0.505930	-1.134542	-0.923107
C54	C	-0.506135	-1.134436	-0.174314
C55	C	-0.505872	-1.134567	-0.087065
H56	H	-0.906044	-1.225583	-0.287286
H57	H	-0.384074	-0.434024	-0.287359
H58	H	-0.627800	-1.043414	-0.930689
H59	H	-0.384061	-0.582752	-0.287344
O60	O	-0.638515	-1.035632	-0.833038
C61	C	-0.780284	-1.025047	-0.925609
C62	C	-0.706347	-1.080249	-0.880534
H63	H	-0.835131	-1.061096	-0.964033
H64	H	-0.828393	-0.989158	-0.882252
H65	H	-0.732007	-0.984007	-0.963953
H66	H	-0.754544	-1.121336	-0.842189
H67	H	-0.658236	-1.116082	-0.923933
H68	H	-0.383982	-1.225682	-1.079484
H69	H	-1.105105	-1.225682	-0.287326
O70	O	-0.638656	-0.589210	-0.477168
C71	C	-0.689922	-0.614313	-0.610623
C72	C	-0.615962	-0.569211	-0.555457
H73	H	-0.671615	-0.598148	-0.673930
H74	H	-0.678358	-0.679953	-0.602077
H75	H	-0.774610	-0.598186	-0.596690
H76	H	-0.531246	-0.585272	-0.569355
H77	H	-0.627617	-0.503581	-0.564013
O78	O	-0.638809	-0.680391	-0.476934
C79	C	-0.780715	-0.587845	-0.487302
C80	C	-0.706689	-0.632964	-0.432210
H81	H	-0.835629	-0.549503	-0.451164
H82	H	-0.732612	-0.549439	-0.528402
H83	H	-0.828757	-0.631243	-0.523133
H84	H	-0.658632	-0.589622	-0.396329
H85	H	-0.754853	-0.671382	-0.391162
H86	H	-0.384064	-0.686870	-0.287339
H87	H	-0.627758	-1.043453	-1.079416
H88	H	-0.627894	-1.043378	-0.677838
O89	O	-0.373636	-0.842135	-0.279408
C90	C	-0.359320	-0.934616	-0.173412
C91	C	-0.433286	-0.889499	-0.228552
H92	H	-0.407518	-0.972908	-0.132270
H93	H	-0.304462	-0.973073	-0.209478
H94	H	-0.311215	-0.891216	-0.137631
H95	H	-0.481459	-0.932842	-0.264345
H96	H	-0.488075	-0.851030	-0.192441
H97	H	-0.384077	-1.225640	-0.826628
O98	O	-1.095751	-1.045725	-0.558943
C99	C	-1.049762	-1.081004	-0.691204
C100	C	-1.009686	-1.059007	-0.609036
H101	H	-0.980200	-1.091733	-0.731731
H102	H	-1.099297	-1.136420	-0.687350
H103	H	-1.099473	-1.031085	-0.715374
H104	H	-0.959933	-1.108875	-0.584818
H105	H	-0.960209	-1.003567	-0.612939
H106	H	-0.384042	-1.225663	-0.930756
O107	O	-1.101034	-0.957358	-0.460336
C108	C	-1.064822	-0.827836	-0.411305
C109	C	-1.018765	-0.905839	-0.440777
H110	H	-0.998331	-0.786168	-0.395468
H111	H	-1.115059	-0.800505	-0.459249
H112	H	-1.115187	-0.839114	-0.357321
H113	H	-0.968353	-0.894628	-0.494747
H114	H	-0.968589	-0.933146	-0.392785
H115	H	-0.628205	-0.434069	-0.469195
H116	H	-0.384136	-1.225622	-0.677909
O117	O	-0.638605	-0.842179	-0.477074
C118	C	-0.652908	-0.934741	-0.583064
C119	C	-0.578949	-0.889604	-0.527925
H120	H	-0.604705	-0.973083	-0.624202
H121	H	-0.707766	-0.973150	-0.546998
H122	H	-0.701014	-0.891354	-0.618850
H123	H	-0.530775	-0.932934	-0.492127
H124	H	-0.524161	-0.851184	-0.564036
H125	H	-0.921074	-0.965429	-0.469989
O126	O	-0.910015	-1.052264	-0.555190
C127	C	-0.801599	-1.148417	-0.619349
C128	C	-0.847698	-1.119025	-0.541326
H129	H	-0.751188	-1.202388	-0.608164
H130	H	-0.868036	-1.164198	-0.661083
H131	H	-0.751385	-1.100381	-0.646558
H132	H	-0.897900	-1.167026	-0.514048
H133	H	-0.781211	-1.103221	-0.499645
