data_functionalizedCrystal
_audit_creation_method	'MofGen! by Chris Wilmer'
_symmetry_space_group_name_H-M	'P1'
_symmetry_Int_Tables_number	1
_symmetry_cell_setting	triclinic
loop_
_symmetry_equiv_pos_as_xyz
  x,y,z
_cell_length_a	14.044191
_cell_length_b	27.732048
_cell_length_c	12.503572
_cell_angle_alpha	93.489054
_cell_angle_beta	86.162165
_cell_angle_gamma	87.917216
loop_
_atom_site_label
_atom_site_type_symbol
_atom_site_fract_x
_atom_site_fract_y
_atom_site_fract_z
O1	O	1.261504	0.113917	-0.089290
O2	O	0.985597	0.109711	-0.089303
O3	O	1.132118	0.041820	-0.089276
O4	O	1.114983	0.181808	-0.089317
O5	O	1.121099	0.046935	0.089364
O6	O	0.974577	0.114826	0.089337
O7	O	1.250485	0.119032	0.089350
Cu8	Cu	1.111525	0.117396	0.105655
Cu9	Cu	1.124557	0.111347	-0.105608
O10	O	1.103963	0.186923	0.089323
C11	C	0.944800	0.110428	0.000016
C12	C	0.839654	0.104940	0.000012
C13	C	0.588944	0.133831	0.000014
C14	C	0.647143	0.094914	0.000024
C15	C	0.754266	0.100494	0.000017
C16	C	0.481811	0.128252	0.000020
C17	C	1.126249	0.026354	0.000047
C18	C	1.125165	-0.027351	0.000056
C19	C	1.204934	-0.362424	0.000005
C20	C	1.200915	-0.564272	-0.000011
O21	O	1.273858	-0.592105	-0.000054
N22	N	1.114033	-0.587475	-0.000014
C23	C	1.028150	-0.560212	-0.000020
O24	O	0.954160	-0.584578	-0.000034
C25	C	1.032170	-0.358364	-0.000012
C26	C	1.119057	-0.335164	0.000002
C27	C	1.291814	-0.339224	0.000017
C28	C	1.292817	-0.288764	0.000027
C29	C	1.206940	-0.261505	0.000024
C30	C	1.120060	-0.284705	0.000011
C31	C	0.946289	-0.331102	-0.000026
C32	C	0.947301	-0.280637	-0.000027
C33	C	1.034188	-0.257438	-0.000013
C34	C	1.035187	-0.206986	0.000018
N35	N	1.122069	-0.183784	0.000021
C36	C	1.207946	-0.211043	0.000024
C37	C	1.026046	-0.666185	-0.000022
C38	C	1.025040	-0.716646	-0.000022
C39	C	1.197806	-0.720704	-0.000014
C40	C	1.198810	-0.670241	-0.000007
C41	C	1.112928	-0.642982	-0.000019
C42	C	1.210046	-0.105075	0.000045
C43	C	1.211041	-0.054611	0.000059
C44	C	1.038277	-0.050558	0.000046
C45	C	1.037280	-0.101018	0.000038
C46	C	1.123173	-0.128275	0.000034
O47	O	0.962284	-0.179123	0.000049
O48	O	1.281926	-0.186668	0.000014
C49	C	1.203930	-0.412883	-0.000005
C50	C	1.117050	-0.436083	-0.000018
C51	C	1.031174	-0.408824	-0.000021
C52	C	1.116045	-0.486545	-0.000018
C53	C	1.201922	-0.513804	-0.000015
C54	C	1.288804	-0.490602	-0.000012
C55	C	1.289807	-0.440142	-0.000002
C56	C	0.944292	-0.432026	-0.000024
C57	C	0.943295	-0.482485	-0.000032
C58	C	1.029172	-0.509745	-0.000029
C59	C	1.291282	0.118315	0.000029
C60	C	1.396428	0.123803	0.000026
C61	C	1.109833	0.202389	-0.000003
C62	C	1.110917	0.256094	-0.000019
N63	N	1.102366	0.121651	0.254245
N64	N	1.133723	0.107089	-0.254198
C65	C	1.088893	0.127914	0.473358
C66	C	1.147193	0.100828	0.526696
C67	C	1.139696	0.104312	0.648618
C68	C	1.096388	0.124429	0.351425
H69	H	1.279988	-0.127262	0.000037
O70	O	1.015335	0.162104	0.534146
H71	H	0.966415	0.141260	0.585407
O72	O	0.606588	0.045226	0.000028
H73	H	0.527593	0.048582	0.000018
H74	H	0.954287	-0.735530	-0.000014
O75	O	1.381427	-0.520011	-0.000003
H76	H	1.442018	-0.495405	0.000013
O77	O	0.629502	0.183515	-0.000015
H78	H	0.708497	0.180155	-0.000028
O79	O	0.943571	-0.126045	0.000026
H80	H	0.884025	-0.098610	0.000021
O81	O	1.386532	-0.263745	0.000011
H82	H	1.446072	-0.291185	-0.000006
O83	O	1.383521	-0.415123	0.000007
H84	H	1.392602	-0.394307	-0.072798
H85	H	0.874359	-0.409836	-0.000029
H86	H	1.281798	-0.035724	0.000073
O87	O	1.384444	-0.368621	0.000036
H88	H	1.445015	-0.344003	0.000056
O89	O	0.945654	-0.021152	0.000047
H90	H	0.946477	-0.000147	-0.072767
O91	O	1.292523	-0.645219	-0.000012
H92	H	1.352064	-0.672657	-0.000018
H93	H	0.875536	-0.349983	-0.000044
H94	H	1.202736	0.075022	0.480793
H95	H	0.956106	-0.643995	-0.000031
O96	O	1.290435	-0.750109	-0.000019
H97	H	1.275130	-0.789094	-0.000030
H98	H	0.877364	-0.258446	-0.000039
H99	H	0.872536	-0.501370	-0.000034
