data_functionalizedCrystal
_audit_creation_method	'MofGen! by Chris Wilmer'
_symmetry_space_group_name_H-M	'P1'
_symmetry_Int_Tables_number	1
_symmetry_cell_setting	triclinic
loop_
_symmetry_equiv_pos_as_xyz
  x,y,z
_cell_length_a	14.971487
_cell_length_b	26.210047
_cell_length_c	27.732048
_cell_angle_alpha	90.000479
_cell_angle_beta	96.871471
_cell_angle_gamma	89.997125
loop_
_atom_site_label
_atom_site_type_symbol
_atom_site_fract_x
_atom_site_fract_y
_atom_site_fract_z
O1	O	-1.185956	0.042362	0.062984
O2	O	-0.925437	0.042379	0.070527
O3	O	-1.063788	0.042360	-0.003603
O4	O	-1.047606	0.042381	0.137115
O5	O	-1.063761	-0.042498	-0.003592
O6	O	-0.925410	-0.042479	0.070539
O7	O	-1.185930	-0.042496	0.062996
Cu8	Cu	-1.055668	-0.050236	0.066769
Cu9	Cu	-1.055699	0.050119	0.066755
O10	O	-1.047579	-0.042477	0.137127
C11	C	-0.892104	-0.000047	0.070196
C12	C	-0.792823	-0.000041	0.069185
C13	C	-0.734910	-0.000035	0.112735
C14	C	-0.641626	-0.000041	0.111782
C15	C	-0.606256	-0.000051	0.067278
C16	C	-0.664177	-0.000058	0.023725
C17	C	-0.757460	-0.000056	0.024679
C18	C	-0.469746	-0.000063	0.021741
C19	C	-0.376457	-0.000065	0.020787
C20	C	-0.353912	-0.000049	0.108844
C21	C	-0.447194	-0.000046	0.109798
C22	C	-0.505109	-0.000053	0.066244
N23	N	-1.055652	-0.120820	0.066778
C24	C	-1.116955	-0.473342	0.033937
C25	C	-1.116974	-0.687001	0.033930
O26	O	-1.169062	-0.714630	0.006010
N27	N	-1.055704	-0.713714	0.066744
C28	C	-0.994421	-0.687008	0.099560
O29	O	-0.942301	-0.714632	0.127467
C30	C	-0.994397	-0.473351	0.099564
C31	C	-1.055678	-0.446641	0.066751
C32	C	-1.178229	-0.446632	0.001127
C33	C	-1.178227	-0.393221	0.001131
C34	C	-1.116950	-0.366519	0.033945
C35	C	-1.055675	-0.393229	0.066755
C36	C	-0.933110	-0.446647	0.132377
C37	C	-0.933108	-0.393229	0.132374
C38	C	-0.994389	-0.366519	0.099561
C39	C	-0.994396	-0.313116	0.099573
N40	N	-1.055666	-0.286404	0.066759
C41	C	-1.116943	-0.313105	0.033945
C42	C	-0.994438	-0.799182	0.099556
C43	C	-0.994445	-0.852596	0.099556
C44	C	-1.116998	-0.852585	0.033926
C45	C	-1.116995	-0.799169	0.033929
C46	C	-1.055709	-0.772469	0.066742
C47	C	-1.116934	-0.200937	0.033956
C48	C	-1.116929	-0.147521	0.033964
C49	C	-0.994373	-0.147537	0.099592
C50	C	-0.994381	-0.200949	0.099586
C51	C	-1.055665	-0.227647	0.066764
O52	O	-0.942329	-0.285454	0.127475
O53	O	-1.169042	-0.285472	0.006035
C54	C	-1.116957	-0.526754	0.033933
C55	C	-1.055682	-0.553464	0.066744
C56	C	-0.994405	-0.526762	0.099558
C57	C	-1.055689	-0.606878	0.066743
C58	C	-1.116966	-0.633579	0.033929
C59	C	-1.178236	-0.606866	0.001115
C60	C	-1.178234	-0.553455	0.001119
C61	C	-0.933135	-0.553475	0.132372
C62	C	-0.933143	-0.606887	0.132366
C63	C	-0.994420	-0.633588	0.099551
C64	C	-0.219262	-0.000065	0.063327
C65	C	-0.318544	-0.000059	0.064337
C66	C	-1.063435	-0.000070	-0.021606
C67	C	-1.062412	-0.000074	-0.075266
N68	N	-1.055722	0.120703	0.066742
C69	C	-1.137729	-0.000053	-0.413733
C70	C	-1.133934	-0.000046	-0.615410
O71	O	-1.202806	-0.000028	-0.646348
N72	N	-1.051897	-0.000041	-0.634913
C73	C	-0.970804	-0.000034	-0.603992
O74	O	-0.900940	-0.000024	-0.625208
C75	C	-0.974600	-0.000038	-0.402316
C76	C	-1.056642	-0.000048	-0.382817
C77	C	-1.219764	-0.000063	-0.394233
C78	C	-1.220712	-0.000067	-0.343817
C79	C	-1.139625	-0.000062	-0.312901
C80	C	-1.057590	-0.000053	-0.332401
C81	C	-0.893508	-0.000028	-0.371397
C82	C	-0.894464	-0.000027	-0.320975
C83	C	-0.976506	-0.000037	-0.301476
C84	C	-0.977451	-0.000052	-0.251068
N85	N	-1.059487	-0.000057	-0.231565
C86	C	-1.140574	-0.000062	-0.262482
C87	C	-0.968817	-0.000033	-0.709876
C88	C	-0.967868	-0.000033	-0.760295
C89	C	-1.130998	-0.000044	-0.771709
C90	C	-1.131946	-0.000048	-0.721289
C91	C	-1.050853	-0.000038	-0.690373
C92	C	-1.142558	-0.000073	-0.156603
C93	C	-1.143499	-0.000079	-0.106182
C94	C	-0.980370	-0.000066	-0.094772
C95	C	-0.979428	-0.000062	-0.145189
C96	C	-1.060530	-0.000063	-0.176104
O97	O	-0.908616	-0.000064	-0.220102
O98	O	-1.210428	-0.000061	-0.241257
C99	C	-1.136781	-0.000049	-0.464150
C100	C	-1.054746	-0.000039	-0.483649
C101	C	-0.973659	-0.000034	-0.452733
C102	C	-1.053797	-0.000039	-0.534068
C103	C	-1.134884	-0.000044	-0.564985
C104	C	-1.216920	-0.000049	-0.545482
C105	C	-1.217868	-0.000054	-0.495066
C106	C	-0.891623	-0.000029	-0.472236
C107	C	-0.890681	-0.000025	-0.522652
C108	C	-0.971768	-0.000030	-0.553569
C109	C	-1.047932	-0.000046	0.155130
C110	C	-1.048955	-0.000038	0.208789
H111	H	-0.306753	-0.000046	0.144307
H112	H	-0.763699	-0.000027	0.148974
H113	H	-0.883199	-0.371492	0.159095
H114	H	-0.901061	-0.000034	-0.776166
H115	H	-1.166834	-0.125775	0.007244
H116	H	-0.902778	-0.000026	-0.684708
H117	H	-0.804613	-0.000060	-0.010784
H118	H	-0.944490	-0.222696	0.126310
H119	H	-0.944485	-0.125788	0.126310
H120	H	-0.594475	-0.000036	0.147244
H121	H	-1.228134	-0.531711	-0.025600
H122	H	-0.914351	-0.000064	-0.069591
H123	H	-0.883210	-0.468387	0.159096
H124	H	-0.944554	-0.874340	0.126280
H125	H	-0.826701	-0.000016	-0.387264
H126	H	-0.475988	-0.000034	0.146036
H127	H	-1.284675	-0.000062	-0.479194
H128	H	-0.944530	-0.777446	0.126278
H129	H	-1.287518	-0.000074	-0.327946
H130	H	-0.912624	-0.000068	-0.161066
H131	H	-1.228134	-0.628615	-0.025602
H132	H	-0.347663	-0.000074	-0.015451
H133	H	-0.828427	-0.000019	-0.295805
H134	H	-0.883243	-0.628630	0.159090
H135	H	-0.883235	-0.531739	0.159092
H136	H	-1.210310	-0.000089	-0.090309
H137	H	-1.208599	-0.000072	-0.181769
H138	H	-1.285798	-0.000065	-0.419401
H139	H	-0.516898	-0.000070	-0.013725
H140	H	-1.198751	-0.000055	-0.705417
H141	H	-1.197022	-0.000048	-0.796890
H142	H	-0.635373	-0.000073	-0.012510
H143	H	-1.282944	-0.000055	-0.570663
H144	H	-0.823868	-0.000021	-0.538523
H145	H	-0.825590	-0.000023	-0.447068
H146	H	-1.166836	-0.222669	0.007228
H147	H	-1.228124	-0.371476	-0.025590
H148	H	-1.166894	-0.777425	0.007210
H149	H	-1.228128	-0.468368	-0.025597
H150	H	-1.166894	-0.874334	0.007208
