data_functionalizedCrystal
_audit_creation_method	'MofGen! by Chris Wilmer'
_symmetry_space_group_name_H-M	'P1'
_symmetry_Int_Tables_number	1
_symmetry_cell_setting	triclinic
loop_
_symmetry_equiv_pos_as_xyz
  x,y,z
_cell_length_a	14.044220
_cell_length_b	12.784905
_cell_length_c	11.892095
_cell_angle_alpha	86.511728
_cell_angle_beta	94.243827
_cell_angle_gamma	83.148098
loop_
_atom_site_label
_atom_site_type_symbol
_atom_site_fract_x
_atom_site_fract_y
_atom_site_fract_z
O1	O	-0.000676	1.417047	-0.094010
O2	O	0.039602	1.111411	-0.094012
O3	O	-0.118143	1.259641	-0.094000
O4	O	0.157069	1.268818	-0.094022
O5	O	-0.105009	1.247280	0.094007
O6	O	0.052736	1.099051	0.093995
O7	O	0.012458	1.404686	0.093997
Zn8	Zn	0.034682	1.249906	0.123846
Zn9	Zn	0.017378	1.266192	-0.123861
O10	O	0.170203	1.256457	0.093984
C11	C	0.048789	1.065880	-0.000009
C12	C	0.056583	0.948625	-0.000009
C13	C	-0.146559	1.249444	0.000004
C14	C	-0.250798	1.237464	0.000005
C15	C	-0.102219	0.737185	-0.000016
C16	C	-0.094900	0.627014	-0.000017
C17	C	0.078539	0.618111	-0.000018
C18	C	0.071220	0.728282	-0.000018
C19	C	-0.019162	0.787815	-0.000015
C20	C	-0.026480	0.897988	-0.000007
C21	C	0.146958	0.889083	-0.000016
C22	C	0.154277	0.778912	-0.000017
C23	C	-0.441655	1.215564	-0.000011
C24	C	-0.506291	1.300530	-0.000014
C25	C	-0.612491	1.288344	-0.000023
C26	C	-0.335445	1.227748	-0.000002
C27	C	0.198619	1.266654	-0.000022
C28	C	0.302857	1.278634	-0.000030
C29	C	0.003271	1.450218	-0.000009
C30	C	-0.004524	1.567473	-0.000016
N31	N	0.046491	1.238799	0.292899
N32	N	0.005561	1.277307	-0.292914
C33	C	-0.076663	1.354590	0.529556
C34	C	-0.068403	1.346834	0.647897
C35	C	0.071267	1.215528	0.647925
C36	C	0.063007	1.223283	0.529584
C37	C	-0.010960	1.292818	0.470403
C38	C	-0.019216	1.300578	0.352060
C39	C	0.120450	1.169266	0.352089
C40	C	0.128710	1.161511	0.470431
H41	H	-0.175811	0.785658	-0.000007
H42	H	-0.481875	1.382430	-0.000089
O43	O	0.151023	1.140516	0.711771
H44	H	0.195319	1.098850	0.650760
H45	H	0.227863	0.730425	-0.000024
H46	H	0.214590	0.930317	-0.000010
O47	O	-0.099012	1.375548	0.288231
H48	H	-0.093722	1.370564	0.196002
O49	O	-0.139261	1.413475	0.711695
H50	H	-0.213069	1.394585	0.688983
O51	O	-0.473990	1.107086	0.000006
H52	H	-0.553540	1.114418	0.000015
H53	H	-0.136884	1.411215	0.481371
H54	H	0.188931	1.104894	0.518629
O55	O	-0.184483	0.572405	-0.000001
H56	H	-0.232828	0.600727	-0.076622
O57	O	-0.123957	0.962206	-0.000007
H58	H	-0.180482	0.908487	-0.000020
O59	O	0.176017	0.553893	-0.000012
H60	H	0.167148	0.468778	-0.000004
H61	H	0.173952	1.118970	0.303914
