data_functionalizedCrystal
_audit_creation_method	'MofGen! by Chris Wilmer'
_symmetry_space_group_name_H-M	'P1'
_symmetry_Int_Tables_number	1
_symmetry_cell_setting	triclinic
loop_
_symmetry_equiv_pos_as_xyz
  x,y,z
_cell_length_a	12.759401
_cell_length_b	18.050590
_cell_length_c	18.050582
_cell_angle_alpha	89.976663
_cell_angle_beta	89.988208
_cell_angle_gamma	90.017597
loop_
_atom_site_label
_atom_site_type_symbol
_atom_site_fract_x
_atom_site_fract_y
_atom_site_fract_z
Zn1	Zn	1.606157	-0.295726	-0.419847
Zn2	Zn	1.606060	-0.419909	-0.295655
Zn3	Zn	1.430480	-0.295735	-0.295677
Zn4	Zn	1.430436	-0.419876	-0.419810
O5	O	1.518283	-0.357811	-0.357747
O6	O	1.753165	-0.312208	-0.403378
O7	O	1.582747	-0.403455	-0.191733
O8	O	1.453843	-0.191809	-0.312173
O9	O	1.753094	-0.403445	-0.312135
O10	O	1.582912	-0.191802	-0.403400
O11	O	1.453749	-0.312225	-0.191750
O12	O	1.283453	-0.312193	-0.312138
O13	O	1.453768	-0.403390	-0.523740
O14	O	1.283421	-0.403399	-0.403338
O15	O	1.582869	-0.312177	-0.523766
O16	O	1.582704	-0.523829	-0.312100
O17	O	1.453674	-0.523805	-0.403316
C18	C	1.245316	-0.357794	-0.357737
C19	C	1.128539	-0.357804	-0.357750
C20	C	1.073707	-0.310387	-0.405334
C21	C	0.963983	-0.310401	-0.405339
C22	C	0.963933	-0.405257	-0.310174
C23	C	1.073655	-0.405238	-0.310166
C24	C	1.128592	-0.262953	-0.452919
C25	C	1.073759	-0.215533	-0.500507
C26	C	0.964035	-0.215547	-0.500512
C27	C	0.909143	-0.262982	-0.452928
C28	C	1.518202	-0.550764	-0.357718
C29	C	1.518264	-0.633309	-0.357730
C30	C	1.588577	-0.832746	-0.308196
C31	C	1.614233	-0.882085	-0.375975
C32	C	1.518324	-0.784440	-0.357759
C33	C	1.492774	-0.882182	-0.290011
C34	C	1.518383	-0.930425	-0.357782
C35	C	1.544029	-0.832691	-0.425574
C36	C	1.422526	-0.832784	-0.339565
C37	C	1.448146	-0.882101	-0.407390
C38	C	1.518292	-0.700341	-0.357745
C39	C	1.518415	-1.014521	-0.357804
C40	C	1.792316	-0.357829	-0.357758
C41	C	1.909093	-0.357837	-0.357763
C42	C	1.518324	-0.357778	-0.551453
C43	C	1.518342	-0.357764	-0.633999
C44	C	1.518393	-0.164106	-0.357793
C45	C	1.518440	-0.081560	-0.357813
C46	C	1.448190	-0.407298	-0.833435
C47	C	1.544047	-0.425453	-0.882822
C48	C	1.518394	-0.357708	-0.785129
C49	C	1.422589	-0.339533	-0.882824
C50	C	1.518435	-0.357654	-0.931114
C51	C	1.614301	-0.375898	-0.833429
C52	C	1.492779	-0.289946	-0.833426
C53	C	1.588702	-0.308075	-0.882791
C54	C	1.518368	-0.357740	-0.701031
C55	C	1.518471	-0.357622	-1.015211
C56	C	1.518303	-0.357791	-0.164795
C57	C	1.518489	-0.357596	-0.082250
H58	H	1.217934	-0.262936	-0.452920
C59	C	1.369088	-0.463349	-0.804676
C60	C	1.320566	-0.498641	-0.864616
C61	C	1.247706	-0.550286	-0.838151
H62	H	1.317664	-0.438660	-0.775732
H63	H	1.404011	-0.499141	-0.775015
H64	H	1.285643	-0.462854	-0.894264
H65	H	1.371963	-0.523344	-0.893565
H66	H	1.282630	-0.586078	-0.808491
H67	H	1.196290	-0.525592	-0.809208
H68	H	1.214782	-0.574243	-0.878816
H69	H	1.118300	-0.443850	-0.271419
C70	C	1.667981	-0.803883	-0.252462
C71	C	1.768170	-0.828848	-0.271875
C72	C	1.841346	-0.802265	-0.220561
H73	H	1.650619	-0.821538	-0.204420
H74	H	1.667031	-0.751254	-0.252537
H75	H	1.769117	-0.881466	-0.271792
H76	H	1.785565	-0.811195	-0.319908
H77	H	1.840396	-0.749637	-0.220636
H78	H	1.823974	-0.819922	-0.172522
H79	H	1.909333	-0.819195	-0.233729
H80	H	1.695272	-0.903742	-0.391379
H81	H	0.819799	-0.262974	-0.452920
H82	H	1.695362	-0.391313	-0.811824
H83	H	1.648157	-0.266115	-0.904326
C84	C	1.314598	-0.319106	-0.911900
C85	C	1.316288	-0.318714	-0.989457
C86	C	1.216822	-0.299917	-1.016266
H87	H	1.295806	-0.271320	-0.894341
H88	H	1.264769	-0.354418	-0.895043
H89	H	1.366101	-0.283403	-1.006306
H90	H	1.335062	-0.366493	-1.007036
H91	H	1.166993	-0.335229	-0.999409
H92	H	1.198038	-0.252131	-0.998701
H93	H	1.217953	-0.299655	-1.068890
C94	C	1.133407	-0.164157	-0.552257
C95	C	1.196388	-0.206267	-0.599790
C96	C	1.251338	-0.158965	-0.647479
H97	H	1.176292	-0.131739	-0.523992
H98	H	1.085068	-0.135930	-0.580639
H99	H	1.244722	-0.234482	-0.571411
H100	H	1.153530	-0.238684	-0.628071
H101	H	1.202998	-0.130738	-0.675861
H102	H	1.294216	-0.126549	-0.619208
H103	H	1.294069	-0.187530	-0.679740
H104	H	0.919231	-0.443877	-0.271435
H105	H	1.565583	-0.811045	-0.482927
C106	C	1.369099	-0.910781	-0.463470
C107	C	1.396366	-0.885581	-0.534268
C108	C	1.323586	-0.911995	-0.585949
H109	H	1.301190	-0.893169	-0.451046
H110	H	1.369157	-0.963411	-0.462935
H111	H	1.396296	-0.832961	-0.534801
H112	H	1.464263	-0.903191	-0.546715
H113	H	1.323644	-0.964626	-0.585414
H114	H	1.255681	-0.894381	-0.573518
H115	H	1.342081	-0.894907	-0.633992
C116	C	1.463704	-0.911125	-0.213629
C117	C	1.364046	-0.885089	-0.194257
C118	C	1.337236	-0.911741	-0.123903
H119	H	1.513562	-0.894243	-0.178393
H120	H	1.463244	-0.963752	-0.214287
H121	H	1.364514	-0.832473	-0.193593
H122	H	1.314167	-0.901969	-0.229474
H123	H	1.336776	-0.964369	-0.124562
H124	H	1.387100	-0.894858	-0.088673
H125	H	1.269613	-0.894086	-0.110753
H126	H	1.565738	-0.482735	-0.904520
C127	C	1.463606	-0.213617	-0.804504
C128	C	1.363156	-0.194901	-0.829470
C129	C	1.336229	-0.124597	-0.802831
H130	H	1.512693	-0.178169	-0.822119
H131	H	1.464376	-0.214075	-0.751875
H132	H	1.362394	-0.194437	-0.882088
H133	H	1.314047	-0.230330	-0.811857
H134	H	1.336998	-0.125055	-0.750203
H135	H	1.385321	-0.089155	-0.820449
H136	H	1.268067	-0.111892	-0.819761
H137	H	0.919394	-0.176929	-0.539255
C138	C	1.314407	-0.803983	-0.319101
C139	C	1.240838	-0.830093	-0.370376
C140	C	1.141226	-0.803584	-0.351533
H141	H	1.314871	-0.751363	-0.319703
H142	H	1.296268	-0.820922	-0.270935
H143	H	1.258972	-0.813150	-0.418529
H144	H	1.240341	-0.882710	-0.369781
H145	H	1.123087	-0.820523	-0.303367
H146	H	1.141701	-0.750965	-0.352136
H147	H	1.091296	-0.821301	-0.386316
