data_functionalizedCrystal
_audit_creation_method	'MofGen! by Chris Wilmer'
_symmetry_space_group_name_H-M	'P1'
_symmetry_Int_Tables_number	1
_symmetry_cell_setting	triclinic
loop_
_symmetry_equiv_pos_as_xyz
  x,y,z
_cell_length_a	14.628931
_cell_length_b	18.426585
_cell_length_c	14.628931
_cell_angle_alpha	60.002003
_cell_angle_beta	90.000118
_cell_angle_gamma	59.999036
loop_
_atom_site_label
_atom_site_type_symbol
_atom_site_fract_x
_atom_site_fract_y
_atom_site_fract_z
Zr1	Zr	0.880614	0.794348	-0.119922
O2	O	0.734651	0.945748	-0.265876
O3	O	0.925360	0.642948	-0.075184
O4	O	0.925358	0.794348	-0.265883
O5	O	0.734653	0.794348	0.075254
O6	O	1.075790	0.794347	-0.265883
O7	O	0.734653	0.794348	-0.075178
O8	O	1.075793	0.523522	0.075242
O9	O	0.734651	1.065174	-0.265870
O10	O	1.056708	0.705221	-0.056098
O11	O	0.944443	0.705221	0.056167
O12	O	0.944441	0.883474	-0.168356
O13	O	0.832176	0.883475	-0.056090
Zr14	Zr	1.120536	0.794347	0.120000
Zr15	Zr	1.120536	0.794347	-0.119922
Zr16	Zr	0.880614	0.794348	0.119999
Zr17	Zr	0.880612	0.984819	-0.119913
Zr18	Zr	1.120537	0.603876	0.119991
O19	O	1.075790	0.945747	0.075262
O20	O	1.075789	0.945747	-0.265876
O21	O	0.734652	0.945748	0.075261
O22	O	1.266498	0.642948	0.265954
O23	O	1.266498	0.642948	-0.075184
O24	O	0.925360	0.642948	0.265953
O25	O	1.266497	0.794347	-0.075177
O26	O	1.075791	0.794347	0.265960
O27	O	0.925359	0.794348	0.265960
O28	O	1.266497	0.794347	0.075255
O29	O	0.925357	1.065174	-0.265870
O30	O	1.075793	0.523522	0.265948
O31	O	1.266499	0.523521	0.265948
O32	O	1.266499	0.523521	0.075242
O33	O	0.734651	1.065174	-0.075165
O34	O	0.925357	1.065174	-0.075165
O35	O	1.056709	0.705221	0.168433
O36	O	1.168974	0.705221	0.056168
O37	O	1.056707	0.883474	-0.056090
O38	O	0.944442	0.883474	0.056176
C39	C	0.700469	0.794348	0.000038
C40	C	0.598616	0.794349	0.000038
C41	C	1.000576	0.556097	0.000028
C42	C	1.000577	0.475237	0.000024
C43	C	0.608899	0.705923	0.055725
C44	C	0.503630	0.705921	0.055727
C45	C	1.000571	0.179127	0.000056
C46	C	1.000569	0.261514	0.000050
C47	C	1.000573	0.327180	0.000039
C48	C	1.000574	0.409571	0.000034
C49	C	1.300681	0.794347	0.000039
C50	C	1.402534	0.794347	0.000039
C51	C	1.000574	0.794348	-0.300066
C52	C	1.000574	0.794348	-0.401919
C53	C	1.000573	1.032598	0.000050
C54	C	1.000573	1.113459	0.000054
C55	C	1.079334	0.794347	-0.447329
C56	C	1.079335	0.794347	-0.552599
C57	C	1.000576	0.794348	0.300144
C58	C	1.000576	0.794348	0.401997
C59	C	1.300682	0.556096	0.000028
C60	C	1.402536	0.475236	0.000024
C61	C	1.000577	0.556097	0.300133
C62	C	1.000578	0.475237	0.401982
C63	C	1.300683	0.556096	0.300133
C64	C	1.402537	0.475236	0.401983
C65	C	0.700467	1.032599	-0.300056
C66	C	0.598613	1.113459	-0.401905
C67	C	0.700468	1.032599	0.000050
C68	C	0.598614	1.113459	0.000053
C69	C	1.000573	1.032598	-0.300055
C70	C	1.000572	1.113459	-0.401904
C71	C	1.391766	0.437263	-0.058589
C72	C	1.487459	0.361297	-0.058615
C73	C	1.593921	0.323299	-0.000020
C74	C	1.604689	0.361280	0.058595
C75	C	1.508997	0.437250	0.058614
C76	C	1.059180	0.437264	0.508423
C77	C	1.059176	0.361298	0.604130
C78	C	1.000576	0.323301	0.593394
C79	C	0.941967	0.361281	0.486942
C80	C	0.941965	0.437251	0.391237
C81	C	1.508980	0.437263	0.391211
C82	C	1.604691	0.361297	0.486900
C83	C	1.593957	0.323299	0.593360
C84	C	1.487503	0.361280	0.604129
C85	C	1.391794	0.437250	0.508441
C86	C	0.492170	1.151442	-0.391133
C87	C	0.396458	1.227432	-0.486822
C88	C	0.407192	1.265433	-0.593282
C89	C	0.513647	1.227447	-0.604052
C90	C	0.609356	1.151464	-0.508364
C91	C	0.609384	1.151440	0.058657
C92	C	0.513691	1.227428	0.058656
C93	C	0.407229	1.265428	0.000058
C94	C	0.396461	1.227444	-0.058553
C95	C	0.492153	1.151463	-0.058558
C96	C	1.059183	1.151431	-0.391132
C97	C	1.059204	1.227398	-0.486821
C98	C	1.000607	1.265396	-0.593281
C99	C	0.941994	1.227415	-0.604051
C100	C	0.941980	1.151445	-0.508363
H101	H	0.695636	0.630220	0.103405
H102	H	0.894286	1.258365	-0.690744
H103	H	0.329251	1.327303	-0.671188
H104	H	1.478669	0.330382	-0.106346
Cl105	Cl	0.868278	1.103726	-0.521925
H106	H	1.305127	0.468158	0.517228
Cl107	Cl	1.132860	0.485013	0.521950
H108	H	1.000587	0.261441	0.671332
H109	H	0.511879	0.870052	-0.047635
H110	H	1.146766	0.794342	-0.408269
H111	H	0.309788	1.258346	-0.478031
Cl112	Cl	0.527254	1.275158	0.132349
H113	H	0.483409	1.120505	-0.304457
H114	H	1.691362	0.330380	0.478111
H115	H	0.512259	0.630217	0.103395
Cl116	Cl	0.868293	0.484973	0.257429
H117	H	0.522373	1.258398	-0.690743
Cl118	Cl	0.389193	0.911239	-0.073583
H119	H	0.696024	1.120539	-0.517148
H120	H	1.146761	0.794353	-0.591652
H121	H	0.894257	0.330333	0.478217
H122	H	0.696063	1.120506	0.106382
H123	H	0.933139	0.794353	-0.558963
H124	H	0.933149	0.794342	-0.440973
Cl125	Cl	1.257939	0.485020	-0.132266
H126	H	1.106900	1.120506	-0.304456
Cl127	Cl	1.714210	0.227790	-0.000052
Cl128	Cl	1.738536	0.313496	0.132258
H129	H	0.483368	1.120541	-0.106277
Cl130	Cl	1.132867	0.313563	0.737942
Cl131	Cl	1.522556	0.484971	0.132316
H132	H	1.517741	0.468189	0.304534
Cl133	Cl	1.714290	0.227791	0.713644
Cl134	Cl	1.474028	0.313500	0.737974
H135	H	0.329319	1.327296	0.000071
Cl136	Cl	0.262614	1.275222	-0.132208
H137	H	1.106932	1.258314	-0.478030
H138	H	1.000627	1.327256	-0.671187
