data_functionalizedCrystal
_audit_creation_method	'MofGen! by Chris Wilmer'
_symmetry_space_group_name_H-M	'P1'
_symmetry_Int_Tables_number	1
_symmetry_cell_setting	triclinic
loop_
_symmetry_equiv_pos_as_xyz
  x,y,z
_cell_length_a	16.992694
_cell_length_b	14.519709
_cell_length_c	15.455313
_cell_angle_alpha	92.669068
_cell_angle_beta	87.142206
_cell_angle_gamma	87.174184
loop_
_atom_site_label
_atom_site_type_symbol
_atom_site_fract_x
_atom_site_fract_y
_atom_site_fract_z
O1	O	1.044092	0.191795	-0.072025
O2	O	0.815805	0.189648	-0.072051
O3	O	0.936001	0.056918	-0.072029
O4	O	0.923896	0.324525	-0.072046
O5	O	0.929127	0.064474	0.072232
O6	O	0.808932	0.197205	0.072210
O7	O	1.037219	0.199352	0.072236
Cu8	Cu	0.922447	0.198968	0.085395
Cu9	Cu	0.930576	0.190031	-0.085210
O10	O	0.917023	0.332082	0.072215
C11	C	0.783152	0.190666	0.000077
C12	C	0.696097	0.182430	0.000067
C13	C	0.932000	0.026296	0.000101
C14	C	0.930309	-0.076207	0.000102
C15	C	0.645968	0.261890	0.000063
C16	C	0.564170	0.254147	0.000075
C17	C	0.532502	0.166943	0.000086
C18	C	0.582638	0.087478	0.000093
C19	C	0.664434	0.095222	0.000087
C20	C	0.288859	0.134847	0.000111
C21	C	0.207056	0.127109	0.000115
C22	C	0.188594	0.293779	0.000099
C23	C	0.270393	0.301515	0.000087
C24	C	0.320520	0.222050	0.000099
N25	N	0.448892	0.159027	0.000096
N26	N	0.404129	0.229968	0.000095
C27	C	0.924087	-0.451550	0.000078
C28	C	0.925815	-0.347118	0.000085
C29	C	0.927198	-0.263882	0.000091
C30	C	0.928926	-0.159443	0.000096
C31	C	1.069872	0.198333	0.000107
C32	C	1.156927	0.206569	0.000111
C33	C	0.921024	0.362704	0.000082
C34	C	0.922715	0.465206	0.000076
N35	N	0.916736	0.205254	0.205390
N36	N	0.936294	0.183739	-0.205204
C37	C	0.967817	0.148889	0.250793
C38	C	0.963505	0.153651	0.341600
C39	C	0.908115	0.214784	0.387002
C40	C	0.857028	0.271151	0.341593
C41	C	0.861337	0.266383	0.250787
C42	C	0.889516	0.235339	0.658581
C43	C	0.885212	0.240104	0.749392
C44	C	0.991689	0.122602	0.749393
C45	C	0.995996	0.117844	0.658586
C46	C	0.944907	0.174208	0.613185
N47	N	0.903708	0.219655	0.479822
N48	N	0.949311	0.169331	0.520367
H49	H	0.523358	0.318852	0.000071
C50	C	0.343309	0.048616	0.000290
C51	C	0.387269	0.052064	0.074516
C52	C	0.437435	-0.027365	0.074713
H53	H	0.378062	0.045460	-0.049960
H54	H	0.312761	-0.004451	0.000339
H55	H	0.417815	0.105116	0.074460
H56	H	0.352537	0.055206	0.124779
H57	H	0.406886	-0.080431	0.074762
H58	H	0.472182	-0.030514	0.024460
H59	H	0.467262	-0.025040	0.125079
H60	H	0.847918	0.281234	0.621622
H61	H	0.811924	0.320923	0.378565
C62	C	0.805837	0.327692	0.201646
C63	C	0.756420	0.382269	0.260840
C64	C	0.705287	0.438765	0.215604
H65	H	0.774757	0.290327	0.166230
H66	H	0.835757	0.366375	0.166230
H67	H	0.726503	0.343590	0.296241
H68	H	0.787479	0.419653	0.296257
H69	H	0.735207	0.477448	0.180188
H70	H	0.674212	0.401392	0.180190
H71	H	0.671756	0.475808	0.255760
C72	C	0.718735	0.008838	0.000042
C73	C	0.673498	-0.069191	0.000028
C74	C	0.723492	-0.148786	-0.000022
H75	H	0.748656	0.010899	0.050333
H76	H	0.753406	0.005708	-0.050287
H77	H	0.638840	-0.066060	0.050352
H78	H	0.643578	-0.071282	-0.050260
H79	H	0.758163	-0.151917	-0.050351
H80	H	0.753411	-0.146715	0.050270
H81	H	0.692807	-0.201738	-0.000040
C82	C	0.304656	0.396255	-0.000063
C83	C	0.282683	0.440751	-0.074277
C84	C	0.314217	0.528034	-0.074447
H85	H	0.360551	0.389632	-0.000115
H86	H	0.285042	0.431911	0.050214
H87	H	0.302301	0.405103	-0.124541
H88	H	0.226793	0.447397	-0.074241
H89	H	0.294603	0.563690	-0.024170
H90	H	0.370111	0.521403	-0.074496
H91	H	0.299307	0.558239	-0.124795
C92	C	0.680192	0.356656	0.000095
C93	C	0.618778	0.424586	0.000118
C94	C	0.650271	0.511897	0.000162
H95	H	0.714093	0.360639	-0.050201
H96	H	0.709304	0.365826	0.050419
H97	H	0.589679	0.415418	-0.050202
H98	H	0.584871	0.420633	0.050410
H99	H	0.679383	0.521067	0.050486
H100	H	0.684172	0.515870	-0.050135
H101	H	0.608607	0.557998	0.000185
C102	C	1.047110	0.061244	0.798580
C103	C	1.035324	-0.031492	0.776488
C104	C	1.086370	-0.088048	0.821773
H105	H	1.036665	0.072712	0.859175
H106	H	1.100183	0.074310	0.783673
H107	H	0.982264	-0.044553	0.791400
H108	H	1.045775	-0.042989	0.715901
H109	H	1.139442	-0.074983	0.806867
H110	H	1.075920	-0.076573	0.882367
H111	H	1.078385	-0.150976	0.806785
H112	H	0.147771	0.358475	0.000091
H113	H	1.012925	0.099112	0.213832
C114	C	0.172823	0.032345	0.000169
C115	C	0.234228	-0.035590	0.000200
C116	C	0.202721	-0.122892	0.000257
H117	H	0.143702	0.023096	-0.050124
H118	H	0.138925	0.028452	0.050496
H119	H	0.268112	-0.031700	-0.050122
H120	H	0.263354	-0.026372	0.050490
H121	H	0.168824	-0.126785	0.050584
H122	H	0.173601	-0.132131	-0.050037
H123	H	0.244379	-0.168996	0.000286
C124	C	0.824981	0.306495	0.798532
C125	C	0.781143	0.354815	0.739337
C126	C	0.725645	0.415967	0.784572
H127	H	0.851461	0.348934	0.833950
H128	H	0.790579	0.272755	0.833946
H129	H	0.815539	0.388554	0.703938
H130	H	0.754645	0.312401	0.703917
H131	H	0.691244	0.382226	0.819986
H132	H	0.752132	0.458399	0.819988
H133	H	0.695890	0.448753	0.744416
H134	H	1.005099	0.107754	0.378567
H135	H	1.041099	0.068065	0.621621
H136	H	0.556847	0.016475	0.000114
