data_functionalizedCrystal
_audit_creation_method	'MofGen! by Chris Wilmer'
_symmetry_space_group_name_H-M	'P1'
_symmetry_Int_Tables_number	1
_symmetry_cell_setting	triclinic
loop_
_symmetry_equiv_pos_as_xyz
  x,y,z
_cell_length_a	6.817900
_cell_length_b	17.982968
_cell_length_c	19.551136
_cell_angle_alpha	96.150956
_cell_angle_beta	101.650842
_cell_angle_gamma	102.451960
loop_
_atom_site_label
_atom_site_type_symbol
_atom_site_fract_x
_atom_site_fract_y
_atom_site_fract_z
V1	V	-4.005978	-0.237926	-0.097332
O2	O	-4.003197	-0.233011	0.004004
O3	O	-3.948683	-0.236670	-0.192346
O4	O	-3.952598	-0.341525	-0.096131
O5	O	-3.999255	-0.127431	-0.092877
V6	V	-4.491404	-0.224665	-0.085176
O7	O	-4.263062	-0.267016	-0.123997
O8	O	-4.684516	-0.195575	-0.058511
O9	O	-4.325492	-0.225921	0.009837
O10	O	-4.611582	-0.229580	-0.186512
O11	O	-4.615523	-0.335160	-0.089631
O12	O	-4.321577	-0.121067	-0.086378
C13	C	-3.791681	-0.233013	-0.215499
C14	C	-3.826090	-0.232676	-0.293175
C15	C	-3.806393	-0.162698	-0.319473
C16	C	-3.838796	-0.162359	-0.392456
C17	C	-3.890856	-0.232001	-0.439139
C18	C	-3.910565	-0.301988	-0.412834
C19	C	-3.878182	-0.302326	-0.339852
C20	C	-3.852940	-0.282497	-0.560289
C21	C	-3.885309	-0.282156	-0.633269
C22	C	-3.990747	-0.230962	-0.664240
C23	C	-4.063781	-0.180096	-0.622220
C24	C	-4.031397	-0.180434	-0.549238
C25	C	-3.925976	-0.231642	-0.518277
C26	C	-4.006186	-0.160611	-0.769674
C27	C	-4.038603	-0.160275	-0.842660
C28	C	-4.110352	-0.299906	-0.863036
C29	C	-4.077954	-0.300241	-0.790052
C30	C	-4.025863	-0.230591	-0.743375
C31	C	-3.796674	-0.366764	-0.092766
C32	C	-3.834254	-0.451459	-0.092412
C33	C	-4.033502	-0.495143	-0.095747
C34	C	-4.068801	-0.574723	-0.095414
C35	C	-3.904852	-0.610617	-0.091751
C36	C	-3.705586	-0.566926	-0.088414
C37	C	-3.670288	-0.487347	-0.088742
C38	C	-3.847938	-0.887858	-0.087090
C39	C	-3.883254	-0.967443	-0.086765
C40	C	-4.246451	-0.975233	-0.093763
C41	C	-4.211152	-0.895654	-0.094091
C42	C	-4.011889	-0.851970	-0.090750
C43	C	-3.973616	-0.765681	-0.091109
C44	C	-3.943125	-0.696905	-0.091397
C45	C	-4.145835	-0.229576	0.032986
C46	C	-4.090665	-0.229918	0.110662
C47	C	-4.140843	-0.095823	-0.089745
C48	C	-4.082502	-0.011128	-0.090095
H49	H	-4.152742	-0.356610	-0.901045
C50	C	-3.948840	-0.083999	-0.718323
C51	C	-3.913147	-0.084365	-0.638044
C52	C	-3.855769	-0.007753	-0.586694
C53	C	-3.834084	0.069226	-0.615624
C54	C	-3.869778	0.069595	-0.695908
C55	C	-3.927155	-0.007018	-0.747257
H56	H	-3.929199	-0.141352	-0.616625
H57	H	-3.829347	-0.008026	-0.527263
H58	H	-3.791610	0.125939	-0.577612
H59	H	-3.853726	0.126582	-0.717327
H60	H	-3.953578	-0.006744	-0.806688
H61	H	-4.090869	-0.139018	-0.515029
H62	H	-3.825832	-0.323572	-0.667476
H63	H	-3.749734	-0.996664	-0.083780
H64	H	-3.763992	-0.105984	-0.281472
H65	H	-3.685704	-0.852303	-0.084395
H66	H	-3.822752	-0.105373	-0.413872
H67	H	-4.149620	-0.138404	-0.647434
C68	C	-4.016931	-0.083293	-0.871588
C69	C	-4.155831	-0.029369	-0.856521
C70	C	-4.134154	0.047615	-0.885449
C71	C	-3.973577	0.070676	-0.929443
C72	C	-3.834666	0.016751	-0.944512
C73	C	-3.856343	-0.060233	-0.915584
H74	H	-4.274709	-0.046439	-0.823952
H75	H	-4.236986	0.087533	-0.874293
H76	H	-3.957530	0.127664	-0.950857
H77	H	-3.715787	0.033821	-0.977081
H78	H	-3.753511	-0.100151	-0.926739
H79	H	-4.093980	-0.357224	-0.768641
C80	C	-3.736935	-0.338810	-0.526224
C81	C	-3.656564	-0.394747	-0.572437
C82	C	-3.540561	-0.451057	-0.538373
C83	C	-3.504929	-0.451429	-0.458096
C84	C	-3.585301	-0.395489	-0.411878
C85	C	-3.701305	-0.339179	-0.445942
H86	H	-3.682940	-0.394473	-0.631868
H87	H	-3.481064	-0.492467	-0.572587
H88	H	-3.419056	-0.493112	-0.432879
H89	H	-3.558926	-0.395763	-0.352447
H90	H	-3.760802	-0.297769	-0.411728
H91	H	-4.231043	-0.610287	-0.098126
H92	H	-3.572096	-0.596156	-0.085427
H93	H	-3.508033	-0.451777	-0.086008
H94	H	-3.952957	-0.358691	-0.450848
H95	H	-4.408702	-1.010810	-0.096481
H96	H	-3.894230	-0.359312	-0.318443
H97	H	-4.167016	-0.465925	-0.098735
H98	H	-4.344662	-0.866434	-0.097078
