data_functionalizedCrystal
_audit_creation_method	'MofGen! by Chris Wilmer'
_symmetry_space_group_name_H-M	'P1'
_symmetry_Int_Tables_number	1
_symmetry_cell_setting	triclinic
loop_
_symmetry_equiv_pos_as_xyz
  x,y,z
_cell_length_a	18.215407
_cell_length_b	18.215405
_cell_length_c	18.215398
_cell_angle_alpha	89.976051
_cell_angle_beta	90.017408
_cell_angle_gamma	89.982358
loop_
_atom_site_label
_atom_site_type_symbol
_atom_site_fract_x
_atom_site_fract_y
_atom_site_fract_z
Zn1	Zn	-1.125084	-0.293096	-0.416083
Zn2	Zn	-0.791751	0.040237	-0.082750
Zn3	Zn	-0.458417	0.373570	0.250584
Zn4	Zn	-1.124999	-0.416162	-0.293020
Zn5	Zn	-0.791666	-0.082829	0.040313
Zn6	Zn	-0.458333	0.250505	0.373647
Zn7	Zn	-1.002017	-0.293104	-0.293035
Zn8	Zn	-0.668684	0.040229	0.040299
Zn9	Zn	-0.335351	0.373562	0.373632
Zn10	Zn	-1.001988	-0.416116	-0.416049
Zn11	Zn	-0.668655	-0.082783	-0.082716
Zn12	Zn	-0.335322	0.250551	0.250617
O13	O	-1.063522	-0.354620	-0.354547
O14	O	-0.730189	-0.021286	-0.021213
O15	O	-0.396856	0.312047	0.312120
O16	O	-1.228057	-0.309437	-0.399766
O17	O	-0.894724	0.023896	-0.066433
O18	O	-0.561390	0.357230	0.266900
O19	O	-1.108662	-0.399861	-0.190038
O20	O	-0.775329	-0.066527	0.143296
O21	O	-0.441995	0.266806	0.476629
O22	O	-1.018390	-0.190119	-0.309378
O23	O	-0.685056	0.143214	0.023956
O24	O	-0.351723	0.476548	0.357289
O25	O	-1.227995	-0.399853	-0.309352
O26	O	-0.894661	-0.066519	0.023981
O27	O	-0.561328	0.266814	0.357314
O28	O	-1.108806	-0.190113	-0.399781
O29	O	-0.775473	0.143220	-0.066447
O30	O	-0.442140	0.476554	0.266886
O31	O	-1.018308	-0.309451	-0.190049
O32	O	-0.684974	0.023882	0.143285
O33	O	-0.351641	0.357216	0.476618
O34	O	-0.899029	-0.309406	-0.309345
O35	O	-0.565696	0.023927	0.023988
O36	O	-0.232363	0.357260	0.357322
O37	O	-1.018341	-0.399775	-0.519038
O38	O	-0.685007	-0.066441	-0.185705
O39	O	-0.351674	0.266892	0.147629
O40	O	-0.899008	-0.399783	-0.399723
O41	O	-0.565675	-0.066449	-0.066390
O42	O	-0.232341	0.266884	0.266943
O43	O	-1.108778	-0.309392	-0.519063
O44	O	-0.775445	0.023941	-0.185729
O45	O	-0.442112	0.357274	0.147604
O46	O	-1.108634	-0.519140	-0.309320
O47	O	-0.775301	-0.185807	0.024014
O48	O	-0.441967	0.147526	0.357347
O49	O	-1.018259	-0.519106	-0.399709
O50	O	-0.684925	-0.185773	-0.066375
O51	O	-0.351592	0.147560	0.266958
C52	C	-0.872316	-0.354591	-0.354532
C53	C	-0.538983	-0.021258	-0.021199
C54	C	-0.205649	0.312076	0.312134
C55	C	-0.790517	-0.354596	-0.354544
C56	C	-0.457184	-0.021263	-0.021210
C57	C	-0.123850	0.312070	0.312123
C58	C	-0.602354	-0.307608	-0.401695
C59	C	-0.269021	0.025726	-0.068362
C60	C	0.064312	0.359059	0.264971
C61	C	-0.525496	-0.307612	-0.401697
C62	C	-0.192162	0.025722	-0.068364
C63	C	0.141171	0.359055	0.264969
C64	C	-0.525442	-0.401620	-0.307404
C65	C	-0.192109	-0.068287	0.025929
C66	C	0.141225	0.265046	0.359263
C67	C	-0.602299	-0.401612	-0.307399
C68	C	-0.268966	-0.068279	0.025935
C69	C	0.064367	0.265054	0.359268
C70	C	-0.640754	-0.354607	-0.354549
C71	C	-0.307420	-0.021274	-0.021215
C72	C	0.025913	0.312060	0.312118
C73	C	-0.487037	-0.354619	-0.354556
C74	C	-0.153704	-0.021286	-0.021222
C75	C	0.179629	0.312048	0.312111
C76	C	-0.403704	-0.354624	-0.354557
C77	C	-0.070370	-0.021290	-0.021224
C78	C	0.262963	0.312043	0.312109
C79	C	-0.724093	-0.354601	-0.354546
C80	C	-0.390759	-0.021268	-0.021213
C81	C	-0.057426	0.312065	0.312120
C82	C	-1.063454	-0.545826	-0.354525
C83	C	-0.730121	-0.212493	-0.021192
C84	C	-0.396787	0.120841	0.312142
C85	C	-1.063492	-0.627625	-0.354540
C86	C	-0.730159	-0.294291	-0.021207
C87	C	-0.396826	0.039042	0.312126
C88	C	-1.063566	-0.354577	-0.546500
C89	C	-0.730232	-0.021244	-0.213166
C90	C	-0.396899	0.312089	0.120167
C91	C	-1.063584	-0.354559	-0.628299
C92	C	-0.730251	-0.021226	-0.294965
C93	C	-0.396918	0.312107	0.038368
C94	C	-0.255475	-0.354641	-0.354560
C95	C	0.077858	-0.021308	-0.021226
C96	C	0.411192	0.312026	0.312107
C97	C	-0.337274	-0.354630	-0.354561
C98	C	-0.003941	-0.021296	-0.021227
C99	C	0.329393	0.312037	0.312106
C100	C	-1.110616	-0.892622	-0.401685
C101	C	-0.777283	-0.559288	-0.068352
C102	C	-0.443949	-0.225955	0.264982
C103	C	-1.110591	-0.815763	-0.401674
C104	C	-0.777258	-0.482429	-0.068340
C105	C	-0.443925	-0.149096	0.264993
C106	C	-1.016523	-0.815877	-0.307451
C107	C	-0.683189	-0.482543	0.025882
C108	C	-0.349856	-0.149210	0.359216
C109	C	-1.016551	-0.892734	-0.307459
C110	C	-0.683218	-0.559401	0.025874
C111	C	-0.349885	-0.226067	0.359208
C112	C	-1.063597	-0.931104	-0.354580
C113	C	-0.730264	-0.597771	-0.021247
C114	C	-0.396930	-0.264438	0.312086
C115	C	-1.063543	-0.777388	-0.354561
C116	C	-0.730210	-0.444055	-0.021228
C117	C	-0.396877	-0.110722	0.312106
C118	C	-1.063516	-0.694055	-0.354548
C119	C	-0.730183	-0.360721	-0.021215
C120	C	-0.396850	-0.027388	0.312118
C121	C	-1.063625	-1.014443	-0.354592
C122	C	-0.730292	-0.681110	-0.021259
C123	C	-0.396959	-0.347777	0.312075
C124	C	-1.063611	-0.162667	-0.354585
C125	C	-0.730277	0.170667	-0.021251
C126	C	-0.396944	0.504000	0.312082
C127	C	-1.063648	-0.080868	-0.354601
C128	C	-0.730315	0.252465	-0.021268
C129	C	-0.396982	0.585799	0.312066
C130	C	-1.110665	-0.401545	-0.893355
C131	C	-0.777332	-0.068212	-0.560022
C132	C	-0.443999	0.265122	-0.226688
C133	C	-1.110654	-0.401570	-0.816496
C134	C	-0.777321	-0.068237	-0.483163
C135	C	-0.443988	0.265096	-0.149830
C136	C	-1.016559	-0.307432	-0.816491
C137	C	-0.683226	0.025902	-0.483158
C138	C	-0.349892	0.359235	-0.149824
C139	C	-1.016567	-0.307411	-0.893348
C140	C	-0.683234	0.025923	-0.560015
C141	C	-0.349900	0.359256	-0.226682
C142	C	-1.063624	-0.354466	-0.931778
C143	C	-0.730291	-0.021133	-0.598445
C144	C	-0.396958	0.312201	-0.265112
C145	C	-1.063605	-0.354513	-0.778062
C146	C	-0.730272	-0.021179	-0.444729
C147	C	-0.396938	0.312154	-0.111396
C148	C	-1.063593	-0.354540	-0.694729
C149	C	-0.730259	-0.021207	-0.361395
C150	C	-0.396926	0.312127	-0.028062
C151	C	-1.063636	-0.354440	-1.015117
C152	C	-0.730303	-0.021106	-0.681784
C153	C	-0.396969	0.312227	-0.348451
C154	C	-1.063521	-0.354609	-0.163340
C155	C	-0.730188	-0.021275	0.169993
C156	C	-0.396854	0.312058	0.503326
C157	C	-1.063645	-0.354419	-0.081542
C158	C	-0.730312	-0.021086	0.251791
C159	C	-0.396978	0.312247	0.585125
H160	H	-0.633565	-0.439886	-0.269002
H161	H	-0.300231	-0.106552	0.064331
H162	H	0.033102	0.226781	0.397664
C163	C	-1.162368	-0.934830	-0.453509
C164	C	-0.829034	-0.601497	-0.120176
C165	C	-0.495701	-0.268164	0.213158
H166	H	-1.155648	-0.986116	-0.446774
H167	H	-0.822314	-0.652783	-0.113440
H168	H	-0.488981	-0.319449	0.219893
H169	H	-1.211816	-0.922206	-0.442784
H170	H	-0.878483	-0.588873	-0.109451
H171	H	-0.545150	-0.255539	0.223883
H172	H	-1.151556	-0.922215	-0.502947
H173	H	-0.818223	-0.588882	-0.169613
H174	H	-0.484890	-0.255548	0.163720
C175	C	-1.162309	-0.773431	-0.453489
C176	C	-0.828976	-0.440098	-0.120156
C177	C	-0.495643	-0.106765	0.213178
H178	H	-1.155562	-0.722162	-0.446732
H179	H	-0.822229	-0.388829	-0.113399
H180	H	-0.488895	-0.055495	0.219935
H181	H	-1.151511	-0.786007	-0.502927
H182	H	-0.818177	-0.452674	-0.169593
H183	H	-0.484844	-0.119340	0.163740
H184	H	-1.211770	-0.786002	-0.442764
H185	H	-0.878437	-0.452669	-0.109430
H186	H	-0.545103	-0.119335	0.223903
H187	H	-0.978257	-0.269072	-0.924633
H188	H	-0.644923	0.064261	-0.591300
H189	H	-0.311590	0.397594	-0.257967
H190	H	-0.978218	-0.784628	-0.269087
H191	H	-0.644885	-0.451294	0.064246
H192	H	-0.311551	-0.117961	0.397580
H193	H	-0.978262	-0.924067	-0.269097
H194	H	-0.644929	-0.590734	0.064237
H195	H	-0.311596	-0.257401	0.397570
C196	C	-1.162398	-0.453356	-0.774230
C197	C	-0.829065	-0.120022	-0.440897
C198	C	-0.495731	0.213311	-0.107564
H199	H	-1.155650	-0.446637	-0.722952
H200	H	-0.822316	-0.113304	-0.389619
H201	H	-0.488983	0.220029	-0.056286
H202	H	-1.211851	-0.442587	-0.786835
H203	H	-0.878517	-0.109254	-0.453502
H204	H	-0.545184	0.224080	-0.120168
H205	H	-1.151604	-0.502800	-0.786821
H206	H	-0.818271	-0.169467	-0.453487
H207	H	-0.484938	0.163867	-0.120154
H208	H	-1.148982	-0.439861	-0.924643
H209	H	-0.815649	-0.106528	-0.591309
H210	H	-0.482315	0.226805	-0.257976
C211	C	-0.483260	-0.255916	-0.453562
C212	C	-0.149926	0.077417	-0.120229
C213	C	0.183407	0.410751	0.213104
H214	H	-0.517172	-0.227927	-0.481644
H215	H	-0.183838	0.105407	-0.148311
H216	H	0.149495	0.438740	0.185023
H217	H	-0.453274	-0.223815	-0.425471
H218	H	-0.119941	0.109519	-0.092138
H219	H	0.213393	0.442852	0.241196
H220	H	-0.453284	-0.284119	-0.485583
H221	H	-0.119951	0.049215	-0.152249
H222	H	0.213382	0.382548	0.181084
H223	H	-0.633662	-0.269331	-0.440086
H224	H	-0.300328	0.064003	-0.106752
H225	H	0.033005	0.397336	0.226581
C226	C	-0.964807	-0.255668	-0.774216
C227	C	-0.631474	0.077665	-0.440882
C228	C	-0.298141	0.410999	-0.107549
H229	H	-0.971545	-0.262417	-0.722939
H230	H	-0.638211	0.070917	-0.389605
H231	H	-0.304878	0.404250	-0.056272
H232	H	-0.915356	-0.266427	-0.786798
H233	H	-0.582023	0.066906	-0.453464
H234	H	-0.248690	0.400240	-0.120131
H235	H	-0.975606	-0.206217	-0.786823
H236	H	-0.642273	0.127116	-0.453490
H237	H	-0.308939	0.460450	-0.120156
H238	H	-0.494123	-0.439891	-0.269017
H239	H	-0.160790	-0.106558	0.064317
H240	H	0.172544	0.226776	0.397650
