data_functionalizedCrystal
_audit_creation_method	'MofGen! by Chris Wilmer'
_symmetry_space_group_name_H-M	'P1'
_symmetry_Int_Tables_number	1
_symmetry_cell_setting	triclinic
loop_
_symmetry_equiv_pos_as_xyz
  x,y,z
_cell_length_a	16.959447
_cell_length_b	15.297475
_cell_length_c	15.297327
_cell_angle_alpha	91.625546
_cell_angle_beta	80.355411
_cell_angle_gamma	99.680832
loop_
_atom_site_label
_atom_site_type_symbol
_atom_site_fract_x
_atom_site_fract_y
_atom_site_fract_z
Zn1	Zn	-0.728477	-1.278622	0.580754
Zn2	Zn	-0.228477	-0.778622	1.080754
Zn3	Zn	-0.614641	-1.253167	0.727221
Zn4	Zn	-0.114641	-0.753167	1.227221
Zn5	Zn	-0.570301	-1.132157	0.555406
Zn6	Zn	-0.070301	-0.632157	1.055406
Zn7	Zn	-0.720763	-1.106765	0.701788
Zn8	Zn	-0.220763	-0.606765	1.201788
O9	O	-0.658545	-1.192678	0.641292
O10	O	-0.158545	-0.692678	1.141292
O11	O	-0.735161	-1.397811	0.621436
O12	O	-0.235161	-0.897811	1.121436
O13	O	-0.498149	-1.237089	0.704465
O14	O	0.001851	-0.737089	1.204465
O15	O	-0.575955	-1.172865	0.436210
O16	O	-0.075955	-0.672865	0.936210
O17	O	-0.651526	-1.379110	0.729045
O18	O	-0.151526	-0.879110	1.229045
O19	O	-0.692166	-1.280472	0.454834
O20	O	-0.192166	-0.780472	0.954834
O21	O	-0.465573	-1.148183	0.578233
O22	O	0.034427	-0.648183	1.078233
O23	O	-0.568475	-1.006222	0.553571
O24	O	-0.068475	-0.506222	1.053571
O25	O	-0.832395	-1.129588	0.685697
O26	O	-0.332395	-0.629588	1.185697
O27	O	-0.679019	-0.987567	0.661117
O28	O	-0.179019	-0.487567	1.161117
O29	O	-0.838063	-1.255851	0.596774
O30	O	-0.338063	-0.755851	1.096774
O31	O	-0.644046	-1.212468	0.846406
O32	O	-0.144046	-0.712468	1.346406
O33	O	-0.722013	-1.104906	0.827720
O34	O	-0.222013	-0.604906	1.327720
C35	C	-0.618099	-0.965115	0.601834
C36	C	-0.118099	-0.465115	1.101834
C37	C	-0.600817	-0.867758	0.584975
C38	C	-0.100817	-0.367758	1.084975
C39	C	-0.864711	-1.192727	0.641226
C40	C	-0.364711	-0.692727	1.141226
C41	C	-0.952566	-1.192748	0.641198
C42	C	-0.452566	-0.692748	1.141198
C43	C	-0.687026	-1.153193	0.868845
C44	C	-0.187026	-0.653193	1.368845
C45	C	-0.699250	-1.136382	0.966207
C46	C	-0.199250	-0.636382	1.466207
C47	C	-1.321101	-1.127129	0.687422
C48	C	-0.821101	-0.627129	1.187422
C49	C	-1.326998	-1.258607	0.594826
C50	C	-0.826998	-0.758607	1.094826
C51	C	-1.244450	-1.258581	0.594840
C52	C	-0.744450	-0.758581	1.094840
C53	C	-1.200224	-1.192828	0.641147
C54	C	-0.700224	-0.692828	1.141147
C55	C	-1.238546	-1.127102	0.687440
C56	C	-0.738546	-0.627102	1.187440
C57	C	-1.206124	-1.324311	0.548556
C58	C	-0.706124	-0.824311	1.048556
C59	C	-1.123571	-1.324287	0.548570
C60	C	-0.623571	-0.824287	1.048570
C61	C	-1.079343	-1.258530	0.594872
C62	C	-0.579343	-0.758530	1.094872
C63	C	-1.117669	-1.192801	0.641165
C64	C	-0.617669	-0.692801	1.141165
C65	C	-1.073443	-1.127049	0.687472
C66	C	-0.573443	-0.627049	1.187472
C67	C	-1.111767	-1.061315	0.733761
C68	C	-0.611767	-0.561315	1.233761
C69	C	-1.194317	-1.061345	0.733742
C70	C	-0.694317	-0.561345	1.233742
C71	C	-0.996792	-1.258500	0.594891
C72	C	-0.496792	-0.758500	1.094891
C73	C	-0.990888	-1.127021	0.687490
C74	C	-0.490888	-0.627021	1.187490
C75	C	-0.453183	-1.192690	0.641304
C76	C	0.046817	-0.692690	1.141304
C77	C	-0.365327	-1.192882	0.641115
C78	C	0.134673	-0.692882	1.141115
C79	C	-0.699150	-1.421129	0.680905
C80	C	-0.199150	-0.921129	1.180905
C81	C	-0.716454	-1.518482	0.697786
C82	C	-0.216454	-1.018482	1.197786
C83	C	-0.782064	-0.554513	0.761794
C84	C	-0.282064	-0.054513	1.261794
C85	C	-0.798299	-0.645983	0.777641
C86	C	-0.298299	-0.145983	1.277641
C87	C	-0.748930	-0.701431	0.729476
C88	C	-0.248930	-0.201431	1.229476
C89	C	-0.683322	-0.665401	0.665461
C90	C	-0.183322	-0.165401	1.165461
C91	C	-0.667081	-0.573921	0.649618
C92	C	-0.167081	-0.073921	1.149618
C93	C	-0.633948	-0.720839	0.617299
C94	C	-0.133948	-0.220839	1.117299
C95	C	-0.568340	-0.684809	0.553285
C96	C	-0.068340	-0.184809	1.053285
C97	C	-0.552103	-0.593338	0.537444
C98	C	-0.052103	-0.093338	1.037444
C99	C	-0.601471	-0.537890	0.585609
C100	C	-0.101471	-0.037890	1.085609
C101	C	-0.650189	-0.812319	0.633143
C102	C	-0.150189	-0.312319	1.133143
C103	C	-0.535207	-0.831727	0.520966
C104	C	-0.035207	-0.331727	1.020966
C105	C	-0.518971	-0.740257	0.505120
C106	C	-0.018971	-0.240257	1.005120
C107	C	-0.629975	-1.232340	0.412855
C108	C	-0.129975	-0.732340	0.912855
C109	C	-0.617800	-1.249242	0.315509
C110	C	-0.117800	-0.749242	0.815509
C111	C	-0.571507	-1.313193	1.279477
C112	C	-0.071507	-0.813193	1.779477
C113	C	-0.560018	-1.328987	1.188001
C114	C	-0.060018	-0.828987	1.688001
C115	C	-0.594825	-1.280838	1.132548
C116	C	-0.094825	-0.780838	1.632548
C117	C	-0.641124	-1.216890	1.168580
C118	C	-0.141124	-0.716890	1.668580
C119	C	-0.652609	-1.201089	1.260065
C120	C	-0.152609	-0.701089	1.760065
C121	C	-0.675927	-1.168734	1.113136
C122	C	-0.175927	-0.668734	1.613136
C123	C	-0.722226	-1.104786	1.149168
C124	C	-0.222226	-0.604786	1.649168
C125	C	-0.733710	-1.088988	1.240644
C126	C	-0.233710	-0.588988	1.740644
C127	C	-0.698902	-1.137138	1.296096
C128	C	-0.198902	-0.637138	1.796096
C129	C	-0.664441	-1.184535	1.021651
C130	C	-0.164441	-0.684535	1.521651
C131	C	-0.745543	-1.072431	1.002239
C132	C	-0.245543	-0.572431	1.502239
C133	C	-0.757033	-1.056636	1.093715
C134	C	-0.257033	-0.556636	1.593715
H135	H	-0.954883	-1.073470	0.725190
H136	H	-0.454883	-0.573470	1.225190
H137	H	-0.522321	-1.381052	1.158667
H138	H	-0.022321	-0.881052	1.658667
H139	H	-0.465553	-0.710908	0.452999
H140	H	0.034447	-0.210908	0.952999
H141	H	-0.794730	-1.004569	1.123066
H142	H	-0.294730	-0.504569	1.623066
Br143	Br	-0.944787	-1.347709	0.532086
Br144	Br	-0.444787	-0.847709	1.032086
Br145	Br	-0.887332	-0.694875	0.864517
Br146	Br	-0.387332	-0.194875	1.364517
H147	H	-0.543166	-1.352384	1.324633
H148	H	-0.043166	-0.852384	1.824633
H149	H	-0.822248	-0.509359	0.801009
H150	H	-0.322248	-0.009359	1.301009
H151	H	-0.773885	-1.033221	0.957088
H152	H	-0.273885	-0.533221	1.457088
Br153	Br	-0.739225	-0.861206	0.720017
Br154	Br	-0.239225	-0.361206	1.220017
H155	H	-1.352307	-1.073608	0.725106
H156	H	-0.852307	-0.573608	1.225106
H157	H	-1.092375	-1.377811	0.510878
H158	H	-0.592375	-0.877811	1.010878
H159	H	-0.588257	-0.463407	0.572709
H160	H	-0.088257	0.036593	1.072709
Br161	Br	-1.051739	-0.972089	0.796612
Br162	Br	-0.551739	-0.472089	1.296612
H163	H	-1.363013	-1.312144	0.557130
H164	H	-0.863013	-0.812144	1.057130
Br165	Br	-0.463056	-0.544439	0.450577
Br166	Br	0.036944	-0.044439	0.950577
H167	H	-0.495006	-0.876873	0.481747
H168	H	0.004994	-0.376873	0.981747
H169	H	-0.626744	-1.236601	0.992322
H170	H	-0.126744	-0.736601	1.492322
H171	H	-0.762154	-0.775910	0.742382
H172	H	-0.262154	-0.275910	1.242382
Br173	Br	-0.714070	-1.115312	1.420180
Br174	Br	-0.214070	-0.615312	1.920180
H175	H	-0.771398	-1.036907	1.269976
H176	H	-0.271398	-0.536907	1.769976
H177	H	-1.242140	-1.377847	0.510862
H178	H	-0.742140	-0.877847	1.010862
Br179	Br	-0.579517	-1.302539	1.008446
Br180	Br	-0.079517	-0.802539	1.508446
H181	H	-1.225529	-1.007831	0.771431
H182	H	-0.725529	-0.507831	1.271431
