data_functionalizedCrystal
_audit_creation_method	'MofGen! by Chris Wilmer'
_symmetry_space_group_name_H-M	'P1'
_symmetry_Int_Tables_number	1
_symmetry_cell_setting	triclinic
loop_
_symmetry_equiv_pos_as_xyz
  x,y,z
_cell_length_a	14.395555
_cell_length_b	27.440280
_cell_length_c	14.395555
_cell_angle_alpha	90.004690
_cell_angle_beta	60.002398
_cell_angle_gamma	59.995745
loop_
_atom_site_label
_atom_site_type_symbol
_atom_site_fract_x
_atom_site_fract_y
_atom_site_fract_z
Zr1	Zr	1.016723	0.469472	-0.121801
O2	O	1.210537	0.391648	-0.270146
O3	O	0.822916	0.493333	-0.076324
O4	O	1.016711	0.493329	-0.270119
O5	O	1.016749	0.391652	0.076517
O6	O	1.016693	0.573531	-0.270100
O7	O	1.016742	0.391653	-0.076351
O8	O	0.670029	0.573540	0.076564
O9	O	1.363413	0.391644	-0.270147
O10	O	0.902615	0.563360	-0.056916
O11	O	0.902634	0.503505	0.057152
O12	O	1.130802	0.503499	-0.171016
O13	O	1.130821	0.443644	-0.056947
Zr14	Zr	1.016705	0.597385	0.122035
Zr15	Zr	1.016694	0.597386	-0.121771
Zr16	Zr	1.016734	0.469471	0.122004
Zr17	Zr	1.260542	0.469465	-0.121804
Zr18	Zr	0.772886	0.597393	0.122037
O19	O	1.210512	0.573524	0.076558
O20	O	1.210496	0.573526	-0.270102
O21	O	1.210553	0.391647	0.076515
O22	O	0.822891	0.675210	0.270379
O23	O	0.822875	0.675211	-0.076281
O24	O	0.822931	0.493332	0.270336
O25	O	1.016679	0.675205	-0.076283
O26	O	1.016717	0.573529	0.270353
O27	O	1.016735	0.493326	0.270334
O28	O	1.016686	0.675205	0.076584
O29	O	1.363390	0.493318	-0.270123
O30	O	0.670038	0.573539	0.270356
O31	O	0.670015	0.675214	0.270381
O32	O	0.670006	0.675215	0.076588
O33	O	1.363421	0.391643	-0.076354
O34	O	1.363399	0.493318	-0.076330
O35	O	0.902626	0.563359	0.171250
O36	O	0.902607	0.623214	0.057181
O37	O	1.130794	0.563353	-0.056919
O38	O	1.130813	0.503498	0.057150
C39	C	0.711733	0.533438	0.000120
C40	C	0.608226	0.533441	0.000121
C41	C	0.547637	0.566071	-0.062085
C42	C	0.409528	0.589722	0.045188
C43	C	0.561900	0.509793	-0.107141
C44	C	0.471417	0.557125	0.107458
C45	C	0.623863	0.477165	-0.044949
C46	C	0.485763	0.500802	0.062389
C47	C	1.016750	0.373428	0.000079
C48	C	1.016762	0.319125	0.000066
C49	C	0.897581	0.013674	0.059707
C50	C	0.897574	-0.037345	0.059717
O51	O	0.796274	-0.037159	0.110404
N52	N	1.016684	-0.094108	0.000157
C53	C	1.135809	-0.099852	-0.059407
O54	O	1.237120	-0.152819	-0.110066
C55	C	1.135815	-0.048834	-0.059410
C56	C	1.016697	0.007928	0.000144
C57	C	0.778473	0.070434	0.119258
C58	C	0.778481	0.121449	0.119246
C59	C	0.897596	0.115703	0.059683
C60	C	1.016705	0.058943	0.000132
C61	C	1.254938	-0.054579	-0.118967
C62	C	1.254934	-0.003555	-0.118964
C63	C	1.135816	0.053208	-0.059410
C64	C	1.135828	0.104213	-0.059443
N65	N	1.016718	0.160976	0.000117
C66	C	0.897602	0.166721	0.059680
C67	C	1.135787	-0.206991	-0.059395
C68	C	1.135783	-0.258008	-0.059400
C69	C	0.897547	-0.195497	0.059726
C70	C	0.897553	-0.144479	0.059724
C71	C	1.016677	-0.150228	0.000165
C72	C	0.897628	0.273854	0.059650
C73	C	0.897646	0.324870	0.059628
C74	C	1.135881	0.262355	-0.059493
C75	C	1.135863	0.211342	-0.059477
C76	C	1.016726	0.217096	0.000103
O77	O	1.237076	0.104072	-0.110100
O78	O	0.796308	0.219689	0.110343
C79	C	1.321694	0.533420	0.000114
C80	C	1.425202	0.533417	0.000113
C81	C	1.016700	0.533430	-0.304847
C82	C	1.016695	0.533430	-0.408349
C83	C	1.016678	0.693430	0.000155
C84	C	1.016666	0.747733	0.000168
C85	C	0.892278	0.566072	-0.406725
C86	C	0.954484	0.509790	-0.499761
C87	C	0.954495	0.589699	-0.499741
C88	C	1.078902	0.477115	-0.500021
C89	C	1.078895	0.557065	-0.499987
C90	C	1.141192	0.500749	-0.593040
C91	C	1.016728	0.533428	0.305080
C92	C	1.016732	0.533427	0.408582
C93	C	0.711698	0.693439	0.000158
C94	C	0.608178	0.747745	0.000172
C95	C	0.711747	0.533437	0.305084
C96	C	0.608244	0.533439	0.408586
C97	C	0.711711	0.693438	0.305122
C98	C	0.608196	0.747743	0.408638
C99	C	1.321716	0.373420	-0.304888
C100	C	1.425231	0.319115	-0.408404
C101	C	1.321730	0.373419	0.000075
C102	C	1.425250	0.319113	0.000061
C103	C	1.321681	0.533421	-0.304850
C104	C	1.425184	0.533419	-0.408353
C105	C	0.559568	0.742004	-0.059389
C106	C	0.462314	0.793026	-0.059399
C107	C	0.413664	0.849787	0.000160
C108	C	0.462284	0.855526	0.059723
C109	C	0.559543	0.804506	0.059726
C110	C	0.559575	0.804495	0.397707
C111	C	0.462325	0.855525	0.494962
C112	C	0.413692	0.849803	0.603146
C113	C	0.462323	0.793046	0.614075
C114	C	0.559578	0.742017	0.516821
C115	C	1.473865	0.262363	-0.397473
C116	C	1.571145	0.211332	-0.494728
C117	C	1.619783	0.217054	-0.602913
C118	C	1.571146	0.273812	-0.613841
C119	C	1.473874	0.324841	-0.516587
C120	C	1.473870	0.324853	0.059612
C121	C	1.571151	0.273832	0.059595
C122	C	1.619804	0.217071	0.000033
C123	C	1.571180	0.211332	-0.059526
C124	C	1.473907	0.262352	-0.059514
C125	C	0.547664	0.500805	0.406965
C126	C	0.409549	0.557091	0.499998
C127	C	0.561905	0.477177	0.499984
C128	C	0.471430	0.589759	0.500256
C129	C	0.623860	0.509804	0.500228
C130	C	0.485754	0.566124	0.593278
H131	H	0.434027	0.577169	0.198207
H132	H	0.317888	0.637304	0.083311
F133	F	1.147593	0.414885	-0.498967
H134	H	1.434324	0.257670	-0.108005
H135	H	0.458745	0.473204	0.115064
H136	H	1.434264	0.371067	0.108123
F137	F	0.651698	0.181856	0.182639
H138	H	0.458721	0.593766	0.672913
F139	F	0.583075	0.464784	0.302707
H140	H	0.317920	0.577091	0.500930
H141	H	1.232780	-0.304223	-0.107910
F142	F	0.743672	0.414983	-0.094809
F143	F	0.422557	0.651987	0.499198
F144	F	0.611260	0.810624	0.123130
F145	F	0.610513	0.483668	-0.225696
F146	F	1.381726	-0.009679	-0.182354
H147	H	0.422740	0.788341	-0.107902
F148	F	0.743659	0.483646	0.498949
F149	F	0.610567	0.414974	0.501140
F150	F	0.770859	0.385282	0.123015
F151	F	0.310150	0.904083	0.000149
H152	H	1.610724	0.278517	0.108099
F153	F	1.422118	0.385239	-0.528238
H154	H	0.901908	0.489795	-0.500697
F155	F	1.622921	0.279892	-0.728988
F156	F	0.410491	0.915941	0.123109
H157	H	0.574710	0.593708	-0.114598
H158	H	0.422740	0.901735	0.486044
F159	F	1.723330	0.162775	0.000032
H160	H	1.232798	-0.211680	-0.107901
H161	H	0.599158	0.809165	0.309627
F162	F	1.278815	0.464618	-0.697132
H163	H	0.599178	0.695791	-0.107903
H164	H	0.800615	0.278547	0.108166
H165	H	1.610808	0.165110	-0.108020
F166	F	1.381722	-0.114982	-0.182346
H167	H	0.422711	0.788396	0.702171
H168	H	1.232858	0.165123	-0.107986
H169	H	0.681469	0.075122	0.167767
H170	H	1.232862	0.257687	-0.107991
F171	F	0.611308	0.681619	0.528472
F172	F	0.770773	-0.084071	0.123111
F173	F	0.770772	-0.189391	0.123120
H174	H	0.787074	0.593629	-0.326958
H175	H	0.334501	0.891360	0.682327
F176	F	1.622887	0.150933	-0.483074
F177	F	1.422115	0.256260	-0.282345
F178	F	1.723309	0.162739	-0.706410
H179	H	0.901884	0.637288	-0.500628
F180	F	1.147561	0.583216	-0.498710
