data_functionalizedCrystal
_audit_creation_method	'MofGen! by Chris Wilmer'
_symmetry_space_group_name_H-M	'P1'
_symmetry_Int_Tables_number	1
_symmetry_cell_setting	triclinic
loop_
_symmetry_equiv_pos_as_xyz
  x,y,z
_cell_length_a	16.109302
_cell_length_b	10.967829
_cell_length_c	15.186229
_cell_angle_alpha	77.868373
_cell_angle_beta	89.994701
_cell_angle_gamma	84.099565
loop_
_atom_site_label
_atom_site_type_symbol
_atom_site_fract_x
_atom_site_fract_y
_atom_site_fract_z
O1	O	1.104075	0.160397	-0.097606
O2	O	1.604075	0.660397	0.402394
O3	O	0.862131	0.180356	-0.100628
O4	O	1.362131	0.680356	0.399372
O5	O	0.988683	-0.011276	-0.071548
O6	O	1.488683	0.488724	0.428452
O7	O	0.977523	0.352029	-0.126685
O8	O	1.477523	0.852029	0.373315
O9	O	0.988674	-0.011278	0.074910
O10	O	1.488674	0.488722	0.574910
O11	O	0.862122	0.180354	0.045830
O12	O	1.362122	0.680354	0.545830
O13	O	1.104067	0.160394	0.048852
O14	O	1.604067	0.660394	0.548852
Zn15	Zn	0.983093	0.170374	0.070594
Zn16	Zn	1.483093	0.670374	0.570594
Zn17	Zn	0.983104	0.170377	-0.122370
Zn18	Zn	1.483104	0.670377	0.377630
O19	O	0.977515	0.352026	0.019772
O20	O	1.477515	0.852026	0.519772
C21	C	0.831147	0.179546	-0.027275
C22	C	1.331147	0.679546	0.472725
C23	C	0.738837	0.177122	-0.026905
C24	C	1.238837	0.677122	0.473095
C25	C	0.526459	0.171515	0.053772
C26	C	1.026459	0.671515	0.553772
C27	C	0.439725	0.169223	0.054116
C28	C	0.939725	0.669223	0.554116
C29	C	0.439745	0.169232	-0.105561
C30	C	0.939745	0.669232	0.394439
C31	C	0.526478	0.171515	-0.105903
C32	C	1.026478	0.671515	0.394097
C33	C	0.569832	0.172662	-0.026235
C34	C	1.069832	0.672662	0.473765
C35	C	0.396366	0.168088	-0.025548
C36	C	0.896366	0.668088	0.474452
C37	C	0.302325	0.165604	-0.025175
C38	C	0.802325	0.665604	0.474825
C39	C	0.663878	0.175144	-0.026608
C40	C	1.163878	0.675144	0.473392
C41	C	0.987866	-0.057766	0.008734
C42	C	1.487866	0.442234	0.508734
C43	C	0.985434	-0.196290	0.029752
C44	C	1.485434	0.303710	0.529752
C45	C	0.984355	-0.258041	-0.036748
C46	C	1.484355	0.241959	0.463252
C47	C	0.981842	-0.401212	-0.015026
C48	C	1.481842	0.098788	0.484974
C49	C	1.135051	0.161204	-0.024503
C50	C	1.635051	0.661204	0.475497
C51	C	1.227360	0.163629	-0.024879
C52	C	1.727360	0.663629	0.475121
C53	C	0.978332	0.398517	-0.060512
C54	C	1.478332	0.898517	0.439488
C55	C	0.980763	0.537041	-0.081536
C56	C	1.480763	1.037041	0.418464
N57	N	0.983092	0.170370	0.202287
N58	N	1.483092	0.670370	0.702287
N59	N	0.983113	0.170370	-0.254062
N60	N	1.483113	0.670370	0.245938
C61	C	1.039148	0.085544	0.440882
C62	C	1.539148	0.585544	0.940882
C63	C	1.039151	0.085541	0.533072
C64	C	1.539151	0.585541	1.033072
C65	C	0.927050	0.255201	0.507336
C66	C	1.427050	0.755201	1.007336
C67	C	0.927044	0.255197	0.415149
C68	C	1.427044	0.755197	0.915149
C69	C	0.983098	0.170370	0.381924
C70	C	1.483098	0.670370	0.881924
C71	C	0.983106	0.170371	0.566302
C72	C	1.483106	0.670371	1.066302
C73	C	0.983109	0.170368	0.666258
C74	C	1.483109	0.670368	1.166258
C75	C	0.983095	0.170370	0.281961
C76	C	1.483095	0.670370	0.781961
H77	H	0.561755	0.172449	0.118642
H78	H	1.061755	0.672449	0.618642
H79	H	0.980901	-0.454333	0.057992
H80	H	1.480901	0.045667	0.557992
Br81	Br	1.115219	-0.029580	0.395795
Br82	Br	1.615219	0.470420	0.895795
Br83	Br	0.850982	0.370321	0.552430
Br84	Br	1.350982	0.870321	1.052430
H85	H	0.981689	-0.409837	-0.154555
H86	H	1.481689	0.090163	0.345445
H87	H	0.561793	0.172446	-0.171058
H88	H	1.061793	0.672446	0.328942
H89	H	0.984493	-0.249416	0.102766
H90	H	1.484493	0.250584	0.602766
Br91	Br	0.850964	0.370315	0.335127
Br92	Br	1.350964	0.870315	0.835127
H93	H	1.084791	0.016467	0.581075
H94	H	1.584791	0.516467	1.081075
H95	H	0.404415	0.168289	0.119266
H96	H	0.904415	0.668289	0.619266
Br97	Br	0.380905	0.167638	-0.213671
Br98	Br	0.880905	0.667638	0.286329
Br99	Br	0.985934	-0.169509	-0.158447
Br100	Br	1.485934	0.330491	0.341553
