data_functionalizedCrystal
_audit_creation_method	'MofGen! by Chris Wilmer'
_symmetry_space_group_name_H-M	'P1'
_symmetry_Int_Tables_number	1
_symmetry_cell_setting	triclinic
loop_
_symmetry_equiv_pos_as_xyz
  x,y,z
_cell_length_a	27.731994
_cell_length_b	26.210047
_cell_length_c	27.732046
_cell_angle_alpha	89.987412
_cell_angle_beta	97.368744
_cell_angle_gamma	90.018354
loop_
_atom_site_label
_atom_site_type_symbol
_atom_site_fract_x
_atom_site_fract_y
_atom_site_fract_z
O1	O	0.640958	0.042363	-0.057392
O2	O	0.974291	0.375696	0.275942
O3	O	1.307625	0.709030	0.609275
O4	O	0.500161	0.042381	-0.066164
O5	O	0.833494	0.375714	0.267169
O6	O	1.166827	0.709048	0.600502
O7	O	0.574933	0.042360	0.008620
O8	O	0.908266	0.375693	0.341953
O9	O	1.241599	0.709027	0.675286
O10	O	0.566186	0.042384	-0.132176
O11	O	0.899519	0.375717	0.201158
O12	O	1.232853	0.709051	0.534491
O13	O	0.574898	-0.042498	0.008620
O14	O	0.908232	0.290835	0.341954
O15	O	1.241565	0.624169	0.675287
O16	O	0.500126	-0.042477	-0.066164
O17	O	0.833460	0.290856	0.267170
O18	O	1.166793	0.624190	0.600503
O19	O	0.640924	-0.042495	-0.057391
O20	O	0.974257	0.290838	0.275943
O21	O	1.307590	0.624172	0.609276
Cu22	Cu	0.570522	-0.050234	-0.061777
Cu23	Cu	0.903855	0.283099	0.271556
Cu24	Cu	1.237188	0.616432	0.604890
Cu25	Cu	0.570563	0.050120	-0.061778
Cu26	Cu	0.903896	0.383454	0.271555
Cu27	Cu	1.237229	0.716787	0.604889
O28	O	0.566152	-0.042474	-0.132175
O29	O	0.899485	0.290859	0.201159
O30	O	1.232818	0.624193	0.534492
C31	C	0.482136	-0.000046	-0.065984
C32	C	0.815469	0.333288	0.267349
C33	C	1.148803	0.666621	0.600683
C34	C	0.428480	-0.000039	-0.065442
C35	C	0.761813	0.333294	0.267892
C36	C	1.095146	0.666627	0.601225
C37	C	0.095743	-0.046316	-0.062025
C38	C	0.429076	0.287017	0.271308
C39	C	0.762409	0.620351	0.604641
C40	C	-0.105916	-0.046322	-0.059964
C41	C	0.227418	0.287011	0.273370
C42	C	0.560751	0.620345	0.606703
O43	O	-0.132004	-0.085661	-0.059676
O44	O	0.201329	0.247672	0.273657
O45	O	0.534663	0.581006	0.606991
N46	N	-0.131112	-0.000066	-0.059708
N47	N	0.202222	0.333267	0.273625
N48	N	0.535555	0.666601	0.606958
C49	C	-0.105890	0.046195	-0.059965
C50	C	0.227444	0.379528	0.273368
C51	C	0.560777	0.712862	0.606702
O52	O	-0.131947	0.085538	-0.059695
O53	O	0.201387	0.418872	0.273638
O54	O	0.534720	0.752205	0.606971
C55	C	0.095768	0.046200	-0.062023
C56	C	0.429101	0.379534	0.271310
C57	C	0.762435	0.712867	0.604644
C58	C	0.120961	-0.000059	-0.062284
C59	C	0.454294	0.333275	0.271050
C60	C	0.787628	0.666608	0.604383
C61	C	0.120935	-0.092571	-0.062285
C62	C	0.454269	0.240762	0.271048
C63	C	0.787602	0.574095	0.604381
C64	C	0.171347	-0.092569	-0.062803
C65	C	0.504680	0.240764	0.270530
C66	C	0.838013	0.574097	0.603863
C67	C	0.196565	-0.046312	-0.063061
C68	C	0.529898	0.287021	0.270272
C69	C	0.863232	0.620355	0.603605
C70	C	0.171372	-0.000057	-0.062802
C71	C	0.504705	0.333277	0.270532
C72	C	0.838039	0.666610	0.603865
C73	C	0.120990	0.092461	-0.062276
C74	C	0.454323	0.425794	0.271057
C75	C	0.787656	0.759127	0.604390
C76	C	0.171408	0.092458	-0.062790
C77	C	0.504741	0.425791	0.270544
C78	C	0.838074	0.759125	0.603877
C79	C	0.196600	0.046199	-0.063050
C80	C	0.529934	0.379532	0.270283
C81	C	0.863267	0.712866	0.603617
C82	C	0.247001	0.046203	-0.063578
C83	C	0.580335	0.379536	0.269756
C84	C	0.913668	0.712869	0.603089
N85	N	0.272197	-0.000053	-0.063833
N86	N	0.605531	0.333280	0.269500
N87	N	0.938864	0.666613	0.602833
C88	C	0.246979	-0.046311	-0.063575
C89	C	0.580313	0.287023	0.269758
C90	C	0.913646	0.620356	0.603092
C91	C	-0.211763	0.046189	-0.058885
C92	C	0.121570	0.379522	0.274448
C93	C	0.454904	0.712855	0.607781
C94	C	-0.262177	0.046187	-0.058372
C95	C	0.071156	0.379521	0.274962
C96	C	0.404489	0.712854	0.608295
C97	C	-0.262200	-0.046330	-0.058370
C98	C	0.071134	0.287004	0.274964
C99	C	0.404467	0.620337	0.608297
C100	C	-0.211785	-0.046328	-0.058887
C101	C	0.121548	0.287005	0.274446
C102	C	0.454882	0.620339	0.607780
C103	C	-0.186567	-0.000067	-0.059141
C104	C	0.146766	0.333266	0.274192
C105	C	0.480100	0.666599	0.607526
C106	C	0.352846	-0.046303	-0.064663
C107	C	0.686180	0.287030	0.268670
C108	C	1.019513	0.620364	0.602003
C109	C	0.403262	-0.046297	-0.065184
C110	C	0.736595	0.287037	0.268150
C111	C	1.069928	0.620370	0.601483
C112	C	0.403280	0.046220	-0.065183
C113	C	0.736613	0.379553	0.268150
C114	C	1.069947	0.712887	0.601484
C115	C	0.352869	0.046214	-0.064665
C116	C	0.686202	0.379548	0.268668
C117	C	1.019535	0.712881	0.602001
C118	C	0.327653	-0.000051	-0.064404
C119	C	0.660987	0.333282	0.268929
C120	C	0.994320	0.666615	0.602263
O121	O	0.273122	0.085521	-0.063860
O122	O	0.606455	0.418854	0.269473
O123	O	0.939789	0.752188	0.602806
O124	O	0.273047	-0.085648	-0.063834
O125	O	0.606380	0.247685	0.269499
O126	O	0.939713	0.581018	0.602832
C127	C	0.045331	-0.046318	-0.061507
C128	C	0.378665	0.287015	0.271826
C129	C	0.711998	0.620349	0.605159
C130	C	0.020139	-0.000063	-0.061247
C131	C	0.353472	0.333271	0.272086
C132	C	0.686805	0.666604	0.605419
C133	C	0.045357	0.046195	-0.061506
C134	C	0.378690	0.379528	0.271828
C135	C	0.712024	0.712861	0.605161
C136	C	-0.030276	-0.000064	-0.060734
C137	C	0.303058	0.333269	0.272600
C138	C	0.636391	0.666603	0.605933
C139	C	-0.055494	-0.046321	-0.060476
C140	C	0.277839	0.287012	0.272858
C141	C	0.611173	0.620345	0.606191
C142	C	-0.030298	-0.092577	-0.060731
C143	C	0.303035	0.240756	0.272602
C144	C	0.636369	0.574089	0.605935
C145	C	0.020113	-0.092575	-0.061249
C146	C	0.353446	0.240758	0.272084
C147	C	0.686780	0.574091	0.605417
C148	C	0.020161	0.092451	-0.061250
C149	C	0.353494	0.425784	0.272083
C150	C	0.686828	0.759117	0.605417
C151	C	-0.030250	0.092445	-0.060732
C152	C	0.303083	0.425778	0.272601
C153	C	0.636416	0.759112	0.605934
C154	C	-0.055469	0.046188	-0.060474
C155	C	0.277865	0.379521	0.272859
C156	C	0.611198	0.712854	0.606192
N157	N	0.570497	-0.120818	-0.061776
N158	N	0.903830	0.212515	0.271557
N159	N	1.237163	0.545849	0.604891
C160	C	0.537422	-0.526776	-0.094877
C161	C	0.870755	-0.193443	0.238456
C162	C	1.204089	0.139890	0.571790
C163	C	0.537399	-0.313118	-0.094877
C164	C	0.870732	0.020216	0.238456
C165	C	1.204065	0.353549	0.571790
O166	O	0.509220	-0.285491	-0.123016
O167	O	0.842553	0.047842	0.210317
O168	O	1.175887	0.381176	0.543651
N169	N	0.570512	-0.286402	-0.061774
N170	N	0.903845	0.046931	0.271559
N171	N	1.237179	0.380265	0.604892
C172	C	0.603631	-0.313104	-0.028667
C173	C	0.936965	0.020229	0.304666
C174	C	1.270298	0.353563	0.637999
O175	O	0.631792	-0.285478	-0.000508
O176	O	0.965126	0.047855	0.332825
O177	O	1.298459	0.381189	0.666159
C178	C	0.603652	-0.526762	-0.028665
C179	C	0.936985	-0.193428	0.304668
C180	C	1.270319	0.139905	0.638002
C181	C	0.570540	-0.553475	-0.061773
C182	C	0.903873	-0.220141	0.271560
C183	C	1.237206	0.113192	0.604893
C184	C	0.504312	-0.553489	-0.127982
C185	C	0.837645	-0.220156	0.205351
C186	C	1.170979	0.113177	0.538685
C187	C	0.504320	-0.606901	-0.127983
C188	C	0.837653	-0.273567	0.205350
C189	C	1.170987	0.059766	0.538683
C190	C	0.537438	-0.633599	-0.094880
C191	C	0.870771	-0.300266	0.238454
C192	C	1.204104	0.033068	0.571787
C193	C	0.570548	-0.606886	-0.061775
C194	C	0.903881	-0.273553	0.271559
C195	C	1.237214	0.059781	0.604892
C196	C	0.636769	-0.553463	0.004444
C197	C	0.970102	-0.220129	0.337777
C198	C	1.303435	0.113204	0.671111
C199	C	0.636770	-0.606881	0.004442
C200	C	0.970103	-0.273547	0.337776
C201	C	1.303437	0.059786	0.671109
C202	C	0.603658	-0.633594	-0.028666
C203	C	0.936991	-0.300260	0.304668
C204	C	1.270325	0.033073	0.638001
C205	C	0.603673	-0.686996	-0.028672
C206	C	0.937007	-0.353663	0.304661
C207	C	1.270340	-0.020329	0.637994
N208	N	0.570560	-0.713712	-0.061775
N209	N	0.903893	-0.380378	0.271558
N210	N	1.237227	-0.047045	0.604892
C211	C	0.537442	-0.687013	-0.094879
C212	C	0.870776	-0.353680	0.238455
C213	C	1.204109	-0.020347	0.571788
C214	C	0.603619	-0.200931	-0.028671
C215	C	0.936952	0.132403	0.304662
C216	C	1.270286	0.465736	0.637995
C217	C	0.603614	-0.147517	-0.028672
C218	C	0.936948	0.185817	0.304661
C219	C	1.270281	0.519150	0.637994
C220	C	0.537381	-0.147534	-0.094882
C221	C	0.870714	0.185799	0.238451
C222	C	1.204048	0.519133	0.571785
C223	C	0.537388	-0.200949	-0.094883
C224	C	0.870721	0.132384	0.238451
C225	C	1.204055	0.465718	0.571784
C226	C	0.570506	-0.227646	-0.061774
C227	C	0.903839	0.105687	0.271559
C228	C	1.237172	0.439020	0.604893
C229	C	0.537462	-0.799181	-0.094879
C230	C	0.870795	-0.465848	0.238454
C231	C	1.204128	-0.132515	0.571787
C232	C	0.537474	-0.852597	-0.094879
C233	C	0.870807	-0.519264	0.238454
C234	C	1.204140	-0.185931	0.571788
C235	C	0.603705	-0.852575	-0.028668
C236	C	0.937039	-0.519242	0.304665
C237	C	1.270372	-0.185909	0.637999
C238	C	0.603695	-0.799164	-0.028670
C239	C	0.937028	-0.465831	0.304664
C240	C	1.270362	-0.132497	0.637997
C241	C	0.570569	-0.772468	-0.061777
C242	C	0.903902	-0.439135	0.271556
C243	C	1.237236	-0.105801	0.604889
O244	O	0.631834	-0.714655	-0.000544
O245	O	0.965167	-0.381322	0.332789
O246	O	1.298500	-0.047989	0.666122
O247	O	0.509278	-0.714648	-0.123026
O248	O	0.842612	-0.381315	0.210307
O249	O	1.175945	-0.047982	0.543640
C250	C	0.537414	-0.473365	-0.094876
C251	C	0.870747	-0.140031	0.238458
C252	C	1.204081	0.193302	0.571791
C253	C	0.570524	-0.446652	-0.061770
C254	C	0.903857	-0.113318	0.271563
C255	C	1.237191	0.220015	0.604896
C256	C	0.603642	-0.473350	-0.028667
C257	C	0.936975	-0.140017	0.304667
C258	C	1.270308	0.193317	0.638000
C259	C	0.570519	-0.393238	-0.061772
C260	C	0.903853	-0.059904	0.271562
C261	C	1.237186	0.273429	0.604895
C262	C	0.537402	-0.366539	-0.094875
C263	C	0.870735	-0.033206	0.238458
C264	C	1.204068	0.300127	0.571791
C265	C	0.504288	-0.393255	-0.127978
C266	C	0.837622	-0.059922	0.205355
C267	C	1.170955	0.273412	0.538689
C268	C	0.504296	-0.446666	-0.127979
C269	C	0.837630	-0.113333	0.205354
C270	C	1.170963	0.220000	0.538687
C271	C	0.636755	-0.446634	0.004436
C272	C	0.970088	-0.113301	0.337769
C273	C	1.303422	0.220032	0.671103
C274	C	0.636745	-0.393223	0.004434
C275	C	0.970078	-0.059890	0.337767
C276	C	1.303411	0.273444	0.671101
C277	C	0.603627	-0.366524	-0.028670
C278	C	0.936960	-0.033191	0.304664
C279	C	1.270294	0.300142	0.637997
C280	C	0.658948	-0.000067	-0.057571
C281	C	0.992282	0.333266	0.275762
C282	C	1.325615	0.666600	0.609095
C283	C	0.712605	-0.000070	-0.058114
C284	C	1.045938	0.333263	0.275220
C285	C	1.379271	0.666597	0.608553
C286	C	0.574732	-0.000071	0.026627
C287	C	0.908065	0.333263	0.359960
C288	C	1.241399	0.666596	0.693294
C289	C	0.574179	-0.000076	0.080282
C290	C	0.907513	0.333257	0.413615
C291	C	1.240846	0.666590	0.746948
N292	N	0.570592	0.120704	-0.061775
N293	N	0.903925	0.454038	0.271558
N294	N	1.237258	0.787371	0.604891
C295	C	0.614886	-0.000064	0.419105
C296	C	0.948220	0.333270	0.752438
C297	C	1.281553	0.666603	1.085772
C298	C	0.612837	-0.000061	0.620764
C299	C	0.946170	0.333272	0.954098
C300	C	1.279503	0.666605	1.287431
O301	O	0.650058	-0.000044	0.652027
O302	O	0.983392	0.333289	0.985361
O303	O	1.316725	0.666622	1.318694
N304	N	0.568500	-0.000057	0.639880
N305	N	0.901834	0.333277	0.973213
N306	N	1.235167	0.666610	1.306546
C307	C	0.524673	-0.000049	0.608576
C308	C	0.858007	0.333284	0.941910
C309	C	1.191340	0.666617	1.275243
O310	O	0.486916	-0.000040	0.629462
O311	O	0.820249	0.333293	0.962795
O312	O	1.153582	0.666627	1.296129
C313	C	0.526724	-0.000048	0.406918
C314	C	0.860057	0.333285	0.740251
C315	C	1.193390	0.666619	1.073585
C316	C	0.571063	-0.000058	0.387806
C317	C	0.904396	0.333276	0.721139
C318	C	1.237729	0.666609	1.054472
C319	C	0.659222	-0.000073	0.399992
C320	C	0.992555	0.333260	0.733326
C321	C	1.325889	0.666594	1.066659
C322	C	0.659734	-0.000076	0.349580
C323	C	0.993067	0.333257	0.682914
C324	C	1.326401	0.666590	1.016247
C325	C	0.615910	-0.000070	0.318281
C326	C	0.949244	0.333263	0.651615
C327	C	1.282577	0.666596	0.984948
C328	C	0.571575	-0.000061	0.337394
C329	C	0.904908	0.333272	0.670727
C330	C	1.238241	0.666606	1.004061
C331	C	0.482897	-0.000037	0.375616
C332	C	0.816231	0.333296	0.708949
C333	C	1.149564	0.666630	1.042282
C334	C	0.483414	-0.000035	0.325198
C335	C	0.816747	0.333298	0.658532
C336	C	1.150080	0.666631	0.991865
C337	C	0.527753	-0.000045	0.306086
C338	C	0.861086	0.333288	0.639420
C339	C	1.194420	0.666622	0.972753
C340	C	0.528263	-0.000059	0.255683
C341	C	0.861597	0.333275	0.589016
C342	C	1.194930	0.666608	0.922349
N343	N	0.572599	-0.000063	0.236568
N344	N	0.905933	0.333270	0.569901
N345	N	1.239266	0.666603	0.903234
C346	C	0.616423	-0.000069	0.267867
C347	C	0.949756	0.333264	0.601200
C348	C	1.283090	0.666598	0.934534
C349	C	0.523600	-0.000051	0.714450
C350	C	0.856933	0.333282	1.047784
C351	C	1.190267	0.666616	1.381117
C352	C	0.523087	-0.000052	0.764865
C353	C	0.856421	0.333281	1.098198
C354	C	1.189754	0.666614	1.431531
C355	C	0.611251	-0.000063	0.777049
C356	C	0.944584	0.333270	1.110383
C357	C	1.277917	0.666603	1.443716
C358	C	0.611763	-0.000066	0.726634
C359	C	0.945096	0.333268	1.059967
C360	C	1.278430	0.666601	1.393301
C361	C	0.567936	-0.000056	0.695335
C362	C	0.901270	0.333278	1.028669
C363	C	1.234603	0.666611	1.362002
C364	C	0.617495	-0.000077	0.161998
C365	C	0.950828	0.333257	0.495331
C366	C	1.284162	0.666590	0.828665
C367	C	0.618003	-0.000082	0.111581
C368	C	0.951336	0.333251	0.444914
C369	C	1.284670	0.666585	0.778248
C370	C	0.529840	-0.000068	0.099401
C371	C	0.863173	0.333265	0.432734
C372	C	1.196507	0.666598	0.766067
C373	C	0.529332	-0.000066	0.149813
C374	C	0.862665	0.333268	0.483147
C375	C	1.195998	0.666601	0.816480
C376	C	0.573163	-0.000068	0.181111
C377	C	0.906496	0.333265	0.514444
C378	C	1.239830	0.666599	0.847778
O379	O	0.491061	-0.000070	0.224392
O380	O	0.824395	0.333264	0.557725
O381	O	1.157728	0.666597	0.891058
O382	O	0.654175	-0.000067	0.246972
O383	O	0.987509	0.333266	0.580305
O384	O	1.320842	0.666600	0.913638
C385	C	0.614374	-0.000060	0.469517
C386	C	0.947708	0.333273	0.802850
C387	C	1.281041	0.666606	1.136184
C388	C	0.570039	-0.000051	0.488630
C389	C	0.903372	0.333282	0.821963
C390	C	1.236705	0.666616	1.155296
C391	C	0.526215	-0.000045	0.457330
C392	C	0.859549	0.333288	0.790664
C393	C	1.192882	0.666621	1.123997
C394	C	0.569526	-0.000052	0.539044
C395	C	0.902859	0.333281	0.872377
C396	C	1.236193	0.666614	1.205711
C397	C	0.613350	-0.000058	0.570343
C398	C	0.946683	0.333275	0.903677
C399	C	1.280016	0.666609	1.237010
C400	C	0.657686	-0.000063	0.551228
C401	C	0.991019	0.333271	0.884561
C402	C	1.324353	0.666604	1.217895
C403	C	0.658198	-0.000066	0.500816
C404	C	0.991531	0.333267	0.834149
C405	C	1.324865	0.666601	1.167483
C406	C	0.481879	-0.000041	0.476445
C407	C	0.815212	0.333293	0.809779
C408	C	1.148546	0.666626	1.143112
C409	C	0.481371	-0.000038	0.526858
C410	C	0.814704	0.333296	0.860191
C411	C	1.148037	0.666629	1.193525
C412	C	0.525194	-0.000044	0.558157
C413	C	0.858527	0.333290	0.891490
C414	C	1.191861	0.666623	1.224824
C415	C	0.566354	-0.000048	0.849818
C416	C	0.899687	0.333285	1.183151
C417	C	1.233021	0.666618	1.516485
C418	C	0.566911	-0.000058	0.796164
C419	C	0.900244	0.333275	1.129497
C420	C	1.233577	0.666609	1.462831
H421	H	0.100487	0.130130	-0.062063
H422	H	0.433820	0.463463	0.271270
H423	H	0.767153	0.796797	0.604603
Br424	Br	0.469157	-0.000064	0.175752
Br425	Br	0.802490	0.333269	0.509086
Br426	Br	1.135823	0.666603	0.842419
Br427	Br	0.459360	-0.517265	-0.172914
Br428	Br	0.792693	-0.183932	0.160420
Br429	Br	1.126027	0.149402	0.493753
Br430	Br	0.681708	-0.517220	0.049379
Br431	Br	1.015042	-0.183887	0.382712
Br432	Br	1.348375	0.149446	0.716045
H433	H	0.191937	0.130130	-0.062997
H434	H	0.525271	0.463463	0.270337
H435	H	0.858604	0.796797	0.603670
H436	H	0.494160	-0.000065	0.073908
H437	H	0.827493	0.333268	0.407241
H438	H	1.160827	0.666601	0.740575
Br439	Br	0.437448	-0.109081	-0.065540
Br440	Br	0.770782	0.224252	0.267793
Br441	Br	1.104115	0.557585	0.601126
H442	H	0.332355	0.083882	-0.064461
H443	H	0.665688	0.417215	0.268872
H444	H	0.999021	0.750549	0.602206
Br445	Br	0.492436	-0.111289	-0.139808
Br446	Br	0.825769	0.222044	0.193525
Br447	Br	1.159103	0.555377	0.526859
Br448	Br	0.648562	-0.111269	0.016254
Br449	Br	0.981895	0.222064	0.349587
Br450	Br	1.315228	0.555398	0.682920
H451	H	0.040689	0.130120	-0.061459
H452	H	0.374022	0.463453	0.271875
H453	H	0.707355	0.796787	0.605208
Br454	Br	0.648569	-0.237157	0.016265
Br455	Br	0.981902	0.096176	0.349598
Br456	Br	1.315235	0.429510	0.682932
Br457	Br	0.459345	-0.357011	-0.172906
Br458	Br	0.792679	-0.023678	0.160427
Br459	Br	1.126012	0.309656	0.493760
Br460	Br	0.678182	-0.000096	0.085647
Br461	Br	1.011515	0.333237	0.418980
Br462	Br	1.344848	0.666571	0.752313
H463	H	0.653187	-0.000077	0.187475
H464	H	0.986520	0.333257	0.520809
H465	H	1.319853	0.666590	0.854142
H466	H	0.630671	-0.874322	-0.001717
H467	H	0.964004	-0.540988	0.331617
H468	H	1.297338	-0.207655	0.664950
Br469	Br	0.422398	-0.000030	0.433975
Br470	Br	0.755731	0.333303	0.767308
Br471	Br	1.089064	0.666637	1.100642
H472	H	0.445262	-0.000034	0.542414
H473	H	0.778595	0.333299	0.875747
H474	H	1.111928	0.666632	1.209080
Br475	Br	0.719912	-0.000075	0.323651
Br476	Br	1.053245	0.333258	0.656984
Br477	Br	1.386578	0.666592	0.990318
H478	H	0.477333	-0.468412	-0.154939
H479	H	0.810666	-0.135079	0.178394
H480	H	1.144000	0.198254	0.511728
H481	H	0.694303	-0.000074	0.485260
H482	H	1.027637	0.333259	0.818593
H483	H	1.360970	0.666593	1.151927
Br484	Br	0.492504	-0.762960	-0.139811
Br485	Br	0.825838	-0.429627	0.193522
Br486	Br	1.159171	-0.096293	0.526856
Br487	Br	0.718705	-0.000080	0.442462
Br488	Br	1.052039	0.333253	0.775795
Br489	Br	1.385372	0.666586	1.109128
H490	H	0.446792	-0.000026	0.391168
H491	H	0.780125	0.333307	0.724501
H492	H	1.113458	0.666641	1.057834
Br493	Br	0.648641	-0.762912	0.016258
Br494	Br	0.981974	-0.429579	0.349591
Br495	Br	1.315307	-0.096245	0.682924
H496	H	0.447724	-0.000026	0.299717
H497	H	0.781057	0.333307	0.633050
H498	H	1.114391	0.666640	0.966383
H499	H	-0.191235	0.083862	-0.059092
H500	H	0.142098	0.417195	0.274242
H501	H	0.475432	0.750528	0.607575
Br502	Br	0.681716	-0.643109	0.049381
Br503	Br	1.015049	-0.309776	0.382714
Br504	Br	1.348383	0.023558	0.716047
H505	H	-0.191276	-0.083996	-0.059099
H506	H	0.142057	0.249337	0.274234
H507	H	0.475390	0.582671	0.607567
H508	H	0.663713	-0.371477	0.031394
H509	H	0.997046	-0.038143	0.364727
H510	H	1.330380	0.295190	0.698061
Br511	Br	-0.064533	-0.155354	-0.060385
Br512	Br	0.268800	0.177979	0.272949
Br513	Br	0.602133	0.511312	0.606282
Br514	Br	0.717160	-0.000075	0.593716
Br515	Br	1.050494	0.333259	0.927049
Br516	Br	1.383827	0.666592	1.260382
H517	H	0.663723	-0.468368	0.031394
H518	H	0.997056	-0.135035	0.364727
H519	H	1.330390	0.198299	0.698060
Br520	Br	0.492535	-0.888848	-0.139816
Br521	Br	0.825868	-0.555515	0.193517
Br522	Br	1.159202	-0.222182	0.526851
H523	H	0.477356	-0.628647	-0.154941
H524	H	0.810689	-0.295314	0.178392
H525	H	1.144023	0.038019	0.511725
Br526	Br	0.437515	0.108995	-0.065531
Br527	Br	0.770848	0.442328	0.267802
Br528	Br	1.104181	0.775661	0.601136
Br529	Br	0.464115	-0.000036	0.671980
Br530	Br	0.797448	0.333297	1.005313
Br531	Br	1.130781	0.666630	1.338646
H532	H	0.332321	-0.083977	-0.064455
H533	H	0.665655	0.249357	0.268878
H534	H	0.998988	0.582690	0.602212
H535	H	0.191854	-0.130238	-0.063013
H536	H	0.525188	0.203095	0.270321
H537	H	0.858521	0.536429	0.603654
Br538	Br	0.671939	-0.000080	0.700702
Br539	Br	1.005273	0.333253	1.034035
Br540	Br	1.338606	0.666587	1.367368
Br541	Br	0.670725	-0.000070	0.819536
Br542	Br	1.004059	0.333263	1.152870
Br543	Br	1.337392	0.666597	1.486203
H544	H	-0.282686	0.083856	-0.058167
H545	H	0.050647	0.417190	0.275166
H546	H	0.383981	0.750523	0.608499
H547	H	-0.050759	0.130118	-0.060524
H548	H	0.282575	0.463451	0.272809
H549	H	0.615908	0.796784	0.606142
H550	H	0.486982	-0.000053	0.780421
H551	H	0.820315	0.333280	1.113754
H552	H	1.153649	0.666614	1.447088
H553	H	-0.282741	-0.083994	-0.058161
H554	H	0.050592	0.249339	0.275173
H555	H	0.383926	0.582672	0.608506
Br556	Br	0.054295	-0.155359	-0.061604
Br557	Br	0.387629	0.177974	0.271730
Br558	Br	0.720962	0.511308	0.605063
Br559	Br	0.492449	-0.237196	-0.139817
Br560	Br	0.825782	0.096137	0.193517
Br561	Br	1.159115	0.429470	0.526850
H562	H	0.100408	-0.130242	-0.062074
H563	H	0.433742	0.203092	0.271259
H564	H	0.767075	0.536425	0.604592
