data_functionalizedCrystal
_audit_creation_method	'MofGen! by Chris Wilmer'
_symmetry_space_group_name_H-M	'P1'
_symmetry_Int_Tables_number	1
_symmetry_cell_setting	triclinic
loop_
_symmetry_equiv_pos_as_xyz
  x,y,z
_cell_length_a	17.699097
_cell_length_b	19.188925
_cell_length_c	16.776229
_cell_angle_alpha	89.993696
_cell_angle_beta	89.989262
_cell_angle_gamma	83.215490
loop_
_atom_site_label
_atom_site_type_symbol
_atom_site_fract_x
_atom_site_fract_y
_atom_site_fract_z
O1	O	1.003954	0.088339	-0.066354
O2	O	1.503954	0.588339	0.433646
O3	O	0.783562	0.099816	-0.066341
O4	O	1.283562	0.599816	0.433659
O5	O	0.900120	-0.007571	-0.066343
O6	O	1.400120	0.492429	0.433657
O7	O	0.887396	0.195726	-0.066351
O8	O	1.387396	0.695726	0.433649
O9	O	0.900105	-0.007578	0.066233
O10	O	1.400105	0.492422	0.566233
O11	O	0.783546	0.099810	0.066236
O12	O	1.283546	0.599810	0.566236
O13	O	1.003939	0.088332	0.066223
O14	O	1.503939	0.588332	0.566223
Zn15	Zn	0.893740	0.094070	0.087279
Zn16	Zn	1.393740	0.594070	0.587279
Zn17	Zn	0.893760	0.094079	-0.087397
Zn18	Zn	1.393760	0.594079	0.412603
O19	O	0.887380	0.195719	0.066225
O20	O	1.387380	0.695719	0.566225
C21	C	0.755358	0.099400	-0.000051
C22	C	1.255358	0.599400	0.499949
C23	C	0.671342	0.098162	-0.000046
C24	C	1.171342	0.598162	0.499954
C25	C	0.155642	0.090574	-0.072345
C26	C	0.655642	0.590574	0.427655
C27	C	0.234585	0.091733	-0.072341
C28	C	0.734585	0.591733	0.427659
C29	C	0.274041	0.092310	-0.000071
C30	C	0.774041	0.592310	0.499929
C31	C	0.234553	0.091721	0.072201
C32	C	0.734553	0.591721	0.572201
C33	C	0.155612	0.090557	0.072196
C34	C	0.655612	0.590557	0.572196
C35	C	0.552910	0.096414	0.072222
C36	C	1.052910	0.596414	0.572222
C37	C	0.631856	0.097580	0.072221
C38	C	1.131856	0.597580	0.572221
C39	C	0.631883	0.097590	-0.072316
C40	C	1.131883	0.597590	0.427684
C41	C	0.552942	0.096426	-0.072320
C42	C	1.052942	0.596426	0.427680
C43	C	0.513461	0.095833	-0.000049
C44	C	1.013461	0.595833	0.499951
C45	C	0.427863	0.094575	-0.000055
C46	C	0.927863	0.594575	0.499945
C47	C	0.359637	0.093573	-0.000065
C48	C	0.859637	0.593573	0.499935
C49	C	0.899701	-0.033586	-0.000055
C50	C	1.399701	0.466414	0.499945
C51	C	0.898466	-0.111092	-0.000057
C52	C	1.398466	0.388908	0.499943
C53	C	0.958590	-0.672792	-0.000081
C54	C	1.458590	-0.172792	0.499919
C55	C	0.959757	-0.599968	-0.000073
C56	C	1.459757	-0.099968	0.499927
C57	C	0.891364	-0.555113	-0.000070
C58	C	1.391364	-0.055113	0.499930
C59	C	0.821799	-0.583088	-0.000053
C60	C	1.321799	-0.083088	0.499947
C61	C	0.820634	-0.655911	-0.000052
C62	C	1.320634	-0.155911	0.499948
N63	N	0.841856	-0.434488	-0.045192
N64	N	1.341856	0.065512	0.454808
N65	N	0.842967	-0.365309	-0.045195
N66	N	1.342967	0.134691	0.454805
C67	C	0.894870	-0.335700	-0.000070
C68	C	1.394870	0.164300	0.499930
N69	N	0.945631	-0.377883	0.045047
N70	N	1.445631	0.122117	0.545047
N71	N	0.944521	-0.447069	0.045045
N72	N	1.444521	0.052931	0.545045
C73	C	0.892619	-0.476147	-0.000070
C74	C	1.392619	0.023853	0.499930
C75	C	0.965695	-0.228768	-0.000074
C76	C	1.465695	0.271232	0.499926
C77	C	0.966859	-0.155942	-0.000062
C78	C	1.466859	0.344058	0.499938
C79	C	0.828900	-0.139063	-0.000049
C80	C	1.328900	0.360937	0.499951
C81	C	0.827738	-0.211888	-0.000053
C82	C	1.327738	0.288112	0.499947
C83	C	0.896138	-0.256737	-0.000070
C84	C	1.396138	0.243263	0.499930
C85	C	1.032143	0.088748	-0.000069
C86	C	1.532143	0.588748	0.499931
C87	C	1.116158	0.089987	-0.000079
C88	C	1.616158	0.589987	0.499921
C89	C	0.887799	0.221734	-0.000064
C90	C	1.387799	0.721734	0.499936
C91	C	0.889034	0.299240	-0.000068
C92	C	1.389034	0.799240	0.499932
N93	N	0.893732	0.094063	0.206490
N94	N	1.393732	0.594063	0.706490
N95	N	0.893775	0.094079	-0.206608
N96	N	1.393775	0.594079	0.293392
C97	C	0.945359	0.046532	0.248206
C98	C	1.445359	0.546532	0.748206
C99	C	0.945363	0.046531	0.331658
C100	C	1.445363	0.546531	0.831658
C101	C	0.893743	0.094066	0.373393
C102	C	1.393743	0.594066	0.873393
C103	C	0.842110	0.141600	0.331671
C104	C	1.342110	0.641600	0.831671
C105	C	0.842103	0.141597	0.248220
C106	C	1.342103	0.641597	0.748220
C107	C	0.842137	0.141614	0.668218
C108	C	1.342137	0.641614	1.168218
C109	C	0.842150	0.141615	0.751675
C110	C	1.342150	0.641615	1.251675
C111	C	0.945398	0.046548	0.751656
C112	C	1.445398	0.546548	1.251656
C113	C	0.945391	0.046545	0.668205
C114	C	1.445391	0.546545	1.168205
C115	C	0.893755	0.094076	0.626491
C116	C	1.393755	0.594076	1.126491
C117	C	0.893750	0.094075	0.536002
C118	C	1.393750	0.594075	1.036002
C119	C	0.893751	0.094071	0.463880
C120	C	1.393751	0.594071	0.963880
H121	H	0.663980	0.098049	0.131076
H122	H	1.163980	0.598049	0.631076
O123	O	1.027392	-0.572907	-0.000131
O124	O	1.527392	-0.072907	0.499869
C125	C	1.087513	-0.628107	-0.000125
C126	C	1.587513	-0.128107	0.499875
H127	H	1.066461	-0.677545	-0.025212
H128	H	1.566461	-0.177545	0.474788
H129	H	1.136085	-0.612965	-0.038634
H130	H	1.636085	-0.112965	0.461366
H131	H	1.108607	-0.638447	0.063473
H132	H	1.608607	-0.138447	0.563473
H133	H	0.987427	0.007840	0.634227
H134	H	1.487427	0.507840	1.134227
H135	H	0.800095	0.180316	0.634261
H136	H	1.300095	0.680316	1.134261
H137	H	0.800061	0.180301	0.214256
H138	H	1.300061	0.680301	0.714256
H139	H	0.266729	0.092206	-0.131187
H140	H	0.766729	0.592206	0.368813
H141	H	0.763992	-0.678681	-0.000040
H142	H	1.263992	-0.178681	0.499960
H143	H	0.266685	0.092186	0.131045
H144	H	0.766685	0.592186	0.631045
H145	H	0.664038	0.098069	-0.131162
H146	H	1.164038	0.598069	0.368838
O147	O	0.995443	0.000387	0.372304
O148	O	1.495443	0.500387	0.872304
C149	C	0.984393	0.010589	0.454909
C150	C	1.484393	0.510589	0.954909
H151	H	0.924134	0.036748	0.466320
H152	H	1.424134	0.536748	0.966320
H153	H	0.992999	-0.042296	0.486629
H154	H	1.492999	0.457704	0.986629
H155	H	1.027110	0.045564	0.478574
H156	H	1.527110	0.545564	0.978574
O157	O	0.514676	0.095878	0.142494
O158	O	1.014676	0.595878	0.642494
C159	C	0.566434	0.096624	0.206279
C160	C	1.066434	0.596624	0.706279
H161	H	0.619502	0.119550	0.185089
H162	H	1.119502	0.619550	0.685089
H163	H	0.538700	0.130171	0.256822
H164	H	1.038700	0.630171	0.756822
H165	H	0.582953	0.040756	0.228505
H166	H	1.082953	0.540756	0.728505
H167	H	0.123465	0.090086	0.131043
H168	H	0.623465	0.590086	0.631043
O169	O	1.032114	-0.272368	-0.000221
O170	O	1.532114	0.227632	0.499779
C171	C	1.035567	-0.315001	-0.068875
C172	C	1.535567	0.184999	0.431125
H173	H	0.996783	-0.288259	-0.116864
H174	H	1.496783	0.211741	0.383136
H175	H	1.096564	-0.323291	-0.091925
H176	H	1.596564	0.176709	0.408075
H177	H	1.016149	-0.367926	-0.053353
H178	H	1.516149	0.132074	0.446647
O179	O	0.755383	-0.539490	-0.000193
O180	O	1.255383	-0.039490	0.499807
C181	C	0.751942	-0.496846	-0.068847
C182	C	1.251942	0.003154	0.431153
H183	H	0.790737	-0.523580	-0.116842
H184	H	1.290737	-0.023580	0.383158
H185	H	0.690950	-0.488553	-0.091888
H186	H	1.190950	0.011447	0.408112
H187	H	0.771357	-0.443923	-0.053329
H188	H	1.271357	0.056077	0.446671
O189	O	0.995447	0.000301	0.792217
O190	O	1.495447	0.500301	1.292217
C191	C	0.955067	-0.042719	0.840520
C192	C	1.455067	0.457281	1.340520
H193	H	0.895385	-0.043834	0.815388
H194	H	1.395385	0.456166	1.315388
H195	H	0.986135	-0.098250	0.841466
H196	H	1.486135	0.401750	1.341466
H197	H	0.951030	-0.020863	0.903764
H198	H	1.451030	0.479137	1.403764
H199	H	0.800111	0.180325	0.785654
H200	H	1.300111	0.680325	1.285654
O201	O	1.034410	-0.128738	0.000066
O202	O	1.534410	0.371262	0.500066
C203	C	1.039205	-0.087114	0.068720
C204	C	1.539205	0.412886	0.568720
H205	H	0.999714	-0.104278	0.116719
H206	H	1.499714	0.395722	0.616719
H207	H	1.100226	-0.093754	0.091753
H208	H	1.600226	0.406246	0.591753
H209	H	1.021554	-0.029653	0.053202
H210	H	1.521554	0.470347	0.553202
H211	H	0.520820	0.095959	-0.131171
H212	H	1.020820	0.595959	0.368829
H213	H	0.773213	-0.102543	-0.000039
H214	H	1.273213	0.397457	0.499961
O215	O	1.025012	-0.716383	-0.000232
O216	O	1.525012	-0.216383	0.499768
C217	C	1.028464	-0.759019	-0.068884
C218	C	1.528464	-0.259019	0.431116
H219	H	0.989671	-0.732282	-0.116870
H220	H	1.489671	-0.232282	0.383130
H221	H	1.089458	-0.767303	-0.091942
H222	H	1.589458	-0.267303	0.408058
H223	H	1.009055	-0.811946	-0.053357
H224	H	1.509055	-0.311946	0.446643
O225	O	0.760104	-0.238944	-0.000085
O226	O	1.260104	0.261056	0.499915
C227	C	0.699987	-0.183741	-0.000060
C228	C	1.199987	0.316259	0.499940
H229	H	0.721041	-0.134301	-0.025161
H230	H	1.221041	0.365699	0.474839
H231	H	0.651412	-0.198876	-0.038546
H232	H	1.151412	0.301124	0.461454
H233	H	0.678897	-0.173406	0.063546
H234	H	1.178897	0.326594	0.563546
O235	O	0.995533	0.000288	0.207792
O236	O	1.495533	0.500288	0.707792
C237	C	1.041113	-0.041653	0.262511
C238	C	1.541113	0.458347	0.762511
H239	H	1.010091	-0.042404	0.322007
H240	H	1.510091	0.457596	0.822007
H241	H	1.052846	-0.097427	0.238408
H242	H	1.552846	0.402573	0.738408
H243	H	1.097259	-0.019044	0.271366
H244	H	1.597259	0.480956	0.771366
O245	O	0.791934	0.187679	0.372299
O246	O	1.291934	0.687679	0.872299
C247	C	0.745365	0.150339	0.420579
C248	C	1.245365	0.650339	0.920579
H249	H	0.775696	0.095670	0.433080
H250	H	1.275696	0.595670	0.933080
H251	H	0.733301	0.179497	0.479260
H252	H	1.233301	0.679497	0.979260
H253	H	0.689443	0.145656	0.388438
H254	H	1.189443	0.645656	0.888438
O255	O	0.117438	0.089987	-0.142622
O256	O	0.617438	0.589987	0.357378
C257	C	0.169217	0.090771	-0.206404
C258	C	0.669217	0.590771	0.293596
H259	H	0.228690	0.069502	-0.185212
H260	H	0.728690	0.569502	0.314788
H261	H	0.151337	0.056556	-0.256951
H262	H	0.651337	0.556556	0.243049
H263	H	0.169493	0.146888	-0.228624
H264	H	0.669493	0.646888	0.271376
