data_functionalizedCrystal
_audit_creation_method	'MofGen! by Chris Wilmer'
_symmetry_space_group_name_H-M	'P1'
_symmetry_Int_Tables_number	1
_symmetry_cell_setting	triclinic
loop_
_symmetry_equiv_pos_as_xyz
  x,y,z
_cell_length_a	12.759401
_cell_length_b	12.759399
_cell_length_c	12.759401
_cell_angle_alpha	90.010901
_cell_angle_beta	90.002178
_cell_angle_gamma	90.015277
loop_
_atom_site_label
_atom_site_type_symbol
_atom_site_fract_x
_atom_site_fract_y
_atom_site_fract_z
Zn1	Zn	1.606083	-0.418418	0.593978
Zn2	Zn	1.606026	-0.594073	0.418297
Zn3	Zn	1.430435	-0.418409	0.418317
Zn4	Zn	1.430372	-0.594056	0.593938
O5	O	1.518229	-0.506239	0.506133
O6	O	1.753097	-0.441730	0.570681
O7	O	1.582736	-0.570773	0.271279
O8	O	1.453785	-0.271389	0.441644
O9	O	1.753055	-0.570783	0.441609
O10	O	1.582833	-0.271396	0.570701
O11	O	1.453730	-0.441714	0.271294
O12	O	1.283406	-0.441698	0.441606
O13	O	1.453678	-0.570755	0.740964
O14	O	1.283360	-0.570746	0.570634
O15	O	1.582772	-0.441714	0.740994
O16	O	1.582675	-0.741092	0.441571
O17	O	1.453623	-0.741080	0.570614
C18	C	1.245262	-0.506220	0.506118
C19	C	1.128485	-0.506237	0.506137
C20	C	1.073627	-0.573539	0.573211
C21	C	0.963903	-0.573553	0.573222
C22	C	0.963905	-0.438958	0.439077
C23	C	1.073627	-0.438940	0.439072
C24	C	1.073624	-0.651250	0.650655
C25	C	0.963900	-0.651263	0.650667
C26	C	1.518165	-0.779206	0.506109
C27	C	1.518233	-0.895983	0.506134
C28	C	1.585507	-0.950816	0.439017
C29	C	1.585575	-1.060540	0.439053
C30	C	1.451085	-1.060588	0.573323
C31	C	1.451024	-0.950866	0.573293
C32	C	1.709595	-1.210406	0.401662
C33	C	1.776860	-1.265243	0.334529
C34	C	1.793053	-1.229667	0.232019
C35	C	1.741967	-1.139255	0.196620
C36	C	1.674695	-1.084424	0.263747
C37	C	1.658521	-1.119999	0.366272
C38	C	1.327003	-0.800999	0.610672
C39	C	1.259724	-0.746165	0.677795
C40	C	1.243519	-0.781739	0.780307
C41	C	1.294587	-0.872154	0.815702
C42	C	1.361866	-0.926987	0.748579
C43	C	1.378072	-0.891406	0.646068
C44	C	1.792262	-0.506259	0.506147
C45	C	1.909039	-0.506268	0.506154
C46	C	1.518225	-0.506234	0.780166
C47	C	1.518223	-0.506232	0.896942
C48	C	1.518322	-0.232206	0.506180
C49	C	1.518362	-0.115429	0.506200
C50	C	1.585436	-0.439054	0.951821
C51	C	1.585429	-0.439057	1.061545
C52	C	1.450995	-0.573423	1.061502
C53	C	1.450996	-0.573415	0.951780
C54	C	1.663054	-0.361482	0.951847
C55	C	1.663048	-0.361484	1.061571
C56	C	1.518223	-0.506261	1.233165
C57	C	1.518215	-0.506243	1.116389
H58	H	1.640235	-0.906133	0.384334
O59	O	1.858326	-1.282832	0.166655
C60	C	1.935771	-1.292361	-0.005324
C61	C	1.861799	-1.232063	0.068573
H62	H	1.938620	-1.251326	-0.084632
H63	H	1.905722	-1.375831	-0.016041
H64	H	2.017798	-1.294529	0.030028
H65	H	1.779752	-1.229813	0.033281
H66	H	1.891935	-1.148626	0.079287
O67	O	1.342724	-0.766622	0.511021
C68	C	1.329006	-0.805742	0.326763
C69	C	1.311176	-0.844811	0.439563
H70	H	1.303488	-0.868929	0.268958
H71	H	1.415686	-0.787648	0.314797
H72	H	1.280974	-0.731681	0.313030
H73	H	1.359145	-0.918894	0.453374
H74	H	1.224475	-0.862833	0.451474
O75	O	1.210167	-0.658243	0.643574
C76	C	1.183428	-0.472860	0.667726
C77	C	1.239591	-0.572356	0.706603
H78	H	1.207212	-0.403390	0.718653
H79	H	1.094997	-0.484622	0.672768
H80	H	1.206552	-0.456898	0.582914
H81	H	1.216553	-0.588374	0.791423
H82	H	1.328009	-0.560544	0.701483
O83	O	1.385734	-0.638566	0.898308
C84	C	1.326194	-0.698144	0.729257
C85	C	1.400143	-0.624288	0.789683
H86	H	1.337834	-0.686642	0.641423
H87	H	1.241463	-0.679677	0.750753
H88	H	1.344592	-0.782854	0.750872
H89	H	1.381840	-0.539553	0.768100
H90	H	1.484852	-0.642845	0.768182
H91	H	1.744409	-0.383287	1.091349
O92	O	1.694064	-1.244986	0.501268
C93	C	1.772687	-1.285493	0.668123
C94	C	1.790428	-1.246332	0.555342
H95	H	1.850579	-1.286573	0.711881
H96	H	1.738523	-1.368036	0.666015
H97	H	1.715797	-1.230788	0.709990
H98	H	1.847337	-1.300960	0.513408
H99	H	1.824539	-1.163771	0.557524
O100	O	1.126755	-0.373518	0.373829
C101	C	1.115174	-0.239955	0.240842
C102	C	1.054877	-0.314015	0.314659
H103	H	1.057087	-0.191811	0.193000
H104	H	1.166508	-0.288033	0.185742
H105	H	1.166578	-0.185138	0.289200
H106	H	1.003416	-0.368846	0.266386
H107	H	1.003609	-0.265871	0.369762
O108	O	1.636904	-0.264439	0.916391
C109	C	1.506837	-0.127587	0.913134
C110	C	1.536309	-0.237501	0.953339
H111	H	1.425514	-0.105765	0.943008
H112	H	1.506759	-0.127536	0.823785
H113	H	1.566463	-0.068055	0.942904
H114	H	1.476713	-0.297096	0.923645
H115	H	1.536420	-0.237466	1.042687
H116	H	1.755149	-1.110303	0.113141
H117	H	1.188732	-0.737085	0.834956
O118	O	1.385600	-0.638720	1.114611
C119	C	1.252308	-0.772040	1.102986
C120	C	1.326296	-0.698126	1.042713
H121	H	1.204357	-0.820105	1.044883
H122	H	1.197317	-0.723853	1.154333
H123	H	1.300538	-0.826938	1.154375
H124	H	1.278150	-0.643214	0.991268
H125	H	1.381290	-0.746378	0.991433
O126	O	1.628142	-0.269356	1.102244
C127	C	1.499336	-0.183595	1.210488
C128	C	1.538749	-0.287992	1.164479
H129	H	1.427069	-0.198629	1.260832
H130	H	1.478240	-0.127774	1.144003
H131	H	1.563577	-0.147100	1.260751
H132	H	1.474556	-0.324578	1.114228
H133	H	1.559876	-0.343742	1.231013
O134	O	1.755248	-0.396401	0.911358
C135	C	1.878109	-0.539306	0.899487
C136	C	1.773694	-0.499881	0.945430
H137	H	1.893045	-0.622980	0.926999
H138	H	1.944702	-0.486507	0.927120
H139	H	1.873844	-0.537634	0.810258
H140	H	1.777856	-0.501553	1.034661
H141	H	1.707144	-0.552689	0.917716
H142	H	1.103410	-0.629580	0.732062
O143	O	1.278934	-0.906886	0.915238
C144	C	1.320664	-1.037605	1.044962
C145	C	1.338473	-0.998402	0.932206
H146	H	1.368807	-1.111588	1.058724
H147	H	1.234004	-1.055818	1.056889
H148	H	1.346051	-0.974375	1.102779
H149	H	1.313146	-1.061587	0.874319
H150	H	1.425138	-0.980158	0.920367
O151	O	1.826372	-1.353168	0.368809
C152	C	1.853240	-1.538524	0.344594
C153	C	1.797085	-1.439035	0.305688
H154	H	1.829600	-1.607968	0.293565
H155	H	1.830110	-1.554617	0.429381
H156	H	1.941653	-1.526619	0.339597
H157	H	1.708662	-1.450864	0.310616
H158	H	1.820301	-1.422973	0.220920
H159	H	0.929881	-0.622248	0.728019
H160	H	1.396364	-1.105287	0.628000
H161	H	0.919227	-0.384166	0.384476
H162	H	1.403452	-1.000605	0.777408
H163	H	1.107646	-0.728491	0.621370
H164	H	0.934110	-0.732605	0.628734
O165	O	1.625190	-0.996597	0.229221
C166	C	1.597630	-0.877455	0.085333
C167	C	1.653771	-0.976926	0.124308
H168	H	1.620699	-0.861532	0.000500
H169	H	1.621342	-0.807925	0.136214
H170	H	1.509216	-0.889313	0.090419
H171	H	1.742194	-0.965171	0.119223
H172	H	1.629973	-1.046420	0.073420
