data_functionalizedCrystal
_audit_creation_method	'MofGen! by Chris Wilmer'
_symmetry_space_group_name_H-M	'P1'
_symmetry_Int_Tables_number	1
_symmetry_cell_setting	triclinic
loop_
_symmetry_equiv_pos_as_xyz
  x,y,z
_cell_length_a	12.759401
_cell_length_b	12.759399
_cell_length_c	12.759393
_cell_angle_alpha	89.969094
_cell_angle_beta	89.980404
_cell_angle_gamma	90.015393
loop_
_atom_site_label
_atom_site_type_symbol
_atom_site_fract_x
_atom_site_fract_y
_atom_site_fract_z
Zn1	Zn	-1.606263	0.418208	0.593979
Zn2	Zn	-1.272930	0.751541	0.927313
Zn3	Zn	-0.939597	1.084874	1.260646
Zn4	Zn	-1.606153	0.593923	0.418298
Zn5	Zn	-1.272820	0.927257	0.751632
Zn6	Zn	-0.939486	1.260590	1.084965
Zn7	Zn	-1.430562	0.418260	0.418319
Zn8	Zn	-1.097229	0.751593	0.751652
Zn9	Zn	-0.763895	1.084926	1.084985
Zn10	Zn	-1.430553	0.593846	0.593940
Zn11	Zn	-1.097219	0.927179	0.927273
Zn12	Zn	-0.763886	1.260513	1.260606
O13	O	-1.518383	0.506059	0.506134
O14	O	-1.185049	0.839393	0.839467
O15	O	-0.851716	1.172726	1.172801
O16	O	-1.753270	0.441527	0.570683
O17	O	-1.419936	0.774861	0.904016
O18	O	-1.086603	1.108194	1.237350
O19	O	-1.582818	0.570675	0.271280
O20	O	-1.249485	0.904009	0.604613
O21	O	-0.916152	1.237342	0.937947
O22	O	-1.453919	0.271232	0.441646
O23	O	-1.120586	0.604565	0.774979
O24	O	-0.787253	0.937898	1.108312
O25	O	-1.753189	0.570625	0.441611
O26	O	-1.419855	0.903958	0.774944
O27	O	-1.086522	1.237291	1.108278
O28	O	-1.583006	0.271194	0.570703
O29	O	-1.249673	0.604527	0.904036
O30	O	-0.916340	0.937860	1.237370
O31	O	-1.453812	0.441616	0.271295
O32	O	-1.120479	0.774949	0.604628
O33	O	-0.787146	1.108283	0.937962
O34	O	-1.283540	0.441541	0.441607
O35	O	-0.950206	0.774874	0.774940
O36	O	-0.616873	1.108208	1.108274
O37	O	-1.453903	0.570493	0.740966
O38	O	-1.120570	0.903826	1.074299
O39	O	-0.787237	1.237160	1.407633
O40	O	-1.283533	0.570544	0.570635
O41	O	-0.950200	0.903877	0.903968
O42	O	-0.616866	1.237210	1.237302
O43	O	-1.582997	0.441452	0.740995
O44	O	-1.249664	0.774786	1.074329
O45	O	-0.916330	1.108119	1.407662
O46	O	-1.582809	0.740934	0.441572
O47	O	-1.249476	1.074267	0.774906
O48	O	-0.916143	1.407601	1.108239
O49	O	-1.453796	0.740877	0.570615
O50	O	-1.120463	1.074211	0.903949
O51	O	-0.787130	1.407544	1.237282
C52	C	-1.245415	0.506040	0.506120
C53	C	-0.912082	0.839374	0.839453
C54	C	-0.578749	1.172707	1.172786
C55	C	-1.128639	0.506058	0.506138
C56	C	-0.795305	0.839391	0.839472
C57	C	-0.461972	1.172724	1.172805
C58	C	-1.518318	0.779027	0.506110
C59	C	-1.184985	1.112360	0.839444
C60	C	-0.851652	1.445693	1.172777
C61	C	-1.518387	0.895803	0.506135
C62	C	-1.185054	1.229137	0.839468
C63	C	-0.851720	1.562470	1.172802
C64	C	-1.518461	0.505958	0.780168
C65	C	-1.185128	0.839292	1.113501
C66	C	-0.851795	1.172625	1.446834
C67	C	-1.518495	0.505915	0.896944
C68	C	-1.185162	0.839249	1.230278
C69	C	-0.851828	1.172582	1.563611
C70	C	-1.792416	0.506079	0.506149
C71	C	-1.459083	0.839412	0.839483
C72	C	-1.125749	1.172746	1.172816
C73	C	-1.909193	0.506087	0.506156
C74	C	-1.575859	0.839421	0.839489
C75	C	-1.242526	1.172754	1.172822
C76	C	-0.964070	0.573347	0.573225
C77	C	-0.630736	0.906681	0.906558
C78	C	-0.297403	1.240014	1.239891
C79	C	-1.073794	0.573336	0.573214
C80	C	-0.740460	0.906669	0.906547
C81	C	-0.407127	1.240002	1.239880
C82	C	-1.073754	0.438795	0.439062
C83	C	-0.740421	0.772128	0.772395
C84	C	-0.407087	1.105461	1.105729
C85	C	-0.964032	0.438812	0.439068
C86	C	-0.630699	0.772146	0.772402
C87	C	-0.297365	1.105479	1.105735
C88	C	-1.518476	0.232026	0.506181
C89	C	-1.185143	0.565359	0.839514
C90	C	-0.851809	0.898693	1.172848
C91	C	-1.518516	0.115249	0.506201
C92	C	-1.185182	0.448583	0.839534
C93	C	-0.851849	0.781916	1.172868
C94	C	-1.585641	0.950660	0.439019
C95	C	-1.252307	1.283993	0.772352
C96	C	-0.918974	1.617326	1.105685
C97	C	-1.585708	1.060384	0.439054
C98	C	-1.252375	1.393717	0.772387
C99	C	-0.919041	1.727050	1.105721
C100	C	-1.451259	1.060385	0.573325
C101	C	-1.117926	1.393718	0.906658
C102	C	-0.784592	1.727052	1.239991
C103	C	-1.451198	0.950663	0.573294
C104	C	-1.117864	1.283996	0.906627
C105	C	-0.784531	1.617330	1.239961
C106	C	-1.518365	0.506084	0.233167
C107	C	-1.185032	0.839417	0.566500
C108	C	-0.851698	1.172751	0.899833
C109	C	-1.518535	0.505831	0.116391
C110	C	-1.185202	0.839164	0.449724
C111	C	-0.851868	1.172498	0.783057
C112	C	-1.585719	0.438713	0.951823
C113	C	-1.252386	0.772046	1.285156
C114	C	-0.919052	1.105380	1.618490
C115	C	-1.585737	0.438668	1.061547
C116	C	-1.252403	0.772001	1.394881
C117	C	-0.919070	1.105335	1.728214
C118	C	-1.451303	0.573036	1.061504
C119	C	-1.117970	0.906369	1.394837
C120	C	-0.784637	1.239703	1.728171
C121	C	-1.451281	0.573075	0.951782
C122	C	-1.117948	0.906409	1.285115
C123	C	-0.784614	1.239742	1.618449
H124	H	-0.919423	0.628127	0.627851
H125	H	-0.586089	0.961461	0.961184
H126	H	-0.252756	1.294794	1.294518
Cl127	Cl	-1.142777	0.657898	0.657531
Cl128	Cl	-0.809444	0.991231	0.990864
Cl129	Cl	-0.476111	1.324565	1.324197
Cl130	Cl	-1.670109	0.881697	0.354593
Cl131	Cl	-1.336776	1.215030	0.687927
Cl132	Cl	-1.003443	1.548364	1.021260
H133	H	-1.118418	0.384020	0.384443
H134	H	-0.785084	0.717354	0.717777
H135	H	-0.451751	1.050687	1.051110
H136	H	-0.919350	0.384039	0.384448
H137	H	-0.586017	0.717373	0.717781
H138	H	-0.252683	1.050706	1.051114
Cl139	Cl	-1.366758	0.657559	0.882786
Cl140	Cl	-1.033424	0.990893	1.216119
Cl141	Cl	-0.700091	1.324226	1.549453
H142	H	-1.640446	0.384024	0.907178
H143	H	-1.307113	0.717358	1.240511
H144	H	-0.973779	1.050691	1.573844
Cl145	Cl	-1.366649	0.881695	0.657682
Cl146	Cl	-1.033316	1.215028	0.991015
Cl147	Cl	-0.699982	1.548362	1.324348
H148	H	-1.640476	0.383943	1.106225
H149	H	-1.307142	0.717277	1.439558
H150	H	-0.973809	1.050610	1.772892
H151	H	-1.396583	0.627718	1.106166
H152	H	-1.063249	0.961051	1.439499
H153	H	-0.729916	1.294384	1.772833
H154	H	-1.640474	1.105043	0.384403
H155	H	-1.307141	1.438376	0.717736
H156	H	-0.973808	1.771710	1.051069
H157	H	-1.396555	1.105065	0.628002
H158	H	-1.063221	1.438398	0.961335
H159	H	-0.729888	1.771732	1.294668
