data_functionalizedCrystal
_audit_creation_method	'MofGen! by Chris Wilmer'
_symmetry_space_group_name_H-M	'P1'
_symmetry_Int_Tables_number	1
_symmetry_cell_setting	triclinic
loop_
_symmetry_equiv_pos_as_xyz
  x,y,z
_cell_length_a	10.654549
_cell_length_b	8.559649
_cell_length_c	9.130313
_cell_angle_alpha	89.997262
_cell_angle_beta	89.997498
_cell_angle_gamma	77.131721
loop_
_atom_site_label
_atom_site_type_symbol
_atom_site_fract_x
_atom_site_fract_y
_atom_site_fract_z
O1	O	1.644682	0.224182	-0.121758
O2	O	1.276997	0.245542	-0.121768
O3	O	1.493233	0.002619	-0.121761
O4	O	1.428446	0.467105	-0.121766
O5	O	1.493221	0.002612	0.121838
O6	O	1.276985	0.245534	0.121831
O7	O	1.644670	0.224175	0.121840
Cu8	Cu	1.460826	0.234854	0.144078
Cu9	Cu	1.460841	0.234862	-0.144006
O10	O	1.428434	0.467098	0.121833
C11	C	1.230355	0.243970	0.000030
C12	C	1.091396	0.239278	0.000026
C13	C	0.866564	0.377886	0.000031
C14	C	0.997128	0.382307	0.000022
C15	C	1.055096	0.091818	0.000024
C16	C	0.924534	0.087400	0.000023
C17	C	1.498136	-0.056860	0.000036
C18	C	1.512751	-0.234078	0.000028
C19	C	1.691312	0.225747	0.000039
C20	C	1.830270	0.230439	0.000033
C21	C	1.423530	0.526577	0.000033
C22	C	1.408916	0.703795	0.000031
N23	N	1.460825	0.234847	0.346701
N24	N	1.460853	0.234857	-0.346628
C25	C	1.556598	0.127327	0.423356
C26	C	1.556610	0.127327	0.576693
C27	C	1.365070	0.342382	0.576706
C28	C	1.365054	0.342373	0.423372
H29	H	0.894988	-0.032677	0.000020
H30	H	1.308838	-0.213817	0.000033
O31	O	1.261741	0.458330	0.340674
H32	H	1.307042	0.536519	0.270776
O33	O	1.659857	0.011319	0.340649
H34	H	1.714346	0.079199	0.270762
H35	H	1.612835	-0.316475	0.000043
O36	O	1.659921	0.011380	0.659377
H37	H	1.726518	-0.063373	0.580296
O38	O	1.261797	0.458378	0.659405
H39	H	1.165970	0.436884	0.630016
H40	H	0.789816	0.494358	0.000038
H41	H	1.131861	-0.024638	0.000019
O42	O	1.036277	0.541339	0.000021
H43	H	1.094384	0.550285	0.099300
