data_functionalizedCrystal
_audit_creation_method	'MofGen! by Chris Wilmer'
_symmetry_space_group_name_H-M	'P1'
_symmetry_Int_Tables_number	1
_symmetry_cell_setting	triclinic
loop_
_symmetry_equiv_pos_as_xyz
  x,y,z
_cell_length_a	12.759401
_cell_length_b	19.120786
_cell_length_c	12.759393
_cell_angle_alpha	87.522629
_cell_angle_beta	89.982620
_cell_angle_gamma	92.465417
loop_
_atom_site_label
_atom_site_type_symbol
_atom_site_fract_x
_atom_site_fract_y
_atom_site_fract_z
Zn1	Zn	1.588324	-0.279586	-0.576098
Zn2	Zn	2.088324	0.220414	-0.076098
Zn3	Zn	1.580692	-0.397063	-0.392903
Zn4	Zn	2.080692	0.102937	0.107097
Zn5	Zn	1.412627	-0.279623	-0.400435
Zn6	Zn	1.912627	0.220377	0.099565
Zn7	Zn	1.405088	-0.397009	-0.568548
Zn8	Zn	1.905088	0.102991	-0.068548
O9	O	1.496683	-0.338320	-0.484496
O10	O	1.996683	0.161680	0.015504
O11	O	1.734332	-0.295177	-0.551804
O12	O	2.234332	0.204823	-0.051804
O13	O	1.558359	-0.381523	-0.246879
O14	O	2.058359	0.118477	0.253121
O15	O	1.442282	-0.181327	-0.430048
O16	O	1.942282	0.318673	0.069952
O17	O	1.728725	-0.381487	-0.417212
O18	O	2.228725	0.118513	0.082788
O19	O	1.571366	-0.181300	-0.559107
O20	O	2.071366	0.318700	-0.059107
O21	O	1.434882	-0.295240	-0.252412
O22	O	1.934882	0.204760	0.247588
O23	O	1.264606	-0.295187	-0.422728
O24	O	1.764606	0.204813	0.077272
O25	O	1.429434	-0.381394	-0.716573
O26	O	1.929434	0.118606	-0.216573
O27	O	1.259068	-0.381430	-0.546240
O28	O	1.759068	0.118570	-0.046240
O29	O	1.564056	-0.295124	-0.722120
O30	O	2.064056	0.204876	-0.222120
O31	O	1.551049	-0.495347	-0.409892
O32	O	2.051049	0.004653	0.090108
O33	O	1.422034	-0.495307	-0.538937
O34	O	1.922034	0.004693	-0.038937
C35	C	1.223716	-0.338307	-0.484482
C36	C	1.723716	0.161693	0.015518
C37	C	1.106939	-0.338319	-0.484501
C38	C	1.606939	0.161681	0.015499
C39	C	1.484924	-0.520812	-0.472801
C40	C	1.984924	-0.020812	0.027199
C41	C	1.479989	-0.598883	-0.467833
C42	C	1.979989	-0.098883	0.032167
C43	C	1.049216	-0.383297	-0.548698
C44	C	1.549216	0.116703	-0.048698
C45	C	0.939491	-0.383306	-0.548709
C46	C	1.439491	0.116694	-0.048709
C47	C	0.945223	-0.293356	-0.420316
C48	C	1.445223	0.206644	0.079684
C49	C	1.054945	-0.293344	-0.420312
C50	C	1.554945	0.206656	0.079688
C51	C	1.045906	-0.435231	-0.622821
C52	C	1.545906	0.064769	-0.122821
C53	C	0.936181	-0.435240	-0.622832
C54	C	1.436181	0.064760	-0.122832
C55	C	1.544828	-0.635487	-0.532747
C56	C	2.044828	-0.135487	-0.032747
C57	C	1.540187	-0.708843	-0.528081
C58	C	2.040187	-0.208843	-0.028081
C59	C	1.470712	-0.745594	-0.458494
C60	C	1.970712	-0.245594	0.041506
C61	C	1.405867	-0.708986	-0.393577
C62	C	1.905867	-0.208986	0.106423
C63	C	1.410503	-0.635631	-0.398249
C64	C	1.910503	-0.135631	0.101751
C65	C	1.453350	-0.967081	-0.441028
C66	C	1.953350	-0.467081	0.058972
C67	C	1.448721	-1.040441	-0.436358
C68	C	1.948721	-0.540441	0.063642
C69	C	1.583040	-1.040293	-0.570864
C70	C	2.083040	-0.540293	-0.070864
C71	C	1.587675	-0.966937	-0.575526
C72	C	2.087675	-0.466937	-0.075526
C73	C	1.522825	-0.930335	-0.510612
C74	C	2.022825	-0.430335	-0.010612
C75	C	1.465969	-0.820576	-0.453721
C76	C	1.965969	-0.320576	0.046279
C77	C	1.527564	-0.855355	-0.515392
C78	C	2.027564	-0.355355	-0.015392
C79	C	1.770715	-0.338334	-0.484510
C80	C	2.270715	0.161666	0.015490
C81	C	1.887492	-0.338339	-0.484516
C82	C	2.387492	0.161661	0.015484
C83	C	1.496756	-0.338249	-0.758534
C84	C	1.996756	0.161751	-0.258534
C85	C	1.496787	-0.338218	-0.875313
C86	C	1.996787	0.161782	-0.375313
C87	C	1.508517	-0.155115	-0.496260
C88	C	2.008517	0.344885	0.003740
C89	C	1.513559	-0.077044	-0.501273
C90	C	2.013559	0.422956	-0.001273
C91	C	1.432521	-0.293283	-0.933062
C92	C	1.932521	0.206717	-0.433062
C93	C	1.432554	-0.293262	-1.042788
C94	C	1.932554	0.206738	-0.542788
C95	C	1.561127	-0.383114	-1.037004
C96	C	2.061127	0.116886	-0.537004
C97	C	1.561088	-0.383138	-0.927280
C98	C	2.061088	0.116862	-0.427280
C99	C	1.358294	-0.241405	-0.936403
C100	C	1.858294	0.258595	-0.436403
C101	C	1.358327	-0.241384	-1.046128
C102	C	1.858327	0.258616	-0.546128
C103	C	1.496674	-0.338341	-0.211527
C104	C	1.996674	0.161659	0.288473
C105	C	1.496859	-0.338173	-0.094762
C106	C	1.996859	0.161827	0.405238
H107	H	1.101940	-0.256714	-0.368043
H108	H	1.601940	0.243286	0.131957
H109	H	1.076642	-0.420724	-0.705155
H110	H	1.576642	0.079276	-0.205155
H111	H	1.076610	-0.486878	-0.590233
H112	H	1.576610	0.013122	-0.090233
C113	C	0.891209	-0.508704	-0.588496
C114	C	1.391209	-0.008704	-0.088496
H115	H	0.816751	-0.508708	-0.588515
H116	H	1.316751	-0.008708	-0.088515
H117	H	0.915213	-0.520798	-0.519887
H118	H	1.415213	-0.020798	-0.019887
H119	H	0.913905	-0.541926	-0.635921
H120	H	1.413905	-0.041926	-0.135921
H121	H	1.279782	-0.260856	-1.078909
H122	H	1.779782	0.239144	-0.578909
C123	C	1.329448	-0.749410	-0.317031
C124	C	1.829448	-0.249410	0.182969
H125	H	1.335981	-0.798340	-0.323536
H126	H	1.835981	-0.298340	0.176464
H127	H	1.259605	-0.737424	-0.333105
H128	H	1.759605	-0.237424	0.166895
H129	H	1.345632	-0.737412	-0.247215
H130	H	1.845632	-0.237412	0.252785
C131	C	0.888026	-0.243890	-0.349711
C132	C	1.388026	0.256110	0.150289
H133	H	0.814411	-0.250341	-0.358904
H134	H	1.314411	0.249659	0.141096
H135	H	0.909048	-0.196708	-0.368226
H136	H	1.409048	0.303292	0.131774
H137	H	0.905322	-0.254116	-0.278434
H138	H	1.405322	0.245884	0.221566
C139	C	1.339182	-0.595367	-0.326842
C140	C	1.839182	-0.095367	0.173158
H141	H	1.297147	-0.627760	-0.284723
H142	H	1.797147	-0.127760	0.215277
H143	H	1.295192	-0.566759	-0.368816
H144	H	1.795192	-0.066759	0.131184
H145	H	1.381210	-0.566751	-0.282918
H146	H	1.881210	-0.066751	0.217082
H147	H	0.903427	-0.415823	-0.701426
H148	H	1.403427	0.084177	-0.201426
C149	C	1.392590	-0.167904	-1.091095
C150	C	1.892590	0.332096	-0.591095
H151	H	1.392616	-0.167894	-1.165554
H152	H	1.892616	0.332106	-0.665554
H153	H	1.461172	-0.155791	-1.067053
H154	H	1.961172	0.344209	-0.567053
H155	H	1.345115	-0.134698	-1.068433
H156	H	1.845115	0.365302	-0.568433
C157	C	1.621238	-0.595067	-0.609306
C158	C	2.121238	-0.095067	-0.109306
H159	H	1.659178	-0.627375	-0.647309
H160	H	2.159178	-0.127375	-0.147309
H161	H	1.668853	-0.566439	-0.570995
H162	H	2.168853	-0.066439	-0.070995
H163	H	1.582812	-0.566457	-0.656870
H164	H	2.082812	-0.066457	-0.156870
H165	H	1.409406	-0.850507	-0.397060
H166	H	1.909406	-0.350507	0.102940
H167	H	1.635836	-1.070102	-0.623714
H168	H	2.135836	-0.570102	-0.123714
C169	C	1.664114	-0.926516	-0.652054
C170	C	2.164114	-0.426516	-0.152054
H171	H	1.702067	-0.958822	-0.690048
H172	H	2.202067	-0.458822	-0.190048
H173	H	1.711714	-0.897900	-0.613707
H174	H	2.211714	-0.397900	-0.113707
H175	H	1.625720	-0.897894	-0.699630
H176	H	2.125720	-0.397894	-0.199630
H177	H	1.592994	-0.738642	-0.580933
H178	H	2.092994	-0.238642	-0.080933
C179	C	1.372287	-1.080867	-0.359818
C180	C	1.872287	-0.580867	0.140182
H181	H	1.334320	-1.048562	-0.321834
H182	H	1.834320	-0.548562	0.178166
H183	H	1.410689	-1.109482	-0.312250
H184	H	1.910689	-0.609482	0.187750
H185	H	1.324683	-1.109488	-0.398160
H186	H	1.824683	-0.609488	0.101840
C187	C	1.382032	-0.926828	-0.369612
C188	C	1.882032	-0.426828	0.130388
H189	H	1.340004	-0.959224	-0.327491
H190	H	1.840004	-0.459224	0.172509
H191	H	1.338035	-0.898217	-0.411574
H192	H	1.838035	-0.398217	0.088426
H193	H	1.424067	-0.898215	-0.325689
H194	H	1.924067	-0.398215	0.174311
C195	C	1.631775	-0.432569	-0.863759
C196	C	2.131775	0.067431	-0.363759
H197	H	1.670082	-0.459312	-0.910426
H198	H	2.170082	0.040688	-0.410426
H199	H	1.589593	-0.463178	-0.818987
H200	H	2.089593	0.036822	-0.318987
H201	H	1.679281	-0.405710	-0.822685
H202	H	2.179281	0.094290	-0.322685
C203	C	1.603971	-0.814934	-0.591946
C204	C	2.103971	-0.314934	-0.091946
H205	H	1.641921	-0.847237	-0.629949
H206	H	2.141921	-0.347237	-0.129949
H207	H	1.651576	-0.786306	-0.553626
H208	H	2.151576	-0.286306	-0.053626
H209	H	1.565545	-0.786325	-0.639511
H210	H	2.065545	-0.286325	-0.139511
H211	H	1.613480	-0.419686	-1.079330
H212	H	2.113480	0.080314	-0.579330
H213	H	1.275971	-0.255972	-0.905693
H214	H	1.775971	0.244028	-0.405693
H215	H	1.390770	-0.189740	-0.905691
H216	H	1.890770	0.310260	-0.405691
