data_functionalizedCrystal
_audit_creation_method	'MofGen! by Chris Wilmer'
_symmetry_space_group_name_H-M	'P1'
_symmetry_Int_Tables_number	1
_symmetry_cell_setting	triclinic
loop_
_symmetry_equiv_pos_as_xyz
  x,y,z
_cell_length_a	16.625546
_cell_length_b	12.759401
_cell_length_c	12.759393
_cell_angle_alpha	89.977503
_cell_angle_beta	90.035119
_cell_angle_gamma	89.976710
loop_
_atom_site_label
_atom_site_type_symbol
_atom_site_fract_x
_atom_site_fract_y
_atom_site_fract_z
Zn1	Zn	-0.320945	-1.606210	0.594030
Zn2	Zn	0.179055	-1.106210	1.094030
Zn3	Zn	-0.455799	-1.606077	0.418336
Zn4	Zn	0.044201	-1.106077	0.918336
Zn5	Zn	-0.320986	-1.430508	0.418360
Zn6	Zn	0.179014	-0.930508	0.918360
Zn7	Zn	-0.455741	-1.430476	0.593968
Zn8	Zn	0.044259	-0.930476	1.093968
O9	O	-0.388368	-1.518318	0.506174
O10	O	0.111632	-1.018318	1.006174
O11	O	-0.338841	-1.753213	0.570739
O12	O	0.161159	-1.253213	1.070739
O13	O	-0.437957	-1.582745	0.271318
O14	O	0.062043	-1.082745	0.771318
O15	O	-0.208148	-1.453884	0.441699
O16	O	0.291852	-0.953884	0.941699
O17	O	-0.437917	-1.753116	0.441658
O18	O	0.062083	-1.253116	0.941658
O19	O	-0.208118	-1.582971	0.570763
O20	O	0.291882	-1.082971	1.070763
O21	O	-0.338911	-1.453756	0.271336
O22	O	0.161089	-0.953756	0.771336
O23	O	-0.338855	-1.283483	0.441640
O24	O	0.161145	-0.783483	0.941640
O25	O	-0.437819	-1.453830	0.740998
O26	O	0.062181	-0.953830	1.240998
O27	O	-0.437859	-1.283460	0.570658
O28	O	0.062141	-0.783460	1.070658
O29	O	-0.338784	-1.582940	0.741043
O30	O	0.161216	-1.082940	1.241043
O31	O	-0.568624	-1.582714	0.441598
O32	O	-0.068624	-1.082714	0.941598
O33	O	-0.568581	-1.453701	0.570634
O34	O	-0.068581	-0.953701	1.070634
C35	C	-0.388355	-1.245350	0.506145
C36	C	0.111645	-0.745350	1.006145
C37	C	-0.388370	-1.128574	0.506158
C38	C	0.111630	-0.628574	1.006158
C39	C	-0.439999	-1.073727	0.573231
C40	C	0.060001	-0.573727	1.073231
C41	C	-0.440001	-0.964003	0.573249
C42	C	0.059999	-0.464003	1.073249
C43	C	-0.336742	-0.963982	0.439112
C44	C	0.163258	-0.463982	0.939112
C45	C	-0.336737	-1.073704	0.439101
C46	C	0.163263	-0.573704	0.939101
C47	C	-0.597859	-1.518218	0.506130
C48	C	-0.097859	-1.018218	1.006130
C49	C	-0.687480	-1.518272	0.506146
C50	C	-0.187480	-1.018272	1.006146
C51	C	-1.015655	-1.518455	0.506255
C52	C	-0.515655	-1.018455	1.006255
C53	C	-0.924347	-1.518401	0.506228
C54	C	-0.424347	-1.018401	1.006228
C55	C	-0.851571	-1.518363	0.506200
C56	C	-0.351571	-1.018363	1.006200
C57	C	-0.760256	-1.518310	0.506174
C58	C	-0.260256	-1.018310	1.006174
C59	C	-0.178059	-1.518446	0.506241
C60	C	0.321941	-1.018446	1.006241
C61	C	-0.088438	-1.518501	0.506269
C62	C	0.411562	-1.018501	1.006269
C63	C	-0.388290	-1.518396	0.780207
C64	C	0.111710	-1.018396	1.280207
C65	C	-0.388257	-1.518430	0.896984
C66	C	0.111743	-1.018430	1.396984
C67	C	-0.388379	-0.792351	0.506196
C68	C	0.111621	-0.292351	1.006196
C69	C	-0.388377	-0.909128	0.506188
C70	C	0.111623	-0.409128	1.006188
C71	C	-0.388387	-1.518300	0.233206
C72	C	0.111613	-1.018300	0.733206
C73	C	-0.388193	-1.518470	0.116430
C74	C	0.111807	-1.018470	0.616430
C75	C	-0.336682	-1.585663	0.951871
C76	C	0.163318	-1.085663	1.451871
C77	C	-0.336647	-1.585681	1.061595
C78	C	0.163353	-1.085681	1.561595
C79	C	-0.439770	-1.451230	1.061535
C80	C	0.060230	-0.951230	1.561535
C81	C	-0.439800	-1.451208	0.951813
C82	C	0.060200	-0.951208	1.451813
H83	H	-0.294706	-0.919294	0.384515
H84	H	0.205294	-0.419294	0.884515
H85	H	-0.294689	-1.118362	0.384482
H86	H	0.205311	-0.618362	0.884482
H87	H	-0.294710	-1.640397	0.907232
H88	H	0.205290	-1.140397	1.407232
O89	O	-0.490021	-1.386008	0.898535
O90	O	0.009979	-0.886008	1.398535
C91	C	-0.627177	-1.334871	0.864943
C92	C	-0.127177	-0.834871	1.364943
C93	C	-0.570401	-1.408789	0.925327
C94	C	-0.070401	-0.908789	1.425327
H95	H	-0.692175	-1.353249	0.886599
H96	H	-0.192175	-0.853249	1.386599
H97	H	-0.618411	-1.346406	0.777092
H98	H	-0.118411	-0.846406	1.277092
H99	H	-0.612965	-1.250175	0.886491
H100	H	-0.112965	-0.750175	1.386491
H101	H	-0.584578	-1.493514	0.903868
H102	H	-0.084578	-0.993514	1.403868
H103	H	-0.579178	-1.397164	1.013164
H104	H	-0.079178	-0.897164	1.513164
H105	H	-0.481736	-1.396502	1.106191
H106	H	0.018264	-0.896502	1.606191
H107	H	-0.294648	-1.640427	1.106280
H108	H	0.205352	-1.140427	1.606280
O109	O	-0.490173	-1.126866	0.638475
O110	O	0.009827	-0.626866	1.138475
C111	C	-0.592618	-1.115301	0.771485
C112	C	-0.092618	-0.615301	1.271485
C113	C	-0.535826	-1.054995	0.697662
C114	C	-0.035826	-0.554995	1.197662
H115	H	-0.629556	-1.057220	0.819342
H116	H	-0.129556	-0.557220	1.319342
H117	H	-0.555685	-1.166685	0.826572
H118	H	-0.055685	-0.666685	1.326572
H119	H	-0.634700	-1.166656	0.723132
H120	H	-0.134700	-0.666656	1.223132
H121	H	-0.493734	-1.003583	0.745931
H122	H	0.006266	-0.503583	1.245931
H123	H	-0.572810	-1.003678	0.642573
H124	H	-0.072810	-0.503678	1.142573
H125	H	-0.482041	-0.919352	0.627868
H126	H	0.017959	-0.419352	1.127868
