data_functionalizedCrystal
_audit_creation_method	'MofGen! by Chris Wilmer'
_symmetry_space_group_name_H-M	'P1'
_symmetry_Int_Tables_number	1
_symmetry_cell_setting	triclinic
loop_
_symmetry_equiv_pos_as_xyz
  x,y,z
_cell_length_a	13.032831
_cell_length_b	13.032721
_cell_length_c	11.169409
_cell_angle_alpha	97.146003
_cell_angle_beta	82.804574
_cell_angle_gamma	90.902885
loop_
_atom_site_label
_atom_site_type_symbol
_atom_site_fract_x
_atom_site_fract_y
_atom_site_fract_z
Zn1	Zn	1.520321	-0.609291	-0.988812
Zn2	Zn	1.498349	-0.781285	-0.809996
Zn3	Zn	1.348321	-0.587479	-0.759912
Zn4	Zn	1.326469	-0.759339	-0.982404
O5	O	1.423365	-0.684348	-0.885281
O6	O	1.661321	-0.650420	-0.988734
O7	O	1.478397	-0.755632	-0.635403
O8	O	1.389478	-0.446468	-0.771997
O9	O	1.645178	-0.776783	-0.857358
O10	O	1.515845	-0.462494	-0.940169
O11	O	1.368172	-0.613243	-0.598607
O12	O	1.201507	-0.591963	-0.765784
O13	O	1.352234	-0.739379	-1.151203
O14	O	1.185452	-0.718228	-0.929248
O15	O	1.494656	-0.629139	-1.155911
O16	O	1.457208	-0.922277	-0.851145
O17	O	1.330928	-0.906154	-0.977813
C18	C	1.156164	-0.650348	-0.841387
C19	C	1.041851	-0.635827	-0.822640
C20	C	0.982958	-0.691927	-0.895065
C21	C	0.864810	-0.676920	-0.875691
C22	C	1.389340	-0.951532	-0.919249
C23	C	1.374879	-1.065846	-0.933836
C24	C	1.430967	-1.124761	-0.877731
C25	C	1.416022	-1.242911	-0.892806
C26	C	1.691609	-0.718482	-0.929348
C27	C	1.805918	-0.733028	-0.948126
C28	C	1.423458	-0.684244	-1.198322
C29	C	1.423498	-0.684200	-1.331722
C30	C	1.457550	-0.416125	-0.851211
C31	C	1.472118	-0.301824	-0.836693
C32	C	1.423340	-0.684385	-0.573458
C33	C	1.423536	-0.684165	-0.440055
H34	H	1.020007	-0.751062	-0.971417
N35	N	1.337743	-1.291938	-0.971216
H36	H	1.356024	-1.275249	-1.057231
H37	H	1.338192	-1.369375	-0.970773
H38	H	0.827767	-0.617773	-0.799342
N39	N	1.550396	-1.252795	-0.758283
H40	H	1.549981	-1.175343	-0.758629
H41	H	1.532067	-1.269560	-0.672310
N42	N	1.509229	-1.075713	-0.799318
H43	H	1.490945	-1.092399	-0.713303
H44	H	1.580341	-1.103640	-0.832547
H45	H	0.842961	-0.792165	-1.024486
H46	H	1.004803	-0.576684	-0.746297
H47	H	1.315799	-1.102877	-0.993037
