data_functionalizedCrystal
_audit_creation_method	'MofGen! by Chris Wilmer'
_symmetry_space_group_name_H-M	'P1'
_symmetry_Int_Tables_number	1
_symmetry_cell_setting	triclinic
loop_
_symmetry_equiv_pos_as_xyz
  x,y,z
_cell_length_a	14.519709
_cell_length_b	13.339070
_cell_length_c	12.996460
_cell_angle_alpha	89.996957
_cell_angle_beta	90.000034
_cell_angle_gamma	99.654720
loop_
_atom_site_label
_atom_site_type_symbol
_atom_site_fract_x
_atom_site_fract_y
_atom_site_fract_z
O1	O	-1.257618	-0.132673	0.085426
O2	O	-0.993115	-0.148296	0.085456
O3	O	-1.095010	0.006834	0.085441
O4	O	-1.155723	-0.287803	0.085440
O5	O	-1.094993	0.006843	-0.085692
O6	O	-0.993098	-0.148288	-0.085678
O7	O	-1.257601	-0.132664	-0.085708
Cu8	Cu	-1.125348	-0.140475	-0.101319
Cu9	Cu	-1.125368	-0.140485	0.101067
O10	O	-1.155706	-0.287794	-0.085693
C11	C	-0.958562	-0.147564	-0.000107
C12	C	-0.855625	-0.145382	-0.000095
C13	C	-1.292154	-0.133396	-0.000143
C14	C	-1.395091	-0.135578	-0.000148
C15	C	-1.084746	0.044546	-0.000123
C16	C	-1.054177	0.156903	-0.000115
C17	C	-0.478686	-0.137349	-0.000141
C18	C	-0.583562	-0.139580	-0.000128
C19	C	-0.667153	-0.141365	-0.000117
C20	C	-0.772035	-0.143596	-0.000106
C21	C	-1.165970	-0.325506	-0.000127
C22	C	-1.196539	-0.437863	-0.000128
N23	N	-1.125341	-0.140467	-0.243666
C24	C	-1.291868	0.521266	-0.000143
C25	C	-1.320592	0.415701	-0.000156
C26	C	-1.253991	0.350997	-0.000146
C27	C	-1.158660	0.391867	-0.000123
C28	C	-1.129933	0.497442	-0.000118
C29	C	-1.092056	0.327173	-0.000120
C30	C	-0.996725	0.368043	-0.000097
C31	C	-0.968003	0.473608	-0.000092
C32	C	-1.034604	0.538312	-0.000102
C33	C	-1.120783	0.221598	-0.000125
C34	C	-0.958848	0.197774	-0.000100
C35	C	-0.930124	0.303338	-0.000087
C36	C	-1.125367	-0.140486	-0.663480
C37	C	-1.125358	-0.140484	-0.546675
C38	C	-1.125354	-0.140478	-0.453577
C39	C	-1.125344	-0.140474	-0.336764
N40	N	-1.125381	-0.140485	0.243414
H41	H	-1.198402	0.188332	-0.000144
H42	H	-0.904615	0.145091	-0.000096
H43	H	-1.277384	0.265042	-0.000157
H44	H	-1.398210	0.382433	-0.000177
H45	H	-1.346085	0.573957	-0.000160
O46	O	-0.875389	0.513260	0.000105
C47	C	-0.833160	0.480187	0.088730
H48	H	-0.888438	0.458134	0.150671
H49	H	-0.799348	0.411481	0.068697
C50	C	-0.690140	0.593749	0.052852
C51	C	-0.758032	0.566671	0.128932
H52	H	-0.643794	0.647093	0.077650
H53	H	-0.718588	0.616028	-0.006858
H54	H	-0.661974	0.536485	0.036165
H55	H	-0.786205	0.623930	0.145609
H56	H	-0.729587	0.544403	0.188647
O57	O	-0.837511	0.342998	0.000113
C58	C	-0.795281	0.309928	0.088738
H59	H	-0.850560	0.287865	0.150676
H60	H	-0.761460	0.241228	0.068703
C61	C	-0.652269	0.423508	0.052869
C62	C	-0.720163	0.396418	0.128946
H63	H	-0.605930	0.476856	0.077670
H64	H	-0.680719	0.445785	-0.006842
H65	H	-0.624096	0.366250	0.036180
H66	H	-0.748343	0.453671	0.145624
H67	H	-0.691716	0.374152	0.188661
H68	H	-1.011221	0.624273	-0.000088
