data_functionalizedCrystal
_audit_creation_method	'MofGen! by Chris Wilmer'
_symmetry_space_group_name_H-M	'P1'
_symmetry_Int_Tables_number	1
_symmetry_cell_setting	triclinic
loop_
_symmetry_equiv_pos_as_xyz
  x,y,z
_cell_length_a	23.532407
_cell_length_b	22.010155
_cell_length_c	23.532407
_cell_angle_alpha	90.000423
_cell_angle_beta	97.151284
_cell_angle_gamma	89.994913
loop_
_atom_site_label
_atom_site_type_symbol
_atom_site_fract_x
_atom_site_fract_y
_atom_site_fract_z
O1	O	-0.755264	0.050484	0.069127
O2	O	-0.589400	0.050496	0.079130
O3	O	-0.677334	0.050479	-0.008803
O4	O	-0.667330	0.050502	0.157061
O5	O	-0.677318	-0.050572	-0.008790
O6	O	-0.589384	-0.050554	0.079144
O7	O	-0.755248	-0.050566	0.069141
Cu8	Cu	-0.672315	-0.059787	0.074143
Cu9	Cu	-0.672333	0.059717	0.074128
O10	O	-0.667314	-0.050549	0.157074
C11	C	-0.568176	-0.000027	0.078882
C12	C	-0.504959	-0.000023	0.078116
N13	N	-0.672305	-0.143839	0.074154
C14	C	-0.238792	-0.000044	0.022921
C15	C	-0.298192	-0.000045	0.023632
O16	O	-0.334937	-0.000072	-0.020153
N17	N	-0.320818	-0.000033	0.075909
C18	C	-0.284041	-0.000028	0.127477
O19	O	-0.308740	-0.000019	0.172007
C20	C	-0.224642	-0.000032	0.126765
C21	C	-0.202019	-0.000037	0.074485
C22	C	-0.216168	-0.000050	-0.029354
C23	C	-0.156772	-0.000048	-0.030066
C24	C	-0.119999	-0.000041	0.021499
C25	C	-0.142623	-0.000035	0.073774
C26	C	-0.187865	-0.000031	0.178333
C27	C	-0.128463	-0.000035	0.177616
C28	C	-0.105840	-0.000040	0.125336
C29	C	-0.046454	-0.000027	0.124627
N30	N	-0.023828	-0.000038	0.072351
C31	C	-0.060600	-0.000045	0.020787
C32	C	-0.408783	-0.000021	0.128968
C33	C	-0.468181	-0.000013	0.129681
C34	C	-0.482328	-0.000030	0.025836
C35	C	-0.422929	-0.000034	0.025124
C36	C	-0.386157	-0.000032	0.076692
C37	C	0.064136	-0.000041	0.019297
C38	C	0.123538	-0.000037	0.018590
C39	C	0.137680	-0.000023	0.122435
C40	C	0.078284	-0.000023	0.123142
C41	C	0.041512	-0.000035	0.071568
O42	O	-0.009675	-0.000002	0.168390
O43	O	-0.035892	-0.000062	-0.023737
C44	C	-0.711273	-0.563627	0.035196
C45	C	-0.711275	-0.627234	0.035192
O46	O	-0.744383	-0.660132	0.002077
N47	N	-0.672333	-0.659047	0.074116
C48	C	-0.633382	-0.627248	0.113042
O49	O	-0.600259	-0.660147	0.146148
C50	C	-0.633377	-0.563641	0.113043
C51	C	-0.672326	-0.531832	0.074120
C52	C	-0.750217	-0.531818	-0.003723
C53	C	-0.750215	-0.468214	-0.003718
C54	C	-0.711268	-0.436420	0.035206
C55	C	-0.672323	-0.468229	0.074125
C56	C	-0.594424	-0.531844	0.151965
C57	C	-0.594422	-0.468233	0.151962
C58	C	-0.633370	-0.436424	0.113040
C59	C	-0.633374	-0.372832	0.113054
N60	N	-0.672316	-0.341020	0.074131
C61	C	-0.711263	-0.372814	0.035207
C62	C	-0.633395	-0.760826	0.113037
C63	C	-0.633402	-0.824431	0.113039
C64	C	-0.711294	-0.824413	0.035189
C65	C	-0.711290	-0.760807	0.035190
C66	C	-0.672337	-0.729013	0.074113
C67	C	-0.711256	-0.239242	0.035220
C68	C	-0.711252	-0.175634	0.035230
C69	C	-0.633358	-0.175657	0.113078
C70	C	-0.633364	-0.239260	0.113070
C71	C	-0.672315	-0.271052	0.074137
O72	O	-0.600282	-0.339893	0.146151
O73	O	-0.744376	-0.339907	0.002101
C74	C	0.223528	-0.000038	0.069389
C75	C	0.160311	-0.000030	0.070155
C76	C	-0.677071	-0.000048	-0.030012
C77	C	-0.676305	-0.000053	-0.093229
N78	N	-0.672347	0.143769	0.074113
C79	C	-0.723538	-0.000023	-0.492332
C80	C	-0.722827	-0.000018	-0.551733
O81	O	-0.766613	0.000001	-0.588477
N82	N	-0.670551	-0.000015	-0.574359
C83	C	-0.618982	-0.000010	-0.537581
O84	O	-0.574452	-0.000006	-0.562281
C85	C	-0.619695	-0.000010	-0.478182
C86	C	-0.671974	-0.000020	-0.455559
C87	C	-0.775814	-0.000032	-0.469709
C88	C	-0.776525	-0.000038	-0.410313
C89	C	-0.724961	-0.000035	-0.373540
C90	C	-0.672685	-0.000026	-0.396163
C91	C	-0.568127	-0.000001	-0.441406
C92	C	-0.568843	-0.000001	-0.382003
C93	C	-0.621123	-0.000010	-0.359381
C94	C	-0.621832	-0.000028	-0.299994
N95	N	-0.674109	-0.000032	-0.277368
C96	C	-0.725673	-0.000035	-0.314141
C97	C	-0.617491	-0.000008	-0.662324
C98	C	-0.616778	-0.000012	-0.721722
C99	C	-0.720623	-0.000019	-0.735869
C100	C	-0.721335	-0.000020	-0.676470
C101	C	-0.669767	-0.000012	-0.639698
C102	C	-0.727163	-0.000048	-0.189404
C103	C	-0.727869	-0.000056	-0.130002
C104	C	-0.624025	-0.000045	-0.115860
C105	C	-0.623318	-0.000040	-0.175257
C106	C	-0.674891	-0.000039	-0.212028
O107	O	-0.578069	-0.000045	-0.263215
O108	O	-0.770196	-0.000031	-0.289433
C109	C	-0.667577	-0.000021	0.178283
C110	C	-0.668343	-0.000012	0.241500
H111	H	0.141954	-0.000039	-0.023984
H112	H	-0.762610	-0.000020	-0.765821
H113	H	-0.582043	-0.000045	-0.085909
H114	H	-0.580747	-0.000049	-0.193677
H115	H	0.034204	-0.000050	-0.022699
H116	H	-0.138359	-0.000055	-0.072637
H117	H	-0.562708	-0.557734	0.183659
H118	H	0.059864	-0.000019	0.165712
H119	H	0.167631	-0.000014	0.164417
H120	H	-0.246104	-0.000057	-0.071347
H121	H	-0.742971	-0.149737	0.003535
H122	H	-0.601676	-0.734943	0.144738
H123	H	-0.817806	-0.000032	-0.499644
H124	H	-0.098525	-0.000036	0.219610
H125	H	-0.575496	-0.000007	-0.632386
H126	H	-0.742973	-0.265120	0.003516
H127	H	-0.763906	-0.000027	-0.658055
H128	H	-0.378846	-0.000015	0.170964
H129	H	-0.601654	-0.265160	0.144770
H130	H	-0.404515	-0.000039	-0.017447
H131	H	-0.512280	-0.000036	-0.016150
H132	H	-0.601649	-0.149760	0.144771
H133	H	-0.770443	-0.000065	-0.111586
H134	H	-0.562700	-0.442350	0.183658
H135	H	-0.781929	-0.442319	-0.035413
H136	H	-0.525555	0.000011	-0.459814
H137	H	-0.743006	-0.850311	0.003494
H138	H	-0.486595	-0.000000	0.172252
H139	H	-0.819097	-0.000043	-0.391899
H140	H	-0.206274	-0.000024	0.220904
H141	H	-0.781933	-0.557699	-0.035422
H142	H	-0.574207	-0.000015	-0.740135
H143	H	-0.769159	-0.000044	-0.219337
H144	H	-0.526850	0.000007	-0.352065
H145	H	-0.743004	-0.734911	0.003496
H146	H	-0.601692	-0.850325	0.144739
