data_functionalizedCrystal
_audit_creation_method	'MofGen! by Chris Wilmer'
_symmetry_space_group_name_H-M	'P1'
_symmetry_Int_Tables_number	1
_symmetry_cell_setting	triclinic
loop_
_symmetry_equiv_pos_as_xyz
  x,y,z
_cell_length_a	19.077241
_cell_length_b	19.077396
_cell_length_c	19.077271
_cell_angle_alpha	94.526463
_cell_angle_beta	89.928553
_cell_angle_gamma	89.927536
loop_
_atom_site_label
_atom_site_type_symbol
_atom_site_fract_x
_atom_site_fract_y
_atom_site_fract_z
Zn1	Zn	-1.067464	0.220067	-0.432117
Zn2	Zn	-1.077196	0.342286	-0.309912
Zn3	Zn	-0.955073	0.229517	-0.309529
Zn4	Zn	-0.955030	0.342613	-0.422637
O5	O	-1.013691	0.283621	-0.368549
O6	O	-1.166918	0.232187	-0.420034
O7	O	-1.065087	0.331145	-0.211382
O8	O	-0.965927	0.129784	-0.329598
O9	O	-1.174068	0.321981	-0.330250
O10	O	-1.048500	0.122840	-0.419663
O11	O	-0.975363	0.248295	-0.211101
O12	O	-0.856904	0.248612	-0.320406
O13	O	-0.965854	0.322538	-0.522374
O14	O	-0.856873	0.331702	-0.403505
O15	O	-1.048459	0.232504	-0.529339
O16	O	-1.065046	0.440809	-0.321058
O17	O	-0.975291	0.441049	-0.403876
C18	C	-0.831436	0.291219	-0.360886
C19	C	-0.753466	0.294485	-0.357623
C20	C	-0.713114	0.249338	-0.402902
C21	C	-0.639853	0.252405	-0.399831
C22	C	-0.606946	0.300622	-0.351484
C23	C	-0.647304	0.345771	-0.306200
C24	C	-0.720563	0.342701	-0.309268
C25	C	-0.388244	0.314807	-0.337284
C26	C	-0.314980	0.317876	-0.334220
C27	C	-0.307534	0.224508	-0.427851
C28	C	-0.380795	0.221444	-0.430918
C29	C	-0.421146	0.266591	-0.385632
N30	N	-0.532062	0.303759	-0.348345
N31	N	-0.496029	0.263450	-0.388768
C32	C	-1.021238	0.466462	-0.361496
C33	C	-1.024530	0.544679	-0.358505
C34	C	-0.196658	0.275990	-0.376237
C35	C	-0.274627	0.272728	-0.379499
C36	C	-1.048095	0.984941	-0.337025
C37	C	-1.044996	0.911448	-0.339837
C38	C	-0.996686	0.874858	-0.384326
C39	C	-0.951467	0.911764	-0.426002
C40	C	-0.954563	0.985256	-0.423186
C41	C	-0.982408	0.655077	-0.397364
C42	C	-0.979316	0.581580	-0.400178
C43	C	-1.072845	0.581270	-0.314012
C44	C	-1.075940	0.654763	-0.311204
C45	C	-1.030718	0.691663	-0.352876
N46	N	-0.993518	0.799736	-0.387203
N47	N	-1.033883	0.766784	-0.349995
C48	C	-1.006066	0.276504	-0.552105
C49	C	-1.002817	0.273471	-0.630326
C50	C	-1.006125	1.100063	-0.375653
C51	C	-1.002882	1.021842	-0.378699
C52	C	-0.979515	0.251774	-1.070611
C53	C	-0.982572	0.254621	-0.997114
C54	C	-1.030810	0.299184	-0.960511
C55	C	-1.076001	0.340898	-0.997409
C56	C	-1.072947	0.338047	-1.070904
C57	C	-1.044954	0.312333	-0.740719
C58	C	-1.048002	0.315183	-0.667218
C59	C	-0.954574	0.228905	-0.666929
C60	C	-0.951522	0.226061	-0.740426
C61	C	-0.996715	0.267772	-0.777317
N62	N	-1.033934	0.302097	-0.885386
N63	N	-0.993594	0.264855	-0.852441
C64	C	-1.021324	0.290657	-0.185710
C65	C	-1.024701	0.293486	-0.107503
H66	H	-0.274673	0.187751	-0.464720
Br67	Br	-0.913749	0.531921	-0.460563
H68	H	-0.945580	0.685113	-0.431291
Br69	Br	-0.885900	0.862106	-0.486380
Br70	Br	-0.893253	0.172291	-0.616859
H71	H	-1.087300	0.351458	-0.637419
H72	H	-1.115278	0.684550	-0.274974
H73	H	-0.421089	0.351570	-0.300409
H74	H	-1.081812	0.881404	-0.305902
H75	H	-1.081751	0.346299	-0.770747
Br76	Br	-1.141476	0.401369	-0.947735
H77	H	-0.753417	0.379464	-0.272397
H78	H	-0.917749	1.015300	-0.457125
Br79	Br	-0.914044	0.191294	-1.120279
Br80	Br	-1.134279	0.394652	-1.120974
Br81	Br	-0.425450	0.156010	-0.496541
Br82	Br	-0.886007	0.165630	-0.790092
Br83	Br	-0.757766	0.183902	-0.468525
H84	H	-0.620505	0.385028	-0.266831
Br85	Br	-1.113668	1.034592	-0.276649
H86	H	-0.607002	0.215642	-0.436703
Br87	Br	-1.134212	0.531188	-0.257459
H88	H	-0.945776	0.220656	-0.967080
H89	H	-0.288189	0.357144	-0.294850
