data_functionalizedCrystal
_audit_creation_method	'MofGen! by Chris Wilmer'
_symmetry_space_group_name_H-M	'P1'
_symmetry_Int_Tables_number	1
_symmetry_cell_setting	triclinic
loop_
_symmetry_equiv_pos_as_xyz
  x,y,z
_cell_length_a	29.839134
_cell_length_b	12.759399
_cell_length_c	12.759393
_cell_angle_alpha	89.969094
_cell_angle_beta	89.967527
_cell_angle_gamma	90.009978
loop_
_atom_site_label
_atom_site_type_symbol
_atom_site_fract_x
_atom_site_fract_y
_atom_site_fract_z
Zn1	Zn	0.686848	-0.418359	-0.594340
Zn2	Zn	0.686801	-0.594075	-0.418659
Zn3	Zn	0.611717	-0.418395	-0.418640
Zn4	Zn	0.611713	-0.593981	-0.594261
O5	O	0.649270	-0.506203	-0.506475
O6	O	0.749709	-0.441693	-0.571077
O7	O	0.676823	-0.570825	-0.271636
O8	O	0.621705	-0.271369	-0.441972
O9	O	0.749675	-0.570790	-0.442005
O10	O	0.676903	-0.271343	-0.571059
O11	O	0.621659	-0.441753	-0.271622
O12	O	0.548850	-0.441662	-0.441896
O13	O	0.621698	-0.570630	-0.741293
O14	O	0.548847	-0.570665	-0.570923
O15	O	0.676900	-0.441602	-0.741351
O16	O	0.676819	-0.741083	-0.441928
O17	O	0.621652	-0.741015	-0.570942
C18	C	0.649243	-0.779170	-0.506451
C19	C	0.649272	-0.895947	-0.506476
C20	C	0.532547	-0.506158	-0.506399
C21	C	0.482613	-0.506164	-0.506392
C22	C	0.678030	-0.950809	-0.439375
C23	C	0.678059	-1.060533	-0.439410
C24	C	0.620568	-1.060522	-0.573651
C25	C	0.620541	-0.950800	-0.573620
C26	C	0.172978	-0.573474	-0.573578
C27	C	-0.014695	-0.573503	-0.573624
O28	O	-0.038954	-0.630682	-0.630703
N29	N	-0.038172	-0.506241	-0.506554
C30	C	-0.014727	-0.438962	-0.439473
O31	O	-0.039002	-0.381745	-0.382434
C32	C	0.172945	-0.438928	-0.439432
C33	C	0.196419	-0.506202	-0.506499
C34	C	0.196452	-0.640741	-0.640640
C35	C	0.243367	-0.640737	-0.640624
C36	C	0.266809	-0.573465	-0.573545
C37	C	0.243334	-0.506198	-0.506483
C38	C	0.196388	-0.371644	-0.372356
C39	C	0.243309	-0.371640	-0.372354
C40	C	0.266784	-0.438914	-0.439421
C41	C	0.313691	-0.438922	-0.439387
N42	N	0.337168	-0.506184	-0.506458
C43	C	0.313726	-0.573456	-0.573536
C44	C	-0.113258	-0.438986	-0.439497
C45	C	-0.160176	-0.438996	-0.439506
C46	C	-0.160141	-0.573536	-0.573659
C47	C	-0.113222	-0.573531	-0.573645
C48	C	-0.089782	-0.506248	-0.506567
C49	C	0.412252	-0.573443	-0.573496
C50	C	0.459172	-0.573436	-0.573471
C51	C	0.459132	-0.438892	-0.439322
C52	C	0.412217	-0.438903	-0.439343
C53	C	0.388778	-0.506182	-0.506438
O54	O	0.337978	-0.381764	-0.382347
O55	O	0.338009	-0.630648	-0.630583
C56	C	0.126062	-0.573478	-0.573594
C57	C	0.102588	-0.506210	-0.506532
C58	C	0.126029	-0.438938	-0.439453
C59	C	0.055670	-0.506220	-0.506540
C60	C	0.032229	-0.573491	-0.573619
C61	C	0.055705	-0.640753	-0.640689
C62	C	0.102621	-0.640749	-0.640673
C63	C	0.102553	-0.371676	-0.372383
C64	C	0.055637	-0.371687	-0.372404
C65	C	0.032196	-0.438958	-0.439483
C66	C	0.766448	-0.506248	-0.506552
C67	C	0.816383	-0.506267	-0.506585
C68	C	0.649304	-0.506102	-0.780509
C69	C	0.649318	-0.506059	-0.897285
C70	C	0.649310	-0.232169	-0.506522
C71	C	0.649327	-0.115393	-0.506542
C72	C	0.678063	-0.438863	-0.952179
C73	C	0.678071	-0.438818	-1.061904
C74	C	0.620586	-0.573173	-1.061830
C75	C	0.620577	-0.573212	-0.952108
C76	C	0.649262	-0.506227	-0.233508
C77	C	0.649335	-0.505974	-0.116732
H78	H	0.701425	-0.906150	-0.384704
F79	F	-0.185096	-0.645127	-0.645054
F80	F	0.590002	-0.644642	-1.120185
H81	H	0.701465	-0.384179	-0.907546
H82	H	-0.094177	-0.384195	-0.384870
F83	F	0.589978	-0.644730	-0.893682
F84	F	0.708668	-1.118918	-0.367995
F85	F	0.589991	-1.118910	-0.645104
F86	F	0.484089	-0.367301	-0.367935
F87	F	0.589933	-0.892407	-0.645047
H88	H	0.478282	-0.628222	-0.628086
H89	H	0.121729	-0.695530	-0.695286
F90	F	0.387313	-0.645048	-0.644907
F91	F	0.268344	-0.712335	-0.712011
H92	H	-0.094112	-0.628310	-0.628258
F93	F	0.171511	-0.712346	-0.712042
H94	H	0.177284	-0.316865	-0.317740
H95	H	-0.179285	-0.384225	-0.384883
H96	H	0.262392	-0.316843	-0.317737
F97	F	0.387233	-0.367319	-0.367947
F98	F	0.030749	-0.712354	-0.712075
H99	H	0.036529	-0.316905	-0.317780
F100	F	0.127494	-0.300070	-0.300987
F101	F	0.708669	-0.367305	-1.120321
