data_functionalizedCrystal
_audit_creation_method	'MofGen! by Chris Wilmer'
_symmetry_space_group_name_H-M	'P1'
_symmetry_Int_Tables_number	1
_symmetry_cell_setting	triclinic
loop_
_symmetry_equiv_pos_as_xyz
  x,y,z
_cell_length_a	18.101395
_cell_length_b	16.959455
_cell_length_c	16.959447
_cell_angle_alpha	89.984772
_cell_angle_beta	90.029468
_cell_angle_gamma	89.974126
loop_
_atom_site_label
_atom_site_type_symbol
_atom_site_fract_x
_atom_site_fract_y
_atom_site_fract_z
Zn1	Zn	-0.294918	-1.208323	0.446932
Zn2	Zn	0.038415	-0.874990	0.780266
Zn3	Zn	0.371748	-0.541657	1.113599
Zn4	Zn	-0.418771	-1.208220	0.314756
Zn5	Zn	-0.085438	-0.874887	0.648089
Zn6	Zn	0.247895	-0.541554	0.981423
Zn7	Zn	-0.294937	-1.076152	0.314768
Zn8	Zn	0.038396	-0.742818	0.648101
Zn9	Zn	0.371730	-0.409485	0.981435
Zn10	Zn	-0.418711	-1.076091	0.446892
Zn11	Zn	-0.085378	-0.742758	0.780226
Zn12	Zn	0.247955	-0.409424	1.113559
O13	O	-0.356834	-1.142196	0.380837
O14	O	-0.023501	-0.808863	0.714170
O15	O	0.309832	-0.475530	1.047504
O16	O	-0.311365	-1.318920	0.429411
O17	O	0.021968	-0.985587	0.762744
O18	O	0.355302	-0.652254	1.096077
O19	O	-0.402377	-1.190683	0.204146
O20	O	-0.069044	-0.857350	0.537480
O21	O	0.264289	-0.524017	0.870813
O22	O	-0.191302	-1.093753	0.332322
O23	O	0.142032	-0.760420	0.665655
O24	O	0.475365	-0.427086	0.998988
O25	O	-0.402359	-1.318845	0.332301
O26	O	-0.069026	-0.985511	0.665634
O27	O	0.264307	-0.652178	0.998968
O28	O	-0.191288	-1.190859	0.429422
O29	O	0.142045	-0.857526	0.762756
O30	O	0.475379	-0.524192	1.096089
O31	O	-0.311397	-1.093653	0.204155
O32	O	0.021937	-0.760320	0.537489
O33	O	0.355270	-0.426986	0.870822
O34	O	-0.311338	-0.965533	0.332283
O35	O	0.021995	-0.632199	0.665616
O36	O	0.355328	-0.298866	0.998949
O37	O	-0.402257	-1.093649	0.557509
O38	O	-0.068924	-0.760316	0.890842
O39	O	0.264410	-0.426983	1.224175
O40	O	-0.402275	-0.965488	0.429354
O41	O	-0.068942	-0.632155	0.762687
O42	O	0.264392	-0.298821	1.096021
O43	O	-0.311307	-1.190800	0.557538
O44	O	0.022026	-0.857467	0.890871
O45	O	0.355360	-0.524133	1.224205
O46	O	-0.522396	-1.190624	0.332262
O47	O	-0.189063	-0.857291	0.665596
O48	O	0.144270	-0.523958	0.998929
O49	O	-0.522352	-1.093550	0.429342
O50	O	-0.189019	-0.760216	0.762676
O51	O	0.144315	-0.426883	1.096009
C52	C	-0.356803	-0.936830	0.380816
C53	C	-0.023469	-0.603497	0.714149
C54	C	0.309864	-0.270164	1.047482
C55	C	-0.356807	-0.848974	0.380825
C56	C	-0.023474	-0.515640	0.714159
C57	C	0.309860	-0.182307	1.047492
C58	C	-0.549245	-1.142091	0.380814
C59	C	-0.215912	-0.808757	0.714147
C60	C	0.117422	-0.475424	1.047481
C61	C	-0.631559	-1.142118	0.380830
C62	C	-0.298226	-0.808784	0.714164
C63	C	0.035108	-0.475451	1.047497
C64	C	-0.309421	-0.477497	0.330387
C65	C	0.023912	-0.144164	0.663720
C66	C	0.357245	0.189170	0.997054
C67	C	-0.404261	-0.477499	0.431311
C68	C	-0.070928	-0.144166	0.764645
C69	C	0.262405	0.189167	1.097978
C70	C	-0.404254	-0.560045	0.431308
C71	C	-0.070920	-0.226712	0.764641
C72	C	0.262413	0.106622	1.097974
C73	C	-0.356830	-0.601321	0.380842
C74	C	-0.023496	-0.267987	0.714176
C75	C	0.309837	0.065346	1.047509
C76	C	-0.309414	-0.560050	0.330380
C77	C	0.023920	-0.226717	0.663714
C78	C	0.357253	0.106616	0.997047
C79	C	-0.451674	-0.601321	0.481763
C80	C	-0.118341	-0.267988	0.815096
C81	C	0.214993	0.065345	1.148430
C82	C	-0.451669	-0.683872	0.481761
C83	C	-0.118335	-0.350539	0.815094
C84	C	0.214998	-0.017206	1.148428
C85	C	-0.404241	-0.725150	0.431299
C86	C	-0.070907	-0.391816	0.764632
C87	C	0.262426	-0.058483	1.097966
C88	C	-0.356822	-0.683874	0.380836
C89	C	-0.023489	-0.350541	0.714169
C90	C	0.309844	-0.017208	1.047502
C91	C	-0.309399	-0.725150	0.330370
C92	C	0.023935	-0.391816	0.663703
C93	C	0.357268	-0.058483	0.997037
C94	C	-0.261976	-0.683876	0.279910
C95	C	0.071358	-0.350543	0.613244
C96	C	0.404691	-0.017209	0.946577
C97	C	-0.261986	-0.601327	0.279918
C98	C	0.071348	-0.267994	0.613252
C99	C	0.404681	0.065339	0.946585
C100	C	-0.404231	-0.807698	0.431291
C101	C	-0.070897	-0.474365	0.764624
C102	C	0.262436	-0.141031	1.097957
C103	C	-0.309391	-0.807703	0.330363
C104	C	0.023942	-0.474370	0.663697
C105	C	0.357276	-0.141037	0.997030
C106	C	-0.930650	-1.142291	0.380873
C107	C	-0.597317	-0.808958	0.714206
C108	C	-0.263983	-0.475625	1.047540
C109	C	-0.899328	-1.081356	0.442105
C110	C	-0.565995	-0.748023	0.775438
C111	C	-0.232661	-0.414689	1.108771
C112	C	-0.813710	-1.081066	0.441913
C113	C	-0.480377	-0.747733	0.775247
C114	C	-0.147043	-0.414400	1.108580
C115	C	-0.782268	-1.142205	0.380852
C116	C	-0.448934	-0.808872	0.714186
C117	C	-0.115601	-0.475538	1.047519
C118	C	-0.813420	-1.119658	0.297548
C119	C	-0.480087	-0.786325	0.630881
C120	C	-0.146753	-0.452992	0.964214
C121	C	-0.899065	-1.119266	0.297914
C122	C	-0.565732	-0.785932	0.631247
C123	C	-0.232398	-0.452599	0.964581
C124	C	-0.899000	-1.225907	0.402213
C125	C	-0.565667	-0.892573	0.735546
C126	C	-0.232333	-0.559240	1.068879
C127	C	-0.813349	-1.225415	0.404040
C128	C	-0.480016	-0.892081	0.737373
C129	C	-0.146682	-0.558748	1.070706
C130	C	-0.698408	-1.142158	0.380836
C131	C	-0.365075	-0.808825	0.714169
C132	C	-0.031741	-0.475491	1.047502
C133	C	-1.014509	-1.142337	0.380884
C134	C	-0.681176	-0.809003	0.714217
C135	C	-0.347843	-0.475670	1.047551
C136	C	-0.163673	-1.142324	0.380878
C137	C	0.169661	-0.808991	0.714211
C138	C	0.502994	-0.475657	1.047544
C139	C	-0.081358	-1.142379	0.380895
C140	C	0.251975	-0.809045	0.714228
C141	C	0.585308	-0.475712	1.047562
C142	C	-0.356773	-1.142229	0.587005
C143	C	-0.023440	-0.808896	0.920339
C144	C	0.309894	-0.475563	1.253672
C145	C	-0.356747	-1.142243	0.674862
C146	C	-0.023414	-0.808910	1.008195
C147	C	0.309920	-0.475577	1.341529
C148	C	-0.356858	-0.348365	0.380855
C149	C	-0.023525	-0.015031	0.714188
C150	C	0.309809	0.318302	1.047522
C151	C	-0.356845	-0.436221	0.380853
C152	C	-0.023512	-0.102888	0.714186
C153	C	0.309822	0.230445	1.047519
C154	C	-0.356842	-1.142209	0.175471
C155	C	-0.023509	-0.808876	0.508804
C156	C	0.309825	-0.475543	0.842138
C157	C	-0.356660	-1.142348	0.087615
C158	C	-0.023326	-0.809015	0.420948
C159	C	0.310007	-0.475682	0.754281
C160	C	-0.404022	-1.091756	1.046325
C161	C	-0.070689	-0.758423	1.379658
C162	C	0.262644	-0.425089	1.712992
C163	C	-0.309315	-1.192920	1.046351
C164	C	0.024018	-0.859586	1.379684
C165	C	0.357351	-0.526253	1.713017
C166	C	-0.309331	-1.192899	0.963805
C167	C	0.024002	-0.859565	1.297138
C168	C	0.357336	-0.526232	1.630472
C169	C	-0.356694	-1.142306	0.922515
C170	C	-0.023361	-0.808973	1.255849
C171	C	0.309973	-0.475640	1.589182
C172	C	-0.404041	-1.091735	0.963771
C173	C	-0.070708	-0.758402	1.297105
C174	C	0.262626	-0.425068	1.630438
C175	C	-0.261990	-1.243475	0.922542
C176	C	0.071343	-0.910141	1.255876
C177	C	0.404677	-0.576808	1.589209
C178	C	-0.262004	-1.243456	0.839991
C179	C	0.071329	-0.910123	1.173325
C180	C	0.404662	-0.576790	1.506658
C181	C	-0.309364	-1.192859	0.798700
C182	C	0.023969	-0.859526	1.132034
C183	C	0.357302	-0.526193	1.465367
C184	C	-0.356713	-1.142285	0.839962
C185	C	-0.023379	-0.808952	1.173295
C186	C	0.309954	-0.475619	1.506628
C187	C	-0.404076	-1.091693	0.798672
C188	C	-0.070742	-0.758360	1.132005
C189	C	0.262591	-0.425026	1.465339
C190	C	-0.451421	-1.041114	0.839932
C191	C	-0.118088	-0.707781	1.173265
C192	C	0.215246	-0.374448	1.506598
C193	C	-0.451401	-1.041138	0.922480
C194	C	-0.118068	-0.707805	1.255814
C195	C	0.215266	-0.374471	1.589147
C196	C	-0.309384	-1.192836	0.716152
C197	C	0.023949	-0.859502	1.049485
C198	C	0.357282	-0.526169	1.382818
C199	C	-0.404094	-1.091672	0.716118
C200	C	-0.070761	-0.758339	1.049452
C201	C	0.262572	-0.425005	1.382785
H202	H	-0.270768	-0.841304	0.289273
H203	H	0.062566	-0.507971	0.622606
H204	H	0.395899	-0.174637	0.955939
H205	H	-0.489987	-0.999926	0.806303
H206	H	-0.156654	-0.666592	1.139636
H207	H	0.176680	-0.333259	1.472970
H208	H	-0.792031	-1.059184	0.279147
H209	H	-0.458697	-0.725850	0.612480
H210	H	-0.125364	-0.392517	0.945814
F211	F	-0.454702	-0.851621	0.484985
F212	F	-0.121368	-0.518288	0.818319
F213	F	0.211965	-0.184954	1.151652
H214	H	-0.793282	-1.019089	0.427778
H215	H	-0.459949	-0.685755	0.761111
H216	H	-0.126615	-0.352422	1.094445
H217	H	-0.489949	-0.999962	0.956081
H218	H	-0.156616	-0.666629	1.289415
H219	H	0.176717	-0.333296	1.622748
F220	F	-0.502161	-0.557389	0.535447
F221	F	-0.168828	-0.224056	0.868781
F222	F	0.164506	0.109277	1.202114
F223	F	-0.927163	-1.252777	0.480259
F224	F	-0.593830	-0.919444	0.813592
F225	F	-0.260497	-0.586110	1.146926
H226	H	-0.223434	-1.284669	0.956166
H227	H	0.109899	-0.951336	1.289500
H228	H	0.443232	-0.618002	1.622833
F229	F	-0.258950	-0.433571	0.276690
F230	F	0.074384	-0.100238	0.610024
F231	F	0.407717	0.233096	0.943357
F232	F	-0.454406	-1.037927	1.090236
F233	F	-0.121073	-0.704594	1.423569
F234	F	0.212261	-0.371260	1.756903
H235	H	-0.270759	-1.234114	1.079974
H236	H	0.062574	-0.900781	1.413307
H237	H	0.395908	-0.567447	1.746640
H238	H	-0.919103	-1.058143	0.279837
H239	H	-0.585770	-0.724810	0.613171
H240	H	-0.252437	-0.391477	0.946504
F241	F	-0.259004	-1.246666	0.672244
F242	F	0.074329	-0.913332	1.005577
F243	F	0.407663	-0.579999	1.338910
H244	H	-0.223453	-1.284640	0.806405
H245	H	0.109881	-0.951307	1.139738
H246	H	0.443214	-0.617973	1.473071
H247	H	-0.792645	-1.095172	0.503683
H248	H	-0.459312	-0.761839	0.837016
H249	H	-0.125978	-0.428505	1.170350
H250	H	-0.442876	-0.443888	0.472393
H251	H	-0.109542	-0.110554	0.805727
H252	H	0.223791	0.222779	1.139060
F253	F	-0.502138	-0.727792	0.535465
F254	F	-0.168805	-0.394458	0.868799
F255	F	0.164528	-0.061125	1.202132
H256	H	-0.919875	-1.095322	0.504074
H257	H	-0.586541	-0.761988	0.837408
H258	H	-0.253208	-0.428655	1.170741
F259	F	-0.926153	-1.174753	0.236245
F260	F	-0.592820	-0.841420	0.569578
F261	F	-0.259487	-0.508087	0.902911
H262	H	-0.792985	-1.242417	0.465347
H263	H	-0.459652	-0.909084	0.798681
H264	H	-0.126319	-0.575751	1.132014
H265	H	-0.223367	-0.717493	0.238818
H266	H	0.109967	-0.384160	0.572151
H267	H	0.443300	-0.050827	0.905484
F268	F	-0.927549	-1.000841	0.423875
F269	F	-0.594216	-0.667507	0.757209
F270	F	-0.260883	-0.334174	1.090542
F271	F	-0.785364	-1.287898	0.350001
F272	F	-0.452031	-0.954565	0.683334
F273	F	-0.118697	-0.621231	1.016667
H274	H	-0.793055	-1.162645	0.250681
H275	H	-0.459722	-0.829311	0.584015
H276	H	-0.126388	-0.495978	0.917348
F277	F	-0.925487	-1.285250	0.343931
F278	F	-0.592153	-0.951916	0.677264
F279	F	-0.258820	-0.618583	1.010597
H280	H	-0.442657	-1.050466	0.682506
H281	H	-0.109323	-0.717133	1.015839
H282	H	0.224010	-0.383799	1.349173
F283	F	-0.211520	-0.557396	0.226220
F284	F	0.121813	-0.224063	0.559553
F285	F	0.455147	0.109271	0.892887
