data_functionalizedCrystal
_audit_creation_method	'MofGen! by Chris Wilmer'
_symmetry_space_group_name_H-M	'P1'
_symmetry_Int_Tables_number	1
_symmetry_cell_setting	triclinic
loop_
_symmetry_equiv_pos_as_xyz
  x,y,z
_cell_length_a	10.654550
_cell_length_b	14.044220
_cell_length_c	9.730223
_cell_angle_alpha	89.997406
_cell_angle_beta	89.996251
_cell_angle_gamma	88.836890
loop_
_atom_site_label
_atom_site_type_symbol
_atom_site_fract_x
_atom_site_fract_y
_atom_site_fract_z
O1	O	1.681222	0.133227	-0.114408
O2	O	1.317019	0.145921	-0.114387
O3	O	1.493654	0.001554	-0.114384
O4	O	1.504587	0.277595	-0.114411
O5	O	1.493652	0.001557	0.114196
O6	O	1.317017	0.145925	0.114193
O7	O	1.681220	0.133231	0.114172
Zn8	Zn	1.499118	0.139578	0.150474
Zn9	Zn	1.499121	0.139574	-0.150689
O10	O	1.504585	0.277598	0.114169
C11	C	1.270127	0.144991	-0.000094
C12	C	1.130403	0.142202	-0.000085
C13	C	1.059459	0.227203	-0.000114
C14	C	0.928175	0.224578	-0.000137
C15	C	0.938790	0.051942	-0.000109
C16	C	1.070072	0.054569	-0.000076
C17	C	1.119790	0.314837	-0.000123
C18	C	1.048846	0.399845	-0.000153
C19	C	0.917561	0.397219	-0.000177
C20	C	0.857221	0.309585	-0.000170
C21	C	1.488867	-0.033790	-0.000093
C22	C	1.474592	-0.139110	-0.000090
C23	C	1.448493	-0.331943	-0.000108
C24	C	1.549741	-0.388911	-0.000119
C25	C	1.535219	-0.496210	-0.000129
C26	C	1.463013	-0.224634	-0.000098
C27	C	1.728113	0.134161	-0.000124
C28	C	1.867836	0.136950	-0.000142
C29	C	1.509372	0.312942	-0.000125
C30	C	1.523648	0.418262	-0.000137
N31	N	1.499126	0.139581	0.356011
N32	N	1.499123	0.139563	-0.356226
C33	C	1.577364	0.075677	0.427938
C34	C	1.577359	0.075666	0.571821
C35	C	1.420876	0.203470	0.571837
C36	C	1.420875	0.203477	0.427956
C37	C	1.655615	0.011782	0.355993
C38	C	1.733861	-0.052127	0.427920
C39	C	1.733856	-0.052138	0.571803
C40	C	1.655606	0.011759	0.643759
H41	H	0.750320	0.307454	-0.000168
O42	O	0.880121	-0.033156	-0.000359
C43	C	0.804511	-0.039828	-0.118747
H44	H	0.841089	0.009944	-0.201483
H45	H	0.807723	-0.116200	-0.158479
H46	H	0.703581	-0.018627	-0.092013
H47	H	1.357169	0.255494	0.630432
O48	O	1.331985	-0.369730	-0.000160
C49	C	1.240690	-0.295635	-0.000107
H50	H	1.283292	-0.228130	-0.043382
H51	H	1.157672	-0.316946	-0.066459
H52	H	1.207281	-0.281915	0.109560
H53	H	1.127836	-0.014647	-0.000056
H54	H	0.859801	0.466437	-0.000187
H55	H	1.226688	0.316985	-0.000110
H56	H	1.655629	0.011787	0.238836
O57	O	1.809781	-0.114137	0.357817
C58	C	1.792963	-0.100460	0.215400
H59	H	1.754496	-0.025356	0.195738
H60	H	1.886935	-0.110400	0.160688
H61	H	1.723862	-0.154563	0.174611
H62	H	1.655600	0.011737	0.760918
O63	O	1.666073	-0.350810	-0.000051
C64	C	1.654868	-0.250605	-0.000073
H65	H	1.559347	-0.228136	0.043199
H66	H	1.732202	-0.219650	0.066298
H67	H	1.663996	-0.223002	-0.109731
O68	O	1.809971	-0.114253	0.641463
C69	C	1.879007	-0.170661	0.547103
H70	H	1.884778	-0.131750	0.444543
H71	H	1.977752	-0.184426	0.588667
H72	H	1.830318	-0.241416	0.531796
O73	O	1.345020	0.265686	0.358136
C74	C	1.375935	0.359733	0.393312
H75	H	1.476604	0.360905	0.432863
H76	H	1.366811	0.407237	0.298687
H77	H	1.309391	0.387105	0.476828
O78	O	1.107654	0.484886	-0.000219
C79	C	1.238741	0.468980	-0.000161
H80	H	1.261242	0.395155	-0.043419
H81	H	1.285258	0.525101	-0.066526
H82	H	1.275723	0.473824	0.109506
