data_functionalizedCrystal
_audit_creation_method	'MofGen! by Chris Wilmer'
_symmetry_space_group_name_H-M	'P1'
_symmetry_Int_Tables_number	1
_symmetry_cell_setting	triclinic
loop_
_symmetry_equiv_pos_as_xyz
  x,y,z
_cell_length_a	6.817900
_cell_length_b	13.563541
_cell_length_c	14.125465
_cell_angle_alpha	110.574742
_cell_angle_beta	100.398878
_cell_angle_gamma	104.704624
loop_
_atom_site_label
_atom_site_type_symbol
_atom_site_fract_x
_atom_site_fract_y
_atom_site_fract_z
V1	V	-4.018647	-0.152533	-0.340470
V2	V	-3.518647	0.347467	0.159530
O3	O	-3.978019	0.008310	-0.292060
O4	O	-3.478019	0.508310	0.207940
O5	O	-3.997433	-0.303390	-0.378467
O6	O	-3.497433	0.196610	0.121533
O7	O	-3.954292	-0.149756	-0.470563
O8	O	-3.454292	0.350244	0.029437
O9	O	-4.021459	-0.146387	-0.199326
O10	O	-3.521459	0.353613	0.300674
V11	V	-4.500820	-0.133345	-0.318689
V12	V	-4.000820	0.366655	0.181311
O13	O	-4.282868	-0.194623	-0.388247
O14	O	-3.782868	0.305377	0.111753
O15	O	-4.686797	-0.091255	-0.270912
O16	O	-4.186797	0.408745	0.229088
O17	O	-4.298827	0.017512	-0.280692
O18	O	-3.798827	0.517512	0.219308
O19	O	-4.658845	-0.294188	-0.367099
O20	O	-4.158845	0.205812	0.132901
O21	O	-4.615404	-0.139491	-0.459833
O22	O	-4.115404	0.360509	0.040167
O23	O	-4.341969	-0.136121	-0.188596
O24	O	-3.841969	0.363879	0.311404
C25	C	-3.849564	-0.340179	-0.383501
C26	C	-3.349564	0.159821	0.116499
C27	C	-3.913400	-0.463504	-0.415435
C28	C	-3.413400	0.036496	0.084565
C29	C	-3.962821	-0.748882	-0.136484
C30	C	-3.462821	-0.248882	0.363516
C31	C	-3.902830	-0.633011	-0.106478
C32	C	-3.402830	-0.133011	0.393522
C33	C	-3.905470	-0.590629	-0.183715
C34	C	-3.405470	-0.090629	0.316285
C35	C	-3.968106	-0.664128	-0.290963
C36	C	-3.468106	-0.164128	0.209037
C37	C	-4.028087	-0.780010	-0.320971
C38	C	-3.528087	-0.280010	0.179029
C39	C	-3.970736	-0.621756	-0.368202
C40	C	-3.470736	-0.121756	0.131798
C41	C	-4.033372	-0.695256	-0.475450
C42	C	-3.533372	-0.195256	0.024550
C43	C	-4.093347	-0.811126	-0.505453
C44	C	-3.593347	-0.311126	-0.005453
C45	C	-4.090707	-0.853508	-0.428216
C46	C	-3.590707	-0.353508	0.071784
C47	C	-3.910755	-0.505875	-0.338193
C48	C	-3.410755	-0.005875	0.161807
C49	C	-3.976021	-0.537003	-0.522680
C50	C	-3.476021	-0.037003	-0.022680
C51	C	-4.036011	-0.652873	-0.552686
C52	C	-3.536011	-0.152873	-0.052686
C53	C	-3.794532	-0.144203	-0.500977
C54	C	-3.294532	0.355797	-0.000977
C55	C	-3.823377	-0.142931	-0.607594
C56	C	-3.323377	0.357069	-0.107594
C57	C	-3.876250	-0.140598	-0.802797
C58	C	-3.376250	0.359402	-0.302797
C59	C	-4.062586	-0.145277	-0.856361
C60	C	-3.562586	0.354723	-0.356361
C61	C	-4.092006	-0.143979	-0.964979
C62	C	-3.592006	0.356021	-0.464979
C63	C	-3.846821	-0.141896	-0.694169
C64	C	-3.346821	0.358104	-0.194169
C65	C	-4.110040	0.054296	-0.275657
C66	C	-3.610040	0.554296	0.224343
C67	C	-4.025442	0.177619	-0.243729
C68	C	-3.525442	0.677619	0.256271
C69	C	-4.165072	-0.141679	-0.158178
C70	C	-3.665072	0.358321	0.341822
C71	C	-4.115464	-0.142945	-0.051559
C72	C	-3.615464	0.357055	0.448441
H73	H	-3.978168	-0.502496	-0.585573
H74	H	-3.478168	-0.002496	-0.085573
H75	H	-3.738830	-0.135619	-0.838513
H76	H	-3.238830	0.364381	-0.338513
H77	H	-3.851839	-0.573176	-0.019157
H78	H	-3.351839	-0.073176	0.480843
F79	F	-3.844100	-0.427664	-0.224056
F80	F	-3.344100	0.072336	0.275944
F81	F	-3.960001	-0.793996	-0.054296
F82	F	-3.460001	-0.293996	0.445704
H83	H	-3.856612	-0.496280	-0.159277
H84	H	-3.356612	0.003720	0.340723
F85	F	-4.242217	-0.151779	-0.809675
F86	F	-3.742217	0.348221	-0.309675
H87	H	-4.139567	-0.947859	-0.452642
H88	H	-3.639567	-0.447859	0.047358
H89	H	-4.087015	-0.712732	-0.640009
H90	H	-3.587015	-0.212732	-0.140009
F91	F	-4.159893	-0.889343	-0.619592
F92	F	-3.659893	-0.389343	-0.119592
