data_functionalizedCrystal
_audit_creation_method	'MofGen! by Chris Wilmer'
_symmetry_space_group_name_H-M	'P1'
_symmetry_Int_Tables_number	1
_symmetry_cell_setting	triclinic
loop_
_symmetry_equiv_pos_as_xyz
  x,y,z
_cell_length_a	16.959455
_cell_length_b	29.839131
_cell_length_c	16.959455
_cell_angle_alpha	90.013151
_cell_angle_beta	90.005786
_cell_angle_gamma	90.038367
loop_
_atom_site_label
_atom_site_type_symbol
_atom_site_fract_x
_atom_site_fract_y
_atom_site_fract_z
Zn1	Zn	1.208200	-0.178973	0.446889
Zn2	Zn	1.208093	-0.254079	0.314702
Zn3	Zn	1.076048	-0.178960	0.314726
Zn4	Zn	1.075944	-0.254073	0.446840
O5	O	1.142071	-0.216521	0.380789
O6	O	1.318796	-0.188944	0.429364
O7	O	1.190576	-0.244112	0.204094
O8	O	1.093667	-0.116095	0.332288
O9	O	1.318718	-0.244124	0.332247
O10	O	1.190758	-0.116104	0.429387
O11	O	1.093563	-0.188922	0.204112
O12	O	0.965423	-0.188916	0.332241
O13	O	1.093489	-0.244114	0.557458
O14	O	0.965347	-0.244101	0.429305
O15	O	1.190657	-0.188938	0.557493
O16	O	1.190475	-0.316945	0.332200
O17	O	1.093385	-0.316941	0.429282
C18	C	0.936705	-0.216506	0.380771
C19	C	0.848848	-0.216511	0.380782
C20	C	0.477388	-0.187763	0.330354
C21	C	0.477357	-0.245317	0.431270
C22	C	0.559903	-0.245310	0.431265
C23	C	0.601195	-0.216530	0.380803
C24	C	0.559942	-0.187757	0.330346
C25	C	0.601163	-0.274087	0.481716
C26	C	0.683714	-0.274082	0.481712
C27	C	0.725008	-0.245299	0.431254
C28	C	0.683749	-0.216524	0.380795
C29	C	0.725041	-0.187744	0.330333
C30	C	0.683784	-0.158966	0.279877
C31	C	0.601235	-0.158974	0.279887
C32	C	0.807556	-0.245291	0.431244
C33	C	0.807595	-0.187737	0.330325
C34	C	1.141928	-0.333244	0.380750
C35	C	1.141940	-0.383178	0.380760
C36	C	1.192717	-0.692811	0.330313
C37	C	1.192815	-0.880485	0.330343
O38	O	1.235875	-0.904741	0.287421
N39	N	1.142235	-0.903963	0.380849
C40	C	1.091631	-0.880521	0.431354
O41	O	1.048617	-0.904797	0.474318
C42	C	1.091538	-0.692849	0.431327
C43	C	1.142115	-0.669372	0.380812
C44	C	1.243292	-0.669335	0.279803
C45	C	1.243264	-0.622420	0.279793
C46	C	1.192662	-0.598981	0.330292
C47	C	1.142087	-0.622457	0.380802
C48	C	1.040938	-0.669407	0.481835
C49	C	1.040921	-0.622486	0.481825
C50	C	1.091498	-0.599010	0.431311
C51	C	1.091457	-0.552103	0.431291
N52	N	1.142037	-0.528624	0.380786
C53	C	1.192639	-0.552063	0.330286
C54	C	1.091682	-0.979052	0.431364
C55	C	1.091704	-1.025969	0.431370
C56	C	1.192890	-1.025930	0.330360
C57	C	1.192863	-0.979011	0.330350
C58	C	1.142262	-0.955573	0.380858
C59	C	1.192576	-0.453537	0.330268
C60	C	1.192542	-0.406617	0.330260
C61	C	1.091359	-0.406661	0.431272
C62	C	1.091391	-0.453577	0.431278
C63	C	1.142006	-0.477013	0.380773
O64	O	1.048426	-0.527817	0.474197
O65	O	1.235659	-0.527778	0.287341
C66	C	1.192745	-0.739727	0.330323
C67	C	1.142171	-0.763203	0.380833
C68	C	1.091569	-0.739764	0.431332
C69	C	1.142193	-0.810121	0.380839
C70	C	1.192795	-0.833560	0.330339
C71	C	1.243375	-0.810081	0.279834
C72	C	1.243347	-0.763166	0.279823
C73	C	1.040989	-0.763243	0.481838
C74	C	1.041021	-0.810159	0.481843
C75	C	1.091623	-0.833598	0.431344
C76	C	1.348239	-0.216537	0.380808
C77	C	1.436096	-0.216543	0.380816
C78	C	1.142073	-0.216527	0.586957
C79	C	1.142074	-0.216529	0.674814
C80	C	1.142236	-0.099343	0.380846
C81	C	1.142306	-0.049408	0.380870
C82	C	1.091485	-0.245258	0.716071
C83	C	1.192660	-0.187799	0.716111
C84	C	1.192660	-0.187799	0.798656
C85	C	1.142070	-0.216528	0.839913
C86	C	1.091481	-0.245257	0.798625
C87	C	1.243242	-0.159067	0.839951
C88	C	1.243243	-0.159064	0.922502
C89	C	1.192657	-0.187796	0.963761
C90	C	1.142066	-0.216527	0.922467
C91	C	1.091477	-0.245256	0.963724
C92	C	1.040890	-0.273989	0.922432
C93	C	1.040895	-0.273988	0.839883
C94	C	1.192652	-0.187797	1.046309
C95	C	1.091473	-0.245255	1.046278
C96	C	1.142063	-0.216526	1.175423
C97	C	1.142062	-0.216525	1.087566
H98	H	0.567537	-0.297521	0.522794
Cl99	Cl	0.735704	-0.122790	0.216437
H100	H	0.717298	-0.297514	0.522797
H101	H	1.233794	-0.472614	0.289144
Cl102	Cl	1.256224	-0.151668	1.098216
Cl103	Cl	1.256227	-0.151670	0.664244
Cl104	Cl	0.549365	-0.122800	0.216463
Cl105	Cl	1.028060	-0.949593	0.494864
Cl106	Cl	1.306855	-0.122953	0.974405
Cl107	Cl	0.859498	-0.151552	0.266887
H108	H	0.841144	-0.268723	0.472322
H109	H	0.443732	-0.268751	0.472349
Cl110	Cl	0.425525	-0.151585	0.266932
Cl111	Cl	1.256130	-0.377107	0.266752
H112	H	1.284450	-0.603308	0.238662
H113	H	1.284502	-0.688414	0.238680
H114	H	0.999748	-0.688514	0.522966
Cl115	Cl	1.027894	-0.281379	0.664164
H116	H	1.234048	-0.959899	0.289218
Cl117	Cl	1.306792	-0.122928	0.788083
H118	H	1.234092	-1.045022	0.289241
Cl119	Cl	1.028109	-1.055477	0.494867
Cl120	Cl	0.977305	-0.593024	0.545326
H121	H	1.050209	-0.472692	0.472413
H122	H	1.050157	-0.387570	0.472386
H123	H	1.284575	-0.829174	0.238713
Cl124	Cl	1.306938	-0.733660	0.216319
H125	H	0.999827	-0.829269	0.522977
H126	H	0.999784	-0.744163	0.522961
Cl127	Cl	1.027875	-0.281376	1.098137
H128	H	0.999695	-0.297378	0.956034
H129	H	0.999709	-0.297381	0.806255
