data_functionalizedCrystal
_audit_creation_method	'MofGen! by Chris Wilmer'
_symmetry_space_group_name_H-M	'P1'
_symmetry_Int_Tables_number	1
_symmetry_cell_setting	triclinic
loop_
_symmetry_equiv_pos_as_xyz
  x,y,z
_cell_length_a	14.971486
_cell_length_b	14.971486
_cell_length_c	13.448316
_cell_angle_alpha	89.993189
_cell_angle_beta	89.998199
_cell_angle_gamma	83.614129
loop_
_atom_site_label
_atom_site_type_symbol
_atom_site_fract_x
_atom_site_fract_y
_atom_site_fract_z
O1	O	1.186947	0.116565	-0.082578
O2	O	0.926547	0.130524	-0.082605
O3	O	1.063727	-0.006656	-0.082584
O4	O	1.049768	0.253744	-0.082599
O5	O	1.063709	-0.006664	0.082800
O6	O	0.926530	0.130515	0.082779
O7	O	1.186930	0.116556	0.082806
Cu8	Cu	1.056728	0.123535	0.097893
Cu9	Cu	1.056749	0.123545	-0.097692
O10	O	1.049751	0.253736	0.082784
C11	C	0.893214	0.129895	0.000083
C12	C	0.793917	0.128024	0.000073
C13	C	1.063094	-0.039985	0.000108
C14	C	1.061223	-0.139282	0.000107
C15	C	0.736692	0.208614	0.000070
C16	C	0.643392	0.206850	0.000085
C17	C	0.607320	0.124497	0.000096
C18	C	0.664552	0.043902	0.000102
C19	C	0.757850	0.045666	0.000095
C20	C	0.470090	0.040231	0.000116
C21	C	0.376786	0.038466	0.000122
C22	C	0.355632	0.201415	0.000106
C23	C	0.448930	0.203179	0.000099
C24	C	0.506156	0.122584	0.000103
C25	C	1.141812	-0.196507	0.000116
C26	C	1.140049	-0.289807	0.000106
C27	C	1.057696	-0.325879	0.000093
C28	C	0.977101	-0.268646	0.000081
C29	C	0.978865	-0.175349	0.000084
C30	C	0.973430	-0.463109	0.000077
C31	C	0.971665	-0.556413	0.000076
C32	C	1.134614	-0.577567	0.000099
C33	C	1.136378	-0.484269	0.000102
C34	C	1.055782	-0.427043	0.000091
C35	C	1.220263	0.117185	0.000115
C36	C	1.319561	0.119056	0.000119
C37	C	1.050384	0.287065	0.000091
C38	C	1.052254	0.386362	0.000085
N39	N	1.056721	0.123527	0.235457
N40	N	1.056764	0.123545	-0.235257
C41	C	1.117483	0.062809	0.287507
C42	C	1.117488	0.062809	0.391610
C43	C	1.056735	0.123531	0.443662
C44	C	0.995967	0.184252	0.391605
C45	C	0.995958	0.184248	0.287504
C46	C	0.995992	0.184258	0.608585
C47	C	0.996002	0.184264	0.712693
C48	C	1.117522	0.062819	0.712692
C49	C	1.117513	0.062815	0.608591
C50	C	1.056745	0.123537	0.556541
H51	H	0.596802	0.272474	0.000081
C52	C	1.183601	-0.003148	0.769018
C53	C	1.236825	-0.056305	0.701153
C54	C	1.297718	-0.117067	0.753008
H55	H	1.151505	-0.040526	0.809644
H56	H	1.220914	0.029075	0.809594
H57	H	1.199517	-0.088526	0.660594
H58	H	1.268941	-0.018952	0.660524
H59	H	1.335031	-0.084844	0.793584
H60	H	1.265614	-0.154438	0.793632
H61	H	1.333843	-0.153135	0.706969
C62	C	0.488138	0.292569	-0.000137
C63	C	0.541053	0.298343	-0.085249
C64	C	0.577172	0.380682	-0.085512
H65	H	0.524162	0.296743	0.057459
H66	H	0.440715	0.340337	-0.000196
H67	H	0.588470	0.250588	-0.085181
H68	H	0.505049	0.294185	-0.142859
H69	H	0.529749	0.428451	-0.085571
H70	H	0.613192	0.384849	-0.027912
H71	H	0.613072	0.384614	-0.143263
H72	H	0.904606	-0.585780	0.000082
C73	C	1.231318	-0.157521	0.000075
C74	C	1.301516	-0.227611	0.000051
C75	C	1.383983	-0.191734	-0.000005
H76	H	1.235520	-0.121585	0.057732
H77	H	1.235445	-0.121585	-0.057621
H78	H	1.297391	-0.263531	0.057741
H79	H	1.297344	-0.263553	-0.057602
H80	H	1.388110	-0.155798	-0.057701
H81	H	1.388175	-0.155798	0.057653
H82	H	1.431622	-0.239284	-0.000031
H83	H	0.907800	-0.416517	0.000066
H84	H	1.166964	0.013367	0.433989
C85	C	0.929949	0.250274	0.231168
C86	C	0.876763	0.303470	0.299031
C87	C	0.815950	0.364310	0.247173
H88	H	0.892597	0.218137	0.190567
H89	H	0.962135	0.287610	0.190566
H90	H	0.844579	0.266139	0.339615
H91	H	0.914091	0.335626	0.339634
H92	H	0.848135	0.401646	0.206571
H93	H	0.778603	0.332166	0.206573
H94	H	0.779861	0.400416	0.293209
C95	C	1.183342	-0.003285	0.231078
C96	C	1.168709	-0.091190	0.256433
C97	C	1.229352	-0.152113	0.204476
H98	H	1.243085	0.006400	0.248094
H99	H	1.174648	0.005325	0.161609
H100	H	1.177409	-0.099796	0.325887
H101	H	1.108978	-0.100904	0.239414
H102	H	1.220659	-0.143503	0.135007
H103	H	1.289091	-0.142420	0.221496
H104	H	1.219427	-0.211763	0.221665
H105	H	1.205673	-0.336396	0.000115
C106	C	0.887596	-0.307634	0.000014
C107	C	0.817396	-0.237546	-0.000023
C108	C	0.734930	-0.273424	-0.000097
H109	H	0.883383	-0.343583	0.057669
H110	H	0.883481	-0.343558	-0.057684
H111	H	0.821509	-0.201637	0.057669
H112	H	0.821579	-0.201591	-0.057674
H113	H	0.730815	-0.309348	-0.057795
H114	H	0.730727	-0.309372	0.057560
H115	H	0.687290	-0.225875	-0.000131
H116	H	1.166987	0.013374	0.566210
H117	H	1.200238	-0.624165	0.000104
C118	C	1.225880	-0.445276	0.000069
C119	C	1.296085	-0.515358	0.000050
C120	C	1.378547	-0.479472	0.000005
H121	H	1.230072	-0.409340	0.057728
H122	H	1.230008	-0.409338	-0.057626
H123	H	1.291959	-0.551281	0.057739
H124	H	1.291923	-0.551300	-0.057605
H125	H	1.382675	-0.443534	-0.057690
H126	H	1.382730	-0.443536	0.057665
H127	H	1.426191	-0.527017	-0.000017
H128	H	0.946530	0.233709	0.755069
H129	H	0.309033	0.267039	0.000107
H130	H	0.347419	-0.028593	0.000133
H131	H	0.766054	0.275675	0.000060
H132	H	0.913240	-0.128756	0.000077
H133	H	0.946505	0.233702	0.566209
C134	C	0.929962	0.250036	0.448245
C135	C	0.875186	0.202298	0.508049
C136	C	0.814381	0.262871	0.560249
H137	H	0.893683	0.286223	0.402451
H138	H	0.962155	0.287313	0.488899
H139	H	0.842995	0.165037	0.467399
H140	H	0.911440	0.166115	0.553862
H141	H	0.846575	0.300148	0.600903
H142	H	0.778109	0.299055	0.514447
H143	H	0.777214	0.230490	0.600838
C144	C	0.532074	-0.047370	0.000063
C145	C	0.480517	-0.119870	0.000042
C146	C	0.537586	-0.200578	-0.000028
H147	H	0.568936	-0.050205	0.057715
H148	H	0.568890	-0.050109	-0.057638
H149	H	0.443717	-0.117132	0.057738
H150	H	0.443658	-0.117065	-0.057605
H151	H	0.574402	-0.203317	-0.057730
H152	H	0.574445	-0.203404	0.057625
H153	H	0.502613	-0.249779	-0.000051
H154	H	0.635175	-0.023152	0.000126
H155	H	0.804443	-0.019958	0.000097
