data_functionalizedCrystal
_audit_creation_method	'MofGen! by Chris Wilmer'
_symmetry_space_group_name_H-M	'P1'
_symmetry_Int_Tables_number	1
_symmetry_cell_setting	triclinic
loop_
_symmetry_equiv_pos_as_xyz
  x,y,z
_cell_length_a	12.645331
_cell_length_b	12.594509
_cell_length_c	12.645330
_cell_angle_alpha	90.026224
_cell_angle_beta	89.974834
_cell_angle_gamma	89.978794
loop_
_atom_site_label
_atom_site_type_symbol
_atom_site_fract_x
_atom_site_fract_y
_atom_site_fract_z
Zn1	Zn	1.620653	-0.601871	0.422036
Zn2	Zn	1.620513	-0.423899	0.599331
Zn3	Zn	1.443372	-0.423901	0.422079
Zn4	Zn	1.443323	-0.601830	0.599255
O5	O	1.531966	-0.512875	0.510675
O6	O	1.768982	-0.578280	0.445569
O7	O	1.596977	-0.274953	0.575868
O8	O	1.466968	-0.447527	0.273726
O9	O	1.768879	-0.447524	0.575827
O10	O	1.597216	-0.578281	0.273695
O11	O	1.466832	-0.274955	0.445642
O12	O	1.295019	-0.447486	0.445568
O13	O	1.466885	-0.750781	0.575697
O14	O	1.294983	-0.578210	0.575738
O15	O	1.597168	-0.750812	0.445495
O16	O	1.596929	-0.447484	0.747668
O17	O	1.466749	-0.578208	0.747612
C18	C	1.256536	-0.512844	0.510650
C19	C	1.138706	-0.512856	0.510665
C20	C	0.971129	-0.431072	0.428398
C21	C	1.093689	-0.430712	0.428611
C22	C	1.094170	-0.482220	0.622340
C23	C	0.971571	-0.481662	0.621891
C24	C	0.971558	-0.625593	0.482320
C25	C	1.094164	-0.624967	0.479825
C26	C	1.532037	-0.790496	0.510583
C27	C	1.532067	-0.908802	0.510543
C28	C	1.461228	-0.978038	0.581320
C29	C	1.557954	-1.048829	0.607223
C30	C	1.435417	-1.048810	0.484576
C31	C	1.628843	-0.978035	0.536497
C32	C	1.506241	-0.978009	0.413805
C33	C	1.603033	-1.048768	0.439672
C34	C	1.808471	-0.512907	0.510701
C35	C	1.926301	-0.512920	0.510713
C36	C	1.531847	-0.512865	0.786105
C37	C	1.531894	-0.512896	0.903935
C38	C	1.531956	-0.236334	0.510691
C39	C	1.532131	-0.118029	0.510432
C40	C	1.450310	-0.595391	1.071508
C41	C	1.449911	-0.595124	0.948949
C42	C	1.501645	-0.400724	0.948533
C43	C	1.501129	-0.401226	1.071132
C44	C	1.644169	-0.541669	1.071025
C45	C	1.643499	-0.544120	0.948418
C46	C	1.532076	-0.512913	1.234170
C47	C	1.532028	-0.512939	1.116340
H48	H	1.122966	-0.347216	0.447378
H49	H	1.123280	-0.648068	0.397644
H50	H	1.366784	-0.576089	0.919713
Br51	Br	1.469730	-0.926118	0.277566
H52	H	1.124812	-0.689211	0.535405
H53	H	1.705052	-0.481616	1.100017
H54	H	1.353654	-1.079899	0.462658
H55	H	1.123328	-0.539964	0.685310
Br56	Br	1.481453	-0.733755	0.898679
Br57	Br	1.594424	-1.100678	0.743496
H58	H	0.942924	-0.399293	0.645969
Br59	Br	0.922137	-0.576682	0.727575
H60	H	0.941677	-0.450068	0.345338
H61	H	1.559286	-0.337611	0.919378
Br62	Br	0.920085	-0.672032	0.348958
Br63	Br	1.681525	-0.681715	0.899832
H64	H	1.469053	-0.678839	1.100917
Br65	Br	1.690145	-0.675685	1.122428
Br66	Br	1.145256	-0.346405	0.663166
Br67	Br	0.923243	-0.727238	0.582246
Br68	Br	1.361456	-0.926272	0.681227
Br69	Br	0.919689	-0.292728	0.459303
H70	H	1.123801	-0.449914	0.345799
Br71	Br	1.596014	-0.295336	1.120575
H72	H	1.710630	-0.947076	0.558507
Br73	Br	1.703036	-1.100212	0.339832
Br74	Br	1.750345	-0.451324	0.897329
H75	H	1.367693	-0.576600	1.102408
Br76	Br	1.364499	-0.360660	1.118958
Br77	Br	1.366450	-0.359420	0.897520
