data_functionalizedCrystal
_audit_creation_method	'MofGen! by Chris Wilmer'
_symmetry_space_group_name_H-M	'P1'
_symmetry_Int_Tables_number	1
_symmetry_cell_setting	triclinic
loop_
_symmetry_equiv_pos_as_xyz
  x,y,z
_cell_length_a	19.805407
_cell_length_b	14.908178
_cell_length_c	19.805399
_cell_angle_alpha	93.324276
_cell_angle_beta	90.024201
_cell_angle_gamma	93.312812
loop_
_atom_site_label
_atom_site_type_symbol
_atom_site_fract_x
_atom_site_fract_y
_atom_site_fract_z
Zn1	Zn	1.019224	-0.359225	0.367247
Zn2	Zn	1.012624	-0.510101	0.247525
Zn3	Zn	0.906038	-0.359248	0.254061
Zn4	Zn	0.899489	-0.510051	0.360664
O5	O	0.959344	-0.434656	0.307374
O6	O	1.113065	-0.379250	0.351384
O7	O	0.998463	-0.490121	0.153674
O8	O	0.926555	-0.232991	0.274566
O9	O	1.108216	-0.490099	0.263425
O10	O	1.009712	-0.232974	0.357723
O11	O	0.920155	-0.379289	0.158476
O12	O	0.810453	-0.379241	0.268183
O13	O	0.915394	-0.490014	0.456255
O14	O	0.805642	-0.490036	0.346504
O15	O	1.003363	-0.379202	0.461091
O16	O	0.992114	-0.636349	0.257043
O17	O	0.908994	-0.636312	0.340166
C18	C	0.783489	-0.434636	0.307339
C19	C	0.708256	-0.434649	0.307339
C20	C	0.243973	-0.492456	0.348127
C21	C	0.314661	-0.492454	0.348112
C22	C	0.352493	-0.434678	0.307400
C23	C	0.319633	-0.376906	0.266694
C24	C	0.248945	-0.376913	0.266705
C25	C	0.604707	-0.376879	0.266647
C26	C	0.675400	-0.376875	0.266641
C27	C	0.670423	-0.492420	0.348055
C28	C	0.599736	-0.492427	0.348066
C29	C	0.566881	-0.434659	0.307357
C30	C	0.490233	-0.434662	0.307372
C31	C	0.429141	-0.434669	0.307388
C32	C	0.949146	-0.669067	0.297195
C33	C	0.944845	-0.769349	0.292863
C34	C	1.023289	-0.957622	0.371407
C35	C	1.019251	-1.051845	0.367340
C36	C	0.932726	-1.052022	0.280664
C37	C	0.936764	-0.957798	0.284731
C38	C	0.982048	-0.910601	0.330104
C39	C	0.986090	-0.816376	0.334168
C40	C	0.899562	-0.816554	0.247496
C41	C	0.895524	-0.910778	0.243428
C42	C	1.135886	-0.434677	0.307410
C43	C	1.211117	-0.434686	0.307425
C44	C	0.959384	-0.434600	0.483919
C45	C	0.959401	-0.434575	0.559153
C46	C	0.969600	-0.199330	0.317608
C47	C	0.973971	-0.099049	0.321968
C48	C	0.959345	-0.434648	0.131519
C49	C	0.959470	-0.434418	0.056297
C50	C	1.005208	-0.376873	0.597016
C51	C	1.005216	-0.376847	0.667706
C52	C	0.959420	-0.434528	0.700530
C53	C	0.913609	-0.492233	0.662662
C54	C	0.913598	-0.492254	0.591974
C55	C	0.913651	-0.492149	0.947739
C56	C	0.913667	-0.492126	1.018432
C57	C	1.005268	-0.376742	1.023471
C58	C	1.005258	-0.376763	0.952783
C59	C	0.959444	-0.434464	0.914920
C60	C	0.959435	-0.434490	0.838271
C61	C	0.959432	-0.434507	0.777178
H62	H	0.350441	-0.329868	0.233541
H63	H	0.577966	-0.329844	0.233497
C64	C	0.202361	-0.556007	0.392911
H65	H	0.155556	-0.547734	0.387095
H66	H	0.211305	-0.616608	0.380299
H67	H	0.214544	-0.542875	0.438975
H68	H	0.895855	-1.090466	0.243726
H69	H	1.042502	-0.329905	0.570295
C70	C	1.055617	-0.313398	0.709355
H71	H	1.049066	-0.321644	0.756155
H72	H	1.100510	-0.326633	0.697201
H73	H	1.048365	-0.252771	0.700410
H74	H	1.052830	-1.090126	0.400976
C75	C	0.845719	-0.962699	0.193519
H76	H	0.849222	-1.025550	0.197008
H77	H	0.800894	-0.947301	0.204035
H78	H	0.856325	-0.947285	0.148717
H79	H	1.060166	-0.919193	0.408347
C80	C	0.350802	-0.556027	0.392861
H81	H	0.398318	-0.547767	0.387011
H82	H	0.339826	-0.542929	0.438932
H83	H	0.336563	-0.616623	0.380228
C84	C	0.212804	-0.313363	0.221936
H85	H	0.245459	-0.278946	0.197692
H86	H	0.183714	-0.347826	0.190911
H87	H	0.186952	-0.274097	0.249590
C88	C	0.706561	-0.555973	0.392830
H89	H	0.673905	-0.590374	0.417084
H90	H	0.732414	-0.595240	0.365184
H91	H	0.735651	-0.521502	0.423858
C92	C	0.854196	-0.764834	0.202057
H93	H	0.826654	-0.806441	0.174450
H94	H	0.826263	-0.728083	0.229498
H95	H	0.881691	-0.728080	0.174178
C96	C	0.558124	-0.555980	0.392849
H97	H	0.587816	-0.590392	0.417084
H98	H	0.532063	-0.521523	0.423883
H99	H	0.528829	-0.595251	0.365203
C100	C	0.717014	-0.313323	0.221851
H101	H	0.687323	-0.278924	0.197603
H102	H	0.746310	-0.274053	0.249491
H103	H	0.743074	-0.347792	0.190819
H104	H	1.042551	-0.329795	0.926061
H105	H	1.022964	-0.777949	0.371111
H106	H	1.042570	-0.329755	1.054307
C107	C	0.863285	-0.555572	1.054538
H108	H	0.835993	-0.589933	1.021866
H109	H	0.887464	-0.594880	1.080411
H110	H	0.835305	-0.521034	1.083607
H111	H	0.876356	-0.539146	0.916919
C112	C	0.863236	-0.555683	0.698767
H113	H	0.869807	-0.547414	0.746289
H114	H	0.818332	-0.542479	0.687745
H115	H	0.870503	-0.616309	0.684546
H116	H	0.876292	-0.539232	0.561146
