data_functionalizedCrystal
_audit_creation_method	'MofGen! by Chris Wilmer'
_symmetry_space_group_name_H-M	'P1'
_symmetry_Int_Tables_number	1
_symmetry_cell_setting	triclinic
loop_
_symmetry_equiv_pos_as_xyz
  x,y,z
_cell_length_a	10.686220
_cell_length_b	16.625546
_cell_length_c	10.685314
_cell_angle_alpha	94.331126
_cell_angle_beta	98.357559
_cell_angle_gamma	94.404440
loop_
_atom_site_label
_atom_site_type_symbol
_atom_site_fract_x
_atom_site_fract_y
_atom_site_fract_z
Zn1	Zn	1.885442	-0.256274	-0.568984
Zn2	Zn	1.901561	-0.379948	-0.356739
Zn3	Zn	1.689452	-0.256341	-0.373019
Zn4	Zn	1.673142	-0.402281	-0.585175
O5	O	1.787400	-0.323711	-0.470979
O6	O	2.065197	-0.263306	-0.527240
O7	O	1.886997	-0.354233	-0.181286
O8	O	1.715531	-0.143497	-0.399051
O9	O	2.077040	-0.354168	-0.371305
O10	O	1.859524	-0.143448	-0.543026
O11	O	1.731161	-0.263419	-0.193246
O12	O	1.509672	-0.285074	-0.414751
O13	O	1.687732	-0.392231	-0.760640
O14	O	1.497689	-0.392296	-0.570621
O15	O	1.843708	-0.284961	-0.748745
O16	O	1.871181	-0.495745	-0.387004
O17	O	1.703363	-0.512153	-0.554835
C18	C	1.457626	-0.341116	-0.496210
C19	C	1.316546	-0.348583	-0.507034
C20	C	1.787284	-0.533205	-0.470935
C21	C	1.787347	-0.622824	-0.470950
C22	C	1.787558	-0.950995	-0.471065
C23	C	1.787495	-0.859688	-0.471037
C24	C	1.787451	-0.786912	-0.471007
C25	C	1.787390	-0.695600	-0.470980
C26	C	2.118460	-0.306238	-0.445650
C27	C	2.259539	-0.298793	-0.434857
C28	C	1.762103	-0.341080	-0.802033
C29	C	1.751323	-0.348481	-0.943109
C30	C	1.787549	-0.113398	-0.471048
C31	C	1.787612	-0.023775	-0.471078
C32	C	1.812671	-0.306348	-0.141207
C33	C	1.823697	-0.298706	-0.000114
H34	H	1.257415	-0.396931	-0.577107
O35	O	1.667641	-0.406185	-1.013484
C36	C	1.602905	-0.548714	-1.058996
C37	C	1.697742	-0.483445	-0.979182
H38	H	1.627223	-0.611195	-1.031311
H39	H	1.502511	-0.538675	-1.040824
H40	H	1.608823	-0.544586	-1.164019
H41	H	1.691938	-0.487534	-0.874134
H42	H	1.798095	-0.493505	-0.997462
H43	H	1.893899	-0.250419	-0.940986
H44	H	1.318663	-0.250453	-0.364780
