data_functionalizedCrystal
_audit_creation_method	'MofGen! by Chris Wilmer'
_symmetry_space_group_name_H-M	'P1'
_symmetry_Int_Tables_number	1
_symmetry_cell_setting	triclinic
loop_
_symmetry_equiv_pos_as_xyz
  x,y,z
_cell_length_a	13.032831
_cell_length_b	13.032721
_cell_length_c	13.032328
_cell_angle_alpha	103.288501
_cell_angle_beta	90.887223
_cell_angle_gamma	90.902885
loop_
_atom_site_label
_atom_site_type_symbol
_atom_site_fract_x
_atom_site_fract_y
_atom_site_fract_z
Zn1	Zn	1.399425	-0.702867	-0.857484
Zn2	Zn	1.899425	-0.202867	-0.357484
Zn3	Zn	1.399315	-0.857938	-0.702417
Zn4	Zn	1.899315	-0.357938	-0.202417
Zn5	Zn	1.255411	-0.659392	-0.658985
Zn6	Zn	1.755411	-0.159392	-0.158985
Zn7	Zn	1.206356	-0.852308	-0.851927
Zn8	Zn	1.706356	-0.352308	-0.351927
O9	O	1.315127	-0.768126	-0.767703
O10	O	1.815127	-0.268126	-0.267703
O11	O	1.540435	-0.743988	-0.857416
O12	O	2.040435	-0.243988	-0.357416
O13	O	1.400710	-0.815763	-0.551013
O14	O	1.900710	-0.315763	-0.051013
O15	O	1.295090	-0.519526	-0.669465
O16	O	1.795090	-0.019526	-0.169465
O17	O	1.540354	-0.857918	-0.743489
O18	O	2.040354	-0.357918	-0.243489
O19	O	1.400897	-0.551466	-0.815302
O20	O	1.900897	-0.051466	-0.315302
O21	O	1.294984	-0.669892	-0.519103
O22	O	1.794984	-0.169892	-0.019103
O23	O	1.107879	-0.664433	-0.664077
O24	O	1.607879	-0.164433	-0.164077
O25	O	1.211483	-0.848322	-0.998307
O26	O	1.711483	-0.348322	-0.498307
O27	O	1.071839	-0.806167	-0.805831
O28	O	1.571839	-0.306167	-0.305831
O29	O	1.353330	-0.738528	-1.002390
O30	O	1.853330	-0.238528	-0.502390
O31	O	1.353143	-1.002825	-0.738101
O32	O	1.853143	-0.502825	-0.238101
O33	O	1.211377	-0.998689	-0.847946
O34	O	1.711377	-0.498689	-0.347946
C35	C	1.053293	-0.729972	-0.729639
C36	C	1.553293	-0.229972	-0.229639
C37	C	0.941272	-0.713677	-0.713382
C38	C	1.441272	-0.213677	-0.213382
C39	C	1.276949	-1.038524	-0.797160
C40	C	1.776949	-0.538524	-0.297160
C41	C	1.260704	-1.154219	-0.809810
C42	C	1.760704	-0.654219	-0.309810
C43	C	0.873524	-0.776631	-0.776188
C44	C	1.373524	-0.276631	-0.276188
C45	C	0.757744	-0.759791	-0.759387
C46	C	1.257744	-0.259791	-0.259387
C47	C	1.323652	-1.207825	-0.761156
C48	C	1.823652	-0.707825	-0.261156
C49	C	1.306864	-1.327401	-0.774229
C50	C	1.806864	-0.827401	-0.274229
C51	C	1.577983	-0.806430	-0.805917
C52	C	2.077983	-0.306430	-0.305917
C53	C	1.689997	-0.822753	-0.822202
C54	C	2.189997	-0.322753	-0.322202
C55	C	1.276947	-0.797647	-1.039168
C56	C	1.776947	-0.297647	-0.539168
C57	C	1.260677	-0.810226	-1.154850
C58	C	1.760677	-0.310226	-0.654850
C59	C	1.353478	-0.496679	-0.738158
C60	C	1.853478	0.003321	-0.238158
C61	C	1.369821	-0.381004	-0.725568
C62	C	1.869821	0.118996	-0.225568
C63	C	1.306804	-0.774520	-1.328011
C64	C	1.806804	-0.274520	-0.828011
C65	C	1.323615	-0.761509	-1.208446
C66	C	1.823615	-0.261509	-0.708446
C67	C	1.353227	-0.738654	-0.497295
C68	C	1.853227	-0.238654	0.002705
C69	C	1.369734	-0.725810	-0.381610
C70	C	1.869734	-0.225810	0.118390
H71	H	0.730036	-0.693419	-0.693178
H72	H	1.230036	-0.193419	-0.193178
H73	H	1.389939	-0.710165	-1.165819
H74	H	1.889939	-0.210165	-0.665819
H75	H	1.389978	-1.165196	-0.709827
H76	H	1.889978	-0.665196	-0.209827
H77	H	1.240541	-1.370030	-0.825570
H78	H	1.740541	-0.870030	-0.325570
O79	O	1.181557	-1.204914	-0.871128
O80	O	1.681557	-0.704914	-0.371128
C81	C	1.126271	-1.131850	-0.913806
C82	C	1.626271	-0.631850	-0.413806
H83	H	1.177846	-1.060691	-0.915024
H84	H	1.677846	-0.560691	-0.415024
H85	H	1.099538	-1.170663	-0.997643
H86	H	1.599538	-0.670663	-0.497643
H87	H	1.056726	-1.105116	-0.863264
H88	H	1.556726	-0.605116	-0.363264
H89	H	0.901238	-0.842992	-0.842399
H90	H	1.401238	-0.342992	-0.342399
H91	H	1.436150	-1.338378	-0.674236
H92	H	1.936150	-0.838378	-0.174236
O93	O	1.227753	-0.835760	-1.379029
O94	O	1.727753	-0.335760	-0.879029
C95	C	1.228554	-0.835101	-1.487048
C96	C	1.728554	-0.335101	-0.987048
H97	H	1.309084	-0.813945	-1.509387
H98	H	1.809084	-0.313945	-1.009387
H99	H	1.204924	-0.916527	-1.535923
H100	H	1.704924	-0.416527	-1.035923
H101	H	1.172301	-0.774300	-1.503180
H102	H	1.672301	-0.274300	-1.003180
H103	H	1.436053	-0.674469	-1.338979
H104	H	1.936053	-0.174469	-0.838979
O105	O	0.723163	-0.901809	-0.901250
O106	O	1.223163	-0.401809	-0.401250
C107	C	0.782934	-0.858773	-0.970915
C108	C	1.282934	-0.358773	-0.470915
H109	H	0.814879	-0.778129	-0.927993
H110	H	1.314879	-0.278129	-0.427993
H111	H	0.849083	-0.913393	-1.000092
H112	H	1.349083	-0.413393	-0.500092
H113	H	0.733175	-0.849996	-1.040991
H114	H	1.233175	-0.349996	-0.540991
O115	O	0.908177	-0.634638	-0.634283
O116	O	1.408177	-0.134638	-0.134283
C117	C	0.848363	-0.677680	-0.564653
C118	C	1.348363	-0.177680	-0.064653
H119	H	0.869513	-0.763519	-0.571616
H120	H	1.369513	-0.263519	-0.071616
H121	H	0.863640	-0.631034	-0.480311
H122	H	1.363640	-0.131034	0.019689
H123	H	0.763571	-0.673291	-0.585726
H124	H	1.263571	-0.173291	-0.085726
H125	H	1.194340	-0.861554	-1.197472
H126	H	1.694340	-0.361554	-0.697472
