data_functionalizedCrystal
_audit_creation_method	'MofGen! by Chris Wilmer'
_symmetry_space_group_name_H-M	'P1'
_symmetry_Int_Tables_number	1
_symmetry_cell_setting	triclinic
loop_
_symmetry_equiv_pos_as_xyz
  x,y,z
_cell_length_a	16.625546
_cell_length_b	13.897449
_cell_length_c	13.897433
_cell_angle_alpha	90.048509
_cell_angle_beta	89.925636
_cell_angle_gamma	89.976252
loop_
_atom_site_label
_atom_site_type_symbol
_atom_site_fract_x
_atom_site_fract_y
_atom_site_fract_z
Zn1	Zn	-0.320623	-1.474935	-0.545363
Zn2	Zn	-0.070623	-1.224935	-0.295363
Zn3	Zn	0.179377	-0.974935	-0.045363
Zn4	Zn	0.429377	-0.724935	0.204637
Zn5	Zn	-0.455569	-1.474737	-0.384056
Zn6	Zn	-0.205569	-1.224737	-0.134056
Zn7	Zn	0.044431	-0.974737	0.115944
Zn8	Zn	0.294431	-0.724737	0.365944
Zn9	Zn	-0.320757	-1.313546	-0.384081
Zn10	Zn	-0.070757	-1.063546	-0.134081
Zn11	Zn	0.179243	-0.813546	0.115919
Zn12	Zn	0.429243	-0.563546	0.365919
Zn13	Zn	-0.455420	-1.313593	-0.545309
Zn14	Zn	-0.205420	-1.063593	-0.295309
Zn15	Zn	0.044580	-0.813593	-0.045309
Zn16	Zn	0.294580	-0.563593	0.204691
O17	O	-0.388092	-1.394203	-0.464702
O18	O	-0.138092	-1.144203	-0.214702
O19	O	0.111908	-0.894203	0.035298
O20	O	0.361908	-0.644203	0.285298
O21	O	-0.338530	-1.609891	-0.523977
O22	O	-0.088530	-1.359891	-0.273977
O23	O	0.161470	-1.109891	-0.023977
O24	O	0.411470	-0.859891	0.226023
O25	O	-0.437805	-1.453253	-0.249077
O26	O	-0.187805	-1.203253	0.000923
O27	O	0.062195	-0.953253	0.250923
O28	O	0.312195	-0.703253	0.500923
O29	O	-0.207907	-1.335018	-0.405509
O30	O	0.042093	-1.085018	-0.155509
O31	O	0.292093	-0.835018	0.094491
O32	O	0.542093	-0.585018	0.344491
O33	O	-0.437675	-1.609745	-0.405466
O34	O	-0.187675	-1.359745	-0.155466
O35	O	0.062325	-1.109745	0.094534
O36	O	0.312325	-0.859745	0.344534
O37	O	-0.207808	-1.453590	-0.524002
O38	O	0.042192	-1.203590	-0.274002
O39	O	0.292192	-0.953590	-0.024002
O40	O	0.542192	-0.703590	0.225998
O41	O	-0.338759	-1.334826	-0.249096
O42	O	-0.088759	-1.084826	0.000904
O43	O	0.161241	-0.834826	0.250904
O44	O	0.411241	-0.584826	0.500904
O45	O	-0.338615	-1.178571	-0.405456
O46	O	-0.088615	-0.928571	-0.155456
O47	O	0.161385	-0.678571	0.094544
O48	O	0.411385	-0.428571	0.344544
O49	O	-0.437420	-1.335097	-0.680298
O50	O	-0.187420	-1.085097	-0.430298
O51	O	0.062580	-0.835097	-0.180298
O52	O	0.312580	-0.585097	0.069702
O53	O	-0.437551	-1.178605	-0.523910
O54	O	-0.187551	-0.928605	-0.273910
O55	O	0.062449	-0.678605	-0.023910
O56	O	0.312449	-0.428605	0.226090
O57	O	-0.338385	-1.453635	-0.680338
O58	O	-0.088385	-1.203635	-0.430338
O59	O	0.161615	-0.953635	-0.180338
O60	O	0.411615	-0.703635	0.069662
O61	O	-0.568382	-1.453298	-0.405414
O62	O	-0.318382	-1.203298	-0.155414
O63	O	-0.068382	-0.953298	0.094586
O64	O	0.181618	-0.703298	0.344586
O65	O	-0.568272	-1.334905	-0.523885
O66	O	-0.318272	-1.084905	-0.273885
O67	O	-0.068272	-0.834905	-0.023885
O68	O	0.181728	-0.584905	0.226115
C69	C	-0.388082	-1.143588	-0.464680
C70	C	-0.138082	-0.893588	-0.214680
C71	C	0.111918	-0.643588	0.035320
C72	C	0.361918	-0.393588	0.285320
C73	C	-0.388096	-1.036375	-0.464694
C74	C	-0.138096	-0.786375	-0.214694
C75	C	0.111904	-0.536375	0.035306
C76	C	0.361904	-0.286375	0.285306
C77	C	-0.597583	-1.394111	-0.464662
C78	C	-0.347583	-1.144111	-0.214662
C79	C	-0.097583	-0.894111	0.035338
C80	C	0.152417	-0.644111	0.285338
C81	C	-0.687204	-1.394161	-0.464677
C82	C	-0.437204	-1.144161	-0.214677
C83	C	-0.187204	-0.894161	0.035323
C84	C	0.062796	-0.644161	0.285323
C85	C	-0.387871	-1.394393	-0.716296
C86	C	-0.137871	-1.144393	-0.466296
C87	C	0.112129	-0.894393	-0.216296
C88	C	0.362129	-0.644393	0.033704
C89	C	-0.387777	-1.394474	-0.823510
C90	C	-0.137777	-1.144474	-0.573510
C91	C	0.112223	-0.894474	-0.323510
C92	C	0.362223	-0.644474	-0.073510
C93	C	-1.015380	-1.394329	-0.464777
C94	C	-0.765380	-1.144329	-0.214777
C95	C	-0.515380	-0.894329	0.035223
C96	C	-0.265380	-0.644329	0.285223
C97	C	-0.924071	-1.394279	-0.464752
C98	C	-0.674071	-1.144279	-0.214752
C99	C	-0.424071	-0.894279	0.035248
C100	C	-0.174071	-0.644279	0.285248
C101	C	-0.851295	-1.394244	-0.464727
C102	C	-0.601295	-1.144244	-0.214727
C103	C	-0.351295	-0.894244	0.035273
C104	C	-0.101295	-0.644244	0.285273
C105	C	-0.759981	-1.394196	-0.464702
C106	C	-0.509981	-1.144196	-0.214702
C107	C	-0.259981	-0.894196	0.035298
C108	C	-0.009981	-0.644196	0.285298
C109	C	-0.177783	-1.394321	-0.464764
C110	C	0.072217	-1.144321	-0.214764
C111	C	0.322217	-0.894321	0.035236
C112	C	0.572217	-0.644321	0.285236
C113	C	-0.088162	-1.394371	-0.464790
C114	C	0.161838	-1.144371	-0.214790
C115	C	0.411838	-0.894371	0.035210
C116	C	0.661838	-0.644371	0.285210
C117	C	-0.388104	-1.645796	-0.464725
C118	C	-0.138104	-1.395796	-0.214725
C119	C	0.111896	-1.145796	0.035275
C120	C	0.361896	-0.895796	0.285275
C121	C	-0.388109	-1.753010	-0.464735
C122	C	-0.138109	-1.503010	-0.214735
C123	C	0.111891	-1.253010	0.035265
C124	C	0.361891	-1.003010	0.285265
C125	C	-0.388099	-0.840079	-0.464719
C126	C	-0.138099	-0.590079	-0.214719
C127	C	0.111901	-0.340079	0.035281
C128	C	0.361901	-0.090079	0.285281
C129	C	-0.388095	-0.949312	-0.464702
C130	C	-0.138095	-0.699312	-0.214702
C131	C	0.111905	-0.449312	0.035298
C132	C	0.361905	-0.199312	0.285298
C133	C	-0.388255	-1.394069	-0.214088
C134	C	-0.138255	-1.144069	0.035912
C135	C	0.111745	-0.894069	0.285912
C136	C	0.361745	-0.644069	0.535912
C137	C	-0.388122	-1.394174	-0.106874
C138	C	-0.138122	-1.144174	0.143126
C139	C	0.111878	-0.894174	0.393126
C140	C	0.361878	-0.644174	0.643126
C141	C	-0.387885	-1.394389	0.089421
C142	C	-0.137885	-1.144389	0.339421
C143	C	0.112115	-0.894389	0.589421
C144	C	0.362115	-0.644389	0.839421
C145	C	-0.388019	-1.394272	-0.019812
C146	C	-0.138019	-1.144272	0.230188
C147	C	0.111981	-0.894272	0.480188
C148	C	0.361981	-0.644272	0.730188
