data_functionalizedCrystal
_audit_creation_method	'MofGen! by Chris Wilmer'
_symmetry_space_group_name_H-M	'P1'
_symmetry_Int_Tables_number	1
_symmetry_cell_setting	triclinic
loop_
_symmetry_equiv_pos_as_xyz
  x,y,z
_cell_length_a	11.026607
_cell_length_b	12.837942
_cell_length_c	9.482900
_cell_angle_alpha	100.328050
_cell_angle_beta	78.636152
_cell_angle_gamma	101.707478
loop_
_atom_site_label
_atom_site_type_symbol
_atom_site_fract_x
_atom_site_fract_y
_atom_site_fract_z
O1	O	1.678880	0.430677	-0.120903
O2	O	1.319732	0.380157	-0.120904
O3	O	1.491341	0.253029	-0.120894
O4	O	1.507271	0.557805	-0.120912
O5	O	1.456499	0.278984	0.120896
O6	O	1.284890	0.406113	0.120887
O7	O	1.644038	0.456632	0.120888
Cu8	Cu	1.461282	0.433742	0.142965
Cu9	Cu	1.502487	0.403047	-0.142981
O10	O	1.472429	0.583760	0.120878
C11	C	1.256022	0.383815	-0.000009
C12	C	1.118096	0.356032	-0.000009
C13	C	1.468539	0.226382	0.000000
C14	C	1.452492	0.108310	-0.000002
C15	C	1.053162	0.432745	-0.000014
C16	C	0.910607	0.404032	-0.000015
C17	C	1.645414	-0.096652	-0.000032
C18	C	1.630343	-0.207590	-0.000035
C19	C	1.407280	-0.224509	-0.000020
C20	C	1.422352	-0.113570	-0.000018
C21	C	1.541422	-0.049645	-0.000021
C22	C	1.556492	0.061297	-0.000009
C23	C	1.333431	0.044375	-0.000005
C24	C	1.318360	-0.066563	-0.000007
C25	C	1.707748	0.452974	-0.000011
C26	C	1.845676	0.480756	-0.000020
C27	C	1.495231	0.610407	-0.000019
C28	C	1.511279	0.728478	-0.000026
N29	N	1.432310	0.455332	0.344083
N30	N	1.531469	0.381450	-0.344099
C31	C	1.493932	0.409408	0.416286
C32	C	1.469837	0.427381	0.583702
H33	H	1.103105	0.519680	-0.000011
H34	H	0.860673	0.317088	-0.000047
H35	H	1.653444	0.113344	-0.000006
Cl36	Cl	1.202688	0.103477	0.000027
H37	H	1.564524	0.356779	0.354162
Cl38	Cl	1.323304	0.536575	0.439991
Cl39	Cl	0.922765	0.614989	-0.000007
Cl40	Cl	1.761083	-0.266681	-0.000052
Cl41	Cl	1.168681	-0.146937	-0.000015
H42	H	1.310340	-0.276577	-0.000033
Cl43	Cl	1.040994	0.221809	0.000009
Cl44	Cl	1.360827	0.508628	0.679604
H45	H	1.742364	-0.044601	-0.000021
Cl46	Cl	1.640763	0.300472	0.560003
