data_functionalizedCrystal
_audit_creation_method	'MofGen! by Chris Wilmer'
_symmetry_space_group_name_H-M	'P1'
_symmetry_Int_Tables_number	1
_symmetry_cell_setting	triclinic
loop_
_symmetry_equiv_pos_as_xyz
  x,y,z
_cell_length_a	10.489716
_cell_length_b	10.489741
_cell_length_c	8.965430
_cell_angle_alpha	89.993320
_cell_angle_beta	90.002958
_cell_angle_gamma	95.465845
loop_
_atom_site_label
_atom_site_type_symbol
_atom_site_fract_x
_atom_site_fract_y
_atom_site_fract_z
O1	O	1.694069	-0.179823	0.124026
O2	O	1.322870	-0.196749	0.124032
O3	O	1.516916	-0.002687	0.124020
O4	O	1.500023	-0.373885	0.124038
O5	O	1.516904	-0.002672	-0.124059
O6	O	1.322858	-0.196734	-0.124047
O7	O	1.694057	-0.179808	-0.124052
Cu8	Cu	1.508457	-0.188270	-0.146701
Cu9	Cu	1.508471	-0.188287	0.146681
O10	O	1.500011	-0.373870	-0.124041
C11	C	1.275332	-0.195470	-0.000007
C12	C	1.133701	-0.191665	-0.000005
C13	C	1.036027	-0.310669	0.000005
C14	C	0.958675	-0.247778	-0.122321
C15	C	0.958693	-0.247764	0.122265
C16	C	1.058214	-0.128823	-0.122431
C17	C	1.058238	-0.128827	0.122265
C18	C	0.980935	-0.065848	-0.000091
C19	C	1.515634	0.044852	-0.000018
C20	C	1.511817	0.186481	-0.000016
C21	C	1.741596	-0.181087	-0.000010
C22	C	1.883227	-0.184892	-0.000002
C23	C	1.501293	-0.421409	0.000001
C24	C	1.505110	-0.563038	0.000008
N25	N	1.508456	-0.188257	-0.353050
C26	C	1.388351	0.254610	-0.000003
C27	C	1.446669	0.346745	-0.122319
C28	C	1.446710	0.346705	0.122267
C29	C	1.570186	0.276750	-0.122433
C30	C	1.570210	0.276701	0.122263
C31	C	1.628618	0.368808	-0.000083
N32	N	1.508481	-0.188290	0.353030
C33	C	1.598403	-0.098698	0.450281
C34	C	1.623922	-0.214261	0.549757
C35	C	1.482994	-0.072704	0.549682
C36	C	1.534058	-0.303913	0.450316
C37	C	1.393078	-0.162279	0.450233
C38	C	1.418549	-0.277925	0.549664
H39	H	0.915187	-0.298008	-0.225731
H40	H	1.555710	-0.401674	0.406851
C41	C	1.639630	0.235826	-0.260660
C42	C	1.575183	0.272166	-0.388280
C43	C	1.639120	0.234500	-0.515640
H44	H	1.641628	0.145486	-0.260059
H45	H	1.724722	0.275990	-0.261097
H46	H	1.490112	0.231998	-0.387843
H47	H	1.573182	0.362501	-0.388930
H48	H	1.724213	0.274664	-0.516077
H49	H	1.641115	0.144160	-0.515024
H50	H	1.595409	0.259161	-0.602244
C51	C	1.453988	0.057558	0.607795
C52	C	1.334023	0.085348	0.555239
C53	C	1.307265	0.205327	0.608753
H54	H	1.517843	0.121222	0.573801
H55	H	1.453335	0.056422	0.713754
H56	H	1.334685	0.086494	0.449302
H57	H	1.270142	0.021716	0.589229
H58	H	1.306613	0.204191	0.714712
H59	H	1.371128	0.268981	0.574755
H60	H	1.225863	0.224193	0.573113
H61	H	1.394458	0.377658	0.225686
C62	C	1.068873	-0.448710	-0.000449
C63	C	1.018270	-0.510443	-0.128822
C64	C	1.048519	-0.637597	-0.129308
H65	H	1.033321	-0.491551	0.085462
H66	H	1.159281	-0.450245	0.000365
H67	H	0.927879	-0.508916	-0.129622
H68	H	1.053813	-0.467641	-0.214753
H69	H	1.138928	-0.639132	-0.128495
H70	H	1.012966	-0.680425	-0.043392
H71	H	1.014201	-0.679495	-0.216414
H72	H	1.295526	-0.140249	0.406485
H73	H	1.674509	-0.023034	0.406646
C74	C	1.115714	-0.061772	-0.260530
C75	C	1.017935	-0.016506	-0.346225
C76	C	1.070858	0.045277	-0.473440
H77	H	1.158954	-0.120460	-0.317869
H78	H	1.174690	0.008143	-0.231351
H79	H	0.958981	-0.086411	-0.375406
H80	H	0.974686	0.042199	-0.288931
H81	H	1.129834	0.115192	-0.444261
H82	H	1.114098	-0.013419	-0.530766
H83	H	1.004525	0.076008	-0.531593
C84	C	0.948297	0.072259	0.000141
C85	C	0.877631	0.094729	0.128382
C86	C	0.847566	0.221943	0.128656
H87	H	0.899053	0.087437	-0.085861
H88	H	1.025092	0.128139	-0.000634
H89	H	0.800848	0.038867	0.129143
H90	H	0.926851	0.079580	0.214405
H91	H	0.924361	0.277823	0.127882
H92	H	0.798326	0.237110	0.042648
H93	H	0.799626	0.237209	0.215672
H94	H	1.101739	-0.078635	0.225680
C95	C	0.900896	-0.314982	0.260111
C96	C	0.928362	-0.443010	0.259547
C97	C	0.875167	-0.504973	0.386515
H98	H	0.810738	-0.311518	0.259743
H99	H	0.936362	-0.273639	0.346999
H100	H	0.892891	-0.484343	0.172683
H101	H	1.018510	-0.446512	0.259939
H102	H	0.910632	-0.463630	0.473402
H103	H	0.785011	-0.501500	0.386135
H104	H	0.893805	-0.591843	0.386156
C105	C	1.316977	-0.378837	0.607586
C106	C	1.227893	-0.319743	0.693430
C107	C	1.134306	-0.412662	0.746801
H108	H	1.356310	-0.438787	0.667367
H109	H	1.274568	-0.421992	0.525765
H110	H	1.270297	-0.276609	0.775240
H111	H	1.188527	-0.259801	0.633681
H112	H	1.091898	-0.455817	0.664980
H113	H	1.173651	-0.472607	0.806576
H114	H	1.073845	-0.372579	0.805041
C115	C	1.764001	0.434952	-0.000043
C116	C	1.759013	0.567856	0.001234
C117	C	1.883703	0.628822	0.001306
H118	H	1.807788	0.411162	-0.086953
H119	H	1.808175	0.409958	0.086073
H120	H	1.714858	0.592840	-0.084874
H121	H	1.715250	0.591683	0.088137
H122	H	1.927877	0.603827	0.087422
H123	H	1.927480	0.605021	-0.085605
H124	H	1.880336	0.719002	0.002186
H125	H	1.286838	0.204950	-0.000125
H126	H	1.394423	0.377758	-0.225728
H127	H	1.622412	0.245655	0.225677
H128	H	1.721505	-0.236256	0.593472
