data_functionalizedCrystal
_audit_creation_method	'MofGen! by Chris Wilmer'
_symmetry_space_group_name_H-M	'P1'
_symmetry_Int_Tables_number	1
_symmetry_cell_setting	triclinic
loop_
_symmetry_equiv_pos_as_xyz
  x,y,z
_cell_length_a	19.077312
_cell_length_b	16.625545
_cell_length_c	19.076919
_cell_angle_alpha	87.727920
_cell_angle_beta	85.331053
_cell_angle_gamma	87.731596
loop_
_atom_site_label
_atom_site_type_symbol
_atom_site_fract_x
_atom_site_fract_y
_atom_site_fract_z
Zn1	Zn	1.061644	-0.386153	0.355274
Zn2	Zn	1.394977	-0.052819	0.688607
Zn3	Zn	1.728311	0.280514	1.021941
Zn4	Zn	1.066297	-0.515779	0.237395
Zn5	Zn	1.399630	-0.182445	0.570728
Zn6	Zn	1.732963	0.150888	0.904061
Zn7	Zn	0.948502	-0.375770	0.242142
Zn8	Zn	1.281835	-0.042436	0.575475
Zn9	Zn	1.615168	0.290897	0.908808
Zn10	Zn	0.943728	-0.515745	0.359978
Zn11	Zn	1.277061	-0.182412	0.693311
Zn12	Zn	1.610395	0.150921	1.026644
O13	O	1.005043	-0.448362	0.298697
O14	O	1.338376	-0.115028	0.632030
O15	O	1.671709	0.218305	0.965364
O16	O	1.160907	-0.407707	0.335682
O17	O	1.494240	-0.074374	0.669015
O18	O	1.827574	0.258959	1.002349
O19	O	1.054616	-0.492875	0.139377
O20	O	1.387949	-0.159541	0.472710
O21	O	1.721282	0.173792	0.806043
O22	O	0.963561	-0.264318	0.257167
O23	O	1.296894	0.069016	0.590500
O24	O	1.630228	0.402349	0.923834
O25	O	1.164325	-0.502943	0.249077
O26	O	1.497658	-0.169609	0.582410
O27	O	1.830992	0.163724	0.915743
O28	O	1.046686	-0.271946	0.340285
O29	O	1.380019	0.061387	0.673618
O30	O	1.713353	0.394721	1.006952
O31	O	0.968072	-0.390011	0.142864
O32	O	1.301406	-0.056677	0.476198
O33	O	1.634739	0.276656	0.809531
O34	O	0.849223	-0.389978	0.261728
O35	O	1.182556	-0.056645	0.595061
O36	O	1.515889	0.276688	0.928394
O37	O	0.955425	-0.502886	0.458001
O38	O	1.288758	-0.169553	0.791335
O39	O	1.622092	0.163781	1.124668
O40	O	0.845715	-0.492818	0.348301
O41	O	1.179049	-0.159485	0.681635
O42	O	1.512382	0.173849	1.014968
O43	O	1.042057	-0.407675	0.454546
O44	O	1.375391	-0.074342	0.787879
O45	O	1.708724	0.258992	1.121212
O46	O	1.049987	-0.628603	0.253637
O47	O	1.383320	-0.295270	0.586971
O48	O	1.716653	0.038063	0.920304
O49	O	0.959936	-0.628579	0.343698
O50	O	1.293270	-0.295246	0.677032
O51	O	1.626603	0.038088	1.010365
C52	C	0.821891	-0.440268	0.306040
C53	C	1.155225	-0.106935	0.639374
C54	C	1.488558	0.226398	0.972707
C55	C	0.743538	-0.436826	0.309199
C56	C	1.076871	-0.103493	0.642532
C57	C	1.410204	0.229840	0.975865
C58	C	0.302298	-0.412074	0.331858
C59	C	0.635631	-0.078741	0.665191
C60	C	0.968965	0.254592	0.998525
C61	C	0.375920	-0.415323	0.328886
C62	C	0.709253	-0.081990	0.662220
C63	C	1.042586	0.251343	0.995553
C64	C	0.414504	-0.466444	0.282237
C65	C	0.747837	-0.133111	0.615570
C66	C	1.081171	0.200223	0.948904
C67	C	0.379463	-0.514324	0.238561
C68	C	0.712796	-0.180991	0.571894
C69	C	1.046130	0.152342	0.905228
C70	C	0.305842	-0.511079	0.241536
C71	C	0.639176	-0.177746	0.574870
C72	C	0.972509	0.155588	0.908203
C73	C	0.634876	-0.481461	0.268498
C74	C	0.968209	-0.148128	0.601832
C75	C	1.301543	0.185205	0.935165
C76	C	0.708502	-0.484701	0.265525
C77	C	1.041835	-0.151368	0.598858
C78	C	1.375168	0.181965	0.932191
C79	C	0.704953	-0.385701	0.355851
C80	C	1.038287	-0.052368	0.689185
C81	C	1.371620	0.280966	1.022518
C82	C	0.631332	-0.382457	0.358820
C83	C	0.964665	-0.049123	0.692153
C84	C	1.297998	0.284210	1.025486
C85	C	0.596297	-0.430340	0.315147
C86	C	0.929630	-0.097007	0.648480
C87	C	1.262963	0.236326	0.981813
N88	N	0.489757	-0.469764	0.279197
N89	N	0.823091	-0.136431	0.612530
N90	N	1.156424	0.196902	0.945864
N91	N	0.521045	-0.427024	0.318191
N92	N	0.854378	-0.093690	0.651524
N93	N	1.187711	0.239643	0.984857
C94	C	1.004967	-0.657848	0.298678
C95	C	1.338300	-0.324515	0.632011
C96	C	1.671634	0.008819	0.965345
C97	C	1.004998	-0.747471	0.298691
C98	C	1.338331	-0.414138	0.632024
C99	C	1.671665	-0.080805	0.965357
C100	C	1.005025	-0.820255	0.298704
C101	C	1.338358	-0.486922	0.632037
C102	C	1.671691	-0.153589	0.965370
C103	C	1.005065	-0.911566	0.298717
C104	C	1.338399	-0.578233	0.632051
C105	C	1.671732	-0.244900	0.965384
C106	C	1.005101	-0.984345	0.298725
C107	C	1.338435	-0.651011	0.632058
C108	C	1.671768	-0.317678	0.965392
C109	C	1.005141	-1.075661	0.298738
C110	C	1.338475	-0.742328	0.632071
C111	C	1.671808	-0.408995	0.965404
C112	C	1.188909	-0.456487	0.291325
C113	C	1.522242	-0.123154	0.624659
C114	C	1.855576	0.210180	0.957992
C115	C	1.267262	-0.459949	0.288184
C116	C	1.600595	-0.126616	0.621517
C117	C	1.933929	0.206717	0.954851
C118	C	0.997690	-0.456435	0.482567
C119	C	1.331023	-0.123102	0.815900
C120	C	1.664356	0.210232	1.149234
C121	C	0.994556	-0.459875	0.560921
C122	C	1.327889	-0.126542	0.894255
C123	C	1.661223	0.206791	1.227588
C124	C	1.005137	-0.238059	0.298731
C125	C	1.338470	0.095275	0.632064
C126	C	1.671804	0.428608	0.965397
C127	C	1.005177	-0.148440	0.298745
C128	C	1.338511	0.184893	0.632079
C129	C	1.671844	0.518227	0.965412
C130	C	1.012408	-0.440263	0.115541
C131	C	1.345741	-0.106930	0.448874
C132	C	1.679074	0.226404	0.782207
C133	C	1.015678	-0.436602	0.037181
C134	C	1.349011	-0.103268	0.370515
C135	C	1.682344	0.230065	0.703848
C136	C	1.038187	-0.411923	0.595934
C137	C	1.371520	-0.078589	0.929268
C138	C	1.704853	0.254744	1.262601
C139	C	1.035234	-0.415152	0.669557
C140	C	1.368567	-0.081819	1.002890
C141	C	1.701901	0.251515	1.336224
C142	C	0.988654	-0.466339	0.708165
C143	C	1.321987	-0.133005	1.041498
C144	C	1.655320	0.200328	1.374832
C145	C	0.945018	-0.514293	0.673147
C146	C	1.278352	-0.180960	1.006480
C147	C	1.611685	0.152373	1.339814
C148	C	0.947968	-0.511059	0.599526
C149	C	1.281302	-0.177726	0.932859
C150	C	1.614635	0.155607	1.266193
C151	C	0.974992	-0.481322	0.928542
C152	C	1.308325	-0.147989	1.261875
C153	C	1.641659	0.185344	1.595209
C154	C	0.972047	-0.484554	1.002168
C155	C	1.305380	-0.151221	1.335501
C156	C	1.638714	0.182112	1.668835
C157	C	1.062262	-0.385411	0.998573
C158	C	1.395595	-0.052078	1.331906
C159	C	1.728929	0.281255	1.665240
C160	C	1.065210	-0.382186	0.924951
C161	C	1.398544	-0.048852	1.258284
C162	C	1.731877	0.284481	1.591617
C163	C	1.021573	-0.430137	0.889939
C164	C	1.354906	-0.096804	1.223272
C165	C	1.688239	0.236530	1.556606
N166	N	0.985636	-0.469643	0.783419
N167	N	1.318969	-0.136309	1.116753
N168	N	1.652303	0.197024	1.450086
N169	N	1.024587	-0.426828	0.814686
N170	N	1.357921	-0.093495	1.148020
N171	N	1.691254	0.239838	1.481353
H172	H	0.606360	-0.520449	0.232934
H173	H	0.939693	-0.187116	0.566268
H174	H	1.273026	0.146217	0.899601
Cl175	Cl	0.920133	-0.541605	0.884537
Cl176	Cl	1.253466	-0.208272	1.217870
Cl177	Cl	1.586800	0.125062	1.551204
H178	H	0.739915	-0.526333	0.227536
H179	H	1.073249	-0.193000	0.560869
H180	H	1.406582	0.140334	0.894202
Cl181	Cl	0.427969	-0.578594	0.179918
Cl182	Cl	0.761302	-0.245261	0.513252
Cl183	Cl	1.094636	0.088072	0.846585
Cl184	Cl	0.582831	-0.318191	0.417470
Cl185	Cl	0.916164	0.015142	0.750804
Cl186	Cl	1.249497	0.348475	1.084137
H187	H	0.270888	-0.370441	0.369841
H188	H	0.604221	-0.037108	0.703174
H189	H	0.937554	0.296225	1.036508
Cl190	Cl	0.893114	-0.571343	0.555509
Cl191	Cl	1.226447	-0.238010	0.888843
Cl192	Cl	1.559780	0.095324	1.222176
Cl193	Cl	1.123771	-0.317834	0.876420
Cl194	Cl	1.457104	0.015499	1.209753
Cl195	Cl	1.790438	0.348832	1.543087
Cl196	Cl	0.261797	-0.571275	0.186635
Cl197	Cl	0.595130	-0.237941	0.519969
Cl198	Cl	0.928463	0.095392	0.853302
H199	H	0.934114	-0.526239	1.033601
H200	H	1.267447	-0.192905	1.366934
H201	H	1.600780	0.140428	1.700268
H202	H	1.076119	-0.370243	0.564505
H203	H	1.409453	-0.036910	0.897838
H204	H	1.742786	0.296423	1.231171
H205	H	0.404442	-0.376341	0.364453
H206	H	0.737776	-0.043008	0.697786
H207	H	1.071109	0.290326	1.031120
Cl208	Cl	1.090118	-0.354902	0.713569
Cl209	Cl	1.423451	-0.021569	1.046903
Cl210	Cl	1.756784	0.311764	1.380236
H211	H	0.733487	-0.346718	0.391408
H212	H	1.066820	-0.013384	0.724742
H213	H	1.400153	0.319949	1.058075
Cl214	Cl	1.117114	-0.325131	1.042592
Cl215	Cl	1.450448	0.008203	1.375925
Cl216	Cl	1.783781	0.341536	1.709259
H217	H	0.907089	-0.555968	0.704588
H218	H	1.240423	-0.222634	1.037921
H219	H	1.573756	0.110699	1.371254
