data_functionalizedCrystal
_audit_creation_method	'MofGen! by Chris Wilmer'
_symmetry_space_group_name_H-M	'P1'
_symmetry_Int_Tables_number	1
_symmetry_cell_setting	triclinic
loop_
_symmetry_equiv_pos_as_xyz
  x,y,z
_cell_length_a	17.699083
_cell_length_b	14.044220
_cell_length_c	16.176319
_cell_angle_alpha	89.992517
_cell_angle_beta	89.998611
_cell_angle_gamma	88.235946
loop_
_atom_site_label
_atom_site_type_symbol
_atom_site_fract_x
_atom_site_fract_y
_atom_site_fract_z
O1	O	1.012346	0.119850	-0.068632
O2	O	0.793044	0.135443	-0.068659
O3	O	0.899403	-0.010330	-0.068638
O4	O	0.905987	0.265624	-0.068653
O5	O	0.899387	-0.010340	0.068855
O6	O	0.793027	0.135434	0.068834
O7	O	1.012330	0.119841	0.068861
Cu8	Cu	0.902677	0.127637	0.081402
Cu9	Cu	0.902696	0.127648	-0.081200
O10	O	0.905970	0.265614	0.068840
C11	C	0.764800	0.134880	0.000084
C12	C	0.680666	0.133204	0.000074
C13	C	0.637948	0.218769	0.000069
C14	C	0.558895	0.217189	0.000080
C15	C	0.522563	0.130041	0.000089
C16	C	0.565287	0.044469	0.000096
C17	C	0.644338	0.046050	0.000092
C18	C	0.246484	0.038089	0.000117
C19	C	0.167427	0.036514	0.000120
C20	C	0.161041	0.209227	0.000106
C21	C	0.240092	0.210809	0.000101
C22	C	0.282809	0.125237	0.000112
C23	C	0.368527	0.126952	0.000102
C24	C	0.436847	0.128325	0.000094
C25	C	0.896513	-0.045643	0.000109
C26	C	0.887917	-0.150849	0.000109
C27	C	0.872202	-0.343474	0.000095
C28	C	0.933168	-0.401248	0.000100
C29	C	0.924424	-0.508431	0.000092
C30	C	0.880945	-0.236281	0.000102
C31	C	1.040574	0.120404	0.000116
C32	C	1.124707	0.122081	0.000121
C33	C	0.908860	0.300927	0.000091
C34	C	0.917456	0.406133	0.000086
N35	N	0.902668	0.127628	0.195767
N36	N	0.902710	0.127648	-0.195565
C37	C	0.949782	0.063106	0.239041
C38	C	0.949786	0.063105	0.325588
C39	C	0.902679	0.127632	0.368860
C40	C	0.855561	0.192157	0.325580
C41	C	0.855554	0.192153	0.239034
C42	C	0.855588	0.192175	0.674608
C43	C	0.855600	0.192176	0.761160
C44	C	0.949820	0.063127	0.761161
C45	C	0.949813	0.063123	0.674616
C46	C	0.902692	0.127644	0.631344
C47	C	0.902687	0.127643	0.537500
C48	C	0.902687	0.127638	0.462702
H49	H	0.126251	0.278904	0.000101
O50	O	0.995631	0.000403	0.367495
C51	C	1.089076	-0.127614	0.358364
C52	C	1.037200	-0.056642	0.310802
H53	H	1.122685	-0.173766	0.312548
H54	H	1.129687	-0.086788	0.398845
H55	H	1.053213	-0.174874	0.398920
H56	H	1.073002	-0.009363	0.270201
H57	H	0.996585	-0.097526	0.270373
H58	H	0.988174	0.010583	0.639387
H59	H	0.667523	0.289735	0.000061
H60	H	0.817222	0.244712	0.639383
H61	H	0.991930	-0.370212	0.000052
O62	O	0.995545	0.000310	0.803108
C63	C	1.028738	-0.164557	0.829641
C64	C	0.976919	-0.093525	0.782073
H65	H	1.013686	-0.240438	0.812665
H66	H	1.090193	-0.152382	0.812603
H67	H	1.020663	-0.153428	0.898926
H68	H	0.984927	-0.104612	0.712777
H69	H	0.915483	-0.105718	0.799180
O70	O	0.809872	0.254803	0.367740
C71	C	0.768094	0.311971	0.501064
C72	C	0.819885	0.240985	0.453424
H73	H	0.776160	0.300811	0.570348
H74	H	0.783076	0.387886	0.484093
H75	H	0.706656	0.299725	0.484009
H76	H	0.881339	0.253144	0.470453
H77	H	0.804839	0.165095	0.470398
H78	H	0.813445	-0.374508	0.000085
H79	H	0.524117	0.286865	0.000075
H80	H	0.988144	0.010565	0.203814
H81	H	0.817188	0.244692	0.203802
O82	O	0.529960	-0.040162	-0.000040
C83	C	0.444382	-0.142156	-0.071237
C84	C	0.484353	-0.046287	-0.071192
H85	H	0.407487	-0.147131	-0.128748
H86	H	0.488462	-0.203081	-0.071286
H87	H	0.407565	-0.147204	-0.013669
H88	H	0.521167	-0.041147	-0.128750
H89	H	0.440234	0.014592	-0.071099
H90	H	0.817238	0.244723	0.796390
H91	H	0.269670	0.281773	0.000089
O92	O	0.685919	-0.037005	-0.000018
C93	C	0.778846	-0.135480	-0.071269
C94	C	0.731815	-0.041372	-0.071244
H95	H	0.815953	-0.139050	-0.128858
H96	H	0.816067	-0.139072	-0.013769
H97	H	0.739287	-0.198024	-0.071223
H98	H	0.771318	0.021225	-0.071319
H99	H	0.694586	-0.037864	-0.128739
H100	H	0.137848	-0.034456	0.000128
H101	H	0.281255	-0.031590	0.000127
