data_functionalizedCrystal
_audit_creation_method	'MofGen! by Chris Wilmer'
_symmetry_space_group_name_H-M	'P1'
_symmetry_Int_Tables_number	1
_symmetry_cell_setting	triclinic
loop_
_symmetry_equiv_pos_as_xyz
  x,y,z
_cell_length_a	14.519709
_cell_length_b	15.538191
_cell_length_c	12.996460
_cell_angle_alpha	90.006403
_cell_angle_beta	89.999167
_cell_angle_gamma	114.523881
loop_
_atom_site_label
_atom_site_type_symbol
_atom_site_fract_x
_atom_site_fract_y
_atom_site_fract_z
O1	O	-0.299367	-1.249411	-0.085572
O2	O	-0.192941	-0.975332	-0.085574
O3	O	-0.382836	-1.119638	-0.085564
O4	O	-0.109471	-1.105105	-0.085582
O5	O	-0.382820	-1.119619	0.085570
O6	O	-0.192925	-0.975312	0.085560
O7	O	-0.299351	-1.249392	0.085562
Cu8	Cu	-0.246136	-1.112350	0.101187
Cu9	Cu	-0.246155	-1.112373	-0.101199
O10	O	-0.109455	-1.105085	0.085551
C11	C	-0.181798	-0.940245	-0.000007
C12	C	-0.148631	-0.835727	-0.000007
N13	N	-0.246126	-1.112340	0.243534
C14	C	-0.416960	-1.118951	0.000003
C15	C	-0.518659	-1.116921	0.000004
C16	C	-0.891041	-1.109449	-0.000023
C17	C	-0.787431	-1.111524	-0.000015
C18	C	-0.704853	-1.113185	-0.000009
C19	C	-0.601237	-1.115261	-0.000003
C20	C	-0.075331	-1.105772	-0.000018
C21	C	0.026368	-1.107802	-0.000025
C22	C	-0.310493	-1.284478	-0.000008
C23	C	-0.343661	-1.388996	-0.000014
C24	C	-0.478139	-0.547382	-0.000001
C25	C	-0.446950	-0.449168	-0.000004
C26	C	-0.271519	-0.427021	-0.000016
C27	C	-0.302694	-0.525234	-0.000008
C28	C	-0.406005	-0.585407	-0.000002
C29	C	-0.230559	-0.563260	-0.000008
C30	C	-0.261732	-0.661465	-0.000006
C31	C	-0.365038	-0.721644	-0.000003
C32	C	-0.437177	-0.683612	0.000001
C33	C	-0.127249	-0.503085	-0.000022
C34	C	-0.055115	-0.541111	-0.000022
C35	C	-0.086286	-0.639318	-0.000012
C36	C	-0.189593	-0.699497	-0.000009
C37	C	-0.014147	-0.677349	-0.000016
C38	C	-0.045320	-0.775554	-0.000014
C39	C	-0.220765	-0.797702	-0.000007
C40	C	-0.246124	-1.112344	0.336640
C41	C	-0.246132	-1.112352	0.453445
C42	C	-0.246145	-1.112363	0.546543
C43	C	-0.246153	-1.112373	0.663356
N44	N	-0.246166	-1.112384	0.756454
H45	H	-0.304891	-0.846698	0.000004
H46	H	-0.187403	-0.378015	-0.000025
C47	C	0.058521	-0.474921	-0.000033
H48	H	0.097016	-0.511636	-0.000040
H49	H	0.074336	-0.436138	0.059640
H50	H	0.074320	-0.436165	-0.059723
H51	H	-0.101872	-0.423121	-0.000027
H52	H	-0.505698	-0.418213	-0.000005
H53	H	0.069968	-0.628342	-0.000031
C54	C	0.034025	-0.817386	-0.000014
H55	H	0.100016	-0.767485	-0.000009
H56	H	0.025504	-0.855244	-0.059692
H57	H	0.025513	-0.855228	0.059672
H58	H	-0.521303	-0.732609	0.000012
C59	C	-0.399336	-0.829668	-0.000002
H60	H	-0.471193	-0.860057	-0.000006
H61	H	-0.373987	-0.847792	0.059673
H62	H	-0.373998	-0.847802	-0.059691
C63	C	-0.591780	-0.613578	0.000001
H64	H	-0.630281	-0.576868	-0.000005
H65	H	-0.607584	-0.652346	0.059675
H66	H	-0.607582	-0.652349	-0.059688
