data_functionalizedCrystal
_audit_creation_method	'MofGen! by Chris Wilmer'
_symmetry_space_group_name_H-M	'P1'
_symmetry_Int_Tables_number	1
_symmetry_cell_setting	triclinic
loop_
_symmetry_equiv_pos_as_xyz
  x,y,z
_cell_length_a	13.635800
_cell_length_b	7.076090
_cell_length_c	18.882776
_cell_angle_alpha	70.468047
_cell_angle_beta	117.491288
_cell_angle_gamma	117.701400
loop_
_atom_site_label
_atom_site_type_symbol
_atom_site_fract_x
_atom_site_fract_y
_atom_site_fract_z
V1	V	-1.993837	0.299375	-0.248588
O2	O	-2.095157	-0.009972	-0.244437
O3	O	-1.866636	0.589364	-0.246328
O4	O	-2.008147	0.296706	-0.357260
O5	O	-1.952667	0.284712	-0.132737
V6	V	-2.244007	0.262144	-0.234799
O7	O	-2.106020	0.381042	-0.278834
O8	O	-2.356923	0.180477	-0.204552
O9	O	-2.259605	-0.027845	-0.237058
O10	O	-2.201385	0.571491	-0.238950
O11	O	-2.343876	0.276807	-0.350650
O12	O	-2.118094	0.264812	-0.126126
V13	V	-1.493837	0.299375	-0.248588
O14	O	-1.595157	-0.009972	-0.244437
O15	O	-1.366636	0.589364	-0.246328
O16	O	-1.508147	0.296706	-0.357260
O17	O	-1.452667	0.284712	-0.132737
V18	V	-1.744007	0.262144	-0.234799
O19	O	-1.606020	0.381042	-0.278834
O20	O	-1.856923	0.180477	-0.204552
O21	O	-1.759605	-0.027845	-0.237058
O22	O	-1.701385	0.571491	-0.238950
O23	O	-1.843876	0.276807	-0.350650
O24	O	-1.618094	0.264812	-0.126126
C25	C	-1.762841	0.660000	-0.242266
C26	C	-1.698554	0.901539	-0.241124
C27	C	-1.943344	0.286680	-0.383766
C28	C	-1.995004	0.286417	-0.472603
C29	C	-2.195082	-0.098468	-0.241122
C30	C	-2.248802	-0.339999	-0.242283
C31	C	-2.014564	0.274846	-0.099616
C32	C	-1.952526	0.275098	-0.010778
C33	C	-1.443344	0.286680	-0.383766
C34	C	-1.495004	0.286417	-0.472603
C35	C	-1.514564	0.274846	-0.099616
C36	C	-1.452526	0.275098	-0.010778
C37	C	-2.107958	0.296998	-0.518375
C38	C	-2.156519	0.296723	-0.601845
C39	C	-2.092121	0.285883	-0.639543
C40	C	-1.979158	0.275295	-0.593765
C41	C	-1.930603	0.275555	-0.510296
C42	C	-1.834704	0.285945	0.026912
C43	C	-1.776415	0.286204	0.110383
C44	C	-1.835948	0.275631	0.156162
C45	C	-1.953782	0.264776	0.118466
C46	C	-2.012072	0.264502	0.034997
C47	C	-1.671128	0.275288	0.406233
C48	C	-1.612827	0.275570	0.489707
C49	C	-1.435464	0.296994	0.481618
C50	C	-1.493761	0.296732	0.398147
C51	C	-1.611591	0.285866	0.360459
N52	N	-1.776368	0.275902	0.241483
N53	N	-1.671172	0.285579	0.275141
C54	C	-1.334710	0.285914	0.026899
C55	C	-1.276410	0.286125	0.110372
C56	C	-1.335926	0.275536	0.156166
C57	C	-1.453755	0.264712	0.118483
C58	C	-1.512055	0.264486	0.035012
H59	H	-2.248497	0.305353	-0.639107
H60	H	-2.131671	0.285674	-0.707511
N61	N	-1.770476	0.297350	-0.022451
H62	H	-1.814669	0.164758	-0.049750
H63	H	-1.766745	0.430757	-0.064731
N64	N	-2.139157	0.252783	-0.005657
H65	H	-2.168028	0.246127	0.036007
H66	H	-2.143247	0.385159	-0.047630
N67	N	-2.177447	0.308661	-0.477733
H68	H	-2.191837	0.176281	-0.435774
H69	H	-2.130646	0.442281	-0.450838
H70	H	-1.926735	0.266471	-0.624472
H71	H	-1.680473	0.295064	0.141065
H72	H	-1.838625	0.266943	-0.473034
N73	N	-1.273029	0.275780	0.246194
H74	H	-1.200199	0.413000	0.257197
H75	H	-1.328684	0.267347	0.269438
N76	N	-1.677028	0.264159	0.539094
H77	H	-1.701985	0.392378	0.518824
H78	H	-1.749851	0.126383	0.533843
N79	N	-1.798213	0.263540	0.365591
H80	H	-1.827077	0.256883	0.407260
H81	H	-1.802316	0.395907	0.323616
N82	N	-2.018004	0.253338	0.167839
H83	H	-1.963200	0.255159	0.226436
H84	H	-2.042959	0.381569	0.147502
N85	N	-1.429528	0.308258	0.348766
H86	H	-1.346034	0.315207	0.385307
H87	H	-1.473783	0.175693	0.321449
N88	N	-1.308383	0.308699	0.522266
H89	H	-1.280487	0.307264	0.582090
H90	H	-1.303820	0.180359	0.513423
N91	N	-1.149323	0.297825	0.150996
H92	H	-1.097211	0.431353	0.177946
H93	H	-1.145245	0.165343	0.192909
H94	H	-1.286231	0.294536	-0.010375
H95	H	-1.607987	0.255691	0.004341
H96	H	-1.502202	0.256084	0.155780
