data_functionalizedCrystal
_audit_creation_method	'MofGen! by Chris Wilmer'
_symmetry_space_group_name_H-M	'P1'
_symmetry_Int_Tables_number	1
_symmetry_cell_setting	triclinic
loop_
_symmetry_equiv_pos_as_xyz
  x,y,z
_cell_length_a	18.215407
_cell_length_b	21.295417
_cell_length_c	18.215399
_cell_angle_alpha	89.965438
_cell_angle_beta	89.983176
_cell_angle_gamma	90.030955
loop_
_atom_site_label
_atom_site_type_symbol
_atom_site_fract_x
_atom_site_fract_y
_atom_site_fract_z
Zn1	Zn	1.125021	-0.250593	-0.416094
Zn2	Zn	1.625021	0.249407	0.083906
Zn3	Zn	1.124924	-0.355869	-0.293019
Zn4	Zn	1.624924	0.144131	0.206981
Zn5	Zn	1.001960	-0.250618	-0.293042
Zn6	Zn	1.501960	0.249382	0.206958
Zn7	Zn	1.001908	-0.355829	-0.416044
Zn8	Zn	1.501908	0.144171	0.083956
O9	O	1.063453	-0.303227	-0.354550
O10	O	1.563453	0.196773	0.145450
O11	O	1.227993	-0.264564	-0.399780
O12	O	1.727993	0.235436	0.100220
O13	O	1.108594	-0.341934	-0.190038
O14	O	1.608594	0.158066	0.309962
O15	O	1.018347	-0.162525	-0.309396
O16	O	1.518347	0.337475	0.190604
O17	O	1.227921	-0.341910	-0.309357
O18	O	1.727921	0.158090	0.190643
O19	O	1.108760	-0.162507	-0.399802
O20	O	1.608760	0.337493	0.100198
O21	O	1.018253	-0.264607	-0.190054
O22	O	1.518253	0.235393	0.309946
O23	O	0.898969	-0.264569	-0.309347
O24	O	1.398969	0.235431	0.190653
O25	O	1.018258	-0.341843	-0.519035
O26	O	1.518258	0.158157	-0.019035
O27	O	0.898930	-0.341867	-0.399716
O28	O	1.398930	0.158133	0.100284
O29	O	1.108709	-0.264526	-0.519072
O30	O	1.608709	0.235474	-0.019072
O31	O	1.108543	-0.443953	-0.309308
O32	O	1.608543	0.056047	0.190692
O33	O	1.018163	-0.443924	-0.399694
O34	O	1.518163	0.056076	0.100306
C35	C	0.872247	-0.303217	-0.354529
C36	C	1.372247	0.196783	0.145471
C37	C	0.790448	-0.303227	-0.354537
C38	C	1.290448	0.196773	0.145463
C39	C	0.602253	-0.343540	-0.401533
C40	C	1.102253	0.156460	0.098467
C41	C	0.525395	-0.343542	-0.401542
C42	C	1.025395	0.156458	0.098458
C43	C	0.525405	-0.262927	-0.307582
C44	C	1.025405	0.237073	0.192418
C45	C	0.602263	-0.262922	-0.307577
C46	C	1.102263	0.237078	0.192423
C47	C	0.640685	-0.303232	-0.354552
C48	C	1.140685	0.196768	0.145448
C49	C	0.486969	-0.303239	-0.354566
C50	C	0.986969	0.196761	0.145434
C51	C	0.403635	-0.303240	-0.354575
C52	C	0.903635	0.196760	0.145425
C53	C	0.724024	-0.303229	-0.354543
C54	C	1.224024	0.196771	0.145457
C55	C	1.063357	-0.466779	-0.354509
C56	C	1.563357	0.033221	0.145491
C57	C	1.063383	-0.536747	-0.354516
C58	C	1.563383	-0.036747	0.145484
C59	C	1.110485	-0.569608	-0.307500
C60	C	1.610485	-0.069608	0.192500
C61	C	1.110520	-0.635350	-0.307517
C62	C	1.610520	-0.135350	0.192483
C63	C	1.063439	-0.668230	-0.354542
C64	C	1.563439	-0.168230	0.145458
C65	C	1.016333	-0.635361	-0.401566
C66	C	1.516333	-0.135361	0.098434
C67	C	1.016305	-0.569620	-0.401554
C68	C	1.516305	-0.069620	0.098446
N69	N	0.999060	-0.771496	-0.360145
N70	N	1.499060	-0.271496	0.139855
N71	N	0.999088	-0.833947	-0.360153
N72	N	1.499088	-0.333947	0.139847
C73	C	1.063521	-0.866304	-0.354584
C74	C	1.563521	-0.366304	0.145416
N75	N	1.127926	-0.833851	-0.348993
N76	N	1.627926	-0.333851	0.151007
N77	N	1.127896	-0.771394	-0.348981
N78	N	1.627896	-0.271394	0.151019
C79	C	1.063464	-0.739515	-0.354561
C80	C	1.563464	-0.239515	0.145439
C81	C	1.110665	-0.970451	-0.307584
C82	C	1.610665	-0.470451	0.192416
C83	C	1.110701	-1.036194	-0.307605
C84	C	1.610701	-0.536194	0.192395
C85	C	1.016507	-1.036203	-0.401651
C86	C	1.516507	-0.536203	0.098349
C87	C	1.016478	-0.970461	-0.401633
C88	C	1.516478	-0.470461	0.098367
C89	C	1.063556	-0.937589	-0.354595
C90	C	1.563556	-0.437589	0.145405
C91	C	1.255406	-0.303239	-0.354571
C92	C	1.755406	0.196761	0.145429
C93	C	1.337205	-0.303243	-0.354581
C94	C	1.837205	0.196757	0.145419
C95	C	1.063488	-0.303177	-0.546503
C96	C	1.563488	0.196823	-0.046503
C97	C	1.063503	-0.303156	-0.628302
C98	C	1.563503	0.196844	-0.128302
C99	C	1.063570	-0.139037	-0.354607
C100	C	1.563570	0.360963	0.145393
C101	C	1.063620	-0.069069	-0.354631
C102	C	1.563620	0.430931	0.145369
C103	C	1.016502	-0.262864	-0.816505
C104	C	1.516502	0.237136	-0.316505
C105	C	1.016515	-0.262852	-0.893364
C106	C	1.516515	0.237148	-0.393364
C107	C	1.110592	-0.343372	-0.893336
C108	C	1.610592	0.156628	-0.393336
C109	C	1.110575	-0.343387	-0.816479
C110	C	1.610575	0.156613	-0.316479
C111	C	1.063531	-0.303130	-0.778065
C112	C	1.563531	0.196870	-0.278065
C113	C	1.063561	-0.303102	-0.931781
C114	C	1.563561	0.196898	-0.431781
C115	C	1.063575	-0.303088	-1.015115
C116	C	1.563575	0.196912	-0.515115
C117	C	1.063516	-0.303144	-0.694726
C118	C	1.563516	0.196856	-0.194726
C119	C	1.063461	-0.303232	-0.163344
C120	C	1.563461	0.196768	0.336656
C121	C	1.063589	-0.303076	-0.081545
C122	C	1.563589	0.196924	0.418455
H123	H	0.633554	-0.230095	-0.269319
H124	H	1.133554	0.269905	0.230681
O125	O	0.488177	-0.382757	-0.447202
O126	O	0.988177	0.117243	0.052798
C127	C	0.538573	-0.418320	-0.488673
C128	C	1.038573	0.081680	0.011327
H129	H	0.593346	-0.420465	-0.458518
H130	H	1.093346	0.079535	0.041482
H131	H	0.546783	-0.395326	-0.544614
H132	H	1.046783	0.104674	-0.044614
C133	C	0.441271	-0.482694	-0.536176
C134	C	0.941271	0.017306	-0.036176
C135	C	0.508542	-0.485334	-0.499136
C136	C	1.008542	0.014666	0.000864
H137	H	0.422745	-0.524031	-0.542634
H138	H	0.922745	-0.024031	-0.042634
H139	H	0.407317	-0.458734	-0.508239
H140	H	0.907317	0.041266	-0.008239
H141	H	0.448121	-0.463531	-0.582790
H142	H	0.948121	0.036469	-0.082790
H143	H	0.501689	-0.504490	-0.452520
H144	H	1.001689	-0.004490	0.047480
H145	H	0.542494	-0.509299	-0.527066
H146	H	1.042494	-0.009299	-0.027066
H147	H	1.148821	-0.542845	-0.269202
H148	H	1.648821	-0.042845	0.230798
H149	H	1.148873	-0.376179	-0.785180
H150	H	1.648873	0.123821	-0.285180
H151	H	0.494113	-0.230108	-0.269336
H152	H	0.994113	0.269892	0.230664
H153	H	1.149001	-0.943685	-0.269285
H154	H	1.649001	-0.443685	0.230715
O155	O	0.970876	-1.068202	-0.447370
O156	O	1.470876	-0.568202	0.052630
C157	C	1.012764	-1.106151	-0.494962
C158	C	1.512764	-0.606151	0.005038
H159	H	1.068555	-1.115975	-0.469058
H160	H	1.568555	-0.615975	0.030942
H161	H	1.020807	-1.080770	-0.549499
H162	H	1.520807	-0.580770	-0.049499
C163	C	0.903769	-1.156556	-0.540083
C164	C	1.403769	-0.656556	-0.040083
C165	C	0.972290	-1.168625	-0.508265
C166	C	1.472290	-0.668625	-0.008265
H167	H	0.878802	-1.195092	-0.548292
H168	H	1.378802	-0.695092	-0.048292
H169	H	0.875547	-1.130987	-0.508022
H170	H	1.375547	-0.630987	-0.008022
H171	H	0.910481	-1.135403	-0.585528
H172	H	1.410481	-0.635403	-0.085528
H173	H	0.965578	-1.189770	-0.462817
H174	H	1.465578	-0.689770	0.037183
H175	H	1.000510	-1.194199	-0.540319
H176	H	1.500510	-0.694199	-0.040319
H177	H	1.148879	-0.662111	-0.269231
H178	H	1.648879	-0.162111	0.230769
H179	H	0.978001	-0.662135	-0.439855
H180	H	1.478001	-0.162135	0.060145
H181	H	0.978219	-0.230064	-0.924659
H182	H	1.478219	0.269936	-0.424659
O183	O	0.639691	-0.382670	-0.447098
O184	O	1.139691	0.117330	0.052902
C185	C	0.715769	-0.374014	-0.437035
C186	C	1.215769	0.125986	0.062965
H187	H	0.726259	-0.353341	-0.380283
H188	H	1.226259	0.146659	0.119717
H189	H	0.737613	-0.340533	-0.480755
H190	H	1.237613	0.159467	0.019245
C191	C	0.742311	-0.463101	-0.513352
C192	C	1.242311	0.036899	-0.013352
C193	C	0.755195	-0.437715	-0.443645
C194	C	1.255195	0.062285	0.056355
H195	H	0.766632	-0.502394	-0.517432
H196	H	1.266632	-0.002394	-0.017432
H197	H	0.691056	-0.468932	-0.520134
H198	H	1.191056	0.031068	-0.020134
H199	H	0.760514	-0.435194	-0.549777
H200	H	1.260514	0.064806	-0.049777
H201	H	0.736984	-0.465618	-0.407222
H202	H	1.236984	0.034382	0.092778
H203	H	0.806449	-0.431891	-0.436857
H204	H	1.306449	0.068109	0.063143
H205	H	0.977948	-0.542864	-0.439840
H206	H	1.477948	-0.042864	0.060160
O207	O	1.156483	-1.068020	-0.261863
O208	O	1.656483	-0.568020	0.238137
C209	C	1.198038	-1.024905	-0.220359
C210	C	1.698038	-0.524905	0.279641
H211	H	1.167874	-0.978069	-0.217775
H212	H	1.667874	-0.478069	0.282225
H213	H	1.253913	-1.017850	-0.247354
H214	H	1.753913	-0.517850	0.252646
C215	C	1.245748	-1.108134	-0.145224
C216	C	1.745748	-0.608134	0.354776
C217	C	1.208697	-1.050610	-0.142044
C218	C	1.708697	-0.550610	0.357956
H219	H	1.252326	-1.123990	-0.096916
H220	H	1.752326	-0.623990	0.403084
H221	H	1.217754	-1.137182	-0.173187
H222	H	1.717754	-0.637182	0.326813
H223	H	1.292306	-1.102246	-0.167723
H224	H	1.792306	-0.602246	0.332277
H225	H	1.162136	-1.056499	-0.119554
H226	H	1.662136	-0.556499	0.380446
H227	H	1.236683	-1.021563	-0.114075
H228	H	1.736683	-0.521563	0.385925
H229	H	0.978120	-0.943704	-0.439914
H230	H	1.478120	-0.443704	0.060086
H231	H	0.978196	-0.230084	-0.785231
H232	H	1.478196	0.269916	-0.285231
O233	O	1.156267	-0.382414	-0.930766
O234	O	1.656267	0.117586	-0.430766
C235	C	1.146187	-0.373777	-1.006846
C236	C	1.646187	0.126223	-0.506846
H237	H	1.122120	-0.325194	-1.017362
H238	H	1.622120	0.174806	-0.517362
H239	H	1.106976	-0.411110	-1.028638
H240	H	1.606976	0.088890	-0.528638
C241	C	1.250213	-0.439211	-1.033391
C242	C	1.750213	0.060789	-0.533391
C243	C	1.220660	-0.379539	-1.046308
C244	C	1.720660	0.120461	-0.546308
H245	H	1.296150	-0.442768	-1.057734
H246	H	1.796150	0.057232	-0.557734
H247	H	1.257003	-0.445032	-0.982135
H248	H	1.757003	0.054968	-0.482135
H249	H	1.217530	-0.470315	-1.051551
H250	H	1.717530	0.029685	-0.551551
H251	H	1.253338	-0.348437	-1.028139
H252	H	1.753338	0.151563	-0.528139
H253	H	1.213877	-0.373713	-1.097562
H254	H	1.713877	0.126287	-0.597562
