data_functionalizedCrystal
_audit_creation_method	'MofGen! by Chris Wilmer'
_symmetry_space_group_name_H-M	'P1'
_symmetry_Int_Tables_number	1
_symmetry_cell_setting	triclinic
loop_
_symmetry_equiv_pos_as_xyz
  x,y,z
_cell_length_a	17.077404
_cell_length_b	18.050589
_cell_length_c	17.077396
_cell_angle_alpha	90.024642
_cell_angle_beta	90.019501
_cell_angle_gamma	90.028446
loop_
_atom_site_label
_atom_site_type_symbol
_atom_site_fract_x
_atom_site_fract_y
_atom_site_fract_z
Zn1	Zn	1.200026	-0.295655	0.443864
Zn2	Zn	1.199920	-0.419852	0.312606
Zn3	Zn	1.068757	-0.295681	0.312612
Zn4	Zn	1.068713	-0.419808	0.443830
O5	O	1.134354	-0.357749	0.378228
O6	O	1.309858	-0.312138	0.426464
O7	O	1.182496	-0.403410	0.202760
O8	O	1.086233	-0.191753	0.330039
O9	O	1.309781	-0.403385	0.330030
O10	O	1.182675	-0.191734	0.426469
O11	O	1.086131	-0.312182	0.202764
O12	O	0.958905	-0.312139	0.330006
O13	O	1.086157	-0.403310	0.553681
O14	O	0.958872	-0.403335	0.426412
O15	O	1.182632	-0.312095	0.553706
O16	O	1.182453	-0.523771	0.329997
O17	O	1.086056	-0.523739	0.426407
C18	C	0.930406	-0.357736	0.378206
C19	C	0.843156	-0.357748	0.378216
C20	C	1.134259	-0.550701	0.378215
C21	C	1.134291	-0.633247	0.378236
C22	C	0.802170	-0.405305	0.428333
C23	C	0.720189	-0.405307	0.428346
C24	C	0.679197	-0.357754	0.378236
C25	C	0.720189	-0.310192	0.328116
C26	C	0.802168	-0.310187	0.328108
C27	C	0.549319	-0.310206	0.328135
C28	C	0.467335	-0.310212	0.328142
C29	C	0.467340	-0.405326	0.428373
C30	C	0.549319	-0.405321	0.428365
C31	C	0.590306	-0.357760	0.378244
C32	C	1.081921	-0.832707	0.430645
C33	C	1.062786	-0.882149	0.359016
C34	C	1.134368	-0.784377	0.378246
C35	C	1.153541	-0.882017	0.449883
C36	C	1.134441	-0.930362	0.378262
C37	C	1.115195	-0.832732	0.306579
C38	C	1.205984	-0.832596	0.397495
C39	C	1.186876	-0.882016	0.325816
C40	C	1.134324	-0.700279	0.378238
C41	C	1.134485	-1.014459	0.378262
C42	C	1.339098	-0.357763	0.378250
C43	C	1.426348	-0.357769	0.378260
C44	C	1.134402	-0.357694	0.582972
C45	C	1.134422	-0.357671	0.670222
C46	C	1.134471	-0.164043	0.378258
C47	C	1.134520	-0.081498	0.378271
C48	C	1.134352	-0.357750	0.174280
C49	C	1.134484	-0.357564	0.087031
C50	C	1.184658	-0.310172	0.711226
C51	C	1.184667	-0.310147	0.793207
C52	C	1.134444	-0.357626	0.834182
C53	C	1.084202	-0.405128	0.793172
C54	C	1.084190	-0.405148	0.711193
C55	C	1.084234	-0.405083	0.964042
C56	C	1.084248	-0.405064	1.046026
C57	C	1.184712	-0.310082	1.046056
C58	C	1.184699	-0.310102	0.964077
C59	C	1.134458	-0.357605	0.923073
H60	H	0.835540	-0.444030	0.469136
H61	H	1.231259	-0.903530	0.281460
C62	C	0.847253	-0.257872	0.272973
N63	N	0.881210	-0.218465	0.231444
C64	C	0.594409	-0.457635	0.483484
N65	N	0.628371	-0.497038	0.525002
C66	C	1.021916	-0.803449	0.490420
N67	N	0.976719	-0.781409	0.535438
C68	C	1.028927	-0.457402	0.666088
N69	N	0.987300	-0.496761	0.632117
C70	C	1.175412	-0.911264	0.531719
N71	N	1.191879	-0.933290	0.593359
H72	H	1.225600	-0.271445	0.930718
C73	C	1.287730	-0.803157	0.419523
N74	N	1.349300	-0.780977	0.436126
H75	H	1.225619	-0.271402	1.079446
C76	C	1.028995	-0.457288	1.091097
N77	N	0.987376	-0.496624	1.125044
H78	H	0.582688	-0.271470	0.287328
C79	C	0.981010	-0.911553	0.337024
N80	N	0.919415	-0.933699	0.320465
C81	C	0.422254	-0.457641	0.483511
N82	N	0.388291	-0.497044	0.525038
C83	C	0.422245	-0.257899	0.273021
N84	N	0.388283	-0.218496	0.231504
C85	C	0.675095	-0.257882	0.272996
N86	N	0.641130	-0.218482	0.231477
H87	H	1.225558	-0.271511	0.677871
C88	C	1.239933	-0.257895	0.838308
N89	N	1.281561	-0.218536	0.872278
H90	H	1.098937	-0.811172	0.245986
C91	C	1.028948	-0.457348	0.838247
N92	N	0.987330	-0.496681	0.872197
H93	H	0.686822	-0.444033	0.469156
H94	H	1.043310	-0.443753	0.930658
