data_functionalizedCrystal
_audit_creation_method	'MofGen! by Chris Wilmer'
_symmetry_space_group_name_H-M	'P1'
_symmetry_Int_Tables_number	1
_symmetry_cell_setting	triclinic
loop_
_symmetry_equiv_pos_as_xyz
  x,y,z
_cell_length_a	6.817900
_cell_length_b	11.102183
_cell_length_c	16.015572
_cell_angle_alpha	76.743797
_cell_angle_beta	104.485554
_cell_angle_gamma	108.603876
loop_
_atom_site_label
_atom_site_type_symbol
_atom_site_fract_x
_atom_site_fract_y
_atom_site_fract_z
V1	V	-3.999217	-0.051261	-0.269393
O2	O	-3.960399	0.130656	-0.264266
O3	O	-3.976752	-0.224934	-0.267549
O4	O	-3.927020	0.005776	-0.386885
O5	O	-4.010476	-0.101651	-0.144104
V6	V	-4.482568	-0.036148	-0.254407
O7	O	-4.260853	-0.084413	-0.302264
O8	O	-4.671130	-0.002996	-0.221536
O9	O	-4.281827	0.137524	-0.256251
O10	O	-4.638784	-0.218066	-0.259534
O11	O	-4.588707	0.014242	-0.379696
O12	O	-4.331560	-0.093186	-0.136915
C13	C	-3.828833	-0.269029	-0.263298
C14	C	-3.891593	-0.410646	-0.262574
C15	C	-3.837209	-0.447552	-0.104320
C16	C	-3.839497	-0.532534	-0.024855
C17	C	-3.898472	-0.665595	-0.024179
C18	C	-3.955169	-0.713674	-0.102976
C19	C	-3.952881	-0.628691	-0.182441
C20	C	-3.893895	-0.495630	-0.183108
C21	C	-4.007279	-0.591787	-0.340693
C22	C	-3.948290	-0.458725	-0.341371
C23	C	-4.063976	-0.639866	-0.419490
C24	C	-4.061673	-0.554883	-0.498956
C25	C	-4.002691	-0.421815	-0.499629
C26	C	-3.946001	-0.373743	-0.420835
C27	C	-3.765392	0.025266	-0.415522
C28	C	-3.787818	0.070751	-0.511573
C29	C	-4.136742	-0.332976	-0.889202
C30	C	-4.157812	-0.290194	-0.979452
C31	C	-4.047771	-0.068856	-0.954747
C32	C	-4.026681	-0.111619	-0.864493
C33	C	-4.071172	-0.243680	-0.831728
C34	C	-3.961111	-0.022324	-0.807019
C35	C	-3.940034	-0.065084	-0.716773
C36	C	-3.984526	-0.197140	-0.684001
C37	C	-4.050095	-0.286441	-0.741482
C38	C	-3.916635	0.109736	-0.839786
C39	C	-3.851066	0.199031	-0.782312
C40	C	-3.829973	0.156272	-0.692064
C41	C	-3.874465	0.024216	-0.659292
C42	C	-3.764404	0.245573	-0.634583
C43	C	-3.743326	0.202812	-0.544337
C44	C	-3.853387	-0.018544	-0.569047
C45	C	-4.093090	0.181612	-0.260499
C46	C	-4.009567	0.323231	-0.261229
C47	C	-4.156531	-0.112681	-0.108273
C48	C	-4.113343	-0.158160	-0.012222
H49	H	-3.789126	-0.339207	-0.104861
O50	O	-3.964244	-0.238536	-0.596326
C51	C	-4.100145	-0.196240	-0.563572
H52	H	-4.137866	-0.108335	-0.609752
H53	H	-4.020064	-0.169524	-0.496183
H54	H	-4.252393	-0.276657	-0.558295
O55	O	-3.784269	-0.485611	0.051608
C56	C	-3.731769	-0.349948	0.033977
H57	H	-3.683808	-0.314361	-0.032625
H58	H	-3.594934	-0.308779	0.086548
H59	H	-3.874107	-0.317001	0.033750
H60	H	-3.900340	-0.734789	0.040527
H61	H	-4.000859	-0.352628	-0.564339
H62	H	-4.003212	-0.822021	-0.102419
H63	H	-4.086297	-0.393977	-0.714803
O64	O	-3.937425	0.151336	-0.927451
C65	C	-4.087339	0.222258	-0.954997
H66	H	-4.197154	0.192793	-0.906129
H67	H	-4.183235	0.201810	-1.022099
H68	H	-4.002858	0.329519	-0.959037
H69	H	-4.112008	-0.748213	-0.418935
H70	H	-3.728205	0.353097	-0.661275
O71	O	-3.807528	0.327350	-0.814031
C72	C	-3.595797	0.388321	-0.780309
H73	H	-3.538426	0.327166	-0.716909
H74	H	-3.583664	0.487183	-0.766852
H75	H	-3.494092	0.399919	-0.829894
O76	O	-3.679876	0.289663	-0.488593
C77	C	-3.824659	0.363330	-0.507284
H78	H	-3.913311	0.361554	-0.577714
H79	H	-3.736105	0.466960	-0.498123
H80	H	-3.941632	0.321050	-0.461130
O81	O	-4.116720	-0.601799	-0.575410
C82	C	-4.169337	-0.737466	-0.557775
H83	H	-4.090738	-0.769941	-0.488183
H84	H	-4.112085	-0.773880	-0.605759
H85	H	-4.347731	-0.778281	-0.565122
H86	H	-3.897942	-0.265399	-0.421375
H87	H	-4.211200	-0.362919	-1.026246
H88	H	-3.889589	-0.126081	-0.542367
H89	H	-4.011559	0.038668	-0.981437
H90	H	-4.172944	-0.440512	-0.862523
