data_functionalizedCrystal
_audit_creation_method	'MofGen! by Chris Wilmer'
_symmetry_space_group_name_H-M	'P1'
_symmetry_Int_Tables_number	1
_symmetry_cell_setting	triclinic
loop_
_symmetry_equiv_pos_as_xyz
  x,y,z
_cell_length_a	9.065215
_cell_length_b	14.044220
_cell_length_c	7.540329
_cell_angle_alpha	89.995368
_cell_angle_beta	90.002218
_cell_angle_gamma	90.898179
loop_
_atom_site_label
_atom_site_type_symbol
_atom_site_fract_x
_atom_site_fract_y
_atom_site_fract_z
O1	O	-1.975819	0.139128	-0.147459
O2	O	-1.642486	0.472462	0.185874
O3	O	-1.309153	0.805795	0.519208
O4	O	-1.547799	0.150544	-0.147469
O5	O	-1.214466	0.483878	0.185864
O6	O	-0.881132	0.817211	0.519197
O7	O	-1.755385	0.006797	-0.147447
O8	O	-1.422051	0.340130	0.185887
O9	O	-1.088718	0.673463	0.519220
O10	O	-1.768234	0.282876	-0.147482
O11	O	-1.434900	0.616209	0.185852
O12	O	-1.101567	0.949543	0.519185
O13	O	-1.755371	0.006795	0.147518
O14	O	-1.422037	0.340128	0.480852
O15	O	-1.088704	0.673461	0.814185
O16	O	-1.547785	0.150542	0.147496
O17	O	-1.214452	0.483876	0.480829
O18	O	-0.881119	0.817209	0.814162
O19	O	-1.975805	0.139127	0.147506
O20	O	-1.642472	0.472460	0.480839
O21	O	-1.309139	0.805793	0.814173
Cu22	Cu	-1.761794	0.144834	0.174434
Cu23	Cu	-1.428461	0.478168	0.507767
Cu24	Cu	-1.095127	0.811501	0.841100
Cu25	Cu	-1.761810	0.144836	-0.174397
Cu26	Cu	-1.428477	0.478170	0.158936
Cu27	Cu	-1.095144	0.811503	0.492270
O28	O	-1.768220	0.282874	0.147483
O29	O	-1.434887	0.616207	0.480817
O30	O	-1.101553	0.949541	0.814150
C31	C	-1.492684	0.149447	0.000012
C32	C	-1.159351	0.482780	0.333345
C33	C	-0.826017	0.816113	0.666679
C34	C	-1.328477	0.146168	0.000009
C35	C	-0.995144	0.479501	0.333342
C36	C	-0.661811	0.812835	0.666675
C37	C	-1.749753	-0.028567	0.000036
C38	C	-1.416420	0.304766	0.333370
C39	C	-1.083087	0.638100	0.666703
C40	C	-1.732976	-0.133937	0.000038
C41	C	-1.399643	0.199397	0.333371
C42	C	-1.066310	0.532730	0.666705
C43	C	-1.702304	-0.326861	0.000012
C44	C	-1.368971	0.006472	0.333345
C45	C	-1.035638	0.339805	0.666678
C46	C	-1.821294	-0.383474	0.000009
C47	C	-1.487960	-0.050140	0.333343
C48	C	-1.154627	0.283193	0.666676
C49	C	-1.804227	-0.490823	-0.000005
C50	C	-1.470894	-0.157490	0.333328
C51	C	-1.137561	0.175843	0.666661
C52	C	-1.719368	-0.219501	0.000026
C53	C	-1.386035	0.113832	0.333360
C54	C	-1.052702	0.447165	0.666693
C55	C	-1.030921	0.140224	0.000020
C56	C	-0.697587	0.473557	0.333353
C57	C	-0.364254	0.806891	0.666686
C58	C	-1.195127	0.143502	0.000008
C59	C	-0.861794	0.476836	0.333341
C60	C	-0.528460	0.810169	0.666675
C61	C	-1.773851	0.318238	-0.000004
C62	C	-1.440518	0.651571	0.333330
C63	C	-1.107185	0.984904	0.666663
C64	C	-1.790628	0.423608	-0.000017
C65	C	-1.457295	0.756941	0.333316
C66	C	-1.123962	1.090274	0.666650
N67	N	-1.761793	0.144832	0.419782
N68	N	-1.428460	0.478166	0.753115
N69	N	-1.095127	0.811499	1.086449
N70	N	-1.761822	0.144831	-0.419745
N71	N	-1.428488	0.478164	-0.086412
N72	N	-1.095155	0.811498	0.246921
H73	H	-1.935980	-0.351319	-0.000107
H74	H	-1.602647	-0.017985	0.333226
H75	H	-1.269314	0.315348	0.666560
F76	F	-1.552409	-0.368887	-0.000001
F77	F	-1.219076	-0.035554	0.333332
F78	F	-0.885743	0.297779	0.666666
