data_functionalizedCrystal
_audit_creation_method	'MofGen! by Chris Wilmer'
_symmetry_space_group_name_H-M	'P1'
_symmetry_Int_Tables_number	1
_symmetry_cell_setting	triclinic
loop_
_symmetry_equiv_pos_as_xyz
  x,y,z
_cell_length_a	14.971486
_cell_length_b	10.654550
_cell_length_c	13.448316
_cell_angle_alpha	89.994587
_cell_angle_beta	89.998199
_cell_angle_gamma	84.049516
loop_
_atom_site_label
_atom_site_type_symbol
_atom_site_fract_x
_atom_site_fract_y
_atom_site_fract_z
O1	O	1.187838	0.163659	-0.082575
O2	O	0.927544	0.183258	-0.082602
O3	O	1.063676	-0.009345	-0.082584
O4	O	1.051707	0.356262	-0.082593
O5	O	1.063659	-0.009357	0.082800
O6	O	0.927527	0.183246	0.082782
O7	O	1.187821	0.163647	0.082809
Cu8	Cu	1.057672	0.173445	0.097896
Cu9	Cu	1.057693	0.173460	-0.097689
O10	O	1.051689	0.356250	0.082791
C11	C	0.894206	0.182375	0.000087
C12	C	0.794895	0.179749	0.000077
C13	C	1.062788	-0.056139	0.000107
C14	C	1.060159	-0.195555	0.000103
C15	C	0.738285	0.292898	0.000075
C16	C	0.644972	0.290422	0.000090
C17	C	0.608271	0.174797	0.000099
C18	C	0.664888	0.061639	0.000104
C19	C	0.758199	0.064116	0.000096
C20	C	0.470397	0.056485	0.000117
C21	C	0.377080	0.054007	0.000123
C22	C	0.357171	0.282791	0.000112
C23	C	0.450482	0.285268	0.000104
C24	C	0.507092	0.172110	0.000106
C25	C	1.140311	-0.275900	0.000114
C26	C	1.137835	-0.406894	0.000107
C27	C	0.975048	-0.377185	0.000081
C28	C	0.977525	-0.246193	0.000082
C29	C	1.234295	-0.293054	0.000133
C30	C	1.231819	-0.424048	0.000126
C31	C	1.221159	0.164530	0.000118
C32	C	1.320470	0.167156	0.000122
C33	C	1.052577	0.403044	0.000098
C34	C	1.055206	0.542460	0.000096
N35	N	1.057664	0.173435	0.235461
N36	N	1.057708	0.173460	-0.235253
C37	C	1.117962	0.088185	0.287509
C38	C	1.117968	0.088184	0.391612
C39	C	1.057679	0.173440	0.443665
C40	C	0.997375	0.258693	0.391610
C41	C	0.997365	0.258687	0.287509
C42	C	0.997400	0.258702	0.608590
C43	C	0.997410	0.258710	0.712698
C44	C	1.118002	0.088199	0.712694
C45	C	1.117993	0.088193	0.608592
C46	C	1.057689	0.173448	0.556544
H47	H	0.768160	0.387053	0.000067
H48	H	0.948291	0.328122	0.566216
C49	C	0.885309	-0.432097	-0.000142
C50	C	0.836830	-0.391284	-0.085248
C51	C	0.754162	-0.441855	-0.085495
H52	H	0.852154	-0.404571	0.057458
H53	H	0.895274	-0.521624	-0.000198
H54	H	0.826861	-0.301777	-0.085184
H55	H	0.869957	-0.418809	-0.142863
H56	H	0.764128	-0.531381	-0.085550
H57	H	0.721016	-0.414324	-0.027890
H58	H	0.721262	-0.414180	-0.143242
H59	H	0.480361	0.379420	0.000087
C60	C	1.283300	-0.254657	-0.092227
C61	C	1.310801	-0.362128	-0.148724
C62	C	1.355934	-0.326803	-0.233818
H63	H	1.334385	-0.214463	-0.073125
H64	H	1.244164	-0.197998	-0.130740
H65	H	1.349935	-0.418765	-0.110219
H66	H	1.259733	-0.402335	-0.167852
H67	H	1.316798	-0.270144	-0.272330
H68	H	1.407015	-0.286608	-0.214706
H69	H	1.374592	-0.399714	-0.272166
H70	H	1.167103	0.018781	0.755077
H71	H	0.347201	-0.040145	0.000132
H72	H	0.634998	-0.032505	0.000125
H73	H	0.948282	0.328106	0.433998
H74	H	0.948264	0.328104	0.245132
H75	H	1.264215	-0.257753	0.071546
C76	C	0.295862	0.405788	0.000067
C77	C	0.347975	0.507577	0.000025
C78	C	0.291526	0.620895	-0.000034
H79	H	0.259033	0.409757	0.057729
H80	H	0.259056	0.409648	-0.057624
H81	H	0.384766	0.503718	0.057711
H82	H	0.384802	0.503649	-0.057633
H83	H	0.254719	0.624755	-0.057725
H84	H	0.254700	0.624851	0.057629
H85	H	0.326876	0.689972	-0.000071
H86	H	0.912257	-0.180779	0.000059
H87	H	0.598884	0.382560	0.000088
C88	C	1.279013	-0.480008	0.092502
C89	C	1.310356	-0.383280	0.149014
C90	C	1.353821	-0.434779	0.234120
H91	H	1.328239	-0.538506	0.073415
H92	H	1.237999	-0.522043	0.130999
H93	H	1.351367	-0.341265	0.110524
H94	H	1.261148	-0.324774	0.168127
H95	H	1.312808	-0.476814	0.272617
H96	H	1.403043	-0.493277	0.215023
H97	H	1.375086	-0.369156	0.272478
C98	C	0.931800	0.351106	0.769170
C99	C	0.843784	0.330484	0.743889
C100	C	0.783318	0.415558	0.795904
H101	H	0.941889	0.435008	0.752151
H102	H	0.940389	0.338883	0.838631
H103	H	0.835198	0.342717	0.674444
H104	H	0.833665	0.246598	0.760911
H105	H	0.791907	0.403335	0.865365
H106	H	0.793416	0.499454	0.778881
H107	H	0.723592	0.401569	0.778766
C108	C	1.183460	-0.004521	0.231179
C109	C	1.236250	-0.079202	0.299047
C110	C	1.296587	-0.164633	0.247196
H111	H	1.221053	0.040591	0.190554
H112	H	1.150981	-0.056946	0.190601
H113	H	1.268727	-0.026784	0.339608
H114	H	1.198682	-0.124341	0.339674
H115	H	1.264108	-0.217058	0.206619
H116	H	1.334174	-0.119511	0.206573
H117	H	1.332407	-0.215322	0.293237
H118	H	0.804290	-0.028022	0.000096
C119	C	0.531970	-0.066274	-0.000038
C120	C	0.586132	-0.071507	-0.085117
C121	C	0.642872	-0.184561	-0.085294
H122	H	0.496863	-0.135598	-0.000087
H123	H	0.568841	-0.070079	0.057601
H124	H	0.549265	-0.067715	-0.142742
H125	H	0.621257	-0.002210	-0.085087
H126	H	0.679743	-0.188365	-0.027654
H127	H	0.607758	-0.253875	-0.085340
H128	H	0.679634	-0.188121	-0.143014
C129	C	1.183298	-0.004515	0.448168
C130	C	1.135196	-0.081539	0.507927
C131	C	1.195351	-0.166964	0.560026
H132	H	1.220834	0.040603	0.488849
H133	H	1.219190	-0.055354	0.402284
H134	H	1.099319	-0.030707	0.553806
H135	H	1.097663	-0.126685	0.467270
H136	H	1.231243	-0.217803	0.514142
H137	H	1.232884	-0.121836	0.600702
H138	H	1.162722	-0.219242	0.600572
H139	H	1.260230	-0.469991	-0.071279
H140	H	1.167089	0.018778	0.566211
