data_functionalizedCrystal
_audit_creation_method	'MofGen! by Chris Wilmer'
_symmetry_space_group_name_H-M	'P1'
_symmetry_Int_Tables_number	1
_symmetry_cell_setting	triclinic
loop_
_symmetry_equiv_pos_as_xyz
  x,y,z
_cell_length_a	18.215407
_cell_length_b	29.839131
_cell_length_c	18.215399
_cell_angle_alpha	89.969127
_cell_angle_beta	89.980167
_cell_angle_gamma	90.041868
loop_
_atom_site_label
_atom_site_type_symbol
_atom_site_fract_x
_atom_site_fract_y
_atom_site_fract_z
Zn1	Zn	1.124987	-0.178853	-0.416101
Zn2	Zn	1.624987	0.321147	0.083899
Zn3	Zn	1.124860	-0.253982	-0.293028
Zn4	Zn	1.624860	0.246018	0.206972
Zn5	Zn	1.001920	-0.178867	-0.293048
Zn6	Zn	1.501920	0.321133	0.206952
Zn7	Zn	1.001850	-0.253957	-0.416053
Zn8	Zn	1.501850	0.246043	0.083947
O9	O	1.063404	-0.216415	-0.354558
O10	O	1.563404	0.283585	0.145442
O11	O	1.227955	-0.188823	-0.399787
O12	O	1.727955	0.311177	0.100213
O13	O	1.108528	-0.244034	-0.190047
O14	O	1.608528	0.255966	0.309953
O15	O	1.018327	-0.115998	-0.309400
O16	O	1.518327	0.384002	0.190600
O17	O	1.227861	-0.244020	-0.309366
O18	O	1.727861	0.255980	0.190634
O19	O	1.108745	-0.115987	-0.399806
O20	O	1.608745	0.384013	0.100194
O21	O	1.018204	-0.188848	-0.190061
O22	O	1.518204	0.311152	0.309939
O23	O	0.898926	-0.188824	-0.309354
O24	O	1.398926	0.311176	0.190646
O25	O	1.018209	-0.243978	-0.519044
O26	O	1.518209	0.256022	-0.019044
O27	O	0.898875	-0.243992	-0.399725
O28	O	1.398875	0.256008	0.100275
O29	O	1.108677	-0.188799	-0.519079
O30	O	1.608677	0.311201	-0.019079
O31	O	1.108460	-0.316846	-0.309320
O32	O	1.608460	0.183154	0.190680
O33	O	1.018086	-0.316827	-0.399705
O34	O	1.518086	0.183173	0.100295
C35	C	0.872198	-0.216407	-0.354537
C36	C	1.372198	0.283593	0.145463
C37	C	0.790399	-0.216414	-0.354545
C38	C	1.290399	0.283586	0.145455
C39	C	0.602198	-0.245186	-0.401542
C40	C	1.102198	0.254814	0.098458
C41	C	0.525339	-0.245187	-0.401551
C42	C	1.025339	0.254813	0.098449
C43	C	0.525363	-0.187652	-0.307589
C44	C	1.025363	0.312348	0.192411
C45	C	0.602220	-0.187648	-0.307584
C46	C	1.102220	0.312352	0.192416
C47	C	0.640636	-0.216418	-0.354560
C48	C	1.140636	0.283582	0.145440
C49	C	0.486920	-0.216423	-0.354574
C50	C	0.986920	0.283577	0.145426
C51	C	0.403586	-0.216424	-0.354583
C52	C	0.903586	0.283576	0.145417
C53	C	0.723975	-0.216416	-0.354551
C54	C	1.223975	0.283584	0.145449
C55	C	1.063272	-0.333137	-0.354521
C56	C	1.563272	0.166863	0.145479
C57	C	1.063282	-0.383072	-0.354530
C58	C	1.563282	0.116928	0.145470
C59	C	1.110548	-0.692712	-0.307563
C60	C	1.610548	-0.192712	0.192437
C61	C	1.110639	-0.880385	-0.307591
C62	C	1.610639	-0.380385	0.192409
O63	O	1.150721	-0.904647	-0.267629
O64	O	1.650721	-0.404647	0.232371
N65	N	1.063557	-0.903857	-0.354613
N66	N	1.563557	-0.403857	0.145387
C67	C	1.016452	-0.880407	-0.401635
C68	C	1.516452	-0.380407	0.098365
O69	O	0.976414	-0.904678	-0.441636
O70	O	1.476414	-0.404678	0.058364
C71	C	1.016366	-0.692735	-0.401609
C72	C	1.516366	-0.192735	0.098391
C73	C	1.063446	-0.669266	-0.354579
C74	C	1.563446	-0.169266	0.145421
C75	C	1.157625	-0.669243	-0.260536
C76	C	1.657625	-0.169243	0.239464
C77	C	1.157599	-0.622327	-0.260527
C78	C	1.657599	-0.122327	0.239473
C79	C	1.110496	-0.598881	-0.307544
C80	C	1.610496	-0.098881	0.192456
C81	C	1.063420	-0.622350	-0.354570
C82	C	1.563420	-0.122350	0.145430
C83	C	0.969265	-0.669287	-0.448634
C84	C	1.469265	-0.169287	0.051366
C85	C	0.969249	-0.622365	-0.448625
C86	C	1.469249	-0.122365	0.051375
C87	C	1.016329	-0.598896	-0.401595
C88	C	1.516329	-0.098896	0.098405
C89	C	1.016291	-0.551989	-0.401577
C90	C	1.516291	-0.051989	0.098423
N91	N	1.063373	-0.528517	-0.354554
N92	N	1.563373	-0.028517	0.145446
C93	C	1.110476	-0.551963	-0.307538
C94	C	1.610476	-0.051963	0.192462
C95	C	1.016500	-0.978938	-0.401644
C96	C	1.516500	-0.478938	0.098356
C97	C	1.016521	-1.025856	-0.401649
C98	C	1.516521	-0.525856	0.098351
C99	C	1.110709	-1.025830	-0.307606
C100	C	1.610709	-0.525830	0.192394
C101	C	1.110684	-0.978911	-0.307598
C102	C	1.610684	-0.478911	0.192402
C103	C	1.063582	-0.955466	-0.354622
C104	C	1.563582	-0.455466	0.145378
C105	C	1.110417	-0.453437	-0.307521
C106	C	1.610417	0.046563	0.192479
C107	C	1.110385	-0.406518	-0.307514
C108	C	1.610385	0.093482	0.192486
C109	C	1.016200	-0.406547	-0.401559
C110	C	1.516200	0.093453	0.098441
C111	C	1.016229	-0.453463	-0.401564
C112	C	1.516229	0.046537	0.098436
C113	C	1.063344	-0.476907	-0.354543
C114	C	1.563344	0.023093	0.145457
O115	O	0.976236	-0.527698	-0.441523
O116	O	1.476236	-0.027698	0.058477
O117	O	1.150520	-0.527685	-0.267554
O118	O	1.650520	-0.027685	0.232446
C119	C	1.110574	-0.739627	-0.307572
C120	C	1.610574	-0.239627	0.192428
C121	C	1.063498	-0.763097	-0.354598
C122	C	1.563498	-0.263097	0.145402
C123	C	1.016395	-0.739651	-0.401615
C124	C	1.516395	-0.239651	0.098385
C125	C	1.063518	-0.810015	-0.354604
C126	C	1.563518	-0.310015	0.145396
C127	C	1.110621	-0.833461	-0.307587
C128	C	1.610621	-0.333461	0.192413
C129	C	1.157703	-0.809989	-0.260565
C130	C	1.657703	-0.309989	0.239435
C131	C	1.157677	-0.763074	-0.260555
C132	C	1.657677	-0.263074	0.239445
C133	C	0.969313	-0.763122	-0.448637
C134	C	1.469313	-0.263122	0.051363
C135	C	0.969342	-0.810038	-0.448642
C136	C	1.469342	-0.310038	0.051358
C137	C	1.016445	-0.833484	-0.401625
C138	C	1.516445	-0.333484	0.098375
C139	C	1.255357	-0.216423	-0.354579
C140	C	1.755357	0.283577	0.145421
C141	C	1.337156	-0.216426	-0.354589
C142	C	1.837156	0.283574	0.145411
C143	C	1.063449	-0.216384	-0.546511
C144	C	1.563449	0.283616	-0.046511
C145	C	1.063468	-0.216370	-0.628310
C146	C	1.563468	0.283630	-0.128310
C147	C	1.063558	-0.099236	-0.354610
C148	C	1.563558	0.400764	0.145390
C149	C	1.063623	-0.049302	-0.354633
C150	C	1.563623	0.450698	0.145367
C151	C	1.110592	-0.187612	-0.816523
C152	C	1.610592	0.312388	-0.316523
C153	C	1.110601	-0.187599	-0.893382
C154	C	1.610601	0.312401	-0.393382
C155	C	1.016397	-0.245059	-0.893334
C156	C	1.516397	0.254941	-0.393334
C157	C	1.016385	-0.245070	-0.816477
C158	C	1.516385	0.254930	-0.316477
C159	C	1.063487	-0.216347	-0.778073
C160	C	1.563487	0.283653	-0.278073
C161	C	1.063507	-0.216323	-0.931789
C162	C	1.563507	0.283677	-0.431789
C163	C	1.063517	-0.216309	-1.015123
C164	C	1.563517	0.283691	-0.515123
C165	C	1.063477	-0.216360	-0.694734
C166	C	1.563477	0.283640	-0.194734
C167	C	1.063402	-0.216413	-0.163351
C168	C	1.563402	0.283587	0.336649
C169	C	1.063526	-0.216300	-0.081553
C170	C	1.563526	0.283700	0.418447
H171	H	0.633517	-0.164220	-0.269325
H172	H	1.133517	0.335780	0.230675
H173	H	1.148723	-0.387411	-0.269213
H174	H	1.648723	0.112589	0.230787
N175	N	1.208512	-0.835283	-0.209860
N176	N	1.708512	-0.335283	0.290140
H177	H	1.238338	-0.813300	-0.180065
H178	H	1.738338	-0.313300	0.319935
H179	H	1.178585	-0.854784	-0.175781
H180	H	1.678585	-0.354784	0.324219
N181	N	0.483924	-0.156636	-0.256909
N182	N	0.983924	0.343364	0.243091
H183	H	0.452060	-0.135840	-0.286868
H184	H	0.952060	0.364160	0.213132
H185	H	0.452053	-0.174911	-0.222771
H186	H	0.952053	0.325089	0.277229
H187	H	1.148958	-0.164199	-0.924684
H188	H	1.648958	0.335801	-0.424684
N189	N	0.918499	-0.737841	-0.499346
N190	N	1.418499	-0.237841	0.000654
H191	H	0.884401	-0.718410	-0.469401
H192	H	1.384401	-0.218410	0.030599
H193	H	0.948419	-0.718366	-0.533472
H194	H	1.448419	-0.218366	-0.033472
H195	H	0.494047	-0.268612	-0.439810
H196	H	0.994047	0.231388	0.060190
H197	H	0.978143	-0.959852	-0.439938
H198	H	1.478143	-0.459852	0.060062
N199	N	0.965594	-0.276031	-0.934767
N200	N	1.465594	0.223969	-0.434767
H201	H	0.995476	-0.296847	-0.966654
H202	H	1.495476	0.203153	-0.466654
H203	H	0.935752	-0.294206	-0.898706
H204	H	1.435752	0.205794	-0.398706
H205	H	0.978177	-1.044960	-0.439939
H206	H	1.478177	-0.544960	0.060061
H207	H	1.148784	-0.472520	-0.269233
H208	H	1.648784	0.027480	0.230767
N209	N	1.161466	-0.953598	-0.256880
N210	N	1.661466	-0.453598	0.243120
H211	H	1.150071	-0.961790	-0.204288
H212	H	1.650071	-0.461790	0.295712
H213	H	1.214023	-0.961740	-0.268424
H214	H	1.714023	-0.461740	0.231576
N215	N	0.918552	-0.835344	-0.499368
N216	N	1.418552	-0.335344	0.000632
H217	H	0.929952	-0.827147	-0.551957
H218	H	1.429952	-0.327147	-0.051957
H219	H	0.925731	-0.868618	-0.492186
H220	H	1.425731	-0.368618	0.007814
H221	H	0.978021	-0.268469	-0.785170
H222	H	1.478021	0.231531	-0.285170
N223	N	1.208389	-0.597017	-0.209812
N224	N	1.708389	-0.097017	0.290188
H225	H	1.238232	-0.618995	-0.180037
H226	H	1.738232	-0.118995	0.319963
H227	H	1.242419	-0.577522	-0.239805
H228	H	1.742419	-0.077522	0.260195
H229	H	0.633474	-0.268610	-0.439794
H230	H	1.133474	0.231390	0.060206
N231	N	0.965444	-0.478780	-0.452280
N232	N	1.465444	0.021220	0.047720
H233	H	0.935599	-0.456805	-0.482061
H234	H	1.435599	0.043195	0.017939
H235	H	0.995393	-0.498210	-0.486371
H236	H	1.495393	0.001790	0.013629
H237	H	0.930924	-0.688387	-0.486928
H238	H	1.430924	-0.188387	0.013072
N239	N	1.208433	-0.694526	-0.209822
N240	N	1.708433	-0.194526	0.290178
H241	H	1.238248	-0.672533	-0.180036
H242	H	1.738248	-0.172533	0.319964
H243	H	1.178506	-0.714022	-0.175736
H244	H	1.678506	-0.214022	0.324264
H245	H	0.930894	-0.603279	-0.486920
H246	H	1.430894	-0.103279	0.013080
N247	N	1.161511	-1.051123	-0.256892
N248	N	1.661511	-0.551123	0.243108
H249	H	1.154376	-1.084405	-0.264037
H250	H	1.654376	-0.584405	0.235963
H251	H	1.214060	-1.042887	-0.268398
H252	H	1.714060	-0.542887	0.231602
N253	N	0.965393	-0.381255	-0.452263
N254	N	1.465393	0.118745	0.047737
H255	H	0.972527	-0.347972	-0.445118
H256	H	1.472527	0.152028	0.054882
H257	H	0.976822	-0.389425	-0.504836
H258	H	1.476822	0.110575	-0.004836
N259	N	1.208460	-0.737764	-0.209834
N260	N	1.708460	-0.237764	0.290166
H261	H	1.238301	-0.759742	-0.180057
H262	H	1.738301	-0.259742	0.319943
H263	H	1.242493	-0.718266	-0.239820
H264	H	1.742493	-0.218266	0.260180
H265	H	1.148944	-0.164223	-0.785257
H266	H	1.648944	0.335777	-0.285257
