data_functionalizedCrystal
_audit_creation_method	'MofGen! by Chris Wilmer'
_symmetry_space_group_name_H-M	'P1'
_symmetry_Int_Tables_number	1
_symmetry_cell_setting	triclinic
loop_
_symmetry_equiv_pos_as_xyz
  x,y,z
_cell_length_a	14.560432
_cell_length_b	27.440280
_cell_length_c	27.440280
_cell_angle_alpha	90.008003
_cell_angle_beta	60.007499
_cell_angle_gamma	59.997824
loop_
_atom_site_label
_atom_site_type_symbol
_atom_site_fract_x
_atom_site_fract_y
_atom_site_fract_z
Zr1	Zr	1.005157	0.469499	-0.063878
O2	O	1.196758	0.391679	-0.141695
O3	O	0.813556	0.493356	-0.040025
O4	O	1.005135	0.493354	-0.141685
O5	O	1.005197	0.391682	0.040158
O6	O	1.005117	0.573557	-0.141675
O7	O	1.005180	0.391681	-0.040035
O8	O	0.662418	0.573560	0.040177
O9	O	1.347896	0.391679	-0.141694
O10	O	0.892351	0.563384	-0.029842
O11	O	0.892378	0.503531	0.029998
O12	O	1.117937	0.503529	-0.089694
O13	O	1.117963	0.443675	-0.029854
Zr14	Zr	1.005157	0.597415	0.064037
Zr15	Zr	1.005129	0.597413	-0.063862
Zr16	Zr	1.005185	0.469501	0.064021
Zr17	Zr	1.246205	0.469499	-0.063875
Zr18	Zr	0.764110	0.597416	0.064034
O19	O	1.196758	0.573559	0.040184
O20	O	1.196718	0.573556	-0.141673
O21	O	1.196798	0.391682	0.040161
O22	O	0.813556	0.675236	0.141854
O23	O	0.813516	0.675233	-0.040002
O24	O	0.813597	0.493358	0.141831
O25	O	1.005117	0.675233	-0.040000
O26	O	1.005180	0.573561	0.141844
O27	O	1.005197	0.493358	0.141834
O28	O	1.005135	0.675234	0.040194
O29	O	1.347873	0.493353	-0.141681
O30	O	0.662441	0.573561	0.141840
O31	O	0.662418	0.675236	0.141852
O32	O	0.662396	0.675234	0.040190
O33	O	1.347918	0.391680	-0.040031
O34	O	1.347896	0.493355	-0.040018
O35	O	0.892378	0.563386	0.089853
O36	O	0.892351	0.623239	0.030013
O37	O	1.117937	0.563384	-0.029839
O38	O	1.117963	0.503530	0.030001
C39	C	0.703643	0.533458	0.000076
C40	C	0.601312	0.533458	0.000074
C41	C	0.601278	0.595940	-0.062405
C42	C	0.553190	0.627178	-0.093646
C43	C	0.457041	0.627176	-0.093644
C44	C	0.408975	0.595934	-0.062398
C45	C	0.457063	0.564696	-0.031157
C46	C	0.553217	0.564700	-0.031163
C47	C	0.457090	0.502219	0.031325
C48	C	0.553246	0.502216	0.031321
C49	C	0.409024	0.470977	0.062571
C50	C	0.457119	0.439735	0.093809
C51	C	0.553275	0.439737	0.093806
C52	C	0.601335	0.470978	0.062561
C53	C	1.005192	0.373456	0.000059
C54	C	1.005204	0.319153	0.000053
C55	C	0.887383	0.013699	0.031338
C56	C	0.887375	-0.037319	0.031343
O57	O	0.787231	-0.037135	0.057932
N58	N	1.005127	-0.094080	0.000101
C59	C	1.122894	-0.099821	-0.031145
O60	O	1.223050	-0.152785	-0.057718
C61	C	1.122900	-0.048803	-0.031146
C62	C	1.005140	0.007957	0.000094
C63	C	0.769633	0.070457	0.062576
C64	C	0.769640	0.121472	0.062570
C65	C	0.887398	0.115729	0.031325
C66	C	1.005148	0.058972	0.000088
C67	C	1.240665	-0.054546	-0.062387
C68	C	1.240661	-0.003521	-0.062386
C69	C	1.122901	0.053239	-0.031146
C70	C	1.122913	0.104244	-0.031163
N71	N	1.005161	0.161004	0.000080
C72	C	0.887404	0.166747	0.031324
C73	C	1.122873	-0.206960	-0.031138
C74	C	1.122868	-0.257977	-0.031141
C75	C	0.887349	-0.195471	0.031348
C76	C	0.887355	-0.144453	0.031347
C77	C	1.005121	-0.150199	0.000104
C78	C	0.887429	0.273879	0.031308
C79	C	0.887447	0.324896	0.031297
C80	C	1.122965	0.262386	-0.031189
C81	C	1.122948	0.211374	-0.031181
C82	C	1.005169	0.217124	0.000072
O83	O	1.223007	0.104106	-0.057736
O84	O	0.787264	0.219713	0.057899
C85	C	1.306671	0.533457	0.000083
C86	C	1.409002	0.533457	0.000084
C87	C	1.005122	0.533455	-0.159903
C88	C	1.005110	0.533454	-0.214200
C89	C	1.005122	0.693458	0.000099
C90	C	1.005110	0.747761	0.000106
C91	C	1.122932	0.502219	-0.582176
C92	C	1.122939	0.502220	-0.633198
O93	O	1.223083	0.475667	-0.686156
N94	N	1.005187	0.533463	-0.627473
C95	C	0.887420	0.564711	-0.570722
O96	O	0.787264	0.591286	-0.570537
C97	C	0.887415	0.564713	-0.519701
C98	C	1.005174	0.533463	-0.525430
C99	C	1.240682	0.470972	-0.587903
C100	C	1.240674	0.470969	-0.536884
C101	C	1.122916	0.502214	-0.480138
C102	C	1.005166	0.533460	-0.474411
C103	C	0.769649	0.595964	-0.462950
C104	C	0.769654	0.595963	-0.411928
C105	C	0.887413	0.564713	-0.417658
C106	C	0.887401	0.564702	-0.366647
N107	N	1.005153	0.533459	-0.372371
C108	C	1.122911	0.502215	-0.429117
C109	C	0.887442	0.564707	-0.677872
C110	C	0.887446	0.564702	-0.728891
C111	C	1.122965	0.502212	-0.791364
C112	C	1.122959	0.502213	-0.740343
C113	C	1.005193	0.533464	-0.683596
C114	C	1.122886	0.502212	-0.321972
C115	C	1.122867	0.502210	-0.270945
C116	C	0.887349	0.564702	-0.208477
C117	C	0.887367	0.564702	-0.259498
C118	C	1.005145	0.533455	-0.316247
O119	O	0.787308	0.591244	-0.313670
O120	O	1.223050	0.475651	-0.429291
C121	C	1.005192	0.533460	0.160062
C122	C	1.005204	0.533460	0.214358
C123	C	0.703608	0.693459	0.000096
C124	C	0.601265	0.747762	0.000101
C125	C	0.703679	0.533460	0.160058
C126	C	0.601360	0.533461	0.214353
C127	C	0.703643	0.693461	0.160078
C128	C	0.601312	0.747765	0.214380
C129	C	1.306671	0.373453	-0.159919
C130	C	1.409002	0.319150	-0.214221
C131	C	1.306706	0.373456	0.000063
C132	C	1.409049	0.319153	0.000058
C133	C	1.306636	0.533455	-0.159899
C134	C	1.408955	0.533454	-0.214194
C135	C	0.553204	0.742019	-0.031145
C136	C	0.457055	0.793038	-0.031152
C137	C	0.408962	0.849798	0.000092
C138	C	0.457033	0.855540	0.031339
C139	C	0.553187	0.804522	0.031342
C140	C	0.553310	0.564705	0.271100
C141	C	0.457183	0.564704	0.322121
C142	C	0.409102	0.533461	0.316394
C143	C	0.457162	0.502213	0.259641
C144	C	0.553293	0.502211	0.208622
C145	C	0.553243	0.804515	0.208645
C146	C	0.457105	0.855544	0.259663
C147	C	0.409032	0.849822	0.316415
C148	C	0.457111	0.793066	0.322149
C149	C	0.553254	0.742038	0.271132
C150	C	1.457083	0.262400	-0.208486
C151	C	1.553251	0.211371	-0.259504
C152	C	1.601328	0.217093	-0.316256
C153	C	1.553243	0.273849	-0.321990
C154	C	1.457084	0.324876	-0.270973
C155	C	1.457121	0.324895	0.031299
C156	C	1.553296	0.273877	0.031291
C157	C	1.601392	0.217116	0.000046
C158	C	1.553316	0.211375	-0.031199
C159	C	1.457149	0.262393	-0.031195
C160	C	1.457005	0.564702	-0.208448
C161	C	1.553132	0.564713	-0.259460
C162	C	1.601213	0.533471	-0.316217
C163	C	1.553153	0.502222	-0.321961
C164	C	1.457022	0.502215	-0.270951
H165	H	0.592331	0.652616	-0.119085
Cl166	Cl	0.396701	0.462941	0.252452
Cl167	Cl	1.270915	-0.329328	-0.070424
Cl168	Cl	1.396720	0.255163	-0.070469
Cl169	Cl	0.396571	0.666454	-0.132911
H170	H	1.218850	0.476770	-0.837578
Cl171	Cl	1.396642	0.396217	-0.278193
Cl172	Cl	0.722170	0.595936	-0.062419
H173	H	1.218840	0.257720	-0.056630
H174	H	0.330674	0.595942	-0.062393
Cl175	Cl	0.739378	0.603989	-0.606533
H176	H	1.218766	0.476760	-0.275617
H177	H	1.417969	0.371108	0.056746
H178	H	1.417910	0.476766	-0.275637
Cl179	Cl	0.396675	0.400472	0.133094
Cl180	Cl	0.288144	0.470977	0.062578
Cl181	Cl	0.613664	0.670697	0.278352
Cl182	Cl	0.613586	0.811752	0.070632
Cl183	Cl	0.621595	0.635257	-0.340590
H184	H	1.218778	-0.211647	-0.056582
H185	H	1.679490	0.533482	-0.357748
Cl186	Cl	0.288164	0.913978	0.380546
Cl187	Cl	1.613693	0.281032	-0.393340
H188	H	0.679630	0.470980	0.062553
H189	H	0.592422	0.414300	0.119247
Cl190	Cl	1.613538	0.603997	-0.252224
H191	H	0.592446	0.590147	0.275774
H192	H	1.592316	0.476786	-0.368179
Cl193	Cl	0.739395	0.396251	0.070572
H194	H	1.417944	0.257729	-0.162281
Cl195	Cl	0.396677	0.926887	0.252441
H196	H	1.679697	0.175579	0.000048
Cl197	Cl	0.739362	0.281118	0.070596
Cl198	Cl	0.621591	0.192822	0.101850
Cl199	Cl	1.613788	0.140014	-0.070473
Cl200	Cl	0.621574	0.077691	0.101861
Cl201	Cl	0.739309	-0.073102	0.070623
H202	H	1.592423	0.278563	0.056737
Cl203	Cl	0.613679	0.462933	0.137285
H204	H	0.417956	0.788416	0.368363
Cl205	Cl	1.388723	0.431672	-0.544097
Cl206	Cl	0.739319	0.603978	-0.137132
Cl207	Cl	1.270952	0.462929	-0.393306
H208	H	0.791464	-0.190803	0.056787
Cl209	Cl	1.396579	0.603984	-0.137103
Cl210	Cl	0.396781	0.603993	0.393460
Cl211	Cl	1.613676	0.140028	-0.252282
Cl212	Cl	0.288248	0.533471	0.380540
Cl213	Cl	0.739399	0.603979	-0.721680
H214	H	1.336558	-0.100754	-0.087826
H215	H	1.336562	-0.008207	-0.087820
H216	H	1.218837	0.165156	-0.056627
Cl217	Cl	1.388741	0.431687	-0.659237
H218	H	1.679627	0.175538	-0.357793
Cl219	Cl	1.271005	0.462930	-0.747553
H220	H	0.673757	0.621412	-0.458273
H221	H	0.791477	0.590140	-0.254832
Cl222	Cl	0.613648	0.670669	-0.070431
H223	H	0.417927	0.788351	-0.056597
Cl224	Cl	0.396555	0.926901	0.070617
Cl225	Cl	0.288079	0.913930	0.000083
H226	H	0.592369	0.809185	0.162439
