data_functionalizedCrystal
_audit_creation_method	'MofGen! by Chris Wilmer'
_symmetry_space_group_name_H-M	'P1'
_symmetry_Int_Tables_number	1
_symmetry_cell_setting	triclinic
loop_
_symmetry_equiv_pos_as_xyz
  x,y,z
_cell_length_a	16.109301
_cell_length_b	9.065218
_cell_length_c	8.140239
_cell_angle_alpha	89.997198
_cell_angle_beta	90.004940
_cell_angle_gamma	95.761317
loop_
_atom_site_label
_atom_site_type_symbol
_atom_site_fract_x
_atom_site_fract_y
_atom_site_fract_z
O1	O	0.121905	-1.957448	0.136624
O2	O	0.455238	-1.624115	0.469957
O3	O	0.788572	-1.290782	0.803291
O4	O	0.131904	-1.527922	0.136627
O5	O	0.465238	-1.194588	0.469960
O6	O	0.798571	-0.861255	0.803293
O7	O	0.005964	-1.754484	0.136608
O8	O	0.339298	-1.421151	0.469942
O9	O	0.672631	-1.087818	0.803275
O10	O	0.247845	-1.730885	0.136642
O11	O	0.581178	-1.397552	0.469975
O12	O	0.914512	-1.064219	0.803309
O13	O	0.005963	-1.754472	-0.136619
O14	O	0.339296	-1.421139	0.196715
O15	O	0.672629	-1.087805	0.530048
O16	O	0.131903	-1.527909	-0.136600
O17	O	0.465236	-1.194576	0.196733
O18	O	0.798569	-0.861242	0.530066
O19	O	0.121904	-1.957436	-0.136603
O20	O	0.455237	-1.624103	0.196730
O21	O	0.788570	-1.290769	0.530063
Zn22	Zn	0.126903	-1.742671	-0.179982
Zn23	Zn	0.460236	-1.409337	0.153351
Zn24	Zn	0.793570	-1.076004	0.486684
Zn25	Zn	0.126905	-1.742687	0.180006
Zn26	Zn	0.460238	-1.409354	0.513339
Zn27	Zn	0.793572	-1.076020	0.846673
O28	O	0.247843	-1.730873	-0.136585
O29	O	0.581177	-1.397540	0.196748
O30	O	0.914510	-1.064206	0.530082
C31	C	-0.025019	-1.753522	-0.000006
C32	C	0.308315	-1.420189	0.333327
C33	C	0.641648	-1.086856	0.666661
C34	C	-0.117336	-1.750656	-0.000008
C35	C	0.215997	-1.417323	0.333325
C36	C	0.549331	-1.083990	0.666658
C37	C	0.130943	-1.472952	0.000013
C38	C	0.464276	-1.139619	0.333347
C39	C	0.797609	-0.806285	0.666680
C40	C	0.128069	-1.309179	0.000014
C41	C	0.461402	-0.975845	0.333347
C42	C	0.794736	-0.642512	0.666681
C43	C	0.122865	-2.012405	0.000014
C44	C	0.456199	-1.679072	0.333347
C45	C	0.789532	-1.345739	0.666680
C46	C	0.125739	-2.176179	0.000024
C47	C	0.459072	-1.842846	0.333357
C48	C	0.792405	-1.509512	0.666691
C49	C	-0.338627	-1.878430	0.000017
C50	C	-0.005293	-1.545097	0.333350
C51	C	0.328040	-1.211764	0.666684
C52	C	-0.425368	-1.875726	0.000031
C53	C	-0.092035	-1.542393	0.333364
C54	C	0.241299	-1.209059	0.666697
C55	C	-0.407559	-1.606917	0.000026
C56	C	-0.074225	-1.273584	0.333359
C57	C	0.259108	-0.940250	0.666693
C58	C	-0.320819	-1.609623	0.000024
C59	C	0.012514	-1.276289	0.333357
C60	C	0.345847	-0.942956	0.666691
C61	C	-0.286356	-1.745384	0.000011
C62	C	0.046978	-1.412051	0.333345
C63	C	0.380311	-1.078717	0.666678
C64	C	-0.459836	-1.739974	0.000027
C65	C	-0.126503	-1.406640	0.333360
C66	C	0.206830	-1.073307	0.666693
C67	C	-0.553885	-1.737040	0.000041
C68	C	-0.220552	-1.403707	0.333375
C69	C	0.112782	-1.070374	0.666708
C70	C	-0.192301	-1.748318	-0.000000
C71	C	0.141032	-1.414985	0.333333
C72	C	0.474365	-1.081651	0.666666
C73	C	0.278826	-1.731835	0.000033
C74	C	0.612160	-1.398502	0.333366
C75	C	0.945493	-1.065168	0.666700
C76	C	0.371144	-1.734701	0.000046
C77	C	0.704477	-1.401368	0.333379
C78	C	1.037810	-1.068034	0.666713
N79	N	0.126901	-1.742670	-0.425665
N80	N	0.460234	-1.409337	-0.092332
N81	N	0.793568	-1.076003	0.241002
N82	N	0.126900	-1.742699	0.425689
N83	N	0.460234	-1.409366	0.759022
N84	N	0.793567	-1.076032	1.092355
H85	H	-0.310570	-1.988976	0.000010
H86	H	0.022764	-1.655642	0.333343
H87	H	0.356097	-1.322309	0.666677
H88	H	-0.435630	-1.496385	0.000033
H89	H	-0.102296	-1.163051	0.333366
H90	H	0.231037	-0.829718	0.666700
H91	H	-0.278258	-1.501274	0.000024
H92	H	0.055076	-1.167940	0.333358
H93	H	0.388409	-0.834607	0.666691
H94	H	-0.467924	-1.984066	0.000039
H95	H	-0.134591	-1.650733	0.333372
H96	H	0.198743	-1.317399	0.666705
