data_functionalizedCrystal
_audit_creation_method	'MofGen! by Chris Wilmer'
_symmetry_space_group_name_H-M	'P1'
_symmetry_Int_Tables_number	1
_symmetry_cell_setting	triclinic
loop_
_symmetry_equiv_pos_as_xyz
  x,y,z
_cell_length_a	17.917603
_cell_length_b	20.875641
_cell_length_c	20.875620
_cell_angle_alpha	92.968530
_cell_angle_beta	64.873979
_cell_angle_gamma	54.527918
loop_
_atom_site_label
_atom_site_type_symbol
_atom_site_fract_x
_atom_site_fract_y
_atom_site_fract_z
Zr1	Zr	0.826007	-0.086063	0.647078
O2	O	0.992169	-0.204536	0.546806
O3	O	0.666515	-0.045556	0.673725
O4	O	0.835008	-0.191249	0.674966
O5	O	0.814249	0.051318	0.549240
O6	O	0.834521	-0.185532	0.780716
O7	O	0.823676	-0.058843	0.545565
O8	O	0.533117	0.075086	0.778495
O9	O	1.115654	-0.209300	0.551461
O10	O	0.729282	-0.029074	0.768953
O11	O	0.722611	0.048872	0.692776
O12	O	0.920990	-0.122663	0.694238
O13	O	0.914319	-0.044717	0.618061
Zr14	Zr	0.810196	0.098750	0.821598
Zr15	Zr	0.825230	-0.076944	0.815736
Zr16	Zr	0.810973	0.089632	0.652940
Zr17	Zr	1.022950	-0.093660	0.654502
Zr18	Zr	0.613253	0.106348	0.814175
O19	O	0.969689	0.058244	0.794951
O20	O	0.991065	-0.191571	0.786616
O21	O	0.970793	0.045279	0.555141
O22	O	0.644034	0.217224	0.921870
O23	O	0.665410	-0.032591	0.913535
O24	O	0.645138	0.204258	0.682060
O25	O	0.821954	-0.038630	0.919436
O26	O	0.801195	0.203937	0.793710
O27	O	0.801682	0.198220	0.687961
O28	O	0.812528	0.071531	0.923111
O29	O	1.115036	-0.202052	0.685522
O30	O	0.521167	0.214739	0.783155
O31	O	0.520550	0.221987	0.917215
O32	O	0.532499	0.082334	0.912556
O33	O	1.103704	-0.069646	0.556120
O34	O	1.103086	-0.062398	0.690181
O35	O	0.715213	0.135350	0.774439
O36	O	0.721884	0.057405	0.850615
O37	O	0.913592	-0.036184	0.775900
O38	O	0.906921	0.041762	0.699724
C39	C	0.571755	0.015847	0.725052
C40	C	0.488148	0.019072	0.721901
C41	C	0.819073	-0.005062	0.523373
C42	C	0.819403	-0.008933	0.451773
C43	C	0.799296	0.226111	0.741671
C44	C	0.792914	0.300698	0.744159
C45	C	0.335074	0.024962	0.716143
C46	C	0.301124	-0.012272	0.752532
C47	C	0.215949	-0.008995	0.749328
C48	C	0.420257	0.021686	0.719346
C49	C	1.064448	-0.003159	0.743624
C50	C	1.148055	-0.006384	0.746775
C51	C	0.836907	-0.213423	0.727006
C52	C	0.843289	-0.288010	0.724517
C53	C	0.889983	0.286889	0.706329
C54	C	0.883979	0.356974	0.708664
C55	C	0.780906	0.440868	0.748833
C56	C	0.683830	0.454676	0.786664
C57	C	0.689835	0.384591	0.784325
C58	C	0.752218	0.655713	0.760009
C59	C	0.746220	0.725799	0.762347
C60	C	0.946370	0.628092	0.684345
C61	C	0.952366	0.558011	0.682013
C62	C	0.855290	0.571824	0.719840
N63	N	0.774767	0.512507	0.751223
N64	N	0.861430	0.500185	0.717446
C65	C	0.821840	-0.037250	0.048515
C66	C	0.821532	-0.033613	0.115790
C67	C	0.816177	0.028901	0.151455
C68	C	0.811140	0.087775	0.119838
C69	C	0.811456	0.084133	0.052561
C70	C	0.814682	0.046299	0.352879
C71	C	0.814363	0.049938	0.420161
C72	C	0.824757	-0.071451	0.416108
C73	C	0.825066	-0.075084	0.348832
C74	C	0.820035	-0.016213	0.317219
N75	N	0.815858	0.032623	0.220222
N76	N	0.820362	-0.019939	0.248450
C77	C	0.817130	0.017750	0.945304
C78	C	0.816800	0.021621	1.016904
C79	C	0.570784	0.027253	0.936018
C80	C	0.486847	0.034349	1.004466
C81	C	0.552950	0.235614	0.732385
C82	C	0.462960	0.313426	0.731722
C83	C	0.551979	0.247020	0.943350
C84	C	0.461659	0.328703	1.014287
C85	C	1.084224	-0.234332	0.525326
C86	C	1.174544	-0.316015	0.454389
C87	C	1.065419	-0.014565	0.532658
C88	C	1.149356	-0.021661	0.464210
C89	C	1.083253	-0.222926	0.736292
C90	C	1.173243	-0.300738	0.736955
C91	C	0.451291	-0.007467	0.993983
C92	C	0.372435	-0.000816	1.058291
C93	C	0.329131	0.047656	1.133081
C94	C	0.364694	0.089473	1.143563
C95	C	0.443554	0.082817	1.079256
C96	C	0.416838	0.395116	0.774038
C97	C	0.332293	0.468235	0.773412
C98	C	0.293867	0.459663	0.730475
C99	C	0.339998	0.377964	0.688154
C100	C	0.424547	0.304847	0.688776
C101	C	0.422727	0.326376	1.087370
C102	C	0.337873	0.403120	1.154030
C103	C	0.291949	0.482189	1.147604
C104	C	0.330889	0.484514	1.074513
C105	C	0.415746	0.407771	1.007856
C106	C	1.213486	-0.313689	0.381306
C107	C	1.298364	-0.390433	0.314648
C108	C	1.344293	-0.469503	0.321074
C109	C	1.305347	-0.471827	0.394164
C110	C	1.220476	-0.395084	0.460821
C111	C	1.184921	0.020147	0.474693
C112	C	1.263800	0.013476	0.410386
C113	C	1.307107	-0.034998	0.335595
C114	C	1.271540	-0.076812	0.325113
C115	C	1.192668	-0.070146	0.389420
C116	C	1.211641	-0.292138	0.779900
C117	C	1.296185	-0.365243	0.780538
C118	C	1.342335	-0.446948	0.738226
C119	C	1.303928	-0.455546	0.695279
C120	C	1.219380	-0.382441	0.694646
H121	H	0.336028	-0.046611	0.786091
O122	O	1.354885	-0.557111	0.401092
H123	H	1.342842	-0.592052	0.370705
H124	H	0.264918	0.053069	1.185438
O125	O	0.295920	0.400594	1.232856
H126	H	0.229220	0.467236	1.278135
O127	O	1.177966	-0.391721	0.648325
H128	H	1.190694	-0.364890	0.604355
O129	O	0.498002	-0.059759	0.913320
H130	H	0.460031	-0.087724	0.916847
H131	H	0.460106	0.262001	1.092617
H132	H	0.472492	0.116874	1.087803
H133	H	0.300174	0.059297	0.682585
O134	O	0.647520	0.670615	0.800856
H135	H	0.574842	0.740727	0.829204
O136	O	0.457721	0.410293	0.929032
H137	H	0.524448	0.343651	0.883754
O138	O	0.988680	0.342074	0.667856
H139	H	0.990530	0.374031	0.710614
H140	H	0.806786	0.138672	0.148878
O141	O	0.808581	0.117369	0.458636
H142	H	0.883003	0.085404	0.460237
O143	O	0.827623	-0.104679	0.010045
H144	H	0.831089	-0.145011	0.043326
O145	O	1.302138	0.058588	0.421704
H146	H	1.283145	0.105045	0.394032
H147	H	1.371329	-0.040419	0.283239
H148	H	0.973916	0.218582	0.673622
O149	O	0.458278	0.404372	0.820348
H150	H	0.412001	0.473465	0.849656
H151	H	1.327446	-0.358226	0.815509
H152	H	1.036299	0.489704	0.649304
O153	O	1.163963	-0.228412	0.374366
H154	H	1.205323	-0.239701	0.312344
O155	O	1.340342	-0.387916	0.235819
H156	H	1.294123	-0.320039	0.242555
O157	O	0.572654	0.545161	0.830044
H158	H	0.584784	0.591578	0.825342
H159	H	1.025404	0.616855	0.653547
O160	O	1.318257	-0.129090	0.244442
H161	H	1.280288	-0.157052	0.247946
H162	H	0.662281	0.794112	0.795057
O163	O	0.585141	0.399480	0.825143
H164	H	0.512458	0.469590	0.853481
H165	H	0.825637	-0.081550	0.141527
O166	O	0.830858	-0.142517	0.310358
H167	H	0.834324	-0.182850	0.343637
H168	H	0.222853	0.544672	1.201887
H169	H	1.413399	-0.531986	0.266791
H170	H	0.828855	-0.119382	0.441853
O171	O	0.809216	0.109811	0.318800
H172	H	0.805415	0.153902	0.354914
O173	O	1.353673	-0.543664	0.649659
H174	H	1.390363	-0.555612	0.587451
H175	H	0.807354	0.132071	0.026823
H176	H	0.343490	-0.034869	1.049741
H177	H	0.329424	0.128938	1.204466
O178	O	0.282529	0.556348	0.819074
H179	H	0.323440	0.550019	0.849047
H180	H	0.225022	0.519207	0.729976
H181	H	1.149665	0.059625	0.535586
O182	O	1.154301	-0.115232	0.378110
H183	H	1.197663	-0.150049	0.315298
H184	H	0.308699	0.370997	0.653196
O185	O	0.474143	0.216750	0.643254
H186	H	0.433153	0.223087	0.613344
H187	H	0.293485	0.548903	1.069293
O188	O	1.178462	-0.397597	0.539647
H189	H	1.224654	-0.465474	0.532908
H190	H	1.174079	-0.225617	0.814355
O191	O	1.433539	-0.525796	0.738901
H192	H	1.452491	-0.506081	0.775866
