data_functionalizedCrystal
_audit_creation_method	'MofGen! by Chris Wilmer'
_symmetry_space_group_name_H-M	'P1'
_symmetry_Int_Tables_number	1
_symmetry_cell_setting	triclinic
loop_
_symmetry_equiv_pos_as_xyz
  x,y,z
_cell_length_a	12.837943
_cell_length_b	15.995350
_cell_length_c	11.892095
_cell_angle_alpha	93.891441
_cell_angle_beta	85.689438
_cell_angle_gamma	89.160657
loop_
_atom_site_label
_atom_site_type_symbol
_atom_site_fract_x
_atom_site_fract_y
_atom_site_fract_z
O1	O	1.382080	0.212847	-0.093972
O2	O	1.882080	0.712847	0.406028
O3	O	1.080275	0.202094	-0.093979
O4	O	1.580275	0.702094	0.406021
O5	O	1.239427	0.086241	-0.093975
O6	O	1.739427	0.586241	0.406025
O7	O	1.222927	0.328700	-0.093977
O8	O	1.722927	0.828700	0.406023
O9	O	1.226157	0.095884	0.094032
O10	O	1.726157	0.595884	0.594032
O11	O	1.067005	0.211737	0.094028
O12	O	1.567005	0.711737	0.594028
O13	O	1.368810	0.222490	0.094035
O14	O	1.868810	0.722490	0.594035
Zn15	Zn	1.215800	0.218644	0.123881
Zn16	Zn	1.715800	0.718644	0.623881
Zn17	Zn	1.233284	0.205939	-0.123826
Zn18	Zn	1.733284	0.705939	0.376174
O19	O	1.209657	0.338343	0.094030
O20	O	1.709657	0.838343	0.594030
C21	C	1.035019	0.203283	0.000023
C22	C	1.535019	0.703283	0.500023
C23	C	0.919942	0.192449	0.000020
C24	C	1.419942	0.692449	0.500020
C25	C	1.232110	0.059813	0.000027
C26	C	1.732110	0.559813	0.500027
C27	C	1.230066	-0.033301	0.000020
C28	C	1.730066	0.466699	0.500020
C29	C	0.678983	0.322688	0.000035
C30	C	1.178983	0.822688	0.500035
C31	C	0.570857	0.312513	0.000033
C32	C	1.070857	0.812513	0.500033
C33	C	0.595563	0.161925	0.000023
C34	C	1.095563	0.661925	0.500023
C35	C	0.703688	0.172100	0.000025
C36	C	1.203688	0.672100	0.500025
C37	C	0.745394	0.252484	0.000029
C38	C	1.245394	0.752484	0.500029
C39	C	0.853523	0.262658	0.000023
C40	C	1.353523	0.762658	0.500023
C41	C	0.878225	0.112072	0.000020
C42	C	1.378225	0.612072	0.500020
C43	C	0.770100	0.101896	0.000018
C44	C	1.270100	0.601896	0.500018
C45	C	1.222721	-0.371634	0.000024
C46	C	1.722721	0.128366	0.500024
C47	C	1.109405	-0.333265	-0.000400
C48	C	1.609405	0.166735	0.499600
C49	C	1.111421	-0.236390	0.000023
C50	C	1.611421	0.263610	0.500023
C51	C	1.226364	-0.203783	0.000021
C52	C	1.726364	0.296217	0.500021
C53	C	1.274693	-0.234893	0.107382
C54	C	1.774693	0.265107	0.607382
C55	C	1.271839	-0.331752	0.107472
C56	C	1.771839	0.168248	0.607472
C57	C	1.289271	-0.342889	-0.106327
C58	C	1.789271	0.157111	0.393673
C59	C	1.289344	-0.246018	-0.107746
C60	C	1.789344	0.253982	0.392254
C61	C	1.228429	-0.108921	0.000024
C62	C	1.728429	0.391079	0.500024
C63	C	1.220659	-0.466496	0.000029
C64	C	1.720659	0.033504	0.500029
C65	C	1.414066	0.221301	0.000030
C66	C	1.914066	0.721301	0.500030
C67	C	1.529143	0.232134	0.000025
C68	C	2.029143	0.732134	0.500025
C69	C	1.216974	0.364770	0.000026
C70	C	1.716974	0.864770	0.500026
C71	C	1.219020	0.457884	0.000025
C72	C	1.719020	0.957884	0.500025
N73	N	1.203876	0.227315	0.292935
N74	N	1.703876	0.727315	0.792935
N75	N	1.245217	0.197262	-0.292880
N76	N	1.745217	0.697262	0.207120
C77	C	1.328193	0.136877	0.529587
C78	C	1.828193	0.636877	1.029587
C79	C	1.319865	0.142945	0.647928
C80	C	1.819865	0.642945	1.147928
C81	C	1.178889	0.245514	0.647962
C82	C	1.678889	0.745514	1.147962
C83	C	1.187216	0.239446	0.529621
C84	C	1.687216	0.739446	1.029621
C85	C	1.261872	0.185127	0.470437
C86	C	1.761872	0.685127	0.970437
C87	C	1.270204	0.179064	0.352093
C88	C	1.770204	0.679064	0.852093
C89	C	1.129223	0.281628	0.352129
C90	C	1.629223	0.781628	0.852129
C91	C	1.120896	0.287696	0.470471
C92	C	1.620896	0.787696	0.970471
H93	H	0.887477	0.328111	0.000028
H94	H	1.387477	0.828111	0.500028
H95	H	1.254075	-0.226105	-0.187169
H96	H	1.754075	0.273895	0.312831
H97	H	1.373869	0.103654	0.696085
H98	H	1.873869	0.603654	1.196085
H99	H	1.060110	0.331919	0.518672
H100	H	1.560110	0.831919	1.018672
H101	H	0.516788	0.369680	0.000041
H102	H	1.016788	0.869680	0.500041
Cl103	Cl	1.404636	-0.202367	0.113551
Cl104	Cl	1.904636	0.297633	0.613551
Cl105	Cl	0.731419	0.423738	0.000025
Cl106	Cl	1.231419	0.923738	0.500025
Cl107	Cl	0.717658	0.000848	0.000016
Cl108	Cl	1.217658	0.500848	0.500016
H109	H	1.069536	-0.359360	-0.077391
H110	H	1.569536	0.140640	0.422609
Cl111	Cl	1.045851	0.342293	0.277759
Cl112	Cl	1.545851	0.842293	0.777759
Cl113	Cl	1.364058	0.110780	0.277693
Cl114	Cl	1.864058	0.610780	0.777693
Cl115	Cl	0.543112	0.060880	0.000032
Cl116	Cl	1.043112	0.560880	0.500032
H117	H	1.072907	-0.215422	-0.076937
H118	H	1.572907	0.284578	0.423063
Cl119	Cl	0.961722	0.023809	-0.000005
Cl120	Cl	1.461722	0.523809	0.499995
H121	H	1.058900	-0.352531	0.076159
H122	H	1.558900	0.147469	0.576159
H123	H	1.230224	-0.205512	0.187277
H124	H	1.730224	0.294488	0.687277
H125	H	1.061738	-0.208101	0.077113
H126	H	1.561738	0.291899	0.577113
Cl127	Cl	1.200147	-0.358678	0.231375
Cl128	Cl	1.700147	0.141322	0.731375
Cl129	Cl	1.085031	0.313787	0.722376
Cl130	Cl	1.585031	0.813787	1.222376
H131	H	1.354712	-0.357110	0.112342
H132	H	1.854712	0.142890	0.612342
H133	H	1.257956	-0.370559	-0.187700
H134	H	1.757956	0.129441	0.312300
H135	H	1.373623	-0.224301	-0.114230
H136	H	1.873623	0.275699	0.385770
H137	H	1.372891	-0.368019	-0.107050
H138	H	1.872891	0.131981	0.392950
H139	H	1.388987	0.092654	0.481399
H140	H	1.888987	0.592654	0.981399
