data_functionalizedCrystal
_audit_creation_method	'MofGen! by Chris Wilmer'
_symmetry_space_group_name_H-M	'P1'
_symmetry_Int_Tables_number	1
_symmetry_cell_setting	triclinic
loop_
_symmetry_equiv_pos_as_xyz
  x,y,z
_cell_length_a	6.817900
_cell_length_b	11.168129
_cell_length_c	12.908943
_cell_angle_alpha	94.437574
_cell_angle_beta	100.860631
_cell_angle_gamma	108.508637
loop_
_atom_site_label
_atom_site_type_symbol
_atom_site_fract_x
_atom_site_fract_y
_atom_site_fract_z
V1	V	-4.021586	-0.173129	-0.328691
O2	O	-3.982853	0.009941	-0.322425
O3	O	-3.998476	-0.344845	-0.326452
O4	O	-3.959368	-0.169754	-0.472040
O5	O	-4.022231	-0.166362	-0.175829
V6	V	-4.503727	-0.151315	-0.310406
O7	O	-4.285875	-0.220978	-0.368800
O8	O	-4.689636	-0.103466	-0.270297
O9	O	-4.303631	0.020401	-0.312645
O10	O	-4.659857	-0.334385	-0.316673
O11	O	-4.620479	-0.158082	-0.463269
O12	O	-4.342738	-0.154690	-0.167057
C13	C	-3.850076	-0.386728	-0.321269
C14	C	-3.912376	-0.527103	-0.320394
C15	C	-3.907983	-0.572991	-0.228259
C16	C	-3.972372	-0.718076	-0.227353
C17	C	-3.800189	-0.163380	-0.506980
C18	C	-3.830770	-0.161757	-0.624169
C19	C	-4.253332	-0.171238	-0.855116
C20	C	-4.282075	-0.169714	-0.965226
C21	C	-3.916998	-0.157175	-0.954499
C22	C	-3.888255	-0.158700	-0.844389
C23	C	-4.056431	-0.165733	-0.794702
C24	C	-4.027689	-0.167266	-0.684592
C25	C	-3.662611	-0.154719	-0.673866
C26	C	-3.691354	-0.153194	-0.783976
C27	C	-4.115374	0.062277	-0.317825
C28	C	-4.032312	0.202651	-0.318707
C29	C	-4.165261	-0.161068	-0.132112
C30	C	-4.113917	-0.162684	-0.014922
H31	H	-3.963812	-0.595228	-0.398603
C32	C	-3.734520	-0.149336	-1.008575
C33	C	-3.687798	-0.039034	-1.057276
C34	C	-3.519733	-0.031778	-1.107115
H35	H	-3.612952	-0.146202	-0.956939
H36	H	-3.773799	-0.222367	-1.061003
H37	H	-3.648509	0.033978	-1.004853
H38	H	-3.809317	-0.042143	-1.108927
H39	H	-3.559011	-0.104809	-1.159543
H40	H	-3.398179	-0.028648	-1.055472
H41	H	-3.488023	0.043054	-1.140172
C42	C	-3.449038	-0.149043	-0.608220
C43	C	-3.474621	-0.258659	-0.558950
C44	C	-3.277945	-0.253518	-0.498482
H45	H	-3.352914	-0.144731	-0.653507
H46	H	-3.394411	-0.075514	-0.555318
H47	H	-3.529218	-0.332169	-0.611845
H48	H	-3.570709	-0.262994	-0.513645
H49	H	-3.223318	-0.179989	-0.445580
H50	H	-3.181836	-0.249202	-0.543777
H51	H	-3.295279	-0.327884	-0.465038
C52	C	-4.037577	-0.744610	-0.423879
C53	C	-4.178265	-0.675965	-0.434887
C54	C	-4.183190	-0.627370	-0.531764
H55	H	-3.899464	-0.689696	-0.424904
H56	H	-4.083641	-0.813137	-0.481109
H57	H	-4.132192	-0.607447	-0.377672
H58	H	-4.316398	-0.730852	-0.433882
H59	H	-4.229253	-0.695897	-0.588994
H60	H	-4.045070	-0.572461	-0.532780
H61	H	-4.278659	-0.580799	-0.539250
H62	H	-3.856565	-0.504867	-0.150050
H63	H	-4.164631	-0.172999	-0.644139
H64	H	-3.968705	-0.757602	-0.148470
H65	H	-4.390274	-0.176979	-0.814662
H66	H	-4.442408	-0.174197	-1.014411
H67	H	-3.554436	-0.147463	-0.824446
