data_functionalizedCrystal
_audit_creation_method	'MofGen! by Chris Wilmer'
_symmetry_space_group_name_H-M	'P1'
_symmetry_Int_Tables_number	1
_symmetry_cell_setting	triclinic
loop_
_symmetry_equiv_pos_as_xyz
  x,y,z
_cell_length_a	11.169416
_cell_length_b	21.295420
_cell_length_c	11.169409
_cell_angle_alpha	90.023325
_cell_angle_beta	90.031365
_cell_angle_gamma	90.008400
loop_
_atom_site_label
_atom_site_type_symbol
_atom_site_fract_x
_atom_site_fract_y
_atom_site_fract_z
Zn1	Zn	-0.477766	0.962436	0.678663
Zn2	Zn	-0.678506	0.962378	0.477983
Zn3	Zn	-0.477830	0.857162	0.477985
Zn4	Zn	-0.678400	0.857166	0.678616
O5	O	-0.578125	0.909785	0.578312
O6	O	-0.504413	1.050518	0.652061
O7	O	-0.651958	0.948395	0.310034
O8	O	-0.309872	0.871149	0.504626
O9	O	-0.651896	1.050475	0.504623
O10	O	-0.309825	0.948493	0.652063
O11	O	-0.504522	0.871093	0.310035
O12	O	-0.504418	0.769073	0.504580
O13	O	-0.651714	0.871156	0.846572
O14	O	-0.651776	0.769076	0.651983
O15	O	-0.504309	0.948498	0.846606
O16	O	-0.846442	0.948399	0.504577
O17	O	-0.846363	0.871100	0.651981
C18	C	-0.578093	0.746234	0.578277
C19	C	-0.578108	0.676266	0.578291
C20	C	-0.889950	0.909761	0.578300
C21	C	-1.023350	0.909808	0.578335
C22	C	-0.654996	0.176826	0.654990
C23	C	-0.654996	0.242568	0.654977
C24	C	-0.578153	0.275426	0.578349
C25	C	-0.501325	0.242536	0.501707
C26	C	-0.501335	0.176795	0.501713
N27	N	-0.473070	0.378648	0.569308
N28	N	-0.473063	0.441099	0.569309
C29	C	-0.578119	0.473501	0.578324
N30	N	-0.683183	0.441092	0.587361
N31	N	-0.683188	0.378635	0.587367
C32	C	-0.578133	0.346712	0.578334
C33	C	-0.654949	0.577669	0.654942
C34	C	-0.654951	0.643412	0.654921
C35	C	-0.501269	0.643379	0.501657
C36	C	-0.501277	0.577636	0.501672
C37	C	-0.578115	0.544785	0.578321
C38	C	-0.265083	0.909827	0.578350
C39	C	-0.131683	0.909845	0.578366
C40	C	-0.577992	0.909834	0.891354
C41	C	-0.577935	0.909854	1.024754
C42	C	-0.578159	1.073976	0.578347
C43	C	-0.578173	1.143944	0.578362
C44	C	-0.578172	0.909774	0.266487
C45	C	-0.577890	0.909875	0.133088
H46	H	-0.717568	0.150083	0.717399
H47	H	-0.438715	0.550864	0.439277
C48	C	-0.739501	0.278749	0.739277
C49	C	-0.824020	0.242615	0.823585
C50	C	-0.908523	0.278793	0.907885
C51	C	-0.908508	0.351106	0.907877
C52	C	-0.823986	0.387244	0.823566
C53	C	-0.739483	0.351066	0.739266
H54	H	-0.824034	0.189081	0.823593
H55	H	-0.971092	0.252041	0.970297
H56	H	-0.971062	0.377887	0.970281
H57	H	-0.823972	0.440778	0.823558
H58	H	-0.676915	0.377818	0.676854
C59	C	-0.416822	0.140620	0.417421
C60	C	-0.332299	0.176757	0.333121
C61	C	-0.247784	0.140581	0.248828
C62	C	-0.247792	0.068269	0.248835
C63	C	-0.332318	0.032128	0.333138
C64	C	-0.416833	0.068304	0.417431
H65	H	-0.332290	0.230291	0.333113
H66	H	-0.185213	0.167336	0.186422
H67	H	-0.185230	0.041489	0.186437
H68	H	-0.332327	-0.021406	0.333147
H69	H	-0.479404	0.041549	0.479838
C70	C	-0.416793	0.278678	0.417418
C71	C	-0.322613	0.323886	0.469576
C72	C	-0.238083	0.360027	0.385281
C73	C	-0.247733	0.350960	0.248827
C74	C	-0.341918	0.305750	0.196661
C75	C	-0.426447	0.269609	0.280957
H76	H	-0.315466	0.330600	0.570594
H77	H	-0.168362	0.393495	0.423898
H78	H	-0.185159	0.377714	0.186426
H79	H	-0.349065	0.299036	0.095644
H80	H	-0.496169	0.236141	0.242340
H81	H	-0.717516	0.550920	0.717353
H82	H	-0.438705	0.670131	0.439261
C83	C	-0.739463	0.679584	0.739218
C84	C	-0.875892	0.670533	0.729221
C85	C	-0.960405	0.706705	0.813521
C86	C	-0.908490	0.751928	0.907818
C87	C	-0.772054	0.760982	0.917820
C88	C	-0.687541	0.724810	0.833520
H89	H	-0.914329	0.637054	0.659413
H90	H	-1.061404	0.700003	0.806117
H91	H	-0.971051	0.778705	0.970222
H92	H	-0.733617	0.794461	0.987628
H93	H	-0.586542	0.731512	0.840924
