data_functionalizedCrystal
_audit_creation_method	'MofGen! by Chris Wilmer'
_symmetry_space_group_name_H-M	'P1'
_symmetry_Int_Tables_number	1
_symmetry_cell_setting	triclinic
loop_
_symmetry_equiv_pos_as_xyz
  x,y,z
_cell_length_a	18.101398
_cell_length_b	18.101395
_cell_length_c	12.759393
_cell_angle_alpha	89.963506
_cell_angle_beta	89.984086
_cell_angle_gamma	90.030104
loop_
_atom_site_label
_atom_site_type_symbol
_atom_site_fract_x
_atom_site_fract_y
_atom_site_fract_z
Zn1	Zn	1.132128	-0.294821	-0.593906
Zn2	Zn	1.132019	-0.418683	-0.418211
Zn3	Zn	1.008284	-0.294856	-0.418250
Zn4	Zn	1.008236	-0.418621	-0.593857
O5	O	1.070167	-0.356745	-0.506056
O6	O	1.235746	-0.311263	-0.570604
O7	O	1.115579	-0.402298	-0.271195
O8	O	1.024778	-0.191218	-0.441587
O9	O	1.235666	-0.402264	-0.441522
O10	O	1.115766	-0.191193	-0.570641
O11	O	1.024672	-0.311322	-0.271223
O12	O	0.904644	-0.311262	-0.441540
O13	O	1.024696	-0.402158	-0.740885
O14	O	0.904609	-0.402192	-0.570558
O15	O	1.115719	-0.311203	-0.740920
O16	O	1.115533	-0.522308	-0.441475
O17	O	1.024590	-0.522262	-0.570521
C18	C	0.877756	-0.356725	-0.506049
C19	C	0.795442	-0.356734	-0.506071
C20	C	0.644734	-0.356748	-0.506069
C21	C	0.613383	-0.414047	-0.587118
C22	C	0.527764	-0.414279	-0.586878
C23	C	0.496351	-0.356761	-0.506069
C24	C	0.527401	-0.377598	-0.395211
C25	C	0.613046	-0.378005	-0.395679
C26	C	0.613214	-0.278471	-0.534910
C27	C	0.527564	-0.278900	-0.537352
C28	C	0.412491	-0.356768	-0.506062
C29	C	0.728593	-0.356743	-0.506068
C30	C	1.070065	-0.549156	-0.506012
C31	C	1.070089	-0.631470	-0.506028
C32	C	1.070174	-0.782178	-0.506069
C33	C	1.012926	-0.813535	-0.587199
C34	C	1.013142	-0.899153	-0.587542
C35	C	1.070256	-0.930561	-0.506111
C36	C	1.148332	-0.899378	-0.535888
C37	C	1.147953	-0.813733	-0.536453
C38	C	1.050047	-0.813824	-0.394967
C39	C	1.048372	-0.899476	-0.395583
C40	C	1.070308	-1.014420	-0.506132
C41	C	1.070128	-0.698319	-0.506051
C42	C	1.263328	-0.356766	-0.506064
C43	C	1.345643	-0.356775	-0.506067
C44	C	1.070215	-0.356670	-0.780089
C45	C	1.070235	-0.356638	-0.896866
C46	C	1.070289	-0.163583	-0.506124
C47	C	1.070341	-0.081269	-0.506152
C48	C	1.022920	-0.309258	-0.951749
C49	C	1.022942	-0.309236	-1.061473
C50	C	1.117602	-0.403975	-1.061422
C51	C	1.117575	-0.404001	-0.951700
C52	C	0.968271	-0.254559	-0.951779
C53	C	0.968293	-0.254537	-1.061503
C54	C	1.070161	-0.356767	-0.233089
C55	C	1.070284	-0.356590	-0.116312
H56	H	0.634842	-0.259436	-0.614386
H57	H	0.913801	-0.275065	-1.095529
F58	F	0.995162	-0.183362	-0.907320
H59	H	1.091738	-0.793538	-0.334522
H60	H	1.026528	-0.919584	-0.669868
H61	H	1.192074	-0.792985	-0.479917
F62	F	0.988333	-0.179538	-1.100464
F63	F	0.936993	-0.786702	-0.563162
H64	H	1.156093	-0.442592	-0.907019
F65	F	1.167981	-0.454380	-1.119789
H66	H	0.910896	-0.269916	-0.922002
F67	F	1.205638	-0.925950	-0.461032
F68	F	0.973268	-0.926125	-0.366225
F69	F	0.499322	-0.451557	-0.362801
F70	F	0.500323	-0.397290	-0.694301
F71	F	0.499612	-0.220149	-0.465888
H72	H	0.634005	-0.401199	-0.669559
H73	H	0.634869	-0.471720	-0.568214
H74	H	0.507241	-0.472285	-0.567743
H75	H	0.633491	-0.235784	-0.475884
F76	F	0.639113	-0.452786	-0.363837
H77	H	1.026103	-0.791958	-0.669054
H78	H	0.955254	-0.920241	-0.568930
H79	H	1.164989	-0.793696	-0.617660
F80	F	0.501044	-0.258353	-0.643991
H81	H	0.507054	-0.337144	-0.333164
H82	H	0.633785	-0.338056	-0.333219
H83	H	1.165687	-0.920767	-0.616214
F84	F	0.976865	-0.785688	-0.359459
H85	H	1.087030	-0.920867	-0.331932
