data_functionalizedCrystal
_audit_creation_method	'MofGen! by Chris Wilmer'
_symmetry_space_group_name_H-M	'P1'
_symmetry_Int_Tables_number	1
_symmetry_cell_setting	triclinic
loop_
_symmetry_equiv_pos_as_xyz
  x,y,z
_cell_length_a	12.759401
_cell_length_b	17.640280
_cell_length_c	17.640968
_cell_angle_alpha	65.682561
_cell_angle_beta	78.777456
_cell_angle_gamma	78.800756
loop_
_atom_site_label
_atom_site_type_symbol
_atom_site_fract_x
_atom_site_fract_y
_atom_site_fract_z
Zn1	Zn	1.776501	-0.233858	-0.399677
Zn2	Zn	2.276501	0.266142	0.100323
Zn3	Zn	1.776415	-0.399527	-0.234038
Zn4	Zn	2.276415	0.100473	0.265962
Zn5	Zn	1.571272	-0.261745	-0.261880
Zn6	Zn	2.071272	0.238255	0.238120
Zn7	Zn	1.630333	-0.371623	-0.371819
Zn8	Zn	2.130333	0.128377	0.128181
O9	O	1.688630	-0.316688	-0.316854
O10	O	2.188630	0.183312	0.183146
O11	O	1.923514	-0.255842	-0.377711
O12	O	2.423514	0.244158	0.122289
O13	O	1.724449	-0.404598	-0.122401
O14	O	2.224449	0.095402	0.377599
O15	O	1.573815	-0.142728	-0.303470
O16	O	2.073815	0.357272	0.196530
O17	O	1.923451	-0.377558	-0.256017
O18	O	2.423451	0.122442	0.243983
O19	O	1.724596	-0.122240	-0.404708
O20	O	2.224596	0.377760	0.095292
O21	O	1.573732	-0.303370	-0.142857
O22	O	2.073732	0.196630	0.357143
O23	O	1.432082	-0.276313	-0.276458
O24	O	1.932082	0.223687	0.223542
O25	O	1.674476	-0.330000	-0.490845
O26	O	2.174476	0.170000	0.009155
O27	O	1.475474	-0.357041	-0.357229
O28	O	1.975474	0.142959	0.142771
O29	O	1.781865	-0.228785	-0.511312
O30	O	2.281865	0.271215	-0.011312
O31	O	1.781718	-0.511143	-0.229004
O32	O	2.281718	-0.011143	0.270996
O33	O	1.674392	-0.490642	-0.330232
O34	O	2.174392	0.009358	0.169768
C35	C	1.415657	-0.316676	-0.316842
C36	C	1.915657	0.183324	0.183158
C37	C	1.298886	-0.316686	-0.316853
C38	C	1.798886	0.183314	0.183147
C39	C	1.734487	-0.530790	-0.273592
C40	C	2.234487	-0.030790	0.226408
C41	C	1.754207	-0.622377	-0.255112
C42	C	2.254207	-0.122377	0.244888
C43	C	1.156926	-0.358828	-0.358823
C44	C	1.656926	0.141172	0.141177
C45	C	1.266644	-0.358820	-0.358812
C46	C	1.766644	0.141180	0.141188
C47	C	1.221401	-0.274564	-0.274895
C48	C	1.721401	0.225436	0.225105
C49	C	1.111684	-0.274578	-0.274902
C50	C	1.611684	0.225422	0.225098
C51	C	1.124692	-0.400958	-0.400792
C52	C	1.624692	0.099042	0.099208
C53	C	1.202169	-0.443081	-0.442748
C54	C	1.702169	0.056919	0.057252
C55	C	1.311888	-0.443073	-0.442737
C56	C	1.811888	0.056927	0.057263
C57	C	1.344129	-0.400942	-0.400769
C58	C	1.844129	0.099058	0.099231
C59	C	1.539317	-0.870430	-0.457544
C60	C	2.039317	-0.370430	0.042456
C61	C	1.557843	-0.956496	-0.440153
C62	C	2.057843	-0.456496	0.059847
C63	C	1.669708	-0.977756	-0.334852
C64	C	2.169708	-0.477756	0.165148
C65	C	1.651195	-0.891690	-0.352237
C66	C	2.151195	-0.391690	0.147763
C67	C	1.585998	-0.838033	-0.413583
C68	C	2.085998	-0.338033	0.086417
C69	C	1.697876	-0.859293	-0.308276
C70	C	2.197876	-0.359293	0.191724
C71	C	1.679360	-0.773235	-0.325657
C72	C	2.179360	-0.273235	0.174343
C73	C	1.614164	-0.719573	-0.386999
C74	C	2.114164	-0.219573	0.113001
C75	C	1.567482	-0.751975	-0.430964
C76	C	2.067482	-0.251975	0.069036
C77	C	1.763067	-0.912952	-0.246926
C78	C	2.263067	-0.412952	0.253074
C79	C	1.809748	-0.880555	-0.202965
C80	C	2.309748	-0.380555	0.297035
C81	C	1.791239	-0.794494	-0.220350
C82	C	2.291239	-0.294494	0.279650
C83	C	1.726042	-0.740833	-0.281692
C84	C	2.226042	-0.240833	0.218308
C85	C	1.837920	-0.762093	-0.176384
C86	C	2.337920	-0.262093	0.323616
C87	C	1.819404	-0.676034	-0.193765
C88	C	2.319404	-0.176034	0.306235
C89	C	1.707526	-0.654774	-0.299073
C90	C	2.207526	-0.154774	0.200927
C91	C	1.962670	-0.316702	-0.316866
C92	C	2.462670	0.183298	0.183134
C93	C	2.079450	-0.316707	-0.316871
C94	C	2.579450	0.183293	0.183129
C95	C	1.734768	-0.273169	-0.531818
C96	C	2.234768	0.226831	-0.031818
C97	C	1.754429	-0.254624	-0.623423
C98	C	2.254429	0.245376	-0.123423
C99	C	1.642627	-0.101747	-0.360302
C100	C	2.142627	0.398253	0.139698
C101	C	1.623023	-0.010152	-0.378818
C102	C	2.123023	0.489848	0.121182
C103	C	1.539575	-0.457126	-0.871419
C104	C	2.039575	0.042874	-0.371419
C105	C	1.558069	-0.439689	-0.957498
C106	C	2.058069	0.060311	-0.457498
C107	C	1.669884	-0.334303	-0.978798
C108	C	2.169884	0.165697	-0.478798
C109	C	1.651394	-0.351728	-0.892720
C110	C	2.151394	0.148272	-0.392720
C111	C	1.586240	-0.413141	-0.839036
C112	C	2.086240	0.086859	-0.339036
C113	C	1.698060	-0.307742	-0.860337
C114	C	2.198060	0.192258	-0.360337
C115	C	1.679576	-0.325169	-0.774265
C116	C	2.179576	0.174831	-0.274265
C117	C	1.614427	-0.386581	-0.720577
C118	C	2.114427	0.113419	-0.220577
C119	C	1.567757	-0.430567	-0.752965
C120	C	2.067757	0.069433	-0.252965
C121	C	1.763220	-0.246334	-0.914021
C122	C	2.263220	0.253666	-0.414021
C123	C	1.809885	-0.202348	-0.881638
C124	C	2.309885	0.297652	-0.381638
C125	C	1.791396	-0.219771	-0.795566
C126	C	2.291396	0.280229	-0.295566
C127	C	1.726247	-0.281183	-0.741877
C128	C	2.226247	0.218817	-0.241877
C129	C	1.838067	-0.175784	-0.763178
C130	C	2.338067	0.324216	-0.263178
C131	C	1.819583	-0.193211	-0.677106
C132	C	2.319583	0.306789	-0.177106
C133	C	1.707764	-0.298609	-0.655806
C134	C	2.207764	0.201391	-0.155806
C135	C	1.642720	-0.359979	-0.102737
C136	C	2.142720	0.140021	0.397263
C137	C	1.623213	-0.378292	-0.011180
C138	C	2.123213	0.121708	0.488820
H139	H	1.035356	-0.400967	-0.400808
H140	H	1.535356	0.099033	0.099192
Cl141	Cl	1.786388	-1.021135	-0.225106
Cl142	Cl	2.286388	-0.521135	0.274894
H143	H	1.519840	-0.982867	-0.475966
H144	H	2.019840	-0.482867	0.024034
Cl145	Cl	1.786460	-0.224429	-1.022226
Cl146	Cl	2.286460	0.275571	-0.522226
Cl147	Cl	1.409285	-0.496035	-0.495473
Cl148	Cl	1.909285	0.003965	0.004527
H149	H	1.433472	-0.400945	-0.400758
H150	H	1.933472	0.099055	0.099242
H151	H	1.722788	-1.021455	-0.284901
H152	H	2.222788	-0.521455	0.215099
Cl153	Cl	1.891710	-0.948016	-0.125849
Cl154	Cl	2.391710	-0.448016	0.374151
Cl155	Cl	1.014280	-0.221631	-0.222154
Cl156	Cl	1.514280	0.278369	0.277846
Cl157	Cl	1.261936	-0.221599	-0.222144
Cl158	Cl	1.761936	0.278401	0.277856
H159	H	1.654679	-0.348598	-0.612097
H160	H	2.154679	0.151402	-0.112097
H161	H	1.599384	-0.400772	-0.650491
H162	H	2.099384	0.099228	-0.150491
Cl163	Cl	1.625574	-0.587312	-0.376203
Cl164	Cl	2.125574	-0.087312	0.123797
H165	H	1.599081	-0.649500	-0.401143
H166	H	2.099081	-0.149500	0.098857
H167	H	1.486490	-0.507115	-0.827710
H168	H	1.986490	-0.007115	-0.327710
H169	H	1.514672	-0.480556	-0.709256
H170	H	2.014672	0.019444	-0.209256
Cl171	Cl	1.485530	-0.684512	-0.508095
Cl172	Cl	1.985530	-0.184512	-0.008095
Cl173	Cl	1.919871	-0.829557	-0.099261
Cl174	Cl	2.419871	-0.329557	0.400739
Cl175	Cl	1.878253	-0.137918	-0.636392
Cl176	Cl	2.378253	0.362082	-0.136392
H177	H	1.857416	-0.649657	-0.157967
H178	H	2.357416	-0.149657	0.342033
Cl179	Cl	1.457365	-0.802968	-0.534675
Cl180	Cl	1.957365	-0.302968	-0.034675
Cl181	Cl	1.161637	-0.496055	-0.495492
Cl182	Cl	1.661637	0.003945	0.004508
Cl183	Cl	1.499392	-0.494990	-0.998204
Cl184	Cl	1.999392	0.005010	-0.498204
H185	H	1.722936	-0.284302	-1.022518
H186	H	2.222936	0.215698	-0.522518
Cl187	Cl	1.891794	-0.125148	-0.949132
Cl188	Cl	2.391794	0.374852	-0.449132
H189	H	1.891124	-0.125788	-0.806898
H190	H	2.391124	0.374212	-0.306898
