data_functionalizedCrystal
_audit_creation_method	'MofGen! by Chris Wilmer'
_symmetry_space_group_name_H-M	'P1'
_symmetry_Int_Tables_number	1
_symmetry_cell_setting	triclinic
loop_
_symmetry_equiv_pos_as_xyz
  x,y,z
_cell_length_a	19.805407
_cell_length_b	16.625546
_cell_length_c	19.805399
_cell_angle_alpha	89.972133
_cell_angle_beta	89.982197
_cell_angle_gamma	90.019784
loop_
_atom_site_label
_atom_site_type_symbol
_atom_site_fract_x
_atom_site_fract_y
_atom_site_fract_z
Zn1	Zn	1.034754	-0.321078	-0.382686
Zn2	Zn	1.034677	-0.455915	-0.269498
Zn3	Zn	0.921569	-0.321094	-0.269514
Zn4	Zn	0.921540	-0.455866	-0.382648
O5	O	0.978135	-0.388488	-0.326086
O6	O	1.129460	-0.338978	-0.367681
O7	O	1.019652	-0.438058	-0.174783
O8	O	0.936628	-0.208259	-0.284550
O9	O	1.129404	-0.438043	-0.284521
O10	O	1.019784	-0.208248	-0.367697
O11	O	0.936552	-0.339006	-0.174796
O12	O	0.826848	-0.338958	-0.284513
O13	O	0.936579	-0.437959	-0.477369
O14	O	0.826827	-0.437974	-0.367631
O15	O	1.019756	-0.338931	-0.477398
O16	O	1.019625	-0.568741	-0.284484
O17	O	0.936504	-0.568705	-0.367615
C18	C	0.802279	-0.388463	-0.326070
C19	C	0.727047	-0.388472	-0.326079
C20	C	0.691733	-0.336980	-0.369446
C21	C	0.621045	-0.336984	-0.369449
C22	C	0.585671	-0.388485	-0.326087
C23	C	0.620990	-0.439979	-0.282716
C24	C	0.691677	-0.439970	-0.282710
C25	C	0.335917	-0.440015	-0.282736
C26	C	0.265225	-0.440022	-0.282747
C27	C	0.265284	-0.337030	-0.369475
C28	C	0.335971	-0.337021	-0.369469
C29	C	0.371284	-0.388511	-0.326095
C30	C	0.447932	-0.388505	-0.326092
C31	C	0.509024	-0.388496	-0.326093
C32	C	0.978071	-0.597979	-0.326058
C33	C	0.978105	-0.687600	-0.326069
C34	C	0.978224	-1.015776	-0.326139
C35	C	0.978189	-0.924467	-0.326121
C36	C	0.978164	-0.851691	-0.326104
C37	C	0.978130	-0.760377	-0.326087
C38	C	1.154678	-0.388514	-0.326103
C39	C	1.229910	-0.388525	-0.326111
C40	C	0.978173	-0.388438	-0.502629
C41	C	0.978189	-0.388416	-0.577861
C42	C	0.978218	-0.178179	-0.326130
C43	C	0.978253	-0.088558	-0.326148
C44	C	1.021501	-0.336849	-0.613221
C45	C	1.021508	-0.336826	-0.683910
C46	C	0.978206	-0.388374	-0.719237
C47	C	0.934889	-0.439943	-0.683872
C48	C	0.934880	-0.439961	-0.613185
C49	C	0.934928	-0.439867	-0.968945
C50	C	0.934942	-0.439846	-1.039638
C51	C	1.021556	-0.336732	-1.039670
C52	C	1.021546	-0.336751	-0.968983
C53	C	0.978227	-0.388316	-0.933624
C54	C	0.978219	-0.388340	-0.856976
C55	C	0.978217	-0.388355	-0.795884
C56	C	0.978136	-0.388481	-0.150231
C57	C	0.978251	-0.388275	-0.074999
H58	H	0.236426	-0.481961	-0.247434
H59	H	0.364660	-0.481942	-0.247419
H60	H	1.056778	-0.294837	-0.712697
F61	F	0.729261	-0.494775	-0.236553
F62	F	0.583342	-0.494785	-0.236563
F63	F	1.067658	-0.281848	-1.077307
F64	F	0.888780	-0.494843	-0.575552
F65	F	0.888852	-0.494713	-1.077234
H66	H	1.056764	-0.294876	-0.584463
H67	H	0.899630	-0.481911	-0.712641
F68	F	0.729374	-0.282169	-0.415601
F69	F	0.583464	-0.282182	-0.415607
F70	F	1.067636	-0.281890	-0.931389
H71	H	0.364769	-0.295086	-0.404781
F72	F	0.227696	-0.282226	-0.415636
H73	H	0.899665	-0.481867	-0.940165
