data_functionalizedCrystal
_audit_creation_method	'MofGen! by Chris Wilmer'
_symmetry_space_group_name_H-M	'P1'
_symmetry_Int_Tables_number	1
_symmetry_cell_setting	triclinic
loop_
_symmetry_equiv_pos_as_xyz
  x,y,z
_cell_length_a	18.101398
_cell_length_b	19.120786
_cell_length_c	18.101389
_cell_angle_alpha	92.460644
_cell_angle_beta	90.024327
_cell_angle_gamma	92.460164
loop_
_atom_site_label
_atom_site_type_symbol
_atom_site_fract_x
_atom_site_fract_y
_atom_site_fract_z
Zn1	Zn	1.119565	-0.279790	0.406239
Zn2	Zn	1.619565	0.220210	0.906239
Zn3	Zn	1.114191	-0.397230	0.277109
Zn4	Zn	1.614191	0.102770	0.777109
Zn5	Zn	0.995724	-0.279782	0.282401
Zn6	Zn	1.495724	0.220218	0.782401
Zn7	Zn	0.990406	-0.397200	0.400899
Zn8	Zn	1.490406	0.102800	0.900899
O9	O	1.054972	-0.338501	0.341662
O10	O	1.554972	0.161499	0.841662
O11	O	1.222484	-0.295384	0.389130
O12	O	1.722484	0.204616	0.889130
O13	O	1.098453	-0.381660	0.174178
O14	O	1.598453	0.118340	0.674178
O15	O	1.016627	-0.181494	0.303278
O16	O	1.516627	0.318506	0.803278
O17	O	1.218536	-0.381667	0.294259
O18	O	1.718536	0.118333	0.794259
O19	O	1.107612	-0.181499	0.394261
O20	O	1.607612	0.318501	0.894261
O21	O	1.011416	-0.295372	0.178066
O22	O	1.511416	0.204628	0.678066
O23	O	0.891387	-0.295342	0.298100
O24	O	1.391387	0.204658	0.798100
O25	O	1.007563	-0.381616	0.505241
O26	O	1.507563	0.118384	1.005241
O27	O	0.887479	-0.381609	0.385160
O28	O	1.387479	0.118391	0.885160
O29	O	1.102455	-0.295355	0.509164
O30	O	1.602455	0.204645	1.009164
O31	O	1.093295	-0.495516	0.289081
O32	O	1.593295	0.004484	0.789081
O33	O	1.002351	-0.495494	0.380029
O34	O	1.502351	0.004506	0.880029
C35	C	0.862562	-0.338472	0.341625
C36	C	1.362562	0.161528	0.841625
C37	C	0.780248	-0.338477	0.341626
C38	C	1.280248	0.161523	0.841626
C39	C	1.046683	-0.520990	0.333418
C40	C	1.546683	-0.020990	0.833418
C41	C	1.043205	-0.599060	0.329915
C42	C	1.543205	-0.099060	0.829915
C43	C	0.481155	-0.338521	0.341686
C44	C	0.981155	0.161479	0.841686
C45	C	0.514926	-0.283973	0.287201
C46	C	1.014926	0.216027	0.787201
C47	C	0.600538	-0.284119	0.286952
C48	C	1.100538	0.215881	0.786952
C49	C	0.629539	-0.338498	0.341656
C50	C	1.129539	0.161502	0.841656
C51	C	0.595100	-0.412484	0.317000
C52	C	1.095100	0.087516	0.817000
C53	C	0.509469	-0.412181	0.316618
C54	C	1.009469	0.087819	0.816618
C55	C	0.513613	-0.319726	0.420932
C56	C	1.013613	0.180274	0.920932
C57	C	0.599338	-0.318078	0.420578
C58	C	1.099338	0.181922	0.920578
C59	C	0.713398	-0.338490	0.341640
C60	C	1.213398	0.161510	0.841640
C61	C	0.397295	-0.338534	0.341700
C62	C	0.897295	0.161466	0.841700
C63	C	1.088907	-0.635679	0.375679
C64	C	1.588907	-0.135679	0.875679
C65	C	1.085636	-0.709034	0.372389
C66	C	1.585636	-0.209034	0.872389
C67	C	1.036666	-0.745768	0.323332
C68	C	1.536666	-0.245768	0.823332
C69	C	0.990959	-0.709143	0.277567
C70	C	1.490959	-0.209143	0.777567
C71	C	0.994227	-0.635790	0.280860
C72	C	1.494227	-0.135790	0.780860
C73	C	1.024428	-0.967251	0.311018
C74	C	1.524428	-0.467251	0.811018
C75	C	1.021165	-1.040609	0.307726
C76	C	1.521165	-0.540609	0.807726
C77	C	1.115841	-1.040495	0.402550
C78	C	1.615841	-0.540495	0.902550
C79	C	1.119108	-0.967141	0.405836
C80	C	1.619108	-0.467141	0.905836
C81	C	1.073398	-0.930522	0.360074
C82	C	1.573398	-0.430522	0.860074
C83	C	1.033323	-0.820748	0.319966
C84	C	1.533323	-0.320748	0.819966
C85	C	1.076738	-0.855543	0.363443
C86	C	1.576738	-0.355543	0.863443
C87	C	1.248132	-0.338530	0.341700
C88	C	1.748132	0.161470	0.841700
C89	C	1.330446	-0.338542	0.341716
C90	C	1.830446	0.161458	0.841716
C91	C	1.055015	-0.338483	0.534825
C92	C	1.555015	0.161517	1.034825
C93	C	1.055034	-0.338475	0.617140
C94	C	1.555034	0.161525	1.117140
C95	C	1.063313	-0.155299	0.349956
C96	C	1.563313	0.344701	0.849956
C97	C	1.066867	-0.077229	0.353490
C98	C	1.566867	0.422771	0.853490
C99	C	1.054973	-0.338468	0.149253
C100	C	1.554973	0.161532	0.649253
C101	C	1.055107	-0.338277	0.066948
C102	C	1.555107	0.161723	0.566948
C103	C	1.055083	-0.338344	0.916237
C104	C	1.555083	0.161656	1.416237
C105	C	0.995189	-0.392444	0.882451
C106	C	1.495189	0.107556	1.382451
C107	C	0.995333	-0.392695	0.796821
C108	C	1.495333	0.107305	1.296821
C109	C	1.055058	-0.338409	0.767851
C110	C	1.555058	0.161591	1.267851
C111	C	1.132181	-0.358507	0.798052
C112	C	1.632181	0.141493	1.298052
C113	C	1.131845	-0.358862	0.883681
C114	C	1.631845	0.141138	1.383681
C115	C	1.038537	-0.264025	0.888008
C116	C	1.538537	0.235975	1.388008
C117	C	1.036781	-0.264454	0.802337
C118	C	1.536781	0.235546	1.302337
C119	C	1.055049	-0.338445	0.683990
C120	C	1.555049	0.161555	1.183990
C121	C	1.055097	-0.338310	1.000098
C122	C	1.555097	0.161690	1.500098
H123	H	0.624040	-0.229255	0.302789
H124	H	1.124040	0.270745	0.802789
C125	C	0.571416	-0.200235	0.458309
C126	C	1.071416	0.299765	0.958309
C127	C	0.630092	-0.244575	0.445589
C128	C	1.130092	0.255425	0.945589
H129	H	0.590407	-0.154855	0.473740
H130	H	1.090407	0.345145	0.973740
H131	H	0.540304	-0.218426	0.495787
H132	H	1.040304	0.281574	0.995787
H133	H	0.543751	-0.197344	0.414019
H134	H	1.043751	0.302656	0.914019
H135	H	0.657754	-0.247470	0.489880
H136	H	1.157754	0.252530	0.989880
H137	H	0.661217	-0.226379	0.408108
H138	H	1.161217	0.273621	0.908108
C139	C	1.192202	-0.553115	0.389781
C140	C	1.692202	-0.053115	0.889781
C141	C	1.142738	-0.595307	0.429605
C142	C	1.642738	-0.095307	0.929605
H143	H	1.225437	-0.528197	0.423077
H144	H	1.725437	-0.028197	0.923077
H145	H	1.165454	-0.520807	0.363005
H146	H	1.665454	-0.020807	0.863005
H147	H	1.219271	-0.581731	0.356261
H148	H	1.719271	-0.081731	0.856261
H149	H	1.115664	-0.566690	0.463122
H150	H	1.615664	-0.066690	0.963122
H151	H	1.169488	-0.627619	0.456393
H152	H	1.669488	-0.127619	0.956393
C153	C	1.134329	-0.179048	0.858505
C154	C	1.634329	0.320952	1.358505
C155	C	1.097478	-0.209609	0.917830
C156	C	1.597478	0.290391	1.417830
H157	H	1.170721	-0.145463	0.876920
H158	H	1.670721	0.354537	1.376920
H159	H	1.099784	-0.156646	0.828997
H160	H	1.599784	0.343354	1.328997
H161	H	1.157485	-0.214313	0.829369
H162	H	1.657485	0.285687	1.329369
H163	H	1.074317	-0.174345	0.946963
H164	H	1.574317	0.325655	1.446963
H165	H	1.132029	-0.232012	0.947350
H166	H	1.632029	0.267988	1.447350
H167	H	0.987211	-0.937442	0.273755
H168	H	1.487211	-0.437442	0.773755
H169	H	0.494420	-0.266716	0.442707
H170	H	0.994420	0.233284	0.942707
H171	H	0.491574	-0.359457	0.461569
H172	H	0.991574	0.140543	0.961569
H173	H	1.158983	-0.937233	0.445783
H174	H	1.658983	-0.437233	0.945783
H175	H	0.615787	-0.428701	0.259575
H176	H	1.115787	0.071299	0.759575
H177	H	1.146915	-0.412258	0.774189
H178	H	1.646915	0.087742	1.274189
C179	C	1.179573	-0.701554	0.466420
C180	C	1.679573	-0.201554	0.966420
C181	C	1.135889	-0.749286	0.422677
C182	C	1.635889	-0.249286	0.922677
H183	H	1.210604	-0.726405	0.497460
H184	H	1.710604	-0.226405	0.997460
H185	H	1.148570	-0.672962	0.496011
H186	H	1.648570	-0.172962	0.996011
H187	H	1.209178	-0.672929	0.435452
H188	H	1.709178	-0.172929	0.935452
H189	H	1.106280	-0.777907	0.453646
H190	H	1.606280	-0.277907	0.953646
H191	H	1.166895	-0.777890	0.393084
H192	H	1.666895	-0.277890	0.893084
H193	H	0.938039	-0.380118	0.776355
H194	H	1.438039	0.119882	1.276355
C195	C	0.916686	-0.228207	0.859210
C196	C	1.416686	0.271793	1.359210
C197	C	0.964171	-0.239308	0.918257
C198	C	1.464171	0.260692	1.418257
H199	H	0.870777	-0.212951	0.877888
H200	H	1.370777	0.287049	1.377888
H201	H	0.908708	-0.270691	0.830629
H202	H	1.408708	0.229309	1.330629
H203	H	0.938366	-0.193441	0.829074
H204	H	1.438366	0.306559	1.329074
H205	H	0.942493	-0.274078	0.948389
H206	H	1.442493	0.225922	1.448389
H207	H	0.972148	-0.196819	0.946850
H208	H	1.472148	0.303181	1.446850
H209	H	0.993454	-0.850665	0.280022
H210	H	1.493454	-0.350665	0.780022
C211	C	1.152867	-1.152890	0.439612
C212	C	1.652867	-0.652890	0.939612
C213	C	1.166076	-1.080748	0.452857
C214	C	1.666076	-0.580748	0.952857
H215	H	1.183877	-1.177738	0.470676
H216	H	1.683877	-0.677738	0.970676
H217	H	1.163204	-1.164922	0.389332
H218	H	1.663204	-0.664922	0.889332
H219	H	1.102563	-1.164936	0.449858
H220	H	1.602563	-0.664936	0.949858
H221	H	1.216379	-1.068701	0.442606
H222	H	1.716379	-0.568701	0.942606
H223	H	1.155744	-1.068711	0.503149
H224	H	1.655744	-0.568711	1.003149
H225	H	0.981285	-1.070516	0.267777
H226	H	1.481285	-0.570516	0.767777
H227	H	0.492826	-0.296256	0.228893
H228	H	0.992826	0.203744	0.728893
H229	H	0.619090	-0.354914	0.463618
H230	H	1.119090	0.145086	0.963618
C231	C	0.566353	-0.310858	0.160380
C232	C	1.066353	0.189142	0.660380
C233	C	0.627404	-0.300895	0.207775
C234	C	1.127404	0.199105	0.707775
H235	H	0.582940	-0.321220	0.111499
H236	H	1.082940	0.178780	0.611499
H237	H	0.539203	-0.269414	0.161130
H238	H	1.039203	0.230586	0.661130
H239	H	0.535517	-0.348705	0.176364
H240	H	1.035517	0.151295	0.676364
H241	H	0.658237	-0.263045	0.191794
H242	H	1.158237	0.236955	0.691794
H243	H	0.654565	-0.342344	0.207022
H244	H	1.154565	0.157656	0.707022
C245	C	0.943919	-0.821638	0.230406
C246	C	1.443919	-0.321638	0.730406
C247	C	0.937133	-0.749519	0.223639
C248	C	1.437133	-0.249519	0.723639
H249	H	0.910692	-0.846562	0.197107
H250	H	1.410692	-0.346562	0.697107
H251	H	0.932513	-0.833645	0.279607
H252	H	1.432513	-0.333645	0.779607
H253	H	0.993153	-0.833618	0.219081
H254	H	1.493153	-0.333618	0.719081
H255	H	0.887900	-0.737539	0.234970
H256	H	1.387900	-0.237539	0.734970
H257	H	0.948534	-0.737508	0.174427
H258	H	1.448534	-0.237508	0.674427
H259	H	0.496825	-0.228942	0.302899
H260	H	0.996825	0.271058	0.802899
H261	H	0.488742	-0.428121	0.258586
H262	H	0.988742	0.071879	0.758586
C263	C	1.163232	-0.256411	0.729838
C264	C	1.663232	0.243589	1.229838
C265	C	1.193852	-0.306992	0.772902
C266	C	1.693852	0.193008	1.272902
H267	H	1.201306	-0.224611	0.714308
H268	H	1.701306	0.275389	1.214308
H269	H	1.128009	-0.231589	0.758283
H270	H	1.628009	0.268411	1.258283
H271	H	1.139624	-0.278730	0.687709
H272	H	1.639624	0.221270	1.187709
H273	H	1.217455	-0.284673	0.815034
H274	H	1.717455	0.215327	1.315034
H275	H	1.229088	-0.331816	0.744456
H276	H	1.729088	0.168184	1.244456
H277	H	1.116606	-0.825632	0.403389
H278	H	1.616606	-0.325632	0.903389
H279	H	0.980042	-0.249298	0.782688
H280	H	1.480042	0.250702	1.282688
C281	C	0.537802	-0.503007	0.398362
C282	C	1.037802	-0.003007	0.898362
C283	C	0.478943	-0.468901	0.367608
C284	C	0.978943	0.031099	0.867608
H285	H	0.518957	-0.538025	0.429837
H286	H	1.018957	-0.038025	0.929837
H287	H	0.568383	-0.469948	0.426193
H288	H	1.068383	0.030052	0.926193
H289	H	0.565977	-0.524190	0.359912
H290	H	1.065977	-0.024190	0.859912
H291	H	0.450772	-0.447714	0.406058
H292	H	0.950772	0.052286	0.906058
H293	H	0.448350	-0.501965	0.339776
H294	H	0.948350	-0.001965	0.839776
H295	H	0.957011	-0.605975	0.243596
H296	H	1.457011	-0.105975	0.743596
C297	C	1.194209	-0.307807	0.991340
C298	C	1.694209	0.192193	1.491340
C299	C	1.193895	-0.307990	0.913978
C300	C	1.693895	0.192010	1.413978
H301	H	1.232516	-0.276401	1.010040
H302	H	1.732516	0.223599	1.510040
H303	H	1.202425	-0.353674	1.006830
H304	H	1.702425	0.146326	1.506830
H305	H	1.147901	-0.293209	1.009617
H306	H	1.647901	0.206791	1.509617
H307	H	1.240202	-0.322593	0.895701
H308	H	1.740202	0.177407	1.395701
H309	H	1.185685	-0.262114	0.898481
H310	H	1.685685	0.237886	1.398481
C311	C	0.916205	-0.378670	0.988132
C312	C	1.416205	0.121330	1.488132
C313	C	0.917597	-0.375640	0.910991
C314	C	1.417597	0.124360	1.410991
H315	H	0.868300	-0.368299	1.005754
H316	H	1.368300	0.131701	1.505754
H317	H	0.951544	-0.345428	1.009157
H318	H	1.451544	0.154572	1.509157
H319	H	0.927816	-0.424346	1.001800
H320	H	1.427816	0.075654	1.501800
H321	H	0.905992	-0.329962	0.897323
H322	H	1.405992	0.170038	1.397323
H323	H	0.882247	-0.408883	0.889959
H324	H	1.382247	0.091117	1.389959
H325	H	0.613592	-0.454215	0.355296
H326	H	1.113592	0.045785	0.855296
H327	H	1.005728	-0.447195	0.901511
H328	H	1.505728	0.052805	1.401511
H329	H	1.005987	-0.447783	0.773858
H330	H	1.505987	0.052217	1.273858
H331	H	1.146262	-0.413190	0.901218
H332	H	1.646262	0.086810	1.401218
H333	H	1.077487	-0.222006	0.782865
H334	H	1.577487	0.277994	1.282865
