data_functionalizedCrystal
_audit_creation_method	'MofGen! by Chris Wilmer'
_symmetry_space_group_name_H-M	'P1'
_symmetry_Int_Tables_number	1
_symmetry_cell_setting	triclinic
loop_
_symmetry_equiv_pos_as_xyz
  x,y,z
_cell_length_a	14.971486
_cell_length_b	14.971486
_cell_length_c	14.048226
_cell_angle_alpha	90.001501
_cell_angle_beta	89.993360
_cell_angle_gamma	96.385871
loop_
_atom_site_label
_atom_site_type_symbol
_atom_site_fract_x
_atom_site_fract_y
_atom_site_fract_z
O1	O	0.116565	-1.186947	-0.079052
O2	O	0.130523	-0.926547	-0.079078
O3	O	-0.006656	-1.063726	-0.079057
O4	O	0.253744	-1.049768	-0.079072
O5	O	-0.006664	-1.063710	0.079264
O6	O	0.130515	-0.926530	0.079244
O7	O	0.116556	-1.186930	0.079270
Zn8	Zn	0.123535	-1.056728	0.104394
Zn9	Zn	0.123545	-1.056750	-0.104202
O10	O	0.253736	-1.049751	0.079249
C11	C	0.129895	-0.893214	0.000080
C12	C	0.128024	-0.793917	0.000070
C13	C	-0.039985	-1.063094	0.000103
C14	C	-0.139282	-1.061223	0.000102
N15	N	0.123527	-1.056719	0.246754
C16	C	-0.196507	-1.141812	0.000111
C17	C	-0.289807	-1.140049	0.000101
C18	C	-0.325879	-1.057696	0.000089
C19	C	-0.268646	-0.977101	0.000078
C20	C	-0.175349	-0.978865	0.000081
C21	C	-0.463109	-0.973430	0.000074
C22	C	-0.556413	-0.971665	0.000073
C23	C	-0.577567	-1.134614	0.000094
C24	C	-0.484269	-1.136378	0.000097
C25	C	-0.427043	-1.055782	0.000088
C26	C	0.287065	-1.050384	0.000087
C27	C	0.386362	-1.052254	0.000082
C28	C	0.117185	-1.220263	0.000110
C29	C	0.119056	-1.319561	0.000114
C30	C	0.208614	-0.736692	0.000067
C31	C	0.206850	-0.643392	0.000081
C32	C	0.124497	-0.607320	0.000092
C33	C	0.043902	-0.664552	0.000098
C34	C	0.045666	-0.757850	0.000090
C35	C	0.040231	-0.470090	0.000111
C36	C	0.038466	-0.376786	0.000117
C37	C	0.201415	-0.355632	0.000102
C38	C	0.203179	-0.448930	0.000094
C39	C	0.122584	-0.506156	0.000099
N40	N	0.123546	-1.056765	-0.246562
C41	C	0.062809	-1.117482	0.296581
C42	C	0.062808	-1.117488	0.396239
C43	C	0.123531	-1.056735	0.446068
C44	C	0.184252	-0.995966	0.396234
C45	C	0.184247	-0.995957	0.296578
C46	C	0.184258	-0.995992	0.603948
C47	C	0.184264	-0.996003	0.703611
C48	C	0.062819	-1.117523	0.703609
C49	C	0.062815	-1.117514	0.603953
C50	C	0.123537	-1.056746	0.554126
H51	H	-0.167145	-1.208874	0.000126
H52	H	0.013377	-1.167002	0.744184
C53	C	0.251040	-0.929119	0.241765
C54	C	0.317865	-0.862323	0.296571
C55	C	0.384657	-0.795479	0.241760
C56	C	0.384624	-0.795431	0.132143
C57	C	0.317796	-0.862230	0.077330
C58	C	0.251004	-0.929073	0.132141
H59	H	0.317892	-0.862356	0.377722
H60	H	0.434128	-0.746030	0.282336
H61	H	0.434067	-0.745950	0.091568
H62	H	0.317769	-0.862197	-0.003821
H63	H	0.201534	-0.978522	0.091565
C64	C	0.295503	-0.580448	0.000078
C65	C	0.362961	-0.584543	-0.082143
C66	C	0.451618	-0.521601	-0.082142
C67	C	0.472819	-0.454563	0.000079
C68	C	0.405360	-0.450466	0.082306
C69	C	0.316702	-0.513408	0.082305
H70	H	0.347268	-0.634171	-0.143013
H71	H	0.501556	-0.524635	-0.143012
H72	H	0.538449	-0.407970	0.000080
H73	H	0.421052	-0.400838	0.143177
H74	H	0.266764	-0.510374	0.143176
H75	H	-0.336396	-1.205673	0.000110
H76	H	-0.019958	-0.804443	0.000093
H77	H	-0.454903	-1.203437	0.000114
H78	H	0.267039	-0.309033	0.000103
C79	C	-0.048424	-0.533042	0.000114
C80	C	-0.115889	-0.528949	0.082328
C81	C	-0.204540	-0.591902	0.082326
C82	C	-0.225725	-0.658949	0.000110
C83	C	-0.158258	-0.663045	-0.082110
C84	C	-0.069607	-0.600091	-0.082108
H85	H	-0.100208	-0.479315	0.143195
H86	H	-0.254483	-0.588870	0.143191
H87	H	-0.291350	-0.705550	0.000108
H88	H	-0.173940	-0.712679	-0.142977
H89	H	-0.019664	-0.603124	-0.142973
C90	C	-0.003989	-1.184312	0.241775
C91	C	-0.070781	-1.251145	0.296590
C92	C	-0.137582	-1.317975	0.241787
C93	C	-0.137592	-1.317972	0.132169
C94	C	-0.070798	-1.251137	0.077348
C95	C	-0.003996	-1.184307	0.132151
H96	H	-0.070776	-1.251149	0.377741
H97	H	-0.187028	-1.367451	0.282369
H98	H	-0.187043	-1.367444	0.091601
H99	H	-0.070803	-1.251132	-0.003803
H100	H	0.045450	-1.134831	0.091569
H101	H	0.270239	-0.478296	0.000077
C102	C	-0.308326	-0.886512	0.000059
C103	C	-0.369566	-0.862878	0.082265
C104	C	-0.409245	-0.772288	0.082247
C105	C	-0.387684	-0.705331	0.000022
C106	C	-0.326441	-0.728962	-0.082191
C107	C	-0.286762	-0.819553	-0.082172
H108	H	-0.385529	-0.912446	0.143139
H109	H	-0.454581	-0.754795	0.143106
H110	H	-0.417056	-0.638270	0.000008
H111	H	-0.310477	-0.679395	-0.143064
H112	H	-0.241426	-0.837046	-0.143032
H113	H	-0.416517	-0.907800	0.000064
C114	C	-0.003977	-1.184340	0.549137
C115	C	-0.105838	-1.182740	0.562848
C116	C	-0.172632	-1.249565	0.508029
C117	C	-0.137566	-1.317991	0.439500
C118	C	-0.035700	-1.319594	0.425786
C119	C	0.031094	-1.252769	0.480604
H120	H	-0.131801	-1.132085	0.613580
H121	H	-0.248041	-1.248378	0.518182
H122	H	-0.187011	-1.367459	0.398920
H123	H	-0.009737	-1.370250	0.375054
H124	H	0.106503	-1.253956	0.470452
H125	H	0.013367	-1.166964	0.436808
C126	C	0.251054	-0.929168	0.758420
C127	C	0.249369	-0.827316	0.744736
C128	C	0.316161	-0.760479	0.799543
C129	C	0.384637	-0.795493	0.868033
C130	C	0.386325	-0.897350	0.881719
C131	C	0.319534	-0.964187	0.826913
H132	H	0.198677	-0.801392	0.694033
H133	H	0.314911	-0.685077	0.789411
H134	H	0.434080	-0.746016	0.908604
H135	H	0.437018	-0.923274	0.932423
H136	H	0.320783	-1.039588	0.837045
H137	H	0.233702	-0.946506	0.563382
H138	H	-0.624165	-1.200238	0.000099
H139	H	-0.585780	-0.904606	0.000079
H140	H	-0.128756	-0.913240	0.000074
H141	H	0.275675	-0.766054	0.000057
H142	H	-0.028593	-0.347419	0.000127
H143	H	-0.023152	-0.635175	0.000120
H144	H	0.233690	-0.946496	0.436810
