data_functionalizedCrystal
_audit_creation_method	'MofGen! by Chris Wilmer'
_symmetry_space_group_name_H-M	'P1'
_symmetry_Int_Tables_number	1
_symmetry_cell_setting	triclinic
loop_
_symmetry_equiv_pos_as_xyz
  x,y,z
_cell_length_a	21.395362
_cell_length_b	21.395361
_cell_length_c	21.395355
_cell_angle_alpha	90.021511
_cell_angle_beta	90.043940
_cell_angle_gamma	90.046585
loop_
_atom_site_label
_atom_site_type_symbol
_atom_site_fract_x
_atom_site_fract_y
_atom_site_fract_z
Zn1	Zn	-0.957859	0.249246	-0.354573
Zn2	Zn	-0.624526	0.582579	-0.021239
Zn3	Zn	-0.291193	0.915912	0.312094
Zn4	Zn	-0.957762	0.354005	-0.249790
Zn5	Zn	-0.624429	0.687339	0.083544
Zn6	Zn	-0.291095	1.020672	0.416877
Zn7	Zn	-0.853074	0.249275	-0.249774
Zn8	Zn	-0.519741	0.582608	0.083559
Zn9	Zn	-0.186408	0.915941	0.416893
Zn10	Zn	-0.853044	0.354018	-0.354494
Zn11	Zn	-0.519710	0.687352	-0.021161
Zn12	Zn	-0.186377	1.020685	0.312172
O13	O	-0.905435	0.301636	-0.302158
O14	O	-0.572102	0.634969	0.031176
O15	O	-0.238768	0.968303	0.364509
O16	O	-1.045524	0.263125	-0.340712
O17	O	-0.712191	0.596458	-0.007379
O18	O	-0.378858	0.929791	0.325954
O19	O	-0.943847	0.340119	-0.162110
O20	O	-0.610514	0.673453	0.171224
O21	O	-0.277180	1.006786	0.504557
O22	O	-0.867028	0.161593	-0.263702
O23	O	-0.533695	0.494926	0.069632
O24	O	-0.200361	0.828260	0.402965
O25	O	-1.045453	0.340091	-0.263729
O26	O	-0.712119	0.673425	0.069605
O27	O	-0.378786	1.006758	0.402938
O28	O	-0.944013	0.161572	-0.340697
O29	O	-0.610680	0.494905	-0.007364
O30	O	-0.277347	0.828238	0.325970
O31	O	-0.866934	0.263174	-0.162098
O32	O	-0.533600	0.596508	0.171235
O33	O	-0.200267	0.929841	0.504569
O34	O	-0.765392	0.263187	-0.263626
O35	O	-0.432059	0.596520	0.069707
O36	O	-0.098726	0.929853	0.403041
O37	O	-0.866976	0.340113	-0.442183
O38	O	-0.533642	0.673447	-0.108849
O39	O	-0.200309	1.006780	0.224484
O40	O	-0.765370	0.340141	-0.340564
O41	O	-0.432036	0.673475	-0.007230
O42	O	-0.098703	1.006808	0.326103
O43	O	-0.943983	0.263137	-0.442240
O44	O	-0.610650	0.596470	-0.108907
O45	O	-0.277317	0.929804	0.224427
O46	O	-0.943817	0.441685	-0.263653
O47	O	-0.610484	0.775018	0.069681
O48	O	-0.277150	1.108352	0.403014
O49	O	-0.866881	0.441695	-0.340579
O50	O	-0.533548	0.775028	-0.007246
O51	O	-0.200214	1.108361	0.326088
C52	C	-0.742647	0.301669	-0.302085
C53	C	-0.409314	0.635002	0.031248
C54	C	-0.075981	0.968336	0.364582
C55	C	-0.673006	0.301698	-0.302069
C56	C	-0.339673	0.635032	0.031265
C57	C	-0.006339	0.968365	0.364598
C58	C	-0.905352	0.464424	-0.302123
C59	C	-0.572019	0.797757	0.031211
C60	C	-0.238685	1.131090	0.364544
C61	C	-0.905374	0.534065	-0.302129
C62	C	-0.572041	0.867398	0.031205
C63	C	-0.238707	1.200732	0.364538
C64	C	-0.905487	0.301623	-0.465581
C65	C	-0.572154	0.634957	-0.132248
C66	C	-0.238820	0.968290	0.201086
C67	C	-0.905509	0.301618	-0.535222
C68	C	-0.572176	0.634951	-0.201889
C69	C	-0.238842	0.968285	0.131444
C70	C	-1.068858	0.301603	-0.302231
C71	C	-0.735525	0.634937	0.031102
C72	C	-0.402192	0.968270	0.364436
C73	C	-1.138499	0.301589	-0.302262
C74	C	-0.805166	0.634923	0.031071
C75	C	-0.471833	0.968256	0.364405
C76	C	-0.640297	0.341822	-0.342070
C77	C	-0.306964	0.675155	-0.008737
C78	C	0.026369	1.008488	0.324597
C79	C	-0.574862	0.341806	-0.342098
C80	C	-0.241529	0.675140	-0.008765
C81	C	0.091805	1.008473	0.324569
C82	C	-0.542138	0.301674	-0.302113
C83	C	-0.208804	0.635008	0.031220
C84	C	0.124529	0.968341	0.364553
C85	C	-0.574854	0.261543	-0.262109
C86	C	-0.241521	0.594876	0.071224
C87	C	0.091813	0.928210	0.404558
C88	C	-0.640288	0.261555	-0.262087
C89	C	-0.306955	0.594889	0.071247
C90	C	0.026378	0.928222	0.404580
C91	C	-0.438413	0.296627	-0.245708
C92	C	-0.105080	0.629960	0.087625
C93	C	0.228254	0.963293	0.420958
C94	C	-0.372980	0.296619	-0.245730
C95	C	-0.039647	0.629952	0.087604
C96	C	0.293687	0.963286	0.420937
C97	C	-0.340317	0.301633	-0.302182
C98	C	-0.006984	0.634967	0.031151
C99	C	0.326350	0.968300	0.364484
C100	C	-0.373095	0.306668	-0.358616
C101	C	-0.039762	0.640002	-0.025283
C102	C	0.293572	0.973335	0.308051
C103	C	-0.438529	0.306681	-0.358594
C104	C	-0.105196	0.640014	-0.025260
C105	C	0.228138	0.973347	0.308073
C106	C	-0.471185	0.301656	-0.302133
C107	C	-0.137852	0.634990	0.031200
C108	C	0.195481	0.968323	0.364533
C109	C	-0.236656	0.341742	-0.342218
C110	C	0.096677	0.675076	-0.008884
C111	C	0.430011	1.008409	0.324449
C112	C	-0.171219	0.341723	-0.342247
C113	C	0.162114	0.675056	-0.008913
C114	C	0.495447	1.008389	0.324420
C115	C	-0.171213	0.261462	-0.262252
C116	C	0.162121	0.594796	0.071081
C117	C	0.495454	0.928129	0.404415
C118	C	-0.236648	0.261479	-0.262229
C119	C	0.096685	0.594812	0.071105
C120	C	0.430019	0.928146	0.404438
C121	C	-0.269366	0.301622	-0.302211
C122	C	0.063968	0.634956	0.031123
C123	C	0.397301	0.968289	0.364456
C124	C	-0.905535	0.138213	-0.302206
C125	C	-0.572202	0.471546	0.031127
C126	C	-0.238868	0.804879	0.364460
C127	C	-0.905578	0.068571	-0.302227
C128	C	-0.572244	0.401905	0.031106
C129	C	-0.238911	0.735238	0.364440
C130	C	-0.945470	0.566752	-0.262114
C131	C	-0.612137	0.900086	0.071219
C132	C	-0.278804	1.233419	0.404552
C133	C	-0.945499	0.632188	-0.262128
C134	C	-0.612166	0.965521	0.071205
C135	C	-0.278833	1.298854	0.404538
C136	C	-0.905421	0.664933	-0.302150
C137	C	-0.572088	0.998267	0.031183
C138	C	-0.238755	1.331600	0.364516
C139	C	-0.865322	0.632238	-0.342172
C140	C	-0.531989	0.965571	-0.008839
C141	C	-0.198656	1.298905	0.324494
C142	C	-0.865299	0.566804	-0.342162
C143	C	-0.531965	0.900137	-0.008828
C144	C	-0.198632	1.233470	0.324505
C145	C	-0.849006	0.768664	-0.307041
C146	C	-0.515673	1.101997	0.026292
C147	C	-0.182340	1.435331	0.359626
C148	C	-0.849029	0.834097	-0.307047
C149	C	-0.515696	1.167430	0.026286
C150	C	-0.182362	1.500764	0.359619
C151	C	-0.905494	0.866754	-0.302187
C152	C	-0.572161	1.200087	0.031146
C153	C	-0.238828	1.533421	0.364480
C154	C	-0.961939	0.833970	-0.297307
C155	C	-0.628605	1.167303	0.036026
C156	C	-0.295272	1.500637	0.369360
C157	C	-0.961915	0.768536	-0.297296
C158	C	-0.628582	1.101869	0.036037
C159	C	-0.295248	1.435202	0.369370
C160	C	-0.905443	0.735886	-0.302167
C161	C	-0.572109	1.069219	0.031167
C162	C	-0.238776	1.402552	0.364500
C163	C	-0.945625	0.970394	-0.262186
C164	C	-0.612292	1.303727	0.071148
C165	C	-0.278959	1.637060	0.404481
C166	C	-0.945655	1.035830	-0.262204
C167	C	-0.612322	1.369164	0.071129
C168	C	-0.278989	1.702497	0.404463
C169	C	-0.865473	1.035879	-0.342245
C170	C	-0.532139	1.369213	-0.008912
C171	C	-0.198806	1.702546	0.324422
C172	C	-0.865448	0.970444	-0.342230
C173	C	-0.532115	1.303777	-0.008896
C174	C	-0.198782	1.637111	0.324437
C175	C	-0.905524	0.937705	-0.302197
C176	C	-0.572190	1.271039	0.031137
C177	C	-0.238857	1.604372	0.364470
C178	C	-0.945605	0.261535	-0.567966
C179	C	-0.612272	0.594868	-0.234633
C180	C	-0.278939	0.928201	0.098700
C181	C	-0.945604	0.261508	-0.633402
C182	C	-0.612271	0.594841	-0.300068
C183	C	-0.278938	0.928174	0.033265
C184	C	-0.905514	0.301575	-0.666091
C185	C	-0.572181	0.634909	-0.332757
C186	C	-0.238847	0.968242	0.000576
C187	C	-0.865410	0.341661	-0.633339
C188	C	-0.532077	0.674994	-0.300005
C189	C	-0.198743	1.008328	0.033328
C190	C	-0.865407	0.341682	-0.567904
C191	C	-0.532074	0.675016	-0.234571
C192	C	-0.198741	1.008349	0.098762
C193	C	-0.900538	0.357992	-0.769752
C194	C	-0.567205	0.691325	-0.436418
C195	C	-0.233871	1.024659	-0.103085
C196	C	-0.900545	0.357972	-0.835185
C197	C	-0.567211	0.691305	-0.501851
C198	C	-0.233878	1.024638	-0.168518
C199	C	-0.905518	0.301509	-0.867911
C200	C	-0.572184	0.634842	-0.534578
C201	C	-0.238851	0.968176	-0.201245
C202	C	-0.910497	0.245065	-0.835197
C203	C	-0.577164	0.578398	-0.501864
C204	C	-0.243830	0.911732	-0.168531
C205	C	-0.910495	0.245086	-0.769763
C206	C	-0.577161	0.578420	-0.436430
C207	C	-0.243828	0.911753	-0.103097
C208	C	-0.905512	0.301556	-0.737043
C209	C	-0.572179	0.634890	-0.403710
C210	C	-0.238845	0.968223	-0.070376
C211	C	-0.945615	0.261393	-0.971608
C212	C	-0.612282	0.594727	-0.638275
C213	C	-0.278949	0.928060	-0.304941
C214	C	-0.945610	0.261365	-1.037045
C215	C	-0.612277	0.594699	-0.703711
C216	C	-0.278943	0.928032	-0.370378
C217	C	-0.865419	0.341524	-1.036980
C218	C	-0.532085	0.674858	-0.703647
C219	C	-0.198752	1.008191	-0.370314
C220	C	-0.865421	0.341547	-0.971545
C221	C	-0.532087	0.674880	-0.638212
C222	C	-0.198754	1.008213	-0.304878
C223	C	-0.905522	0.301482	-0.938863
C224	C	-0.572189	0.634815	-0.605529
C225	C	-0.238856	0.968149	-0.272196
C226	C	-0.905419	0.301603	-0.139370
C227	C	-0.572086	0.634937	0.193963
C228	C	-0.238752	0.968270	0.527297
C229	C	-0.905518	0.301432	-0.069729
C230	C	-0.572185	0.634766	0.263604
C231	C	-0.238852	0.968099	0.596938
H232	H	-0.666932	0.374509	-0.374627
H233	H	-0.333599	0.707842	-0.041294
H234	H	-0.000265	1.041175	0.292039
H235	H	-0.346502	0.310751	-0.404585
H236	H	-0.013169	0.644084	-0.071252
H237	H	0.320164	0.977417	0.262081
F238	F	-0.988292	0.218751	-0.936823
F239	F	-0.654958	0.552085	-0.603490
F240	F	-0.321625	0.885418	-0.270156
H241	H	-0.978259	0.943737	-0.229590
H242	H	-0.644926	1.277070	0.103743
H243	H	-0.311593	1.610403	0.437076
H244	H	-0.803022	0.742081	-0.311001
H245	H	-0.469689	1.075414	0.022332
H246	H	-0.136355	1.408748	0.355665
H247	H	-0.832753	0.374322	-0.541245
H248	H	-0.499420	0.707656	-0.207911
H249	H	-0.166087	1.040989	0.125422
H250	H	-0.832774	0.374190	-0.944885
H251	H	-0.499440	0.707524	-0.611551
H252	H	-0.166107	1.040857	-0.278218
F253	F	-0.675100	0.218848	-0.219510
F254	F	-0.341767	0.552181	0.113823
F255	F	-0.008433	0.885515	0.447157
H256	H	-0.832647	0.540189	-0.374747
H257	H	-0.499314	0.873522	-0.041414
H258	H	-0.165980	1.206856	0.291920
F259	F	-1.021986	0.733647	-0.292107
F260	F	-0.688652	1.066980	0.041226
F261	F	-0.355319	1.400314	0.374560
F262	F	-1.022037	0.868720	-0.292129
F263	F	-0.688704	1.202054	0.041205
F264	F	-0.355371	1.535387	0.374538
F265	F	-0.895259	0.418093	-0.734927
F266	F	-0.561926	0.751426	-0.401594
F267	F	-0.228592	1.084759	-0.068261
F268	F	-0.136389	0.218747	-0.219700
F269	F	0.196944	0.552080	0.113633
F270	F	0.530277	0.885414	0.446967
F271	F	-0.988283	0.218892	-0.533187
F272	F	-0.654949	0.552225	-0.199854
F273	F	-0.321616	0.885558	0.133479
H274	H	-0.803068	0.860785	-0.311015
H275	H	-0.469735	1.194118	0.022319
H276	H	-0.136402	1.527451	0.355652
H277	H	-0.548226	0.374479	-0.374674
H278	H	-0.214892	0.707813	-0.041341
H279	H	0.118441	1.041146	0.291992
F280	F	-0.473411	0.312037	-0.418652
F281	F	-0.140078	0.645370	-0.085319
F282	F	0.193255	0.978703	0.248015
H283	H	-0.978103	0.540098	-0.229519
H284	H	-0.644770	0.873432	0.103815
H285	H	-0.311437	1.206765	0.437148
H286	H	-0.832795	0.943828	-0.374811
H287	H	-0.499462	1.277162	-0.041477
H288	H	-0.166129	1.610495	0.291856
F289	F	-0.988338	1.070619	-0.219617
F290	F	-0.655004	1.403952	0.113716
F291	F	-0.321671	1.737285	0.447050
F292	F	-0.915791	0.185016	-0.734949
F293	F	-0.582457	0.518350	-0.401616
F294	F	-0.249124	0.851683	-0.068282
F295	F	-0.473169	0.291291	-0.185619
F296	F	-0.139836	0.624625	0.147714
F297	F	0.193498	0.957958	0.481048
F298	F	-0.988272	0.218834	-0.668258
F299	F	-0.654938	0.552167	-0.334924
F300	F	-0.321605	0.885501	-0.001591
H301	H	-0.263280	0.228809	-0.229652
H302	H	0.070054	0.562143	0.103681
H303	H	0.403387	0.895476	0.437015
F304	F	-0.915792	0.184969	-0.870022
F305	F	-0.582459	0.518302	-0.536689
F306	F	-0.249126	0.851635	-0.203356
F307	F	-0.540026	0.218829	-0.219557
F308	F	-0.206692	0.552162	0.113776
F309	F	0.126641	0.885496	0.447110
H310	H	-0.832843	1.062540	-0.374834
H311	H	-0.499510	1.395873	-0.041501
H312	H	-0.166176	1.729207	0.291832
F313	F	-0.271479	0.384463	-0.384772
F314	F	0.061855	0.717796	-0.051439
F315	F	0.395188	1.051129	0.281895
H316	H	-0.978260	0.228721	-1.063704
H317	H	-0.644927	0.562054	-0.730371
H318	H	-0.311594	0.895388	-0.397037
H319	H	-0.832766	0.374282	-0.659958
H320	H	-0.499433	0.707616	-0.326625
H321	H	-0.166099	1.040949	0.006709
H322	H	-0.978153	0.658807	-0.229544
H323	H	-0.644819	0.992140	0.103789
H324	H	-0.311486	1.325474	0.437123
F325	F	-0.822746	0.384163	-1.071766
F326	F	-0.489413	0.717496	-0.738433
F327	F	-0.156080	1.050829	-0.405099
H328	H	-0.896494	0.403932	-0.861815
H329	H	-0.563161	0.737265	-0.528482
H330	H	-0.229828	1.070598	-0.195149
F331	F	-0.822671	0.667089	-0.384769
F332	F	-0.489337	1.000422	-0.051435
F333	F	-0.156004	1.333755	0.281898
H334	H	-0.346297	0.292523	-0.199778
H335	H	-0.012964	0.625856	0.133555
H336	H	0.320369	0.959190	0.466889
H337	H	-0.144589	0.374395	-0.374824
H338	H	0.188744	0.707728	-0.041491
H339	H	0.522078	1.041061	0.291842
