data_functionalizedCrystal
_audit_creation_method	'MofGen! by Chris Wilmer'
_symmetry_space_group_name_H-M	'P1'
_symmetry_Int_Tables_number	1
_symmetry_cell_setting	triclinic
loop_
_symmetry_equiv_pos_as_xyz
  x,y,z
_cell_length_a	23.532407
_cell_length_b	27.732048
_cell_length_c	22.610064
_cell_angle_alpha	89.999096
_cell_angle_beta	89.997161
_cell_angle_gamma	82.745667
loop_
_atom_site_label
_atom_site_type_symbol
_atom_site_fract_x
_atom_site_fract_y
_atom_site_fract_z
O1	O	0.755138	0.058672	-0.049117
O2	O	1.088472	0.392005	0.284216
O3	O	1.421805	0.725339	0.617550
O4	O	0.589257	0.067162	-0.049135
O5	O	0.922590	0.400496	0.284198
O6	O	1.255923	0.733829	0.617531
O7	O	0.677349	-0.007472	-0.049114
O8	O	1.010683	0.325862	0.284219
O9	O	1.344016	0.659195	0.617552
O10	O	0.667046	0.133306	-0.049138
O11	O	1.000379	0.466639	0.284195
O12	O	1.333712	0.799973	0.617529
O13	O	0.677334	-0.007461	0.049255
O14	O	1.010667	0.325873	0.382588
O15	O	1.344000	0.659206	0.715921
O16	O	0.589241	0.067173	0.049234
O17	O	0.922574	0.400507	0.382567
O18	O	1.255908	0.733840	0.715901
O19	O	0.755123	0.058683	0.049252
O20	O	1.088456	0.392016	0.382585
O21	O	1.421789	0.725350	0.715919
Zn22	Zn	0.672179	0.062930	0.064861
Zn23	Zn	1.005513	0.396263	0.398195
Zn24	Zn	1.338846	0.729596	0.731528
Zn25	Zn	0.672200	0.062915	-0.064744
Zn26	Zn	1.005533	0.396249	0.268589
Zn27	Zn	1.338867	0.729582	0.601922
O28	O	0.667030	0.133317	0.049231
O29	O	1.000363	0.466650	0.382564
O30	O	1.333697	0.799984	0.715898
C31	C	0.568033	0.066952	0.000047
C32	C	0.901367	0.400285	0.333380
C33	C	1.234700	0.733618	0.666714
C34	C	0.504818	0.066302	0.000041
C35	C	0.838151	0.399635	0.333374
C36	C	1.171484	0.732968	0.666707
C37	C	0.105629	0.106391	0.000061
C38	C	0.438962	0.439725	0.333394
C39	C	0.772296	0.773058	0.666727
C40	C	0.046230	0.105787	0.000064
C41	C	0.379563	0.439121	0.333398
C42	C	0.712897	0.772454	0.666731
O43	O	0.009406	0.142951	0.000080
O44	O	0.342739	0.476284	0.333413
O45	O	0.676073	0.809618	0.666746
N46	N	0.023699	0.061418	0.000071
N47	N	0.357032	0.394751	0.333404
N48	N	0.690365	0.728084	0.666738
C49	C	0.060570	0.017649	0.000080
C50	C	0.393903	0.350982	0.333413
C51	C	0.727236	0.684315	0.666746
O52	O	0.035951	-0.020147	0.000086
O53	O	0.369284	0.313187	0.333419
O54	O	0.702617	0.646520	0.666753
C55	C	0.119967	0.018253	0.000080
C56	C	0.453301	0.351586	0.333413
C57	C	0.786634	0.684920	0.666747
C58	C	0.142495	0.062626	0.000068
C59	C	0.475829	0.395959	0.333401
C60	C	0.809162	0.729292	0.666734
C61	C	0.128158	0.150760	0.000049
C62	C	0.461491	0.484094	0.333382
C63	C	0.794824	0.817427	0.666716
C64	C	0.187552	0.151364	0.000044
C65	C	0.520886	0.484697	0.333377
C66	C	0.854219	0.818031	0.666711
C67	C	0.224419	0.107599	0.000051
C68	C	0.557752	0.440932	0.333384
C69	C	0.891085	0.774265	0.666718
C70	C	0.201890	0.063229	0.000063
C71	C	0.535224	0.396563	0.333396
C72	C	0.868557	0.729896	0.666730
C73	C	0.156837	-0.025515	0.000093
C74	C	0.490171	0.307818	0.333426
C75	C	0.823504	0.641151	0.666760
C76	C	0.216239	-0.024907	0.000094
C77	C	0.549572	0.308426	0.333427
C78	C	0.882905	0.641760	0.666761
C79	C	0.238766	0.019466	0.000082
C80	C	0.572100	0.352799	0.333415
C81	C	0.905433	0.686132	0.666748
C82	C	0.298151	0.020068	0.000065
C83	C	0.631485	0.353401	0.333398
C84	C	0.964818	0.686734	0.666732
N85	N	0.320683	0.064437	0.000059
N86	N	0.654016	0.397771	0.333392
N87	N	0.987350	0.731104	0.666725
C88	C	0.283817	0.108203	0.000052
C89	C	0.617150	0.441536	0.333385
C90	C	0.950483	0.774870	0.666718
C91	C	-0.064170	0.016383	0.000080
C92	C	0.269163	0.349716	0.333413
C93	C	0.602497	0.683049	0.666746
C94	C	-0.123567	0.015778	0.000075
C95	C	0.209767	0.349111	0.333408
C96	C	0.543100	0.682445	0.666742
C97	C	-0.137902	0.103917	0.000061
C98	C	0.195431	0.437250	0.333394
C99	C	0.528764	0.770584	0.666727
C100	C	-0.078505	0.104521	0.000061
C101	C	0.254829	0.437855	0.333395
C102	C	0.588162	0.771188	0.666728
C103	C	-0.041639	0.060753	0.000073
C104	C	0.291695	0.394086	0.333406
C105	C	0.625028	0.727419	0.666740
C106	C	0.408551	0.109467	0.000041
C107	C	0.741884	0.442801	0.333374
C108	C	1.075217	0.776134	0.666708
C109	C	0.467951	0.110067	0.000034
C110	C	0.801285	0.443400	0.333367
C111	C	1.134618	0.776734	0.666700
C112	C	0.482282	0.021928	0.000051
C113	C	0.815615	0.355262	0.333384
C114	C	1.148948	0.688595	0.666718
C115	C	0.422886	0.021328	0.000055
C116	C	0.756220	0.354662	0.333388
C117	C	1.089553	0.687995	0.666722
C118	C	0.386021	0.065102	0.000052
C119	C	0.719355	0.398435	0.333385
C120	C	1.052688	0.731768	0.666719
O121	O	0.335010	-0.017077	0.000052
O122	O	0.668343	0.316257	0.333386
O123	O	1.001677	0.649590	0.666719
O124	O	0.308444	0.145992	0.000053
O125	O	0.641777	0.479325	0.333386
O126	O	0.975110	0.812659	0.666720
C127	C	0.677125	-0.025473	0.000072
C128	C	1.010459	0.307860	0.333405
C129	C	1.343792	0.641193	0.666738
C130	C	0.676474	-0.079129	0.000077
C131	C	1.009807	0.254204	0.333410
C132	C	1.343141	0.587537	0.666743
C133	C	0.724431	-0.417871	0.000052
C134	C	1.057764	-0.084537	0.333385
C135	C	1.391097	0.248796	0.666718
C136	C	0.722014	-0.619534	0.000043
C137	C	1.055348	-0.286201	0.333376
C138	C	1.388681	0.047133	0.666710
O139	O	0.765867	-0.650722	0.000022
O140	O	1.099201	-0.317389	0.333355
O141	O	1.432534	0.015945	0.666689
N142	N	0.669779	-0.638738	0.000038
N143	N	1.003112	-0.305405	0.333371
N144	N	1.336446	0.027929	0.666705
C145	C	0.618144	-0.607523	0.000031
C146	C	0.951477	-0.274189	0.333364
C147	C	1.284811	0.059144	0.666698
O148	O	0.573659	-0.628484	0.000020
O149	O	0.906993	-0.295151	0.333354
O150	O	1.240326	0.038182	0.666687
C151	C	0.620561	-0.405860	0.000035
C152	C	0.953895	-0.072527	0.333368
C153	C	1.287228	0.260806	0.666702
C154	C	0.672800	-0.386659	0.000046
C155	C	1.006133	-0.053326	0.333380
C156	C	1.339467	0.280007	0.666713
C157	C	0.776665	-0.398669	0.000062
C158	C	1.109999	-0.065336	0.333395
C159	C	1.443332	0.267998	0.666729
C160	C	0.777269	-0.348256	0.000067
C161	C	1.110602	-0.014923	0.333401
C162	C	1.443935	0.318411	0.666734
C163	C	0.725638	-0.317045	0.000062
C164	C	1.058971	0.016288	0.333396
C165	C	1.392305	0.349622	0.666729
C166	C	0.673403	-0.336247	0.000052
C167	C	1.006737	-0.002913	0.333385
C168	C	1.340070	0.330420	0.666718
C169	C	0.568927	-0.374646	0.000024
C170	C	0.902260	-0.041313	0.333357
C171	C	1.235594	0.292020	0.666691
C172	C	0.569536	-0.324228	0.000024
C173	C	0.902869	0.009105	0.333357
C174	C	1.236203	0.342439	0.666690
C175	C	0.621775	-0.305027	0.000035
C176	C	0.955108	0.028306	0.333368
C177	C	1.288441	0.361640	0.666701
C178	C	0.622376	-0.254622	0.000052
C179	C	0.955709	0.078711	0.333385
C180	C	1.289043	0.412044	0.666719
N181	N	0.674611	-0.235418	0.000057
N182	N	1.007945	0.097915	0.333390
N183	N	1.341278	0.431248	0.666724
C184	C	0.726242	-0.266630	0.000062
C185	C	1.059576	0.066704	0.333396
C186	C	1.392909	0.400037	0.666729
C187	C	0.616879	-0.713399	0.000030
C188	C	0.950212	-0.380066	0.333363
C189	C	1.283546	-0.046732	0.666696
C190	C	0.616274	-0.763814	0.000030
C191	C	0.949608	-0.430481	0.333363
C192	C	1.282941	-0.097148	0.666696
C193	C	0.720145	-0.775822	0.000041
C194	C	1.053478	-0.442489	0.333374
C195	C	1.386812	-0.109155	0.666707
C196	C	0.720749	-0.725406	0.000045
C197	C	1.054082	-0.392072	0.333378
C198	C	1.387415	-0.058739	0.666712
C199	C	0.669114	-0.694195	0.000035
C200	C	1.002447	-0.360861	0.333368
C201	C	1.335781	-0.027528	0.666702
C202	C	0.727506	-0.160758	0.000074
C203	C	1.060839	0.172575	0.333407
C204	C	1.394173	0.505908	0.666741
C205	C	0.728105	-0.110341	0.000082
C206	C	1.061438	0.222993	0.333415
C207	C	1.394772	0.556326	0.666748
C208	C	0.624235	-0.098337	0.000068
C209	C	0.957568	0.234996	0.333401
C210	C	1.290901	0.568329	0.666734
C211	C	0.623635	-0.148751	0.000063
C212	C	0.956969	0.184583	0.333396
C213	C	1.290302	0.517916	0.666730
C214	C	0.675276	-0.179961	0.000064
C215	C	1.008609	0.153373	0.333397
C216	C	1.341942	0.486706	0.666731
O217	O	0.578547	-0.223406	0.000066
O218	O	0.911880	0.109928	0.333400
O219	O	1.245213	0.443261	0.666733
O220	O	0.770721	-0.245659	0.000060
O221	O	1.104054	0.087675	0.333393
O222	O	1.437387	0.421008	0.666726
C223	C	0.723827	-0.468283	0.000046
C224	C	1.057161	-0.134950	0.333380
C225	C	1.390494	0.198383	0.666713
C226	C	0.671593	-0.487485	0.000036
C227	C	1.004926	-0.154152	0.333369
C228	C	1.338259	0.179182	0.666702
C229	C	0.619962	-0.456274	0.000030
C230	C	0.953295	-0.122941	0.333364
C231	C	1.286629	0.210393	0.666697
C232	C	0.670988	-0.537900	0.000036
C233	C	1.004322	-0.204567	0.333369
C234	C	1.337655	0.128766	0.666702
C235	C	0.722619	-0.569112	0.000041
C236	C	1.055953	-0.235778	0.333374
C237	C	1.389286	0.097555	0.666707
C238	C	0.774855	-0.549908	0.000046
C239	C	1.108188	-0.216574	0.333379
C240	C	1.441521	0.116759	0.666713
C241	C	0.775458	-0.499495	0.000051
C242	C	1.108791	-0.166161	0.333385
C243	C	1.442125	0.167172	0.666718
C244	C	0.567727	-0.475478	0.000025
C245	C	0.901060	-0.142145	0.333359
C246	C	1.234393	0.191189	0.666692
C247	C	0.567127	-0.525891	0.000021
C248	C	0.900461	-0.192558	0.333354
C249	C	1.233794	0.140775	0.666687
C250	C	0.618758	-0.557103	0.000026
C251	C	0.952092	-0.223769	0.333359
C252	C	1.285425	0.109564	0.666692
C253	C	0.776346	0.058894	0.000068
C254	C	1.109679	0.392227	0.333402
C255	C	1.443013	0.725560	0.666735
C256	C	0.839562	0.059544	0.000071
C257	C	1.172895	0.392877	0.333404
C258	C	1.506228	0.726210	0.666738
C259	C	0.667254	0.151319	0.000044
C260	C	1.000587	0.484652	0.333377
C261	C	1.333921	0.817985	0.666710
C262	C	0.667905	0.204975	0.000035
C263	C	1.001239	0.538308	0.333368
C264	C	1.334572	0.871641	0.666702
N265	N	0.672170	0.062939	0.153314
N266	N	1.005503	0.396273	0.486647
N267	N	1.338836	0.729606	0.819980
N268	N	0.672214	0.062902	-0.153197
N269	N	1.005548	0.396235	0.180136
N270	N	1.338881	0.729569	0.513470
C271	C	0.711209	0.029873	0.561964
C272	C	1.044542	0.363206	0.895298
C273	C	1.377876	0.696539	1.228631
C274	C	0.711212	0.029869	0.623884
C275	C	1.044545	0.363202	0.957218
C276	C	1.377879	0.696536	1.290551
O277	O	0.744380	0.001762	0.655911
O278	O	1.077714	0.335095	0.989244
O279	O	1.411047	0.668428	1.322578
N280	N	0.672200	0.062905	0.654851
N281	N	1.005533	0.396239	0.988184
N282	N	1.338866	0.729572	1.321517
C283	C	0.633178	0.095944	0.623894
C284	C	0.966511	0.429278	0.957228
C285	C	1.299844	0.762611	1.290561
O286	O	0.599995	0.124044	0.655919
O287	O	0.933328	0.457377	0.989253
O288	O	1.266661	0.790710	1.322586
C289	C	0.633173	0.095945	0.561975
C290	C	0.966506	0.429278	0.895309
C291	C	1.299839	0.762612	1.228642
C292	C	0.672191	0.062910	0.531012
C293	C	1.005525	0.396243	0.864345
C294	C	1.338858	0.729576	1.197679
C295	C	0.750224	-0.003160	0.531001
C296	C	1.083558	0.330173	0.864334
C297	C	1.416891	0.663506	1.197668
C298	C	0.750222	-0.003156	0.469085
C299	C	1.083555	0.330177	0.802419
C300	C	1.416889	0.663511	1.135752
C301	C	0.711204	0.029881	0.438133
C302	C	1.044538	0.363214	0.771466
C303	C	1.377871	0.696548	1.104800
C304	C	0.672189	0.062914	0.469096
C305	C	1.005522	0.396247	0.802430
C306	C	1.338856	0.729581	1.135763
C307	C	0.594149	0.128981	0.531020
C308	C	0.927482	0.462314	0.864353
C309	C	1.260815	0.795648	1.197687
C310	C	0.594146	0.128979	0.469097
C311	C	0.927480	0.462312	0.802430
C312	C	1.260813	0.795646	1.135764
C313	C	0.633165	0.095944	0.438134
C314	C	0.966499	0.429277	0.771467
C315	C	1.299832	0.762610	1.104800
C316	C	0.633169	0.095955	0.376229
C317	C	0.966502	0.429289	0.709562
C318	C	1.299836	0.762622	1.042895
N319	N	0.672182	0.062919	0.345262
N320	N	1.005515	0.396252	0.678595
N321	N	1.338848	0.729586	1.011929
C322	C	0.711199	0.029882	0.376214
C323	C	1.044532	0.363215	0.709548
C324	C	1.377866	0.696549	1.042881
C325	C	0.633191	0.095939	0.753928
C326	C	0.966524	0.429273	1.087261
C327	C	1.299858	0.762606	1.420595
C328	C	0.633198	0.095941	0.815846
C329	C	0.966532	0.429275	1.149179
C330	C	1.299865	0.762608	1.482512
C331	C	0.711232	0.029865	0.815831
C332	C	1.044565	0.363199	1.149165
C333	C	1.377899	0.696532	1.482498
C334	C	0.711227	0.029866	0.753912
C335	C	1.044560	0.363199	1.087246
C336	C	1.377894	0.696533	1.420579
C337	C	0.672203	0.062903	0.722961
C338	C	1.005537	0.396236	1.056295
C339	C	1.338870	0.729570	1.389628
C340	C	0.711192	0.029894	0.246187
C341	C	1.044525	0.363227	0.579520
C342	C	1.377858	0.696560	0.912854
C343	C	0.711187	0.029902	0.184266
C344	C	1.044521	0.363235	0.517599
C345	C	1.377854	0.696569	0.850933
C346	C	0.633152	0.095976	0.184286
C347	C	0.966485	0.429309	0.517619
C348	C	1.299819	0.762643	0.850952
C349	C	0.633158	0.095969	0.246201
C350	C	0.966491	0.429303	0.579535
C351	C	1.299825	0.762636	0.912868
C352	C	0.672180	0.062924	0.277150
C353	C	1.005513	0.396258	0.610484
C354	C	1.338847	0.729591	0.943817
O355	O	0.600016	0.124047	0.344163
O356	O	0.933349	0.457380	0.677496
O357	O	1.266683	0.790714	1.010829
O358	O	0.744372	0.001783	0.344182
O359	O	1.077705	0.335116	0.677515
O360	O	1.411038	0.668450	1.010848
H361	H	-0.141903	-0.020355	0.000076
H362	H	0.191430	0.312979	0.333409
H363	H	0.524763	0.646312	0.666742
H364	H	-0.167930	0.139553	0.000058
H365	H	0.165403	0.472886	0.333391
H366	H	0.498737	0.806220	0.666724
Cl367	Cl	0.785052	-0.815068	0.000044
Cl368	Cl	1.118385	-0.481735	0.333378
Cl369	Cl	1.451719	-0.148401	0.666711
Cl370	Cl	0.799272	-0.044691	0.430167
Cl371	Cl	1.132606	0.288642	0.763500
Cl372	Cl	1.465939	0.621976	1.096833
Cl373	Cl	0.799282	-0.044698	0.569902
Cl374	Cl	1.132615	0.288635	0.903235
Cl375	Cl	1.465948	0.621968	1.236569
H376	H	0.581099	-0.164385	0.000070
H377	H	0.914432	0.168949	0.333404
H378	H	1.247765	0.502282	0.666737
Cl379	Cl	0.545084	0.170513	0.430192
Cl380	Cl	0.878417	0.503846	0.763525
Cl381	Cl	1.211751	0.837180	1.096858
Cl382	Cl	0.841133	-0.475364	0.000060
Cl383	Cl	1.174467	-0.142031	0.333394
Cl384	Cl	1.507800	0.191302	0.666727
Cl385	Cl	0.559331	-0.059091	0.000060
Cl386	Cl	0.892664	0.274242	0.333393
Cl387	Cl	1.225998	0.607575	0.666726
Cl388	Cl	0.545093	0.170512	0.569933
Cl389	Cl	0.878426	0.503845	0.903266
Cl390	Cl	1.211759	0.837179	1.236600
H391	H	-0.034156	-0.019261	0.000084
H392	H	0.299177	0.314072	0.333417
H393	H	0.632510	0.647406	0.666751
Cl394	Cl	0.841582	-0.437898	0.000070
Cl395	Cl	1.174915	-0.104565	0.333403
Cl396	Cl	1.508249	0.228769	0.666736
Cl397	Cl	0.760280	-0.011666	0.714994
Cl398	Cl	1.093613	0.321667	1.048327
Cl399	Cl	1.426946	0.655000	1.381661
Cl400	Cl	0.584152	0.137479	0.854764
Cl401	Cl	0.917485	0.470813	1.188097
Cl402	Cl	1.250818	0.804146	1.521431
H403	H	0.743002	0.002964	0.841044
H404	H	1.076335	0.336297	1.174377
H405	H	1.409668	0.669631	1.507710
Cl406	Cl	0.551960	-0.674169	0.000018
Cl407	Cl	0.885293	-0.340835	0.333351
Cl408	Cl	1.218626	-0.007502	0.666684
Cl409	Cl	0.760244	-0.011630	0.145344
Cl410	Cl	1.093577	0.321703	0.478677
Cl411	Cl	1.426910	0.655036	0.812010
Cl412	Cl	0.793781	-0.086206	0.000095
Cl413	Cl	1.127115	0.247128	0.333428
Cl414	Cl	1.460448	0.580461	0.666761
H415	H	0.601415	0.122846	0.728730
H416	H	0.934748	0.456179	1.062064
H417	H	1.268081	0.789513	1.395397
Cl418	Cl	0.839761	-0.589154	0.000055
Cl419	Cl	1.173095	-0.255821	0.333389
Cl420	Cl	1.506428	0.077512	0.666722
H421	H	0.246253	-0.060550	0.000104
H422	H	0.579586	0.272784	0.333438
H423	H	0.912919	0.606117	0.666771
Cl424	Cl	0.842944	-0.324126	0.000065
Cl425	Cl	1.176277	0.009208	0.333398
Cl426	Cl	1.509611	0.342541	0.666731
Cl427	Cl	0.584110	0.137506	0.285125
Cl428	Cl	0.917443	0.470839	0.618458
Cl429	Cl	1.250777	0.804173	0.951792
H430	H	0.138506	-0.061648	0.000104
H431	H	0.471839	0.271685	0.333437
H432	H	0.805173	0.605018	0.666770
Cl433	Cl	0.215864	0.207150	0.000033
Cl434	Cl	0.549197	0.540483	0.333366
Cl435	Cl	0.882530	0.873817	0.666699
Cl436	Cl	0.584103	0.137507	0.145364
Cl437	Cl	0.917437	0.470841	0.478698
Cl438	Cl	1.250770	0.804174	0.812031
Cl439	Cl	0.394565	-0.034455	0.000074
Cl440	Cl	0.727898	0.298878	0.333407
Cl441	Cl	1.061231	0.632212	0.666740
H442	H	0.378542	0.145112	0.000040
H443	H	0.711875	0.478445	0.333374
H444	H	1.045208	0.811778	0.666707
Cl445	Cl	0.496268	0.165854	0.000016
Cl446	Cl	0.829601	0.499187	0.333350
Cl447	Cl	1.162934	0.832521	0.666683
Cl448	Cl	0.501449	-0.550023	0.000009
Cl449	Cl	0.834782	-0.216689	0.333343
Cl450	Cl	1.168115	0.116644	0.666676
H451	H	0.098146	0.186402	0.000045
H452	H	0.431479	0.519735	0.333379
H453	H	0.764813	0.853068	0.666712
H454	H	0.526389	-0.390270	0.000011
H455	H	0.859722	-0.056937	0.333345
H456	H	1.193055	0.276396	0.666678
Cl457	Cl	-0.050190	0.160306	0.000048
Cl458	Cl	0.283143	0.493639	0.333381
Cl459	Cl	0.616476	0.826973	0.666714
H460	H	0.512309	-0.013704	0.000054
H461	H	0.845642	0.319629	0.333388
H462	H	1.178975	0.652962	0.666721
H463	H	0.769556	-0.186164	0.000073
H464	H	1.102890	0.147169	0.333406
H465	H	1.436223	0.480503	0.666739
Cl466	Cl	0.786422	-0.701273	0.000058
Cl467	Cl	1.119756	-0.367939	0.333392
Cl468	Cl	1.453089	-0.034606	0.666725
H469	H	0.573737	-0.779443	0.000031
H470	H	0.907070	-0.446110	0.333364
H471	H	1.240403	-0.112776	0.666698
H472	H	0.742966	0.002985	0.271379
H473	H	1.076299	0.336318	0.604712
H474	H	1.409633	0.669651	0.938046
Cl475	Cl	0.504619	-0.284994	0.000010
Cl476	Cl	0.837953	0.048339	0.333344
Cl477	Cl	1.171286	0.381672	0.666677
Cl478	Cl	0.502812	-0.436248	0.000018
Cl479	Cl	0.836145	-0.102915	0.333351
Cl480	Cl	1.169479	0.230419	0.666684
