data_functionalizedCrystal
_audit_creation_method	'MofGen! by Chris Wilmer'
_symmetry_space_group_name_H-M	'P1'
_symmetry_Int_Tables_number	1
_symmetry_cell_setting	triclinic
loop_
_symmetry_equiv_pos_as_xyz
  x,y,z
_cell_length_a	16.109302
_cell_length_b	27.731996
_cell_length_c	14.586319
_cell_angle_alpha	90.009743
_cell_angle_beta	90.005448
_cell_angle_gamma	83.041584
loop_
_atom_site_label
_atom_site_type_symbol
_atom_site_fract_x
_atom_site_fract_y
_atom_site_fract_z
O1	O	1.102341	0.062133	0.076294
O2	O	0.860181	0.069865	0.076288
O3	O	0.988805	-0.004368	0.076271
O4	O	0.973718	0.136366	0.076311
O5	O	0.988796	-0.004369	-0.076210
O6	O	0.860172	0.069864	-0.076193
O7	O	1.102332	0.062132	-0.076187
Cu8	Cu	0.981251	0.065998	-0.090113
Cu9	Cu	0.981262	0.065999	0.090214
O10	O	0.973709	0.136365	-0.076170
C11	C	0.829206	0.069551	0.000047
C12	C	0.736922	0.068612	0.000044
C13	C	0.524604	0.066440	-0.083065
C14	C	0.437895	0.065552	-0.083062
C15	C	0.437916	0.065556	0.083181
C16	C	0.524624	0.066440	0.083177
C17	C	0.567965	0.066885	0.000051
C18	C	0.394548	0.065113	0.000058
C19	C	0.300535	0.064150	0.000062
C20	C	0.661985	0.067846	0.000047
C21	C	0.988490	-0.022377	0.000028
C22	C	0.987557	-0.076037	0.000018
C23	C	0.981688	-0.408777	0.083180
C24	C	0.978144	-0.610451	0.083196
O25	O	0.977654	-0.636523	0.153885
N26	N	0.977698	-0.635670	0.000080
C27	C	0.978134	-0.610468	-0.083047
O28	O	0.977666	-0.636546	-0.153742
C29	C	0.981673	-0.408795	-0.083062
C30	C	0.982127	-0.383579	0.000060
C31	C	0.982141	-0.383561	0.166295
C32	C	0.983032	-0.333146	0.166291
C33	C	0.983470	-0.307948	0.083171
C34	C	0.983017	-0.333164	0.000055
C35	C	0.982103	-0.383594	-0.166187
C36	C	0.982985	-0.333172	-0.166184
C37	C	0.983439	-0.307956	-0.083062
C38	C	0.984346	-0.257551	-0.083070
N39	N	0.984791	-0.232331	0.000047
C40	C	0.984353	-0.257530	0.083167
C41	C	0.976278	-0.716349	-0.083033
C42	C	0.975395	-0.766767	-0.083029
C43	C	0.975403	-0.766746	0.083214
C44	C	0.976292	-0.716328	0.083209
C45	C	0.976723	-0.691130	0.000084
C46	C	0.986224	-0.151655	0.083151
C47	C	0.987119	-0.101236	0.083138
C48	C	0.987106	-0.101261	-0.083104
C49	C	0.986216	-0.151676	-0.083093
C50	C	0.985773	-0.176871	0.000042
O51	O	0.984827	-0.231447	-0.153721
O52	O	0.984803	-0.231442	0.153852
C53	C	0.980798	-0.459192	0.083185
C54	C	0.980345	-0.484409	0.000070
C55	C	0.980783	-0.459210	-0.083050
C56	C	0.979462	-0.534827	0.000073
C57	C	0.979024	-0.560025	0.083193
C58	C	0.979469	-0.534806	0.166310
C59	C	0.980360	-0.484391	0.166305
C60	C	0.980338	-0.484430	-0.166167
C61	C	0.979448	-0.534845	-0.166155
C62	C	0.979010	-0.560043	-0.083035
C63	C	1.133308	0.062446	0.000056
C64	C	1.225591	0.063385	0.000065
C65	C	0.974023	0.154374	0.000075
C66	C	0.974957	0.208034	0.000091
N67	N	0.981250	0.065997	-0.216944
C68	C	1.038223	0.033137	-0.451958
C69	C	1.038226	0.033136	-0.547940
C70	C	0.924291	0.098858	-0.547934
C71	C	0.924285	0.098856	-0.451955
C72	C	0.981256	0.065997	-0.403969
C73	C	0.981264	0.065997	-0.595930
C74	C	0.981266	0.065996	-0.699997
C75	C	0.981253	0.065997	-0.299895
N76	N	0.981270	0.065997	0.217045
H77	H	0.402595	0.065190	-0.150744
H78	H	0.985859	-0.172163	0.150847
O79	O	0.395884	0.065197	0.163982
C80	C	0.407095	0.107260	0.214540
H81	H	0.466727	0.121847	0.190907
H82	H	0.351316	0.136061	0.203019
C83	C	0.340893	0.076683	0.346284
C84	C	0.414139	0.094596	0.317262
H85	H	0.345235	0.068873	0.409648
H86	H	0.333337	0.048345	0.312221
H87	H	0.294418	0.100687	0.336675
H88	H	0.460611	0.070591	0.326860
H89	H	0.421703	0.122930	0.351329
O90	O	0.566825	0.066939	0.163863
C91	C	0.606997	0.109295	0.168851
H92	H	0.616651	0.123374	0.096685
H93	H	0.566607	0.138252	0.209879
C94	C	0.680539	0.080133	0.304997
C95	C	0.692403	0.097423	0.216360
H96	H	0.733220	0.072812	0.334306
H97	H	0.653473	0.051598	0.301639
H98	H	0.646879	0.104268	0.339175
H99	H	0.726054	0.073287	0.182180
H100	H	0.719477	0.125954	0.219714
H101	H	0.979086	-0.555372	-0.233848
O102	O	0.987518	-0.076813	0.163969
C103	C	0.986959	-0.109870	0.237331
H104	H	0.959991	-0.143804	0.212961
H105	H	1.053590	-0.120318	0.262890
C106	C	0.965888	-0.044352	0.345792
C107	C	0.932760	-0.086028	0.315862
H108	H	0.932459	-0.029644	0.394236
H109	H	0.966268	-0.022080	0.296368
H110	H	1.021414	-0.053064	0.367085
H111	H	0.877240	-0.077315	0.294560
H112	H	0.932369	-0.108298	0.365285
H113	H	0.983398	-0.312619	0.233977
O114	O	0.981757	-0.407963	0.247127
C115	C	0.982323	-0.374883	0.320474
H116	H	1.009277	-0.340954	0.296085
H117	H	0.915695	-0.364433	0.346035
C118	C	1.003430	-0.440369	0.428963
C119	C	1.036542	-0.398699	0.399011
H120	H	1.036871	-0.455060	0.477410
H121	H	1.003045	-0.462656	0.379549
H122	H	0.947907	-0.431656	0.450257
H123	H	1.092059	-0.407414	0.377706
H124	H	1.036937	-0.376414	0.448423
O125	O	0.976688	-0.691906	0.164035
C126	C	0.976136	-0.724966	0.237393
H127	H	0.949177	-0.758902	0.213020
H128	H	1.042770	-0.735410	0.262950
C129	C	0.955054	-0.659451	0.345862
C130	C	0.921935	-0.701130	0.315928
H131	H	0.921623	-0.644748	0.394308
H132	H	0.955428	-0.637178	0.296440
H133	H	1.010581	-0.668160	0.367153
H134	H	0.866413	-0.692420	0.294627
H135	H	0.921550	-0.723402	0.365348
O136	O	0.868912	0.130824	-0.405474
C137	C	0.818620	0.159822	-0.468406
H138	H	0.852700	0.160378	-0.536818
H139	H	0.757070	0.144116	-0.478631
C140	C	0.758936	0.211281	-0.346899
C141	C	0.800796	0.211967	-0.430921
H142	H	0.747937	0.243446	-0.323776
H143	H	0.792816	0.191744	-0.304499
H144	H	0.707649	0.198191	-0.355431
H145	H	0.852087	0.225051	-0.422386
H146	H	0.766925	0.231507	-0.473319
O147	O	1.093646	0.001200	-0.594414
C148	C	1.143910	-0.027810	-0.531475
H149	H	1.144583	-0.007990	-0.463051
H150	H	1.117391	-0.063724	-0.521282
C151	C	1.232902	-0.062100	-0.652961
C152	C	1.233734	-0.037755	-0.568924
H153	H	1.288309	-0.068237	-0.676062
H154	H	1.199037	-0.042557	-0.695365
H155	H	1.210799	-0.092025	-0.644456
H156	H	1.255827	-0.007828	-0.577433
H157	H	1.267605	-0.057293	-0.526522
O158	O	0.869038	0.130760	-0.594691
C159	C	0.881245	0.123710	-0.689696
H160	H	0.947580	0.105653	-0.702800
H161	H	0.834510	0.099459	-0.716954
C162	C	0.786628	0.195334	-0.722860
C163	C	0.868105	0.173161	-0.738954
H164	H	0.778520	0.225837	-0.753246
H165	H	0.778401	0.200084	-0.658853
H166	H	0.747692	0.175120	-0.745575
H167	H	0.907040	0.193371	-0.716229
H168	H	0.876339	0.168416	-0.802959
O169	O	0.974928	-0.791183	-0.163856
C170	C	0.975524	-0.758125	-0.237214
H171	H	0.949825	-0.720178	-0.212841
H172	H	1.042341	-0.757849	-0.262772
C173	C	0.952192	-0.820257	-0.345682
C174	C	0.920622	-0.773650	-0.315748
H175	H	0.918329	-0.829833	-0.394129
H176	H	0.951794	-0.842529	-0.296261
H177	H	1.007872	-0.820020	-0.366974
H178	H	0.864947	-0.773888	-0.294447
H179	H	0.921010	-0.751378	-0.365169
H180	H	0.975047	-0.787271	0.150894
O181	O	0.566831	0.066889	-0.163728
C182	C	0.652664	0.067753	-0.145913
H183	H	0.660872	0.083172	-0.074478
H184	H	0.686503	0.029247	-0.149858
C185	C	0.679542	0.080944	-0.305359
C186	C	0.689623	0.099886	-0.217624
H187	H	0.702342	0.100764	-0.349595
H188	H	0.621715	0.080361	-0.317362
H189	H	0.707741	0.048857	-0.308633
H190	H	0.661415	0.131971	-0.214347
H191	H	0.747446	0.100476	-0.205621
H192	H	0.976633	-0.695838	-0.150728
H193	H	0.981735	-0.404116	-0.233874
H194	H	0.983324	-0.312657	-0.233876
O195	O	0.985747	-0.176097	-0.163917
C196	C	0.986352	-0.143044	-0.237281
H197	H	0.960663	-0.105094	-0.212914
H198	H	1.053170	-0.142775	-0.262839
C199	C	0.963003	-0.205177	-0.345738
C200	C	0.931445	-0.158567	-0.315812
H201	H	0.929138	-0.214753	-0.394182
H202	H	0.962599	-0.227446	-0.296313
H203	H	1.018685	-0.204947	-0.367031
H204	H	0.875769	-0.158799	-0.294510
H205	H	0.931839	-0.136298	-0.365236
H206	H	0.987467	-0.080735	-0.150779
H207	H	0.979116	-0.555331	0.233989
O208	O	0.980808	-0.460034	-0.246996
C209	C	0.980205	-0.493109	-0.320346
H210	H	1.005894	-0.531052	-0.295959
H211	H	0.913387	-0.493386	-0.345914
C212	C	1.003553	-0.431008	-0.428826
C213	C	1.035111	-0.477609	-0.398876
H214	H	1.037418	-0.421446	-0.477269
H215	H	1.003956	-0.408724	-0.379410
H216	H	0.947871	-0.431244	-0.450126
H217	H	1.090788	-0.477370	-0.377566
H218	H	1.034719	-0.499892	-0.448291
O219	O	1.093492	0.001243	-0.405202
C220	C	1.081243	0.008268	-0.310197
H221	H	1.049713	0.046703	-0.297063
H222	H	1.039853	-0.019081	-0.283012
C223	C	1.205091	-0.046241	-0.277012
C224	C	1.166372	0.000967	-0.260881
H225	H	1.257602	-0.050747	-0.246590
H226	H	1.213343	-0.050976	-0.341019
H227	H	1.170591	-0.069026	-0.254359
H228	H	1.200867	0.023751	-0.283545
H229	H	1.158128	0.005705	-0.196876
H230	H	0.980728	-0.463864	0.233992
