data_functionalizedCrystal
_audit_creation_method	'MofGen! by Chris Wilmer'
_symmetry_space_group_name_H-M	'P1'
_symmetry_Int_Tables_number	1
_symmetry_cell_setting	triclinic
loop_
_symmetry_equiv_pos_as_xyz
  x,y,z
_cell_length_a	19.188923
_cell_length_b	19.188924
_cell_length_c	18.266242
_cell_angle_alpha	89.991576
_cell_angle_beta	90.011115
_cell_angle_gamma	96.858228
loop_
_atom_site_label
_atom_site_type_symbol
_atom_site_fract_x
_atom_site_fract_y
_atom_site_fract_z
O1	O	-0.926151	0.087143	-0.060919
O2	O	-0.426151	0.587143	0.439081
O3	O	-0.722838	0.098883	-0.060913
O4	O	-0.222838	0.598883	0.439087
O5	O	-0.830364	-0.008643	-0.060908
O6	O	-0.330364	0.491357	0.439092
O7	O	-0.818625	0.194669	-0.060925
O8	O	-0.318625	0.694669	0.439075
O9	O	-0.830346	-0.008649	0.060854
O10	O	-0.330346	0.491351	0.560854
O11	O	-0.722820	0.098877	0.060849
O12	O	-0.222820	0.598877	0.560849
O13	O	-0.926132	0.087137	0.060843
O14	O	-0.426132	0.587137	0.560843
Zn15	Zn	-0.824473	0.093007	0.080178
Zn16	Zn	-0.324473	0.593007	0.580178
Zn17	Zn	-0.824497	0.093014	-0.080249
Zn18	Zn	-0.324497	0.593014	0.419751
O19	O	-0.818607	0.194664	0.060837
O20	O	-0.318607	0.694664	0.560837
C21	C	-0.696818	0.098501	-0.000032
C22	C	-0.196818	0.598501	0.499968
C23	C	-0.619313	0.097362	-0.000029
C24	C	-0.119313	0.597362	0.499971
C25	C	-0.057541	0.152831	-0.000024
C26	C	0.442459	0.652831	0.499976
C27	C	-0.130364	0.153907	-0.000029
C28	C	0.369636	0.653907	0.499971
C29	C	-0.175300	0.090815	-0.000024
C30	C	0.324700	0.590815	0.499976
C31	C	-0.147408	0.026641	-0.000031
C32	C	0.352592	0.526641	0.499969
C33	C	-0.074586	0.025567	-0.000033
C34	C	0.425414	0.525567	0.499967
N35	N	-0.295973	0.045135	0.041426
N36	N	0.204027	0.545135	0.541426
N37	N	-0.365150	0.046160	0.041430
N38	N	0.134850	0.546160	0.541430
C39	C	-0.394710	0.094047	-0.000020
C40	C	0.105290	0.594047	0.499980
N41	N	-0.352477	0.140881	-0.041464
N42	N	0.147523	0.640881	0.458536
N43	N	-0.283293	0.139858	-0.041464
N44	N	0.216707	0.639858	0.458536
C45	C	-0.254265	0.091972	-0.000022
C46	C	0.245735	0.591972	0.499978
C47	C	-0.501557	0.159383	-0.000024
C48	C	-0.001557	0.659383	0.499976
C49	C	-0.574382	0.160456	-0.000034
C50	C	-0.074382	0.660456	0.499966
C51	C	-0.591425	0.033188	-0.000028
C52	C	-0.091425	0.533188	0.499972
C53	C	-0.518601	0.032116	-0.000025
C54	C	-0.018601	0.532116	0.499975
C55	C	-0.473671	0.095216	-0.000020
C56	C	0.026329	0.595216	0.499980
C57	C	-0.829976	-0.034657	-0.000026
C58	C	-0.329976	0.465343	0.499974
C59	C	-0.828837	-0.112162	-0.000024
C60	C	-0.328837	0.387838	0.499976
C61	C	-0.828315	-0.148558	-0.066397
C62	C	-0.328315	0.351442	0.433603
C63	C	-0.827235	-0.221380	-0.066402
C64	C	-0.327235	0.278620	0.433598
C65	C	-0.826691	-0.257806	-0.000031
C66	C	-0.326691	0.242194	0.499969
C67	C	-0.827209	-0.221401	0.066350
C68	C	-0.327209	0.278599	0.566350
C69	C	-0.828282	-0.148579	0.066354
C70	C	-0.328282	0.351421	0.566354
N71	N	-0.864732	-0.377473	0.049366
N72	N	-0.364732	0.122527	0.549366
N73	N	-0.863714	-0.446651	0.049358
N74	N	-0.363714	0.053349	0.549358
C75	C	-0.823457	-0.477215	-0.000038
C76	C	-0.323457	0.022785	0.499962
N77	N	-0.784265	-0.435989	-0.049437
N78	N	-0.284265	0.064011	0.450563
N79	N	-0.785286	-0.366805	-0.049432
N80	N	-0.285286	0.133195	0.450568
C81	C	-0.825527	-0.336770	-0.000028
C82	C	-0.325527	0.163230	0.499972
C83	C	-0.821763	-0.592574	-0.066422
C84	C	-0.321763	-0.092574	0.433578
C85	C	-0.820679	-0.665397	-0.066424
C86	C	-0.320679	-0.165397	0.433576
C87	C	-0.820660	-0.665417	0.066330
C88	C	-0.320660	-0.165417	0.566330
C89	C	-0.821737	-0.592594	0.066331
C90	C	-0.321737	-0.092594	0.566331
C91	C	-0.822292	-0.556177	-0.000047
C92	C	-0.322292	-0.056177	0.499953
C93	C	0.047848	0.087522	-0.000035
C94	C	0.547848	0.587522	0.499965
C95	C	-0.029656	0.088666	-0.000027
C96	C	0.470344	0.588666	0.499973
C97	C	-0.818995	0.220677	-0.000046
C98	C	-0.318995	0.720677	0.499954
C99	C	-0.820134	0.298182	-0.000053
C100	C	-0.320134	0.798182	0.499947
N101	N	-0.824462	0.093001	0.189665
N102	N	-0.324462	0.593001	0.689665
N103	N	-0.824514	0.093014	-0.189736
N104	N	-0.324514	0.593014	0.310264
C105	C	-0.872090	0.045412	0.227976
C106	C	-0.372090	0.545412	0.727976
C107	C	-0.872095	0.045409	0.304621
C108	C	-0.372095	0.545409	0.804621
C109	C	-0.824478	0.093007	0.342952
C110	C	-0.324478	0.593007	0.842952
C111	C	-0.776841	0.140600	0.304631
C112	C	-0.276841	0.640600	0.804631
C113	C	-0.776833	0.140597	0.227988
C114	C	-0.276833	0.640597	0.727988
N115	N	-0.815400	0.154815	0.463279
N116	N	-0.315400	0.654815	0.963279
N117	N	-0.815412	0.154815	0.536087
N118	N	-0.315412	0.654815	1.036087
C119	C	-0.824497	0.093017	0.573874
C120	C	-0.324497	0.593017	1.073874
N121	N	-0.833584	0.031216	0.536103
N122	N	-0.333584	0.531216	1.036103
N123	N	-0.833576	0.031216	0.463288
N124	N	-0.333576	0.531216	0.963288
C125	C	-0.824480	0.093015	0.426059
C126	C	-0.324480	0.593015	0.926059
C127	C	-0.872133	0.045420	0.695293
C128	C	-0.372133	0.545420	1.195293
C129	C	-0.872132	0.045416	0.771939
C130	C	-0.372132	0.545416	1.271939
C131	C	-0.776882	0.140613	0.771948
C132	C	-0.276882	0.640613	1.271948
C133	C	-0.776879	0.140611	0.695303
C134	C	-0.276879	0.640611	1.195303
C135	C	-0.824508	0.093015	0.656980
C136	C	-0.324508	0.593015	1.156980
H137	H	-0.495897	-0.020134	-0.000024
H138	H	0.004103	0.479866	0.499976
O139	O	-0.822349	-0.557091	-0.130832
O140	O	-0.322349	-0.057091	0.369168
C141	C	-0.823407	-0.485011	-0.116597
C142	C	-0.323407	0.014989	0.383403
H143	H	-0.845627	-0.478038	-0.059545
H144	H	-0.345627	0.021962	0.440455
H145	H	-0.857734	-0.461879	-0.158973
H146	H	-0.357734	0.038121	0.341027
H147	H	-0.767718	-0.456831	-0.119763
H148	H	-0.267718	0.043169	0.380237
H149	H	-0.153073	0.206160	-0.000020
H150	H	0.346927	0.706160	0.499980
O151	O	-0.918428	-0.000720	0.809239
O152	O	-0.418428	0.499280	1.309239
C153	C	-0.961392	0.036571	0.853541
C154	C	-0.461392	0.536571	1.353541
H155	H	-0.933410	0.091275	0.865020
H156	H	-0.433410	0.591275	1.365020
H157	H	-0.972533	0.007403	0.907440
H158	H	-0.472533	0.507403	1.407440
H159	H	-1.012975	0.041191	0.823990
H160	H	-0.512975	0.541191	1.323990
O161	O	-0.918427	-0.000851	0.341734
O162	O	-0.418427	0.499149	0.841734
C163	C	-0.960447	-0.042876	0.291474
C164	C	-0.460447	0.457124	0.791474
H165	H	-0.961145	-0.014255	0.236833
H166	H	-0.461145	0.485745	0.736833
H167	H	-1.016236	-0.053668	0.313608
H168	H	-0.516236	0.446332	0.813608
H169	H	-0.937938	-0.094688	0.283339
H170	H	-0.437938	0.405312	0.783339
H171	H	-0.464973	0.210762	-0.000020
H172	H	0.035027	0.710762	0.499980
H173	H	-0.820251	-0.695029	-0.120475
H174	H	-0.320251	-0.195029	0.379525
O175	O	-0.730692	0.186822	0.809286
O176	O	-0.230692	0.686822	1.309286
C177	C	-0.740896	0.176607	0.885150
C178	C	-0.240896	0.676607	1.385150
H179	H	-0.796486	0.150375	0.895607
H180	H	-0.296486	0.650375	1.395607
H181	H	-0.732962	0.229502	0.914272
H182	H	-0.232962	0.729502	1.414272
H183	H	-0.701492	0.141684	0.906916
H184	H	-0.201492	0.641684	1.406916
O185	O	-0.918159	-0.001041	0.190782
O186	O	-0.418159	0.498959	0.690782
C187	C	-0.880725	-0.044017	0.146645
C188	C	-0.380725	0.455983	0.646645
H189	H	-0.826098	-0.015903	0.135066
H190	H	-0.326098	0.484097	0.635066
H191	H	-0.909888	-0.055439	0.092786
H192	H	-0.409888	0.444561	0.592786
H193	H	-0.875921	-0.095459	0.176390
H194	H	-0.375921	0.404541	0.676390
O195	O	-0.826653	-0.256670	0.130888
O196	O	-0.326653	0.243330	0.630888
C197	C	-0.827362	-0.208928	0.189474
C198	C	-0.327362	0.291072	0.689474
H199	H	-0.806028	-0.154056	0.170019
H200	H	-0.306028	0.345944	0.670019
H201	H	-0.793155	-0.225440	0.235895
H202	H	-0.293155	0.274560	0.735895
H203	H	-0.883474	-0.208684	0.209883
H204	H	-0.383474	0.291316	0.709883
H205	H	-0.183999	-0.024729	-0.000029
H206	H	0.316001	0.475271	0.499971
O207	O	-0.047612	-0.036827	0.000000
O208	O	0.452388	0.463173	0.500000
C209	C	-0.102885	-0.092286	-0.000019
C210	C	0.397115	0.407714	0.499981
H211	H	-0.152295	-0.072870	0.023031
H212	H	0.347705	0.427130	0.523031
H213	H	-0.087798	-0.137103	0.035334
H214	H	0.412202	0.362897	0.535334
H215	H	-0.113258	-0.111732	-0.058434
H216	H	0.386742	0.388268	0.441566
H217	H	-0.820211	-0.695074	0.120370
H218	H	-0.320211	-0.195074	0.620370
H219	H	-0.738098	0.179366	0.664108
H220	H	-0.238098	0.679366	1.164108
H221	H	-0.597083	0.212709	-0.000037
H222	H	-0.097083	0.712709	0.499963
H223	H	-0.020963	0.204212	-0.000023
H224	H	0.479037	0.704212	0.499977
H225	H	-0.828765	-0.118911	-0.120447
H226	H	-0.328765	0.381089	0.379553
O227	O	-0.635166	-0.028037	0.000007
O228	O	-0.135166	0.471963	0.500007
C229	C	-0.705421	-0.013332	-0.000014
C230	C	-0.205421	0.486668	0.499986
H231	H	-0.708041	0.041498	0.023038
H232	H	-0.208041	0.541498	0.523038
H233	H	-0.738535	-0.053567	0.035335
H234	H	-0.238535	0.446433	0.535335
H235	H	-0.726498	-0.016035	-0.058431
H236	H	-0.226498	0.483965	0.441569
O237	O	-0.730637	0.186928	0.190802
O238	O	-0.230637	0.686928	0.690802
C239	C	-0.741759	0.256017	0.209531
C240	C	-0.241759	0.756017	0.709531
H241	H	-0.797657	0.256218	0.230586
H242	H	-0.297657	0.756218	0.730586
H243	H	-0.733616	0.291078	0.159124
H244	H	-0.233616	0.791078	0.659124
H245	H	-0.703000	0.276621	0.254026
H246	H	-0.203000	0.776621	0.754026
H247	H	-0.822167	-0.562961	0.120378
H248	H	-0.322167	-0.062961	0.620378
O249	O	-0.730558	0.186741	0.341944
O250	O	-0.230558	0.686741	0.841944
C251	C	-0.687599	0.149456	0.386287
C252	C	-0.187599	0.649456	0.886287
H253	H	-0.715580	0.094752	0.397771
H254	H	-0.215580	0.594752	0.897771
H255	H	-0.676470	0.178628	0.440181
H256	H	-0.176470	0.678628	0.940181
H257	H	-0.636011	0.144838	0.356769
H258	H	-0.136011	0.644838	0.856769
O259	O	-0.918418	-0.000885	0.658174
O260	O	-0.418418	0.499115	1.158174
C261	C	-0.960465	-0.042884	0.708429
C262	C	-0.460465	0.457116	1.208429
H263	H	-0.931847	-0.043601	0.763071
H264	H	-0.431847	0.456399	1.263071
H265	H	-0.971288	-0.098671	0.686290
H266	H	-0.471288	0.401329	1.186290
H267	H	-1.012260	-0.020344	0.716562
H268	H	-0.512260	0.479656	1.216562
H269	H	-0.826806	-0.251019	-0.120453
H270	H	-0.326806	0.248981	0.379547
H271	H	-0.828703	-0.118945	0.120404
H272	H	-0.328703	0.381055	0.620404
