data_functionalizedCrystal
_audit_creation_method	'MofGen! by Chris Wilmer'
_symmetry_space_group_name_H-M	'P1'
_symmetry_Int_Tables_number	1
_symmetry_cell_setting	triclinic
loop_
_symmetry_equiv_pos_as_xyz
  x,y,z
_cell_length_a	17.699083
_cell_length_b	13.339070
_cell_length_c	16.776229
_cell_angle_alpha	89.996888
_cell_angle_beta	89.998886
_cell_angle_gamma	99.456154
loop_
_atom_site_label
_atom_site_type_symbol
_atom_site_fract_x
_atom_site_fract_y
_atom_site_fract_z
O1	O	1.031106	0.127864	-0.066171
O2	O	0.814244	0.144499	-0.066196
O3	O	0.897786	-0.011021	-0.066184
O4	O	0.947563	0.283384	-0.066183
O5	O	0.897768	-0.011031	0.066392
O6	O	0.814226	0.144489	0.066380
O7	O	1.031088	0.127854	0.066406
Zn8	Zn	0.922654	0.136170	0.087442
Zn9	Zn	0.922677	0.136183	-0.087233
O10	O	0.947546	0.283374	0.066394
C11	C	0.785912	0.143898	0.000089
C12	C	0.701516	0.142110	0.000079
C13	C	0.672191	0.233397	0.000079
C14	C	0.592891	0.231710	0.000090
C15	C	0.542918	0.138736	0.000094
C16	C	0.572248	0.047442	0.000096
C17	C	0.651546	0.049129	0.000091
C18	C	0.252446	0.040635	0.000115
C19	C	0.173143	0.038955	0.000117
C20	C	0.193791	0.223216	0.000114
C21	C	0.273089	0.224904	0.000109
C22	C	0.302412	0.133610	0.000115
C23	C	0.388398	0.135440	0.000106
C24	C	0.456933	0.136906	0.000098
C25	C	0.889369	-0.048694	0.000102
C26	C	0.864305	-0.160935	0.000096
C27	C	1.059185	-0.526207	0.000119
C28	C	1.082736	-0.420752	0.000129
C29	C	1.028130	-0.355792	0.000121
C30	C	0.949970	-0.396298	0.000102
C31	C	0.926417	-0.501763	0.000098
C32	C	0.895362	-0.331349	0.000100
C33	C	0.817202	-0.371855	0.000082
C34	C	0.793652	-0.477310	0.000077
C35	C	0.848258	-0.542269	0.000086
C36	C	0.918915	-0.225884	0.000104
C37	C	0.786147	-0.201441	0.000083
C38	C	0.762596	-0.306895	0.000073
C39	C	1.059420	0.128455	0.000119
C40	C	1.143816	0.130243	0.000124
C41	C	0.955963	0.321047	0.000106
C42	C	0.981027	0.433288	0.000107
N43	N	0.922644	0.136161	0.206654
N44	N	0.922692	0.136184	-0.206444
C45	C	0.959658	0.067325	0.248376
C46	C	0.959662	0.067324	0.331828
C47	C	0.922656	0.136165	0.373556
C48	C	0.885638	0.205004	0.331828
C49	C	0.885629	0.204999	0.248378
C50	C	0.885669	0.205024	0.668375
C51	C	0.885682	0.205026	0.751832
C52	C	0.959702	0.067349	0.751826
C53	C	0.959694	0.067344	0.668375
C54	C	0.922672	0.136179	0.626654
C55	C	0.922667	0.136178	0.536166
C56	C	0.922666	0.136172	0.464043
H57	H	0.531553	-0.028259	0.000110
H58	H	0.169907	0.297552	0.000113
C59	C	0.118169	-0.063319	0.000125
H60	H	0.066743	-0.051244	0.000117
H61	H	0.126920	-0.100901	0.046358
H62	H	0.126923	-0.100897	-0.046112
H63	H	0.989831	0.011291	0.634403
H64	H	0.698956	-0.339890	0.000059
H65	H	1.047310	-0.269927	0.000129
C66	C	1.000364	-0.008403	0.202482
H67	H	1.022402	-0.049405	0.239286
H68	H	1.039491	0.027911	0.169920
H69	H	0.964302	-0.050453	0.169938
H70	H	0.855487	0.261051	0.214408
H71	H	0.712875	0.309107	0.000075
H72	H	0.855502	0.261052	0.365808
H73	H	0.276310	-0.033702	0.000121
C74	C	1.000387	-0.008386	0.377720
H75	H	1.022435	-0.049375	0.340916
H76	H	0.964345	-0.050436	0.410283
H77	H	1.039522	0.027951	0.410264
C78	C	0.560636	0.332126	0.000088
H79	H	0.601756	0.387739	0.000075
H80	H	0.530134	0.335301	0.046323
H81	H	0.530129	0.335298	-0.046148
H82	H	0.829087	-0.628140	0.000074
C83	C	1.168704	-0.376202	0.000141
H84	H	1.197853	-0.429990	0.000137
H85	H	1.180647	-0.335574	0.046374
H86	H	1.180655	-0.335567	-0.046097
H87	H	0.989845	0.011296	0.785804
H88	H	1.103637	-0.579105	0.000133
C89	C	0.844956	0.280736	0.797732
H90	H	0.822896	0.321721	0.760933
H91	H	0.881002	0.322790	0.830284
H92	H	0.805831	0.244391	0.830288
H93	H	0.982554	-0.192915	0.000119
C94	C	0.683804	-0.051286	0.000082
H95	H	0.642685	-0.106900	0.000077
H96	H	0.714311	-0.054465	0.046311
H97	H	0.714306	-0.054450	-0.046159
C98	C	0.707679	-0.521864	0.000063
H99	H	0.678530	-0.468076	0.000052
H100	H	0.695723	-0.562502	0.046293
H101	H	0.695742	-0.562489	-0.046178
H102	H	0.855526	0.261074	0.634413
H103	H	0.741682	-0.148550	0.000080
H104	H	0.313775	0.300613	0.000102
