data_functionalizedCrystal
_audit_creation_method	'MofGen! by Chris Wilmer'
_symmetry_space_group_name_H-M	'P1'
_symmetry_Int_Tables_number	1
_symmetry_cell_setting	triclinic
loop_
_symmetry_equiv_pos_as_xyz
  x,y,z
_cell_length_a	10.723024
_cell_length_b	10.540539
_cell_length_c	9.198806
_cell_angle_alpha	89.998955
_cell_angle_beta	89.996352
_cell_angle_gamma	84.496680
loop_
_atom_site_label
_atom_site_type_symbol
_atom_site_fract_x
_atom_site_fract_y
_atom_site_fract_z
O1	O	1.657276	0.178046	-0.120876
O2	O	1.294132	0.195088	-0.120880
O3	O	1.483989	0.001856	-0.120876
O4	O	1.467419	0.371278	-0.120880
O5	O	1.483974	0.001856	0.120909
O6	O	1.294117	0.195088	0.120905
O7	O	1.657261	0.178045	0.120909
Cu8	Cu	1.475688	0.186567	0.142984
Cu9	Cu	1.475706	0.186567	-0.142955
O10	O	1.467404	0.371277	0.120905
C11	C	1.247624	0.193848	0.000012
C12	C	1.109068	0.190137	0.000010
C13	C	1.034139	0.298260	0.000008
C14	C	0.890934	0.294427	0.000006
C15	C	1.482739	-0.045446	0.000014
C16	C	1.479021	-0.186392	0.000006
C17	C	1.336563	-0.369746	-0.000538
C18	C	1.340332	-0.223130	0.000006
C19	C	1.545756	-0.248085	0.138078
C20	C	1.541023	-0.394627	0.138194
C21	C	1.543861	-0.395146	-0.136760
C22	C	1.545138	-0.248164	-0.138586
C23	C	1.703769	0.179286	0.000014
C24	C	1.842325	0.182997	0.000007
C25	C	1.468654	0.418580	0.000012
C26	C	1.472372	0.559526	0.000011
N27	N	1.475684	0.186565	0.344098
N28	N	1.475719	0.186558	-0.344069
C29	C	1.555399	0.105075	0.416297
C30	C	1.555419	0.105071	0.583709
H31	H	1.067199	0.094732	-0.000026
H32	H	1.407446	0.256325	0.406225
N33	N	1.086631	0.417962	0.000027
N34	N	1.062906	0.494938	0.101947
H35	H	1.099974	0.579482	0.101963
H36	H	1.623629	0.035306	0.354172
H37	H	1.498980	-0.426675	-0.241410
N38	N	1.483953	-0.196777	-0.266718
N39	N	1.391995	-0.114961	-0.256118
H40	H	1.348778	-0.078661	-0.346609
H41	H	1.287441	-0.181347	0.099145
N42	N	1.641029	0.017550	0.661609
N43	N	1.640920	0.017666	0.797493
H44	H	1.701381	-0.044152	0.852515
N45	N	1.669526	-0.454457	-0.137970
N46	N	1.742439	-0.430951	-0.238355
H47	H	1.831186	-0.472845	-0.239203
H48	H	0.826548	0.386988	-0.000001
N49	N	1.390095	0.274108	0.578088
N50	N	1.393157	0.391435	0.594980
H51	H	1.332685	0.453270	0.539996
N52	N	0.923098	0.066879	0.000025
N53	N	0.998848	0.043152	0.101945
H54	H	1.055905	-0.038856	0.101960
H55	H	1.287821	-0.180499	-0.098969
H56	H	1.281784	-0.398318	-0.099552
N57	N	1.268115	-0.407615	0.122976
N58	N	1.318919	-0.486466	0.211406
H59	H	1.270580	-0.513215	0.298641
N60	N	1.479134	-0.429960	0.267674
N61	N	1.439729	-0.346429	0.357322
H62	H	1.396016	-0.371376	0.448770
H63	H	1.647605	-0.225783	0.143213
N64	N	1.666150	-0.454857	0.146074
N65	N	1.756691	-0.388625	0.151479
H66	H	1.845061	-0.431156	0.157054
N67	N	1.487578	-0.194610	0.266966
N68	N	1.396981	-0.111083	0.257494
H69	H	1.355884	-0.073317	0.348518
N70	N	1.671977	-0.217815	-0.149050
N71	N	1.715908	-0.149869	-0.054104
H72	H	1.805491	-0.128428	-0.061488
