data_functionalizedCrystal
_audit_creation_method	'MofGen! by Chris Wilmer'
_symmetry_space_group_name_H-M	'P1'
_symmetry_Int_Tables_number	1
_symmetry_cell_setting	triclinic
loop_
_symmetry_equiv_pos_as_xyz
  x,y,z
_cell_length_a	16.956984
_cell_length_b	16.992695
_cell_length_c	14.586319
_cell_angle_alpha	89.995905
_cell_angle_beta	89.996078
_cell_angle_gamma	83.360821
loop_
_atom_site_label
_atom_site_type_symbol
_atom_site_fract_x
_atom_site_fract_y
_atom_site_fract_z
O1	O	1.060100	0.032353	-0.076245
O2	O	1.560100	0.532353	0.423755
O3	O	0.829689	0.059768	-0.076246
O4	O	1.329689	0.559768	0.423754
O5	O	0.943971	-0.068022	-0.076238
O6	O	1.443971	0.431978	0.423762
O7	O	0.945818	0.160143	-0.076253
O8	O	1.445818	0.660143	0.423747
O9	O	0.943962	-0.068023	0.076243
O10	O	1.443962	0.431977	0.576243
O11	O	0.829681	0.059767	0.076235
O12	O	1.329681	0.559767	0.576235
O13	O	1.060091	0.032352	0.076236
O14	O	1.560091	0.532352	0.576236
Cu15	Cu	0.944885	0.046059	0.090158
Cu16	Cu	1.444885	0.546059	0.590158
Cu17	Cu	0.944895	0.046061	-0.090168
Cu18	Cu	1.444895	0.546061	0.409832
O19	O	0.945810	0.160142	0.076228
O20	O	1.445810	0.660142	0.576228
C21	C	0.800066	0.061172	-0.000006
C22	C	1.300066	0.561172	0.499994
C23	C	0.711812	0.065345	-0.000006
C24	C	1.211812	0.565345	0.499994
C25	C	0.941590	-0.097081	0.000002
C26	C	1.441590	0.402919	0.500002
C27	C	0.934500	-0.183666	0.000002
C28	C	1.434500	0.316334	0.500002
C29	C	0.675280	-0.004440	0.000000
C30	C	1.175280	0.495560	0.500000
C31	C	0.592355	-0.000513	-0.000007
C32	C	1.092355	0.499487	0.499993
C33	C	0.545963	0.073199	-0.000013
C34	C	1.045963	0.573199	0.499987
C35	C	0.582500	0.142990	-0.000022
C36	C	1.082500	0.642990	0.499978
C37	C	0.665424	0.139063	-0.000022
C38	C	1.165424	0.639063	0.499978
C39	C	0.297429	0.092638	-0.000021
C40	C	0.797429	0.592638	0.499979
C41	C	0.214500	0.096560	-0.000018
C42	C	0.714500	0.596560	0.499982
C43	C	0.224362	-0.046944	-0.000005
C44	C	0.724362	0.453056	0.499995
C45	C	0.307286	-0.050864	0.000001
C46	C	0.807286	0.449136	0.500001
C47	C	0.343816	0.018926	-0.000013
C48	C	0.843816	0.518926	0.499987
N49	N	0.461200	0.077214	-0.000017
N50	N	0.961200	0.577214	0.499983
N51	N	0.428577	0.014910	-0.000015
N52	N	0.928577	0.514910	0.499985
C53	C	1.002915	-0.238341	0.000003
C54	C	1.502915	0.261659	0.500003
C55	C	0.996247	-0.319695	-0.000006
C56	C	1.496247	0.180305	0.499994
C57	C	0.921165	-0.346373	-0.000009
C58	C	1.421165	0.153627	0.499991
C59	C	0.852745	-0.291691	-0.000013
C60	C	1.352745	0.208309	0.499987
C61	C	0.859412	-0.210338	-0.000011
C62	C	1.359412	0.289662	0.499989
C63	C	0.893529	-0.588180	-0.000022
C64	C	1.393529	-0.088180	0.499978
C65	C	0.886866	-0.669539	-0.000021
C66	C	1.386866	-0.169539	0.499979
C67	C	1.030370	-0.697538	-0.000015
C68	C	1.530370	-0.197538	0.499985
C69	C	1.037031	-0.616182	-0.000008
C70	C	1.537031	-0.116182	0.499992
C71	C	0.968611	-0.561507	-0.000017
C72	C	1.468611	-0.061507	0.499983
N73	N	0.914348	-0.429530	-0.000015
N74	N	1.414348	0.070470	0.499985
N75	N	0.975428	-0.478352	-0.000017
N76	N	1.475428	0.021648	0.499983
C77	C	1.089714	0.030948	-0.000006
C78	C	1.589714	0.530948	0.499994
C79	C	1.177969	0.026774	-0.000012
C80	C	1.677969	0.526774	0.499988
C81	C	0.948191	0.189201	-0.000014
C82	C	1.448191	0.689201	0.499986
C83	C	0.955281	0.275786	-0.000020
C84	C	1.455281	0.775786	0.499980
N85	N	0.944884	0.046057	0.216990
N86	N	1.444884	0.546057	0.716990
N87	N	0.944903	0.046056	-0.217000
N88	N	1.444903	0.546056	0.283000
C89	C	0.995507	-0.010512	0.452000
C90	C	1.495507	0.489488	0.952000
C91	C	0.995509	-0.010514	0.547981
C92	C	1.495509	0.489486	1.047981
C93	C	0.894274	0.102628	0.547983
C94	C	1.394274	0.602628	1.047983
C95	C	0.894269	0.102626	0.452004
C96	C	1.394269	0.602626	0.952004
C97	C	0.944889	0.046057	0.404015
C98	C	1.444889	0.546057	0.904015
C99	C	0.944897	0.046057	0.595975
C100	C	1.444897	0.546057	1.095975
C101	C	0.944899	0.046055	0.700042
C102	C	1.444899	0.546055	1.200042
C103	C	0.944887	0.046057	0.299941
C104	C	1.444887	0.546057	0.799941
H105	H	0.713048	-0.064465	0.000009
H106	H	1.213048	0.435535	0.500009
H107	H	0.853046	0.148691	0.412932
H108	H	1.353046	0.648691	0.912932
H109	H	0.791610	-0.313419	-0.000022
H110	H	1.291610	0.186581	0.499978
H111	H	1.036724	-0.056575	0.412929
H112	H	1.536724	0.443425	0.912929
H113	H	0.176729	0.156589	-0.000019
H114	H	0.676729	0.656589	0.499981
H115	H	0.562616	-0.057340	-0.000003
H116	H	1.062616	0.442660	0.499997
O117	O	1.050113	-0.071517	0.599740
O118	O	1.550113	0.428483	1.099740
H119	H	1.085316	-0.110845	0.550242
H120	H	1.585316	0.389155	1.050242
H121	H	0.853061	0.148686	0.587066
H122	H	1.353061	0.648686	1.087066
O123	O	1.118019	-0.587421	-0.000012
O124	O	1.618019	-0.087421	0.499988
H125	H	1.124493	-0.551038	0.062142
H126	H	1.624493	-0.051038	0.562142
O127	O	0.357324	-0.130368	0.000014
O128	O	0.857324	0.369632	0.500014
H129	H	0.317990	-0.178237	0.000014
H130	H	0.817990	0.321763	0.500014
H131	H	0.194610	-0.103763	-0.000004
H132	H	0.694610	0.396237	0.499996
O133	O	0.532460	0.222492	-0.000024
O134	O	1.032460	0.722492	0.499976
H135	H	0.546006	0.256144	-0.062179
H136	H	1.046006	0.756144	0.437821
H137	H	0.327161	0.149466	-0.000038
H138	H	0.827161	0.649466	0.499962
O139	O	0.704832	0.214330	-0.000017
O140	O	1.204832	0.714330	0.499983
H141	H	0.658643	0.266247	-0.000011
H142	H	1.158643	0.766247	0.499989
H143	H	1.064055	-0.216627	0.000012
H144	H	1.564055	0.283373	0.500012
H145	H	1.086073	-0.742062	-0.000010
H146	H	1.586073	-0.242062	0.499990
O147	O	1.070037	-0.378669	0.000011
O148	O	1.570037	0.121331	0.500011
H149	H	1.123366	-0.346451	0.000030
H150	H	1.623366	0.153549	0.500030
H151	H	0.825722	-0.691256	-0.000009
H152	H	1.325722	-0.191256	0.499991
O153	O	0.819737	-0.529213	-0.000008
O154	O	1.319737	-0.029213	0.499992
H155	H	0.766410	-0.561435	0.000006
H156	H	1.266410	-0.061435	0.500006
H157	H	0.803701	-0.165822	-0.000012
H158	H	1.303701	0.334178	0.499988
