data_functionalizedCrystal
_audit_creation_method	'MofGen! by Chris Wilmer'
_symmetry_space_group_name_H-M	'P1'
_symmetry_Int_Tables_number	1
_symmetry_cell_setting	triclinic
loop_
_symmetry_equiv_pos_as_xyz
  x,y,z
_cell_length_a	18.101398
_cell_length_b	12.759400
_cell_length_c	12.759393
_cell_angle_alpha	90.031564
_cell_angle_beta	90.027012
_cell_angle_gamma	90.009951
loop_
_atom_site_label
_atom_site_type_symbol
_atom_site_fract_x
_atom_site_fract_y
_atom_site_fract_z
Zn1	Zn	1.132225	-0.418337	0.594220
Zn2	Zn	1.132151	-0.594056	0.418540
Zn3	Zn	1.008378	-0.418377	0.418533
Zn4	Zn	1.008370	-0.593960	0.594155
O5	O	1.070281	-0.506182	0.506362
O6	O	1.235848	-0.441670	0.570946
O7	O	1.115704	-0.570808	0.271518
O8	O	1.024841	-0.271351	0.441863
O9	O	1.235794	-0.570770	0.441874
O10	O	1.115831	-0.271321	0.570939
O11	O	1.024769	-0.441738	0.271513
O12	O	0.904744	-0.441645	0.441800
O13	O	1.024828	-0.570606	0.741185
O14	O	0.904739	-0.570645	0.570829
O15	O	1.115823	-0.441577	0.741233
O16	O	1.115697	-0.741064	0.441812
O17	O	1.024756	-0.740994	0.570836
C18	C	1.070237	-0.779150	0.506340
C19	C	1.070286	-0.895926	0.506366
C20	C	0.877871	-0.506140	0.506307
C21	C	0.795557	-0.506147	0.506309
C22	C	1.117692	-0.950790	0.439258
C23	C	1.117737	-1.060514	0.439290
C24	C	1.022965	-1.060501	0.573542
C25	C	1.022924	-0.950779	0.573514
C26	C	1.172405	-0.950799	0.361745
C27	C	1.172451	-1.060523	0.361777
C28	C	0.496466	-0.506212	0.506397
C29	C	0.527770	-0.424643	0.425612
C30	C	0.613388	-0.424862	0.425267
C31	C	0.644848	-0.506179	0.506353
C32	C	0.613751	-0.616855	0.476108
C33	C	0.528106	-0.616402	0.475546
C34	C	0.528078	-0.478067	0.617619
C35	C	0.613728	-0.475603	0.617011
C36	C	0.728708	-0.506167	0.506330
C37	C	0.412606	-0.506232	0.506418
C38	C	1.263443	-0.506226	0.506418
C39	C	1.345757	-0.506245	0.506442
C40	C	1.070333	-0.506076	0.780396
C41	C	1.070355	-0.506031	0.897172
C42	C	1.070345	-0.232149	0.506407
C43	C	1.070373	-0.115372	0.506426
C44	C	1.070272	-0.506212	0.233395
C45	C	1.070393	-0.505961	0.116619
C46	C	1.117743	-0.438839	0.952061
C47	C	1.117761	-0.438801	1.061785
C48	C	1.023000	-0.573156	1.061723
C49	C	1.022980	-0.573188	0.952001
C50	C	1.172455	-0.361273	0.952098
C51	C	1.172472	-0.361235	1.061822
H52	H	0.984330	-0.906110	0.628169
O53	O	1.152156	-1.100075	0.253976
H54	H	1.198087	-1.148355	0.222526
H55	H	0.984389	-0.627899	0.907314
H56	H	1.151950	-0.283924	1.095865
H57	H	0.508096	-0.640269	0.394238
H58	H	1.229829	-0.383035	1.091612
O59	O	0.971873	-1.119661	0.645951
H60	H	0.979860	-1.205176	0.634691
O61	O	1.248350	-0.911242	0.390709
H62	H	1.285562	-0.978893	0.404923
H63	H	0.634412	-0.342791	0.444225
H64	H	0.506491	-0.398766	0.645119
H65	H	1.157110	-0.279907	0.922339
H66	H	1.151875	-0.916849	0.284415
H67	H	0.634130	-0.679259	0.533107
H68	H	0.507183	-0.342322	0.444361
H69	H	1.226941	-1.094474	0.391001
O70	O	0.499251	-0.449020	0.317069
H71	H	0.462877	-0.518979	0.320409
H72	H	0.507836	-0.537479	0.677811
O73	O	0.640493	-0.449460	0.316093
H74	H	0.592429	-0.461263	0.263341
O75	O	1.244604	-0.399899	0.907012
H76	H	1.282873	-0.420347	0.971844
H77	H	0.507399	-0.679236	0.531821
H78	H	0.635168	-0.641136	0.395678
H79	H	0.634057	-0.394157	0.639818
O80	O	0.642070	-0.548583	0.701018
H81	H	0.678942	-0.608054	0.665049
H82	H	0.984427	-0.627831	1.106377
