data_functionalizedCrystal
_audit_creation_method	'MofGen! by Chris Wilmer'
_symmetry_space_group_name_H-M	'P1'
_symmetry_Int_Tables_number	1
_symmetry_cell_setting	triclinic
loop_
_symmetry_equiv_pos_as_xyz
  x,y,z
_cell_length_a	16.109301
_cell_length_b	8.965430
_cell_length_c	16.109301
_cell_angle_alpha	89.997898
_cell_angle_beta	96.538519
_cell_angle_gamma	89.994369
loop_
_atom_site_label
_atom_site_type_symbol
_atom_site_fract_x
_atom_site_fract_y
_atom_site_fract_z
O1	O	1.103123	0.123950	-0.106863
O2	O	0.861061	0.123974	-0.120163
O3	O	0.988742	0.123946	0.007518
O4	O	0.975443	0.123978	-0.234544
O5	O	0.988748	-0.124133	0.007514
O6	O	0.861067	-0.124105	-0.120166
O7	O	1.103129	-0.124129	-0.106867
Cu8	Cu	0.982099	-0.146768	-0.113517
Cu9	Cu	0.982092	0.146614	-0.113512
O10	O	0.975449	-0.124101	-0.234548
C11	C	0.830090	-0.000062	-0.119626
C12	C	0.737794	-0.000054	-0.118011
N13	N	0.982110	-0.353118	-0.113520
C14	C	0.515522	-0.000061	-0.190018
C15	C	0.428801	-0.000071	-0.188494
C16	C	0.448676	-0.000085	-0.037006
C17	C	0.535394	-0.000086	-0.038530
C18	C	0.568815	-0.000067	-0.115039
C19	C	0.395376	-0.000075	-0.111990
C20	C	0.301350	-0.000086	-0.110337
C21	C	0.662847	-0.000059	-0.116693
C22	C	1.041177	-0.450396	-0.054476
C23	C	0.966052	-0.549796	-0.038348
C24	C	1.057205	-0.549846	-0.129594
C25	C	0.906948	-0.450328	-0.097355
C26	C	0.998150	-0.450369	-0.188634
C27	C	0.922971	-0.549724	-0.172538
C28	C	1.134101	-0.000089	-0.107404
C29	C	1.226397	-0.000088	-0.109019
C30	C	0.988206	-0.000094	0.038491
C31	C	0.986591	-0.000096	0.130786
N32	N	0.982087	0.352963	-0.113503
C33	C	0.975984	-0.000058	-0.265521
C34	C	0.977600	-0.000046	-0.357816
C35	C	1.058599	-0.000080	0.353059
C36	C	1.057075	-0.000067	0.439779
C37	C	0.905586	-0.000058	0.419905
C38	C	0.907111	-0.000060	0.333186
C39	C	0.983620	-0.000078	0.299766
C40	C	0.980571	-0.000064	0.473205
C41	C	0.978918	-0.000050	0.567231
C42	C	0.985273	-0.000089	0.205734
H43	H	0.542730	-0.000057	-0.252317
C44	C	0.594021	-0.000092	0.043957
N45	N	0.638178	-0.000100	0.106083
C46	C	0.821122	-0.391527	-0.078869
N47	N	0.756482	-0.347234	-0.064940
H48	H	1.118130	-0.000065	0.483168
C49	C	0.370182	-0.000073	-0.270977
N50	N	0.326030	-0.000078	-0.333108
C51	C	0.821431	-0.000067	0.456676
N52	N	0.758043	-0.000084	0.484371
C53	C	0.411905	-0.000092	0.047150
N54	N	0.384210	-0.000092	0.110538
C55	C	1.108591	-0.391464	0.013013
N56	N	1.159363	-0.347071	0.063847
H57	H	0.952470	-0.593471	0.025181
H58	H	0.872956	-0.593061	-0.222466
H59	H	1.011756	-0.406663	-0.252143
H60	H	1.120722	-0.593559	-0.143198
C61	C	1.142761	-0.000083	0.316300
N62	N	1.206154	-0.000080	0.288615
H63	H	0.846050	-0.000054	0.289792
