data_functionalizedCrystal
_audit_creation_method	'MofGen! by Chris Wilmer'
_symmetry_space_group_name_H-M	'P1'
_symmetry_Int_Tables_number	1
_symmetry_cell_setting	triclinic
loop_
_symmetry_equiv_pos_as_xyz
  x,y,z
_cell_length_a	6.817900
_cell_length_b	16.255661
_cell_length_c	14.125369
_cell_angle_alpha	95.868413
_cell_angle_beta	100.397648
_cell_angle_gamma	103.488922
loop_
_atom_site_label
_atom_site_type_symbol
_atom_site_fract_x
_atom_site_fract_y
_atom_site_fract_z
V1	V	-4.010926	-0.263536	-0.133890
O2	O	-4.014855	-0.258862	0.005634
O3	O	-3.947054	-0.261405	-0.264711
O4	O	-3.962690	-0.378624	-0.132181
O5	O	-3.999111	-0.140831	-0.127814
V6	V	-4.496538	-0.248900	-0.117159
O7	O	-4.267603	-0.295643	-0.170588
O8	O	-4.690058	-0.216794	-0.080461
O9	O	-4.337204	-0.251032	0.013662
O10	O	-4.610006	-0.253574	-0.256683
O11	O	-4.625750	-0.371605	-0.123235
O12	O	-4.321568	-0.133812	-0.118868
C13	C	-3.788285	-0.257162	-0.296592
C14	C	-3.817350	-0.256187	-0.403543
C15	C	-4.056172	-0.258007	-0.651689
C16	C	-3.870671	-0.254432	-0.599360
C17	C	-3.841004	-0.255409	-0.490397
C18	C	-4.085847	-0.257031	-0.760662
C19	C	-3.808229	-0.406686	-0.127535
C20	C	-3.849972	-0.500769	-0.127004
C21	C	-3.761277	-0.723603	-0.120657
C22	C	-3.908035	-0.792875	-0.202573
C23	C	-3.926474	-0.673020	-0.126008
C24	C	-3.854117	-0.771388	-0.043154
C25	C	-4.000356	-0.839406	-0.125041
C26	C	-4.072705	-0.741061	-0.207997
C27	C	-4.018734	-0.719559	-0.048505
C28	C	-4.165625	-0.788811	-0.130445
C29	C	-3.883907	-0.577169	-0.126565
C30	C	-4.042939	-0.935256	-0.124490
C31	C	-4.159313	-0.255272	0.045538
C32	C	-4.109487	-0.256253	0.152488
C33	C	-4.139370	-0.105746	-0.123517
C34	C	-4.076866	-0.011663	-0.124044
H35	H	-3.589998	-0.695133	-0.116625
H36	H	-3.861682	-0.824798	-0.267710
H37	H	-3.762094	-0.785172	0.026494
O38	O	-4.194557	-0.723005	-0.300385
H39	H	-4.162301	-0.652811	-0.300087
O40	O	-4.237022	-0.263022	-0.602644
H41	H	-4.184959	-0.263001	-0.523514
O42	O	-3.689797	-0.249397	-0.648402
H43	H	-3.741835	-0.249400	-0.727529
O44	O	-4.392619	-0.826427	-0.135990
H45	H	-4.483197	-0.814558	-0.204453
O46	O	-4.080029	-0.677230	0.037774
H47	H	-3.988604	-0.688962	0.106086
