data_functionalizedCrystal
_audit_creation_method	'MofGen! by Chris Wilmer'
_symmetry_space_group_name_H-M	'P1'
_symmetry_Int_Tables_number	1
_symmetry_cell_setting	triclinic
loop_
_symmetry_equiv_pos_as_xyz
  x,y,z
_cell_length_a	13.032831
_cell_length_b	15.297327
_cell_length_c	13.033429
_cell_angle_alpha	91.279548
_cell_angle_beta	89.091437
_cell_angle_gamma	93.742008
loop_
_atom_site_label
_atom_site_type_symbol
_atom_site_fract_x
_atom_site_fract_y
_atom_site_fract_z
Zn1	Zn	1.405146	-0.419820	-0.853129
Zn2	Zn	1.390163	-0.584810	-0.709533
Zn3	Zn	1.253960	-0.424431	-0.660152
Zn4	Zn	1.204488	-0.548574	-0.853431
O5	O	1.313439	-0.494409	-0.769061
O6	O	1.544136	-0.454942	-0.854620
O7	O	1.386530	-0.580630	-0.561999
O8	O	1.300990	-0.302816	-0.664959
O9	O	1.533128	-0.576159	-0.749121
O10	O	1.412066	-0.299429	-0.806738
O11	O	1.286462	-0.462800	-0.525719
O12	O	1.106420	-0.427664	-0.665251
O13	O	1.216671	-0.514400	-0.994374
O14	O	1.070073	-0.518871	-0.807252
O15	O	1.364094	-0.419805	-0.994152
O16	O	1.338558	-0.701006	-0.749413
O17	O	1.202143	-0.674384	-0.855134
C18	C	1.051692	-0.469836	-0.730927
C19	C	0.939709	-0.459342	-0.714640
C20	C	1.263381	-0.719070	-0.807691
C21	C	1.242055	-0.815185	-0.824264
C22	C	0.871817	-0.499886	-0.777561
C23	C	0.756076	-0.489041	-0.760730
C24	C	1.466242	-1.141437	-0.651014
C25	C	1.486279	-1.051132	-0.635438
C26	C	1.425225	-0.992141	-0.682643
C27	C	1.344130	-1.023463	-0.745427
C28	C	1.324086	-1.113777	-0.760999
C29	C	1.283069	-0.964481	-0.792628
C30	C	1.201974	-0.995804	-0.855412
C31	C	1.181934	-1.086109	-0.870982
C32	C	1.242988	-1.145100	-0.823776
C33	C	1.303113	-0.874168	-0.777056
C34	C	1.160957	-0.846508	-0.887041
C35	C	1.140920	-0.936813	-0.902618
C36	C	1.576208	-0.519078	-0.807345
C37	C	1.688185	-0.529591	-0.823659
C38	C	1.286536	-0.462546	-1.031840
C39	C	1.275071	-0.448969	-1.143821
C40	C	1.363718	-0.268870	-0.730306
C41	C	1.385144	-0.172759	-0.713791
C42	C	1.307625	-0.487195	-1.327434
C43	C	1.319476	-0.501224	-1.211695
C44	C	1.340310	-0.526090	-0.507302
C45	C	1.352025	-0.539443	-0.395308
H46	H	0.899380	-0.542623	-0.843894
H47	H	0.728519	-0.446293	-0.694399
O48	O	1.381457	-0.574235	-1.175177
H49	H	1.461785	-0.564396	-1.204286
O50	O	0.724670	-0.586208	-0.911535
H51	H	0.809851	-0.585846	-0.910966
H52	H	0.912147	-0.416597	-0.648314
O53	O	1.053452	-0.970598	-0.970330
H54	H	0.980006	-0.948006	-0.938497
H55	H	1.369141	-0.848674	-0.725937
H56	H	1.441543	-0.918612	-0.669956
O57	O	1.213095	-0.375948	-1.180324
H58	H	1.213508	-0.376387	-1.265500
O59	O	1.094461	-1.119899	-0.938686
H60	H	1.107438	-1.094563	-1.017287
H61	H	1.552305	-1.025633	-0.584318
O62	O	1.532110	-1.205057	-0.600132
H63	H	1.504557	-1.273114	-0.621524
O64	O	1.414006	-0.612454	-1.358802
H65	H	1.363985	-0.657991	-1.311841
H66	H	1.226680	-1.218635	-0.836458
O67	O	1.095101	-0.782894	-0.937968
H68	H	1.122670	-0.714835	-0.916603
O69	O	1.245676	-0.414164	-1.363943
H70	H	1.246098	-0.414600	-1.449120
