data_functionalizedCrystal
_audit_creation_method	'MofGen! by Chris Wilmer'
_symmetry_space_group_name_H-M	'P1'
_symmetry_Int_Tables_number	1
_symmetry_cell_setting	triclinic
loop_
_symmetry_equiv_pos_as_xyz
  x,y,z
_cell_length_a	17.077404
_cell_length_b	12.759400
_cell_length_c	17.077396
_cell_angle_alpha	90.025586
_cell_angle_beta	90.019501
_cell_angle_gamma	90.014910
loop_
_atom_site_label
_atom_site_type_symbol
_atom_site_fract_x
_atom_site_fract_y
_atom_site_fract_z
Zn1	Zn	1.200099	-0.418260	0.443859
Zn2	Zn	1.700099	0.081740	0.943859
Zn3	Zn	1.200025	-0.593961	0.312599
Zn4	Zn	1.700025	-0.093961	0.812599
Zn5	Zn	1.068831	-0.418297	0.312606
Zn6	Zn	1.568831	0.081703	0.812606
Zn7	Zn	1.068818	-0.593898	0.443823
Zn8	Zn	1.568818	-0.093898	0.943823
O9	O	1.134443	-0.506104	0.378222
O10	O	1.634443	-0.006104	0.878222
O11	O	1.309936	-0.441578	0.426459
O12	O	1.809936	0.058422	0.926459
O13	O	1.182597	-0.570700	0.202753
O14	O	1.682597	-0.070700	0.702753
O15	O	1.086281	-0.271271	0.330035
O16	O	1.586281	0.228729	0.830035
O17	O	1.309882	-0.570664	0.330023
O18	O	1.809882	-0.070664	0.830023
O19	O	1.182723	-0.271244	0.426466
O20	O	1.682723	0.228756	0.926466
O21	O	1.086209	-0.441641	0.202759
O22	O	1.586209	0.058359	0.702759
O23	O	0.958983	-0.441580	0.330001
O24	O	1.458983	0.058420	0.830001
O25	O	1.086258	-0.570558	0.553674
O26	O	1.586258	-0.070558	1.053674
O27	O	0.958973	-0.570594	0.426405
O28	O	1.458973	-0.070594	0.926405
O29	O	1.182710	-0.441517	0.553701
O30	O	1.682710	0.058483	1.053701
O31	O	1.182584	-0.740973	0.329988
O32	O	1.682584	-0.240973	0.829988
O33	O	1.086186	-0.740927	0.426398
O34	O	1.586186	-0.240927	0.926398
C35	C	0.930496	-0.506085	0.378200
C36	C	1.430496	-0.006085	0.878200
C37	C	0.843246	-0.506102	0.378209
C38	C	1.343246	-0.006102	0.878209
C39	C	0.802271	-0.573381	0.428326
C40	C	1.302271	-0.073381	0.928326
C41	C	0.720291	-0.573383	0.428339
C42	C	1.220291	-0.073383	0.928339
C43	C	0.679286	-0.506111	0.378230
C44	C	1.179286	-0.006111	0.878230
C45	C	0.720267	-0.438825	0.328111
C46	C	1.220267	0.061175	0.828111
C47	C	0.802246	-0.438818	0.328103
C48	C	1.302246	0.061182	0.828103
C49	C	0.549397	-0.438846	0.328130
C50	C	1.049397	0.061154	0.828130
C51	C	0.467412	-0.438854	0.328136
C52	C	0.967412	0.061146	0.828136
C53	C	0.467442	-0.573410	0.428366
C54	C	0.967442	-0.073410	0.928366
C55	C	0.549421	-0.573404	0.428358
C56	C	1.049421	-0.073404	0.928358
C57	C	0.590395	-0.506119	0.378237
C58	C	1.090395	-0.006119	0.878237
C59	C	1.134397	-0.779071	0.378205
C60	C	1.634397	-0.279071	0.878205
C61	C	1.134449	-0.895848	0.378225
C62	C	1.634449	-0.395848	0.878225
C63	C	1.184699	-0.950699	0.328080
C64	C	1.684699	-0.450699	0.828080
C65	C	1.184747	-1.060423	0.328104
C66	C	1.684747	-0.560423	0.828104
C67	C	1.084289	-1.060435	0.428420
C68	C	1.584289	-0.560435	0.928420
C69	C	1.084245	-0.950713	0.428399
C70	C	1.584245	-0.450713	0.928399
C71	C	1.234902	-0.895833	0.277905
C72	C	1.734902	-0.395833	0.777905
C73	C	1.285156	-0.950685	0.227755
C74	C	1.785156	-0.450685	0.727755
C75	C	1.285204	-1.060409	0.227780
C76	C	1.785204	-0.560409	0.727780
C77	C	1.234999	-1.115282	0.277954
C78	C	1.734999	-0.615282	0.777954
C79	C	1.339188	-0.506124	0.378244
C80	C	1.839188	-0.006124	0.878244
C81	C	1.426437	-0.506132	0.378253
C82	C	1.926437	-0.006132	0.878253
C83	C	1.134491	-0.506026	0.582966
C84	C	1.634491	-0.006026	1.082966
C85	C	1.134511	-0.505993	0.670216
C86	C	1.634511	-0.005993	1.170216
C87	C	1.134512	-0.232071	0.378255
C88	C	1.634512	0.267929	0.878255
C89	C	1.134541	-0.115294	0.378270
C90	C	1.634541	0.384706	0.878270
C91	C	1.134441	-0.506105	0.174274
C92	C	1.634441	-0.006105	0.674274
C93	C	1.134573	-0.505842	0.087025
C94	C	1.634573	-0.005842	0.587025
C95	C	1.184735	-0.438796	0.711221
C96	C	1.684735	0.061204	1.211221
C97	C	1.184745	-0.438761	0.793202
C98	C	1.684745	0.061239	1.293202
C99	C	1.134533	-0.505930	0.834175
C100	C	1.634533	-0.005930	1.334175
C101	C	1.084304	-0.573130	0.793165
C102	C	1.584304	-0.073130	1.293165
C103	C	1.084291	-0.573159	0.711186
C104	C	1.584291	-0.073159	1.211186
C105	C	1.084335	-0.573066	0.964035
C106	C	1.584335	-0.073066	1.464035
C107	C	1.084349	-0.573039	1.046019
C108	C	1.584349	-0.073039	1.546019
C109	C	1.184789	-0.438669	1.046051
C110	C	1.684789	0.061331	1.546051
C111	C	1.184777	-0.438698	0.964072
C112	C	1.684777	0.061302	1.464072
C113	C	1.134547	-0.505900	0.923066
C114	C	1.634547	-0.005900	1.423066
H115	H	0.434029	-0.384062	0.287342
H116	H	0.934029	0.115938	0.787342
C117	C	1.028956	-0.890374	0.483550
C118	C	1.528956	-0.390374	0.983550
N119	N	0.987308	-0.844926	0.525088
N120	N	1.487308	-0.344926	1.025088
H121	H	1.234867	-0.806491	0.277878
H122	H	1.734867	-0.306491	0.777878
H123	H	1.326128	-1.105065	0.186951
H124	H	1.826128	-0.605065	0.686951
H125	H	1.235048	-1.204626	0.277975
H126	H	1.735048	-0.704626	0.777975
C127	C	1.029041	-0.647082	0.666080
C128	C	1.529041	-0.147082	1.166080
N129	N	0.987424	-0.702762	0.632108
N130	N	1.487424	-0.202762	1.132108
H131	H	1.225686	-0.383950	1.079441
H132	H	1.725686	0.116050	1.579441
C133	C	1.029109	-0.646921	1.091089
C134	C	1.529109	-0.146921	1.591089
N135	N	0.987500	-0.702569	1.125036
N136	N	1.487500	-0.202569	1.625036
H137	H	0.582804	-0.628188	0.469157
H138	H	1.082804	-0.128188	0.969157
H139	H	1.225626	-0.384103	0.677866
H140	H	1.725626	0.115897	1.177866
H141	H	0.686875	-0.384046	0.287314
H142	H	1.186875	0.115954	0.787314
C143	C	1.029059	-1.120800	0.483600
C144	C	1.529059	-0.620800	0.983600
N145	N	0.987457	-1.166266	0.525159
N146	N	1.487457	-0.666266	1.025159
H147	H	1.225644	-0.384045	0.826584
H148	H	1.725644	0.115955	1.326584
H149	H	1.043421	-0.627773	0.930651
H150	H	1.543421	-0.127773	1.430651
H151	H	1.043418	-0.627815	0.826532
H152	H	1.543418	-0.127815	1.326532
H153	H	1.225668	-0.384010	0.930713
H154	H	1.725668	0.115990	1.430713
C155	C	0.847317	-0.364809	0.272968
C156	C	1.347317	0.135191	0.772968
N157	N	0.881264	-0.309060	0.231441
N158	N	1.381264	0.190940	0.731441
H159	H	0.686933	-0.628169	0.469149
H160	H	1.186933	-0.128169	0.969149
C161	C	0.847368	-0.647387	0.483451
C162	C	1.347368	-0.147387	0.983451
N163	N	0.881333	-0.703128	0.524975
N164	N	1.381333	-0.203128	1.024975
H165	H	0.434076	-0.628193	0.469178
H166	H	0.934076	-0.128193	0.969178
C167	C	1.340380	-0.890322	0.172569
C168	C	1.840380	-0.390322	0.672569
N169	N	1.381976	-0.844859	0.131001
N170	N	1.881976	-0.344859	0.631001
H171	H	0.582756	-0.384046	0.287323
H172	H	1.082756	0.115954	0.787323
