data_functionalizedCrystal
_audit_creation_method	'MofGen! by Chris Wilmer'
_symmetry_space_group_name_H-M	'P1'
_symmetry_Int_Tables_number	1
_symmetry_cell_setting	triclinic
loop_
_symmetry_equiv_pos_as_xyz
  x,y,z
_cell_length_a	15.995350
_cell_length_b	15.995363
_cell_length_c	16.053802
_cell_angle_alpha	92.578248
_cell_angle_beta	87.430305
_cell_angle_gamma	83.494885
loop_
_atom_site_label
_atom_site_type_symbol
_atom_site_fract_x
_atom_site_fract_y
_atom_site_fract_z
O1	O	-0.104454	-1.114508	-0.069360
O2	O	-0.117770	-0.870735	-0.069375
O3	O	0.010776	-0.999285	-0.069370
O4	O	-0.232999	-0.985958	-0.069365
O5	O	0.003729	-0.992209	0.069488
O6	O	-0.124816	-0.863659	0.069484
O7	O	-0.111500	-1.107432	0.069498
Zn8	Zn	-0.119277	-0.984422	0.091538
Zn9	Zn	-0.109993	-0.993745	-0.091414
O10	O	-0.240046	-0.978882	0.069494
C11	C	-0.120741	-0.836002	0.000053
C12	C	-0.119084	-0.743053	0.000047
C13	C	-0.113138	-0.405306	0.000067
C14	C	-0.021604	-0.452724	0.000375
C15	C	-0.023244	-0.549430	0.000055
C16	C	-0.116088	-0.572866	0.000058
C17	C	-0.157219	-0.535820	-0.079233
C18	C	-0.154912	-0.439188	-0.079292
C19	C	-0.164816	-0.430802	0.078616
C20	C	-0.164852	-0.527694	0.079657
C21	C	-0.117759	-0.667564	0.000050
C22	C	-0.111469	-0.310609	0.000070
C23	C	-0.267717	-0.982971	0.000065
C24	C	-0.360668	-0.984622	0.000068
C25	C	-0.698415	-0.990555	0.000055
C26	C	-0.650970	-1.082122	-0.000249
C27	C	-0.554295	-1.080454	0.000068
C28	C	-0.530855	-0.987612	0.000061
C29	C	-0.575959	-0.938416	0.079350
C30	C	-0.672598	-0.940712	0.079413
C31	C	-0.664932	-0.946867	-0.078496
C32	C	-0.567934	-0.946942	-0.079539
C33	C	-0.436157	-0.985944	0.000067
C34	C	-0.793113	-0.992220	0.000055
C35	C	0.038447	-0.995197	0.000056
C36	C	0.131398	-0.993545	0.000048
N37	N	-0.125613	-0.978066	0.216398
C38	C	-0.108518	-0.142166	0.000071
C39	C	-0.110142	-0.235120	0.000078
N40	N	-0.103651	-1.000108	-0.216274
C41	C	-0.070936	-1.032784	0.260094
C42	C	-0.075375	-1.028346	0.347500
C43	C	-0.134497	-0.969192	0.391210
C44	C	-0.189176	-0.914468	0.347508
C45	C	-0.184731	-0.918903	0.260103
C46	C	-0.153886	-0.949819	0.652619
C47	C	-0.158328	-0.945389	0.740030
C48	C	-0.044526	-1.059267	0.740016
C49	C	-0.040090	-1.063700	0.652610
C50	C	-0.094766	-1.008973	0.608915
N51	N	-0.139038	-0.964656	0.480553
N52	N	-0.090221	-1.013506	0.519573
H53	H	0.012107	-0.431305	0.057237
H54	H	-0.225279	-0.550095	-0.082179
N55	N	-0.243701	-0.396704	-0.084023
H56	H	-0.284164	-0.440774	-0.086068
H57	H	-0.247790	-0.363448	-0.135984
H58	H	-0.522987	-1.118850	-0.056767
N59	N	-0.107303	-0.418924	-0.157799
H60	H	-0.136681	-0.438590	-0.208236
H61	H	-0.048005	-0.448536	-0.159063
H62	H	-0.237311	-0.866300	0.383101
H63	H	-0.137935	-0.407204	0.138717
H64	H	-0.122862	-0.567201	-0.138245
H65	H	0.015379	-0.580190	-0.056885
H66	H	-0.232799	-0.542815	0.084449
N67	N	-0.125138	-0.559912	0.157363
H68	H	-0.075765	-0.603586	0.141081
H69	H	-0.168164	-0.586121	0.192533
N70	N	-0.254264	-0.388701	0.079335
H71	H	-0.261316	-0.353280	0.029056
H72	H	-0.266934	-0.351582	0.131977
N73	N	-0.547259	-0.857582	-0.085870
H74	H	-0.571968	-0.822509	-0.034895
H75	H	-0.571864	-0.833176	-0.137578
N76	N	0.023670	-1.127509	0.605471
H77	H	0.018183	-1.122021	0.543469
H78	H	0.013167	-1.186123	0.620746
H79	H	-0.000010	-1.103822	0.775600
N80	N	-0.671673	-1.134434	-0.075575
H81	H	-0.712013	-1.099289	-0.110234
H82	H	-0.698577	-1.184948	-0.056598
N83	N	-0.542354	-0.975982	0.157522
H84	H	-0.571768	-0.943900	0.208203
H85	H	-0.479791	-0.972219	0.158353
N86	N	-0.700828	-0.980322	0.157935
H87	H	-0.671355	-1.039490	0.159286
H88	H	-0.763765	-0.982150	0.158724
H89	H	0.017693	-0.436012	-0.056176
N90	N	-0.680726	-1.126569	0.074650
H91	H	-0.724806	-1.087648	0.108777
H92	H	-0.631415	-1.143027	0.110000
N93	N	-0.243704	-0.859880	0.212975
H94	H	-0.303911	-0.868745	0.228176
H95	H	-0.231844	-0.871691	0.150988
H96	H	-0.682424	-0.979860	-0.138595
H97	H	-0.529326	-1.113284	0.057011
N98	N	-0.222105	-0.881593	0.787177
H99	H	-0.256070	-0.847598	0.746234
H100	H	-0.191875	-0.842744	0.823459
N101	N	-0.715561	-0.851441	0.084177
H102	H	-0.671697	-0.810772	0.086231
H103	H	-0.754085	-0.842094	0.136149
H104	H	-0.030853	-1.072901	0.383077
N105	N	-0.557446	-0.847867	0.083260
H106	H	-0.519551	-0.837842	0.033552
H107	H	-0.528493	-0.835871	0.136404
H108	H	-0.537656	-0.982904	-0.138197
H109	H	-0.696651	-0.879389	-0.079027
H110	H	-0.022796	-1.080957	0.224511
H111	H	-0.198407	-0.905259	0.617050
H112	H	0.009366	-0.574963	0.056894
