data_functionalizedCrystal
_audit_creation_method	'MofGen! by Chris Wilmer'
_symmetry_space_group_name_H-M	'P1'
_symmetry_Int_Tables_number	1
_symmetry_cell_setting	triclinic
loop_
_symmetry_equiv_pos_as_xyz
  x,y,z
_cell_length_a	11.169417
_cell_length_b	10.686285
_cell_length_c	11.169409
_cell_angle_alpha	85.599660
_cell_angle_beta	89.980176
_cell_angle_gamma	85.632710
loop_
_atom_site_label
_atom_site_type_symbol
_atom_site_fract_x
_atom_site_fract_y
_atom_site_fract_z
Zn1	Zn	1.871633	-0.502220	-0.641959
Zn2	Zn	1.886933	-0.713272	-0.425902
Zn3	Zn	1.670924	-0.502297	-0.441288
Zn4	Zn	1.686329	-0.713169	-0.626554
O5	O	1.778955	-0.607740	-0.533926
O6	O	2.041613	-0.530227	-0.613306
O7	O	1.858235	-0.685361	-0.259988
O8	O	1.684699	-0.325709	-0.480793
O9	O	2.052854	-0.685286	-0.454570
O10	O	1.832159	-0.325653	-0.628225
O11	O	1.699534	-0.530358	-0.271291
O12	O	1.505017	-0.530259	-0.465856
O13	O	1.710954	-0.685111	-0.796553
O14	O	1.516335	-0.685186	-0.601970
O15	O	1.847096	-0.530128	-0.807871
O16	O	1.873172	-0.889836	-0.439633
O17	O	1.725790	-0.889760	-0.587051
C18	C	1.467129	-0.607720	-0.533912
C19	C	1.333730	-0.607743	-0.533932
C20	C	1.802845	-0.935582	-0.510027
C21	C	1.813176	-1.075835	-0.499843
C22	C	2.091999	-0.607760	-0.533940
C23	C	2.225399	-0.607768	-0.533947
C24	C	1.779037	-0.607599	-0.846979
C25	C	1.779072	-0.607540	-0.980383
C26	C	1.755004	-0.278617	-0.557944
C27	C	1.744797	-0.138364	-0.568179
C28	C	1.778936	-0.607788	-0.222097
C29	C	1.779107	-0.607492	-0.088720
H30	H	1.678353	-1.084602	-0.634477
H31	H	1.879615	-1.129605	-0.433534
