data_functionalizedCrystal
_audit_creation_method	'MofGen! by Chris Wilmer'
_symmetry_space_group_name_H-M	'P1'
_symmetry_Int_Tables_number	1
_symmetry_cell_setting	triclinic
loop_
_symmetry_equiv_pos_as_xyz
  x,y,z
_cell_length_a	14.971486
_cell_length_b	16.109301
_cell_length_c	13.448316
_cell_angle_alpha	89.991973
_cell_angle_beta	89.998199
_cell_angle_gamma	83.537805
loop_
_atom_site_label
_atom_site_type_symbol
_atom_site_fract_x
_atom_site_fract_y
_atom_site_fract_z
O1	O	1.186791	0.108348	-0.082581
O2	O	0.926372	0.121323	-0.082608
O3	O	1.063736	-0.006187	-0.082584
O4	O	1.049428	0.235857	-0.082605
O5	O	1.063718	-0.006195	0.082800
O6	O	0.926355	0.121315	0.082776
O7	O	1.186774	0.108340	0.082803
Cu8	Cu	1.056563	0.114827	0.097890
Cu9	Cu	1.056583	0.114836	-0.097695
O10	O	1.049410	0.235850	0.082778
C11	C	0.893040	0.120739	0.000080
C12	C	0.793745	0.119000	0.000070
C13	C	0.736412	0.193908	0.000065
C14	C	0.643115	0.192269	0.000080
C15	C	0.607153	0.115721	0.000093
C16	C	0.664494	0.040807	0.000101
C17	C	0.757789	0.042447	0.000093
C18	C	0.470036	0.037395	0.000115
C19	C	0.376734	0.035755	0.000121
C20	C	0.355362	0.187217	0.000102
C21	C	0.448657	0.188857	0.000094
C22	C	0.505991	0.113942	0.000100
C23	C	1.063147	-0.037166	0.000109
C24	C	1.061410	-0.129464	0.000110
C25	C	1.138878	-0.351640	0.000102
C26	C	1.137239	-0.438362	0.000094
C27	C	0.974262	-0.418691	0.000081
C28	C	0.975902	-0.331970	0.000082
C29	C	1.058213	-0.298447	0.000098
C30	C	1.054933	-0.471890	0.000088
C31	C	1.053155	-0.565918	0.000079
C32	C	1.059992	-0.204413	0.000105
C33	C	1.220106	0.108924	0.000112
C34	C	1.319401	0.110663	0.000116
C35	C	1.049999	0.266829	0.000084
C36	C	1.051736	0.359127	0.000076
N37	N	1.056555	0.114820	0.235454
N38	N	1.056598	0.114837	-0.235260
C39	C	1.117398	0.058382	0.287506
C40	C	1.117404	0.058381	0.391609
C41	C	1.056570	0.114823	0.443659
C42	C	0.995720	0.171264	0.391601
C43	C	0.995711	0.171260	0.287499
C44	C	0.995745	0.171269	0.608581
C45	C	0.995755	0.171275	0.712689
C46	C	1.117438	0.058391	0.712690
C47	C	1.117429	0.058387	0.608589
C48	C	1.056580	0.114829	0.556538
H49	H	0.308675	0.248215	0.000101
H50	H	1.166969	0.012432	0.566210
O51	O	0.525604	-0.035454	0.000072
C52	C	0.536962	-0.185856	0.000130
C53	C	0.473930	-0.103422	0.000166
H54	H	0.495209	-0.240830	0.000227
H55	H	0.581152	-0.188924	-0.069105
H56	H	0.581200	-0.188837	0.069321
H57	H	0.429636	-0.100386	-0.068978
H58	H	0.429801	-0.100388	0.069447
H59	H	0.910211	-0.288658	0.000075
H60	H	1.166940	0.012424	0.245133
H61	H	0.946192	0.217228	0.566204
O62	O	1.215574	-0.490066	-0.000076
C63	C	1.308294	-0.599410	-0.085726
C64	C	1.219552	-0.540890	-0.085666
H65	H	1.311532	-0.640528	-0.154908
H66	H	1.367436	-0.560590	-0.085780
H67	H	1.311585	-0.640475	-0.016485
H68	H	1.216174	-0.499813	-0.154895
H69	H	1.160453	-0.579759	-0.085560
O70	O	0.587381	0.265011	0.000241
C71	C	0.469602	0.351042	0.085874
C72	C	0.532684	0.268638	0.085829
H73	H	0.425350	0.353994	0.155054
H74	H	0.511281	0.406070	0.085918
H75	H	0.425429	0.354043	0.016632
H76	H	0.576870	0.265556	0.155060
H77	H	0.490951	0.213649	0.085734
H78	H	0.804470	-0.018551	0.000097
H79	H	0.765684	0.256242	0.000053
O80	O	0.894231	-0.451119	0.000028
C81	C	0.732754	-0.422454	0.000073
C82	C	0.823327	-0.385621	0.000108
H83	H	0.675404	-0.369517	0.000159
H84	H	0.727856	-0.462525	-0.069157
H85	H	0.727954	-0.462599	0.069269
H86	H	0.828187	-0.345439	-0.069042
H87	H	0.828186	-0.345598	0.069383
H88	H	1.166947	0.012425	0.433989
H89	H	1.205901	-0.324348	0.000113
H90	H	0.477934	0.251189	0.000074
H91	H	1.166983	0.012434	0.755077
O92	O	0.936588	0.225976	0.442271
C93	C	0.814411	0.243488	0.559779
C94	C	0.881340	0.181432	0.502476
H95	H	0.769713	0.207498	0.608453
H96	H	0.852969	0.285073	0.608566
H97	H	0.770960	0.283842	0.504675
H98	H	0.924807	0.141023	0.557508
H99	H	0.842727	0.139905	0.453674
H100	H	0.946216	0.217235	0.755063
H101	H	0.946165	0.217216	0.245120
H102	H	0.347458	-0.026577	0.000133
H103	H	0.635206	-0.021520	0.000126
