data_functionalizedCrystal
_audit_creation_method	'MofGen! by Chris Wilmer'
_symmetry_space_group_name_H-M	'P1'
_symmetry_Int_Tables_number	1
_symmetry_cell_setting	triclinic
loop_
_symmetry_equiv_pos_as_xyz
  x,y,z
_cell_length_a	19.288864
_cell_length_b	18.266242
_cell_length_c	19.288857
_cell_angle_alpha	90.008509
_cell_angle_beta	83.134677
_cell_angle_gamma	90.022884
loop_
_atom_site_label
_atom_site_type_symbol
_atom_site_fract_x
_atom_site_fract_y
_atom_site_fract_z
O1	O	0.921350	0.061119	0.086649
O2	O	0.719089	0.061070	0.098338
O3	O	0.826067	0.061087	-0.008637
O4	O	0.814373	0.061102	0.193624
O5	O	0.826049	-0.060675	-0.008643
O6	O	0.719071	-0.060692	0.098332
O7	O	0.921332	-0.060643	0.086644
Zn8	Zn	0.820199	-0.080000	0.092487
Zn9	Zn	0.820223	0.080427	0.092494
O10	O	0.814355	-0.060660	0.193619
C11	C	0.693204	0.000182	0.097959
C12	C	0.616100	0.000163	0.096830
N13	N	0.820188	-0.189487	0.092482
C14	C	0.571402	0.000179	0.159598
C15	C	0.498955	0.000187	0.158537
C16	C	0.471210	0.000194	0.094705
C17	C	0.515917	0.000173	0.031929
C18	C	0.588363	0.000158	0.032991
C19	C	0.362955	0.042873	0.044528
C20	C	0.290511	0.042893	0.043468
C21	C	0.247764	0.000238	0.091425
C22	C	0.277469	-0.042428	0.140455
C23	C	0.349914	-0.042444	0.141517
C24	C	0.392656	0.000210	0.093546
C25	C	0.124510	0.000261	0.153048
C26	C	0.052062	0.000265	0.151984
C27	C	0.069026	0.000259	0.025374
C28	C	0.141472	0.000248	0.026439
C29	C	0.169210	0.000253	0.090278
C30	C	0.867573	-0.227788	0.045136
C31	C	0.867577	-0.304433	0.045133
C32	C	0.820203	-0.342774	0.092487
C33	C	0.772809	-0.304463	0.139836
C34	C	0.772801	-0.227820	0.139834
N35	N	0.811168	-0.463103	0.153976
N36	N	0.811180	-0.535911	0.153976
C37	C	0.820223	-0.573696	0.092497
N38	N	0.829267	-0.535923	0.031016
N39	N	0.829259	-0.463108	0.031016
C40	C	0.820206	-0.425881	0.092495
C41	C	0.867615	-0.695105	0.045144
C42	C	0.867615	-0.771751	0.045140
C43	C	0.772850	-0.771780	0.139850
C44	C	0.772847	-0.695135	0.139848
C45	C	0.820233	-0.656802	0.092496
C46	C	0.947218	0.000246	0.087022
C47	C	1.024321	0.000270	0.088151
C48	C	0.825683	0.000205	-0.034516
C49	C	0.824556	0.000203	-0.111620
N50	N	0.820239	0.189914	0.092494
C51	C	0.824040	0.066575	-0.147828
C52	C	0.822971	0.066580	-0.220274
C53	C	0.822432	0.000209	-0.256511
C54	C	0.822945	-0.066172	-0.220295
C55	C	0.824006	-0.066175	-0.147849
C56	C	0.861426	-0.050625	-0.376745
C57	C	0.860369	-0.050619	-0.449190
C58	C	0.819155	0.000217	-0.479957
C59	C	0.779007	0.051059	-0.438272
C60	C	0.780068	0.051056	-0.365827
C61	C	0.821281	0.000206	-0.335066
C62	C	0.817479	0.066600	-0.594719
C63	C	0.816406	0.066602	-0.667166
C64	C	0.816386	-0.066152	-0.667186
C65	C	0.817452	-0.066153	-0.594740
C66	C	0.818002	0.000225	-0.558511
C67	C	0.814739	0.000223	0.219498
C68	C	0.815866	0.000230	0.296602
H69	H	0.593981	0.000184	0.211581
C70	C	0.815791	-0.139161	-0.707035
H71	H	0.816248	-0.178692	-0.675091
H72	H	0.855870	-0.141912	-0.740724
H73	H	0.774873	-0.141927	-0.729867
H74	H	0.266331	0.077637	0.003548
C75	C	0.818074	0.139608	-0.554860
H76	H	0.818790	0.130101	-0.506529
H77	H	0.777408	0.166871	-0.561301
H78	H	0.858405	0.166890	-0.572156
H79	H	0.745446	0.092455	-0.463321
H80	H	0.734235	-0.335684	0.178392
C81	C	0.919688	-0.185626	-0.006956
H82	H	0.947906	-0.219418	-0.035158
H83	H	0.948517	-0.155703	0.017953
H84	H	0.894787	-0.155751	-0.035812
H85	H	0.824424	-0.120225	-0.118369
C86	C	0.919737	-0.813886	-0.006944
H87	H	0.912950	-0.865023	-0.000168
H88	H	0.966066	-0.801303	0.000483
H89	H	0.912340	-0.801335	-0.053285
C90	C	0.919704	-0.346577	-0.006945
H91	H	0.912919	-0.397713	-0.000162
H92	H	0.966032	-0.333990	0.000485
H93	H	0.912310	-0.334033	-0.053289
H94	H	0.734214	-0.196635	0.178389
H95	H	0.824485	0.120625	-0.118335
H96	H	0.397755	0.077613	0.005473
C97	C	0.002890	0.000283	0.221031
H98	H	-0.044229	0.000283	0.211257
H99	H	0.011301	0.042746	0.247214
H100	H	0.011256	-0.042181	0.247217
H101	H	0.493322	0.000189	-0.020044
H102	H	0.906198	-0.663892	0.006586
H103	H	0.734274	-0.802996	0.178404
C104	C	0.818032	-0.139163	-0.554911
H105	H	0.817564	-0.178692	-0.586867
H106	H	0.777951	-0.141936	-0.521223
H107	H	0.858949	-0.141911	-0.532079
C108	C	0.815835	0.139616	-0.706994
H109	H	0.816320	0.179144	-0.675040
H110	H	0.774923	0.142370	-0.729827
H111	H	0.855921	0.142382	-0.740682
C112	C	0.904507	-0.106559	-0.495037
H113	H	0.897973	-0.099277	-0.542589
H114	H	0.890347	-0.154738	-0.481244
H115	H	0.952431	-0.100168	-0.489568
H116	H	0.822546	0.120631	-0.249759
C117	C	0.038514	0.000270	-0.044841
H118	H	-0.011034	0.000287	-0.036485
H119	H	0.053847	-0.042192	-0.070683
H120	H	0.053895	0.042735	-0.070669
H121	H	0.734264	-0.663948	0.178404
C122	C	0.906764	-0.106549	-0.342908
H123	H	0.930529	-0.136820	-0.378109
H124	H	0.877844	-0.135964	-0.310723
H125	H	0.939899	-0.081358	-0.319027
H126	H	0.822504	-0.120211	-0.249803
H127	H	0.177867	0.000239	-0.024674
H128	H	0.747377	0.092452	-0.331889
H129	H	0.147095	0.000255	0.205029
C130	C	0.382589	-0.089378	0.195438
H131	H	0.346760	-0.114786	0.223847
H132	H	0.407113	-0.058631	0.223900
H133	H	0.414046	-0.123689	0.171828
H134	H	0.462555	0.000198	0.209652
H135	H	0.242666	-0.077163	0.179506
H136	H	0.624757	0.000145	-0.018124
