data_functionalizedCrystal
_audit_creation_method	'MofGen! by Chris Wilmer'
_symmetry_space_group_name_H-M	'P1'
_symmetry_Int_Tables_number	1
_symmetry_cell_setting	triclinic
loop_
_symmetry_equiv_pos_as_xyz
  x,y,z
_cell_length_a	13.339070
_cell_length_b	8.559649
_cell_length_c	7.681481
_cell_angle_alpha	85.086760
_cell_angle_beta	82.700297
_cell_angle_gamma	87.296021
loop_
_atom_site_label
_atom_site_type_symbol
_atom_site_fract_x
_atom_site_fract_y
_atom_site_fract_z
O1	O	-0.022785	-2.094922	-0.146401
O2	O	0.027721	-1.652108	-0.146409
O3	O	-0.140848	-1.822694	-0.146401
O4	O	0.145783	-1.924335	-0.146409
O5	O	-0.161637	-1.843672	0.146458
O6	O	0.006931	-1.673086	0.146450
O7	O	-0.043574	-2.115899	0.146458
Zn8	Zn	-0.021623	-1.897823	0.192951
Zn9	Zn	0.005769	-1.870184	-0.192903
O10	O	0.124994	-1.945313	0.146449
C11	C	0.021153	-1.604764	0.000020
C12	C	0.032546	-1.432434	0.000017
C13	C	-0.187598	-1.816014	0.000026
C14	C	-0.295923	-1.764836	0.000018
C15	C	-0.037007	-2.163243	0.000025
C16	C	-0.048399	-2.335572	0.000017
C17	C	-0.691632	-2.162764	0.000026
C18	C	-0.589856	-2.210854	0.000043
C19	C	-0.516368	-2.099353	0.000036
C20	C	-0.544665	-1.939755	0.000013
C21	C	-0.646451	-1.891662	0.000010
C22	C	-0.471188	-1.828251	0.000020
C23	C	-0.499485	-1.668653	-0.000003
C24	C	-0.601262	-1.620567	-0.000008
C25	C	-0.674750	-1.732068	-0.000001
C26	C	-0.369401	-1.876344	0.000024
C27	C	-0.324221	-1.605242	0.000008
C28	C	-0.425997	-1.557152	-0.000010
C29	C	0.171744	-1.951993	0.000019
C30	C	0.280070	-2.003170	0.000015
N31	N	-0.040318	-1.916697	0.456287
N32	N	0.024455	-1.851319	-0.456238
H33	H	-0.346373	-2.006290	0.000043
H34	H	-0.126415	-1.384481	0.000010
H35	H	-0.566825	-2.340798	0.000065
O36	O	0.103368	-1.771905	0.453868
C37	C	0.164735	-1.873910	0.347245
H38	H	0.118277	-1.975461	0.319786
H39	H	0.231173	-1.921644	0.418186
C40	C	0.261841	-1.658946	0.205764
C41	C	0.204778	-1.783667	0.172025
H42	H	0.286546	-1.603280	0.097683
H43	H	0.220500	-1.590223	0.277602
H44	H	0.317199	-1.698744	0.264885
H45	H	0.149415	-1.743867	0.112925
H46	H	0.246111	-1.852381	0.100173
O47	O	-0.119228	-1.996441	0.545724
C48	C	-0.176671	-2.054358	0.425003
H49	H	-0.127467	-2.064607	0.293538
H50	H	-0.243994	-1.970453	0.405471
C51	C	-0.275373	-2.204531	0.658575
C52	C	-0.214938	-2.217132	0.497112
H53	H	-0.298982	-2.304934	0.703056
H54	H	-0.236676	-2.165507	0.739909
H55	H	-0.331468	-2.134604	0.642276
H56	H	-0.158838	-2.287042	0.513416
H57	H	-0.253627	-2.256172	0.415782
H58	H	-0.433499	-2.138518	0.000051
H59	H	-0.751474	-2.253531	0.000046
H60	H	-0.624297	-1.490613	-0.000013
H61	H	-0.757625	-1.692920	-0.000021
H62	H	0.110568	-1.383518	0.000005
H63	H	-0.264387	-1.514449	0.000011
H64	H	-0.449051	-1.427204	-0.000028
