data_functionalizedCrystal
_audit_creation_method	'MofGen! by Chris Wilmer'
_symmetry_space_group_name_H-M	'P1'
_symmetry_Int_Tables_number	1
_symmetry_cell_setting	triclinic
loop_
_symmetry_equiv_pos_as_xyz
  x,y,z
_cell_length_a	16.625546
_cell_length_b	14.908571
_cell_length_c	14.908308
_cell_angle_alpha	89.824947
_cell_angle_beta	93.264070
_cell_angle_gamma	93.281505
loop_
_atom_site_label
_atom_site_type_symbol
_atom_site_fract_x
_atom_site_fract_y
_atom_site_fract_z
Zn1	Zn	-0.420778	-1.345280	-0.587557
Zn2	Zn	0.079222	-0.845280	-0.087557
Zn3	Zn	-0.548312	-1.353856	-0.437189
Zn4	Zn	-0.048312	-0.853856	0.062811
Zn5	Zn	-0.405291	-1.203596	-0.428555
Zn6	Zn	0.094709	-0.703596	0.071445
Zn7	Zn	-0.547354	-1.194884	-0.578841
Zn8	Zn	-0.047354	-0.694884	-0.078841
O9	O	-0.480434	-1.274404	-0.508036
O10	O	0.019566	-0.774404	-0.008036
O11	O	-0.444578	-1.472243	-0.574871
O12	O	0.055422	-0.972243	-0.074871
O13	O	-0.523260	-1.341159	-0.310220
O14	O	-0.023260	-0.841159	0.189780
O15	O	-0.294517	-1.222448	-0.449681
O16	O	0.205483	-0.722448	0.050319
O17	O	-0.538277	-1.478544	-0.464397
O18	O	-0.038277	-0.978544	0.035603
O19	O	-0.305896	-1.326543	-0.566499
O20	O	0.194104	-0.826543	-0.066499
O21	O	-0.418182	-1.230763	-0.303876
O22	O	0.081818	-0.730763	0.196124
O23	O	-0.417254	-1.076615	-0.441230
O24	O	0.082746	-0.576615	0.058770
O25	O	-0.536644	-1.207599	-0.705821
O26	O	-0.036644	-0.707599	-0.205821
O27	O	-0.521627	-1.070214	-0.551644
O28	O	-0.021627	-0.570214	-0.051644
O29	O	-0.443649	-1.318095	-0.712225
O30	O	0.056351	-0.818095	-0.212225
O31	O	-0.661013	-1.332711	-0.455945
O32	O	-0.161013	-0.832711	0.044055
O33	O	-0.660309	-1.215914	-0.560016
O34	O	-0.160309	-0.715914	-0.060016
C35	C	-0.467656	-1.040789	-0.494555
C36	C	0.032344	-0.540789	0.005445
C37	C	-0.462211	-0.940846	-0.488810
C38	C	0.037789	-0.440846	0.011190
C39	C	-0.689918	-1.274321	-0.507993
C40	C	-0.189918	-0.774321	-0.007993
C41	C	-0.779542	-1.274366	-0.508010
C42	C	-0.279542	-0.774366	-0.008010
C43	C	-0.491767	-1.260918	-0.742560
C44	C	0.008233	-0.760918	-0.242560
C45	C	-0.496597	-1.255172	-0.842501
C46	C	0.003403	-0.755172	-0.342501
C47	C	-1.107731	-1.274517	-0.508112
C48	C	-0.607731	-0.774517	-0.008112
C49	C	-1.016419	-1.274472	-0.508086
C50	C	-0.516419	-0.774472	-0.008086
C51	C	-0.943640	-1.274441	-0.508060
C52	C	-0.443640	-0.774441	-0.008060
C53	C	-0.852322	-1.274397	-0.508035
C54	C	-0.352322	-0.774397	-0.008035
C55	C	-0.270134	-1.274511	-0.508099
C56	C	0.229866	-0.774511	-0.008099
C57	C	-0.180516	-1.274556	-0.508127
C58	C	0.319484	-0.774556	-0.008127
C59	C	-0.493262	-1.508931	-0.521569
C60	C	0.006738	-1.008931	-0.021569
C61	C	-0.498728	-1.608873	-0.527336
C62	C	0.001272	-1.108873	-0.027336
C63	C	-0.560814	-0.746435	-0.592833
C64	C	-0.060814	-0.246435	-0.092833
C65	C	-0.555700	-0.652530	-0.587437
C66	C	-0.055700	-0.152530	-0.087437
C67	C	-0.446865	-0.659128	-0.472629
C68	C	0.053135	-0.159128	0.027371
C69	C	-0.451979	-0.753033	-0.478024
C70	C	0.048021	-0.253033	0.021976
C71	C	-0.508956	-0.796683	-0.538127
C72	C	-0.008956	-0.296683	-0.038127
C73	C	-0.514074	-0.890591	-0.543517
C74	C	-0.014074	-0.390591	-0.043517
C75	C	-0.405236	-0.897187	-0.428714
C76	C	0.094764	-0.397187	0.071286
C77	C	-0.400121	-0.803282	-0.423318
C78	C	0.099879	-0.303282	0.076682
C79	C	-0.408817	-1.359429	-1.036969
C80	C	0.091183	-0.859429	-0.536969
C81	C	-0.413353	-1.354033	-1.130872
C82	C	0.086647	-0.854033	-0.630872
C83	C	-0.510198	-1.238977	-1.124211
C84	C	-0.010198	-0.738977	-0.624211
C85	C	-0.505662	-1.244374	-1.030308
C86	C	-0.005662	-0.744374	-0.530308
C87	C	-0.454971	-1.304603	-0.986690
C88	C	0.045029	-0.804603	-0.486690
C89	C	-0.450441	-1.310004	-0.892786
C90	C	0.049559	-0.810004	-0.392786
C91	C	-0.547281	-1.194945	-0.886127
C92	C	-0.047281	-0.694945	-0.386127
C93	C	-0.551817	-1.189548	-0.980030
C94	C	-0.051817	-0.689548	-0.480030
C95	C	-0.469089	-1.287889	-0.274426
C96	C	0.030911	-0.787889	0.225574
C97	C	-0.464042	-1.293810	-0.174497
C98	C	0.035958	-0.793810	0.325503
H99	H	-0.560469	-0.926129	-0.592455
H100	H	-0.060469	-0.426129	-0.092455
C101	C	-0.607567	-1.123293	-1.028020
C102	C	-0.107567	-0.623293	-0.528020
N103	N	-0.649560	-1.073388	-1.064165
N104	N	-0.149560	-0.573388	-0.564165
C105	C	-0.353062	-1.425685	-0.988987
C106	C	0.146938	-0.925685	-0.488987
N107	N	-0.311065	-1.475589	-0.952849
N108	N	0.188935	-0.975589	-0.452849
C109	C	-0.612753	-0.597260	-0.647612
C110	C	-0.112753	-0.097260	-0.147612
N111	N	-0.655729	-0.555630	-0.692936
N112	N	-0.155729	-0.055630	-0.192936
C113	C	-0.384187	-0.611096	-0.406530
C114	C	0.115813	-0.111096	0.093470
N115	N	-0.336977	-0.574917	-0.356745
N116	N	0.163023	-0.074917	0.143255
C117	C	-0.337450	-0.755256	-0.357209
C118	C	0.162550	-0.255256	0.142791
N119	N	-0.290246	-0.719084	-0.307411
N120	N	0.209754	-0.219084	0.192589
C121	C	-0.623491	-0.794452	-0.658942
C122	C	-0.123491	-0.294452	-0.158942
N123	N	-0.670701	-0.830618	-0.708738
N124	N	-0.170701	-0.330618	-0.208738
C125	C	-0.394678	-1.376254	-0.844807
C126	C	0.105322	-0.876254	-0.344807
N127	N	-0.352672	-1.426152	-0.808673
N128	N	0.147328	-0.926152	-0.308673
C129	C	-0.348191	-0.952469	-0.368530
C130	C	0.151809	-0.452469	0.131470
N131	N	-0.305228	-0.994108	-0.323199
N132	N	0.194772	-0.494108	0.176801
H133	H	-0.584866	-1.150303	-0.845180
H134	H	-0.084866	-0.650303	-0.345180
H135	H	-0.375767	-1.398676	-1.171805
H136	H	0.124233	-0.898676	-0.671805
H137	H	-0.551467	-1.189942	-1.159741
H138	H	-0.051467	-0.689942	-0.659741
