data_functionalizedCrystal
_audit_creation_method	'MofGen! by Chris Wilmer'
_symmetry_space_group_name_H-M	'P1'
_symmetry_Int_Tables_number	1
_symmetry_cell_setting	triclinic
loop_
_symmetry_equiv_pos_as_xyz
  x,y,z
_cell_length_a	23.096457
_cell_length_b	17.917603
_cell_length_c	23.096457
_cell_angle_alpha	57.011831
_cell_angle_beta	89.999736
_cell_angle_gamma	63.033951
loop_
_atom_site_label
_atom_site_type_symbol
_atom_site_fract_x
_atom_site_fract_y
_atom_site_fract_z
Zr1	Zr	0.586662	0.818642	-0.104908
O2	O	0.499719	0.974667	-0.202863
O3	O	0.609495	0.662615	-0.071059
O4	O	0.615000	0.818643	-0.197358
O5	O	0.494216	0.818639	0.018718
O6	O	0.710280	0.818645	-0.197362
O7	O	0.494214	0.818640	-0.076564
O8	O	0.700433	0.539540	0.028565
O9	O	0.504063	1.097744	-0.207209
O10	O	0.694954	0.726793	-0.061241
O11	O	0.623849	0.726791	0.009869
O12	O	0.630331	0.910494	-0.138832
O13	O	0.559226	0.910492	-0.067722
Zr14	Zr	0.738627	0.818645	0.047049
Zr15	Zr	0.738623	0.818645	-0.104914
Zr16	Zr	0.586665	0.818641	0.047055
Zr17	Zr	0.593591	1.014935	-0.111839
Zr18	Zr	0.731697	0.622351	0.053980
O19	O	0.715793	0.974671	0.013200
O20	O	0.715788	0.974672	-0.202871
O21	O	0.499724	0.974666	0.013208
O22	O	0.825570	0.662619	0.145004
O23	O	0.825564	0.662620	-0.071067
O24	O	0.609500	0.662615	0.145012
O25	O	0.831072	0.818647	-0.076576
O26	O	0.710289	0.818644	0.139500
O27	O	0.615008	0.818642	0.139503
O28	O	0.831075	0.818647	0.018705
O29	O	0.624852	1.097746	-0.207213
O30	O	0.700436	0.539540	0.149355
O31	O	0.821225	0.539543	0.149350
O32	O	0.821222	0.539543	0.028560
O33	O	0.504066	1.097743	-0.086419
O34	O	0.624855	1.097746	-0.086423
O35	O	0.694958	0.726793	0.080974
O36	O	0.766063	0.726795	0.009864
O37	O	0.701439	0.910495	-0.067728
O38	O	0.630334	0.910493	0.003382
C39	C	0.653977	0.573110	-0.020260
C40	C	0.651035	0.489779	-0.017317
C41	C	0.645660	0.337209	-0.011944
C42	C	0.679626	0.300073	-0.045913
C43	C	0.676636	0.215178	-0.042923
C44	C	0.648650	0.422112	-0.014933
C45	C	0.472564	0.818639	-0.028922
C46	C	0.408052	0.818638	-0.028920
C47	C	0.411479	0.722751	0.011575
C48	C	0.350864	0.722749	0.011578
C49	C	0.286822	0.818640	-0.028928
C50	C	0.283397	0.914540	-0.069425
C51	C	0.344013	0.914538	-0.069421
N52	N	0.166544	0.890017	-0.091859
N53	N	0.108964	0.890012	-0.091861
C54	C	0.104189	0.818650	-0.028940
N55	N	0.159175	0.747277	0.033982
N56	N	0.216761	0.747279	0.033983
C57	C	0.221091	0.818652	-0.028936
C58	C	0.041893	0.722755	0.011561
C59	C	-0.018725	0.722757	0.011566
C60	C	-0.086192	0.914550	-0.069443
C61	C	-0.025574	0.914545	-0.069441
C62	C	0.038466	0.818644	-0.028940
C63	C	0.852725	0.818647	-0.028936
C64	C	0.917236	0.818649	-0.028939
C65	C	0.662639	0.818644	-0.219011
C66	C	0.662638	0.818644	-0.283524
C67	C	0.671312	1.064176	-0.037599
C68	C	0.674253	1.147508	-0.040541
C69	C	0.610155	0.818654	-0.744037
C70	C	0.610155	0.818646	-0.683418
C71	C	0.662645	0.818649	-0.653108
C72	C	0.715150	0.818631	-0.683410
C73	C	0.715152	0.818628	-0.744024
N74	N	0.680651	0.878529	-0.583229
N75	N	0.680644	0.878534	-0.525650
C76	C	0.662641	0.818656	-0.470482
N77	N	0.644632	0.758785	-0.475074
N78	N	0.644636	0.758785	-0.532661
C79	C	0.662648	0.818651	-0.587383
C80	C	0.610142	0.818658	-0.374454
C81	C	0.610146	0.818644	-0.313831
C82	C	0.715139	0.818639	-0.313828
C83	C	0.715137	0.818642	-0.374446
C84	C	0.662635	0.818657	-0.404757
C85	C	0.662649	0.818643	0.161153
C86	C	0.662650	0.818642	0.225665
C87	C	0.844057	0.573114	-0.020267
C88	C	0.905627	0.489784	-0.017327
C89	C	0.653981	0.573110	0.169823
C90	C	0.651041	0.489778	0.237277
C91	C	0.844062	0.573114	0.169815
C92	C	0.905633	0.489783	0.237268
C93	C	0.481227	1.064173	-0.227674
C94	C	0.419655	1.147503	-0.295126
C95	C	0.481231	1.064172	-0.037592
C96	C	0.419661	1.147502	-0.040532
C97	C	0.671307	1.064177	-0.227681
C98	C	0.674247	1.147509	-0.295136
C99	C	0.897423	0.450651	-0.053068
C100	C	0.955269	0.372364	-0.050320
C101	C	1.021318	0.333207	-0.011826
C102	C	1.029521	0.372348	0.023916
C103	C	0.971676	0.450639	0.021164
C104	C	0.686778	0.450645	0.306077
C105	C	0.684014	0.372357	0.369463
C106	C	0.645515	0.333198	0.364048
C107	C	0.609774	0.372338	0.295241
C108	C	0.612535	0.450630	0.231856
C109	C	0.971670	0.450651	0.231825
C110	C	1.029529	0.372364	0.295197
C111	C	1.021350	0.333206	0.364012
C112	C	0.955306	0.372345	0.369452
C113	C	0.897448	0.450636	0.306081
C114	C	0.353618	1.186644	-0.289684
C115	C	0.295760	1.264956	-0.353057
C116	C	0.303940	1.304119	-0.421872
C117	C	0.369984	1.264974	-0.427312
C118	C	0.427841	1.186670	-0.363940
C119	C	0.427866	1.186644	-0.004797
C120	C	0.370020	1.264952	-0.007562
C121	C	0.303971	1.304112	-0.046059
C122	C	0.295768	1.264967	-0.081798
C123	C	0.353613	1.186666	-0.079037
C124	C	0.712752	1.186643	-0.289697
C125	C	0.715528	1.264932	-0.353072
C126	C	0.679795	1.304090	-0.421884
C127	C	0.641289	1.264948	-0.427321
C128	C	0.638517	1.186655	-0.363947
H129	H	0.463619	0.644661	0.044550
O130	O	-0.155261	1.017975	-0.113134
H131	H	-0.159808	1.063955	-0.093304
H132	H	0.567394	0.818664	-0.399132
H133	H	1.083306	0.340455	0.055257
O134	O	0.682777	1.388548	-0.490237
H135	H	0.715549	1.409186	-0.474888
H136	H	0.713122	0.340498	0.425482
H137	H	0.643272	0.269447	0.415666
H138	H	0.578429	0.340443	0.290843
O139	O	0.980532	0.492830	0.059726
H140	H	0.954165	0.477793	0.101285
O141	O	1.083706	0.248766	-0.008862
H142	H	1.113202	0.177416	0.048926
O143	O	0.728301	0.492877	0.311926
H144	H	0.752676	0.452512	0.370420
O145	O	0.721113	0.342421	-0.087418
H146	H	0.745535	0.302118	-0.111841
O147	O	0.553523	0.818658	-0.281149
H148	H	0.517015	0.818679	-0.312416
H149	H	0.583435	0.482482	0.175839
O150	O	0.110969	0.619328	0.055246
H151	H	0.115515	0.573350	0.113918
O152	O	0.604154	0.294895	0.029538
H153	H	0.638599	0.208517	0.073580
O154	O	-0.015032	0.619332	0.055239
H155	H	0.039683	0.552651	0.083393
H156	H	0.353654	0.644664	0.044555
H157	H	0.746883	1.296793	-0.348631
H158	H	0.757880	0.818635	-0.289147
O159	O	0.344754	1.144448	-0.117576
H160	H	0.371113	1.159475	-0.159142
O161	O	0.980501	0.492891	0.157607
H162	H	1.036146	0.452529	0.164481
O163	O	0.224531	1.307149	-0.347181
H164	H	0.228569	1.266738	-0.288681
H165	H	0.757881	0.818639	-0.399118
H166	H	0.567405	0.818655	-0.658745
H167	H	0.843648	0.482532	-0.084423
O168	O	0.499099	1.144437	0.036716
H169	H	0.504009	1.108783	0.095022
O170	O	1.100757	0.330145	0.289322
H171	H	1.096718	0.370517	0.230824
O172	O	1.083756	0.248751	0.432362
H173	H	1.131047	0.228115	0.417009
O174	O	0.214327	1.017969	-0.113122
H175	H	0.172752	1.001861	-0.106331
H176	H	0.376636	1.296871	-0.483348
H177	H	0.376713	1.296811	0.021544
H178	H	0.341217	0.992623	-0.102395
H179	H	0.948656	0.340451	0.425489
O180	O	0.224526	1.307206	-0.123313
H181	H	0.219607	1.342890	-0.181625
O182	O	0.771769	0.818638	-0.776713
H183	H	0.822165	0.746945	-0.734795
O184	O	0.946414	0.330147	-0.088866
H185	H	0.890766	0.370519	-0.116082
H186	H	0.843680	0.482487	0.310522
O187	O	0.241535	1.388588	-0.490222
H188	H	0.194243	1.409218	-0.474870
O189	O	0.602741	1.307197	-0.501543
H190	H	0.611134	1.368223	-0.544691
O191	O	0.553518	0.818681	-0.776720
H192	H	0.576208	0.746990	-0.774061
H193	H	0.607159	1.154801	-0.368386
O194	O	0.751304	1.144404	-0.215481
H195	H	0.778551	1.184768	-0.222358
H196	H	0.481609	1.154801	-0.368380
O197	O	-0.029264	1.017966	-0.113129
H198	H	-0.083979	1.084647	-0.141302
O199	O	0.771777	0.818602	-0.650711
H200	H	0.762957	0.818605	-0.603471
H201	H	0.346945	1.154762	-0.233658
O202	O	0.241582	1.388537	-0.049011
H203	H	0.258390	1.409153	-0.017678
