data_functionalizedCrystal
_audit_creation_method	'MofGen! by Chris Wilmer'
_symmetry_space_group_name_H-M	'P1'
_symmetry_Int_Tables_number	1
_symmetry_cell_setting	triclinic
loop_
_symmetry_equiv_pos_as_xyz
  x,y,z
_cell_length_a	18.101395
_cell_length_b	19.805407
_cell_length_c	19.805399
_cell_angle_alpha	89.983114
_cell_angle_beta	89.973474
_cell_angle_gamma	90.031104
loop_
_atom_site_label
_atom_site_type_symbol
_atom_site_fract_x
_atom_site_fract_y
_atom_site_fract_z
Zn1	Zn	-0.294836	1.034696	-0.382731
Zn2	Zn	0.205164	1.534696	0.117269
Zn3	Zn	-0.418683	1.034607	-0.269548
Zn4	Zn	0.081317	1.534607	0.230452
Zn5	Zn	-0.294860	0.921516	-0.269556
Zn6	Zn	0.205140	1.421516	0.230444
Zn7	Zn	-0.418641	0.921465	-0.382695
Zn8	Zn	0.081359	1.421465	0.117305
O9	O	-0.356755	0.978071	-0.326132
O10	O	0.143245	1.478071	0.173868
O11	O	-0.311273	1.129400	-0.367729
O12	O	0.188727	1.629400	0.132271
O13	O	-0.402285	1.019589	-0.174832
O14	O	0.097715	1.519589	0.325168
O15	O	-0.191224	0.936588	-0.284587
O16	O	0.308776	1.436588	0.215413
O17	O	-0.402263	1.129335	-0.284574
O18	O	0.097737	1.629335	0.215426
O19	O	-0.191207	1.019741	-0.367737
O20	O	0.308793	1.519741	0.132263
O21	O	-0.311313	0.936501	-0.174838
O22	O	0.188687	1.436501	0.325162
O23	O	-0.311272	0.826792	-0.284552
O24	O	0.188728	1.326792	0.215448
O25	O	-0.402190	0.936501	-0.477416
O26	O	0.097810	1.436501	0.022584
O27	O	-0.402213	0.826755	-0.367674
O28	O	0.097787	1.326755	0.132326
O29	O	-0.311232	1.019691	-0.477443
O30	O	0.188768	1.519691	0.022557
O31	O	-0.522310	1.019539	-0.284538
O32	O	-0.022310	1.519539	0.215462
O33	O	-0.522279	0.936414	-0.367667
O34	O	-0.022279	1.436414	0.132333
C35	C	-0.356741	0.802215	-0.326110
C36	C	0.143259	1.302215	0.173890
C37	C	-0.356753	0.726983	-0.326117
C38	C	0.143247	1.226983	0.173883
C39	C	-0.404177	0.691637	-0.369329
C40	C	0.095823	1.191637	0.130671
C41	C	-0.404178	0.620948	-0.369339
C42	C	0.095822	1.120948	0.130661
C43	C	-0.356758	0.585607	-0.326132
C44	C	0.143242	1.085607	0.173868
C45	C	-0.309329	0.620958	-0.282919
C46	C	0.190671	1.120958	0.217081
C47	C	-0.309324	0.691645	-0.282913
C48	C	0.190676	1.191645	0.217087
C49	C	-0.309345	0.335885	-0.282941
C50	C	0.190655	0.835885	0.217059
C51	C	-0.309355	0.265193	-0.282948
C52	C	0.190645	0.765193	0.217052
C53	C	-0.404199	0.265188	-0.369367
C54	C	0.095801	0.765188	0.130633
C55	C	-0.404195	0.335875	-0.369361
C56	C	0.095805	0.835875	0.130639
C57	C	-0.356763	0.371220	-0.326150
C58	C	0.143237	0.871220	0.173850
C59	C	-0.356761	0.447868	-0.326141
C60	C	0.143239	0.947868	0.173859
C61	C	-0.356763	0.508960	-0.326137
C62	C	0.143237	1.008960	0.173863
C63	C	-0.549166	0.977980	-0.326112
C64	C	-0.049166	1.477980	0.173888
C65	C	-0.631480	0.978003	-0.326127
C66	C	-0.131480	1.478003	0.173873
C67	C	-0.930571	0.978152	-0.326163
C68	C	-0.430571	1.478152	0.173837
C69	C	-0.899257	0.925973	-0.378595
C70	C	-0.399257	1.425973	0.121405
C71	C	-0.813639	0.925725	-0.378431
C72	C	-0.313639	1.425725	0.121569
C73	C	-0.782188	0.978078	-0.326146
C74	C	-0.282188	1.478078	0.173854
C75	C	-0.813338	0.958771	-0.254811
C76	C	-0.313338	1.458771	0.245189
C77	C	-0.898984	0.958434	-0.255125
C78	C	-0.398984	1.458434	0.244875
C79	C	-0.898915	1.049752	-0.344438
C80	C	-0.398915	1.549752	0.155562
C81	C	-0.813264	1.049331	-0.346002
C82	C	-0.313264	1.549331	0.153998
C83	C	-0.698329	0.978038	-0.326131
C84	C	-0.198329	1.478038	0.173869
C85	C	-1.014430	0.978191	-0.326173
C86	C	-0.514430	1.478191	0.173827
C87	C	-0.163593	0.978180	-0.326167
C88	C	0.336407	1.478180	0.173833
C89	C	-0.081279	0.978227	-0.326182
C90	C	0.418721	1.478227	0.173818
C91	C	-0.356704	0.978100	-0.502675
C92	C	0.143296	1.478100	-0.002675
C93	C	-0.356682	0.978113	-0.577907
C94	C	0.143318	1.478113	-0.077907
C95	C	-0.356770	1.154613	-0.326155
C96	C	0.143230	1.654613	0.173845
C97	C	-0.356776	1.229845	-0.326164
C98	C	0.143224	1.729845	0.173836
C99	C	-0.309308	0.934862	-0.613254
C100	C	0.190692	1.434862	-0.113254
C101	C	-0.309294	0.934871	-0.683942
C102	C	0.190706	1.434871	-0.183942
C103	C	-0.356650	0.978135	-0.719283
C104	C	0.143350	1.478135	-0.219283
C105	C	-0.404029	1.021389	-0.683931
C106	C	0.095971	1.521389	-0.183931
C107	C	-0.404046	1.021375	-0.613244
C108	C	0.095954	1.521375	-0.113244
C109	C	-0.403959	1.021442	-0.969005
C110	C	0.096041	1.521442	-0.469005
C111	C	-0.403937	1.021454	-1.039697
C112	C	0.096063	1.521454	-0.539697
C113	C	-0.309207	0.934938	-1.039703
C114	C	0.190793	1.434938	-0.539703
C115	C	-0.309224	0.934925	-0.969016
C116	C	0.190776	1.434925	-0.469016
C117	C	-0.356606	0.978175	-0.933670
C118	C	0.143394	1.478175	-0.433670
C119	C	-0.356622	0.978163	-0.857022
C120	C	0.143378	1.478163	-0.357022
C121	C	-0.356631	0.978151	-0.795930
C122	C	0.143369	1.478151	-0.295930
C123	C	-0.356753	0.978080	-0.150276
C124	C	0.143247	1.478080	0.349724
C125	C	-0.356566	0.978198	-0.075045
C126	C	0.143434	1.478198	0.424955
H127	H	-0.270716	0.592178	-0.247742
H128	H	0.229284	1.092178	0.252258
H129	H	-0.270720	0.899649	-0.712719
H130	H	0.229280	1.399649	-0.212719
Cl131	Cl	-0.929931	0.877626	-0.231225
Cl132	Cl	-0.429931	1.377626	0.268775
H133	H	-0.792575	0.937804	-0.431325
H134	H	-0.292575	1.437804	0.068675
Cl135	Cl	-0.930985	0.944432	-0.460526
Cl136	Cl	-0.430985	1.444432	0.039474
Cl137	Cl	-0.932600	0.844534	-0.360156
Cl138	Cl	-0.432600	1.344534	0.139844
Cl139	Cl	-0.932182	1.076931	-0.423381
Cl140	Cl	-0.432182	1.576931	0.076619
Cl141	Cl	-0.463519	1.075820	-0.924580
Cl142	Cl	0.036481	1.575820	-0.424580
H143	H	-0.442591	1.056612	-0.712711
H144	H	0.057409	1.556612	-0.212711
H145	H	-0.919164	1.088627	-0.306250
H146	H	-0.419164	1.588627	0.193750
Cl147	Cl	-0.463476	1.075846	-1.084124
Cl148	Cl	0.036524	1.575846	-0.584124
H149	H	-0.270735	0.236420	-0.247765
H150	H	0.229265	0.736420	0.252235
H151	H	-0.442617	1.056600	-0.584466
H152	H	0.057383	1.556600	-0.084466
Cl153	Cl	-0.780199	1.112531	-0.291344
Cl154	Cl	-0.280199	1.612531	0.208656
H155	H	-0.792901	1.063891	-0.398501
H156	H	-0.292901	1.563891	0.101499
Cl157	Cl	-0.249701	0.736080	-0.228589
Cl158	Cl	0.250299	1.236080	0.271411
Cl159	Cl	-0.463798	0.736059	-0.423646
Cl160	Cl	0.036202	1.236059	0.076354
Cl161	Cl	-0.249714	0.380309	-0.228620
Cl162	Cl	0.250286	0.880309	0.271380
H163	H	-0.442811	0.364646	-0.404542
H164	H	0.057189	0.864646	0.095458
H165	H	-0.442797	0.592173	-0.404525
H166	H	0.057203	1.092173	0.095475
H167	H	-0.442818	0.236402	-0.404554
H168	H	0.057182	0.736402	0.095446
Cl169	Cl	-0.249767	0.880472	-0.568833
Cl170	Cl	0.250233	1.380472	-0.068833
H171	H	-0.793215	0.872653	-0.366326
H172	H	-0.293215	1.372653	0.133674
H173	H	-0.919700	0.994790	-0.214727
H174	H	-0.419700	1.494790	0.285273
H175	H	-0.792968	0.995580	-0.214680
H176	H	-0.292968	1.495580	0.285320
Cl177	Cl	-0.780328	0.878816	-0.230481
Cl178	Cl	-0.280328	1.378816	0.269519
H179	H	-0.270659	0.899697	-0.940245
H180	H	0.229341	1.399697	-0.440245
H181	H	-0.270629	0.899719	-1.068490
H182	H	0.229371	1.399719	-0.568490
