data_functionalizedCrystal
_audit_creation_method	'MofGen! by Chris Wilmer'
_symmetry_space_group_name_H-M	'P1'
_symmetry_Int_Tables_number	1
_symmetry_cell_setting	triclinic
loop_
_symmetry_equiv_pos_as_xyz
  x,y,z
_cell_length_a	14.519731
_cell_length_b	12.996460
_cell_length_c	12.811415
_cell_angle_alpha	95.436997
_cell_angle_beta	83.866903
_cell_angle_gamma	90.005673
loop_
_atom_site_label
_atom_site_type_symbol
_atom_site_fract_x
_atom_site_fract_y
_atom_site_fract_z
O1	O	1.224186	0.098416	0.137698
O2	O	0.955751	0.099927	0.153878
O3	O	1.096721	0.084911	-0.006992
O4	O	1.083216	0.113432	0.298568
O5	O	1.096706	-0.086224	-0.007001
O6	O	0.955736	-0.071208	0.153869
O7	O	1.224171	-0.072719	0.137689
Cu8	Cu	1.089952	-0.087589	0.145778
Cu9	Cu	1.089970	0.114797	0.145789
O10	O	1.083201	-0.057702	0.298559
C11	C	0.921382	0.014289	0.153115
C12	C	0.818996	0.014078	0.150843
C13	C	0.735848	0.013909	0.148997
C14	C	0.631533	0.013695	0.146691
C15	C	0.548390	0.013524	0.144860
C16	C	0.444069	0.013311	0.142554
N17	N	1.089947	-0.229937	0.145770
C18	C	1.089968	-0.649749	0.145790
C19	C	1.089960	-0.532945	0.145788
C20	C	1.089958	-0.439847	0.145781
C21	C	1.089948	-0.323035	0.145777
C22	C	1.258540	0.012921	0.138452
C23	C	1.360926	0.013140	0.140723
C24	C	1.095957	-0.004305	-0.046102
C25	C	1.093690	-0.015175	-0.162625
N26	N	1.089983	0.257144	0.145788
C27	C	1.089429	0.150992	-0.381563
C28	C	1.087299	0.140784	-0.491047
C29	C	1.087293	-0.045798	-0.491078
C30	C	1.089423	-0.035590	-0.381594
C31	C	1.090492	0.062808	-0.326841
C32	C	1.092629	0.073016	-0.217356
C33	C	1.092616	-0.113566	-0.217388
C34	C	1.090486	-0.123774	-0.326871
C35	C	1.083965	0.031515	0.337669
C36	C	1.086232	0.042392	0.454192
H37	H	1.093503	0.153137	-0.172778
Cl38	Cl	1.093962	-0.224432	-0.148589
Cl39	Cl	1.089134	-0.247468	-0.395713
H40	H	1.090308	0.231112	-0.336983
Cl41	Cl	1.085921	-0.169488	-0.559924
Cl42	Cl	1.085960	0.251649	-0.559837
