data_functionalizedCrystal
_audit_creation_method	'MofGen! by Chris Wilmer'
_symmetry_space_group_name_H-M	'P1'
_symmetry_Int_Tables_number	1
_symmetry_cell_setting	triclinic
loop_
_symmetry_equiv_pos_as_xyz
  x,y,z
_cell_length_a	18.101398
_cell_length_b	18.101397
_cell_length_c	17.077404
_cell_angle_alpha	90.014137
_cell_angle_beta	90.014212
_cell_angle_gamma	90.018196
loop_
_atom_site_label
_atom_site_type_symbol
_atom_site_fract_x
_atom_site_fract_y
_atom_site_fract_z
Zn1	Zn	1.132098	-0.295003	0.443948
Zn2	Zn	1.132040	-0.418813	0.312675
Zn3	Zn	1.008280	-0.294985	0.312683
Zn4	Zn	1.008231	-0.418802	0.443885
O5	O	1.070162	-0.356901	0.378298
O6	O	1.235724	-0.311438	0.426558
O7	O	1.115619	-0.402385	0.202829
O8	O	1.024750	-0.191355	0.330125
O9	O	1.235681	-0.402402	0.330112
O10	O	1.115719	-0.191367	0.426566
O11	O	1.024693	-0.311409	0.202835
O12	O	0.904641	-0.311398	0.330064
O13	O	1.024666	-0.402382	0.553741
O14	O	0.904605	-0.402365	0.426458
O15	O	1.115671	-0.311427	0.553787
O16	O	1.115572	-0.522445	0.330051
O17	O	1.024610	-0.522436	0.426450
C18	C	0.877752	-0.356879	0.378255
C19	C	0.795438	-0.356887	0.378256
C20	C	1.070099	-0.549311	0.378260
C21	C	1.070140	-0.631625	0.378270
C22	C	0.644729	-0.356903	0.378291
C23	C	0.613374	-0.299586	0.317744
C24	C	0.527755	-0.299371	0.317942
C25	C	0.496347	-0.356918	0.378324
C26	C	0.527468	-0.336108	0.461146
C27	C	0.613113	-0.335683	0.460776
C28	C	0.613144	-0.435177	0.356747
C29	C	0.527493	-0.434764	0.354942
C30	C	0.412487	-0.356927	0.378348
C31	C	0.728589	-0.356891	0.378273
C32	C	1.070234	-0.930716	0.378342
C33	C	1.127305	-0.899366	0.317527
C34	C	1.127503	-0.813747	0.317685
C35	C	1.070187	-0.782334	0.378305
C36	C	1.091329	-0.813364	0.461049
C37	C	1.091770	-0.899009	0.460718
C38	C	0.991869	-0.899216	0.357128
C39	C	0.992256	-0.813567	0.355282
C40	C	1.070160	-0.698474	0.378290
C41	C	1.070264	-1.014576	0.378362
C42	C	1.263324	-0.356923	0.378341
C43	C	1.345638	-0.356933	0.378360
C44	C	1.070169	-0.356905	0.583042
C45	C	1.070173	-0.356907	0.670292
C46	C	1.070246	-0.163739	0.378353
C47	C	1.070282	-0.081425	0.378377
C48	C	1.117553	-0.309555	0.711308
C49	C	1.117547	-0.309554	0.793288
C50	C	1.070163	-0.356910	0.834251
C51	C	1.022778	-0.404264	0.793230
C52	C	1.022781	-0.404261	0.711251
C53	C	1.022776	-0.404269	0.964100
C54	C	1.022774	-0.404273	1.046085
C55	C	1.117542	-0.309562	1.046137
C56	C	1.117545	-0.309559	0.964158
C57	C	1.070160	-0.356914	0.923142
C58	C	1.070152	-0.356915	1.174350
C59	C	1.070154	-0.356921	1.087100
H60	H	0.506711	-0.312351	0.256542
H61	H	0.984179	-0.442819	0.930708
C62	C	0.498504	-0.259685	0.486187
N63	N	0.476685	-0.202124	0.505046
C64	C	0.642455	-0.221670	0.336825
N65	N	0.664357	-0.162984	0.351202
C66	C	1.169157	-0.925930	0.484982
N67	N	1.227448	-0.946204	0.503255
C68	C	1.109663	-0.927238	0.234393
N69	N	1.096372	-0.948235	0.171774
H70	H	0.947448	-0.792190	0.396331
H71	H	0.633104	-0.278477	0.478985
H72	H	1.185037	-0.920840	0.331402
C73	C	0.934423	-0.926612	0.416964
N74	N	0.891159	-0.947250	0.462034
C75	C	0.970648	-0.456348	0.838293
N76	N	0.931383	-0.495579	0.872233
C77	C	0.641141	-0.389648	0.523836
N78	N	0.662249	-0.430288	0.571337
C79	C	0.640545	-0.492864	0.416315
N80	N	0.661188	-0.536309	0.461183
H81	H	1.185552	-0.793210	0.331721
C82	C	1.169665	-0.257470	1.091256
N83	N	1.208925	-0.218238	1.125243
H84	H	1.051031	-0.793016	0.507579
H85	H	0.633928	-0.312419	0.256139
C86	C	1.038060	-0.927027	0.524027
N87	N	0.997611	-0.948127	0.571717
H88	H	1.156130	-0.270997	0.826679
H89	H	0.984188	-0.442833	1.079435
C90	C	0.970660	-0.456353	0.666134
N91	N	0.931399	-0.495590	0.632154
H92	H	0.507280	-0.241374	0.332246
H93	H	0.507127	-0.376584	0.507507
C94	C	0.642283	-0.460852	0.276516
N95	N	0.664231	-0.480182	0.216082
H96	H	0.507150	-0.450462	0.293989
H97	H	1.147968	-0.791864	0.479320
C98	C	1.109610	-0.785404	0.234806
N99	N	1.096125	-0.764059	0.172380
H100	H	0.972633	-0.920860	0.297838
H101	H	1.156133	-0.271002	0.930808
H102	H	0.506106	-0.479730	0.395797
H103	H	0.976315	-0.793291	0.294389
C104	C	1.169679	-0.257459	0.666255
N105	N	1.208939	-0.218215	0.632324
