data_functionalizedCrystal
_audit_creation_method	'MofGen! by Chris Wilmer'
_symmetry_space_group_name_H-M	'P1'
_symmetry_Int_Tables_number	1
_symmetry_cell_setting	triclinic
loop_
_symmetry_equiv_pos_as_xyz
  x,y,z
_cell_length_a	6.817900
_cell_length_b	9.582860
_cell_length_c	14.858340
_cell_angle_alpha	92.657606
_cell_angle_beta	104.519754
_cell_angle_gamma	111.206767
loop_
_atom_site_label
_atom_site_type_symbol
_atom_site_fract_x
_atom_site_fract_y
_atom_site_fract_z
V1	V	-4.078393	-0.208009	-0.289789
V2	V	-3.578393	0.291991	0.210211
O3	O	-4.023831	0.009014	-0.284448
O4	O	-3.523831	0.509014	0.215552
O5	O	-4.069078	-0.411503	-0.287639
O6	O	-3.569078	0.088497	0.212361
O7	O	-4.034480	-0.205241	-0.416253
O8	O	-3.534480	0.294759	0.083747
O9	O	-4.058669	-0.198677	-0.154943
O10	O	-3.558669	0.301323	0.345057
V11	V	-4.556375	-0.182000	-0.273681
V12	V	-4.056375	0.318000	0.226319
O13	O	-4.351806	-0.265063	-0.325124
O14	O	-3.851806	0.234937	0.174876
O15	O	-4.733159	-0.124946	-0.238346
O16	O	-4.233159	0.375054	0.261654
O17	O	-4.342483	0.021494	-0.275832
O18	O	-3.842483	0.521494	0.224168
O19	O	-4.728333	-0.399023	-0.279022
O20	O	-4.228333	0.100977	0.220978
O21	O	-4.693496	-0.191333	-0.408527
O22	O	-4.193496	0.308667	0.091473
O23	O	-4.377081	-0.184769	-0.147217
O24	O	-3.877081	0.315231	0.352783
C25	C	-3.923442	-0.461097	-0.283023
C26	C	-3.423442	0.038903	0.216977
C27	C	-3.997142	-0.627459	-0.282108
C28	C	-3.497142	-0.127459	0.217892
C29	C	-3.879307	-0.197987	-0.447083
C30	C	-3.379307	0.302013	0.052917
C31	C	-3.924945	-0.197070	-0.550467
C32	C	-3.424945	0.302930	-0.050467
C33	C	-3.962006	-0.196323	-0.634426
C34	C	-3.462006	0.303677	-0.134426
C35	C	-4.008515	-0.195380	-0.739756
C36	C	-3.508515	0.304620	-0.239756
C37	C	-4.045598	-0.194629	-0.823708
C38	C	-3.545598	0.305371	-0.323708
C39	C	-4.092112	-0.193689	-0.929045
C40	C	-3.592112	0.306311	-0.429045
C41	C	-4.151463	0.071080	-0.280444
C42	C	-3.651463	0.571080	0.219556
C43	C	-4.057001	0.237440	-0.281366
C44	C	-3.557001	0.737440	0.218634
C45	C	-4.195597	-0.192027	-0.116382
C46	C	-3.695597	0.307973	0.383618
C47	C	-4.129196	-0.192937	-0.012997
C48	C	-3.629196	0.307063	0.487003
