data_functionalizedCrystal
_audit_creation_method	'MofGen! by Chris Wilmer'
_symmetry_space_group_name_H-M	'P1'
_symmetry_Int_Tables_number	1
_symmetry_cell_setting	triclinic
loop_
_symmetry_equiv_pos_as_xyz
  x,y,z
_cell_length_a	12.759401
_cell_length_b	19.805405
_cell_length_c	12.759393
_cell_angle_alpha	90.033867
_cell_angle_beta	90.020938
_cell_angle_gamma	90.028251
loop_
_atom_site_label
_atom_site_type_symbol
_atom_site_fract_x
_atom_site_fract_y
_atom_site_fract_z
Zn1	Zn	1.606179	-0.269403	0.593995
Zn2	Zn	1.606033	-0.382606	0.418305
Zn3	Zn	1.430477	-0.269439	0.418331
Zn4	Zn	1.430432	-0.382558	0.593942
O5	O	1.518280	-0.326001	0.506143
O6	O	1.753180	-0.284424	0.570701
O7	O	1.582703	-0.367629	0.271287
O8	O	1.453864	-0.174718	0.441666
O9	O	1.753073	-0.367594	0.441623
O10	O	1.582951	-0.174691	0.570726
O11	O	1.453723	-0.284486	0.271306
O12	O	1.283450	-0.284440	0.441614
O13	O	1.453788	-0.367513	0.740971
O14	O	1.283417	-0.367548	0.570636
O15	O	1.582908	-0.284378	0.741010
O16	O	1.582659	-0.477316	0.441571
O17	O	1.453646	-0.477281	0.570611
C18	C	1.245313	-0.325993	0.506123
C19	C	1.128536	-0.326006	0.506139
C20	C	1.073685	-0.369346	0.573214
C21	C	0.963961	-0.369349	0.573235
C22	C	0.963949	-0.282669	0.439096
C23	C	1.073672	-0.282663	0.439081
C24	C	1.518161	-0.501857	0.506105
C25	C	1.518205	-0.577089	0.506124
C26	C	1.585381	-0.612362	0.573379
C27	C	1.585419	-0.683050	0.573398
C28	C	1.518286	-0.718465	0.506157
C29	C	1.451103	-0.683188	0.438900
C30	C	1.451060	-0.612501	0.438887
C31	C	1.451271	-0.968261	0.438954
C32	C	1.451321	-1.038953	0.438970
C33	C	1.585630	-1.038810	0.573465
C34	C	1.585588	-0.968123	0.573452
C35	C	1.518401	-0.932852	0.506199
C36	C	1.518360	-0.856204	0.506180
C37	C	1.518332	-0.795112	0.506170
C38	C	1.792313	-0.326010	0.506165
C39	C	1.909090	-0.326014	0.506174
C40	C	1.518359	-0.325936	0.780177
C41	C	1.518392	-0.325909	0.896954
C42	C	1.518429	-0.149459	0.506205
C43	C	1.518492	-0.074227	0.506231
C44	C	1.518262	-0.326017	0.233176
C45	C	1.518432	-0.325854	0.116400
C46	C	1.585630	-0.282614	0.951838
C47	C	1.585648	-0.282584	1.061562
C48	C	1.451187	-0.369151	1.061508
C49	C	1.451165	-0.369177	0.951786
H50	H	1.640054	-0.583531	0.628129
N51	N	0.904798	-0.416097	0.645576
H52	H	0.956207	-0.443553	0.688049
H53	H	0.859233	-0.447386	0.602722
N54	N	1.378697	-0.721381	0.366369
H55	H	1.330006	-0.750721	0.409021
H56	H	1.421519	-0.750664	0.317740
H57	H	1.640368	-0.247380	0.907196
N58	N	1.378903	-1.077155	0.366452
H59	H	1.421643	-1.106479	0.317806
H60	H	1.336345	-1.044044	0.323917
H61	H	1.118333	-0.247366	0.384460
N62	N	1.657991	-0.929922	0.645975
H63	H	1.733076	-0.942187	0.629733
H64	H	1.641549	-0.942213	0.721000
H65	H	1.396404	-0.404432	0.907098
N66	N	1.132863	-0.416091	0.645538
H67	H	1.081460	-0.443546	0.688033
H68	H	1.178431	-0.388576	0.694228
N69	N	0.904774	-0.235940	0.366744
H70	H	0.826942	-0.242526	0.376920
H71	H	0.923925	-0.246433	0.291688
N72	N	1.657820	-0.721094	0.645989
H73	H	1.700329	-0.687933	0.688596
H74	H	1.706496	-0.750436	0.603325
N75	N	1.378820	-0.930224	0.366410
H76	H	1.336306	-0.963387	0.323812
H77	H	1.421599	-0.900895	0.317825
H78	H	1.640334	-1.067536	0.628230
H79	H	1.396357	-0.583783	0.384123
N80	N	1.658156	-0.235880	1.120759
H81	H	1.700734	-0.208474	1.069370
H82	H	1.706763	-0.263417	1.166290
H83	H	1.396455	-0.404380	1.106166
