data_functionalizedCrystal
_audit_creation_method	'MofGen! by Chris Wilmer'
_symmetry_space_group_name_H-M	'P1'
_symmetry_Int_Tables_number	1
_symmetry_cell_setting	triclinic
loop_
_symmetry_equiv_pos_as_xyz
  x,y,z
_cell_length_a	17.077404
_cell_length_b	12.827892
_cell_length_c	17.077396
_cell_angle_alpha	89.975123
_cell_angle_beta	89.980499
_cell_angle_gamma	90.015617
loop_
_atom_site_label
_atom_site_type_symbol
_atom_site_fract_x
_atom_site_fract_y
_atom_site_fract_z
Zn1	Zn	1.200096	-0.416027	-0.443862
Zn2	Zn	1.200020	-0.590789	-0.312605
Zn3	Zn	1.068827	-0.416063	-0.312610
Zn4	Zn	1.068812	-0.590727	-0.443828
O5	O	1.134439	-0.503402	-0.378226
O6	O	1.309932	-0.439220	-0.426463
O7	O	1.182591	-0.567653	-0.202758
O8	O	1.086278	-0.269823	-0.330038
O9	O	1.309877	-0.567617	-0.330028
O10	O	1.182720	-0.269796	-0.426468
O11	O	1.086205	-0.439282	-0.202763
O12	O	0.958978	-0.439222	-0.330005
O13	O	1.086253	-0.567511	-0.553680
O14	O	0.958968	-0.567547	-0.426410
O15	O	1.182706	-0.439160	-0.553705
O16	O	1.182577	-0.737017	-0.329995
O17	O	1.086179	-0.736971	-0.426404
C18	C	0.930491	-0.503383	-0.378205
C19	C	0.843241	-0.503400	-0.378214
C20	C	0.802266	-0.570319	-0.428332
C21	C	0.720285	-0.570321	-0.428344
C22	C	0.679282	-0.503409	-0.378235
C23	C	0.720263	-0.436482	-0.328115
C24	C	0.802242	-0.436475	-0.328107
C25	C	0.549393	-0.436502	-0.328134
C26	C	0.467408	-0.436510	-0.328140
C27	C	0.467436	-0.570349	-0.428371
C28	C	0.549415	-0.570342	-0.428363
C29	C	0.590391	-0.503416	-0.378242
C30	C	1.134390	-0.774912	-0.378213
C31	C	1.134440	-0.891065	-0.378233
C32	C	1.182198	-0.942837	-0.330579
C33	C	1.182251	-1.062888	-0.330599
C34	C	1.339183	-0.503421	-0.378249
C35	C	1.426433	-0.503430	-0.378258
C36	C	1.134486	-0.503325	-0.582971
C37	C	1.134506	-0.503292	-0.670221
C38	C	1.134509	-0.230831	-0.378257
C39	C	1.134540	-0.114678	-0.378271
C40	C	1.184731	-0.436454	-0.711225
C41	C	1.184741	-0.436419	-0.793206
C42	C	1.134529	-0.503228	-0.834180
C43	C	1.084298	-0.570069	-0.793170
C44	C	1.084285	-0.570098	-0.711191
C45	C	1.084330	-0.570007	-0.964040
C46	C	1.084344	-0.569980	-1.046025
C47	C	1.184785	-0.436327	-1.046055
C48	C	1.184772	-0.436356	-0.964076
C49	C	1.134543	-0.503199	-0.923071
C50	C	1.134437	-0.503403	-0.174279
C51	C	1.134568	-0.503141	-0.087029
H52	H	0.434025	-0.382012	-0.287346
H53	H	1.225664	-0.381960	-0.930716
H54	H	0.582798	-0.624834	-0.469163
H55	H	1.225683	-0.381900	-1.079445
H56	H	1.223136	-1.107411	-0.289799
H57	H	0.582752	-0.381995	-0.287327
C58	C	1.029069	-0.643562	-0.838246
C59	C	1.063082	-0.725586	-0.894596
C60	C	1.007856	-0.799084	-0.939673
C61	C	0.918617	-0.790558	-0.928399
C62	C	0.884600	-0.708531	-0.872046
C63	C	0.939826	-0.635033	-0.826969
H64	H	1.129145	-0.731901	-0.902944
H65	H	1.033038	-0.859806	-0.981389
H66	H	0.877736	-0.844965	-0.961768
H67	H	0.818537	-0.702216	-0.863698
H68	H	0.914644	-0.574311	-0.785253
H69	H	0.686871	-0.381996	-0.287318
C70	C	0.847320	-0.362863	-0.272978
C71	C	0.836067	-0.244077	-0.279541
C72	C	0.881145	-0.170457	-0.224415
C73	C	0.937475	-0.215623	-0.162725
C74	C	0.948730	-0.334415	-0.156160
C75	C	0.903652	-0.408034	-0.211286
H76	H	0.794366	-0.210637	-0.325209
H77	H	0.872813	-0.082519	-0.229275
H78	H	0.970844	-0.161125	-0.121918
H79	H	0.990431	-0.367855	-0.110491
H80	H	0.911984	-0.495972	-0.206425
H81	H	1.223048	-0.898288	-0.289769
C82	C	1.079255	-0.951240	-0.433372
C83	C	1.085591	-0.936250	-0.522622
C84	C	1.030404	-0.996422	-0.577763
C85	C	0.968880	-1.071585	-0.543654
C86	C	0.962542	-1.086579	-0.454399
C87	C	1.017729	-1.026406	-0.399258
H88	H	1.131137	-0.880607	-0.547876
H89	H	1.035097	-0.985323	-0.643836
H90	H	0.928027	-1.116128	-0.584472
H91	H	0.916996	-1.142222	-0.429145
H92	H	1.013036	-1.037506	-0.333185
C93	C	1.239966	-0.362961	-0.666156
C94	C	1.233590	-0.244158	-0.677441
C95	C	1.288825	-0.170660	-0.632375
C96	C	1.350435	-0.215965	-0.576024
C97	C	1.356814	-0.334774	-0.564736
C98	C	1.301579	-0.408272	-0.609803
H99	H	1.187980	-0.210615	-0.719158
H100	H	1.284102	-0.082710	-0.640731
H101	H	1.391323	-0.161557	-0.542663
H102	H	1.402424	-0.368317	-0.523019
H103	H	1.306302	-0.496222	-0.601446
C104	C	1.239991	-0.362893	-0.838307
C105	C	1.329223	-0.371439	-0.827051
C106	C	1.384474	-0.297906	-0.872150
C107	C	1.350493	-0.215827	-0.928505
C108	C	1.261256	-0.207278	-0.939763
C109	C	1.206005	-0.280811	-0.894664
H110	H	1.354383	-0.432201	-0.785332
H111	H	1.450534	-0.304235	-0.863816
H112	H	1.391393	-0.161393	-0.961890
H113	H	1.236096	-0.146515	-0.981483
H114	H	1.139945	-0.274482	-0.902998
C115	C	1.029138	-0.643506	-1.091099
C116	C	0.973904	-0.717052	-1.046000
C117	C	0.918713	-0.790599	-1.091074
C118	C	0.918756	-0.790599	-1.181248
C119	C	0.973993	-0.717050	-1.226352
C120	C	1.029184	-0.643503	-1.181278
H121	H	0.973869	-0.717054	-0.979243
H122	H	0.877823	-0.845045	-1.057684
H123	H	0.877901	-0.845043	-1.214615
H124	H	0.974027	-0.717048	-1.293109
H125	H	1.070073	-0.589058	-1.214667
C126	C	1.029041	-0.643624	-0.666079
C127	C	0.939808	-0.635086	-0.677334
C128	C	0.884561	-0.708610	-0.632222
C129	C	0.918546	-0.790671	-0.575856
C130	C	1.007784	-0.799212	-0.564599
C131	C	1.063032	-0.725689	-0.609711
H132	H	0.914646	-0.574336	-0.719062
H133	H	0.818501	-0.702287	-0.640555
H134	H	0.877649	-0.845098	-0.542461
H135	H	1.032947	-0.859962	-0.522871
H136	H	1.129092	-0.732012	-0.601377
H137	H	1.043415	-0.624421	-0.930657
C138	C	0.675216	-0.643939	-0.483474
C139	C	0.686467	-0.762725	-0.476907
C140	C	0.641400	-0.836345	-0.532042
C141	C	0.585081	-0.791180	-0.593742
C142	C	0.573828	-0.672389	-0.600311
C143	C	0.618895	-0.598768	-0.545177
H144	H	0.728159	-0.796164	-0.431231
H145	H	0.649730	-0.924283	-0.527178
H146	H	0.551720	-0.845679	-0.634556
H147	H	0.532136	-0.638949	-0.645988
H148	H	0.610565	-0.510830	-0.550041
C149	C	0.422370	-0.643968	-0.483508
C150	C	0.365982	-0.725956	-0.449393
C151	C	0.320912	-0.799578	-0.504525
C152	C	0.332232	-0.791213	-0.593771
C153	C	0.388623	-0.709222	-0.627891
C154	C	0.433692	-0.635600	-0.572759
H155	H	0.357600	-0.732151	-0.383324
H156	H	0.279168	-0.860273	-0.479267
H157	H	0.298869	-0.845713	-0.634582
H158	H	0.397004	-0.703027	-0.693960
H159	H	0.475436	-0.574905	-0.598017
H160	H	0.835645	-0.624811	-0.469134
H161	H	1.093647	-1.070163	-0.419068
