data_functionalizedCrystal
_audit_creation_method	'MofGen! by Chris Wilmer'
_symmetry_space_group_name_H-M	'P1'
_symmetry_Int_Tables_number	1
_symmetry_cell_setting	triclinic
loop_
_symmetry_equiv_pos_as_xyz
  x,y,z
_cell_length_a	19.805407
_cell_length_b	12.759399
_cell_length_c	19.805399
_cell_angle_alpha	89.976347
_cell_angle_beta	89.980427
_cell_angle_gamma	90.015116
loop_
_atom_site_label
_atom_site_type_symbol
_atom_site_fract_x
_atom_site_fract_y
_atom_site_fract_z
Zn1	Zn	1.034789	-0.418291	-0.382738
Zn2	Zn	1.034726	-0.593984	-0.269558
Zn3	Zn	0.921603	-0.418320	-0.269563
Zn4	Zn	0.921589	-0.593928	-0.382704
O5	O	0.978177	-0.506131	-0.326141
O6	O	1.129497	-0.441608	-0.367736
O7	O	1.019700	-0.570717	-0.174842
O8	O	0.936650	-0.271295	-0.284592
O9	O	1.129451	-0.570689	-0.284583
O10	O	1.019807	-0.271273	-0.367741
O11	O	0.936589	-0.441657	-0.174845
O12	O	0.826885	-0.441603	-0.284559
O13	O	0.936626	-0.570594	-0.477425
O14	O	0.826875	-0.570622	-0.367684
O15	O	1.019793	-0.441554	-0.477450
O16	O	1.019686	-0.740998	-0.284551
O17	O	0.936565	-0.740957	-0.367679
C18	C	0.802321	-0.506110	-0.326119
C19	C	0.727089	-0.506127	-0.326126
C20	C	0.978135	-0.779098	-0.326125
C21	C	0.978180	-0.895875	-0.326141
C22	C	0.691757	-0.573408	-0.369339
C23	C	0.621069	-0.573410	-0.369348
C24	C	0.585713	-0.506135	-0.326141
C25	C	0.621050	-0.438847	-0.282926
C26	C	0.691737	-0.438840	-0.282920
C27	C	0.335977	-0.438870	-0.282948
C28	C	0.265285	-0.438884	-0.282956
C29	C	0.265308	-0.573440	-0.369376
C30	C	0.335995	-0.573433	-0.369370
C31	C	0.371326	-0.506141	-0.326158
C32	C	0.447974	-0.506139	-0.326149
C33	C	0.509066	-0.506143	-0.326146
C34	C	1.021510	-0.950723	-0.282906
C35	C	1.021554	-1.060447	-0.282928
C36	C	0.934930	-1.060465	-0.369424
C37	C	0.934891	-0.950743	-0.369405
C38	C	1.101446	-1.210321	-0.258846
C39	C	1.144771	-1.265173	-0.215599
C40	C	1.155188	-1.229620	-0.149559
C41	C	1.122271	-1.139217	-0.126751
C42	C	1.078942	-1.084370	-0.169994
C43	C	1.068537	-1.119922	-0.236044
C44	C	0.854997	-0.800867	-0.393480
C45	C	0.811663	-0.746018	-0.436720
C46	C	0.801239	-0.781569	-0.502762
C47	C	0.834144	-0.871976	-0.525567
C48	C	0.877478	-0.926825	-0.482327
C49	C	0.887903	-0.891266	-0.416286
C50	C	1.154720	-0.506152	-0.326163
C51	C	1.229952	-0.506160	-0.326173
C52	C	0.978215	-0.506064	-0.502684
C53	C	0.978231	-0.506036	-0.577916
C54	C	0.978237	-0.232097	-0.326171
C55	C	0.978263	-0.115321	-0.326184
C56	C	1.021537	-0.438842	-0.613274
C57	C	1.021544	-0.438811	-0.683962
C58	C	0.978248	-0.505981	-0.719291
C59	C	0.934937	-0.573179	-0.683928
C60	C	0.934927	-0.573203	-0.613241
C61	C	0.934975	-0.573081	-0.969002
C62	C	0.934990	-0.573054	-1.039694
C63	C	1.021592	-0.438689	-1.039723
C64	C	1.021582	-0.438713	-0.969036
C65	C	0.978269	-0.505906	-0.933679
C66	C	0.978261	-0.505937	-0.857030
C67	C	0.978259	-0.505957	-0.795938
C68	C	0.978178	-0.506121	-0.150285
C69	C	0.978293	-0.505853	-0.075053
H70	H	0.592304	-0.628198	-0.404536
H71	H	0.899730	-0.627754	-1.068457
H72	H	1.056810	-0.384097	-0.712748
O73	O	0.726137	-0.373633	-0.240908
C74	C	0.766987	-0.433358	-0.197112
H75	H	0.777574	-0.513026	-0.220894
H76	H	0.816697	-0.390542	-0.188087
H77	H	0.739724	-0.444800	-0.146941
O78	O	0.759074	-0.728425	-0.544767
C79	C	0.706083	-0.794977	-0.565295
H80	H	0.699593	-0.860645	-0.526788
H81	H	0.657255	-0.748032	-0.568961
H82	H	0.718552	-0.830070	-0.616736
H83	H	0.904274	-1.000436	-0.500902
O84	O	0.892941	-0.638393	-0.718349
C85	C	0.902223	-0.623947	-0.788322
H86	H	0.954468	-0.589544	-0.797991
H87	H	0.897617	-0.702634	-0.815176
H88	H	0.862092	-0.567985	-0.808381
O89	O	0.892899	-1.113928	-0.411380
C90	C	0.902234	-1.222533	-0.402138
H91	H	0.924438	-1.237546	-0.349926
H92	H	0.851546	-1.264292	-0.406687
H93	H	0.938264	-1.253584	-0.442324
H94	H	0.236500	-0.384094	-0.247771
O95	O	0.865024	-0.766215	-0.329334
C96	C	0.826694	-0.674653	-0.318481
H97	H	0.782766	-0.672416	-0.355632
H98	H	0.806296	-0.674678	-0.264650
H99	H	0.860026	-0.602827	-0.326385
H100	H	0.784874	-0.672399	-0.418148
O101	O	1.063759	-0.373518	-1.074040
C102	C	1.131210	-0.396480	-1.056766
H103	H	1.134604	-0.480421	-1.037328
H104	H	1.164658	-0.387415	-1.103260
H105	H	1.148910	-0.340174	-1.015743
O106	O	1.046937	-0.996648	-0.147742
C107	C	1.005968	-1.022072	-0.091850
H108	H	1.025720	-1.096584	-0.066976
H109	H	1.007212	-0.955014	-0.053851
H110	H	0.951847	-1.035175	-0.109527
O111	O	0.892967	-0.638497	-0.934699
C112	C	0.907717	-0.743207	-0.951975
H113	H	0.961796	-0.748529	-0.971400
H114	H	0.901847	-0.795130	-0.905484
H115	H	0.871437	-0.770634	-0.993007
O116	O	1.063618	-0.373493	-0.579063
C117	C	1.101853	-0.314197	-0.625433
H118	H	1.074136	-0.310540	-0.675815
H119	H	1.109088	-0.231426	-0.605021
H120	H	1.153251	-0.352673	-0.632957
O121	O	1.197328	-1.282733	-0.107515
C122	C	1.250337	-1.216188	-0.087027
H123	H	1.233702	-1.131026	-0.092112
H124	H	1.263743	-1.233245	-0.032140
H125	H	1.296431	-1.230484	-0.120261
O126	O	0.370396	-0.373549	-0.241031
C127	C	0.440368	-0.387979	-0.250275
H128	H	0.450044	-0.422486	-0.302472
H129	H	0.467238	-0.309269	-0.245764
H130	H	0.460402	-0.443847	-0.210065
O131	O	1.063608	-0.373547	-0.934613
C132	C	1.054295	-0.387951	-0.864641
H133	H	1.032123	-0.469041	-0.854970
H134	H	1.104987	-0.380812	-0.837780
H135	H	1.018247	-0.325650	-0.844591
O136	O	0.892847	-0.638589	-0.578996
C137	C	0.854626	-0.697859	-0.625334
H138	H	0.882353	-0.701470	-0.675730
H139	H	0.847395	-0.780646	-0.604902
H140	H	0.803225	-0.659389	-0.632841
H141	H	1.092975	-1.239270	-0.312623
H142	H	0.364778	-0.628219	-0.404552
H143	H	1.056760	-0.906052	-0.247679
O144	O	0.725994	-0.638794	-0.411375
C145	C	0.679647	-0.698194	-0.449507
H146	H	0.629266	-0.655169	-0.451900
H147	H	0.700090	-0.709506	-0.502822
H148	H	0.672108	-0.777938	-0.424634
H149	H	0.592258	-0.384066	-0.247749
O150	O	0.824145	-0.906541	-0.589735
C151	C	0.886263	-0.907905	-0.624520
H152	H	0.929428	-0.913042	-0.586602
H153	H	0.887977	-0.978716	-0.659559
H154	H	0.891614	-0.833061	-0.655525
H155	H	0.236533	-0.628228	-0.404564
H156	H	1.130751	-1.110283	-0.072972
O157	O	1.176720	-1.352938	-0.237872
C158	C	1.158232	-1.372566	-0.305435
H159	H	1.140387	-1.296606	-0.329932
H160	H	1.203677	-1.404237	-0.334272
H161	H	1.115684	-1.432727	-0.306736
