data_functionalizedCrystal
_audit_creation_method	'MofGen! by Chris Wilmer'
_symmetry_space_group_name_H-M	'P1'
_symmetry_Int_Tables_number	1
_symmetry_cell_setting	triclinic
loop_
_symmetry_equiv_pos_as_xyz
  x,y,z
_cell_length_a	16.992697
_cell_length_b	16.992695
_cell_length_c	15.500218
_cell_angle_alpha	92.998974
_cell_angle_beta	92.993033
_cell_angle_gamma	90.668337
loop_
_atom_site_label
_atom_site_type_symbol
_atom_site_fract_x
_atom_site_fract_y
_atom_site_fract_z
O1	O	-1.054314	-0.170381	-0.071820
O2	O	-0.825915	-0.168551	-0.071849
O3	O	-0.939199	-0.055265	-0.071828
O4	O	-0.941030	-0.283666	-0.071841
O5	O	-0.932249	-0.048325	0.072061
O6	O	-0.818966	-0.161610	0.072040
O7	O	-1.047364	-0.163440	0.072069
Cu8	Cu	-0.932531	-0.161891	0.085193
Cu9	Cu	-0.940749	-0.170099	-0.084972
O10	O	-0.934081	-0.276725	0.072048
C11	C	-0.793080	-0.162725	0.000092
C12	C	-0.705596	-0.155696	0.000081
N13	N	-0.926756	-0.156118	0.204878
C14	C	-0.659606	-0.223514	0.000077
C15	C	-0.577405	-0.216905	0.000088
C16	C	-0.541196	-0.142476	0.000097
C17	C	-0.587192	-0.074653	0.000103
C18	C	-0.669392	-0.081263	0.000098
C19	C	-0.295881	-0.115080	0.000117
C20	C	-0.213675	-0.108476	0.000120
C21	C	-0.203893	-0.250728	0.000106
C22	C	-0.286094	-0.257331	0.000096
C23	C	-0.332084	-0.189508	0.000107
N24	N	-0.457173	-0.135719	0.000105
N25	N	-0.416104	-0.196266	0.000105
C26	C	-0.080199	-0.169266	0.000122
C27	C	-0.167684	-0.176294	0.000116
C28	C	-0.933368	-0.022435	0.000116
C29	C	-0.926339	0.065050	0.000115
C30	C	-0.939912	-0.309556	0.000102
C31	C	-0.946941	-0.397041	0.000097
C32	C	-0.994157	0.111041	0.000125
C33	C	-0.987548	0.193241	0.000116
C34	C	-0.913121	0.229449	0.000103
C35	C	-0.845299	0.183452	0.000091
C36	C	-0.851909	0.101253	0.000094
C37	C	-0.885728	0.474763	0.000088
C38	C	-0.879123	0.556968	0.000088
C39	C	-1.021373	0.566752	0.000111
C40	C	-1.027976	0.484551	0.000119
C41	C	-0.960154	0.438561	0.000102
N42	N	-0.906365	0.313471	0.000097
N43	N	-0.966912	0.354540	0.000102
C44	C	-0.975305	-0.204699	0.250154
C45	C	-0.970948	-0.200329	0.340727
C46	C	-0.918037	-0.147380	0.386022
C47	C	-0.869485	-0.098794	0.340739
C48	C	-0.873847	-0.103161	0.250168
C49	C	-0.902333	-0.131651	0.659489
C50	C	-0.897974	-0.127289	0.750066
C51	C	-0.999438	-0.228824	0.750048
C52	C	-1.003792	-0.233189	0.659475
C53	C	-0.955243	-0.184600	0.614200
C54	C	-0.913580	-0.142913	0.478602
C55	C	-0.959704	-0.189063	0.521622
N56	N	-0.946523	-0.175870	0.795343
H57	H	-0.689081	-0.284122	0.000069
O58	O	-0.798847	0.596030	0.000072
H59	H	-0.768847	0.575088	-0.058586
H60	H	-1.054763	0.081567	0.000140
O61	O	-0.765025	0.222507	0.000082
H62	H	-0.735022	0.201560	-0.058572
H63	H	-1.038964	-0.268382	0.786920
O64	O	-0.778759	0.051648	0.000092
H65	H	-0.781195	0.011136	-0.058557
H66	H	-0.854883	-0.084172	0.786943
O67	O	-0.812579	0.425164	0.000092
H68	H	-0.759717	0.464154	0.000098
H69	H	-0.184197	-0.047864	0.000126
O70	O	-1.032374	-0.261809	0.201301
H71	H	-1.065406	-0.294850	0.248005
H72	H	-1.010484	-0.239887	0.377587
O73	O	-0.718995	-0.008113	0.000102
H74	H	-0.753847	-0.004893	0.058754
H75	H	-1.046880	-0.276303	0.622602
H76	H	-0.862801	-0.092085	0.622637
H77	H	-0.826407	-0.055678	0.377625
H78	H	-0.834312	-0.063601	0.213305
O79	O	-1.016765	-0.246177	0.472771
H80	H	-1.058693	-0.213108	0.431500
O81	O	-0.345479	-0.041932	0.000129
H82	H	-0.306489	0.010930	0.000129
O83	O	-0.856512	-0.085805	0.527456
H84	H	-0.795504	-0.099788	0.510074
O85	O	-0.527797	-0.290050	0.000084
H86	H	-0.566785	-0.342915	0.000066
O87	O	-1.094519	0.616358	0.000121
H88	H	-1.127055	0.605765	0.058777
H89	H	-0.315570	-0.317939	0.000078
O90	O	-1.060693	0.242850	0.000140
H91	H	-1.113556	0.203863	0.000165
O92	O	-0.154287	-0.323874	0.000113
H93	H	-0.119418	-0.327096	-0.058525
O94	O	-0.548145	0.005626	0.000116
H95	H	-0.483260	-0.001170	0.000111
H96	H	-1.088582	0.455077	0.000129
