data_functionalizedCrystal
_audit_creation_method	'MofGen! by Chris Wilmer'
_symmetry_space_group_name_H-M	'P1'
_symmetry_Int_Tables_number	1
_symmetry_cell_setting	triclinic
loop_
_symmetry_equiv_pos_as_xyz
  x,y,z
_cell_length_a	18.215407
_cell_length_b	13.031981
_cell_length_c	18.215399
_cell_angle_alpha	82.788957
_cell_angle_beta	89.982632
_cell_angle_gamma	97.189335
loop_
_atom_site_label
_atom_site_type_symbol
_atom_site_fract_x
_atom_site_fract_y
_atom_site_fract_z
Zn1	Zn	1.087911	-0.416191	-0.378823
Zn2	Zn	1.337911	-0.166191	-0.128823
Zn3	Zn	1.587911	0.083809	0.121177
Zn4	Zn	1.837911	0.333809	0.371177
Zn5	Zn	1.072212	-0.590982	-0.240115
Zn6	Zn	1.322212	-0.340982	0.009885
Zn7	Zn	1.572212	-0.090982	0.259885
Zn8	Zn	1.822212	0.159018	0.509885
Zn9	Zn	0.964841	-0.416216	-0.255774
Zn10	Zn	1.214841	-0.166216	-0.005774
Zn11	Zn	1.464841	0.083784	0.244226
Zn12	Zn	1.714841	0.333784	0.494226
Zn13	Zn	0.949208	-0.590914	-0.363151
Zn14	Zn	1.199208	-0.340914	-0.113151
Zn15	Zn	1.449208	-0.090914	0.136849
Zn16	Zn	1.699208	0.159086	0.386849
O17	O	1.018543	-0.503576	-0.309466
O18	O	1.268543	-0.253576	-0.059466
O19	O	1.518543	-0.003576	0.190534
O20	O	1.768543	0.246424	0.440534
O21	O	1.188811	-0.439395	-0.360429
O22	O	1.438811	-0.189395	-0.110429
O23	O	1.688811	0.060605	0.139571
O24	O	1.938811	0.310605	0.389571
O25	O	1.057942	-0.567837	-0.139204
O26	O	1.307942	-0.317837	0.110796
O27	O	1.557942	-0.067837	0.360796
O28	O	1.807942	0.182163	0.610796
O29	O	0.994279	-0.269950	-0.285208
O30	O	1.244279	-0.019950	-0.035208
O31	O	1.494279	0.230050	0.214792
O32	O	1.744279	0.480050	0.464792
O33	O	1.177277	-0.567813	-0.258521
O34	O	1.427277	-0.317813	-0.008521
O35	O	1.677277	-0.067813	0.241479
O36	O	1.927277	0.182187	0.491479
O37	O	1.084698	-0.269931	-0.375612
O38	O	1.334698	-0.019931	-0.125612
O39	O	1.584698	0.230069	0.124388
O40	O	1.834698	0.480069	0.374388
O41	O	0.979057	-0.439437	-0.150709
O42	O	1.229057	-0.189437	0.099291
O43	O	1.479057	0.060563	0.349291
O44	O	1.729057	0.310563	0.599291
O45	O	0.859785	-0.439372	-0.270012
O46	O	1.109785	-0.189372	-0.020012
O47	O	1.359785	0.060628	0.229988
O48	O	1.609785	0.310628	0.479988
O49	O	0.967635	-0.567698	-0.468218
O50	O	1.217635	-0.317698	-0.218218
O51	O	1.467635	-0.067698	0.031782
O52	O	1.717635	0.182302	0.281782
O53	O	0.848299	-0.567722	-0.348902
O54	O	1.098299	-0.317722	-0.098902
O55	O	1.348299	-0.067722	0.151098
O56	O	1.598299	0.182278	0.401098
O57	O	1.069539	-0.439329	-0.479732
O58	O	1.319539	-0.189329	-0.229732
O59	O	1.569539	0.060671	0.020268
O60	O	1.819539	0.310671	0.270268
O61	O	1.042783	-0.737235	-0.243324
O62	O	1.292783	-0.487235	0.006676
O63	O	1.542783	-0.237235	0.256676
O64	O	1.792783	0.012765	0.506676
O65	O	0.952413	-0.737186	-0.333718
O66	O	1.202413	-0.487186	-0.083718
O67	O	1.452413	-0.237186	0.166282
O68	O	1.702413	0.012814	0.416282
C69	C	0.827340	-0.503543	-0.309456
C70	C	1.077340	-0.253543	-0.059456
C71	C	1.327340	-0.003543	0.190544
C72	C	1.577340	0.246457	0.440544
C73	C	0.745540	-0.503555	-0.309467
C74	C	0.995540	-0.253555	-0.059467
C75	C	1.245540	-0.003555	0.190533
C76	C	1.495540	0.246445	0.440533
C77	C	0.563338	-0.436825	-0.362592
C78	C	0.813338	-0.186825	-0.112592
C79	C	1.063338	0.063175	0.137408
C80	C	1.313338	0.313175	0.387408
C81	C	0.486479	-0.436834	-0.362594
C82	C	0.736479	-0.186834	-0.112594
C83	C	0.986479	0.063166	0.137406
C84	C	1.236479	0.313166	0.387406
C85	C	0.474498	-0.570355	-0.256350
C86	C	0.724498	-0.320355	-0.006350
C87	C	0.974498	-0.070355	0.243650
C88	C	1.224498	0.179645	0.493650
C89	C	0.551356	-0.570340	-0.256345
C90	C	0.801356	-0.320340	-0.006345
C91	C	1.051356	-0.070340	0.243655
C92	C	1.301356	0.179660	0.493655
C93	C	0.595774	-0.503577	-0.309471
C94	C	0.845774	-0.253577	-0.059471
C95	C	1.095774	-0.003577	0.190529
C96	C	1.345774	0.246423	0.440529
C97	C	0.442056	-0.503601	-0.309477
C98	C	0.692056	-0.253601	-0.059477
C99	C	0.942056	-0.003601	0.190523
C100	C	1.192056	0.246399	0.440523
C101	C	0.358722	-0.503611	-0.309478
C102	C	0.608722	-0.253611	-0.059478
C103	C	0.858722	-0.003611	0.190522
C104	C	1.108722	0.246389	0.440522
C105	C	0.679114	-0.503565	-0.309469
C106	C	0.929114	-0.253565	-0.059469
C107	C	1.179114	-0.003565	0.190531
C108	C	1.429114	0.246435	0.440531
C109	C	0.994218	-0.775135	-0.285138
C110	C	1.244218	-0.525135	-0.035138
C111	C	1.494218	-0.275135	0.214862
C112	C	1.744218	-0.025135	0.464862
C113	C	0.983879	-0.891309	-0.274755
C114	C	1.233879	-0.641309	-0.024755
C115	C	1.483879	-0.391309	0.225245
C116	C	1.733879	-0.141309	0.475245
C117	C	1.023978	-0.943011	-0.314900
C118	C	1.273978	-0.693011	-0.064900
C119	C	1.523978	-0.443011	0.185100
C120	C	1.773978	-0.193011	0.435100
C121	C	1.013293	-1.063083	-0.304169
C122	C	1.263293	-0.813083	-0.054169
C123	C	1.513293	-0.563083	0.195831
C124	C	1.763293	-0.313083	0.445831
C125	C	1.210493	-0.503609	-0.309476
C126	C	1.460493	-0.253609	-0.059476
C127	C	1.710493	-0.003609	0.190524
C128	C	1.960493	0.246391	0.440524
C129	C	1.292291	-0.503623	-0.309481
C130	C	1.542291	-0.253623	-0.059481
C131	C	1.792291	-0.003623	0.190519
C132	C	2.042291	0.246377	0.440519
C133	C	1.018594	-0.503503	-0.501425
C134	C	1.268594	-0.253503	-0.251425
C135	C	1.518594	-0.003503	-0.001425
C136	C	1.768594	0.246497	0.248575
C137	C	1.018616	-0.503473	-0.583227
C138	C	1.268616	-0.253473	-0.333227
C139	C	1.518616	-0.003473	-0.083227
C140	C	1.768616	0.246527	0.166773
C141	C	1.042983	-0.230956	-0.333905
C142	C	1.292983	0.019044	-0.083905
C143	C	1.542983	0.269044	0.166095
C144	C	1.792983	0.519044	0.416095
C145	C	1.053398	-0.114782	-0.344320
C146	C	1.303398	0.135218	-0.094320
C147	C	1.553398	0.385218	0.155680
C148	C	1.803398	0.635218	0.405680
C149	C	1.071700	-0.436569	-0.777423
C150	C	1.321700	-0.186569	-0.527423
C151	C	1.571700	0.063431	-0.277423
C152	C	1.821700	0.313431	-0.027423
C153	C	1.071712	-0.436538	-0.854285
C154	C	1.321712	-0.186538	-0.604285
C155	C	1.571712	0.063462	-0.354285
C156	C	1.821712	0.313462	-0.104285
C157	C	0.965599	-0.570215	-0.842283
C158	C	1.215599	-0.320215	-0.592283
C159	C	1.465599	-0.070215	-0.342283
C160	C	1.715599	0.179785	-0.092283
C161	C	0.965585	-0.570240	-0.765424
C162	C	1.215585	-0.320240	-0.515424
C163	C	1.465585	-0.070240	-0.265424
C164	C	1.715585	0.179760	-0.015424
C165	C	1.018639	-0.503418	-0.732995
C166	C	1.268639	-0.253418	-0.482995
C167	C	1.518639	-0.003418	-0.232995
C168	C	1.768639	0.246582	0.017005
C169	C	1.018665	-0.503363	-0.886717
C170	C	1.268665	-0.253363	-0.636717
C171	C	1.518665	-0.003363	-0.386717
C172	C	1.768665	0.246637	-0.136717
C173	C	1.018677	-0.503331	-0.970053
C174	C	1.268677	-0.253331	-0.720053
C175	C	1.518677	-0.003331	-0.470053
C176	C	1.768677	0.246669	-0.220053
C177	C	1.018627	-0.503449	-0.649654
C178	C	1.268627	-0.253449	-0.399654
C179	C	1.518627	-0.003449	-0.149654
C180	C	1.768627	0.246551	0.100346
C181	C	1.018541	-0.503572	-0.118260
C182	C	1.268541	-0.253572	0.131740
C183	C	1.518541	-0.003572	0.381740
C184	C	1.768541	0.246428	0.631740
C185	C	1.018688	-0.503308	-0.036485
C186	C	1.268688	-0.253308	0.213515
C187	C	1.518688	-0.003308	0.463515
C188	C	1.768688	0.246692	0.713515
H189	H	0.438323	-0.624713	-0.213097
H190	H	0.688323	-0.374713	0.036903
H191	H	0.938323	-0.124713	0.286903
H192	H	1.188323	0.125287	0.536903
F193	F	1.079184	-0.884683	-0.370215
F194	F	1.329184	-0.634683	-0.120215
F195	F	1.579184	-0.384683	0.129785
F196	F	1.829184	-0.134683	0.379785
H197	H	1.114899	-0.382155	-0.751023
H198	H	1.364899	-0.132155	-0.501023
H199	H	1.614899	0.117845	-0.251023
H200	H	1.864899	0.367845	-0.001023
H201	H	1.095639	-1.070158	-0.386639
H202	H	1.345639	-0.820158	-0.136639
H203	H	1.595639	-0.570158	0.113361
H204	H	1.845639	-0.320158	0.363361
F205	F	0.958074	-1.121407	-0.248861
F206	F	1.208074	-0.871407	0.001139
F207	F	1.458074	-0.621407	0.251139
F208	F	1.708074	-0.371407	0.501139
F209	F	0.928663	-0.949637	-0.219450
F210	F	1.178663	-0.699637	0.030550
F211	F	1.428663	-0.449637	0.280550
F212	F	1.678663	-0.199637	0.530550
H213	H	0.599502	-0.382459	-0.405848
H214	H	0.849502	-0.132459	-0.155848
H215	H	1.099502	0.117541	0.094152
H216	H	1.349502	0.367541	0.344152
H217	H	0.460073	-0.382477	-0.405850
H218	H	0.710073	-0.132477	-0.155850
H219	H	0.960073	0.117523	0.094150
H220	H	1.210073	0.367523	0.344150
H221	H	0.922405	-0.624621	-0.868696
H222	H	1.172405	-0.374621	-0.618696
H223	H	1.422405	-0.124621	-0.368696
H224	H	1.672405	0.125379	-0.118696
F225	F	0.585880	-0.641382	-0.199797
F226	F	0.835880	-0.391382	0.050203
F227	F	1.085880	-0.141382	0.300203
F228	F	1.335880	0.108618	0.550203
H229	H	1.114918	-0.382101	-0.890455
H230	H	1.364918	-0.132101	-0.640455
H231	H	1.614918	0.117899	-0.390455
H232	H	1.864918	0.367899	-0.140455
F233	F	0.909104	-0.641389	-0.718138
F234	F	1.159104	-0.391389	-0.468138
F235	F	1.409104	-0.141389	-0.218138
F236	F	1.659104	0.108611	0.031862
