data_functionalizedCrystal
_audit_creation_method	'MofGen! by Chris Wilmer'
_symmetry_space_group_name_H-M	'P1'
_symmetry_Int_Tables_number	1
_symmetry_cell_setting	triclinic
loop_
_symmetry_equiv_pos_as_xyz
  x,y,z
_cell_length_a	15.995350
_cell_length_b	11.026607
_cell_length_c	9.482900
_cell_angle_alpha	78.636152
_cell_angle_beta	80.663257
_cell_angle_gamma	83.960804
loop_
_atom_site_label
_atom_site_type_symbol
_atom_site_fract_x
_atom_site_fract_y
_atom_site_fract_z
O1	O	0.340363	-1.629075	0.120882
O2	O	0.300437	-1.275769	0.120885
O3	O	0.199968	-1.462080	0.120882
O4	O	0.440832	-1.442765	0.120885
O5	O	0.220481	-1.424236	-0.120910
O6	O	0.320950	-1.237926	-0.120907
O7	O	0.360875	-1.591231	-0.120910
Cu8	Cu	0.342785	-1.411123	-0.142986
Cu9	Cu	0.318527	-1.455878	0.142961
O10	O	0.461344	-1.404921	-0.120907
C11	C	0.178909	-1.442360	-0.000011
C12	C	0.085597	-1.439967	-0.000003
C13	C	0.303328	-1.211637	-0.000010
C14	C	0.281371	-1.076923	-0.000009
C15	C	0.357984	-1.655364	-0.000012
C16	C	0.379940	-1.790080	-0.000004
C17	C	-0.253446	-1.431369	-0.000008
C18	C	-0.226057	-1.298767	0.000536
C19	C	-0.128960	-1.301076	-0.000009
C20	C	-0.085243	-1.435634	-0.000005
C21	C	-0.104742	-1.479470	-0.138078
C22	C	-0.201871	-1.476118	-0.138193
C23	C	-0.225142	-1.521895	0.136769
C24	C	-0.128356	-1.522149	0.138594
C25	C	0.009819	-1.438051	-0.000008
C26	C	-0.348507	-1.428954	-0.000014
C27	C	0.482403	-1.424641	-0.000011
C28	C	0.575714	-1.427036	-0.000009
N29	N	0.359848	-1.379654	-0.344106
C30	C	0.341997	-1.003118	-0.000007
C31	C	0.319305	-0.863884	-0.000005
C32	C	0.323554	-1.446587	-0.416306
C33	C	0.337759	-1.420413	-0.583723
N34	N	0.301459	-1.487357	0.344081
H35	H	-0.260983	-1.261230	0.099551
H36	H	0.250594	-0.824003	0.000031
H37	H	0.281962	-1.523265	-0.354179
H38	H	-0.075281	-1.577522	-0.143209
O39	O	0.409355	-1.288094	-0.418373
C40	C	0.416959	-1.095588	-0.590374
C41	C	0.360803	-1.199213	-0.506388
H42	H	0.377723	-1.023688	-0.661530
H43	H	0.472619	-1.136997	-0.661726
H44	H	0.442100	-1.049322	-0.509949
H45	H	0.335601	-1.245518	-0.586708
H46	H	0.305188	-1.157733	-0.435014
H47	H	0.212664	-1.037037	0.000028
O48	O	-0.114463	-1.258092	0.118097
C49	C	-0.176150	-1.177931	0.333634
C50	C	-0.192682	-1.226570	0.199923
H51	H	-0.239379	-1.152457	0.399843
H52	H	-0.138383	-1.092342	0.296421
H53	H	-0.138440	-1.253079	0.403683
H54	H	-0.230417	-1.151511	0.129817
H55	H	-0.230412	-1.312189	0.237236
O56	O	0.461943	-0.837561	-0.000254
C57	C	0.605564	-0.832175	-0.125456
C58	C	0.512731	-0.778308	-0.125375
H59	H	0.646656	-0.784274	-0.226589
H60	H	0.609314	-0.935980	-0.125549
H61	H	0.629458	-0.816091	-0.024215
H62	H	0.488778	-0.794301	-0.226598
H63	H	0.509035	-0.674521	-0.125206
H64	H	-0.245256	-1.230558	-0.097926
H65	H	-0.100491	-1.233768	-0.099153
H66	H	-0.218609	-1.412240	-0.241408
H67	H	-0.218904	-1.572555	-0.144455
H68	H	-0.074495	-1.417932	-0.240830
H69	H	0.259864	-1.564039	-0.593796
O70	O	-0.267898	-1.489709	0.261725
C71	C	-0.258103	-1.425358	0.486669
C72	C	-0.209575	-1.461830	0.345244
H73	H	-0.210972	-1.402783	0.554219
H74	H	-0.295549	-1.505744	0.551474
H75	H	-0.303730	-1.340455	0.458958
H76	H	-0.163906	-1.546702	0.372824
H77	H	-0.172186	-1.381374	0.280479
H78	H	0.379346	-1.343722	-0.645846
O79	O	-0.093270	-1.640805	0.148855
C80	C	-0.093974	-1.849485	0.285930
C81	C	-0.133795	-1.715157	0.274489
H82	H	-0.126735	-1.909642	0.387482
H83	H	-0.023363	-1.851340	0.292993
H84	H	-0.102381	-1.886934	0.185709
H85	H	-0.125451	-1.677625	0.374682
H86	H	-0.204391	-1.713382	0.267355
H87	H	-0.116985	-1.490286	0.240737
O88	O	-0.245689	-1.638717	0.137970
C89	C	-0.357434	-1.771064	0.144412
C90	C	-0.334281	-1.638721	0.143107
H91	H	-0.429059	-1.771106	0.148535
H92	H	-0.336792	-1.836243	0.243908
H93	H	-0.323575	-1.803805	0.041643
H94	H	-0.368129	-1.605865	0.245807
H95	H	-0.354905	-1.573623	0.043544
H96	H	0.410702	-1.043008	-0.000014
