data_functionalizedCrystal
_audit_creation_method	'MofGen! by Chris Wilmer'
_symmetry_space_group_name_H-M	'P1'
_symmetry_Int_Tables_number	1
_symmetry_cell_setting	triclinic
loop_
_symmetry_equiv_pos_as_xyz
  x,y,z
_cell_length_a	12.759401
_cell_length_b	12.759399
_cell_length_c	12.759393
_cell_angle_alpha	90.031447
_cell_angle_beta	90.018496
_cell_angle_gamma	90.015815
loop_
_atom_site_label
_atom_site_type_symbol
_atom_site_fract_x
_atom_site_fract_y
_atom_site_fract_z
Zn1	Zn	1.606248	-0.418200	0.593982
Zn2	Zn	1.606140	-0.593919	0.418303
Zn3	Zn	1.430550	-0.418255	0.418322
Zn4	Zn	1.430536	-0.593838	0.593944
O5	O	1.518369	-0.506053	0.506138
O6	O	1.753255	-0.441520	0.570686
O7	O	1.582808	-0.570673	0.271284
O8	O	1.453909	-0.271227	0.441647
O9	O	1.753175	-0.570620	0.441615
O10	O	1.582993	-0.271186	0.570704
O11	O	1.453803	-0.441614	0.271298
O12	O	1.283527	-0.441535	0.441610
O13	O	1.453884	-0.570482	0.740970
O14	O	1.283517	-0.570536	0.570639
O15	O	1.582979	-0.441442	0.740998
O16	O	1.582794	-0.740929	0.441578
O17	O	1.453779	-0.740870	0.570621
C18	C	1.245401	-0.506033	0.506123
C19	C	1.128625	-0.506050	0.506142
C20	C	1.518302	-0.779020	0.506116
C21	C	1.518369	-0.895797	0.506142
C22	C	1.585699	-1.060380	0.439058
C23	C	1.585629	-0.950656	0.439026
C24	C	1.451168	-0.950668	0.573288
C25	C	1.451234	-1.060390	0.573314
C26	C	1.663332	-1.060372	0.361547
C27	C	1.663262	-0.950648	0.361514
C28	C	1.073785	-0.573328	0.573217
C29	C	0.964061	-0.573342	0.573228
C30	C	0.964026	-0.438796	0.439082
C31	C	1.073748	-0.438778	0.439076
C32	C	1.073804	-0.651010	0.650662
C33	C	0.964080	-0.651024	0.650673
C34	C	1.792402	-0.506073	0.506153
C35	C	1.909179	-0.506082	0.506159
C36	C	1.518442	-0.505947	0.780171
C37	C	1.518474	-0.505902	0.896948
C38	C	1.518465	-0.232019	0.506182
C39	C	1.518505	-0.115243	0.506201
C40	C	1.518356	-0.506083	0.233170
C41	C	1.518528	-0.505832	0.116394
C42	C	1.585703	-0.438704	0.951826
C43	C	1.585728	-0.438666	1.061550
C44	C	1.451292	-0.573033	1.061508
C45	C	1.451262	-0.573064	0.951786
C46	C	1.663322	-0.361131	0.951851
C47	C	1.663347	-0.361093	1.061576
H48	H	1.396505	-1.105055	0.627974
H49	H	1.396514	-0.627780	0.907108
Br50	Br	1.614654	-0.232311	1.118336
Br51	Br	1.792157	-1.116955	0.410265
Br52	Br	1.359875	-0.876218	0.664365
H53	H	1.641605	-1.090231	0.280164
Br54	Br	0.889545	-0.347500	0.348072
Br55	Br	1.614686	-0.894062	0.232642
H56	H	1.641554	-0.279767	0.922095
Br57	Br	1.123497	-0.614849	0.786341
H58	H	1.107817	-0.728262	0.621377
H59	H	1.744717	-0.382886	1.091354
H60	H	0.930082	-0.621980	0.728025
Br61	Br	1.360078	-0.664175	1.135938
Br62	Br	1.792109	-0.409744	0.895112
H63	H	1.744601	-0.920780	0.383373
H64	H	0.934283	-0.732373	0.628741
Br65	Br	1.148172	-0.347446	0.348067
