data_functionalizedCrystal
_audit_creation_method	'MofGen! by Chris Wilmer'
_symmetry_space_group_name_H-M	'P1'
_symmetry_Int_Tables_number	1
_symmetry_cell_setting	triclinic
loop_
_symmetry_equiv_pos_as_xyz
  x,y,z
_cell_length_a	10.723024
_cell_length_b	10.065875
_cell_length_c	10.723024
_cell_angle_alpha	98.874314
_cell_angle_beta	95.532131
_cell_angle_gamma	98.831087
loop_
_atom_site_label
_atom_site_type_symbol
_atom_site_fract_x
_atom_site_fract_y
_atom_site_fract_z
O1	O	1.675288	0.113481	-0.156842
O2	O	2.175288	0.613481	0.343158
O3	O	1.312136	0.113485	-0.173595
O4	O	1.812136	0.613485	0.326405
O5	O	1.502088	0.113478	0.016357
O6	O	2.002088	0.613478	0.516357
O7	O	1.485336	0.113488	-0.346794
O8	O	1.985336	0.613488	0.153206
O9	O	1.465868	-0.113509	-0.020011
O10	O	1.965868	0.386491	0.479989
O11	O	1.275917	-0.113502	-0.209963
O12	O	1.775917	0.386498	0.290037
O13	O	1.639068	-0.113506	-0.193210
O14	O	2.139068	0.386494	0.306790
Zn15	Zn	1.451742	-0.149543	-0.207361
Zn16	Zn	1.951742	0.350457	0.292639
Zn17	Zn	1.499463	0.149522	-0.159444
Zn18	Zn	1.999463	0.649522	0.340556
O19	O	1.449117	-0.113499	-0.383162
O20	O	1.949117	0.386501	0.116838
C21	C	1.247527	-0.000008	-0.190560
C22	C	1.747527	0.499992	0.309440
C23	C	1.108973	-0.000006	-0.186912
C24	C	1.608973	0.499994	0.313088
N25	N	1.419182	-0.353648	-0.240061
N26	N	1.919182	0.146352	0.259939
C27	C	0.917216	-0.000007	-0.073605
C28	C	1.417216	0.499993	0.426395
C29	C	1.060419	-0.000009	-0.077372
C30	C	1.560419	0.499991	0.422628
C31	C	1.488127	-0.421429	-0.170814
C32	C	1.988127	0.078571	0.329186
C33	C	1.463078	-0.578595	-0.195991
C34	C	1.963078	-0.078595	0.304009
C35	C	1.703678	-0.000010	-0.176245
C36	C	2.203678	0.499990	0.323755
C37	C	1.842234	-0.000003	-0.179892
C38	C	2.342234	0.499997	0.320108
C39	C	1.482759	-0.000014	0.044673
C40	C	1.982759	0.499986	0.544673
C41	C	1.479112	-0.000009	0.183228
C42	C	1.979112	0.499991	0.683228
N43	N	1.532032	0.353627	-0.126734
N44	N	2.032032	0.853627	0.373266
C45	C	1.468446	-0.000004	-0.411477
C46	C	1.968446	0.499996	0.088523
C47	C	1.472094	0.000000	-0.550031
C48	C	1.972094	0.500000	-0.050031
C49	C	1.585400	-0.000009	0.258210
C50	C	2.085400	0.499991	0.758210
C51	C	1.581633	-0.000004	0.401415
C52	C	2.081633	0.499996	0.901415
H53	H	0.875390	-0.000030	0.020178
H54	H	1.375390	0.499970	0.520178
Br55	Br	1.617102	-0.324233	-0.040614
Br56	Br	2.117102	0.175767	0.459386
Br57	Br	1.001600	0.000016	-0.338580
Br58	Br	1.501600	0.500016	0.161420
Br59	Br	1.320419	-0.000017	0.342590
Br60	Br	1.820419	0.499983	0.842590
H61	H	1.124852	-0.000003	0.013619
H62	H	1.624852	0.499997	0.513619
H63	H	0.884055	-0.000009	-0.273678
H64	H	1.384055	0.499991	0.226322
Br65	Br	1.333769	-0.675787	-0.325871
Br66	Br	1.833769	-0.175787	0.174129
H67	H	1.609603	-0.588055	-0.048799
H68	H	2.109603	-0.088055	0.451201
Br69	Br	1.289878	-0.450845	-0.369936
Br70	Br	1.789878	0.049155	0.130064
H71	H	1.679184	-0.000018	0.216387
H72	H	2.179184	0.499982	0.716387
H73	H	1.672623	-0.000009	0.465846
H74	H	2.172623	0.499991	0.965846
H75	H	1.385328	0.000001	0.225052
H76	H	1.885328	0.500001	0.725052
