data_functionalizedCrystal
_audit_creation_method	'MofGen! by Chris Wilmer'
_symmetry_space_group_name_H-M	'P1'
_symmetry_Int_Tables_number	1
_symmetry_cell_setting	triclinic
loop_
_symmetry_equiv_pos_as_xyz
  x,y,z
_cell_length_a	18.101398
_cell_length_b	12.594516
_cell_length_c	18.101389
_cell_angle_alpha	89.987481
_cell_angle_beta	89.990255
_cell_angle_gamma	90.011609
loop_
_atom_site_label
_atom_site_type_symbol
_atom_site_fract_x
_atom_site_fract_y
_atom_site_fract_z
Zn1	Zn	1.132198	-0.423980	-0.418581
Zn2	Zn	1.132127	-0.601948	-0.294752
Zn3	Zn	1.008357	-0.423970	-0.294774
Zn4	Zn	1.008341	-0.601903	-0.418572
O5	O	1.070256	-0.512950	-0.356670
O6	O	1.235822	-0.447611	-0.402149
O7	O	1.115686	-0.578353	-0.191122
O8	O	1.024822	-0.275025	-0.311210
O9	O	1.235769	-0.578363	-0.311173
O10	O	1.115808	-0.275033	-0.402170
O11	O	1.024753	-0.447593	-0.191138
O12	O	0.904722	-0.447550	-0.311201
O13	O	1.024794	-0.578287	-0.522206
O14	O	0.904710	-0.578277	-0.402155
O15	O	1.115791	-0.447567	-0.522213
O16	O	1.115669	-0.750888	-0.311165
O17	O	1.024724	-0.750855	-0.402135
C18	C	0.877845	-0.512908	-0.356680
C19	C	0.795531	-0.512916	-0.356702
C20	C	1.070207	-0.789491	-0.356663
C21	C	1.070254	-0.907797	-0.356684
C22	C	0.496440	-0.512979	-0.356671
C23	C	0.527782	-0.595626	-0.413615
C24	C	0.613401	-0.595367	-0.413849
C25	C	0.644823	-0.512949	-0.356687
C26	C	0.613748	-0.400845	-0.378006
C27	C	0.528103	-0.401342	-0.378411
C28	C	0.527993	-0.541446	-0.278270
C29	C	0.613643	-0.543906	-0.278690
C30	C	0.728682	-0.512925	-0.356694
C31	C	0.412581	-0.512995	-0.356666
C32	C	1.020784	-0.977071	-0.406128
C33	C	1.002743	-1.047911	-0.338555
C34	C	1.088363	-1.047755	-0.424269
C35	C	1.052177	-0.977079	-0.289075
C36	C	1.137829	-0.976917	-0.374835
C37	C	1.119813	-1.047725	-0.307215
C38	C	1.263418	-0.512993	-0.356660
C39	C	1.345732	-0.513011	-0.356656
C40	C	1.070299	-0.512923	-0.549832
C41	C	1.070317	-0.512912	-0.632146
C42	C	1.070325	-0.235329	-0.356693
C43	C	1.070354	-0.117024	-0.356703
C44	C	1.070360	-0.512712	-0.931237
C45	C	1.012909	-0.594696	-0.899908
C46	C	1.013065	-0.595076	-0.814289
C47	C	1.070338	-0.512811	-0.782854
C48	C	1.148369	-0.543267	-0.813942
C49	C	1.148049	-0.543805	-0.899588
C50	C	1.050458	-0.400091	-0.899658
C51	C	1.048722	-0.400742	-0.814008
C52	C	1.070330	-0.512865	-0.698995
C53	C	1.070373	-0.512661	-1.015097
C54	C	1.070256	-0.512900	-0.164259
C55	C	1.070381	-0.512612	-0.081946
H56	H	0.634411	-0.678498	-0.400488
H57	H	0.506394	-0.621792	-0.258894
H58	H	0.633900	-0.576533	-0.471939
H59	H	0.635033	-0.488079	-0.233984
H60	H	0.506269	-0.577032	-0.471369
H61	H	1.192324	-0.485430	-0.793581
H62	H	1.194916	-0.945712	-0.390203
H63	H	0.978874	-0.946046	-0.447880
H64	H	1.025920	-0.677664	-0.921436
H65	H	0.635208	-0.376262	-0.434697
H66	H	0.955202	-0.576017	-0.793270
H67	H	1.161691	-1.078553	-0.265362
H68	H	1.036835	-0.946162	-0.231912
H69	H	0.508137	-0.377194	-0.435725
H70	H	0.633962	-0.626397	-0.262610
H71	H	0.507723	-0.481246	-0.235842
H72	H	0.507369	-0.337558	-0.338837
H73	H	1.026206	-0.678554	-0.793810
H74	H	0.945643	-1.079118	-0.323219
H75	H	1.103639	-1.078800	-0.481416
H76	H	0.954873	-0.575832	-0.920507
H77	H	0.634100	-0.337599	-0.337825
H78	H	1.164918	-0.626132	-0.919572
H79	H	1.192306	-0.486684	-0.920313
H80	H	1.165529	-0.624719	-0.792502
H81	H	0.994546	-0.372346	-0.921256
H82	H	0.991298	-0.377775	-0.793689
H83	H	1.092302	-0.339009	-0.919919
H84	H	1.087511	-0.336416	-0.792609
H85	H	0.507182	-0.679029	-0.400403
