data_functionalizedCrystal
_audit_creation_method	'MofGen! by Chris Wilmer'
_symmetry_space_group_name_H-M	'P1'
_symmetry_Int_Tables_number	1
_symmetry_cell_setting	triclinic
loop_
_symmetry_equiv_pos_as_xyz
  x,y,z
_cell_length_a	19.188925
_cell_length_b	19.188930
_cell_length_c	16.053802
_cell_angle_alpha	92.551696
_cell_angle_beta	87.426601
_cell_angle_gamma	83.143665
loop_
_atom_site_label
_atom_site_type_symbol
_atom_site_fract_x
_atom_site_fract_y
_atom_site_fract_z
O1	O	0.929103	0.084200	-0.069456
O2	O	1.429103	0.584200	0.430544
O3	O	0.725791	0.095938	-0.069455
O4	O	1.225791	0.595938	0.430545
O5	O	0.833313	-0.011586	-0.069439
O6	O	1.333313	0.488414	0.430561
O7	O	0.821580	0.191724	-0.069472
O8	O	1.321580	0.691724	0.430528
O9	O	0.827395	-0.005692	0.069419
O10	O	1.327395	0.494308	0.569419
O11	O	0.719873	0.101832	0.069403
O12	O	1.219873	0.601832	0.569403
O13	O	0.923185	0.090094	0.069402
O14	O	1.423185	0.590094	0.569402
Zn15	Zn	0.820589	0.096899	0.091449
Zn16	Zn	1.320589	0.596899	0.591449
Zn17	Zn	0.828387	0.089133	-0.091502
Zn18	Zn	1.328387	0.589133	0.408498
O19	O	0.815662	0.197618	0.069386
O20	O	1.315662	0.697618	0.569386
C21	C	0.696821	0.098505	-0.000026
C22	C	1.196821	0.598505	0.499974
C23	C	0.619316	0.097366	-0.000025
C24	C	1.119316	0.597366	0.499975
C25	C	0.057546	0.152830	-0.000036
C26	C	0.557546	0.652830	0.499964
C27	C	0.130370	0.153906	-0.000040
C28	C	0.630370	0.653906	0.499960
C29	C	0.175304	0.090815	-0.000029
C30	C	0.675304	0.590815	0.499971
C31	C	0.147410	0.026641	-0.000034
C32	C	0.647410	0.526641	0.499966
C33	C	0.074588	0.025566	-0.000038
C34	C	0.574588	0.525566	0.499962
N35	N	0.293966	0.047145	0.047247
N36	N	0.793966	0.547145	0.547247
N37	N	0.363143	0.048170	0.047252
N38	N	0.863143	0.548170	0.547252
C39	C	0.394712	0.094049	-0.000019
C40	C	0.894712	0.594049	0.499981
N41	N	0.354490	0.138874	-0.047286
N42	N	0.854490	0.638874	0.452714
N43	N	0.285306	0.137851	-0.047287
N44	N	0.785306	0.637851	0.452713
C45	C	0.254268	0.091973	-0.000025
C46	C	0.754268	0.591973	0.499975
C47	C	0.501562	0.159385	-0.000025
C48	C	1.001562	0.659385	0.499975
C49	C	0.574387	0.160459	-0.000035
C50	C	1.074387	0.660459	0.499965
C51	C	0.591426	0.033192	-0.000020
C52	C	1.091426	0.533192	0.499980
C53	C	0.518602	0.032120	-0.000019
C54	C	1.018602	0.532120	0.499981
C55	C	0.473674	0.095219	-0.000017
C56	C	0.973674	0.595219	0.499983
C57	C	0.829974	-0.034650	-0.000008
C58	C	1.329974	0.465350	0.499992
C59	C	0.828833	-0.112154	-0.000001
C60	C	1.328833	0.387846	0.499999
C61	C	0.891924	-0.157079	0.000003
C62	C	1.391924	0.342921	0.500003
C63	C	0.890853	-0.229904	-0.000011
C64	C	1.390853	0.270096	0.499989
C65	C	0.826687	-0.257799	-0.000011
C66	C	1.326687	0.242201	0.499989
C67	C	0.763588	-0.212864	-0.000019
C68	C	1.263588	0.287136	0.499981
C69	C	0.764661	-0.140042	-0.000014
C70	C	1.264661	0.359958	0.499986
N71	N	0.775625	-0.363797	0.047245
N72	N	1.275625	0.136203	0.547245
N73	N	0.774610	-0.432976	0.047242
N74	N	1.274610	0.067024	0.547242
C75	C	0.823449	-0.477208	-0.000028
C76	C	1.323449	0.022792	0.499972
N77	N	0.873353	-0.449650	-0.047284
N78	N	1.373353	0.050350	0.452716
N79	N	0.874370	-0.380465	-0.047278
N80	N	1.374370	0.119535	0.452722
C81	C	0.825516	-0.336762	-0.000017
C82	C	1.325516	0.163238	0.499983
C83	C	0.885383	-0.601098	-0.000040
C84	C	1.385383	-0.101098	0.499960
C85	C	0.884310	-0.673924	-0.000058
C86	C	1.384310	-0.173924	0.499942
C87	C	0.757042	-0.656883	-0.000059
C88	C	1.257042	-0.156883	0.499941
C89	C	0.758118	-0.584059	-0.000048
C90	C	1.258118	-0.084059	0.499952
C91	C	0.822290	-0.556171	-0.000035
C92	C	1.322290	-0.056171	0.499965
C93	C	0.952155	0.087526	-0.000029
C94	C	1.452155	0.587526	0.499971
C95	C	1.029660	0.088665	-0.000036
C96	C	1.529660	0.588665	0.499964
C97	C	0.819002	0.220682	-0.000047
C98	C	1.319002	0.720682	0.499953
C99	C	0.820143	0.298186	-0.000060
C100	C	1.320143	0.798186	0.499940
N101	N	0.815273	0.102198	0.216309
N102	N	1.315273	0.602198	0.716309
N103	N	0.833709	0.083828	-0.216362
N104	N	1.333709	0.583828	0.283638
C105	C	0.861040	0.056463	0.260009
C106	C	1.361040	0.556463	0.760009
C107	C	0.857328	0.060176	0.347415
C108	C	1.357328	0.560176	0.847415
C109	C	0.807850	0.109629	0.391119
C110	C	1.307850	0.609629	0.891119
C111	C	0.762078	0.155367	0.347413
C112	C	1.262078	0.655367	0.847413
C113	C	0.765788	0.151649	0.260008
C114	C	1.265788	0.651649	0.760008
C115	C	0.791646	0.125848	0.652527
C116	C	1.291646	0.625848	1.152527
C117	C	0.787941	0.129563	0.739937
C118	C	1.287941	0.629563	1.239937
C119	C	0.883190	0.034371	0.739934
C120	C	1.383190	0.534371	1.239934
C121	C	0.886898	0.030661	0.652528
C122	C	1.386898	0.530661	1.152528
C123	C	0.841124	0.076396	0.608829
C124	C	1.341124	0.576396	1.108829
N125	N	0.804056	0.113428	0.480463
N126	N	1.304056	0.613428	0.980463
N127	N	0.844915	0.072594	0.519487
N128	N	1.344915	0.572594	1.019487
H129	H	0.495897	-0.020130	-0.000014
H130	H	0.995897	0.479870	0.499986
Br131	Br	0.945309	-0.027696	0.799243
Br132	Br	1.445309	0.472304	1.299243
Br133	Br	0.652400	-0.052435	-0.000022
Br134	Br	1.152400	0.447565	0.499978
Br135	Br	0.676505	-0.250721	-0.000030
Br136	Br	1.176505	0.249279	0.499970
H137	H	0.721789	0.195630	0.383001
H138	H	1.221789	0.695630	0.883001
Br139	Br	0.703667	0.213717	0.200700
Br140	Br	1.203667	0.713717	0.700700
H141	H	0.153079	0.206159	-0.000032
H142	H	0.653079	0.706159	0.499968
H143	H	0.927187	-0.009607	0.616946
H144	H	1.427187	0.490393	1.116946
Br145	Br	0.928196	-0.010651	0.200706
Br146	Br	1.428196	0.489349	0.700706
H147	H	0.051884	-0.026686	-0.000038
H148	H	0.551884	0.473314	0.499962
H149	H	0.935688	-0.710502	-0.000060
H150	H	1.435688	-0.210502	0.499940
Br151	Br	0.979015	-0.119236	-0.000002
Br152	Br	1.479015	0.380764	0.499998
H153	H	0.020970	0.204210	-0.000038
H154	H	0.520970	0.704210	0.499962
Br155	Br	0.672490	-0.523085	-0.000053
Br156	Br	1.172490	-0.023085	0.499947
Br157	Br	0.972471	-0.563246	-0.000013
Br158	Br	1.472471	-0.063246	0.499987
H159	H	0.464979	0.210764	-0.000026
H160	H	0.964979	0.710764	0.499974
Br161	Br	0.208390	-0.058985	-0.000025
Br162	Br	0.708390	0.441015	0.499975
Br163	Br	0.669958	-0.694733	-0.000067
Br164	Br	1.169958	-0.194733	0.499933
H165	H	0.894595	0.022934	0.382996
H166	H	1.394595	0.522934	0.882996
Br167	Br	0.720790	0.196687	0.799245
Br168	Br	1.220790	0.696687	1.299245
Br169	Br	0.729526	0.187916	0.593225
Br170	Br	1.229526	0.687916	1.093225
Br171	Br	0.976482	-0.290886	-0.000009
Br172	Br	1.476482	0.209114	0.499991
Br173	Br	0.612234	0.247547	-0.000047
Br174	Br	1.112234	0.747547	0.499953
H175	H	0.713283	-0.103463	-0.000017
H176	H	1.213283	0.396537	0.499983
