data_functionalizedCrystal
_audit_creation_method	'MofGen! by Chris Wilmer'
_symmetry_space_group_name_H-M	'P1'
_symmetry_Int_Tables_number	1
_symmetry_cell_setting	triclinic
loop_
_symmetry_equiv_pos_as_xyz
  x,y,z
_cell_length_a	29.839134
_cell_length_b	29.839131
_cell_length_c	13.032268
_cell_angle_alpha	97.140540
_cell_angle_beta	97.153304
_cell_angle_gamma	90.036281
loop_
_atom_site_label
_atom_site_type_symbol
_atom_site_fract_x
_atom_site_fract_y
_atom_site_fract_z
Zn1	Zn	0.654455	-0.211166	-0.591080
Zn2	Zn	1.154455	0.288834	-0.091080
Zn3	Zn	0.663926	-0.276762	-0.416332
Zn4	Zn	1.163926	0.223238	0.083668
Zn5	Zn	0.588877	-0.201640	-0.416331
Zn6	Zn	1.088877	0.298360	0.083669
Zn7	Zn	0.579291	-0.286258	-0.590983
Zn8	Zn	1.079291	0.213742	-0.090983
O9	O	0.621637	-0.243957	-0.503682
O10	O	1.121637	0.256043	-0.003682
O11	O	0.718576	-0.219881	-0.567941
O12	O	1.218576	0.280119	-0.067941
O13	O	0.661946	-0.258836	-0.270107
O14	O	1.161946	0.241164	0.229893
O15	O	0.597624	-0.140039	-0.439552
O16	O	1.097624	0.359961	0.060448
O17	O	0.725535	-0.268073	-0.439554
O18	O	1.225535	0.231927	0.060446
O19	O	0.645804	-0.147038	-0.567940
O20	O	1.145804	0.352962	-0.067940
O21	O	0.606807	-0.203644	-0.270106
O22	O	1.106807	0.296356	0.229894
O23	O	0.524740	-0.212852	-0.439458
O24	O	1.024740	0.287148	0.060542
O25	O	0.581286	-0.284258	-0.737222
O26	O	1.081286	0.215742	-0.237222
O27	O	0.517698	-0.275021	-0.567775
O28	O	1.017698	0.224979	-0.067775
O29	O	0.636509	-0.229088	-0.737293
O30	O	1.136509	0.270912	-0.237293
O31	O	0.652651	-0.340887	-0.439460
O32	O	1.152651	0.159113	0.060540
O33	O	0.590470	-0.347863	-0.567775
O34	O	1.090470	0.152137	-0.067775
C35	C	0.504919	-0.243934	-0.503606
C36	C	1.004919	0.256066	-0.003606
C37	C	0.454985	-0.243936	-0.503599
C38	C	0.954985	0.256064	-0.003599
C39	C	0.141684	-0.276366	-0.570414
C40	C	0.641684	0.223634	-0.070414
C41	C	-0.045992	-0.276381	-0.570461
C42	C	0.454008	0.223619	-0.070461
O43	O	-0.073364	-0.303931	-0.627225
O44	O	0.426636	0.196069	-0.127225
N45	N	-0.065809	-0.243978	-0.503760
N46	N	0.434191	0.256022	-0.003760
C47	C	-0.038705	-0.211566	-0.437049
C48	C	0.461295	0.288434	0.062951
O49	O	-0.059867	-0.184002	-0.380325
O50	O	0.440133	0.315998	0.119675
C51	C	0.148970	-0.211549	-0.437008
C52	C	0.648970	0.288451	0.062992
C53	C	0.168785	-0.243958	-0.503705
C54	C	0.668785	0.256042	-0.003705
C55	C	0.161499	-0.308771	-0.637107
C56	C	0.661499	0.191229	-0.137107
C57	C	0.208415	-0.308769	-0.637090
C58	C	0.708415	0.191231	-0.137090
C59	C	0.235516	-0.276361	-0.570382
C60	C	0.735516	0.223639	-0.070382
C61	C	0.215701	-0.243955	-0.503689
C62	C	0.715701	0.256045	-0.003689
C63	C	0.176073	-0.179136	-0.370303
C64	C	0.676073	0.320864	0.129697
C65	C	0.222994	-0.179134	-0.370300
C66	C	0.722994	0.320866	0.129700
C67	C	0.242809	-0.211543	-0.436997
C68	C	0.742809	0.288457	0.063003
C69	C	0.289718	-0.211544	-0.436964
C70	C	0.789718	0.288456	0.063036
N71	N	0.309536	-0.243948	-0.503664
N72	N	0.809536	0.256052	-0.003664
C73	C	0.282435	-0.276356	-0.570373
C74	C	0.782435	0.223644	-0.070373
C75	C	-0.137237	-0.211578	-0.437073
C76	C	0.362763	0.288422	0.062927
C77	C	-0.184155	-0.211582	-0.437082
C78	C	0.315845	0.288418	0.062918
C79	C	-0.191439	-0.276397	-0.570495
C80	C	0.308561	0.223603	-0.070495
C81	C	-0.144520	-0.276394	-0.570481
C82	C	0.355480	0.223606	-0.070481
C83	C	-0.117419	-0.243981	-0.503773
C84	C	0.382581	0.256019	-0.003773
C85	C	0.380963	-0.276348	-0.570333
C86	C	0.880963	0.223652	-0.070333
C87	C	0.427884	-0.276344	-0.570308
C88	C	0.927884	0.223656	-0.070308
C89	C	0.435163	-0.211528	-0.436899
C90	C	0.935163	0.288472	0.063101
C91	C	0.388247	-0.211534	-0.436919
C92	C	0.888247	0.288466	0.063081
C93	C	0.361147	-0.243946	-0.503645
C94	C	0.861147	0.256054	-0.003645
O95	O	0.317118	-0.184006	-0.380238
O96	O	0.817118	0.315994	0.119762
O97	O	0.303605	-0.303909	-0.627105
O98	O	0.803605	0.196091	-0.127105
C99	C	0.094767	-0.276368	-0.570430
C100	C	0.594767	0.223632	-0.070430
C101	C	0.074952	-0.243963	-0.503738
C102	C	0.574952	0.256037	-0.003738
C103	C	0.102053	-0.211555	-0.437029
C104	C	0.602053	0.288445	0.062971
C105	C	0.028034	-0.243968	-0.503747
C106	C	0.528034	0.256032	-0.003747
C107	C	0.000933	-0.276376	-0.570455
C108	C	0.500933	0.223624	-0.070455
C109	C	0.020750	-0.308779	-0.637156
C110	C	0.520750	0.191221	-0.137156
C111	C	0.067666	-0.308777	-0.637139
C112	C	0.567666	0.191223	-0.137139
C113	C	0.082236	-0.179151	-0.370329
C114	C	0.582236	0.320849	0.129671
C115	C	0.035319	-0.179157	-0.370350
C116	C	0.535319	0.320843	0.129650
C117	C	0.008218	-0.211565	-0.437059
C118	C	0.508218	0.288435	0.062941
C119	C	0.621559	-0.360677	-0.503630
C120	C	1.121559	0.139323	-0.003630
C121	C	0.621565	-0.410612	-0.503643
C122	C	1.121565	0.089388	-0.003643
C123	C	0.654062	-0.716617	-0.436966
C124	C	1.154062	-0.216617	0.063034
C125	C	0.654115	-0.904292	-0.437006
C126	C	1.154115	-0.404292	0.062994
O127	O	0.681683	-0.925462	-0.380275
O128	O	1.181683	-0.425462	0.119725
N129	N	0.621726	-0.931403	-0.503761
N130	N	1.121726	-0.431403	-0.003761
C131	C	0.589323	-0.911593	-0.570515
C132	C	1.089323	-0.411593	-0.070515
O133	O	0.561779	-0.938959	-0.627302
O134	O	1.061779	-0.438959	-0.127302
C135	C	0.589272	-0.723919	-0.570479
C136	C	1.089272	-0.223919	-0.070479
C137	C	0.621661	-0.696810	-0.503712
C138	C	1.121661	-0.196810	-0.003712
C139	C	0.686448	-0.689508	-0.370205
C140	C	1.186448	-0.189508	0.129795
C141	C	0.686433	-0.642592	-0.370192
C142	C	1.186433	-0.142592	0.129808
C143	C	0.654031	-0.622785	-0.436939
C144	C	1.154031	-0.122785	0.063061
C145	C	0.621646	-0.649893	-0.503699
C146	C	1.121646	-0.149893	-0.003699
C147	C	0.556872	-0.704109	-0.637237
C148	C	1.056872	-0.204109	-0.137237
C149	C	0.556863	-0.657187	-0.637224
C150	C	1.056863	-0.157187	-0.137224
C151	C	0.589251	-0.630079	-0.570458
C152	C	1.089251	-0.130079	-0.070458
C153	C	0.589229	-0.583170	-0.570432
C154	C	1.089229	-0.083170	-0.070432
N155	N	0.621618	-0.556059	-0.503677
N156	N	1.121618	-0.056059	-0.003677
C157	C	0.654019	-0.575866	-0.436931
C158	C	1.154019	-0.075866	0.063069
C159	C	0.589352	-1.010124	-0.570527
C160	C	1.089352	-0.510124	-0.070527
C161	C	0.589364	-1.057042	-0.570535
C162	C	1.089364	-0.557042	-0.070535
C163	C	0.654156	-1.049739	-0.437028
C164	C	1.154156	-0.549739	0.062972
C165	C	0.654142	-1.002819	-0.437015
C166	C	1.154142	-0.502819	0.062985
C167	C	0.621741	-0.983013	-0.503773
C168	C	1.121741	-0.483013	-0.003773
C169	C	0.653985	-0.477339	-0.436907
C170	C	1.153985	0.022661	0.063093
C171	C	0.653966	-0.430419	-0.436896
C172	C	1.153966	0.069581	0.063104
C173	C	0.589175	-0.437727	-0.570407
C174	C	1.089175	0.062273	-0.070407
C175	C	0.589192	-0.484643	-0.570414
C176	C	1.089192	0.015357	-0.070414
C177	C	0.621601	-0.504448	-0.503661
C178	C	1.121601	-0.004448	-0.003661
O179	O	0.561679	-0.561970	-0.627142
O180	O	1.061679	-0.061970	-0.127142
O181	O	0.681566	-0.548494	-0.380168
O182	O	1.181566	-0.048494	0.119832
C183	C	0.654077	-0.763533	-0.436979
C184	C	1.154077	-0.263533	0.063021
C185	C	0.621691	-0.790642	-0.503739
C186	C	1.121691	-0.290642	-0.003739
C187	C	0.589290	-0.770834	-0.570486
C188	C	1.089290	-0.270834	-0.070486
C189	C	0.621703	-0.837560	-0.503747
C190	C	1.121703	-0.337560	-0.003747
C191	C	0.654104	-0.857368	-0.437000
C192	C	1.154104	-0.357368	0.063000
C193	C	0.686493	-0.830257	-0.370246
C194	C	1.186493	-0.330257	0.129754
C195	C	0.686478	-0.783341	-0.370232
C196	C	1.186478	-0.283341	0.129768
C197	C	0.556901	-0.797945	-0.637240
C198	C	1.056901	-0.297945	-0.137240
C199	C	0.556918	-0.844861	-0.637248
C200	C	1.056918	-0.344861	-0.137248
C201	C	0.589319	-0.864669	-0.570501
C202	C	1.089319	-0.364669	-0.070501
C203	C	0.738811	-0.243980	-0.503758
C204	C	1.238811	0.256020	-0.003758
C205	C	0.788744	-0.243990	-0.503791
C206	C	1.288744	0.256010	-0.003791
C207	C	0.606772	-0.258795	-0.776232
C208	C	1.106772	0.241205	-0.276232
C209	C	0.600437	-0.265118	-0.892377
C210	C	1.100437	0.234882	-0.392377
C211	C	0.621727	-0.126782	-0.503757
C212	C	1.121727	0.373218	-0.003757
C213	C	0.621765	-0.076850	-0.503789
C214	C	1.121765	0.423150	-0.003789
C215	C	0.624936	-0.240640	-0.944193
C216	C	1.124936	0.259360	-0.444193
C217	C	0.618390	-0.247175	-1.064234
C218	C	1.118390	0.252825	-0.564234
C219	C	0.636470	-0.229144	-0.232192
C220	C	1.136470	0.270856	0.267808
C221	C	0.642892	-0.222694	-0.116048
C222	C	1.142892	0.277306	0.383952
H223	H	0.245057	-0.152737	-0.315984
H224	H	0.745057	0.347263	0.184016
Br225	Br	0.575345	-0.290167	-1.138403
Br226	Br	1.075345	0.209833	-0.638403
H227	H	0.019191	-0.152766	-0.316028
H228	H	0.519191	0.347234	0.183972
Br229	Br	0.557395	-0.308108	-0.966549
Br230	Br	1.057395	0.191892	-0.466549
Br231	Br	0.124727	-0.352760	-0.727654
Br232	Br	0.624727	0.147240	-0.227654
Br233	Br	0.149193	-0.135148	-0.279785
Br234	Br	0.649193	0.364852	0.220215
Br235	Br	0.454773	-0.320332	-0.660827
Br236	Br	0.954773	0.179668	-0.160827
Br237	Br	-0.228228	-0.320377	-0.661034
Br238	Br	0.271772	0.179623	-0.161034
Br239	Br	0.545227	-0.521433	-0.661001
Br240	Br	1.045227	-0.021433	-0.161001
H241	H	0.668713	-0.196896	-1.071545
H242	H	1.168713	0.303104	-0.571545
H243	H	0.372113	-0.185145	-0.382607
H244	H	0.872113	0.314855	0.117393
Br245	Br	0.545374	-0.983251	-0.661135
Br246	Br	1.045374	-0.483251	-0.161135
H247	H	0.650756	-0.214845	-0.899684
H248	H	1.150756	0.285155	-0.399684
H249	H	0.530516	-0.781822	-0.691595
H250	H	1.030516	-0.281822	-0.191595
H251	H	0.358903	-0.302740	-0.624670
H252	H	0.858903	0.197260	-0.124670
H253	H	0.224544	-0.335158	-0.691404
H254	H	0.724544	0.164842	-0.191404
H255	H	0.530478	-0.641064	-0.691589
H256	H	1.030478	-0.141064	-0.191589
H257	H	-0.200283	-0.185196	-0.382760
H258	H	0.299717	0.314804	0.117240
H259	H	0.712874	-0.846392	-0.315895
H260	H	1.212874	-0.346392	0.184105
H261	H	-0.115175	-0.185183	-0.382747
H262	H	0.384825	0.314817	0.117253
Br263	Br	0.471952	-0.167548	-0.346369
Br264	Br	0.971952	0.332452	0.153631
Br265	Br	-0.016039	-0.352764	-0.727681
Br266	Br	0.483961	0.147236	-0.227681
Br267	Br	-0.117633	-0.320378	-0.661001
Br268	Br	0.382367	0.179622	-0.161001
H269	H	0.083795	-0.335167	-0.691451
H270	H	0.583795	0.164833	-0.191451
H271	H	0.104297	-0.152760	-0.316006
H272	H	0.604297	0.347240	0.183994
Br273	Br	0.697923	-0.393631	-0.346276
Br274	Br	1.197923	0.106369	0.153724
H275	H	0.680376	-0.493459	-0.382552
H276	H	1.180376	0.006541	0.117448
H277	H	0.712807	-0.620523	-0.315828
H278	H	1.212807	-0.120523	0.184172
H279	H	0.712835	-0.705630	-0.315852
H280	H	1.212835	-0.205630	0.184148
Br281	Br	0.698128	-1.076629	-0.346440
Br282	Br	1.198128	-0.576629	0.153560
Br283	Br	0.698098	-0.966033	-0.346400
Br284	Br	1.198098	-0.466033	0.153600
H285	H	0.562986	-1.079110	-0.624893
H286	H	1.062986	-0.579110	-0.124893
H287	H	0.530496	-0.726173	-0.691601
H288	H	1.030496	-0.226173	-0.191601
H289	H	0.562793	-0.421592	-0.624748
H290	H	1.062793	0.078408	-0.124748
Br291	Br	0.512957	-0.881646	-0.727865
Br292	Br	1.012957	-0.381646	-0.227865
Br293	Br	0.730437	-0.746557	-0.279618
Br294	Br	1.230437	-0.246557	0.220382
