data_functionalizedCrystal
_audit_creation_method	'MofGen! by Chris Wilmer'
_symmetry_space_group_name_H-M	'P1'
_symmetry_Int_Tables_number	1
_symmetry_cell_setting	triclinic
loop_
_symmetry_equiv_pos_as_xyz
  x,y,z
_cell_length_a	12.759401
_cell_length_b	18.215405
_cell_length_c	12.759393
_cell_angle_alpha	89.963343
_cell_angle_beta	89.981708
_cell_angle_gamma	90.025116
loop_
_atom_site_label
_atom_site_type_symbol
_atom_site_fract_x
_atom_site_fract_y
_atom_site_fract_z
Zn1	Zn	1.606167	-0.292943	-0.593969
Zn2	Zn	1.606034	-0.416027	-0.418271
Zn3	Zn	1.430473	-0.292980	-0.418305
Zn4	Zn	1.430427	-0.415973	-0.593909
O5	O	1.518275	-0.354481	-0.506113
O6	O	1.753171	-0.309278	-0.570673
O7	O	1.582710	-0.399743	-0.271254
O8	O	1.453855	-0.189991	-0.441647
O9	O	1.753073	-0.399707	-0.441588
O10	O	1.582936	-0.189964	-0.570706
O11	O	1.453726	-0.309340	-0.271279
O12	O	1.283446	-0.309288	-0.441588
O13	O	1.453775	-0.399614	-0.740938
O14	O	1.283412	-0.399650	-0.570603
O15	O	1.582891	-0.309225	-0.740982
O16	O	1.582665	-0.519004	-0.441530
O17	O	1.453646	-0.518964	-0.570570
C18	C	1.245308	-0.354467	-0.506094
C19	C	1.128531	-0.354479	-0.506110
C20	C	1.073622	-0.401491	-0.438804
C21	C	0.963898	-0.401503	-0.438822
C22	C	0.964002	-0.307487	-0.573456
C23	C	1.073724	-0.307479	-0.573442
C24	C	1.073561	-0.455768	-0.361071
C25	C	0.963837	-0.455781	-0.361089
C26	C	1.518165	-0.545687	-0.506063
C27	C	1.518213	-0.627486	-0.506076
C28	C	1.585551	-0.815676	-0.439008
C29	C	1.585598	-0.892535	-0.439034
C30	C	1.451135	-0.892533	-0.573293
C31	C	1.451094	-0.815676	-0.573273
C32	C	1.518300	-0.777249	-0.506124
C33	C	1.518388	-0.930965	-0.506170
C34	C	1.518439	-1.014299	-0.506198
C35	C	1.518251	-0.693910	-0.506097
C36	C	1.792309	-0.354495	-0.506133
C37	C	1.909085	-0.354501	-0.506142
C38	C	1.518343	-0.354410	-0.780147
C39	C	1.518371	-0.354379	-0.896923
C40	C	1.518415	-0.162528	-0.506187
C41	C	1.518475	-0.080729	-0.506218
C42	C	1.451163	-0.401423	-0.951764
C43	C	1.451202	-0.401396	-1.061488
C44	C	1.585659	-0.307276	-1.061521
C45	C	1.585625	-0.307307	-0.951799
C46	C	1.373532	-0.455760	-0.951746
C47	C	1.373570	-0.455734	-1.061470
C48	C	1.518269	-0.354499	-0.233146
C49	C	1.518444	-0.354322	-0.116370
H50	H	1.640276	-0.784391	-0.384334
H51	H	1.118427	-0.269205	-0.628260
H52	H	1.640361	-0.923819	-0.384383
N53	N	1.118630	-0.428643	-0.258759
H54	H	1.163221	-0.383773	-0.272112
H55	H	1.059648	-0.415582	-0.209378
N56	N	1.378556	-0.774219	-0.645661
H57	H	1.394832	-0.787541	-0.720748
H58	H	1.303534	-0.787660	-0.629189
N59	N	1.378646	-0.933979	-0.645710
H60	H	1.388872	-0.988499	-0.635538
H61	H	1.303616	-0.920594	-0.629282
N62	N	1.412122	-0.527444	-1.106531
H63	H	1.410744	-0.524804	-1.185588
H64	H	1.486187	-0.536782	-1.082026
N65	N	1.658128	-0.256578	-0.892647
H66	H	1.700736	-0.226755	-0.944063
H67	H	1.615383	-0.222527	-0.847131
N68	N	1.658196	-0.256508	-1.120709
H69	H	1.648023	-0.263627	-1.198540
H70	H	1.641879	-0.203952	-1.101551
N71	N	0.918731	-0.527537	-0.399497
H72	H	0.977640	-0.562199	-0.418041
H73	H	0.874121	-0.550091	-0.342543
N74	N	0.904885	-0.256787	-0.646058
H75	H	0.956322	-0.227002	-0.688692
H76	H	0.859368	-0.286785	-0.694609
H77	H	1.395284	-0.512765	-0.921951
H78	H	1.296244	-0.435348	-0.917719
H79	H	1.292222	-0.440451	-1.091254
N80	N	1.112985	-0.531287	-0.389729
H81	H	1.086652	-0.544914	-0.461780
H82	H	1.192139	-0.531260	-0.389665
N83	N	0.924324	-0.435466	-0.253379
H84	H	0.950642	-0.472363	-0.200464
H85	H	0.950696	-0.384938	-0.234246
