data_functionalizedCrystal
_audit_creation_method	'MofGen! by Chris Wilmer'
_symmetry_space_group_name_H-M	'P1'
_symmetry_Int_Tables_number	1
_symmetry_cell_setting	triclinic
loop_
_symmetry_equiv_pos_as_xyz
  x,y,z
_cell_length_a	13.339070
_cell_length_b	7.540329
_cell_length_c	9.065218
_cell_angle_alpha	90.001372
_cell_angle_beta	79.677407
_cell_angle_gamma	89.996608
loop_
_atom_site_label
_atom_site_type_symbol
_atom_site_fract_x
_atom_site_fract_y
_atom_site_fract_z
O1	O	-1.349081	0.147566	0.742385
O2	O	-1.053661	0.147549	0.644942
O3	O	-1.207477	0.147554	0.481402
O4	O	-1.195265	0.147561	0.905925
O5	O	-1.207472	-0.147411	0.481398
O6	O	-1.053655	-0.147416	0.644938
O7	O	-1.349075	-0.147399	0.742381
Cu8	Cu	-1.201365	-0.174340	0.693659
Cu9	Cu	-1.201371	0.174490	0.693664
O10	O	-1.195259	-0.147404	0.905921
C11	C	-1.015818	0.000064	0.628480
C12	C	-0.903067	0.000058	0.579417
N13	N	-1.201368	-0.419689	0.693658
C14	C	-0.541769	0.000080	0.960908
C15	C	-0.647704	0.000091	1.007010
C16	C	-0.711550	0.000082	0.900116
C17	C	-0.669450	0.000063	0.747111
C18	C	-0.563505	0.000065	0.701004
C19	C	-0.733286	0.000068	0.640212
C20	C	-0.691186	0.000049	0.487208
C21	C	-0.585251	0.000050	0.441108
C22	C	-0.521405	0.000059	0.548003
C23	C	-0.839231	0.000065	0.686319
C24	C	-0.860967	0.000051	0.426415
C25	C	-0.755032	0.000040	0.380313
C26	C	-0.386918	0.000081	0.758843
C27	C	-0.499669	0.000073	0.807907
C28	C	-1.206301	0.000074	0.425956
C29	C	-1.202791	0.000083	0.260745
N30	N	-1.201376	0.419839	0.693657
C31	C	-1.196436	0.000079	0.961367
C32	C	-1.199945	0.000083	1.126579
H33	H	-0.873498	0.000074	0.810896
H34	H	-0.912951	0.000051	0.339372
H35	H	-0.797807	0.000096	0.937662
H36	H	-0.550977	0.000054	0.316523
O37	O	-0.479606	0.000014	1.064534
C38	C	-0.377076	0.000065	0.991026
H39	H	-0.371951	-0.055786	0.873051
H40	H	-0.346507	0.141578	0.984098
C41	C	-0.319588	-0.046998	1.224354
C42	C	-0.313292	-0.115609	1.079459
H43	H	-0.280241	-0.118344	1.278905
H44	H	-0.388664	-0.047026	1.273879
H45	H	-0.294115	0.070928	1.218559
H46	H	-0.338776	-0.233524	1.085255
H47	H	-0.244219	-0.115604	1.029936
H48	H	-0.720739	0.000039	0.255734
H49	H	-0.681974	0.000121	1.131586
H50	H	-0.435143	0.000048	0.510474
