data_functionalizedCrystal
_audit_creation_method	'MofGen! by Chris Wilmer'
_symmetry_space_group_name_H-M	'P1'
_symmetry_Int_Tables_number	1
_symmetry_cell_setting	triclinic
loop_
_symmetry_equiv_pos_as_xyz
  x,y,z
_cell_length_a	27.731993
_cell_length_b	26.809956
_cell_length_c	10.654550
_cell_angle_alpha	89.994437
_cell_angle_beta	83.552648
_cell_angle_gamma	89.997216
loop_
_atom_site_label
_atom_site_type_symbol
_atom_site_fract_x
_atom_site_fract_y
_atom_site_fract_z
O1	O	0.641877	0.041344	0.149072
O2	O	0.501221	0.041374	0.171862
O3	O	0.574783	0.041357	-0.022410
O4	O	0.568315	0.041362	0.343344
O5	O	0.574769	-0.041602	-0.022380
O6	O	0.501207	-0.041585	0.171892
O7	O	0.641863	-0.041615	0.149102
Zn8	Zn	0.571533	-0.054771	0.160502
Zn9	Zn	0.571551	0.054531	0.160463
O10	O	0.568301	-0.041597	0.343374
C11	C	0.483204	-0.000101	0.171410
C12	C	0.429539	-0.000090	0.170001
N13	N	0.571524	-0.129367	0.160527
C14	C	0.046323	0.045107	0.159774
C15	C	0.248014	0.045121	0.165143
O16	O	0.274097	0.083580	0.165774
N17	N	0.273231	-0.000099	0.165832
C18	C	0.248022	-0.045326	0.165169
O19	O	0.274099	-0.083788	0.165864
C20	C	0.046333	-0.045339	0.159790
C21	C	0.021118	-0.000116	0.159115
C22	C	0.021108	0.090326	0.159097
C23	C	-0.029312	0.090322	0.157762
C24	C	-0.054517	0.045099	0.157103
C25	C	-0.029302	-0.000120	0.157779
C26	C	0.021125	-0.090565	0.159118
C27	C	-0.029300	-0.090565	0.157770
C28	C	-0.054515	-0.045342	0.157095
C29	C	-0.104928	-0.045347	0.155785
N30	N	-0.130144	-0.000127	0.155097
C31	C	-0.104939	0.045096	0.155756
C32	C	0.353912	-0.045316	0.167995
C33	C	0.404334	-0.045313	0.169342
C34	C	0.404322	0.045134	0.169314
C35	C	0.353899	0.045130	0.167976
C36	C	0.328695	-0.000096	0.167307
C37	C	-0.210825	0.045085	0.152953
C38	C	-0.261250	0.045077	0.151622
C39	C	-0.261233	-0.045370	0.151643
C40	C	-0.210813	-0.045362	0.152980
C41	C	-0.185610	-0.000131	0.153631
O42	O	-0.131042	-0.083787	0.155140
O43	O	-0.131024	0.083553	0.155032
C44	C	0.096743	0.045111	0.161109
C45	C	0.121958	-0.000108	0.161786
C46	C	0.096753	-0.045332	0.161127
C47	C	0.172380	-0.000105	0.163133
C48	C	0.197585	0.045118	0.163792
C49	C	0.172368	0.090338	0.163104
C50	C	0.121948	0.090334	0.161768
C51	C	0.121969	-0.090552	0.161815
C52	C	0.172389	-0.090544	0.163152
C53	C	0.197595	-0.045321	0.163811
C54	C	0.604120	-0.474001	0.074460
C55	C	0.604132	-0.682879	0.074441
O56	O	0.631826	-0.709889	0.001271
N57	N	0.571554	-0.708995	0.160435
C58	C	0.538969	-0.682887	0.246434
O59	O	0.511256	-0.709893	0.319569
C60	C	0.538955	-0.474011	0.246447
C61	C	0.571539	-0.447898	0.160456
C62	C	0.636700	-0.447888	-0.011525
C63	C	0.636699	-0.395672	-0.011515
C64	C	0.604117	-0.369569	0.074481
C65	C	0.571537	-0.395682	0.160466
C66	C	0.506368	-0.447905	0.332439
C67	C	0.506367	-0.395682	0.332433
C68	C	0.538950	-0.369569	0.246441
C69	C	0.538954	-0.317362	0.246471
N70	N	0.571532	-0.291246	0.160477
C71	C	0.604114	-0.317350	0.074482
C72	C	0.538979	-0.792551	0.246424
C73	C	0.538982	-0.844770	0.246422
C74	C	0.604145	-0.844758	0.074427
C75	C	0.604143	-0.792538	0.074435
C76	C	0.571556	-0.766435	0.160429
C77	C	0.604108	-0.207692	0.074511
C78	C	0.604106	-0.155471	0.074532
C79	C	0.538942	-0.155487	0.246523
C80	C	0.538946	-0.207704	0.246506
C81	C	0.571531	-0.233805	0.160490
O82	O	0.511270	-0.290319	0.319593
O83	O	0.631815	-0.290335	0.001340
C84	C	0.604122	-0.526218	0.074450
C85	C	0.571541	-0.552330	0.160435
C86	C	0.538960	-0.526227	0.246430
C87	C	0.571545	-0.604549	0.160434
C88	C	0.604127	-0.630653	0.074438
C89	C	0.636705	-0.604537	-0.011556
C90	C	0.636703	-0.552321	-0.011546
C91	C	0.506382	-0.552343	0.332425
C92	C	0.506386	-0.604559	0.332408
C93	C	0.538968	-0.630662	0.246413
C94	C	0.659880	-0.000138	0.149555
C95	C	0.713545	-0.000146	0.150963
N96	N	0.571564	0.129127	0.160427
C97	C	0.574301	-0.000122	-0.069172
C98	C	0.572880	-0.000120	-0.208555
C99	C	0.616192	-0.000131	-0.289884
C100	C	0.614854	-0.000127	-0.420848
C101	C	0.526889	-0.000104	-0.389142
C102	C	0.528227	-0.000104	-0.258180
C103	C	0.666978	-0.000146	-0.308190
C104	C	0.665640	-0.000143	-0.439154
C105	C	0.568783	-0.000117	0.390137
C106	C	0.570204	-0.000116	0.529520
H107	H	-0.281778	0.081904	0.151076
H108	H	0.683145	-0.035970	-0.273238
O109	O	0.329452	0.089091	0.167483
C110	C	0.308881	0.166382	0.275922
C111	C	0.336595	0.116618	0.276626
H112	H	0.314638	0.188647	0.364168
H113	H	0.322937	0.188717	0.188331
H114	H	0.268518	0.158604	0.274782
H115	H	0.376962	0.124350	0.277811
H116	H	0.322499	0.094298	0.364209
H117	H	0.663235	-0.531064	-0.081568
H118	H	0.663236	-0.625799	-0.081573
O119	O	0.683996	0.042603	-0.494218
C120	C	0.719794	0.122955	-0.463511
C121	C	0.699030	0.074568	-0.400991
H122	H	0.731945	0.148816	-0.388163
H123	H	0.752158	0.113647	-0.535371
H124	H	0.690615	0.142239	-0.513289
H125	H	0.728174	0.055260	-0.351144
H126	H	0.666655	0.083908	-0.329199
O127	O	0.690614	0.041280	-0.274003
C128	C	0.685994	0.116807	-0.150651
C129	C	0.659177	0.069908	-0.189238
H130	H	0.660586	0.139971	-0.082134
H131	H	0.719080	0.105256	-0.103031
H132	H	0.698164	0.139932	-0.238308
H133	H	0.646974	0.046762	-0.101646
H134	H	0.626113	0.081493	-0.236904
H135	H	0.684770	-0.034864	-0.481716
H136	H	-0.049819	-0.127394	0.157236
H137	H	0.479849	-0.531093	0.402451
H138	H	-0.190311	0.081916	0.153484
O139	O	0.668207	-0.370233	-0.095246
C140	C	0.696784	-0.289791	-0.172279
C141	C	0.661163	-0.318533	-0.077152
H142	H	0.691094	-0.247987	-0.157701
H143	H	0.735632	-0.299923	-0.157103
H144	H	0.689973	-0.300189	-0.272529
H145	H	0.667929	-0.308150	0.023135
H146	H	0.622326	-0.308399	-0.092439
H147	H	0.101453	-0.127379	0.161272
H148	H	0.492958	-0.000088	-0.191966
O149	O	0.474686	-0.629844	0.415996
C150	C	0.410067	-0.624331	0.586624
C151	C	0.445936	-0.595635	0.492025
H152	H	0.386820	-0.596685	0.648135
H153	H	0.385708	-0.648758	0.532908
H154	H	0.431147	-0.648799	0.648922
H155	H	0.424896	-0.571140	0.429702
H156	H	0.470295	-0.571240	0.545819
H157	H	-0.049837	0.127148	0.157206
H158	H	0.041625	0.127155	0.159630
H159	H	-0.190283	-0.082187	0.153555
H160	H	0.630642	-0.228937	0.004467
H161	H	0.424859	-0.082138	0.169912
O162	O	0.635775	-0.130183	-0.009129
C163	C	0.700427	-0.135692	-0.179674
C164	C	0.664582	-0.164390	-0.085020
H165	H	0.723733	-0.163335	-0.241039
H166	H	0.679376	-0.111253	-0.242110
H167	H	0.724731	-0.111235	-0.125876
H168	H	0.640269	-0.188873	-0.138715
H169	H	0.685663	-0.188797	-0.022586
H170	H	0.424853	0.081957	0.169855
O171	O	0.483556	-0.000112	-0.437560
C172	C	0.442508	-0.000067	-0.625260
C173	C	0.491616	-0.000068	-0.570600
H174	H	0.449008	-0.000020	-0.732829
H175	H	0.421067	-0.034788	-0.591779
H176	H	0.421091	0.034649	-0.591624
H177	H	0.513073	-0.034760	-0.604212
H178	H	0.513020	0.034676	-0.604074
O179	O	0.474695	-0.370404	0.416096
C180	C	0.410041	-0.375932	0.586632
C181	C	0.445889	-0.404620	0.491971
H182	H	0.386735	-0.403583	0.647984
H183	H	0.431089	-0.351503	0.649080
H184	H	0.385736	-0.351467	0.532840
H185	H	0.470202	-0.429112	0.545660
H186	H	0.424810	-0.429017	0.429525
H187	H	0.663232	-0.469137	-0.081559
H188	H	0.630675	-0.771280	0.004413
O189	O	0.507288	-0.870055	0.330011
C190	C	0.442673	-0.864541	0.500649
C191	C	0.478537	-0.835846	0.406038
H192	H	0.419425	-0.836896	0.562159
H193	H	0.418314	-0.888973	0.446943
H194	H	0.463756	-0.889005	0.562947
H195	H	0.457493	-0.811355	0.343715
H196	H	0.502896	-0.811447	0.459822
H197	H	0.479836	-0.469158	0.402460
O198	O	0.329504	-0.089297	0.167413
C199	C	0.334853	-0.179006	0.167521
C200	C	0.362551	-0.129235	0.168203
H201	H	0.361560	-0.211309	0.168132
H202	H	0.307126	-0.181304	0.254827
H203	H	0.315367	-0.181249	0.079001
H204	H	0.382066	-0.126958	0.256665
H205	H	0.390250	-0.126957	0.080838
H206	H	0.041647	-0.127391	0.159664
H207	H	0.101423	0.127159	0.161218
O208	O	-0.285650	-0.089342	0.151055
C209	C	-0.280326	-0.179053	0.151110
C210	C	-0.252615	-0.129291	0.151823
H211	H	-0.253628	-0.211365	0.151704
H212	H	-0.308055	-0.181352	0.238413
H213	H	-0.299812	-0.181280	0.062586
H214	H	-0.233100	-0.127030	0.240288
H215	H	-0.224914	-0.127013	0.064461
H216	H	0.512442	-0.771302	0.316454
H217	H	0.512419	-0.228965	0.316540
O218	O	0.196780	0.134313	0.163799
C219	C	0.191467	0.224024	0.163551
C220	C	0.163757	0.174263	0.162799
H221	H	0.164781	0.256337	0.162716
H222	H	0.210927	0.226319	0.252110
H223	H	0.219219	0.226254	0.076285
H224	H	0.135982	0.172000	0.250005
H225	H	0.144330	0.171989	0.074183
O226	O	0.196808	-0.134522	0.163752
C227	C	0.191482	-0.224232	0.163687
C228	C	0.163771	-0.174466	0.162992
H229	H	0.164782	-0.256540	0.163099
H230	H	0.219206	-0.226526	0.076374
H231	H	0.210973	-0.226471	0.252201
H232	H	0.144251	-0.172194	0.074536
H233	H	0.136075	-0.172194	0.250363
H234	H	0.630675	-0.866020	0.004407
H235	H	0.512415	-0.134226	0.316543
