data_functionalizedCrystal
_audit_creation_method	'MofGen! by Chris Wilmer'
_symmetry_space_group_name_H-M	'P1'
_symmetry_Int_Tables_number	1
_symmetry_cell_setting	triclinic
loop_
_symmetry_equiv_pos_as_xyz
  x,y,z
_cell_length_a	11.169417
_cell_length_b	18.215405
_cell_length_c	11.169409
_cell_angle_alpha	89.961333
_cell_angle_beta	89.980487
_cell_angle_gamma	90.025070
loop_
_atom_site_label
_atom_site_type_symbol
_atom_site_fract_x
_atom_site_fract_y
_atom_site_fract_z
Zn1	Zn	1.834850	-0.292900	-0.678480
Zn2	Zn	1.834692	-0.415991	-0.477775
Zn3	Zn	1.634136	-0.292946	-0.477815
Zn4	Zn	1.634096	-0.415932	-0.678421
O5	O	1.734443	-0.354442	-0.578123
O6	O	2.002779	-0.309234	-0.651864
O7	O	1.808038	-0.399713	-0.309830
O8	O	1.660844	-0.189955	-0.504476
O9	O	2.002663	-0.399669	-0.504406
O10	O	1.808307	-0.189922	-0.651903
O11	O	1.660691	-0.309312	-0.309860
O12	O	1.466181	-0.309255	-0.504418
O13	O	1.660776	-0.399568	-0.846378
O14	O	1.466152	-0.399612	-0.651802
O15	O	1.808269	-0.309177	-0.846422
O16	O	1.808000	-0.518968	-0.504349
O17	O	1.660623	-0.518924	-0.651763
C18	C	1.422619	-0.354432	-0.578109
C19	C	1.289219	-0.354446	-0.578132
C20	C	1.734322	-0.545649	-0.578071
C21	C	1.734381	-0.627448	-0.578089
C22	C	1.811345	-0.892503	-0.501493
C23	C	1.811295	-0.815644	-0.501465
C24	C	1.657691	-0.815640	-0.654834
C25	C	1.657735	-0.892498	-0.654854
C26	C	1.734569	-0.930927	-0.578186
C27	C	1.734475	-0.777211	-0.578138
C28	C	1.734421	-0.693877	-0.578108
C29	C	1.734622	-1.014266	-0.578213
C30	C	2.047486	-0.354453	-0.578137
C31	C	2.180886	-0.354457	-0.578143
C32	C	1.734536	-0.354361	-0.891165
C33	C	1.734575	-0.354326	-1.024565
C34	C	1.734598	-0.162489	-0.578201
C35	C	1.734663	-0.080690	-0.578234
C36	C	1.734421	-0.354471	-0.266298
C37	C	1.734614	-0.354298	-0.132899
H38	H	1.873907	-0.923790	-0.439064
H39	H	1.595136	-0.784343	-0.717257
C40	C	1.895747	-0.773382	-0.417089
N41	N	1.959356	-0.741550	-0.353529
C42	C	1.573270	-0.934766	-0.739226
N43	N	1.509652	-0.966603	-0.802769
