data_functionalizedCrystal
_audit_creation_method	'MofGen! by Chris Wilmer'
_symmetry_space_group_name_H-M	'P1'
_symmetry_Int_Tables_number	1
_symmetry_cell_setting	triclinic
loop_
_symmetry_equiv_pos_as_xyz
  x,y,z
_cell_length_a	10.723024
_cell_length_b	17.038272
_cell_length_c	9.798715
_cell_angle_alpha	89.996584
_cell_angle_beta	89.996609
_cell_angle_gamma	87.789713
loop_
_atom_site_label
_atom_site_type_symbol
_atom_site_fract_x
_atom_site_fract_y
_atom_site_fract_z
O1	O	1.667337	0.109720	-0.113484
O2	O	1.305156	0.120222	-0.113489
O3	O	1.484094	0.001144	-0.113475
O4	O	1.488399	0.228799	-0.113497
O5	O	1.484079	0.001144	0.113507
O6	O	1.305141	0.120222	0.113494
O7	O	1.667322	0.109720	0.113498
Zn8	Zn	1.486230	0.114971	0.149534
Zn9	Zn	1.486248	0.114971	-0.149525
O10	O	1.488384	0.228798	0.113485
C11	C	1.258578	0.119458	0.000002
C12	C	1.119813	0.117171	0.000000
C13	C	0.921485	0.046141	0.000005
C14	C	1.064907	0.048503	0.000006
C15	C	1.480171	-0.028006	0.000015
C16	C	1.468489	-0.114864	0.000015
C17	C	1.575744	-0.164385	0.000018
C18	C	1.564760	-0.245996	0.000005
C19	C	1.446520	-0.278084	-0.000002
C20	C	1.339256	-0.228557	-0.000009
C21	C	1.350241	-0.146947	-0.000005
C22	C	1.407711	-0.524057	-0.000021
C23	C	1.396734	-0.605673	-0.000020
C24	C	1.622239	-0.623107	-0.000009
C25	C	1.633214	-0.541495	0.000002
C26	C	1.525950	-0.491974	-0.000012
C27	C	1.435289	-0.361504	-0.000011
C28	C	1.537182	-0.408556	-0.000013
C29	C	1.713900	0.110484	0.000005
C30	C	1.852666	0.112771	-0.000003
C31	C	1.492307	0.257948	-0.000009
C32	C	1.503989	0.344806	-0.000017
N33	N	1.486226	0.114970	0.353634
N34	N	1.486261	0.114966	-0.353624
C35	C	1.561337	0.064752	0.421416
C36	C	1.561356	0.064749	0.578579
H37	H	1.124063	-0.008538	0.000004
O38	O	1.668915	-0.294130	-0.000235
C39	C	1.669311	-0.341862	-0.117782
H40	H	1.608642	-0.312317	-0.199945
H41	H	1.768912	-0.350490	-0.157238
H42	H	1.630702	-0.401375	-0.091215
O43	O	1.049126	0.185176	-0.000191
C44	C	0.973301	0.188142	-0.117768
H45	H	0.960249	0.126000	-0.156954
H46	H	0.878463	0.216686	-0.091336
H47	H	1.019872	0.224138	-0.200086
O48	O	0.908834	0.182982	0.000051
C49	C	0.817000	0.244476	0.000006
H50	H	0.726149	0.222151	0.042979
H51	H	0.849655	0.294856	0.065899
H52	H	0.800937	0.266146	-0.108892
O53	O	1.690700	-0.133347	-0.000040
C54	C	1.783009	-0.194560	-0.000011
H55	H	1.742123	-0.250176	-0.042982
H56	H	1.865042	-0.177078	-0.065913
H57	H	1.816507	-0.205925	0.108882
O58	O	1.409674	0.166371	0.576917
C59	C	1.438485	0.243889	0.611753
H60	H	1.538473	0.244689	0.651101
H61	H	1.428527	0.283033	0.517723
H62	H	1.371756	0.266627	0.694600
H63	H	1.242982	-0.254689	-0.000022
H64	H	1.421930	0.157959	0.411954
O65	O	1.748169	-0.510456	-0.000048
C66	C	1.840483	-0.571666	-0.000008
H67	H	1.799609	-0.627282	-0.042995
H68	H	1.922525	-0.554178	-0.065891
H69	H	1.873964	-0.583034	0.108891
H70	H	1.300443	-0.631796	-0.000003
O71	O	0.865056	-0.023983	-0.000231
C72	C	0.790041	-0.029414	-0.117768
H73	H	0.825273	0.011599	-0.199937
H74	H	0.794902	-0.092400	-0.157222
H75	H	0.689291	-0.011834	-0.091190
O76	O	1.303392	-0.476072	0.000044
C77	C	1.196679	-0.521898	0.000015
H78	H	1.221910	-0.582630	0.042981
H79	H	1.120993	-0.492227	0.065921
H80	H	1.160843	-0.527892	-0.108878
H81	H	1.262902	-0.106627	-0.000008
H82	H	1.709567	-0.663435	-0.000000
H83	H	1.339017	-0.387640	-0.000013
O84	O	1.652105	-0.377482	0.000173
C85	C	1.717992	-0.402712	0.117751
H86	H	1.677962	-0.459490	0.156942
H87	H	1.820767	-0.413473	0.091320
H88	H	1.708528	-0.355574	0.200067
H89	H	1.625667	0.021758	0.636869
O90	O	1.637892	0.013458	0.351673
C91	C	1.565652	-0.035028	0.269023
H92	H	1.471337	-0.004284	0.247804
H93	H	1.616314	-0.047088	0.168464
H94	H	1.550889	-0.092917	0.323964
