data_functionalizedCrystal
_audit_creation_method	'MofGen! by Chris Wilmer'
_symmetry_space_group_name_H-M	'P1'
_symmetry_Int_Tables_number	1
_symmetry_cell_setting	triclinic
loop_
_symmetry_equiv_pos_as_xyz
  x,y,z
_cell_length_a	8.597366
_cell_length_b	10.723022
_cell_length_c	7.681481
_cell_angle_alpha	84.204373
_cell_angle_beta	103.474720
_cell_angle_gamma	84.901128
loop_
_atom_site_label
_atom_site_type_symbol
_atom_site_fract_x
_atom_site_fract_y
_atom_site_fract_z
O1	O	2.101726	0.172553	0.172441
O2	O	1.637884	0.192438	0.102065
O3	O	1.880506	0.000847	0.138883
O4	O	1.859104	0.364145	0.135623
O5	O	1.910368	-0.022788	0.436272
O6	O	1.667746	0.168803	0.399455
O7	O	2.131588	0.148918	0.469830
Zn8	Zn	1.904409	0.155108	0.481859
Zn9	Zn	1.865064	0.186248	0.090036
O10	O	1.888966	0.340510	0.433012
C11	C	1.593423	0.179802	0.241749
C12	C	1.416452	0.177349	0.214898
C13	C	1.893880	-0.057460	0.287339
C14	C	1.889222	-0.195982	0.286626
C15	C	1.749310	-0.243599	0.265396
C16	C	1.744492	-0.386768	0.264658
C17	C	2.176049	0.161554	0.330142
C18	C	2.353019	0.164008	0.356981
C19	C	1.875592	0.398817	0.284552
C20	C	1.880249	0.537340	0.285253
N21	N	1.931272	0.133855	0.749270
N22	N	1.838213	0.207492	-0.177373
H23	H	1.434108	0.154463	0.499186
H24	H	1.633094	-0.178373	0.247774
H25	H	1.335373	0.186885	0.072703
H26	H	1.624699	-0.427771	0.246471
H27	H	2.000040	-0.421660	0.303365
H28	H	2.005439	-0.261210	0.304265
H29	H	2.026284	0.058698	0.838894
H30	H	1.743219	0.282652	0.733015
