data_functionalizedCrystal
_audit_creation_method	'MofGen! by Chris Wilmer'
_symmetry_space_group_name_H-M	'P1'
_symmetry_Int_Tables_number	1
_symmetry_cell_setting	triclinic
loop_
_symmetry_equiv_pos_as_xyz
  x,y,z
_cell_length_a	16.109302
_cell_length_b	15.625429
_cell_length_c	14.586319
_cell_angle_alpha	71.919058
_cell_angle_beta	89.994552
_cell_angle_gamma	83.865709
loop_
_atom_site_label
_atom_site_type_symbol
_atom_site_fract_x
_atom_site_fract_y
_atom_site_fract_z
O1	O	1.103292	0.115882	-0.114801
O2	O	0.861250	0.130302	-0.119587
O3	O	0.988738	-0.008146	-0.073564
O4	O	0.975804	0.254330	-0.160824
O5	O	0.988729	-0.008148	0.078917
O6	O	0.861241	0.130300	0.032894
O7	O	1.103283	0.115880	0.037681
Cu8	Cu	0.982261	0.123090	0.049210
Cu9	Cu	0.982272	0.123092	-0.131117
O10	O	0.975795	0.254328	-0.008342
C11	C	0.830270	0.129717	-0.043151
C12	C	0.737972	0.127965	-0.042566
C13	C	0.525621	0.123914	0.041889
C14	C	0.438898	0.122259	0.042436
C15	C	0.438918	0.122265	-0.123809
C16	C	0.525640	0.123914	-0.124353
C17	C	0.568988	0.124743	-0.041503
C18	C	0.395544	0.121439	-0.040412
C19	C	0.301516	0.119644	-0.039819
C20	C	0.663023	0.126537	-0.042095
C21	C	0.988148	-0.041734	0.013841
C22	C	0.986394	-0.141814	0.047106
C23	C	0.980624	-0.470957	-0.259043
C24	C	0.978972	-0.564996	-0.227756
C25	C	0.978963	-0.564985	-0.061532
C26	C	0.980619	-0.470944	-0.092804
C27	C	0.981449	-0.423938	-0.191561
C28	C	0.981443	-0.423925	-0.025322
C29	C	0.983095	-0.329892	-0.056592
C30	C	0.983923	-0.282879	-0.155345
C31	C	0.983101	-0.329905	-0.222831
C32	C	0.980608	-0.470932	0.073434
C33	C	0.981432	-0.423913	0.140916
C34	C	0.983090	-0.329879	0.109647
C35	C	0.983917	-0.282866	0.010894
C36	C	0.983912	-0.282853	0.177133
C37	C	0.985564	-0.188820	0.145863
C38	C	0.985569	-0.188833	-0.020376
C39	C	1.134263	0.116465	-0.038757
C40	C	1.226561	0.118217	-0.039349
C41	C	0.976385	0.287917	-0.095749
C42	C	0.978139	0.387996	-0.129021
N43	N	0.982260	0.123088	0.176043
N44	N	0.982279	0.123087	-0.257947
C45	C	1.038730	0.061803	0.431421
C46	C	1.038733	0.061801	0.527403
C47	C	0.925803	0.184375	0.486667
C48	C	0.925797	0.184372	0.390688
C49	C	0.982266	0.123087	0.363068
C50	C	0.982274	0.123088	0.555028
C51	C	0.982276	0.123086	0.659096
C52	C	0.982263	0.123088	0.258994
H53	H	0.986252	-0.150559	-0.100793
H54	H	0.983784	-0.291630	-0.303248
H55	H	1.084710	0.011897	0.583056
H56	H	0.403592	0.121584	0.110342
H57	H	0.978284	-0.603270	0.018876
C58	C	0.447649	0.122443	-0.288191
C59	C	0.391266	0.121369	-0.214881
H60	H	0.418230	0.121888	-0.344414
H61	H	0.475194	0.175621	-0.302404
H62	H	0.487753	0.070539	-0.267476
H63	H	0.351165	0.173277	-0.235593
H64	H	0.363708	0.068186	-0.200667
C65	C	0.914872	-0.138013	-0.158265
C66	C	0.985737	-0.179515	-0.189723
H67	H	0.915996	-0.074202	-0.179486
H68	H	0.866065	-0.152399	-0.184179
H69	H	0.914505	-0.159284	-0.089792
H70	H	0.986100	-0.158250	-0.258197
H71	H	1.034556	-0.165121	-0.163814
C72	C	1.087344	-0.094260	0.453805
C73	C	1.100790	-0.005589	0.401092
H74	H	1.125654	-0.135872	0.435087
H75	H	1.095416	-0.103001	0.520736
H76	H	1.031844	-0.104047	0.441326
H77	H	1.156289	0.004200	0.413576
H78	H	1.092725	0.003155	0.334145
C79	C	0.906794	-0.595454	0.069613
C80	C	0.978763	-0.574292	0.107826
H81	H	0.905651	-0.659263	0.090846
H82	H	0.858738	-0.567263	0.090932
H83	H	0.907192	-0.574201	0.001141
H84	H	0.978362	-0.595539	0.176298
H85	H	1.026832	-0.602494	0.086511
H86	H	0.879829	0.234273	0.509165
C87	C	0.985371	-0.198242	0.313320
C88	C	0.986453	-0.137127	0.220036
H89	H	0.985916	-0.166326	0.359111
H90	H	0.936292	-0.228037	0.319763
H91	H	1.033182	-0.241803	0.324355
H92	H	0.938638	-0.093569	0.208999
H93	H	1.035537	-0.107318	0.213591
C94	C	0.613927	0.203225	-0.247153
C95	C	0.573318	0.124828	-0.216024
H96	H	0.643365	0.203782	-0.303739
H97	H	0.573815	0.255113	-0.260955
H98	H	0.652151	0.203939	-0.197878
H99	H	0.535089	0.124117	-0.265296
H100	H	0.613435	0.072926	-0.202227
H101	H	0.879813	0.234277	0.335030
H102	H	0.981307	-0.432683	-0.339460
C103	C	0.906998	-0.583802	-0.363153
C104	C	0.978028	-0.616696	-0.301924
H105	H	0.906406	-0.615722	-0.408936
H106	H	0.858304	-0.592300	-0.326136
H107	H	0.908122	-0.521078	-0.395922
H108	H	0.976901	-0.679420	-0.269149
H109	H	1.026734	-0.608206	-0.338945
C110	C	0.516889	0.123726	0.206274
C111	C	0.573272	0.124810	0.132961
H112	H	0.546308	0.124271	0.262501
H113	H	0.476787	0.175622	0.185568
H114	H	0.489343	0.070540	0.220481
H115	H	0.600813	0.178000	0.118749
H116	H	0.613388	0.072909	0.153670
C117	C	0.978909	-0.568056	0.262667
C118	C	0.980530	-0.475589	0.249467
H119	H	0.978360	-0.599956	0.329683
H120	H	0.930193	-0.576574	0.231365
H121	H	1.027083	-0.590348	0.235915
H122	H	0.932352	-0.453295	0.276213
H123	H	1.029250	-0.467065	0.280782
H124	H	0.983228	-0.321139	0.257540
