data_functionalizedCrystal
_audit_creation_method	'MofGen! by Chris Wilmer'
_symmetry_space_group_name_H-M	'P1'
_symmetry_Int_Tables_number	1
_symmetry_cell_setting	triclinic
loop_
_symmetry_equiv_pos_as_xyz
  x,y,z
_cell_length_a	19.077105
_cell_length_b	14.908308
_cell_length_c	19.076808
_cell_angle_alpha	90.833644
_cell_angle_beta	89.927608
_cell_angle_gamma	91.114342
loop_
_atom_site_label
_atom_site_type_symbol
_atom_site_fract_x
_atom_site_fract_y
_atom_site_fract_z
Zn1	Zn	1.037483	-0.545582	-0.346518
Zn2	Zn	1.537483	-0.045582	0.153482
Zn3	Zn	1.039991	-0.389142	-0.457290
Zn4	Zn	1.539991	0.110858	0.042710
Zn5	Zn	0.927268	-0.389661	-0.335091
Zn6	Zn	1.427268	0.110339	0.164909
Zn7	Zn	0.915788	-0.533487	-0.458745
Zn8	Zn	1.415788	-0.033487	0.041255
O9	O	0.980132	-0.464468	-0.399411
O10	O	1.480132	0.035532	0.100589
O11	O	1.135921	-0.529674	-0.365386
O12	O	1.635921	-0.029674	0.134614
O13	O	1.030892	-0.263549	-0.435688
O14	O	1.530892	0.236451	0.064312
O15	O	0.945643	-0.415623	-0.238499
O16	O	1.445643	0.084377	0.261501
O17	O	1.137763	-0.414739	-0.446769
O18	O	1.637763	0.085261	0.053231
O19	O	1.026618	-0.530177	-0.246894
O20	O	1.526618	-0.030177	0.253106
O21	O	0.948075	-0.263930	-0.345909
O22	O	1.448075	0.236070	0.154091
O23	O	0.827640	-0.403895	-0.347320
O24	O	1.327640	0.096105	0.152680
O25	O	0.926077	-0.660754	-0.449249
O26	O	1.426077	-0.160754	0.050751
O27	O	0.819206	-0.509564	-0.438168
O28	O	1.319206	-0.009564	0.061832
O29	O	1.015486	-0.669639	-0.366796
O30	O	1.515486	-0.169639	0.133204
O31	O	1.019760	-0.403011	-0.555591
O32	O	1.519760	0.096989	-0.055591
O33	O	0.928508	-0.509061	-0.556659
O34	O	1.428508	-0.009061	-0.056659
C35	C	0.797985	-0.455474	-0.391663
C36	C	1.297985	0.044526	0.108337
C37	C	0.720060	-0.451646	-0.388366
C38	C	1.220060	0.048354	0.111634
C39	C	0.679080	-0.504770	-0.434180
C40	C	1.179080	-0.004770	0.065820
C41	C	0.605861	-0.501179	-0.431073
C42	C	1.105861	-0.001179	0.068927
C43	C	0.573624	-0.444458	-0.382155
C44	C	1.073624	0.055542	0.117845
C45	C	0.614610	-0.391332	-0.336335
C46	C	1.114610	0.108668	0.163665
C47	C	0.687828	-0.394929	-0.339439
C48	C	1.187828	0.105071	0.160561
C49	C	0.355117	-0.427816	-0.367789
C50	C	0.855117	0.072184	0.132211
C51	C	0.281895	-0.424222	-0.364690
C52	C	0.781895	0.075778	0.135310
C53	C	0.273150	-0.534070	-0.459427
C54	C	0.773150	-0.034070	0.040573
C55	C	0.346369	-0.537658	-0.462530
C56	C	0.846369	-0.037658	0.037470
C57	C	0.387349	-0.484535	-0.416708
C58	C	0.887349	0.015465	0.083292
N59	N	0.498783	-0.440784	-0.378979
N60	N	0.998783	0.059216	0.121021
N61	N	0.462188	-0.488215	-0.419881
N62	N	0.962188	0.011785	0.080119
C63	C	0.969221	-0.698690	-0.409460
C64	C	1.469221	-0.198690	0.090540
C65	C	0.964571	-0.798502	-0.413742
C66	C	1.464571	-0.298502	0.086258
C67	C	1.048934	-0.995314	-0.335914
C68	C	1.548934	-0.495314	0.164086
C69	C	1.044567	-1.089096	-0.339936
C70	C	1.544567	-0.589096	0.160064
C71	C	0.951468	-1.079850	-0.425801
C72	C	1.451468	-0.579850	0.074199
C73	C	0.955835	-0.986068	-0.421780
C74	C	1.455835	-0.486068	0.078220
C75	C	1.004570	-0.943803	-0.376836
C76	C	1.504570	-0.443803	0.123164
C77	C	1.008940	-0.850019	-0.372819
C78	C	1.508940	-0.350019	0.127181
C79	C	0.915838	-0.840775	-0.458680
C80	C	1.415838	-0.340775	0.041320
C81	C	0.911471	-0.934558	-0.462701
C82	C	1.411471	-0.434558	0.037299
C83	C	1.162991	-0.473498	-0.407190
C84	C	1.662991	0.026502	0.092810
C85	C	1.240914	-0.477346	-0.410505
C86	C	1.740914	0.022654	0.089495
C87	C	0.973179	-0.454688	-0.581565
C88	C	1.473179	0.045312	-0.081565
C89	C	0.970267	-0.450537	-0.659495
C90	C	1.470267	0.049463	-0.159495
C91	C	0.991044	-0.231161	-0.389352
C92	C	1.491044	0.268839	0.110648
C93	C	0.995837	-0.131368	-0.384878
C94	C	1.495837	0.368632	0.115122
C95	C	1.011022	-0.508274	-0.700418
C96	C	1.511022	-0.008274	-0.200418
C97	C	1.008283	-0.504376	-0.773642
C98	C	1.508283	-0.004376	-0.273642
C99	C	0.964792	-0.442735	-0.805941
C100	C	1.464792	0.057265	-0.305941
C101	C	0.924032	-0.384995	-0.765013
C102	C	1.424032	0.115005	-0.265013
C103	C	0.926768	-0.388899	-0.691791
C104	C	1.426768	0.111101	-0.191791
C105	C	0.952090	-0.424664	-1.024470
C106	C	1.452090	0.075336	-0.524470
C107	C	0.949358	-0.420762	-1.097698
C108	C	1.449358	0.079238	-0.597698
C109	C	1.033609	-0.540144	-1.106322
C110	C	1.533609	-0.040144	-0.606322
C111	C	1.036344	-0.544039	-1.033098
C112	C	1.536344	-0.044039	-0.533098
C113	C	0.995581	-0.486303	-0.992176
C114	C	1.495581	0.013697	-0.492176
N115	N	0.961993	-0.438746	-0.880788
N116	N	1.461993	0.061254	-0.380788
N117	N	0.998377	-0.490296	-0.917331
N118	N	1.498377	0.009704	-0.417331
C119	C	0.987131	-0.474307	-0.216547
C120	C	1.487131	0.025693	0.283453
C121	C	0.990114	-0.478499	-0.138621
C122	C	1.490114	0.021501	0.361379
H123	H	0.572497	-0.544437	-0.468381
H124	H	1.072497	-0.044437	0.031619
O125	O	1.078669	-0.603796	-1.001687
O126	O	1.578669	-0.103796	-0.501687
C127	C	1.127931	-0.557211	-0.959026
C128	C	1.627931	-0.057211	-0.459026
H129	H	1.134778	-0.485531	-0.978264
H130	H	1.634778	0.014469	-0.478264
H131	H	1.108470	-0.555976	-0.902499
H132	H	1.608470	-0.055976	-0.402499
C133	C	1.190371	-0.692859	-0.939169
C134	C	1.690371	-0.192859	-0.439169
C135	C	1.198785	-0.604823	-0.962801
C136	C	1.698785	-0.104823	-0.462801
H137	H	1.234077	-0.722229	-0.941494
H138	H	1.734077	-0.222229	-0.441494
H139	H	1.157182	-0.724245	-0.967908
H140	H	1.657182	-0.224245	-0.467908
H141	H	1.174151	-0.691817	-0.892065
H142	H	1.674151	-0.191817	-0.392065
H143	H	1.214996	-0.605866	-1.009906
H144	H	1.714996	-0.105866	-0.509906
H145	H	1.231979	-0.573438	-0.934069
H146	H	1.731979	-0.073438	-0.434069
H147	H	1.066795	-0.587151	-1.139649
H148	H	1.566795	-0.087151	-0.639649
H149	H	0.239777	-0.577321	-0.496732
H150	H	0.739777	-0.077321	0.003268
H151	H	1.088619	-0.960901	-0.299323
H152	H	1.588619	-0.460901	0.200677
O153	O	0.394815	-0.376127	-0.323249
O154	O	0.894815	0.123873	0.176751
C155	C	0.350658	-0.325312	-0.279397
C156	C	0.850658	0.174688	0.220603
H157	H	0.297522	-0.318032	-0.305768
H158	H	0.797522	0.181968	0.194232
H159	H	0.343362	-0.360789	-0.227280
H160	H	0.843362	0.139211	0.272720
C161	C	0.449322	-0.240656	-0.233888
C162	C	0.949322	0.259344	0.266112
C163	C	0.384061	-0.231708	-0.266279
C164	C	0.884061	0.268292	0.233721
H165	H	0.469927	-0.182918	-0.225793
H166	H	0.969927	0.317082	0.274207
H167	H	0.479072	-0.274893	-0.263429
H168	H	0.979072	0.225107	0.236571
H169	H	0.443233	-0.270223	-0.190461
H170	H	0.943233	0.229777	0.309539
H171	H	0.390153	-0.202152	-0.309710
H172	H	0.890153	0.297848	0.190290
H173	H	0.354313	-0.197464	-0.236745
H174	H	0.854313	0.302536	0.263255
H175	H	0.879715	-0.798825	-0.492004
H176	H	1.379715	-0.298825	0.007996
H177	H	0.913939	-0.370566	-1.123994
H178	H	1.413939	0.129434	-0.623994
H179	H	0.893580	-0.341885	-0.658471
H180	H	1.393580	0.158115	-0.158471
H181	H	0.871791	-0.968983	-0.499292
H182	H	1.371791	-0.468983	0.000708
O183	O	1.087564	-1.139172	-0.300107
O184	O	1.587564	-0.639172	0.199893
C185	C	1.046853	-1.193899	-0.255468
C186	C	1.546853	-0.693899	0.244532
H187	H	0.993118	-1.163146	-0.247583
H188	H	1.493118	-0.663146	0.252417
H189	H	1.040302	-1.263692	-0.280089
H190	H	1.540302	-0.763692	0.219911
C191	C	1.149818	-1.238715	-0.193786
C192	C	1.649818	-0.738715	0.306214
C193	C	1.083821	-1.200940	-0.184096
C194	C	1.583821	-0.700940	0.315904
H195	H	1.172622	-1.243063	-0.149761
H196	H	1.672622	-0.743063	0.350239
H197	H	1.177246	-1.201847	-0.223861
H198	H	1.677246	-0.701847	0.276139
H199	H	1.144350	-1.296872	-0.214305
H200	H	1.644350	-0.796872	0.285695
H201	H	1.089291	-1.142781	-0.163586
H202	H	1.589291	-0.642781	0.336414
H203	H	1.056395	-1.237799	-0.154015
H204	H	1.556395	-0.737799	0.345985
H205	H	0.255650	-0.378039	-0.324847
H206	H	0.755650	0.121961	0.175153
H207	H	0.918900	-0.377651	-0.991157
H208	H	1.418900	0.122349	-0.491157
O209	O	1.056184	-0.808861	-0.329116
O210	O	1.556184	-0.308861	0.170884
C211	C	1.020521	-0.755098	-0.279803
C212	C	1.520521	-0.255098	0.220197
H213	H	0.967104	-0.737094	-0.301675
H214	H	1.467104	-0.237094	0.198325
H215	H	1.013115	-0.793657	-0.229073
H216	H	1.513115	-0.293657	0.270927
C217	C	1.129335	-0.690716	-0.238055
C218	C	1.629335	-0.190716	0.261945
C219	C	1.063730	-0.668596	-0.264922
C220	C	1.563730	-0.168596	0.235078
H221	H	1.155989	-0.637359	-0.228873
H222	H	1.655989	-0.137359	0.271127
H223	H	1.153363	-0.726939	-0.271276
H224	H	1.653363	-0.226939	0.228724
H225	H	1.123154	-0.722850	-0.195783
H226	H	1.623154	-0.222850	0.304217
H227	H	1.069912	-0.636473	-0.307197
H228	H	1.569912	-0.136473	0.192803
H229	H	1.039704	-0.632365	-0.231708
H230	H	1.539704	-0.132365	0.268292
O231	O	0.583410	-0.336213	-0.288753
O232	O	1.083410	0.163787	0.211247
C233	C	0.635285	-0.290080	-0.248993
C234	C	1.135285	0.209920	0.251007
H235	H	0.685859	-0.329560	-0.250399
H236	H	1.185859	0.170440	0.249601
H237	H	0.645266	-0.220834	-0.271986
H238	H	1.145266	0.279166	0.228014
C239	C	0.548033	-0.231403	-0.170873
C240	C	1.048033	0.268597	0.329127
C241	C	0.610147	-0.279898	-0.172596
C242	C	1.110147	0.220102	0.327404
H243	H	0.532526	-0.225118	-0.123749
H244	H	1.032526	0.274882	0.376251
H245	H	0.513083	-0.262481	-0.197662
H246	H	1.013083	0.237519	0.302338
H247	H	0.556359	-0.173704	-0.190038
H248	H	1.056359	0.326296	0.309962
H249	H	0.601818	-0.337600	-0.153440
H250	H	1.101818	0.162400	0.346560
H251	H	0.645094	-0.248829	-0.145802
H252	H	1.145094	0.251171	0.354198
O253	O	0.377719	-0.592632	-0.510113
O254	O	0.877719	-0.092632	-0.010113
C255	C	0.420741	-0.541069	-0.554919
C256	C	0.920741	-0.041069	-0.054919
H257	H	0.401796	-0.469023	-0.555201
H258	H	0.901796	0.030977	-0.055201
H259	H	0.477197	-0.541905	-0.535453
H260	H	0.977197	-0.041905	-0.035453
C261	C	0.440333	-0.669423	-0.629430
C262	C	0.940333	-0.169423	-0.129430
C263	C	0.417061	-0.580937	-0.629781
C264	C	0.917061	-0.080937	-0.129781
H265	H	0.438066	-0.694017	-0.675608
H266	H	0.938066	-0.194017	-0.175608
H267	H	0.411351	-0.704164	-0.599243
H268	H	0.911351	-0.204164	-0.099243
H269	H	0.487378	-0.670108	-0.613205
H270	H	0.987378	-0.170108	-0.113205
H271	H	0.370014	-0.580254	-0.645997
H272	H	0.870014	-0.080254	-0.145997
H273	H	0.446035	-0.546197	-0.659973
H274	H	0.946035	-0.046197	-0.159973
H275	H	1.046440	-0.558465	-0.674125
H276	H	1.546440	-0.058465	-0.174125
O277	O	0.710470	-0.559923	-0.481608
O278	O	1.210470	-0.059923	0.018392
C279	C	0.751631	-0.622240	-0.446049
C280	C	1.251631	-0.122240	0.053951
H281	H	0.766094	-0.594072	-0.391991
H282	H	1.266094	-0.094072	0.108009
H283	H	0.720613	-0.687826	-0.440084
H284	H	1.220613	-0.187826	0.059916
C285	C	0.801192	-0.674363	-0.554681
C286	C	1.301192	-0.174363	-0.054681
C287	C	0.818961	-0.639763	-0.488288
C288	C	1.318961	-0.139763	0.011712
H289	H	0.842723	-0.685176	-0.580737
H290	H	1.342723	-0.185176	-0.080737
H291	H	0.773459	-0.632382	-0.578638
H292	H	1.273459	-0.132382	-0.078638
H293	H	0.775343	-0.729015	-0.549701
H294	H	1.275343	-0.229015	-0.049701
H295	H	0.844801	-0.585108	-0.493269
H296	H	1.344801	-0.085108	0.006731
H297	H	0.846699	-0.681736	-0.464332
H298	H	1.346699	-0.181736	0.035668
O299	O	0.881845	-0.325143	-0.796499
O300	O	1.381845	0.174857	-0.296499
C301	C	0.888158	-0.334089	-0.869902
C302	C	1.388158	0.165911	-0.369902
H303	H	0.940498	-0.365697	-0.883409
H304	H	1.440498	0.134303	-0.383409
H305	H	0.843540	-0.378700	-0.890989
H306	H	1.343540	0.121300	-0.390989
C307	C	0.820336	-0.202080	-0.886765
C308	C	1.320336	0.297920	-0.386765
C309	C	0.884624	-0.240895	-0.903355
C310	C	1.384624	0.259105	-0.403355
H311	H	0.818153	-0.144595	-0.907402
H312	H	1.318153	0.355405	-0.407402
H313	H	0.816080	-0.196054	-0.837312
H314	H	1.316080	0.303946	-0.337312
H315	H	0.783161	-0.239265	-0.904338
H316	H	1.283161	0.260735	-0.404338
H317	H	0.921796	-0.203716	-0.885774
H318	H	1.421796	0.296284	-0.385774
H319	H	0.888885	-0.246913	-0.952806
H320	H	1.388885	0.253087	-0.452806
H321	H	0.721194	-0.351675	-0.302129
H322	H	1.221194	0.148325	0.197871
H323	H	1.041476	-0.551385	-0.806959
H324	H	1.541476	-0.051385	-0.306959
H325	H	0.911790	-1.114279	-0.462392
H326	H	1.411790	-0.614279	0.037608
