data_functionalizedCrystal
_audit_creation_method	'MofGen! by Chris Wilmer'
_symmetry_space_group_name_H-M	'P1'
_symmetry_Int_Tables_number	1
_symmetry_cell_setting	triclinic
loop_
_symmetry_equiv_pos_as_xyz
  x,y,z
_cell_length_a	10.967874
_cell_length_b	10.967829
_cell_length_c	7.088929
_cell_angle_alpha	71.681627
_cell_angle_beta	84.223058
_cell_angle_gamma	82.165976
loop_
_atom_site_label
_atom_site_type_symbol
_atom_site_fract_x
_atom_site_fract_y
_atom_site_fract_z
O1	O	1.596289	0.236047	-0.762663
O2	O	1.242249	0.243669	-0.648536
O3	O	1.432203	0.053714	-0.648525
O4	O	1.406336	0.426003	-0.762674
O5	O	1.457589	0.028268	-0.330529
O6	O	1.267635	0.218224	-0.330540
O7	O	1.621676	0.210602	-0.444667
Cu8	Cu	1.446974	0.212090	-0.358568
Cu9	Cu	1.416951	0.242182	-0.734635
O10	O	1.431722	0.400558	-0.444678
C11	C	1.209698	0.228470	-0.473816
C12	C	1.074884	0.221074	-0.426965
C13	C	1.001629	0.230958	-0.570809
C14	C	0.862292	0.223313	-0.522390
C15	C	1.444932	-0.006767	-0.473807
C16	C	1.445024	-0.149071	-0.426959
C17	C	1.431915	-0.199327	-0.570807
C18	C	1.432010	-0.346405	-0.522392
C19	C	1.654226	0.225802	-0.619391
C20	C	1.789039	0.233199	-0.666254
C21	C	1.418993	0.461039	-0.619400
C22	C	1.418899	0.603344	-0.666260
N23	N	1.468099	0.190924	-0.094065
N24	N	1.395836	0.263337	-0.999137
H25	H	0.821858	0.209199	-0.363386
H26	H	1.420615	-0.133466	-0.729801
O27	O	1.021265	0.202886	-0.216494
H28	H	0.920201	0.199998	-0.211568
H29	H	1.320944	0.338378	-0.080837
O30	O	1.403930	-0.309444	-0.876892
H31	H	1.486186	-0.256301	-0.929689
H32	H	1.443298	-0.412261	-0.363383
O33	O	1.460003	-0.236294	-0.216345
H34	H	1.457744	-0.338130	-0.211374
H35	H	1.543004	0.115888	-0.012362
H36	H	0.829470	0.247330	-0.825264
O37	O	1.055179	0.249640	-0.781422
H38	H	1.156220	0.252692	-0.786396
