data_functionalizedCrystal
_audit_creation_method	'MofGen! by Chris Wilmer'
_symmetry_space_group_name_H-M	'P1'
_symmetry_Int_Tables_number	1
_symmetry_cell_setting	triclinic
loop_
_symmetry_equiv_pos_as_xyz
  x,y,z
_cell_length_a	8.634740
_cell_length_b	8.559649
_cell_length_c	9.730223
_cell_angle_alpha	90.000781
_cell_angle_beta	90.000022
_cell_angle_gamma	85.174486
loop_
_atom_site_label
_atom_site_type_symbol
_atom_site_fract_x
_atom_site_fract_y
_atom_site_fract_z
O1	O	1.985463	0.511622	-0.114272
O2	O	1.541592	0.468720	-0.114277
O3	O	1.802633	0.263590	-0.114273
O4	O	1.724422	0.716753	-0.114276
O5	O	1.802629	0.263595	0.114307
O6	O	1.541588	0.468726	0.114303
O7	O	1.985460	0.511628	0.114308
Zn8	Zn	1.763524	0.490178	0.150597
Zn9	Zn	1.763528	0.490170	-0.150566
O10	O	1.724419	0.716758	0.114304
C11	C	1.485291	0.459004	0.000013
C12	C	1.317539	0.430026	0.000011
C13	C	1.808558	0.204975	0.000015
C14	C	1.826201	0.030311	0.000007
C15	C	2.041761	0.521344	0.000015
C16	C	2.209512	0.550322	0.000008
C17	C	1.718493	0.775373	0.000013
C18	C	1.700851	0.950037	0.000012
N19	N	1.763532	0.490183	0.356134
N20	N	1.763533	0.490154	-0.356103
C21	C	1.879142	0.399392	0.428062
C22	C	1.879141	0.399372	0.571945
C23	C	1.647911	0.580949	0.571959
C24	C	1.647908	0.580959	0.428079
C25	C	2.012645	0.294565	0.428054
C26	C	2.012644	0.294545	0.571937
H27	H	1.281691	0.304865	-0.000024
C28	C	1.257943	0.719422	0.000010
N29	N	1.294422	0.846786	0.000009
C30	C	1.537631	0.037708	0.000002
N31	N	1.414691	0.103751	-0.000008
H32	H	1.947023	-0.034594	0.000020
C33	C	2.154810	0.367653	0.367761
N34	N	2.261889	0.422705	0.322347
C35	C	1.520829	0.680974	0.348963
N36	N	1.425148	0.756365	0.289374
H37	H	1.553772	0.654855	0.630552
H38	H	2.002058	0.170349	0.389001
C39	C	1.982393	0.133555	0.632219
N40	N	1.959597	0.012302	0.677624
C41	C	2.165380	0.353724	0.624701
N42	N	2.280396	0.398341	0.664442
