data_functionalizedCrystal
_audit_creation_method	'MofGen! by Chris Wilmer'
_symmetry_space_group_name_H-M	'P1'
_symmetry_Int_Tables_number	1
_symmetry_cell_setting	triclinic
loop_
_symmetry_equiv_pos_as_xyz
  x,y,z
_cell_length_a	14.044190
_cell_length_b	13.339070
_cell_length_c	11.804365
_cell_angle_alpha	105.124870
_cell_angle_beta	102.923601
_cell_angle_gamma	75.589465
loop_
_atom_site_label
_atom_site_type_symbol
_atom_site_fract_x
_atom_site_fract_y
_atom_site_fract_z
O1	O	0.472642	-1.405403	-0.099125
O2	O	0.408755	-1.105106	-0.099111
O3	O	0.301531	-1.250739	-0.099094
O4	O	0.579866	-1.259771	-0.099141
O5	O	0.329719	-1.212396	0.098957
O6	O	0.436943	-1.066763	0.098941
O7	O	0.500831	-1.367060	0.098927
Cu8	Cu	0.471461	-1.213411	0.117017
Cu9	Cu	0.438125	-1.258756	-0.117201
O10	O	0.608055	-1.221428	0.098910
C11	C	0.412057	-1.047271	-0.000083
C12	C	0.379889	-0.932064	-0.000076
C13	C	0.279273	-1.227620	-0.000065
C14	C	0.170952	-1.215844	-0.000054
C15	C	0.497528	-1.424896	-0.000104
C16	C	0.529695	-1.540105	-0.000118
C17	C	-0.063042	-1.277830	-0.000103
C18	C	-0.027367	-1.194344	-0.000091
C19	C	0.082988	-1.206310	-0.000070
C20	C	-0.173407	-1.265865	-0.000124
C21	C	0.630312	-1.244547	-0.000122
C22	C	0.738632	-1.256325	-0.000141
N23	N	0.494909	-1.181525	0.281754
C24	C	0.630009	-0.589861	-0.000137
C25	C	0.660235	-0.698104	-0.000147
C26	C	0.590151	-0.756600	-0.000129
C27	C	0.489836	-0.706841	-0.000102
C28	C	0.459606	-0.598589	-0.000101
C29	C	0.419748	-0.765328	-0.000093
C30	C	0.319433	-0.715569	-0.000065
C31	C	0.289208	-0.607328	-0.000064
C32	C	0.359292	-0.548833	-0.000082
C33	C	0.449978	-0.873580	-0.000093
C34	C	0.279575	-0.882308	-0.000057
C35	C	0.249349	-0.774064	-0.000047
N36	N	0.414671	-1.290649	-0.281939
C37	C	0.358344	-1.367217	0.655724
C38	C	0.340601	-1.391337	0.531065
C39	C	0.379176	-1.338886	0.468731
C40	C	0.435498	-1.262311	0.531069
C41	C	0.453250	-1.238195	0.655740
C42	C	0.474082	-1.209863	0.468747
C43	C	0.530403	-1.133289	0.531085
C44	C	0.548151	-1.109175	0.655744
C45	C	0.509576	-1.161627	0.718077
C46	C	0.456330	-1.233980	0.344076
C47	C	0.551235	-1.104957	0.344092
C48	C	0.568978	-1.080837	0.468751
H49	H	-0.079705	-1.113882	-0.000094
Cl50	Cl	0.017760	-1.402047	-0.000091
H51	H	0.334686	-0.460692	-0.000074
Cl52	Cl	0.163092	-0.544785	-0.000070
Cl53	Cl	0.576084	-0.936119	-0.000126
Cl54	Cl	0.628152	-0.892678	-0.000137
H55	H	0.741910	-0.738612	-0.000179
Cl56	Cl	0.718099	-0.516325	-0.000179
H57	H	0.326948	-1.409922	0.706484
H58	H	0.167669	-0.733538	-0.000035
Cl59	Cl	0.191462	-0.955838	-0.000044
H60	H	0.410473	-1.296327	0.293332
Cl61	Cl	0.356867	-1.369206	0.312015
Cl62	Cl	0.269802	-1.487597	0.452701
H63	H	0.524019	-1.141986	0.819585
H64	H	0.594021	-1.046832	0.706499
H65	H	0.614837	-1.018488	0.519521
Cl66	Cl	0.599738	-1.039019	0.265737
