data_functionalizedCrystal
_audit_creation_method	'MofGen! by Chris Wilmer'
_symmetry_space_group_name_H-M	'P1'
_symmetry_Int_Tables_number	1
_symmetry_cell_setting	triclinic
loop_
_symmetry_equiv_pos_as_xyz
  x,y,z
_cell_length_a	10.489711
_cell_length_b	27.732048
_cell_length_c	8.965430
_cell_angle_alpha	89.995481
_cell_angle_beta	89.994616
_cell_angle_gamma	83.584832
loop_
_atom_site_label
_atom_site_type_symbol
_atom_site_fract_x
_atom_site_fract_y
_atom_site_fract_z
O1	O	1.691081	0.068119	-0.124111
O2	O	1.319599	0.074535	-0.124104
O3	O	1.516878	0.001002	-0.124080
O4	O	1.493803	0.141651	-0.124136
O5	O	1.516861	0.001007	0.123999
O6	O	1.319582	0.074539	0.123975
O7	O	1.691065	0.068124	0.123968
Cu8	Cu	1.505322	0.071332	0.146623
Cu9	Cu	1.505342	0.071326	-0.146759
O10	O	1.493786	0.141656	0.123943
C11	C	1.272080	0.074055	-0.000063
C12	C	1.130512	0.072615	-0.000059
C13	C	0.946181	0.116835	-0.000094
C14	C	1.039306	0.094744	-0.122399
C15	C	1.039263	0.094737	0.122187
C16	C	0.971412	0.047933	-0.122496
C17	C	0.971360	0.047932	0.122200
C18	C	1.064458	0.025807	-0.000134
C19	C	1.516385	-0.017005	-0.000036
C20	C	1.514926	-0.070669	-0.000024
C21	C	1.622323	-0.408811	-0.000102
C22	C	1.616911	-0.610504	-0.000123
O23	O	1.715118	-0.641144	-0.000190
N24	N	1.499933	-0.630362	-0.000119
C25	C	1.384300	-0.599792	-0.000120
O26	O	1.284679	-0.621310	-0.000133
C27	C	1.389713	-0.398100	-0.000110
C28	C	1.506698	-0.378245	-0.000099
C29	C	1.739299	-0.388956	-0.000093
C30	C	1.740651	-0.338536	-0.000079
C31	C	1.625026	-0.307970	-0.000076
C32	C	1.508050	-0.327825	-0.000086
C33	C	1.274081	-0.367531	-0.000122
C34	C	1.275444	-0.317105	-0.000123
C35	C	1.392430	-0.297251	-0.000112
C36	C	1.393777	-0.246839	-0.000069
N37	N	1.510755	-0.226982	-0.000072
C38	C	1.626380	-0.257547	-0.000076
C39	C	1.381466	-0.705684	-0.000123
C40	C	1.380113	-0.756107	-0.000123
C41	C	1.612725	-0.766816	-0.000128
C42	C	1.614077	-0.716392	-0.000118
C43	C	1.498444	-0.685827	-0.000126
C44	C	1.629210	-0.151660	-0.000047
C45	C	1.630551	-0.101235	-0.000027
C46	C	1.397940	-0.090531	-0.000030
C47	C	1.396597	-0.140951	-0.000041
C48	C	1.512243	-0.171516	-0.000055
O49	O	1.295623	-0.216170	-0.000018
O50	O	1.725987	-0.236020	-0.000096
C51	C	1.620971	-0.459231	-0.000116
C52	C	1.503995	-0.479086	-0.000126
C53	C	1.388371	-0.448521	-0.000122
C54	C	1.502642	-0.529509	-0.000125
C55	C	1.618266	-0.560075	-0.000129
C56	C	1.735244	-0.540217	-0.000133
C57	C	1.736596	-0.489797	-0.000119
C58	C	1.271393	-0.468378	-0.000118
C59	C	1.270050	-0.518799	-0.000130
C60	C	1.385675	-0.549364	-0.000133
C61	C	1.738584	0.068603	-0.000077
C62	C	1.880152	0.070043	-0.000090
C63	C	1.494279	0.159663	-0.000104
C64	C	1.495737	0.213327	-0.000126
N65	N	1.505318	0.071336	0.352972
N66	N	1.505356	0.071319	-0.353108
C67	C	1.414055	0.105331	0.450266
C68	C	1.529124	0.115106	0.549673
C69	C	1.390298	0.061565	0.549692
C70	C	1.620444	0.081133	0.450190
C71	C	1.481542	0.027573	0.450200
C72	C	1.596694	0.037330	0.549562
H73	H	1.725819	-0.085072	-0.000014
C74	C	1.735803	0.134578	0.304629
C75	C	1.751796	0.092373	0.391502
H76	H	1.816891	0.141527	0.268419
H77	H	1.680967	0.129906	0.222835
H78	H	1.698724	0.160925	0.363727
H79	H	1.788866	0.066025	0.332400
H80	H	1.806652	0.097042	0.473307
H81	H	1.673972	0.008572	0.592887
C82	C	0.964454	0.045803	0.389772
C83	C	0.930628	0.021230	0.261810
H84	H	0.939296	0.029322	0.475968
H85	H	1.054662	0.046794	0.391276
H86	H	0.922324	0.077956	0.388864
H87	H	0.972766	-0.010922	0.262712
H88	H	0.840403	0.020233	0.260306
C89	C	1.750560	-0.665902	-0.127649
C90	C	1.742667	-0.694568	-0.000120
H91	H	1.829947	-0.652429	-0.127646
H92	H	1.745204	-0.685349	-0.214140
H93	H	1.681891	-0.640480	-0.127635
H94	H	1.811331	-0.719992	-0.000140
H95	H	1.748036	-0.675120	0.086393
H96	H	1.461370	-0.009418	0.406472
C97	C	1.164972	0.090009	-0.346857
C98	C	1.079985	0.121466	-0.262007
H99	H	1.190073	0.106508	-0.433045
H100	H	1.238628	0.079493	-0.288852
H101	H	1.123839	0.062695	-0.376241
H102	H	1.121121	0.148778	-0.232614
H103	H	1.006316	0.131989	-0.320023
H104	H	0.941480	0.028151	-0.226016
H105	H	1.115608	-0.012687	-0.000181
H106	H	0.894801	0.155294	-0.000231
C107	C	1.019525	0.169135	0.261507
C108	C	1.079866	0.121474	0.261781
H109	H	1.044583	0.185641	0.347688
H110	H	1.043947	0.185439	0.174657
H111	H	0.929120	0.168645	0.262018
H112	H	1.170272	0.121963	0.261260
H113	H	1.055452	0.105165	0.348655
H114	H	1.723379	-0.176540	-0.000064
H115	H	1.293011	0.053308	0.593403
C116	C	1.248017	-0.642771	0.127403
C117	C	1.254354	-0.672088	-0.000122
H118	H	1.169546	-0.622030	0.127399
H119	H	1.252322	-0.662666	0.213897
H120	H	1.317877	-0.623727	0.127382
H121	H	1.184499	-0.691134	-0.000097
H122	H	1.250037	-0.652190	-0.086639
C123	C	1.970434	-0.354201	-0.000101
C124	C	1.869247	-0.316716	-0.000087
H125	H	2.049826	-0.340732	-0.000118
H126	H	1.965059	-0.373645	0.086405
H127	H	1.965049	-0.373642	-0.086617
H128	H	1.874625	-0.297277	0.086436
H129	H	1.874624	-0.297264	-0.086601
H130	H	1.833460	-0.413838	-0.000101
H131	H	1.706871	-0.791711	-0.000130
C132	C	1.150326	-0.740445	-0.000130
C133	C	1.251519	-0.777927	-0.000123
H134	H	1.070936	-0.753915	-0.000146
H135	H	1.155688	-0.721006	0.086378
H136	H	1.155718	-0.720998	-0.086644
H137	H	1.246132	-0.797372	0.086397
H138	H	1.246155	-0.797375	-0.086640
H139	H	1.178819	-0.383687	-0.000140
H140	H	1.181280	-0.292221	-0.000133
H141	H	1.301338	-0.157118	-0.000009
H142	H	1.303801	-0.065635	-0.000022
H143	H	1.831858	-0.473636	-0.000110
C144	C	1.668483	0.159788	0.694571
C145	C	1.556306	0.165054	0.608683
H146	H	1.685257	0.190625	0.730991
H147	H	1.657887	0.138774	0.776218
H148	H	1.738387	0.146399	0.634740
H149	H	1.486400	0.178439	0.668517
H150	H	1.566893	0.186075	0.527024
H151	H	1.829390	-0.565113	-0.000129
C152	C	1.040254	-0.503136	-0.000151
C153	C	1.141447	-0.540619	-0.000147
H154	H	0.960865	-0.516607	-0.000182
H155	H	1.045610	-0.483700	0.086364
H156	H	1.045652	-0.483686	-0.086658
H157	H	1.136054	-0.560067	0.086365
H158	H	1.136089	-0.560063	-0.086672
H159	H	1.177235	-0.443496	-0.000119
C160	C	1.335210	0.189964	0.441602
C161	C	1.309968	0.144173	0.391385
H162	H	1.270959	0.213944	0.405239
H163	H	1.335007	0.190418	0.547535
H164	H	1.416777	0.196589	0.406064
H165	H	1.228405	0.137547	0.426932
H166	H	1.310158	0.143718	0.285430
