data_functionalizedCrystal
_audit_creation_method	'MofGen! by Chris Wilmer'
_symmetry_space_group_name_H-M	'P1'
_symmetry_Int_Tables_number	1
_symmetry_cell_setting	triclinic
loop_
_symmetry_equiv_pos_as_xyz
  x,y,z
_cell_length_a	27.732048
_cell_length_b	15.995300
_cell_length_c	15.072220
_cell_angle_alpha	89.985917
_cell_angle_beta	89.993421
_cell_angle_gamma	96.942769
loop_
_atom_site_label
_atom_site_type_symbol
_atom_site_fract_x
_atom_site_fract_y
_atom_site_fract_z
O1	O	-0.062186	1.110217	-0.073799
O2	O	-0.069905	0.866337	-0.073792
O3	O	0.004320	0.995851	-0.073808
O4	O	-0.136410	0.980703	-0.073784
O5	O	0.004316	0.995820	0.073757
O6	O	-0.069909	0.866305	0.073773
O7	O	-0.062190	1.110186	0.073766
Zn8	Zn	-0.066050	0.988240	0.097198
Zn9	Zn	-0.066045	0.988282	-0.097225
O10	O	-0.136414	0.980671	0.073781
C11	C	-0.069592	0.835129	-0.000009
C12	C	-0.068648	0.742189	-0.000007
C13	C	-0.066905	0.572028	-0.000014
C14	C	-0.119754	0.523879	-0.000003
C15	C	-0.118790	0.427203	-0.000340
C16	C	-0.065189	0.404494	-0.000020
C17	C	-0.038967	0.445984	-0.084125
C18	C	-0.040304	0.542600	-0.084193
C19	C	-0.039526	0.542853	0.083621
C20	C	-0.039531	0.445909	0.084725
C21	C	-0.064217	0.309811	-0.000026
C22	C	-0.067876	0.666711	-0.000014
C23	C	-0.154420	0.981005	0.000002
C24	C	-0.208079	0.981962	0.000010
C25	C	-0.546598	0.911456	-0.000030
C26	C	-0.748272	0.915008	-0.000041
O27	O	-0.779257	0.850535	-0.000078
N28	N	-0.767719	0.991805	-0.000042
C29	C	-0.736744	1.067719	-0.000046
O30	O	-0.757912	1.133122	-0.000056
C31	C	-0.535070	1.064166	-0.000042
C32	C	-0.515626	0.987364	-0.000032
C33	C	-0.527153	0.834660	-0.000021
C34	C	-0.476738	0.833773	-0.000014
C35	C	-0.445766	0.909681	-0.000015
C36	C	-0.465211	0.986477	-0.000024
C37	C	-0.504096	1.140079	-0.000052
C38	C	-0.453675	1.139184	-0.000053
C39	C	-0.434231	1.062382	-0.000043
C40	C	-0.383824	1.061498	-0.000018
N41	N	-0.364377	0.984701	-0.000017
C42	C	-0.395348	0.908792	-0.000016
C43	C	-0.842626	1.069580	-0.000047
C44	C	-0.893044	1.070468	-0.000046
C45	C	-0.904569	0.917757	-0.000043
C46	C	-0.854150	0.916869	-0.000037
C47	C	-0.823179	0.992783	-0.000046
C48	C	-0.289471	0.906934	0.000001
C49	C	-0.239050	0.906054	0.000012
C50	C	-0.227530	1.058765	0.000004
C51	C	-0.277946	1.059646	-0.000003
C52	C	-0.308916	0.983724	-0.000007
O53	O	-0.352811	1.125936	0.000009
O54	O	-0.374170	0.843400	-0.000025
C55	C	-0.597013	0.912343	-0.000038
C56	C	-0.616458	0.989139	-0.000047
C57	C	-0.585487	1.065047	-0.000048
C58	C	-0.666876	0.990027	-0.000046
C59	C	-0.697847	0.914119	-0.000045
C60	C	-0.678400	0.837322	-0.000044
C61	C	-0.627985	0.836435	-0.000036
C62	C	-0.604933	1.141844	-0.000049
C63	C	-0.655350	1.142725	-0.000056
C64	C	-0.686321	1.066817	-0.000054
C65	C	0.022326	0.995518	-0.000030
C66	C	0.075985	0.994560	-0.000045
C67	C	-0.062502	1.141393	-0.000019
C68	C	-0.063446	1.234333	-0.000027
N69	N	-0.066053	0.988218	0.229887
N70	N	-0.066037	0.988311	-0.229914
C71	C	-0.066043	0.988280	0.589089
C72	C	-0.105626	0.918750	0.551490
C73	C	-0.105770	0.918907	0.448664
C74	C	-0.066048	0.988249	0.410885
C75	C	-0.077054	1.075473	0.448176
C76	C	-0.077336	1.075083	0.551034
C77	C	-0.015336	0.971367	0.551181
C78	C	-0.015674	0.969358	0.448318
C79	C	-0.066050	0.988236	0.310171
C80	C	-0.066042	0.988299	0.689802
H81	H	-0.314681	0.845111	-0.000003
H82	H	-0.671176	1.205271	-0.000057
H83	H	-0.056941	0.417380	-0.146946
H84	H	-0.293778	1.122184	0.000002
O85	O	-0.155191	0.932758	0.585719
H86	H	-0.179277	0.942843	0.528890
O87	O	-0.039885	1.145618	0.415762
H88	H	-0.013110	1.118992	0.372622
O89	O	-0.125481	1.095846	0.414056
H90	H	-0.132857	1.157661	0.440879
O91	O	-0.455771	0.750933	-0.000007
H92	H	-0.433069	0.746886	-0.060148
H93	H	-0.428460	1.201004	-0.000065
H94	H	-0.058680	0.418308	0.146947
H95	H	-0.143399	0.929639	0.424057
H96	H	-0.552366	0.772843	-0.000023
O97	O	-0.062573	0.569696	0.168089
H98	H	-0.042614	0.548387	0.226076
O99	O	0.023700	1.038506	0.583393
H100	H	0.015386	1.101146	0.560485
H101	H	-0.114316	1.090087	0.575021
O102	O	-0.001319	0.888974	0.585568
H103	H	-0.030342	0.859158	0.630066
O104	O	-0.218078	0.823215	0.000020
H105	H	-0.248088	0.770583	0.000011
H106	H	-0.059199	0.560688	-0.147295
H107	H	-0.000452	0.431075	0.090045
O108	O	-0.194122	1.140636	0.000004
H109	H	-0.155797	1.127109	0.000002
H110	H	-0.000561	0.575138	0.084424
O111	O	-0.809223	1.151463	-0.000039
H112	H	-0.831222	1.205006	-0.000027
O113	O	-0.040605	1.145633	0.583988
H114	H	-0.022722	1.179882	0.526455
O115	O	-0.833178	0.834035	-0.000034
H116	H	-0.863190	0.781405	-0.000037
O117	O	0.025169	1.032162	0.414272
H118	H	0.026345	1.029010	0.340751
O119	O	-0.004607	0.884366	0.416052
H120	H	-0.034852	0.855693	0.373525
O121	O	-0.571532	1.223721	-0.000048
H122	H	-0.548292	1.226953	0.060099
O123	O	-0.937977	0.835881	-0.000049
H124	H	-0.976301	0.849409	-0.000058
H125	H	0.000418	0.432395	-0.087023
O126	O	-0.146085	0.389119	0.079497
H127	H	-0.160096	0.439744	0.118694
O128	O	-0.147898	0.547994	0.079865
H129	H	-0.124522	0.594558	0.120407
O130	O	-0.914014	1.153304	-0.000057
H131	H	-0.884003	1.205933	-0.000070
O132	O	-0.525061	1.222916	-0.000085
H133	H	-0.495047	1.275542	-0.000104
H134	H	-0.140675	0.543229	-0.060218
O135	O	-0.146004	0.389958	-0.080605
H136	H	-0.159896	0.441010	-0.119342
H137	H	-0.612158	0.773895	-0.000028
O138	O	-0.711809	0.755446	-0.000044
H139	H	-0.750133	0.768976	-0.000057
O140	O	-0.097096	0.832995	0.415259
H141	H	-0.092761	0.790961	0.472571
O142	O	-0.097091	0.832559	0.584304
H143	H	-0.060738	0.818554	0.562217
H144	H	-0.001496	0.575376	-0.087793
