data_functionalizedCrystal
_audit_creation_method	'MofGen! by Chris Wilmer'
_symmetry_space_group_name_H-M	'P1'
_symmetry_Int_Tables_number	1
_symmetry_cell_setting	triclinic
loop_
_symmetry_equiv_pos_as_xyz
  x,y,z
_cell_length_a	19.077105
_cell_length_b	19.077068
_cell_length_c	17.077404
_cell_angle_alpha	87.715807
_cell_angle_beta	92.304871
_cell_angle_gamma	90.115316
loop_
_atom_site_label
_atom_site_type_symbol
_atom_site_fract_x
_atom_site_fract_y
_atom_site_fract_z
Zn1	Zn	1.062898	-0.323111	0.505866
Zn2	Zn	1.396232	0.010222	0.839199
Zn3	Zn	1.729565	0.343556	1.172532
Zn4	Zn	1.058108	-0.440587	0.379640
Zn5	Zn	1.391441	-0.107254	0.712973
Zn6	Zn	1.724775	0.226079	1.046307
Zn7	Zn	0.945415	-0.318370	0.369144
Zn8	Zn	1.278749	0.014963	0.702477
Zn9	Zn	1.612082	0.348297	1.035810
Zn10	Zn	0.940633	-0.435852	0.505394
Zn11	Zn	1.273967	-0.102519	0.838727
Zn12	Zn	1.607300	0.230814	1.172061
O13	O	1.001764	-0.379480	0.440011
O14	O	1.335097	-0.046147	0.773344
O15	O	1.668430	0.287186	1.106677
O16	O	1.160594	-0.342660	0.493712
O17	O	1.493927	-0.009327	0.827045
O18	O	1.827260	0.324007	1.160378
O19	O	1.043156	-0.424372	0.268400
O20	O	1.376489	-0.091039	0.601734
O21	O	1.709822	0.242294	0.935067
O22	O	0.965006	-0.220668	0.383085
O23	O	1.298339	0.112665	0.716418
O24	O	1.631672	0.445999	1.049751
O25	O	1.157074	-0.428969	0.400974
O26	O	1.490407	-0.095636	0.734308
O27	O	1.823741	0.237697	1.067641
O28	O	1.051320	-0.224151	0.483534
O29	O	1.384653	0.109182	0.816867
O30	O	1.717987	0.442516	1.150200
O31	O	0.960361	-0.334580	0.260689
O32	O	1.293694	-0.001247	0.594022
O33	O	1.627027	0.332087	0.927355
O34	O	0.846450	-0.329989	0.382627
O35	O	1.179784	0.003345	0.715961
O36	O	1.513117	0.336678	1.049294
O37	O	0.956856	-0.420899	0.615304
O38	O	1.290189	-0.087566	0.948637
O39	O	1.623522	0.245767	1.281970
O40	O	0.842937	-0.416303	0.482730
O41	O	1.176271	-0.082969	0.816063
O42	O	1.509604	0.250364	1.149397
O43	O	1.046683	-0.338069	0.615650
O44	O	1.380017	-0.004735	0.948984
O45	O	1.713350	0.328598	1.282317
O46	O	1.038519	-0.538290	0.400517
O47	O	1.371852	-0.204957	0.733850
O48	O	1.705185	0.128377	1.067184
O49	O	0.952211	-0.534811	0.492908
O50	O	1.285544	-0.201478	0.826241
O51	O	1.618877	0.131855	1.159575
C52	C	0.819198	-0.372118	0.431489
C53	C	1.152531	-0.038785	0.764822
C54	C	1.485864	0.294549	1.098156
C55	C	0.741095	-0.368985	0.427863
C56	C	1.074428	-0.035652	0.761196
C57	C	1.407761	0.297681	1.094529
C58	C	0.994345	-0.562048	0.447818
C59	C	1.327678	-0.228714	0.781152
C60	C	1.661012	0.104619	1.114485
C61	C	0.991236	-0.640153	0.451188
C62	C	1.324569	-0.306820	0.784521
C63	C	1.657902	0.026513	1.117854
C64	C	0.702588	-0.412520	0.478201
C65	C	1.035921	-0.079187	0.811534
C66	C	1.369255	0.254146	1.144868
C67	C	0.629202	-0.409567	0.474797
C68	C	0.962535	-0.076234	0.808130
C69	C	1.295869	0.257099	1.141464
C70	C	0.594324	-0.363083	0.421050
C71	C	0.927657	-0.029750	0.754384
C72	C	1.260991	0.303584	1.087717
C73	C	0.632836	-0.319543	0.370710
C74	C	0.966169	0.013790	0.704043
C75	C	1.299502	0.347123	1.037376
C76	C	0.706220	-0.322493	0.374118
C77	C	1.039554	0.010840	0.707451
C78	C	1.372887	0.344174	1.040785
C79	C	0.375042	-0.349431	0.405280
C80	C	0.708375	-0.016098	0.738613
C81	C	1.041709	0.317235	1.071947
C82	C	0.301652	-0.346487	0.401874
C83	C	0.634985	-0.013153	0.735207
C84	C	0.968318	0.320180	1.068540
C85	C	0.298023	-0.436510	0.505963
C86	C	0.631357	-0.103177	0.839296
C87	C	0.964690	0.230156	1.172629
C88	C	0.371409	-0.439459	0.509363
C89	C	0.704743	-0.106125	0.842696
C90	C	1.038076	0.227208	1.176030
C91	C	0.409915	-0.395917	0.459025
C92	C	0.743248	-0.062583	0.792359
C93	C	1.076582	0.270750	1.125692
N94	N	0.519312	-0.360065	0.417568
N95	N	0.852645	-0.026732	0.750901
N96	N	1.185978	0.306601	1.084235
N97	N	0.484926	-0.398931	0.462512
N98	N	0.818259	-0.065598	0.795845
N99	N	1.151593	0.267735	1.129179
C100	C	1.034746	-0.678637	0.404711
C101	C	1.368079	-0.345304	0.738044
C102	C	1.701412	-0.011970	1.071377
C103	C	1.031825	-0.752026	0.407885
C104	C	1.365159	-0.418692	0.741218
C105	C	1.698492	-0.085359	1.074551
C106	C	0.985391	-0.786929	0.457532
C107	C	1.318724	-0.453596	0.790865
C108	C	1.652057	-0.120263	1.124198
C109	C	0.941879	-0.748441	0.504014
C110	C	1.275212	-0.415107	0.837347
C111	C	1.608546	-0.081774	1.170680
C112	C	0.944803	-0.675053	0.500843
C113	C	1.278137	-0.341720	0.834177
C114	C	1.611470	-0.008387	1.167510
C115	C	0.971825	-1.006222	0.472170
C116	C	1.305158	-0.672888	0.805504
C117	C	1.638492	-0.339555	1.138837
C118	C	0.968902	-1.079614	0.475335
C119	C	1.302236	-0.746281	0.808669
C120	C	1.635569	-0.412948	1.142002
C121	C	1.058850	-1.083194	0.379207
C122	C	1.392183	-0.749861	0.712540
C123	C	1.725517	-0.416527	1.045874
C124	C	1.061767	-1.009805	0.376038
C125	C	1.395101	-0.676472	0.709371
C126	C	1.728434	-0.343139	1.042704
C127	C	1.018258	-0.971323	0.422523
C128	C	1.351592	-0.637990	0.755856
C129	C	1.684925	-0.304656	1.089189
N130	N	0.982403	-0.861944	0.460775
N131	N	1.315736	-0.528611	0.794108
N132	N	1.649070	-0.195278	1.127442
N133	N	1.021250	-0.896310	0.419283
N134	N	1.354584	-0.562976	0.752616
N135	N	1.687917	-0.229643	1.085949
C136	C	1.185043	-0.386872	0.448566
C137	C	1.518376	-0.053538	0.781900
C138	C	1.851709	0.279795	1.115233
C139	C	1.263145	-0.390021	0.452212
C140	C	1.596479	-0.056688	0.785546
C141	C	1.929812	0.276645	1.118879
C142	C	1.001770	-0.379485	0.644756
C143	C	1.335104	-0.046151	0.978089
C144	C	1.668437	0.287182	1.311422
C145	C	1.001773	-0.379487	0.732006
C146	C	1.335106	-0.046153	1.065339
C147	C	1.668440	0.287180	1.398672
C148	C	1.009231	-0.196201	0.432191
C149	C	1.342564	0.137133	0.765524
C150	C	1.675897	0.470466	1.098858
C151	C	1.012413	-0.118098	0.428859
C152	C	1.345746	0.215236	0.762192
C153	C	1.679079	0.548569	1.095525
C154	C	1.048540	-0.336364	0.773177
C155	C	1.381874	-0.003031	1.106511
C156	C	1.715207	0.330303	1.439844
C157	C	1.048535	-0.336363	0.855158
C158	C	1.381868	-0.003030	1.188491
C159	C	1.715201	0.330304	1.521824
C160	C	1.001764	-0.379489	0.895965
C161	C	1.335098	-0.046155	1.229298
C162	C	1.668431	0.287178	1.562631
C163	C	0.954992	-0.422613	0.854787
C164	C	1.288325	-0.089280	1.188120
C165	C	1.621659	0.244054	1.521454
C166	C	0.954995	-0.422610	0.772808
C167	C	1.288328	-0.089277	1.106141
C168	C	1.621662	0.244057	1.439475
C169	C	0.954990	-0.422618	1.025657
C170	C	1.288324	-0.089284	1.358990
C171	C	1.621657	0.244049	1.692324
C172	C	0.954988	-0.422622	1.107642
C173	C	1.288321	-0.089288	1.440975
C174	C	1.621655	0.244045	1.774308
C175	C	1.048530	-0.336370	1.108007
C176	C	1.381863	-0.003037	1.441340
C177	C	1.715197	0.330296	1.774673
C178	C	1.048533	-0.336367	1.026028
C179	C	1.381866	-0.003034	1.359361
C180	C	1.715200	0.330299	1.692694
C181	C	1.001761	-0.379493	0.984856
C182	C	1.335095	-0.046160	1.318189
C183	C	1.668428	0.287174	1.651522
C184	C	1.001753	-0.379494	1.236063
C185	C	1.335086	-0.046160	1.569396
C186	C	1.668420	0.287173	1.902730
C187	C	1.001755	-0.379499	1.148814
C188	C	1.335089	-0.046166	1.482147
C189	C	1.668422	0.287168	1.815480
H190	H	0.730980	-0.450375	0.521965
H191	H	1.064314	-0.117042	0.855298
H192	H	1.397647	0.216291	1.188632
H193	H	0.266664	-0.471959	0.546946
H194	H	0.599998	-0.138626	0.880279
H195	H	0.933331	0.194708	1.213612
Br196	Br	0.891507	-0.481143	1.163022
Br197	Br	1.224840	-0.147810	1.496356
Br198	Br	1.558173	0.185524	1.829689
H199	H	1.086628	-0.301248	0.739958
H200	H	1.419962	0.032085	1.073292
H201	H	1.753295	0.365418	1.406625
Br202	Br	1.097761	-0.631275	0.337322
Br203	Br	1.431094	-0.297941	0.670655
Br204	Br	1.764427	0.035392	1.003988
H205	H	0.597853	-0.445019	0.515787
H206	H	0.931186	-0.111686	0.849121
H207	H	1.264520	0.221648	1.182454
Br208	Br	0.418739	-0.502551	0.582303
Br209	Br	0.752072	-0.169218	0.915637
Br210	Br	1.085406	0.164115	1.248970
Br211	Br	0.254317	-0.283404	0.328919
Br212	Br	0.587650	0.049930	0.662252
Br213	Br	0.920984	0.383263	0.995585
H214	H	1.099578	-0.981388	0.335611
H215	H	1.432911	-0.648055	0.668944
H216	H	1.766245	-0.314722	1.002278
H217	H	1.086612	-0.301255	1.141533
H218	H	1.419945	0.032079	1.474866
H219	H	1.753279	0.365412	1.808199
H220	H	1.094274	-1.114534	0.341363
H221	H	1.427607	-0.781201	0.674696
H222	H	1.760940	-0.447867	1.008029
Br223	Br	0.878866	-0.795809	0.571400
Br224	Br	1.212199	-0.462476	0.904733
Br225	Br	1.545532	-0.129143	1.238066
Br226	Br	0.427290	-0.290334	0.336968
Br227	Br	0.760624	0.042999	0.670301
Br228	Br	1.093957	0.376333	1.003635
Br229	Br	0.912777	-0.954005	0.535258
Br230	Br	1.246110	-0.620672	0.868591
Br231	Br	1.579444	-0.287338	1.201925
Br232	Br	1.112039	-0.277871	0.911034
Br233	Br	1.445372	0.055463	1.244367
Br234	Br	1.778706	0.388796	1.577701
H235	H	0.931098	-1.108031	0.515778
H236	H	1.264432	-0.774698	0.849111
H237	H	1.597765	-0.441364	1.182445
H238	H	0.604432	-0.281691	0.326951
H239	H	0.937766	0.051642	0.660285
H240	H	1.271099	0.384975	0.993618
H241	H	0.909374	-0.643721	0.538691
H242	H	1.242707	-0.310387	0.872024
H243	H	1.576041	0.022946	1.205357
H244	H	0.737572	-0.287038	0.333131
H245	H	1.070905	0.046295	0.666464
H246	H	1.404239	0.379628	0.999798
H247	H	0.916893	-0.457724	0.992136
H248	H	1.250226	-0.124390	1.325470
H249	H	1.583560	0.208943	1.658803
H250	H	1.086621	-0.301255	0.992805
H251	H	1.419955	0.032079	1.326138
H252	H	1.753288	0.365412	1.659472
H253	H	0.916908	-0.457724	0.888018
H254	H	1.250242	-0.124391	1.221352
H255	H	1.583575	0.208943	1.554685
Br256	Br	1.090882	-0.804251	0.344811
Br257	Br	1.424215	-0.470918	0.678144
Br258	Br	1.757548	-0.137584	1.011477
H259	H	0.916905	-0.457718	0.739286
H260	H	1.250239	-0.124384	1.072619
H261	H	1.583572	0.208949	1.405953
