data_functionalizedCrystal
_audit_creation_method	'MofGen! by Chris Wilmer'
_symmetry_space_group_name_H-M	'P1'
_symmetry_Int_Tables_number	1
_symmetry_cell_setting	triclinic
loop_
_symmetry_equiv_pos_as_xyz
  x,y,z
_cell_length_a	19.805407
_cell_length_b	10.686285
_cell_length_c	19.805399
_cell_angle_alpha	85.610534
_cell_angle_beta	89.980427
_cell_angle_gamma	85.631507
loop_
_atom_site_label
_atom_site_type_symbol
_atom_site_fract_x
_atom_site_fract_y
_atom_site_fract_z
Zn1	Zn	1.055500	-0.502374	-0.362110
Zn2	Zn	1.064136	-0.713385	-0.240266
Zn3	Zn	0.942316	-0.502409	-0.248934
Zn4	Zn	0.950997	-0.713318	-0.353415
O5	O	1.003237	-0.607872	-0.301181
O6	O	1.151363	-0.530379	-0.345959
O7	O	1.047958	-0.685441	-0.146697
O8	O	0.950083	-0.325830	-0.271213
O9	O	1.157708	-0.685408	-0.256440
O10	O	1.033239	-0.325804	-0.354364
O11	O	0.958457	-0.530438	-0.153065
O12	O	0.848750	-0.530373	-0.262782
O13	O	0.964878	-0.685293	-0.449287
O14	O	0.855128	-0.685327	-0.339544
O15	O	1.041656	-0.530314	-0.455675
O16	O	1.056375	-0.889951	-0.248009
O17	O	0.973252	-0.889902	-0.331139
C18	C	0.827380	-0.607847	-0.301160
C19	C	0.752149	-0.607868	-0.301166
C20	C	0.720149	-0.688673	-0.341061
C21	C	0.649460	-0.688676	-0.341071
C22	C	0.610774	-0.607877	-0.301181
C23	C	0.642779	-0.527063	-0.261284
C24	C	0.713466	-0.527055	-0.261279
C25	C	0.357707	-0.527090	-0.261306
C26	C	0.287015	-0.527107	-0.261312
C27	C	0.293701	-0.688711	-0.341097
C28	C	0.364388	-0.688704	-0.341092
C29	C	0.396387	-0.607885	-0.301198
C30	C	0.473035	-0.607882	-0.301190
C31	C	0.534127	-0.607886	-0.301186
C32	C	1.016711	-0.935710	-0.287705
C33	C	1.022538	-1.075961	-0.281962
C34	C	1.179781	-0.607897	-0.301203
C35	C	1.255013	-0.607907	-0.301212
C36	C	1.003272	-0.607792	-0.477727
C37	C	1.003287	-0.607758	-0.552961
C38	C	0.989729	-0.278753	-0.314725
C39	C	0.983973	-0.138502	-0.320497
C40	C	1.043266	-0.527056	-0.591633
C41	C	1.043271	-0.527020	-0.662323
C42	C	1.003301	-0.607692	-0.694339
C43	C	0.963317	-0.688398	-0.655662
C44	C	0.963308	-0.688427	-0.584974
C45	C	0.963350	-0.688280	-0.940740
C46	C	0.963364	-0.688247	-1.011434
C47	C	1.043313	-0.526873	-1.018089
C48	C	1.043305	-0.526902	-0.947401
C49	C	1.003318	-0.607602	-0.908730
C50	C	1.003312	-0.607639	-0.832080
C51	C	1.003310	-0.607663	-0.770988
C52	C	1.003238	-0.607860	-0.125326
C53	C	1.003340	-0.607538	-0.050107
H54	H	0.751642	-0.754473	-0.373542
Br55	Br	1.084992	-1.165550	-0.219635
H56	H	0.383752	-0.461292	-0.228816
H57	H	0.930812	-0.753943	-1.037499
Br58	Br	0.590276	-0.417394	-0.207154
Br59	Br	0.921510	-1.048917	-0.382810
Br60	Br	1.097520	-0.417576	-0.548188
Br61	Br	0.909066	-0.797876	-0.699113
Br62	Br	0.909045	-0.797947	-0.532490
H63	H	1.075828	-0.461307	-0.693806
Br64	Br	0.909082	-0.797799	-0.888268
Br65	Br	0.606033	-0.798343	-0.395218
Br66	Br	0.756896	-0.417379	-0.207138
H67	H	1.075855	-0.461215	-0.921337
Br68	Br	1.097580	-0.417347	-1.070574
Br69	Br	0.416888	-0.798370	-0.395225
H70	H	0.267639	-0.754513	-0.373583
H71	H	0.255518	-0.461303	-0.228830
