data_functionalizedCrystal
_audit_creation_method	'MofGen! by Chris Wilmer'
_symmetry_space_group_name_H-M	'P1'
_symmetry_Int_Tables_number	1
_symmetry_cell_setting	triclinic
loop_
_symmetry_equiv_pos_as_xyz
  x,y,z
_cell_length_a	13.033808
_cell_length_b	12.759400
_cell_length_c	13.032268
_cell_angle_alpha	97.151488
_cell_angle_beta	103.297372
_cell_angle_gamma	97.207368
loop_
_atom_site_label
_atom_site_type_symbol
_atom_site_fract_x
_atom_site_fract_y
_atom_site_fract_z
Zn1	Zn	1.547453	-0.270746	-0.394612
Zn2	Zn	1.569917	-0.420912	-0.217031
Zn3	Zn	1.392406	-0.270821	-0.239552
Zn4	Zn	1.369840	-0.471965	-0.417095
O5	O	1.469904	-0.358611	-0.317072
O6	O	1.699053	-0.269269	-0.352221
O7	O	1.565215	-0.379668	-0.071397
O8	O	1.413016	-0.123786	-0.260136
O9	O	1.715557	-0.379595	-0.221753
O10	O	1.526928	-0.123732	-0.374059
O11	O	1.434799	-0.269396	-0.087943
O12	O	1.240792	-0.318900	-0.281938
O13	O	1.374555	-0.466607	-0.562734
O14	O	1.224213	-0.466680	-0.412378
O15	O	1.505046	-0.318773	-0.546216
O16	O	1.543333	-0.574709	-0.243554
O17	O	1.396337	-0.612217	-0.390541
C18	C	1.193967	-0.398339	-0.352042
C19	C	1.075916	-0.415363	-0.367027
C20	C	0.909437	-0.367342	-0.324759
C21	C	1.031449	-0.349746	-0.309267
C22	C	1.469850	-0.631584	-0.317063
C23	C	1.469920	-0.748354	-0.317082
C24	C	1.529193	-0.803121	-0.376461
C25	C	1.529239	-0.912841	-0.376481
C26	C	1.410738	-0.913018	-0.257733
C27	C	1.410686	-0.803301	-0.257720
C28	C	1.588427	-0.748174	-0.435823
C29	C	1.647705	-0.802940	-0.495206
C30	C	1.647751	-0.912661	-0.495226
C31	C	1.588519	-0.967615	-0.435862
C32	C	1.746918	-0.318729	-0.281967
C33	C	1.864965	-0.301734	-0.267007
C34	C	1.434777	-0.398377	-0.594088
C35	C	1.419809	-0.415322	-0.712136
C36	C	1.469984	-0.084571	-0.317102
C37	C	1.470018	0.032208	-0.317114
C38	C	1.477700	-0.349732	-0.756592
C39	C	1.462230	-0.367244	-0.878601
C40	C	1.504955	-0.318916	-0.041127
C41	C	1.520129	-0.301644	0.076947
H42	H	1.083701	-0.280549	-0.248346
Br43	Br	1.728071	-0.728368	-0.575784
H44	H	1.581143	-0.232515	-0.870793
Br45	Br	1.360516	-0.482450	-0.965700
H46	H	1.023666	-0.484566	-0.427943
H47	H	0.857182	-0.436541	-0.385668
H48	H	1.358786	-0.484436	-0.764402
Br49	Br	0.952051	-0.186406	-0.165468
H50	H	1.588398	-0.658833	-0.435811
Br51	Br	1.588782	-1.116472	-0.435692
Br52	Br	1.728182	-0.986990	-0.575832
Br53	Br	1.330244	-0.728967	-0.177131
H54	H	1.362514	-0.957770	-0.209401
Br55	Br	1.579368	-0.234496	-0.669494
