data_functionalizedCrystal
_audit_creation_method	'MofGen! by Chris Wilmer'
_symmetry_space_group_name_H-M	'P1'
_symmetry_Int_Tables_number	1
_symmetry_cell_setting	triclinic
loop_
_symmetry_equiv_pos_as_xyz
  x,y,z
_cell_length_a	19.077105
_cell_length_b	19.077068
_cell_length_c	17.077396
_cell_angle_alpha	87.732878
_cell_angle_beta	92.316751
_cell_angle_gamma	90.115316
loop_
_atom_site_label
_atom_site_type_symbol
_atom_site_fract_x
_atom_site_fract_y
_atom_site_fract_z
Zn1	Zn	1.062992	-0.322976	0.505864
Zn2	Zn	1.312992	-0.072976	0.755864
Zn3	Zn	1.562992	0.177024	1.005864
Zn4	Zn	1.812992	0.427024	1.255864
Zn5	Zn	1.058179	-0.440486	0.379639
Zn6	Zn	1.308179	-0.190486	0.629639
Zn7	Zn	1.558179	0.059514	0.879639
Zn8	Zn	1.808179	0.309514	1.129639
Zn9	Zn	0.945484	-0.318272	0.369142
Zn10	Zn	1.195484	-0.068272	0.619142
Zn11	Zn	1.445484	0.181728	0.869142
Zn12	Zn	1.695484	0.431728	1.119142
Zn13	Zn	0.940727	-0.435717	0.505393
Zn14	Zn	1.190727	-0.185717	0.755393
Zn15	Zn	1.440727	0.064283	1.005393
Zn16	Zn	1.690727	0.314283	1.255393
O17	O	1.001846	-0.379363	0.440009
O18	O	1.251846	-0.129363	0.690009
O19	O	1.501846	0.120637	0.940009
O20	O	1.751846	0.370637	1.190009
O21	O	1.160685	-0.342528	0.493710
O22	O	1.410685	-0.092528	0.743710
O23	O	1.660685	0.157472	0.993710
O24	O	1.910685	0.407472	1.243710
O25	O	1.043206	-0.424301	0.268400
O26	O	1.293206	-0.174301	0.518400
O27	O	1.543206	0.075699	0.768400
O28	O	1.793206	0.325699	1.018400
O29	O	0.965077	-0.220566	0.383083
O30	O	1.215077	0.029434	0.633083
O31	O	1.465077	0.279434	0.883083
O32	O	1.715077	0.529434	1.133083
O33	O	1.157149	-0.428862	0.400973
O34	O	1.407149	-0.178862	0.650973
O35	O	1.657149	0.071138	0.900973
O36	O	1.907149	0.321138	1.150973
O37	O	1.051410	-0.224022	0.483532
O38	O	1.301410	0.025978	0.733532
O39	O	1.551410	0.275978	0.983532
O40	O	1.801410	0.525978	1.233532
O41	O	0.960409	-0.334510	0.260688
O42	O	1.210409	-0.084510	0.510688
O43	O	1.460409	0.165490	0.760688
O44	O	1.710409	0.415490	1.010688
O45	O	0.846522	-0.329887	0.382626
O46	O	1.096522	-0.079887	0.632626
O47	O	1.346522	0.170113	0.882626
O48	O	1.596522	0.420113	1.132626
O49	O	0.956970	-0.420735	0.615302
O50	O	1.206970	-0.170735	0.865302
O51	O	1.456970	0.079265	1.115302
O52	O	1.706970	0.329265	1.365302
O53	O	0.843027	-0.416174	0.482729
O54	O	1.093027	-0.166174	0.732729
O55	O	1.343027	0.083826	0.982729
O56	O	1.593027	0.333826	1.232729
O57	O	1.046798	-0.337904	0.615648
O58	O	1.296798	-0.087904	0.865648
O59	O	1.546798	0.162096	1.115648
O60	O	1.796798	0.412096	1.365648
O61	O	1.038593	-0.538183	0.400516
O62	O	1.288593	-0.288183	0.650516
O63	O	1.538593	-0.038183	0.900516
O64	O	1.788593	0.211817	1.150516
O65	O	0.952302	-0.534680	0.492906
O66	O	1.202302	-0.284680	0.742906
O67	O	1.452302	-0.034680	0.992906
O68	O	1.702302	0.215320	1.242906
C69	C	0.819278	-0.372003	0.431488
C70	C	1.069278	-0.122003	0.681488
C71	C	1.319278	0.127997	0.931488
C72	C	1.569278	0.377997	1.181488
C73	C	0.741174	-0.368871	0.427861
C74	C	0.991174	-0.118871	0.677861
C75	C	1.241174	0.131129	0.927861
C76	C	1.491174	0.381129	1.177861
C77	C	0.702677	-0.412393	0.478200
C78	C	0.952677	-0.162393	0.728200
C79	C	1.202677	0.087607	0.978200
C80	C	1.452677	0.337607	1.228200
C81	C	0.629290	-0.409441	0.474796
C82	C	0.879290	-0.159441	0.724796
C83	C	1.129290	0.090559	0.974796
C84	C	1.379290	0.340559	1.224796
C85	C	0.594402	-0.362970	0.421049
C86	C	0.844402	-0.112970	0.671049
C87	C	1.094402	0.137030	0.921049
C88	C	1.344402	0.387030	1.171049
C89	C	0.632905	-0.319444	0.370709
C90	C	0.882905	-0.069444	0.620709
C91	C	1.132905	0.180556	0.870709
C92	C	1.382905	0.430556	1.120709
C93	C	0.706290	-0.322393	0.374117
C94	C	0.956290	-0.072393	0.624117
C95	C	1.206290	0.177607	0.874117
C96	C	1.456290	0.427607	1.124117
C97	C	0.375117	-0.349323	0.405279
C98	C	0.625117	-0.099323	0.655279
C99	C	0.875117	0.150677	0.905279
C100	C	1.125117	0.400677	1.155279
C101	C	0.301726	-0.346379	0.401873
C102	C	0.551726	-0.096379	0.651873
C103	C	0.801726	0.153621	0.901873
C104	C	1.051726	0.403621	1.151873
C105	C	0.298117	-0.436375	0.505961
C106	C	0.548117	-0.186375	0.755961
C107	C	0.798117	0.063625	1.005961
C108	C	1.048117	0.313625	1.255961
C109	C	0.371504	-0.439323	0.509361
C110	C	0.621504	-0.189323	0.759361
C111	C	0.871504	0.060677	1.009361
C112	C	1.121504	0.310677	1.259361
C113	C	0.410000	-0.395794	0.459024
C114	C	0.660000	-0.145794	0.709024
C115	C	0.910000	0.104206	0.959024
C116	C	1.160000	0.354206	1.209024
N117	N	0.519389	-0.359954	0.417567
N118	N	0.769389	-0.109954	0.667567
N119	N	1.019389	0.140046	0.917567
N120	N	1.269389	0.390046	1.167567
N121	N	0.485012	-0.398808	0.462510
N122	N	0.735012	-0.148808	0.712510
N123	N	0.985012	0.101192	0.962510
N124	N	1.235012	0.351192	1.212510
C125	C	0.994428	-0.561928	0.447817
C126	C	1.244428	-0.311928	0.697817
C127	C	1.494428	-0.061928	0.947817
C128	C	1.744428	0.188072	1.197817
C129	C	0.991320	-0.640033	0.451186
C130	C	1.241320	-0.390033	0.701186
C131	C	1.491320	-0.140033	0.951186
C132	C	1.741320	0.109967	1.201186
C133	C	1.034821	-0.678529	0.404709
C134	C	1.284821	-0.428529	0.654709
C135	C	1.534821	-0.178529	0.904709
C136	C	1.784821	0.071471	1.154709
C137	C	1.031901	-0.751917	0.407883
C138	C	1.281901	-0.501917	0.657883
C139	C	1.531901	-0.251917	0.907883
C140	C	1.781901	-0.001917	1.157883
C141	C	0.985476	-0.786807	0.457530
C142	C	1.235476	-0.536807	0.707530
C143	C	1.485476	-0.286807	0.957530
C144	C	1.735476	-0.036807	1.207530
C145	C	0.941973	-0.748306	0.504012
C146	C	1.191973	-0.498306	0.754012
C147	C	1.441973	-0.248306	1.004012
C148	C	1.691973	0.001694	1.254012
C149	C	0.944896	-0.674920	0.500842
C150	C	1.194896	-0.424920	0.750842
C151	C	1.444896	-0.174920	1.000842
C152	C	1.694896	0.075080	1.250842
C153	C	0.971913	-1.006096	0.472169
C154	C	1.221913	-0.756096	0.722169
C155	C	1.471913	-0.506096	0.972169
C156	C	1.721913	-0.256096	1.222169
C157	C	0.968991	-1.079487	0.475334
C158	C	1.218991	-0.829487	0.725334
C159	C	1.468991	-0.579487	0.975334
C160	C	1.718991	-0.329487	1.225334
C161	C	1.058921	-1.083093	0.379206
C162	C	1.308921	-0.833093	0.629206
C163	C	1.558921	-0.583093	0.879206
C164	C	1.808921	-0.333093	1.129206
C165	C	1.061837	-1.009705	0.376037
C166	C	1.311837	-0.759705	0.626037
C167	C	1.561837	-0.509705	0.876037
C168	C	1.811837	-0.259705	1.126037
C169	C	1.018337	-0.971210	0.422521
C170	C	1.268337	-0.721210	0.672521
C171	C	1.518337	-0.471210	0.922521
C172	C	1.768337	-0.221210	1.172521
N173	N	0.982489	-0.861821	0.460774
N174	N	1.232489	-0.611821	0.710774
N175	N	1.482489	-0.361821	0.960774
N176	N	1.732489	-0.111821	1.210774
N177	N	1.021328	-0.896198	0.419282
N178	N	1.271328	-0.646198	0.669282
N179	N	1.521328	-0.396198	0.919282
N180	N	1.771328	-0.146198	1.169282
C181	C	1.185126	-0.386752	0.448565
C182	C	1.435126	-0.136752	0.698565
C183	C	1.685126	0.113248	0.948565
C184	C	1.935126	0.363248	1.198565
C185	C	1.263229	-0.389901	0.452211
C186	C	1.513229	-0.139901	0.702211
C187	C	1.763229	0.110099	0.952211
C188	C	2.013229	0.360099	1.202211
C189	C	1.001890	-0.379313	0.644754
C190	C	1.251890	-0.129313	0.894754
C191	C	1.501890	0.120687	1.144754
C192	C	1.751890	0.370687	1.394754
C193	C	1.001909	-0.379291	0.732003
C194	C	1.251909	-0.129291	0.982003
C195	C	1.501909	0.120709	1.232003
C196	C	1.751909	0.370709	1.482003
C197	C	1.009311	-0.196085	0.432190
C198	C	1.259311	0.053915	0.682190
C199	C	1.509311	0.303915	0.932190
C200	C	1.759311	0.553915	1.182190
C201	C	1.012492	-0.117983	0.428857
C202	C	1.262492	0.132017	0.678857
C203	C	1.512492	0.382017	0.928857
C204	C	1.762492	0.632017	1.178857
C205	C	1.001844	-0.379363	0.236062
C206	C	1.251844	-0.129363	0.486062
C207	C	1.501844	0.120637	0.736062
C208	C	1.751844	0.370637	0.986062
C209	C	1.001969	-0.379192	0.148810
C210	C	1.251969	-0.129192	0.398810
C211	C	1.501969	0.120808	0.648810
C212	C	1.751969	0.370808	0.898810
C213	C	1.048684	-0.336158	0.773175
C214	C	1.298684	-0.086158	1.023175
C215	C	1.548684	0.163842	1.273175
C216	C	1.798684	0.413842	1.523175
C217	C	1.048694	-0.336135	0.855155
C218	C	1.298694	-0.086135	1.105155
C219	C	1.548694	0.163865	1.355155
C220	C	1.798694	0.413865	1.605155
C221	C	1.001931	-0.379249	0.895962
C222	C	1.251931	-0.129249	1.145962
C223	C	1.501931	0.120751	1.395962
C224	C	1.751931	0.370751	1.645962
C225	C	0.955151	-0.422385	0.854784
C226	C	1.205151	-0.172385	1.104784
C227	C	1.455151	0.077615	1.354784
C228	C	1.705151	0.327615	1.604784
C229	C	0.955139	-0.422404	0.772806
C230	C	1.205139	-0.172404	1.022806
C231	C	1.455139	0.077596	1.272806
C232	C	1.705139	0.327596	1.522806
C233	C	0.955181	-0.422344	1.025654
C234	C	1.205181	-0.172344	1.275654
C235	C	1.455181	0.077656	1.525654
C236	C	1.705181	0.327656	1.775654
C237	C	0.955194	-0.422326	1.107638
C238	C	1.205194	-0.172326	1.357638
C239	C	1.455194	0.077674	1.607638
C240	C	1.705194	0.327674	1.857638
C241	C	1.048736	-0.336075	1.108003
C242	C	1.298736	-0.086075	1.358003
C243	C	1.548736	0.163925	1.608003
C244	C	1.798736	0.413925	1.858003
C245	C	1.048724	-0.336093	1.026025
C246	C	1.298724	-0.086093	1.276025
C247	C	1.548724	0.163907	1.526025
C248	C	1.798724	0.413907	1.776025
C249	C	1.001944	-0.379230	0.984853
C250	C	1.251944	-0.129230	1.234853
C251	C	1.501944	0.120770	1.484853
C252	C	1.751944	0.370770	1.734853
H253	H	0.731077	-0.450236	0.521963
H254	H	0.981077	-0.200236	0.771963
H255	H	1.231077	0.049764	1.021963
H256	H	1.481077	0.299764	1.271963
H257	H	0.604493	-0.281604	0.326950
H258	H	0.854493	-0.031604	0.576950
H259	H	1.104493	0.218396	0.826950
H260	H	1.354493	0.468396	1.076950
Br261	Br	1.112194	-0.277586	0.970644
Br262	Br	1.362194	-0.027586	1.220644
Br263	Br	1.612194	0.222414	1.470644
Br264	Br	1.862194	0.472414	1.720644
Br265	Br	0.418847	-0.502396	0.582302
Br266	Br	0.668847	-0.252396	0.832302
Br267	Br	0.918847	-0.002396	1.082302
Br268	Br	1.168847	0.247604	1.332302
H269	H	0.597949	-0.444881	0.515786
H270	H	0.847949	-0.194881	0.765786
H271	H	1.097949	0.055119	1.015786
H272	H	1.347949	0.305119	1.265786
H273	H	0.737634	-0.286949	0.333130
H274	H	0.987634	-0.036949	0.583130
H275	H	1.237634	0.213051	0.833130
H276	H	1.487634	0.463051	1.083130
H277	H	1.086766	-0.301051	0.739956
H278	H	1.336766	-0.051051	0.989956
H279	H	1.586766	0.198949	1.239956
H280	H	1.836766	0.448949	1.489956
Br281	Br	0.427353	-0.290244	0.336967
Br282	Br	0.677353	-0.040244	0.586967
Br283	Br	0.927353	0.209756	0.836967
Br284	Br	1.177353	0.459756	1.086967
Br285	Br	1.097823	-0.631184	0.337320
Br286	Br	1.347823	-0.381184	0.587320
Br287	Br	1.597823	-0.131184	0.837320
Br288	Br	1.847823	0.118816	1.087320
H289	H	1.067324	-0.783257	0.370036
H290	H	1.317324	-0.533257	0.620036
H291	H	1.567324	-0.283257	0.870036
H292	H	1.817324	-0.033257	1.120036
H293	H	1.094337	-1.114443	0.341362
H294	H	1.344337	-0.864443	0.591362
H295	H	1.594337	-0.614443	0.841362
H296	H	1.844337	-0.364443	1.091362
H297	H	1.099641	-0.981299	0.335610
H298	H	1.349641	-0.731299	0.585610
H299	H	1.599641	-0.481299	0.835610
H300	H	1.849641	-0.231299	1.085610
H301	H	0.936492	-0.974759	0.510017
H302	H	1.186492	-0.724759	0.760017
H303	H	1.436492	-0.474759	1.010017
H304	H	1.686492	-0.224759	1.260017
Br305	Br	0.891692	-0.480884	0.969778
Br306	Br	1.141692	-0.230884	1.219778
Br307	Br	1.391692	0.019116	1.469778
Br308	Br	1.641692	0.269116	1.719778
Br309	Br	0.905969	-1.126838	0.542703
Br310	Br	1.155969	-0.876838	0.792703
Br311	Br	1.405969	-0.626838	1.042703
Br312	Br	1.655969	-0.376838	1.292703
Br313	Br	0.878972	-0.795657	0.571398
Br314	Br	1.128972	-0.545657	0.821398
Br315	Br	1.378972	-0.295657	1.071398
Br316	Br	1.628972	-0.045657	1.321398
Br317	Br	1.112225	-0.277535	1.163878
Br318	Br	1.362225	-0.027535	1.413878
Br319	Br	1.612225	0.222465	1.663878
Br320	Br	1.862225	0.472465	1.913878
Br321	Br	0.885861	-0.622674	0.563925
Br322	Br	1.135861	-0.372674	0.813925
Br323	Br	1.385861	-0.122674	1.063925
Br324	Br	1.635861	0.127326	1.313925
H325	H	0.917073	-0.457487	0.888016
H326	H	1.167073	-0.207487	1.138016
H327	H	1.417073	0.042513	1.388016
H328	H	1.667073	0.292513	1.638016
H329	H	0.266766	-0.471813	0.546944
H330	H	0.516766	-0.221813	0.796944
H331	H	0.766766	0.028187	1.046944
H332	H	1.016766	0.278187	1.296944
H333	H	1.086784	-0.301013	0.888674
H334	H	1.336784	-0.051013	1.138674
H335	H	1.586784	0.198987	1.388674
H336	H	1.836784	0.448987	1.638674
Br337	Br	0.254378	-0.283316	0.328918
Br338	Br	0.504378	-0.033316	0.578918
Br339	Br	0.754378	0.216684	0.828918
Br340	Br	1.004378	0.466684	1.078918
Br341	Br	0.891723	-0.480832	1.163019
Br342	Br	1.141723	-0.230832	1.413019
Br343	Br	1.391723	0.019168	1.663019
Br344	Br	1.641723	0.269168	1.913019
H345	H	0.917043	-0.457520	0.739284
H346	H	1.167043	-0.207520	0.989284
H347	H	1.417043	0.042480	1.239284
H348	H	1.667043	0.292480	1.489284
