data_functionalizedCrystal
_audit_creation_method	'MofGen! by Chris Wilmer'
_symmetry_space_group_name_H-M	'P1'
_symmetry_Int_Tables_number	1
_symmetry_cell_setting	triclinic
loop_
_symmetry_equiv_pos_as_xyz
  x,y,z
_cell_length_a	21.395362
_cell_length_b	25.639239
_cell_length_c	21.395355
_cell_angle_alpha	90.019334
_cell_angle_beta	90.043940
_cell_angle_gamma	90.054564
loop_
_atom_site_label
_atom_site_type_symbol
_atom_site_fract_x
_atom_site_fract_y
_atom_site_fract_z
Zn1	Zn	0.957825	-0.207990	0.354582
Zn2	Zn	0.957713	-0.295409	0.249803
Zn3	Zn	0.853040	-0.208014	0.249783
Zn4	Zn	0.852994	-0.295420	0.354508
O5	O	0.905393	-0.251708	0.302169
O6	O	1.045488	-0.219571	0.340722
O7	O	0.943800	-0.283822	0.162122
O8	O	0.867006	-0.134846	0.263708
O9	O	1.045405	-0.283798	0.263742
O10	O	0.943991	-0.134828	0.340703
O11	O	0.866897	-0.219613	0.162108
O12	O	0.765356	-0.219623	0.263636
O13	O	0.866928	-0.283817	0.442196
O14	O	0.765322	-0.283840	0.340576
O15	O	0.943947	-0.219582	0.442250
O16	O	0.943756	-0.368576	0.263669
O17	O	0.866820	-0.368584	0.340596
C18	C	0.742605	-0.251736	0.302096
C19	C	0.672964	-0.251760	0.302080
C20	C	0.640250	-0.285243	0.342083
C21	C	0.574814	-0.285230	0.342111
C22	C	0.542096	-0.251740	0.302125
C23	C	0.574818	-0.218252	0.262119
C24	C	0.640252	-0.218262	0.262097
C25	C	0.438372	-0.247528	0.245720
C26	C	0.372939	-0.247522	0.245741
C27	C	0.340275	-0.251706	0.302194
C28	C	0.373052	-0.255908	0.358627
C29	C	0.438486	-0.255918	0.358605
C30	C	0.471143	-0.251725	0.302145
C31	C	0.236608	-0.285176	0.342231
C32	C	0.171172	-0.285160	0.342260
C33	C	0.171176	-0.218185	0.262262
C34	C	0.236612	-0.218198	0.262239
C35	C	0.269324	-0.251697	0.302222
C36	C	0.905288	-0.387551	0.302140
C37	C	0.905300	-0.445665	0.302149
C38	C	0.945558	-0.806011	0.262182
C39	C	0.945582	-0.860616	0.262190
O40	O	0.979702	-0.888838	0.228177
N41	N	0.905503	-0.887947	0.302211
C42	C	0.865401	-0.860672	0.342230
O43	O	0.831313	-0.888934	0.376271
C44	C	0.865381	-0.806069	0.342224
C45	C	0.905458	-0.778740	0.302196
C46	C	0.985633	-0.778682	0.222158
C47	C	0.985608	-0.724082	0.222149
C48	C	0.945508	-0.696810	0.262164
C49	C	0.905433	-0.724139	0.302187
C50	C	0.825282	-0.778794	0.382246
C51	C	0.825266	-0.724187	0.382237
C52	C	0.865343	-0.696858	0.342209
C53	C	0.865308	-0.642267	0.342193
N54	N	0.905387	-0.614935	0.302173
C55	C	0.945487	-0.642207	0.262158
C56	C	0.865448	-0.975343	0.342239
C57	C	0.865465	-1.029945	0.342242
C58	C	0.945648	-1.029885	0.262204
C59	C	0.945627	-0.975281	0.262198
C60	C	0.905528	-0.948011	0.302219
C61	C	0.945430	-0.527542	0.262142
C62	C	0.945400	-0.472937	0.262134
C63	C	0.865220	-0.473002	0.342175
C64	C	0.865248	-0.527602	0.342180
C65	C	0.905358	-0.554871	0.302162
O66	O	0.831207	-0.614010	0.376190
O67	O	0.979575	-0.613939	0.228128
C68	C	1.068816	-0.251681	0.302242
C69	C	1.138458	-0.251669	0.302274
C70	C	0.905445	-0.251698	0.465592
C71	C	0.905467	-0.251693	0.535234
C72	C	0.905516	-0.115335	0.302212
C73	C	0.905568	-0.057221	0.302230
C74	C	0.905377	-0.251681	0.139381
C75	C	0.905476	-0.251538	0.069741
C76	C	0.945569	-0.218245	0.567976
C77	C	0.945568	-0.218222	0.633412
C78	C	0.905472	-0.251658	0.666102
C79	C	0.865362	-0.285108	0.633352
C80	C	0.865360	-0.285126	0.567917
C81	C	0.900488	-0.298736	0.769765
C82	C	0.900495	-0.298719	0.835198
C83	C	0.905476	-0.251602	0.867923
C84	C	0.910463	-0.204501	0.835207
C85	C	0.910461	-0.204519	0.769773
C86	C	0.905470	-0.251642	0.737054
C87	C	0.945579	-0.218127	0.971618
C88	C	0.945574	-0.218103	1.037055
C89	C	0.865371	-0.284994	1.036993
C90	C	0.865373	-0.285013	0.971558
C91	C	0.905480	-0.251580	0.938874
H92	H	0.346459	-0.259314	0.404597
H93	H	0.896265	-0.337094	0.743126
H94	H	0.914520	-0.166134	0.861850
N95	N	0.822018	-0.557079	0.385348
H96	H	0.847477	-0.579692	0.414421
H97	H	0.793014	-0.579748	0.359810
H98	H	0.263248	-0.190936	0.229661
H99	H	0.666887	-0.190995	0.229521
H100	H	0.666880	-0.312519	0.374642
N101	N	0.988817	-0.182016	1.072373
H102	H	1.014221	-0.160839	1.041737
H103	H	1.017793	-0.203281	1.099550
H104	H	1.018244	-0.701834	0.189557
N105	N	0.539519	-0.321343	0.385260
H106	H	0.570171	-0.342564	0.410586
H107	H	0.512310	-0.345500	0.359707
N108	N	0.895118	-0.349520	0.870478
H109	H	0.856512	-0.348813	0.897602
H110	H	0.933313	-0.354384	0.897616
H111	H	0.978227	-0.191020	0.541369
N112	N	0.822118	-0.321053	1.072243
H113	H	0.828203	-0.315966	1.118664
H114	H	0.831834	-0.358396	1.060813
N115	N	0.822184	-0.945936	0.385400
H116	H	0.793152	-0.923322	0.359897
H117	H	0.847660	-0.923272	0.414463
N118	N	0.822112	-0.321211	0.532600
H119	H	0.828197	-0.316151	0.486188
H120	H	0.777371	-0.313078	0.544001
H121	H	0.978222	-0.190982	0.660076
H122	H	0.978233	-0.190901	0.945006
N123	N	0.821967	-0.443582	0.385328
H124	H	0.828037	-0.404845	0.379246
H125	H	0.831702	-0.453096	0.430090
N126	N	0.782064	-0.808266	0.425423
H127	H	0.753045	-0.830963	0.399936
H128	H	0.756705	-0.782666	0.450764
H129	H	0.978301	-1.052099	0.229624
H130	H	0.144537	-0.312424	0.374839
N131	N	0.915841	-0.153722	0.734484
H132	H	0.918999	-0.123869	0.765140
H133	H	0.877670	-0.148881	0.707306
H134	H	0.978093	-0.549738	0.229556
N135	N	0.822110	-0.321089	0.936249
H136	H	0.831800	-0.358442	0.947642
H137	H	0.828202	-0.315985	0.889846
N138	N	0.135896	-0.182059	0.219137
H139	H	0.089479	-0.187131	0.225222
H140	H	0.147272	-0.190142	0.174367
N141	N	0.473840	-0.260448	0.419467
H142	H	0.443224	-0.263098	0.455235
H143	H	0.501039	-0.228603	0.425342
H144	H	0.548174	-0.190984	0.229563
H145	H	0.263244	-0.312450	0.374791
H146	H	0.832714	-0.312330	0.659972
N147	N	0.337589	-0.242994	0.184877
H148	H	0.368208	-0.240339	0.149111
H149	H	0.310483	-0.210777	0.185861
N150	N	0.822237	-1.059416	0.385414
H151	H	0.828332	-1.098147	0.379352
H152	H	0.777491	-1.049923	0.375603
H153	H	0.464961	-0.244119	0.199746
N154	N	0.782016	-0.694774	0.425405
H155	H	0.756634	-0.720376	0.450760
H156	H	0.753021	-0.672161	0.399864
H157	H	0.978036	-0.450687	0.229537
H158	H	1.018290	-0.800881	0.189573
H159	H	0.978262	-0.953033	0.229605
