data_functionalizedCrystal
_audit_creation_method	'MofGen! by Chris Wilmer'
_symmetry_space_group_name_H-M	'P1'
_symmetry_Int_Tables_number	1
_symmetry_cell_setting	triclinic
loop_
_symmetry_equiv_pos_as_xyz
  x,y,z
_cell_length_a	23.532407
_cell_length_b	26.210047
_cell_length_c	23.532407
_cell_angle_alpha	90.000177
_cell_angle_beta	97.151326
_cell_angle_gamma	89.997435
loop_
_atom_site_label
_atom_site_type_symbol
_atom_site_fract_x
_atom_site_fract_y
_atom_site_fract_z
O1	O	-0.755264	0.042358	0.069127
O2	O	-0.589401	0.042376	0.079130
O3	O	-0.677334	0.042357	-0.008804
O4	O	-0.667331	0.042377	0.157060
O5	O	-0.677317	-0.042501	-0.008790
O6	O	-0.589384	-0.042482	0.079144
O7	O	-0.755247	-0.042500	0.069140
Cu8	Cu	-0.672314	-0.050239	0.074143
Cu9	Cu	-0.672334	0.050115	0.074127
O10	O	-0.667314	-0.042481	0.157074
C11	C	-0.568176	-0.000051	0.078882
C12	C	-0.504959	-0.000044	0.078116
C13	C	-0.105856	-0.000055	0.125350
C14	C	-0.046456	-0.000057	0.124638
O15	O	-0.009711	-0.000070	0.168424
N16	N	-0.023830	-0.000062	0.072362
C17	C	-0.060607	-0.000070	0.020794
O18	O	-0.035908	-0.000075	-0.023737
C19	C	-0.120006	-0.000071	0.021506
C20	C	-0.142629	-0.000061	0.073785
C21	C	-0.128479	-0.000045	0.177625
C22	C	-0.187876	-0.000042	0.178336
C23	C	-0.224649	-0.000048	0.126772
C24	C	-0.202025	-0.000058	0.074496
C25	C	-0.156783	-0.000083	-0.030062
C26	C	-0.216185	-0.000085	-0.029345
C27	C	-0.238808	-0.000075	0.022934
C28	C	-0.298194	-0.000061	0.023643
N29	N	-0.320820	-0.000056	0.075920
C30	C	-0.284048	-0.000050	0.127484
C31	C	0.064135	-0.000068	0.019302
C32	C	0.123533	-0.000063	0.018589
C33	C	0.137680	-0.000051	0.122434
C34	C	0.078281	-0.000052	0.123146
C35	C	0.041509	-0.000063	0.071578
C36	C	-0.408784	-0.000043	0.128974
C37	C	-0.468186	-0.000038	0.129680
C38	C	-0.482329	-0.000052	0.025836
C39	C	-0.422932	-0.000055	0.025129
C40	C	-0.386160	-0.000052	0.076702
O41	O	-0.334974	-0.000051	-0.020119
O42	O	-0.308755	-0.000052	0.172007
N43	N	-0.672304	-0.120823	0.074154
C44	C	-0.711267	-0.473346	0.035199
C45	C	-0.711280	-0.687004	0.035191
O46	O	-0.744385	-0.714633	0.002072
N47	N	-0.672337	-0.713717	0.074114
C48	C	-0.633386	-0.687012	0.113040
O49	O	-0.600260	-0.714635	0.146143
C50	C	-0.633372	-0.473354	0.113045
C51	C	-0.672320	-0.446644	0.074123
C52	C	-0.750212	-0.446636	-0.003721
C53	C	-0.750211	-0.393224	-0.003716
C54	C	-0.711264	-0.366523	0.035208
C55	C	-0.672319	-0.393233	0.074127
C56	C	-0.594419	-0.446650	0.151968
C57	C	-0.594417	-0.393232	0.151964
C58	C	-0.633366	-0.366522	0.113042
C59	C	-0.633371	-0.313120	0.113056
N60	N	-0.672313	-0.286407	0.074132
C61	C	-0.711260	-0.313109	0.035208
C62	C	-0.633398	-0.799185	0.113036
C63	C	-0.633402	-0.852600	0.113035
C64	C	-0.711295	-0.852588	0.035185
C65	C	-0.711293	-0.799173	0.035189
C66	C	-0.672340	-0.772473	0.074112
C67	C	-0.711254	-0.200941	0.035221
C68	C	-0.711251	-0.147525	0.035230
C69	C	-0.633356	-0.147541	0.113078
C70	C	-0.633361	-0.200952	0.113071
C71	C	-0.672312	-0.227651	0.074137
O72	O	-0.600278	-0.285458	0.146153
O73	O	-0.744373	-0.285476	0.002102
C74	C	-0.711268	-0.526757	0.035194
C75	C	-0.672323	-0.553467	0.074114
C76	C	-0.633377	-0.526766	0.113038
C77	C	-0.672328	-0.606881	0.074113
C78	C	-0.711274	-0.633583	0.035190
C79	C	-0.750217	-0.606870	-0.003734
C80	C	-0.750215	-0.553459	-0.003730
C81	C	-0.594434	-0.553479	0.151961
C82	C	-0.594439	-0.606890	0.151954
C83	C	-0.633386	-0.633592	0.113030
C84	C	0.223528	-0.000068	0.069388
C85	C	0.160311	-0.000059	0.070154
C86	C	-0.677071	-0.000073	-0.030013
C87	C	-0.676305	-0.000077	-0.093230
N88	N	-0.672349	0.120699	0.074111
C89	C	-0.723539	-0.000054	-0.492333
C90	C	-0.722827	-0.000050	-0.551733
O91	O	-0.766613	-0.000036	-0.588478
N92	N	-0.670551	-0.000045	-0.574359
C93	C	-0.618983	-0.000038	-0.537582
O94	O	-0.574452	-0.000033	-0.562281
C95	C	-0.619695	-0.000039	-0.478183
C96	C	-0.671974	-0.000049	-0.455560
C97	C	-0.775814	-0.000064	-0.469710
C98	C	-0.776525	-0.000069	-0.410313
C99	C	-0.724961	-0.000064	-0.373541
C100	C	-0.672685	-0.000054	-0.396164
C101	C	-0.568127	-0.000028	-0.441406
C102	C	-0.568844	-0.000028	-0.382004
C103	C	-0.621123	-0.000039	-0.359381
C104	C	-0.621832	-0.000054	-0.299995
N105	N	-0.674109	-0.000059	-0.277369
C106	C	-0.725673	-0.000064	-0.314141
C107	C	-0.617491	-0.000037	-0.662324
C108	C	-0.616778	-0.000040	-0.721722
C109	C	-0.720623	-0.000051	-0.735869
C110	C	-0.721335	-0.000052	-0.676470
C111	C	-0.669767	-0.000042	-0.639698
C112	C	-0.727163	-0.000075	-0.189405
C113	C	-0.727869	-0.000082	-0.130003
C114	C	-0.624025	-0.000068	-0.115860
C115	C	-0.623318	-0.000064	-0.175257
C116	C	-0.674891	-0.000066	-0.212029
O117	O	-0.578070	-0.000066	-0.263215
O118	O	-0.770196	-0.000063	-0.289434
C119	C	-0.667577	-0.000050	0.178283
C120	C	-0.668343	-0.000043	0.241500
H121	H	-0.098544	-0.000042	0.219617
H122	H	-0.575496	-0.000033	-0.632387
O123	O	-0.517974	-0.000035	-0.024304
C124	C	-0.485275	-0.000057	-0.070602
H125	H	-0.440859	0.016010	-0.055898
H126	H	-0.507392	0.024573	-0.106714
H127	H	-0.481133	-0.040771	-0.086634
H128	H	-0.486602	-0.000029	0.172254
O129	O	-0.517292	0.000007	-0.463277
C130	C	-0.471940	0.000002	-0.418073
H131	H	-0.487684	0.016061	-0.377809
H132	H	-0.435426	0.024648	-0.430277
H133	H	-0.456039	-0.040705	-0.409579
O134	O	-0.518764	0.000070	-0.346260
C135	C	-0.516084	0.044010	-0.311465
H136	H	-0.545342	0.074724	-0.333377
H137	H	-0.470174	0.058770	-0.304536
H138	H	-0.530567	0.034068	-0.268348
O139	O	-0.770767	-0.000074	-0.771516
C140	C	-0.817066	-0.000067	-0.738817
H141	H	-0.802356	-0.016134	-0.694400
H142	H	-0.853168	-0.024704	-0.760934
H143	H	-0.833112	0.040643	-0.734674
H144	H	0.167632	-0.000048	0.164421
H145	H	-0.378851	-0.000042	0.170970
H146	H	-0.817806	-0.000067	-0.499645
O147	O	-0.749181	-0.878452	-0.002651
C148	C	-0.783543	-0.843428	-0.037023
H149	H	-0.784061	-0.805351	-0.013680
H150	H	-0.829071	-0.858862	-0.045949
H151	H	-0.765286	-0.837749	-0.079234
O152	O	-0.209752	-0.000061	0.229171
C153	C	-0.164549	-0.000045	0.274524
H154	H	-0.124283	-0.016109	0.258788
H155	H	-0.176753	-0.024681	0.311047
H156	H	-0.156058	0.040667	0.290410
O157	O	-0.565944	-0.000013	-0.743599
C158	C	-0.520589	-0.000023	-0.698398
H159	H	-0.536326	0.016037	-0.658132
H160	H	-0.484072	0.024619	-0.710606
H161	H	-0.504693	-0.040733	-0.689907
H162	H	0.141947	-0.000063	-0.023982
H163	H	-0.742969	-0.125779	0.003535
O164	O	-0.134912	-0.000120	-0.080897
C165	C	-0.180116	-0.000118	-0.126249
H166	H	-0.220379	-0.016176	-0.110505
H167	H	-0.167911	-0.024766	-0.162762
H168	H	-0.188613	0.040589	-0.142151
O169	O	-0.573990	-0.000040	-0.080053
C170	C	-0.585835	-0.000057	-0.022777
H171	H	-0.630560	0.015999	-0.020751
H172	H	-0.552957	0.024586	0.004321
H173	H	-0.583565	-0.040767	-0.005585
O174	O	0.028440	0.000021	-0.030810
C175	C	0.038663	0.043961	-0.062578
H176	H	0.059126	0.074680	-0.032393
H177	H	-0.003607	0.058712	-0.085669
H178	H	0.068736	0.034022	-0.095359
O179	O	0.056377	0.000022	0.173966
C180	C	0.075182	0.043983	0.205363
H181	H	0.116293	0.058635	0.190074
H182	H	0.083696	0.034105	0.252839
H183	H	0.040766	0.074754	0.198566
H184	H	-0.763906	-0.000060	-0.658056
O185	O	-0.595516	-0.878463	0.150870
C186	C	-0.561151	-0.843435	0.185231
H187	H	-0.560644	-0.805361	0.161881
H188	H	-0.515621	-0.858869	0.194150
H189	H	-0.579400	-0.837752	0.227446
O190	O	-0.556527	-0.472509	0.189798
C191	C	-0.522164	-0.437477	0.224155
H192	H	-0.521662	-0.399404	0.200803
H193	H	-0.476632	-0.452907	0.233071
H194	H	-0.540410	-0.431794	0.266371
H195	H	-0.580748	-0.000070	-0.193677
H196	H	-0.246123	-0.000094	-0.071339
O197	O	-0.595451	-0.226881	0.150823
C198	C	-0.539132	-0.213816	0.141856
H199	H	-0.539120	-0.199125	0.096262
H200	H	-0.510512	-0.248944	0.148541
H201	H	-0.522224	-0.182817	0.173514
H202	H	-0.742971	-0.222673	0.003517
O203	O	-0.400887	-0.000129	-0.025619
C204	C	-0.366967	-0.044089	-0.029139
H205	H	-0.351924	-0.058736	0.015837
H206	H	-0.328194	-0.034214	-0.051619
H207	H	-0.393356	-0.074864	-0.054479
O208	O	-0.788063	-0.367361	-0.041585
C209	C	-0.822442	-0.402391	-0.075928
H210	H	-0.799095	-0.440467	-0.076445
H211	H	-0.831387	-0.386963	-0.121458
H212	H	-0.864643	-0.408069	-0.057653
H213	H	-0.781927	-0.468371	-0.035420
O214	O	-0.556657	-0.367240	0.189801
C215	C	-0.586951	-0.336354	0.224798
H216	H	-0.631643	-0.328345	0.201891
H217	H	-0.563125	-0.298796	0.233932
H218	H	-0.590579	-0.356943	0.266868
O219	O	-0.595602	-0.121541	0.150908
C220	C	-0.625896	-0.090650	0.185901
H221	H	-0.670591	-0.082649	0.162997
H222	H	-0.602075	-0.053088	0.195023
H223	H	-0.629517	-0.111231	0.227977
O224	O	-0.749031	-0.773188	-0.002676
C225	C	-0.718705	-0.742328	-0.037667
H226	H	-0.674027	-0.734312	-0.014732
H227	H	-0.742525	-0.704772	-0.046850
H228	H	-0.715041	-0.762944	-0.079714
H229	H	-0.769159	-0.000075	-0.219338
O230	O	-0.595639	-0.773198	0.150878
C231	C	-0.625935	-0.742310	0.185872
H232	H	-0.670623	-0.734295	0.162959
H233	H	-0.602106	-0.704756	0.195015
H234	H	-0.629575	-0.762903	0.227938
O235	O	-0.787991	-0.527577	-0.041657
C236	C	-0.779014	-0.540697	-0.097957
H237	H	-0.733403	-0.555356	-0.097951
H238	H	-0.785740	-0.505606	-0.126629
H239	H	-0.810637	-0.571738	-0.114819
O240	O	-0.788126	-0.632789	-0.041492
C241	C	-0.844451	-0.619730	-0.032537
H242	H	-0.844477	-0.605047	0.013059
H243	H	-0.873065	-0.654859	-0.039236
H244	H	-0.861358	-0.588727	-0.064191
H245	H	-0.562719	-0.531743	0.183657
O246	O	-0.556547	-0.632754	0.189789
C247	C	-0.522183	-0.597726	0.224150
H248	H	-0.521681	-0.559650	0.200804
H249	H	-0.476651	-0.613156	0.233064
H250	H	-0.540428	-0.592048	0.266368
O251	O	-0.778707	-0.000068	-0.108123
C252	C	-0.824064	-0.000082	-0.153322
H253	H	-0.808335	0.015988	-0.193587
H254	H	-0.860588	0.024550	-0.141109
H255	H	-0.839945	-0.040794	-0.161818
O256	O	-0.827360	-0.000053	-0.388437
C257	C	-0.872713	-0.000068	-0.433640
H258	H	-0.856979	0.015999	-0.473904
H259	H	-0.909239	0.024565	-0.421433
H260	H	-0.888595	-0.040780	-0.442136
