data_functionalizedCrystal
_audit_creation_method	'MofGen! by Chris Wilmer'
_symmetry_space_group_name_H-M	'P1'
_symmetry_Int_Tables_number	1
_symmetry_cell_setting	triclinic
loop_
_symmetry_equiv_pos_as_xyz
  x,y,z
_cell_length_a	19.188933
_cell_length_b	19.188930
_cell_length_c	14.048226
_cell_angle_alpha	90.007371
_cell_angle_beta	90.006708
_cell_angle_gamma	83.145175
loop_
_atom_site_label
_atom_site_type_symbol
_atom_site_fract_x
_atom_site_fract_y
_atom_site_fract_z
O1	O	0.926148	0.087171	0.079140
O2	O	0.722837	0.098904	0.079150
O3	O	0.830360	-0.008618	0.079126
O4	O	0.818625	0.194693	0.079164
O5	O	0.830342	-0.008615	-0.079196
O6	O	0.722820	0.098907	-0.079171
O7	O	0.926131	0.087174	-0.079182
Zn8	Zn	0.824472	0.093041	-0.104314
Zn9	Zn	0.824495	0.093037	0.104282
O10	O	0.818608	0.194696	-0.079158
C11	C	0.696817	0.098525	-0.000010
C12	C	0.619313	0.097384	-0.000007
C13	C	0.829971	-0.034628	-0.000038
C14	C	0.828830	-0.112132	-0.000046
C15	C	0.066067	0.089237	0.086283
C16	C	0.138891	0.090305	0.086286
C17	C	0.175299	0.090844	-0.000014
C18	C	0.138878	0.090297	-0.086325
C19	C	0.066056	0.089222	-0.086326
N20	N	0.284312	0.132264	-0.064244
N21	N	0.353489	0.133286	-0.064237
C22	C	0.394707	0.094082	-0.000015
N23	N	0.364133	0.053825	0.064214
N24	N	0.294949	0.052805	0.064209
C25	C	0.254262	0.092009	-0.000022
C26	C	0.510084	0.095782	0.086294
C27	C	0.582910	0.096846	0.086295
C28	C	0.582895	0.096845	-0.086319
C29	C	0.510071	0.095774	-0.086317
C30	C	0.473669	0.095246	-0.000007
C31	C	0.891921	-0.157056	-0.000053
C32	C	0.890849	-0.229880	-0.000038
C33	C	0.826683	-0.257777	-0.000034
C34	C	0.763584	-0.212843	-0.000021
C35	C	0.764658	-0.140021	-0.000027
N36	N	0.777630	-0.365781	-0.053912
N37	N	0.776615	-0.434960	-0.053908
C38	C	0.823445	-0.477185	-0.000015
N39	N	0.871340	-0.447620	0.053863
N40	N	0.872358	-0.378436	0.053855
C41	C	0.825512	-0.336739	-0.000027
C42	C	0.885378	-0.601073	-0.000005
C43	C	0.884304	-0.673898	0.000017
C44	C	0.757037	-0.656860	0.000024
C45	C	0.758113	-0.584037	0.000012
C46	C	0.822286	-0.556148	-0.000006
C47	C	0.952150	0.087553	-0.000020
C48	C	1.029655	0.088694	-0.000017
C49	C	0.818997	0.220705	0.000008
C50	C	0.820137	0.298210	0.000022
N51	N	0.824462	0.093043	-0.246674
C52	C	0.872129	0.045438	-0.703524
C53	C	0.872122	0.045443	-0.603867
C54	C	0.824495	0.093036	-0.554044
C55	C	0.776875	0.140633	-0.603885
C56	C	0.776885	0.140631	-0.703540
C57	C	0.776856	0.140633	-0.396170
C58	C	0.776844	0.140634	-0.296508
C59	C	0.872093	0.045445	-0.296497
C60	C	0.872103	0.045443	-0.396152
C61	C	0.824482	0.093038	-0.445986
N62	N	0.824511	0.093029	0.246642
H63	H	0.036433	0.088805	0.156563
H64	H	0.168526	0.090734	-0.156592
F65	F	0.471341	0.095217	0.178151
F66	F	0.697505	-0.092208	-0.000018
H67	H	0.480424	0.095334	-0.156591
F68	F	0.958002	-0.277699	-0.000045
F69	F	0.953675	-0.571389	-0.000029
H70	H	0.036410	0.088782	-0.156604
F71	F	0.726205	0.191286	-0.756575
H72	H	0.910910	0.006679	-0.744083
H73	H	0.910897	0.006691	-0.563293
H74	H	0.935682	-0.710475	0.000016
F75	F	0.922773	-0.005210	-0.243456
F76	F	0.922789	-0.005215	-0.449178
H77	H	0.738080	0.179392	-0.436741
F78	F	0.177651	0.090885	0.178142
H79	H	0.738098	0.179388	-0.563313
H80	H	0.612556	0.097283	0.156573
H81	H	0.944175	-0.134354	-0.000066
H82	H	0.612538	0.097281	-0.156587
F83	F	0.695294	-0.242534	-0.000011
H84	H	0.706738	-0.547459	0.000013
F85	F	0.688746	-0.686545	0.000033
H86	H	0.738062	0.179390	-0.255947
