data_functionalizedCrystal
_audit_creation_method	'MofGen! by Chris Wilmer'
_symmetry_space_group_name_H-M	'P1'
_symmetry_Int_Tables_number	1
_symmetry_cell_setting	triclinic
loop_
_symmetry_equiv_pos_as_xyz
  x,y,z
_cell_length_a	19.188930
_cell_length_b	19.188940
_cell_length_c	16.098538
_cell_angle_alpha	92.713234
_cell_angle_beta	87.256730
_cell_angle_gamma	83.146747
loop_
_atom_site_label
_atom_site_type_symbol
_atom_site_fract_x
_atom_site_fract_y
_atom_site_fract_z
O1	O	0.929296	0.084025	-0.069526
O2	O	1.429296	0.584025	0.430474
O3	O	0.725982	0.095762	-0.069469
O4	O	1.225982	0.595762	0.430531
O5	O	0.833502	-0.011761	-0.069492
O6	O	1.333502	0.488239	0.430508
O7	O	0.821776	0.191549	-0.069502
O8	O	1.321776	0.691549	0.430498
O9	O	0.827222	-0.005505	0.069022
O10	O	1.327222	0.494495	0.569022
O11	O	0.719702	0.102018	0.069046
O12	O	1.219702	0.602018	0.569046
O13	O	0.923015	0.090282	0.068989
O14	O	1.423015	0.590282	0.568989
Zn15	Zn	0.820361	0.097143	0.091009
Zn16	Zn	1.320361	0.597143	0.591009
Zn17	Zn	0.828636	0.088900	-0.091489
Zn18	Zn	1.328636	0.588900	0.408511
O19	O	0.815495	0.197805	0.069012
O20	O	1.315495	0.697805	0.569012
C21	C	0.696831	0.098511	-0.000204
C22	C	1.196831	0.598511	0.499796
C23	C	0.619325	0.097371	-0.000182
C24	C	1.119325	0.597371	0.499818
C25	C	0.574404	0.160461	-0.000198
C26	C	1.074404	0.660461	0.499802
C27	C	0.501581	0.159389	-0.000207
C28	C	1.001581	0.659389	0.499793
C29	C	0.473682	0.095222	-0.000217
C30	C	0.973682	0.595222	0.499783
C31	C	0.518613	0.032124	-0.000196
C32	C	1.018613	0.532124	0.499804
C33	C	0.591434	0.033199	-0.000179
C34	C	1.091434	0.533199	0.499821
N35	N	0.367839	0.044045	-0.047391
N36	N	0.867839	0.544045	0.452609
N37	N	0.298662	0.043029	-0.047409
N38	N	0.798662	0.543029	0.452591
C39	C	0.254276	0.091982	-0.000268
C40	C	0.754276	0.591982	0.499732
N41	N	0.281680	0.142000	0.046882
N42	N	0.781680	0.642000	0.546882
N43	N	0.350864	0.143018	0.046897
N44	N	0.850864	0.643018	0.546897
C45	C	0.394720	0.094050	-0.000236
C46	C	0.894720	0.594050	0.499764
C47	C	0.130391	0.153914	-0.000293
C48	C	0.630391	0.653914	0.499707
C49	C	0.057566	0.152839	-0.000297
C50	C	0.557566	0.652839	0.499703
C51	C	0.074600	0.025573	-0.000294
C52	C	0.574600	0.525573	0.499706
C53	C	0.147423	0.026650	-0.000282
C54	C	0.647423	0.526650	0.499718
C55	C	0.175314	0.090822	-0.000285
C56	C	0.675314	0.590822	0.499715
C57	C	0.829981	-0.034644	-0.000235
C58	C	1.329981	0.465356	0.499765
C59	C	0.828838	-0.112148	-0.000235
C60	C	1.328838	0.387852	0.499765
C61	C	0.817280	-0.661998	0.075251
C62	C	1.317280	-0.161998	0.575251
C63	C	0.818347	-0.589173	0.075256
C64	C	1.318347	-0.089173	0.575256
C65	C	0.822307	-0.556164	-0.000248
C66	C	1.322307	-0.056164	0.499752
C67	C	0.825183	-0.595983	-0.075761
C68	C	1.325183	-0.095983	0.424239
C69	C	0.824109	-0.668806	-0.075763
C70	C	1.324109	-0.168806	0.424237
N71	N	0.866272	-0.449679	-0.056458
N72	N	1.366272	0.050321	0.443542
N73	N	0.867293	-0.380501	-0.056451
N74	N	1.367293	0.119499	0.443549
C75	C	0.825541	-0.336755	-0.000246
C76	C	1.325541	0.163245	0.499754
N77	N	0.782736	-0.364801	0.055965
N78	N	1.282736	0.135199	0.555965
N79	N	0.781718	-0.433985	0.055960
N80	N	1.281718	0.066015	0.555960
C81	C	0.823471	-0.477201	-0.000254
C82	C	1.323471	0.022799	0.499746
C83	C	0.823816	-0.217979	0.075268
C84	C	1.323816	0.282021	0.575268
C85	C	0.824879	-0.145152	0.075269
C86	C	1.324879	0.354848	0.575269
C87	C	0.831722	-0.151965	-0.075750
C88	C	1.331722	0.348035	0.424250
C89	C	0.830653	-0.224789	-0.075749
C90	C	1.330653	0.275211	0.424251
C91	C	0.826703	-0.257792	-0.000238
C92	C	1.326703	0.242208	0.499762
C93	C	0.952167	0.087533	-0.000278
C94	C	1.452167	0.587533	0.499722
C95	C	1.029673	0.088672	-0.000305
C96	C	1.529673	0.588672	0.499695
C97	C	0.819016	0.220688	-0.000247
C98	C	1.319016	0.720688	0.499753
C99	C	0.820160	0.298192	-0.000252
C100	C	1.320160	0.798192	0.499748
N101	N	0.814719	0.102769	0.215560
N102	N	1.314719	0.602769	0.715560
N103	N	0.834284	0.083269	-0.216040
N104	N	1.334284	0.583269	0.283960
C105	C	0.860371	0.057148	0.259135
C106	C	1.360371	0.557148	0.759135
C107	C	0.856430	0.061089	0.346325
C108	C	1.356430	0.561089	0.846325
C109	C	0.806840	0.110656	0.389938
C110	C	1.306840	0.610656	0.889938
C111	C	0.761183	0.156279	0.346357
C112	C	1.261183	0.656279	0.846357
C113	C	0.765121	0.152334	0.259169
C114	C	1.265121	0.652334	0.759169
C115	C	0.792565	0.124947	0.653191
C116	C	1.292565	0.624947	1.153191
C117	C	0.788632	0.128891	0.740385
C118	C	1.288632	0.628891	1.240385
C119	C	0.883879	0.033699	0.740347
C120	C	1.383879	0.533699	1.240347
C121	C	0.887815	0.029761	0.653157
C122	C	1.387815	0.529761	1.153157
C123	C	0.842156	0.075382	0.609584
C124	C	1.342156	0.575382	1.109584
C125	C	0.802812	0.114688	0.479060
C126	C	1.302812	0.614688	0.979060
C127	C	0.846180	0.071346	0.520463
C128	C	1.346180	0.571346	1.020463
H129	H	0.183999	-0.024725	-0.000273
H130	H	0.683999	0.475275	0.499727
H131	H	0.822532	-0.112739	0.136755
H132	H	1.322532	0.387261	0.636755
H133	H	0.833002	-0.257204	-0.137232
H134	H	1.333002	0.242796	0.362768
H135	H	0.762436	0.155047	0.514577
H136	H	1.262436	0.655047	1.014577
H137	H	0.815989	-0.556751	0.136742
H138	H	1.315989	-0.056751	0.636742
H139	H	0.153100	0.206167	-0.000283
H140	H	0.653100	0.706167	0.499717
H141	H	0.814063	-0.688864	0.136739
H142	H	1.314063	-0.188864	0.636739
H143	H	0.900756	0.016788	0.223631
H144	H	1.400756	0.516788	0.723631
H145	H	0.834938	-0.125089	-0.137226
H146	H	1.334938	0.374911	0.362774
H147	H	0.826453	-0.701219	-0.137249
H148	H	1.326453	-0.201219	0.362751
H149	H	0.893604	0.023941	0.381803
H150	H	1.393604	0.523941	0.881803
H151	H	0.727945	0.189482	0.223691
H152	H	1.227945	0.689482	0.723691
H153	H	0.748247	0.169257	0.775891
H154	H	1.248247	0.669257	1.275891
H155	H	0.828405	-0.569102	-0.137236
H156	H	1.328405	-0.069102	0.362764
H157	H	0.597108	0.212715	-0.000202
H158	H	1.097108	0.712715	0.499798
H159	H	0.755388	0.162095	0.617720
H160	H	1.255388	0.662095	1.117720
H161	H	0.921052	-0.003444	0.775833
H162	H	1.421052	0.496556	1.275833
H163	H	0.051889	-0.026675	-0.000354
H164	H	0.551889	0.473325	0.499646
H165	H	0.720802	0.196635	0.381872
H166	H	1.220802	0.696635	0.881872
H167	H	0.820594	-0.244851	0.136753
H168	H	1.320594	0.255149	0.636753
H169	H	0.886555	0.030986	0.484951
H170	H	1.386555	0.530986	0.984951
H171	H	0.928196	-0.010600	0.617649
H172	H	1.428196	0.489400	1.117649
H173	H	0.495894	-0.020121	-0.000216
H174	H	0.995894	0.479879	0.499784
H175	H	0.464999	0.210766	-0.000218
H176	H	0.964999	0.710766	0.499782
H177	H	0.628010	-0.018178	-0.000166
H178	H	1.128010	0.481822	0.499834
H179	H	0.020991	0.204217	-0.000305
H180	H	0.520991	0.704217	0.499695
