data_functionalizedCrystal
_audit_creation_method	'MofGen! by Chris Wilmer'
_symmetry_space_group_name_H-M	'P1'
_symmetry_Int_Tables_number	1
_symmetry_cell_setting	triclinic
loop_
_symmetry_equiv_pos_as_xyz
  x,y,z
_cell_length_a	13.032831
_cell_length_b	15.298259
_cell_length_c	13.032721
_cell_angle_alpha	93.763564
_cell_angle_beta	89.097115
_cell_angle_gamma	91.307588
loop_
_atom_site_label
_atom_site_type_symbol
_atom_site_fract_x
_atom_site_fract_y
_atom_site_fract_z
Zn1	Zn	1.397587	-0.712487	0.450908
Zn2	Zn	1.397810	-0.583641	0.651544
Zn3	Zn	1.253999	-0.547553	0.465760
Zn4	Zn	1.204530	-0.707870	0.601982
O5	O	1.313482	-0.637888	0.542549
O6	O	1.538597	-0.712430	0.492049
O7	O	1.399529	-0.457839	0.653856
O8	O	1.293656	-0.556261	0.322814
O9	O	1.538761	-0.617768	0.639455
O10	O	1.399149	-0.677437	0.311902
O11	O	1.293872	-0.431325	0.517362
O12	O	1.106456	-0.551784	0.469304
O13	O	1.209344	-0.829497	0.554985
O14	O	1.070112	-0.669568	0.569386
O15	O	1.351182	-0.832889	0.443992
O16	O	1.351562	-0.613291	0.785945
O17	O	1.209560	-0.704561	0.749533
C18	C	1.051729	-0.606260	0.515579
C19	C	0.939743	-0.592752	0.504061
C20	C	1.274720	-0.863449	0.492303
C21	C	1.258202	-0.959569	0.470891
C22	C	0.871861	-0.644937	0.548560
C23	C	0.756117	-0.630978	0.536657
C24	C	1.431684	-1.285729	0.694808
C25	C	1.447198	-1.195418	0.714931
C26	C	1.399950	-1.136452	0.653923
C27	C	1.337186	-1.167804	0.572788
C28	C	1.321665	-1.258123	0.552668
C29	C	1.289931	-1.108846	0.511783
C30	C	1.227167	-1.140198	0.430648
C31	C	1.211649	-1.230509	0.410532
C32	C	1.258897	-1.289475	0.471540
C33	C	1.305452	-1.018527	0.531903
C34	C	1.195433	-0.990922	0.389763
C35	C	1.179920	-1.081232	0.369640
C36	C	1.576256	-0.669640	0.569624
C37	C	1.688235	-0.683170	0.581162
C38	C	1.275241	-0.662363	0.804291
C39	C	1.258969	-0.672874	0.916269
C40	C	1.352161	-0.413204	0.592532
C41	C	1.368916	-0.317081	0.613680
C42	C	1.351896	-0.613339	0.279782
C43	C	1.368266	-0.602877	0.167807
C44	C	1.322021	-0.632447	0.984171
C45	C	1.305204	-0.643310	1.099906
H46	H	0.899432	-0.699953	0.595466
Br47	Br	0.710180	-0.539285	0.458454
H48	H	1.192541	-0.715531	0.943818
H49	H	1.238772	-0.685969	1.127449
Br50	Br	0.734169	-0.774886	0.659332
H51	H	1.434705	-0.560225	1.140264
Br52	Br	0.893801	-0.501063	0.425861
H53	H	1.412584	-1.062918	0.670313
H54	H	1.356562	-0.993010	0.597958
Br55	Br	1.532373	-1.152874	0.825037
H56	H	1.388456	-0.589798	0.956624
Br57	Br	1.495782	-1.365755	0.777607
Br58	Br	1.094745	-1.123792	0.259531
H59	H	1.246272	-1.363015	0.455158
Br60	Br	1.131288	-0.910902	0.306976
Br61	Br	1.126416	-1.273056	0.300463
