data_functionalizedCrystal
_audit_creation_method	'MofGen! by Chris Wilmer'
_symmetry_space_group_name_H-M	'P1'
_symmetry_Int_Tables_number	1
_symmetry_cell_setting	triclinic
loop_
_symmetry_equiv_pos_as_xyz
  x,y,z
_cell_length_a	10.540535
_cell_length_b	9.482900
_cell_length_c	10.908937
_cell_angle_alpha	97.015561
_cell_angle_beta	72.304799
_cell_angle_gamma	80.618168
loop_
_atom_site_label
_atom_site_type_symbol
_atom_site_fract_x
_atom_site_fract_y
_atom_site_fract_z
O1	O	1.670115	-0.120812	0.160715
O2	O	1.296959	-0.120832	0.177735
O3	O	1.533001	-0.120815	-0.017251
O4	O	1.434074	-0.120829	0.355702
O5	O	1.485021	0.120974	0.022516
O6	O	1.248980	0.120957	0.217502
O7	O	1.622136	0.120977	0.200482
Cu8	Cu	1.431177	0.143044	0.212623
Cu9	Cu	1.487918	-0.142899	0.165594
O10	O	1.386094	0.120960	0.395468
C11	C	1.225948	0.000060	0.196343
C12	C	1.085841	0.000052	0.192526
C13	C	1.518257	0.000078	-0.045124
C14	C	1.545791	0.000074	-0.187425
C15	C	1.080497	0.000063	0.050162
C16	C	0.934669	0.000627	0.046239
C17	C	0.834855	0.137872	0.280180
C18	C	0.980934	0.137973	0.283226
C19	C	1.034925	-0.136996	0.240074
C20	C	0.890384	-0.138793	0.233194
C21	C	1.693148	0.000082	0.181874
C22	C	1.833257	0.000080	0.185689
N23	N	1.391278	0.344161	0.245700
N24	N	1.527829	-0.344017	0.132508
C25	C	1.476142	0.416367	0.175344
C26	C	1.442953	0.583782	0.202874
C27	C	1.473772	0.000065	-0.384427
C28	C	1.445312	0.000067	-0.237353
C29	C	1.400839	0.000063	0.423341
C30	C	1.373307	0.000058	0.565640
H31	H	0.937289	-0.098128	-0.026178
H32	H	0.820661	-0.147546	0.333595
O33	O	1.687648	0.000087	-0.274998
H34	H	1.724599	-0.098466	-0.352792
O35	O	1.604905	0.334074	0.068526
H36	H	1.668986	0.264697	0.111511
O37	O	1.303454	0.000076	-0.149767
H38	H	1.271027	-0.098468	-0.184742
H39	H	1.011262	0.241373	0.251723
O40	O	1.314156	0.666045	0.309674
H41	H	1.308305	0.784629	0.314546
O42	O	1.178026	-0.130804	-0.043762
H43	H	1.120428	-0.197073	-0.088554
H44	H	0.794370	0.240816	0.247831
O45	O	1.231458	0.000052	-0.346776
H46	H	1.231366	0.000045	-0.245004
O47	O	0.887147	0.132247	-0.006154
H48	H	0.782712	0.133101	-0.009155
O49	O	1.131564	-0.275392	0.158455
H50	H	1.093410	-0.370411	0.193911
H51	H	1.294047	0.406284	0.326311
O52	O	1.615617	0.000074	-0.472018
H53	H	1.648023	0.098635	-0.437045
O54	O	1.656627	0.573715	0.025712
H55	H	1.655524	0.602850	-0.069513
O56	O	1.127779	0.130767	0.000442
H57	H	1.155065	0.195724	0.076687
H58	H	0.979830	0.143857	0.388559
H59	H	0.893514	-0.240733	0.164156
O60	O	0.740905	0.144183	0.417301
H61	H	0.691958	0.048949	0.419561
H62	H	1.034324	-0.138333	0.344600
