data_functionalizedCrystal
_audit_creation_method	'MofGen! by Chris Wilmer'
_symmetry_space_group_name_H-M	'P1'
_symmetry_Int_Tables_number	1
_symmetry_cell_setting	triclinic
loop_
_symmetry_equiv_pos_as_xyz
  x,y,z
_cell_length_a	8.597339
_cell_length_b	12.376457
_cell_length_c	8.559649
_cell_angle_alpha	80.329288
_cell_angle_beta	102.373846
_cell_angle_gamma	86.026702
loop_
_atom_site_label
_atom_site_type_symbol
_atom_site_fract_x
_atom_site_fract_y
_atom_site_fract_z
O1	O	-2.016952	-0.102407	0.270868
O2	O	-1.573329	-0.059206	0.275289
O3	O	-1.834224	-0.084614	0.042328
O4	O	-1.756057	-0.076999	0.503829
O5	O	-1.769030	-0.266277	0.100486
O6	O	-1.508135	-0.240869	0.333447
O7	O	-1.951759	-0.284070	0.329026
Zn8	Zn	-1.719596	-0.291312	0.340470
Zn9	Zn	-1.805491	-0.051963	0.263845
O10	O	-1.690864	-0.258662	0.561987
C11	C	-1.484464	-0.144558	0.300651
C12	C	-1.316806	-0.128231	0.289557
N13	N	-1.660986	-0.454663	0.392765
C14	C	-2.000171	-0.842680	0.090115
C15	C	-2.041184	-0.728334	0.053513
C16	C	-1.946137	-0.659911	0.138322
C17	C	-1.810072	-0.705844	0.259741
C18	C	-1.769062	-0.820202	0.296355
C19	C	-1.715029	-0.637433	0.344563
C20	C	-1.578964	-0.683366	0.465981
C21	C	-1.537960	-0.797713	0.502588
C22	C	-1.633006	-0.866136	0.417778
C23	C	-1.756039	-0.523075	0.307948
C24	C	-1.524930	-0.500597	0.514189
C25	C	-1.483917	-0.614943	0.550790
C26	C	-1.040624	-0.198721	0.303658
C27	C	-1.208284	-0.215057	0.314734
C28	C	-1.807551	-0.176020	0.012157
C29	C	-1.825186	-0.177731	-0.164389
N30	N	-1.864115	0.111386	0.211538
C31	C	-1.717537	-0.167254	0.592157
C32	C	-1.699905	-0.165535	0.768702
H33	H	-1.281458	-0.041398	0.259502
O34	O	-1.969347	-0.191823	-0.256924
C35	C	-2.082297	-0.202784	-0.159281
H36	H	-2.017214	-0.232034	-0.026346
H37	H	-2.154913	-0.119654	-0.173424
C38	C	-2.275437	-0.251615	-0.376362
C39	C	-2.195501	-0.287549	-0.213090
H40	H	-2.345272	-0.303898	-0.409557
H41	H	-2.199344	-0.244226	-0.442149
H42	H	-2.335938	-0.182340	-0.388127
H43	H	-2.134986	-0.356816	-0.201331
H44	H	-2.271587	-0.294952	-0.147302
H45	H	-1.243641	-0.301896	0.344780
H46	H	-1.979536	-0.566806	0.108516
O47	O	-1.888100	-0.478277	0.189999
C48	C	-1.903857	-0.362670	0.175776
H49	H	-1.838256	-0.340091	0.294440
H50	H	-1.849935	-0.323915	0.071903
C51	C	-2.163099	-0.346973	-0.005486
C52	C	-2.082537	-0.319241	0.140265
H53	H	-2.273316	-0.320182	-0.027398
H54	H	-2.152482	-0.424859	0.004091
H55	H	-2.118146	-0.314675	-0.092030
H56	H	-2.127477	-0.351550	0.226808
H57	H	-2.093166	-0.241359	0.130702
O58	O	-2.092480	-0.909025	0.007481
C59	C	-2.096252	-0.880511	-0.159944
H60	H	-2.067685	-0.791805	-0.189137
H61	H	-2.003566	-0.938099	-0.192076
C62	C	-2.299253	-1.000350	-0.224131
C63	C	-2.264179	-0.891396	-0.259989
H64	H	-2.402835	-1.007068	-0.285845
H65	H	-2.296708	-1.019563	-0.111333
H66	H	-2.222002	-1.048327	-0.250908
H67	H	-2.341417	-0.843423	-0.233192
H68	H	-2.266741	-0.872175	-0.372785
H69	H	-2.151968	-0.690939	-0.045343
H70	H	-1.599611	-0.959246	0.447574
O71	O	-1.555981	-0.151464	-0.138306
C72	C	-1.569819	-0.152833	0.023177
H73	H	-1.700347	-0.129950	0.023995
H74	H	-1.527255	-0.238884	0.098750
C75	C	-1.305794	-0.097100	0.095374
C76	C	-1.466110	-0.068987	0.096378
H77	H	-1.241817	-0.045385	0.140532
H78	H	-1.296468	-0.096182	-0.013418
H79	H	-1.270346	-0.168811	0.158350
H80	H	-1.501561	0.002717	0.033386
H81	H	-1.475440	-0.069891	0.205162
H82	H	-1.427178	-0.835112	0.601466
H83	H	-1.373130	-0.652357	0.649652
H84	H	-1.447537	-0.444887	0.583252
