data_functionalizedCrystal
_audit_creation_method	'MofGen! by Chris Wilmer'
_symmetry_space_group_name_H-M	'P1'
_symmetry_Int_Tables_number	1
_symmetry_cell_setting	triclinic
loop_
_symmetry_equiv_pos_as_xyz
  x,y,z
_cell_length_a	18.101398
_cell_length_b	13.032721
_cell_length_c	13.032268
_cell_angle_alpha	76.710373
_cell_angle_beta	97.157621
_cell_angle_gamma	82.799479
loop_
_atom_site_label
_atom_site_type_symbol
_atom_site_fract_x
_atom_site_fract_y
_atom_site_fract_z
Zn1	Zn	1.028325	0.499224	-0.654372
Zn2	Zn	1.028244	0.654309	-0.499320
Zn3	Zn	0.922501	0.476704	-0.476774
Zn4	Zn	0.886455	0.676763	-0.676838
O5	O	0.966381	0.576750	-0.576826
O6	O	1.131942	0.519824	-0.633837
O7	O	1.029269	0.611927	-0.347711
O8	O	0.951658	0.331063	-0.481495
O9	O	1.131883	0.633764	-0.519921
O10	O	1.029407	0.347609	-0.611975
O11	O	0.951579	0.481442	-0.331147
O12	O	0.814092	0.503215	-0.503280
O13	O	0.890223	0.672034	-0.822475
O14	O	0.787609	0.650197	-0.650266
O15	O	0.994454	0.541597	-0.805969
O16	O	0.994317	0.805916	-0.541705
O17	O	0.890144	0.822413	-0.672127
C18	C	0.773981	0.576700	-0.576765
C19	C	0.691666	0.576707	-0.576767
C20	C	0.938328	0.852705	-0.611824
C21	C	0.926391	0.970764	-0.626832
C22	C	0.938327	0.611832	-0.853835
C23	C	0.926371	0.626782	-0.971879
C24	C	0.392559	0.576785	-0.576865
C25	C	0.440523	0.483948	-0.484733
C26	C	0.526154	0.484125	-0.484413
C27	C	0.540950	0.576745	-0.576816
C28	C	0.501599	0.684750	-0.560440
C29	C	0.416058	0.684220	-0.559814
C30	C	0.415648	0.562613	-0.685689
C31	C	0.501613	0.560044	-0.684759
C32	C	0.624813	0.576730	-0.576792
C33	C	0.308696	0.576807	-0.576888
C34	C	1.159533	0.576801	-0.576888
C35	C	1.241843	0.576823	-0.576914
C36	C	0.994562	0.299721	-0.541714
C37	C	1.006571	0.181667	-0.526752
C38	C	0.972646	1.015207	-0.569041
C39	C	0.960309	1.137227	-0.584551
C40	C	0.972613	0.568909	-1.016340
C41	C	0.960258	0.584359	-1.138346
C42	C	0.994377	0.541728	-0.300885
C43	C	1.006506	0.526479	-0.182803
H44	H	0.553655	0.403590	-0.493048
H45	H	0.509725	0.755157	-0.626067
O46	O	0.902233	1.199562	-0.657429
C47	C	0.910344	1.185862	-0.759878
H48	H	0.972027	1.155920	-0.761460
H49	H	0.891296	1.265490	-0.821551
H50	H	0.874270	1.125101	-0.779467
O51	O	1.030673	0.496089	-0.953881
C52	C	1.001943	0.419394	-0.881032
H53	H	0.943671	0.454759	-0.869258
H54	H	1.041401	0.395362	-0.801199
H55	H	0.997527	0.346047	-0.913729
O56	O	0.868232	1.032978	-0.699639
C57	C	0.827607	0.967961	-0.750341
H58	H	0.865505	0.889296	-0.744073
H59	H	0.807963	1.010666	-0.838059
H60	H	0.776504	0.951347	-0.709893
H61	H	0.383128	0.754968	-0.624764
O62	O	0.902022	0.657002	-1.200617
C63	C	0.833294	0.630393	-1.170612
H64	H	0.841257	0.541701	-1.129296
H65	H	0.788440	0.648710	-1.244751
H66	H	0.814610	0.679250	-1.113531
O67	O	1.064806	1.119367	-0.454140
C68	C	1.133535	1.149276	-0.480841
H69	H	1.125569	1.190549	-0.569543
H70	H	1.178382	1.075091	-0.462528
H71	H	1.152233	1.206372	-0.432046
O72	O	1.030876	0.952905	-0.496430
C73	C	1.099607	0.982812	-0.523126
H74	H	1.091644	1.024082	-0.611828
H75	H	1.144453	0.908626	-0.504807
H76	H	1.118302	1.039911	-0.474332
H77	H	1.055243	0.465484	-1.130548
O78	O	0.868261	0.699673	-1.034114
C79	C	0.876407	0.802139	-1.020532
H80	H	0.912752	0.794217	-0.940264
H81	H	0.818489	0.849289	-1.022868
H82	H	0.904565	0.845768	-1.087478
O83	O	0.423651	0.387619	-0.494882
C84	C	0.368237	0.402716	-0.585496
H85	H	0.335515	0.487298	-0.605559
H86	H	0.327839	0.342764	-0.568137
H87	H	0.396548	0.390294	-0.656064
H88	H	0.510873	0.623871	-0.755933
O89	O	0.422583	0.493816	-0.388807
C90	C	0.366824	0.584220	-0.404597
H91	H	0.368738	0.642422	-0.483890
H92	H	0.377759	0.624914	-0.336786
H93	H	0.308887	0.558430	-0.405880
O94	O	0.376772	0.643530	-0.767260
C95	C	0.328956	0.712682	-0.726261
H96	H	0.316834	0.667795	-0.645713
H97	H	0.273745	0.742693	-0.784165
H98	H	0.357625	0.783476	-0.715754
O99	O	0.558438	0.494088	-0.387965
C100	C	0.591781	0.587468	-0.402350
H101	H	0.604537	0.610473	-0.487381
H102	H	0.646431	0.572217	-0.343389
H103	H	0.551339	0.655221	-0.387911
O104	O	0.399286	0.700690	-0.465427
C105	C	0.417609	0.800065	-0.454539
H106	H	0.461929	0.823790	-0.506526
H107	H	0.440891	0.793519	-0.367475
H108	H	0.364825	0.863240	-0.480809
H109	H	0.528776	0.698969	-0.482248
H110	H	0.527960	0.480635	-0.697365
O111	O	0.396115	0.471231	-0.706677
C112	C	0.317431	0.475344	-0.712960
H113	H	0.294650	0.533696	-0.666996
H114	H	0.304486	0.392506	-0.676795
H115	H	0.289534	0.503156	-0.800165
