data_functionalizedCrystal
_audit_creation_method	'MofGen! by Chris Wilmer'
_symmetry_space_group_name_H-M	'P1'
_symmetry_Int_Tables_number	1
_symmetry_cell_setting	triclinic
loop_
_symmetry_equiv_pos_as_xyz
  x,y,z
_cell_length_a	9.065218
_cell_length_b	8.559649
_cell_length_c	7.540329
_cell_angle_alpha	89.998238
_cell_angle_beta	89.996962
_cell_angle_gamma	77.397275
loop_
_atom_site_label
_atom_site_type_symbol
_atom_site_fract_x
_atom_site_fract_y
_atom_site_fract_z
O1	O	1.931006	0.233903	-0.147477
O2	O	2.431006	0.733903	0.352523
O3	O	1.499311	0.253089	-0.147479
O4	O	1.999311	0.753089	0.352521
O5	O	1.753191	0.011444	-0.147476
O6	O	2.253191	0.511444	0.352524
O7	O	1.677126	0.475547	-0.147480
O8	O	2.177126	0.975547	0.352520
O9	O	1.753178	0.011441	0.147489
O10	O	2.253178	0.511441	0.647489
O11	O	1.499298	0.253085	0.147486
O12	O	1.999298	0.753085	0.647486
O13	O	1.930993	0.233900	0.147488
O14	O	2.430993	0.733900	0.647488
Cu15	Cu	1.715144	0.243492	0.174419
Cu16	Cu	2.215144	0.743492	0.674419
Cu17	Cu	1.715160	0.243496	-0.174411
Cu18	Cu	2.215160	0.743496	0.325589
O19	O	1.677113	0.475544	0.147485
O20	O	2.177113	0.975544	0.647485
C21	C	1.444549	0.251243	0.000003
C22	C	1.944549	0.751243	0.500003
C23	C	1.281399	0.245730	0.000002
C24	C	1.781399	0.745730	0.500002
C25	C	1.758949	-0.048004	0.000003
C26	C	2.258949	0.451996	0.500003
C27	C	1.776108	-0.225136	-0.000007
C28	C	2.276108	0.274864	0.499993
C29	C	1.985755	0.235745	0.000002
C30	C	2.485755	0.735745	0.500002
C31	C	2.148905	0.241258	-0.000009
C32	C	2.648905	0.741258	0.499991
C33	C	1.671355	0.534992	0.000002
C34	C	2.171355	1.034992	0.500002
C35	C	1.654196	0.712124	-0.000000
C36	C	2.154196	1.212124	0.500000
N37	N	1.715144	0.243489	0.419768
N38	N	2.215144	0.743489	0.919768
N39	N	1.715173	0.243487	-0.419759
N40	N	2.215173	0.743487	0.080241
H41	H	1.536695	-0.206080	0.000005
H42	H	2.036695	0.293920	0.500005
Br43	Br	1.971968	-0.361470	0.000026
Br44	Br	2.471968	0.138530	0.500026
