data_functionalizedCrystal
_audit_creation_method	'MofGen! by Chris Wilmer'
_symmetry_space_group_name_H-M	'P1'
_symmetry_Int_Tables_number	1
_symmetry_cell_setting	triclinic
loop_
_symmetry_equiv_pos_as_xyz
  x,y,z
_cell_length_a	6.817900
_cell_length_b	15.300992
_cell_length_c	14.125465
_cell_angle_alpha	95.705154
_cell_angle_beta	100.398878
_cell_angle_gamma	104.175078
loop_
_atom_site_label
_atom_site_type_symbol
_atom_site_fract_x
_atom_site_fract_y
_atom_site_fract_z
V1	V	-3.994724	-0.123983	-0.300264
O2	O	-3.979323	0.006755	-0.294250
O3	O	-3.949850	-0.246604	-0.298497
O4	O	-3.930804	-0.121726	-0.431089
O5	O	-3.998500	-0.118987	-0.160741
V6	V	-4.479906	-0.108386	-0.283541
O7	O	-4.252343	-0.158195	-0.336947
O8	O	-4.672484	-0.074174	-0.246858
O9	O	-4.301574	0.014234	-0.285308
O10	O	-4.612705	-0.239124	-0.289555
O11	O	-4.593527	-0.113382	-0.423065
O12	O	-4.320620	-0.110643	-0.152717
C13	C	-3.796211	-0.276507	-0.293835
C14	C	-3.840705	-0.376749	-0.293262
C15	C	-3.831423	-0.411193	-0.204857
C16	C	-3.873249	-0.505382	-0.204323
C17	C	-3.924342	-0.565124	-0.292193
C18	C	-3.933630	-0.530675	-0.380605
C19	C	-3.891818	-0.436488	-0.381139
C20	C	-4.020771	-0.726989	-0.379486
C21	C	-4.062581	-0.821182	-0.378952
C22	C	-4.002201	-0.795882	-0.202669
C23	C	-3.960390	-0.701696	-0.203203
C24	C	-3.969676	-0.667252	-0.291615
C25	C	-3.771915	-0.117212	-0.462967
C26	C	-3.800960	-0.116178	-0.569919
C27	C	-3.854199	-0.114282	-0.765738
C28	C	-4.039801	-0.118085	-0.818068
C29	C	-4.069425	-0.117030	-0.927028
C30	C	-3.824566	-0.115337	-0.656768
C31	C	-4.118555	0.044133	-0.289968
C32	C	-4.053299	0.144374	-0.290547
C33	C	-4.142852	-0.115160	-0.120833
C34	C	-4.093045	-0.116190	-0.013881
H35	H	-3.789804	-0.362555	-0.133302
C36	C	-4.224417	-0.123566	-0.768045
N37	N	-4.363465	-0.127699	-0.730365
H38	H	-3.717560	-0.110235	-0.802766
H39	H	-3.899400	-0.408447	-0.453128
H40	H	-3.865692	-0.533421	-0.132335
H41	H	-4.028369	-0.698950	-0.451481
C42	C	-3.991969	-0.833771	-0.105415
N43	N	-3.984250	-0.862313	-0.032165
C44	C	-3.904170	-0.635979	-0.106541
N45	N	-3.861828	-0.586482	-0.033733
C46	C	-3.989814	-0.596395	-0.477263
N47	N	-4.032116	-0.645894	-0.550068
C48	C	-4.118809	-0.886898	-0.475615
N49	N	-4.161167	-0.936396	-0.548423
