data_functionalizedCrystal
_audit_creation_method	'MofGen! by Chris Wilmer'
_symmetry_space_group_name_H-M	'P1'
_symmetry_Int_Tables_number	1
_symmetry_cell_setting	triclinic
loop_
_symmetry_equiv_pos_as_xyz
  x,y,z
_cell_length_a	14.971486
_cell_length_b	10.654545
_cell_length_c	13.448316
_cell_angle_alpha	89.995767
_cell_angle_beta	89.998199
_cell_angle_gamma	84.049778
loop_
_atom_site_label
_atom_site_type_symbol
_atom_site_fract_x
_atom_site_fract_y
_atom_site_fract_z
O1	O	1.187838	0.163659	-0.082572
O2	O	0.927545	0.183258	-0.082599
O3	O	1.063676	-0.009345	-0.082584
O4	O	1.051708	0.356262	-0.082587
O5	O	1.063658	-0.009357	0.082800
O6	O	0.927528	0.183246	0.082785
O7	O	1.187821	0.163647	0.082812
Cu8	Cu	1.057673	0.173445	0.097899
Cu9	Cu	1.057693	0.173460	-0.097686
O10	O	1.051690	0.356250	0.082797
C11	C	0.894207	0.182375	0.000090
C12	C	0.794896	0.179749	0.000080
C13	C	0.738286	0.292898	0.000080
C14	C	0.644973	0.290422	0.000095
C15	C	0.608271	0.174797	0.000102
C16	C	0.664888	0.061639	0.000105
C17	C	0.758199	0.064116	0.000097
C18	C	0.470397	0.056485	0.000118
C19	C	0.377080	0.054007	0.000124
C20	C	0.357172	0.282791	0.000116
C21	C	0.450483	0.285268	0.000109
C22	C	0.507093	0.172110	0.000109
C23	C	1.062788	-0.056139	0.000106
C24	C	1.060158	-0.195555	0.000100
C25	C	1.060188	-0.195550	-0.180207
C26	C	1.058971	-0.261045	-0.270360
C27	C	1.056500	-0.392037	-0.270361
C28	C	1.055244	-0.457537	-0.180200
C29	C	1.056461	-0.392043	-0.090047
C30	C	1.058935	-0.261048	-0.090055
C31	C	1.056425	-0.392046	0.090257
C32	C	1.058902	-0.261055	0.090261
C33	C	1.055169	-0.457546	0.180419
C34	C	1.056393	-0.392053	0.270574
C35	C	1.058865	-0.261053	0.270571
C36	C	1.060120	-0.195560	0.180414
C37	C	1.221159	0.164530	0.000121
C38	C	1.320471	0.167156	0.000125
C39	C	1.052578	0.403044	0.000105
C40	C	1.055208	0.542460	0.000105
N41	N	1.057665	0.173435	0.235464
N42	N	1.057708	0.173460	-0.235251
C43	C	1.117963	0.088185	0.287510
C44	C	1.117968	0.088184	0.391614
C45	C	1.057680	0.173440	0.443668
C46	C	0.997376	0.258693	0.391614
C47	C	0.997366	0.258687	0.287513
C48	C	0.997400	0.258702	0.608594
C49	C	0.997410	0.258710	0.712703
C50	C	1.118002	0.088199	0.712695
C51	C	1.117993	0.088193	0.608594
C52	C	1.057690	0.173448	0.556547
H53	H	0.634998	-0.032505	0.000125
H54	H	1.167089	0.018778	0.566211
H55	H	1.053152	-0.564206	0.180411
C56	C	1.060203	-0.189019	0.369749
N57	N	1.061212	-0.134768	0.444452
C58	C	1.055005	-0.464110	0.369740
N59	N	1.053961	-0.518388	0.444434
H60	H	0.948283	0.328106	0.434003
H61	H	0.804290	-0.028022	0.000096
C62	C	1.060361	-0.188987	-0.369533
N63	N	1.061409	-0.134716	-0.444229
C64	C	1.184334	-0.005588	0.769949
N65	N	1.234294	-0.076223	0.813076
C66	C	1.062813	-0.051461	0.180403
N67	N	1.064828	0.057079	0.180390
C68	C	1.184286	-0.005604	0.230260
N69	N	1.234239	-0.076254	0.187142
H70	H	0.516488	-0.035661	0.000120
H71	H	0.948316	0.328132	0.755080
H72	H	1.055500	-0.445361	-0.343771
H73	H	1.053221	-0.564196	-0.180209
H74	H	0.598885	0.382559	0.000094
C75	C	1.184279	-0.005627	0.448860
N76	N	1.234219	-0.076302	0.491978
H77	H	0.948292	0.328122	0.566221
C78	C	0.490853	0.412462	0.000105
N79	N	0.521259	0.508266	0.000108
H80	H	0.768161	0.387053	0.000074
H81	H	0.311075	0.374929	0.000120
C82	C	0.931041	0.352478	0.230262
N83	N	0.881083	0.423125	0.187142
C84	C	0.336710	-0.073186	0.000134
N85	N	0.306304	-0.168991	0.000141
C86	C	1.062931	-0.051460	-0.180214
N87	N	1.065003	0.057070	-0.180221
