data_functionalizedCrystal
_audit_creation_method	'MofGen! by Chris Wilmer'
_symmetry_space_group_name_H-M	'P1'
_symmetry_Int_Tables_number	1
_symmetry_cell_setting	triclinic
loop_
_symmetry_equiv_pos_as_xyz
  x,y,z
_cell_length_a	10.686285
_cell_length_b	11.169417
_cell_length_c	11.169409
_cell_angle_alpha	90.022423
_cell_angle_beta	85.599661
_cell_angle_gamma	94.369367
loop_
_atom_site_label
_atom_site_type_symbol
_atom_site_fract_x
_atom_site_fract_y
_atom_site_fract_z
Zn1	Zn	-0.502287	-1.871646	-0.642015
Zn2	Zn	-0.168954	-1.538313	-0.308681
Zn3	Zn	0.164380	-1.204979	0.024652
Zn4	Zn	-0.713340	-1.886943	-0.425958
Zn5	Zn	-0.380006	-1.553610	-0.092625
Zn6	Zn	-0.046673	-1.220276	0.240708
Zn7	Zn	-0.502357	-1.670934	-0.441338
Zn8	Zn	-0.169023	-1.337601	-0.108004
Zn9	Zn	0.164310	-1.004268	0.225329
Zn10	Zn	-0.713230	-1.686342	-0.626605
Zn11	Zn	-0.379897	-1.353008	-0.293271
Zn12	Zn	-0.046563	-1.019675	0.040062
O13	O	-0.607803	-1.778966	-0.533979
O14	O	-0.274470	-1.445633	-0.200645
O15	O	0.058863	-1.112300	0.132688
O16	O	-0.530300	-2.041626	-0.613367
O17	O	-0.196967	-1.708293	-0.280034
O18	O	0.136366	-1.374960	0.053299
O19	O	-0.685427	-1.858243	-0.260043
O20	O	-0.352094	-1.524910	0.073290
O21	O	-0.018761	-1.191576	0.406624
O22	O	-0.325770	-1.684709	-0.480843
O23	O	0.007563	-1.351376	-0.147510
O24	O	0.340897	-1.018043	0.185823
O25	O	-0.685360	-2.052865	-0.454631
O26	O	-0.352027	-1.719532	-0.121298
O27	O	-0.018693	-1.386198	0.212035
O28	O	-0.325719	-1.832171	-0.628280
O29	O	0.007615	-1.498838	-0.294947
O30	O	0.340948	-1.165505	0.038387
O31	O	-0.530419	-1.699542	-0.271342
O32	O	-0.197086	-1.366209	0.061991
O33	O	0.136248	-1.032876	0.395325
O34	O	-0.530313	-1.505027	-0.465901
O35	O	-0.196979	-1.171694	-0.132567
O36	O	0.136354	-0.838361	0.200766
O37	O	-0.685173	-1.710969	-0.796604
O38	O	-0.351840	-1.377636	-0.463271
O39	O	-0.018506	-1.044302	-0.129937
O40	O	-0.685241	-1.516347	-0.602016
O41	O	-0.351907	-1.183014	-0.268682
O42	O	-0.018574	-0.849680	0.064651
O43	O	-0.530194	-1.847111	-0.807926
O44	O	-0.196861	-1.513778	-0.474593
O45	O	0.136472	-1.180445	-0.141259
O46	O	-0.889903	-1.873183	-0.439689
O47	O	-0.556569	-1.539849	-0.106355
O48	O	-0.223236	-1.206516	0.226978
O49	O	-0.889822	-1.725802	-0.587103
O50	O	-0.556489	-1.392468	-0.253769
O51	O	-0.223156	-1.059135	0.079564
C52	C	-0.607773	-1.467139	-0.533955
C53	C	-0.274440	-1.133806	-0.200622
C54	C	0.058893	-0.800473	0.132711
C55	C	-0.607791	-1.333741	-0.533972
C56	C	-0.274457	-1.000407	-0.200638
C57	C	0.058876	-0.667074	0.132695
C58	C	-0.935647	-1.802857	-0.510081
C59	C	-0.602314	-1.469523	-0.176748
C60	C	-0.268980	-1.136190	0.156586
C61	C	-1.075900	-1.813187	-0.499897
C62	C	-0.742567	-1.479853	-0.166564
C63	C	-0.409233	-1.146520	0.166769
C64	C	-0.278680	-1.755015	-0.557996
C65	C	0.054654	-1.421682	-0.224663
C66	C	0.387987	-1.088349	0.108671
C67	C	-0.138427	-1.744809	-0.568231
C68	C	0.194907	-1.411476	-0.234898
C69	C	0.528240	-1.078142	0.098436
C70	C	-0.607664	-1.779052	-0.847032
C71	C	-0.274330	-1.445719	-0.513698
C72	C	0.059003	-1.112386	-0.180365
C73	C	-0.607604	-1.779089	-0.980436
C74	C	-0.274271	-1.445756	-0.647103
C75	C	0.059063	-1.112422	-0.313769
C76	C	-0.607824	-1.092010	-0.533994
C77	C	-0.274491	-0.758677	-0.200661
C78	C	0.058843	-0.425343	0.132673
C79	C	-0.607806	-1.225409	-0.533978
C80	C	-0.274472	-0.892075	-0.200645
C81	C	0.058861	-0.558742	0.132688
C82	C	-0.607852	-1.778943	-0.222150
C83	C	-0.274518	-1.445610	0.111183
C84	C	0.058815	-1.112276	0.444516
C85	C	-0.607556	-1.779113	-0.088773
C86	C	-0.274222	-1.445780	0.244561
C87	C	0.059111	-1.112446	0.577894
H88	H	-1.084662	-1.678366	-0.634527
H89	H	-0.751329	-1.345033	-0.301193
H90	H	-0.417995	-1.011699	0.032140
C91	C	-1.148539	-1.902946	-0.410319
C92	C	-0.815206	-1.569613	-0.076986
C93	C	-0.481872	-1.236279	0.256348
N94	N	-1.203252	-1.970552	-0.342850
N95	N	-0.869919	-1.637219	-0.009517
N96	N	-0.536585	-1.303885	0.323816
