data_functionalizedCrystal
_audit_creation_method	'MofGen! by Chris Wilmer'
_symmetry_space_group_name_H-M	'P1'
_symmetry_Int_Tables_number	1
_symmetry_cell_setting	triclinic
loop_
_symmetry_equiv_pos_as_xyz
  x,y,z
_cell_length_a	8.559649
_cell_length_b	7.088928
_cell_length_c	8.559649
_cell_angle_alpha	95.315312
_cell_angle_beta	69.778664
_cell_angle_gamma	84.648213
loop_
_atom_site_label
_atom_site_type_symbol
_atom_site_fract_x
_atom_site_fract_y
_atom_site_fract_z
O1	O	-2.145605	0.158957	0.073709
O2	O	-1.645605	0.658957	0.573709
O3	O	-1.670121	0.158964	-0.010071
O4	O	-1.170121	0.658964	0.489929
O5	O	-1.949753	0.158958	0.269561
O6	O	-1.449753	0.658958	0.769561
O7	O	-1.865973	0.158963	-0.205923
O8	O	-1.365973	0.658963	0.294077
O9	O	-1.912279	-0.159016	0.232211
O10	O	-1.412279	0.340984	0.732211
O11	O	-1.632646	-0.159010	-0.047421
O12	O	-1.132646	0.340990	0.452579
O13	O	-2.108130	-0.159017	0.036359
O14	O	-1.608130	0.340983	0.536359
Cu15	Cu	-1.866967	-0.188047	-0.008941
Cu16	Cu	-1.366967	0.311953	0.491059
Cu17	Cu	-1.911285	0.187994	0.035229
Cu18	Cu	-1.411285	0.687994	0.535229
O19	O	-1.828498	-0.159011	-0.243273
O20	O	-1.328498	0.340989	0.256727
C21	C	-1.591075	-0.000022	-0.035095
C22	C	-1.091075	0.499978	0.464905
C23	C	-1.411376	-0.000019	-0.053994
C24	C	-0.911376	0.499981	0.446006
N25	N	-1.835808	-0.452534	-0.040006
N26	N	-1.335808	0.047466	0.459994
C27	C	-1.937366	-0.000026	0.311195
C28	C	-1.437366	0.499974	0.811195
C29	C	-1.956266	-0.000015	0.490896
C30	C	-1.456266	0.499985	0.990896
C31	C	-2.187177	-0.000027	0.061384
C32	C	-1.687177	0.499973	0.561384
C33	C	-2.366877	-0.000017	0.080284
C34	C	-1.866877	0.499983	0.580284
N35	N	-1.942458	0.452482	0.066308
N36	N	-1.442458	0.952482	0.566308
C37	C	-1.840886	-0.000023	-0.284907
C38	C	-1.340886	0.499977	0.215093
C39	C	-1.821987	-0.000021	-0.464606
C40	C	-1.321987	0.499979	0.035394
H41	H	-1.466257	-0.000009	0.209704
H42	H	-0.966257	0.499991	0.709704
O43	O	-1.279743	-0.000031	-0.225447
O44	O	-0.779743	0.499969	0.274553
H45	H	-1.154518	-0.000044	-0.213895
H46	H	-0.654518	0.499956	0.286105
O47	O	-2.088856	0.560632	0.212279
O48	O	-1.588856	1.060632	0.712279
H49	H	-2.163017	0.457551	0.286219
H50	H	-1.663017	0.957551	0.786219
H51	H	-1.692567	-0.000025	0.436015
H52	H	-1.192567	0.499975	0.936015
O53	O	-2.127708	-0.000041	0.622536
O54	O	-1.627708	0.499959	1.122536
H55	H	-2.223089	-0.000052	0.561673
H56	H	-1.723089	0.499948	1.061673
H57	H	-1.725286	0.465822	-0.150187
H58	H	-1.225286	0.965822	0.349813
