data_functionalizedCrystal
_audit_creation_method	'MofGen! by Chris Wilmer'
_symmetry_space_group_name_H-M	'P1'
_symmetry_Int_Tables_number	1
_symmetry_cell_setting	triclinic
loop_
_symmetry_equiv_pos_as_xyz
  x,y,z
_cell_length_a	14.519709
_cell_length_b	11.792241
_cell_length_c	13.596369
_cell_angle_alpha	89.999475
_cell_angle_beta	89.999684
_cell_angle_gamma	83.936780
loop_
_atom_site_label
_atom_site_type_symbol
_atom_site_fract_x
_atom_site_fract_y
_atom_site_fract_z
O1	O	-1.224415	-0.148773	0.081664
O2	O	-0.724415	0.351227	0.581664
O3	O	-0.956002	-0.166294	0.081694
O4	O	-0.456002	0.333706	0.581694
O5	O	-1.096722	0.007673	0.081671
O6	O	-0.596722	0.507673	0.581671
O7	O	-1.083695	-0.322740	0.081686
O8	O	-0.583695	0.177260	0.581686
O9	O	-1.096704	0.007664	-0.081912
O10	O	-0.596704	0.507664	0.418088
O11	O	-0.955984	-0.166303	-0.081889
O12	O	-0.455984	0.333697	0.418111
O13	O	-1.224397	-0.148782	-0.081919
O14	O	-0.724397	0.351218	0.418081
Zn15	Zn	-1.090188	-0.157544	-0.107877
Zn16	Zn	-0.590188	0.342456	0.392123
Zn17	Zn	-1.090211	-0.157532	0.107651
Zn18	Zn	-0.590211	0.342468	0.607651
O19	O	-1.083677	-0.322749	-0.081897
O20	O	-0.583677	0.177251	0.418103
C21	C	-0.921630	-0.165482	-0.000094
C22	C	-0.421630	0.334518	0.499906
C23	C	-0.819240	-0.163035	-0.000083
C24	C	-0.319240	0.336965	0.499917
N25	N	-1.090179	-0.157552	-0.254968
N26	N	-0.590179	0.342448	0.245032
C27	C	-1.258769	-0.149594	-0.000129
C28	C	-0.758769	0.350406	0.499871
C29	C	-1.361159	-0.152041	-0.000134
C30	C	-0.861159	0.347959	0.499866
C31	C	-0.444311	-0.154027	-0.000128
C32	C	0.055689	0.345973	0.499872
C33	C	-0.548628	-0.156528	-0.000115
C34	C	-0.048628	0.343472	0.499885
C35	C	-0.631772	-0.158531	-0.000104
C36	C	-0.131772	0.341469	0.499896
C37	C	-0.736096	-0.161033	-0.000093
C38	C	-0.236096	0.338967	0.499907
C39	C	-1.095895	0.049955	-0.000120
C40	C	-0.595895	0.549955	0.499880
C41	C	-1.093446	0.175955	-0.000119
C42	C	-0.593446	0.675955	0.499881
C43	C	-1.084504	-0.365031	-0.000103
C44	C	-0.584504	0.134969	0.499897
C45	C	-1.086953	-0.491031	-0.000098
C46	C	-0.586953	0.008969	0.499902
C47	C	-1.088942	0.406642	-0.000102
C48	C	-0.588942	0.906642	0.499898
C49	C	-1.091444	0.278271	-0.000111
C50	C	-0.591444	0.778271	0.499889
C51	C	-1.090184	-0.157555	-0.343966
C52	C	-0.590184	0.342445	0.156034
C53	C	-1.090193	-0.157547	-0.455618
C54	C	-0.590193	0.342453	0.044382
C55	C	-1.090205	-0.157534	-0.544608
C56	C	-0.590205	0.342466	-0.044608
C57	C	-1.090215	-0.157527	-0.656267
C58	C	-0.590215	0.342473	-0.156267
N59	N	-1.090227	-0.157515	0.254743
N60	N	-0.590227	0.342485	0.754743
