data_functionalizedCrystal
_audit_creation_method	'MofGen! by Chris Wilmer'
_symmetry_space_group_name_H-M	'P1'
_symmetry_Int_Tables_number	1
_symmetry_cell_setting	triclinic
loop_
_symmetry_equiv_pos_as_xyz
  x,y,z
_cell_length_a	21.295417
_cell_length_b	19.805407
_cell_length_c	19.805398
_cell_angle_alpha	90.015489
_cell_angle_beta	89.970820
_cell_angle_gamma	89.973343
loop_
_atom_site_label
_atom_site_type_symbol
_atom_site_fract_x
_atom_site_fract_y
_atom_site_fract_z
Zn1	Zn	-0.250699	-1.034692	-0.382697
Zn2	Zn	0.249301	-0.534692	0.117303
Zn3	Zn	-0.355964	-1.034606	-0.269503
Zn4	Zn	0.144036	-0.534606	0.230497
Zn5	Zn	-0.250706	-0.921514	-0.269523
Zn6	Zn	0.249294	-0.421514	0.230477
Zn7	Zn	-0.355927	-0.921462	-0.382650
Zn8	Zn	0.144073	-0.421462	0.117350
O9	O	-0.303324	-0.978068	-0.326093
O10	O	0.196676	-0.478068	0.173907
O11	O	-0.264675	-1.129397	-0.367693
O12	O	0.235325	-0.629397	0.132307
O13	O	-0.342020	-1.019590	-0.174789
O14	O	0.157980	-0.519590	0.325211
O15	O	-0.162616	-0.936585	-0.284564
O16	O	0.337384	-0.436585	0.215436
O17	O	-0.342013	-1.129334	-0.284530
O18	O	0.157987	-0.629334	0.215470
O19	O	-0.162610	-1.019736	-0.367713
O20	O	0.337390	-0.519736	0.132287
O21	O	-0.264688	-0.936501	-0.174804
O22	O	0.235312	-0.436501	0.325196
O23	O	-0.264651	-0.826790	-0.284518
O24	O	0.235349	-0.326790	0.215482
O25	O	-0.341950	-0.936496	-0.477373
O26	O	0.158050	-0.436496	0.022627
O27	O	-0.341957	-0.826752	-0.367632
O28	O	0.158043	-0.326752	0.132368
O29	O	-0.264639	-1.019686	-0.477408
O30	O	0.235361	-0.519686	0.022592
O31	O	-0.444049	-1.019539	-0.284484
O32	O	0.055951	-0.519539	0.215516
O33	O	-0.444021	-0.936413	-0.367613
O34	O	0.055979	-0.436413	0.132387
C35	C	-0.303301	-0.802212	-0.326073
C36	C	0.196699	-0.302212	0.173927
C37	C	-0.303306	-0.726980	-0.326080
C38	C	0.196694	-0.226980	0.173920
C39	C	-0.263107	-0.691669	-0.369448
C40	C	0.236893	-0.191669	0.130552
C41	C	-0.263109	-0.620981	-0.369449
C42	C	0.236891	-0.120981	0.130551
C43	C	-0.303314	-0.585605	-0.326085
C44	C	0.196686	-0.085605	0.173915
C45	C	-0.343515	-0.620920	-0.282711
C46	C	0.156485	-0.120920	0.217289
C47	C	-0.343510	-0.691607	-0.282708
C48	C	0.156490	-0.191607	0.217292
C49	C	-0.343538	-0.335847	-0.282725
C50	C	0.156462	0.164153	0.217275
C51	C	-0.343542	-0.265155	-0.282734
C52	C	0.156458	0.234845	0.217266
C53	C	-0.263137	-0.265221	-0.369467
C54	C	0.236863	0.234779	0.130533
C55	C	-0.263132	-0.335908	-0.369463
C56	C	0.236868	0.164092	0.130537
C57	C	-0.303330	-0.371217	-0.326088
C58	C	0.196670	0.128783	0.173912
C59	C	-0.303327	-0.447866	-0.326086
C60	C	0.196673	0.052134	0.173914
C61	C	-0.303321	-0.508957	-0.326089
C62	C	0.196679	-0.008957	0.173911
C63	C	-0.466876	-0.977979	-0.326056
C64	C	0.033124	-0.477979	0.173944
C65	C	-0.536844	-0.978003	-0.326062
C66	C	-0.036844	-0.478003	0.173938
C67	C	-0.569704	-1.021326	-0.282822
C68	C	-0.069704	-0.521326	0.217178
C69	C	-0.635446	-1.021357	-0.282837
C70	C	-0.135446	-0.521357	0.217163
C71	C	-0.668326	-0.978055	-0.326086
C72	C	-0.168326	-0.478055	0.173914
C73	C	-0.635458	-0.934729	-0.369335
C74	C	-0.135458	-0.434729	0.130665
C75	C	-0.569717	-0.934704	-0.369323
C76	C	-0.069717	-0.434704	0.130677
N77	N	-0.771589	-0.918844	-0.331239
N78	N	-0.271589	-0.418844	0.168761
N79	N	-0.834040	-0.918870	-0.331246
N80	N	-0.334040	-0.418870	0.168754
C81	C	-0.866401	-0.978131	-0.326125
C82	C	-0.366401	-0.478131	0.173875
N83	N	-0.833951	-1.037365	-0.320983
N84	N	-0.333951	-0.537365	0.179017
N85	N	-0.771494	-1.037338	-0.320972
N86	N	-0.271494	-0.537338	0.179028
C87	C	-0.739612	-0.978078	-0.326104
C88	C	-0.239612	-0.478078	0.173896
C89	C	-0.970547	-1.021491	-0.282898
C90	C	-0.470547	-0.521491	0.217102
C91	C	-1.036290	-1.021524	-0.282918
C92	C	-0.536290	-0.521524	0.217082
C93	C	-1.036301	-0.934890	-0.369413
C94	C	-0.536301	-0.434890	0.130587
C95	C	-0.970558	-0.934863	-0.369396
C96	C	-0.470558	-0.434863	0.130604
C97	C	-0.937685	-0.978163	-0.326135
C98	C	-0.437685	-0.478163	0.173865
C99	C	-0.139134	-0.978176	-0.326146
C100	C	0.360866	-0.478176	0.173854
C101	C	-0.069166	-0.978221	-0.326168
C102	C	0.430834	-0.478221	0.173832
C103	C	-0.303289	-0.978095	-0.502636
C104	C	0.196711	-0.478095	-0.002636
C105	C	-0.303274	-0.978106	-0.577868
C106	C	0.196726	-0.478106	-0.077868
C107	C	-0.303343	-0.154611	-0.326108
C108	C	0.196657	0.345389	0.173892
C109	C	-0.303339	-0.229843	-0.326099
C110	C	0.196661	0.270157	0.173901
C111	C	-0.262907	-1.021504	-1.039679
C112	C	0.237093	-0.521504	-0.539679
C113	C	-0.262926	-1.021494	-0.968990
C114	C	0.237074	-0.521494	-0.468990
C115	C	-0.303187	-0.978175	-0.933630
C116	C	0.196813	-0.478175	-0.433630
C117	C	-0.343435	-0.934870	-0.968962
C118	C	0.156565	-0.434870	-0.468962
C119	C	-0.343418	-0.934884	-1.039649
C120	C	0.156582	-0.434884	-0.539649
C121	C	-0.343503	-0.934811	-0.683889
C122	C	0.156497	-0.434811	-0.183889
C123	C	-0.343515	-0.934798	-0.613197
C124	C	0.156485	-0.434798	-0.113197
C125	C	-0.263011	-1.021420	-0.613229
C126	C	0.236989	-0.521420	-0.113229
C127	C	-0.262995	-1.021435	-0.683917
C128	C	0.237005	-0.521435	-0.183917
C129	C	-0.303245	-0.978132	-0.719243
C130	C	0.196755	-0.478132	-0.219243
C131	C	-0.303224	-0.978145	-0.795891
C132	C	0.196776	-0.478145	-0.295891
C133	C	-0.303205	-0.978159	-0.856983
C134	C	0.196795	-0.478159	-0.356983
C135	C	-0.303313	-0.978081	-0.150237
C136	C	0.196687	-0.478081	0.349763
C137	C	-0.303151	-0.978201	-0.075006
C138	C	0.196849	-0.478201	0.424994
H139	H	-0.376283	-0.236353	-0.247419
H140	H	0.123717	0.263647	0.252581
C141	C	-0.387731	-0.730452	-0.235003
C142	C	0.112269	-0.230452	0.264997
C143	C	-0.360381	-0.779040	-0.181915
C144	C	0.139619	-0.279040	0.318085
C145	C	-0.404602	-0.817885	-0.134207
C146	C	0.095398	-0.317885	0.365793
C147	C	-0.476171	-0.808142	-0.139587
C148	C	0.023829	-0.308142	0.360413
C149	C	-0.503524	-0.759552	-0.192678
C150	C	-0.003524	-0.259552	0.307322
C151	C	-0.459304	-0.720708	-0.240386
C152	C	0.040696	-0.220708	0.259614
H153	H	-0.307398	-0.786254	-0.177930
H154	H	0.192602	-0.286254	0.322070
H155	H	-0.384352	-0.853854	-0.094906
H156	H	0.115648	-0.353854	0.405094
H157	H	-0.508906	-0.836897	-0.104271
H158	H	-0.008906	-0.336897	0.395729
H159	H	-0.556508	-0.752338	-0.196663
H160	H	-0.056508	-0.252338	0.303337
H161	H	-0.479553	-0.684738	-0.279687
H162	H	0.020447	-0.184738	0.220313
C163	C	-0.671624	-0.887095	-0.416909
C164	C	-0.171624	-0.387095	0.083091
C165	C	-0.662645	-0.810150	-0.411315
C166	C	-0.162645	-0.310150	0.088685
C167	C	-0.698810	-0.762516	-0.458893
C168	C	-0.198810	-0.262516	0.041107
C169	C	-0.743953	-0.791828	-0.512065
C170	C	-0.243953	-0.291828	-0.012065
C171	C	-0.752933	-0.868777	-0.517660
C172	C	-0.252933	-0.368777	-0.017660
C173	C	-0.716769	-0.916410	-0.470082
C174	C	-0.216769	-0.416410	0.029918
H175	H	-0.629226	-0.788448	-0.371953
H176	H	-0.129226	-0.288448	0.128047
H177	H	-0.692162	-0.705553	-0.454751
H178	H	-0.192162	-0.205553	0.045249
H179	H	-0.770724	-0.756567	-0.547285
H180	H	-0.270724	-0.256567	-0.047285
H181	H	-0.786353	-0.890478	-0.557023
H182	H	-0.286353	-0.390478	-0.057023
H183	H	-0.723417	-0.973373	-0.474225
H184	H	-0.223417	-0.473373	0.025775
H185	H	-0.376300	-0.899519	-0.584408
H186	H	0.123700	-0.399519	-0.084408
C187	C	-0.218912	-0.226378	-0.417175
C188	C	0.281088	0.273622	0.082825
C189	C	-0.224147	-0.236118	-0.494109
C190	C	0.275853	0.263882	0.005891
C191	C	-0.179925	-0.197277	-0.541818
C192	C	0.320075	0.302723	-0.041818
C193	C	-0.130466	-0.148696	-0.512592
C194	C	0.369534	0.351304	-0.012592
C195	C	-0.125228	-0.138954	-0.435653
C196	C	0.374772	0.361046	0.064347
C197	C	-0.169451	-0.177795	-0.387945
C198	C	0.330549	0.322205	0.112055
H199	H	-0.260762	-0.272082	-0.515748
H200	H	0.239238	0.227918	-0.015748
H201	H	-0.183803	-0.204489	-0.598773
H202	H	0.316197	0.295511	-0.098773
H203	H	-0.097730	-0.119944	-0.547908
H204	H	0.402270	0.380056	-0.047908
H205	H	-0.088614	-0.102989	-0.414015
H206	H	0.411386	0.397011	0.085985
H207	H	-0.165573	-0.170583	-0.330990
H208	H	0.334427	0.329417	0.169010
C209	C	-0.387772	-0.887174	-0.722741
C210	C	0.112228	-0.387174	-0.222741
C211	C	-0.387763	-0.887185	-0.800495
C212	C	0.112237	-0.387185	-0.300495
C213	C	-0.432034	-0.839544	-0.839351
C214	C	0.067966	-0.339544	-0.339351
C215	C	-0.476314	-0.791893	-0.800454
C216	C	0.023686	-0.291893	-0.300454
C217	C	-0.476325	-0.791879	-0.722696
C218	C	0.023675	-0.291879	-0.222696
C219	C	-0.432054	-0.839520	-0.683840
C220	C	0.067946	-0.339520	-0.183840
H221	H	-0.354983	-0.922461	-0.829292
H222	H	0.145017	-0.422461	-0.329292
H223	H	-0.432025	-0.839554	-0.896912
H224	H	0.067975	-0.339554	-0.396912
H225	H	-0.509086	-0.756626	-0.829217
H226	H	-0.009086	-0.256626	-0.329217
H227	H	-0.509106	-0.756603	-0.693898
H228	H	-0.009106	-0.256603	-0.193898
H229	H	-0.432063	-0.839510	-0.626279
H230	H	0.067937	-0.339510	-0.126279
C231	C	-0.218878	-0.730580	-0.417149
C232	C	0.281122	-0.230580	0.082851
C233	C	-0.218868	-0.808333	-0.417149
C234	C	0.281132	-0.308333	0.082851
C235	C	-0.174636	-0.847242	-0.464849
C236	C	0.325364	-0.347242	0.035151
C237	C	-0.130413	-0.808398	-0.512549
C238	C	0.369587	-0.308398	-0.012549
C239	C	-0.130422	-0.730640	-0.512550
C240	C	0.369578	-0.230640	-0.012550
C241	C	-0.174654	-0.691732	-0.464851
C242	C	0.325346	-0.191732	0.035149
H243	H	-0.251606	-0.837092	-0.381837
H244	H	0.248394	-0.337092	0.118163
H245	H	-0.174630	-0.904803	-0.464847
H246	H	0.325370	-0.404803	0.035153
H247	H	-0.097670	-0.837200	-0.547859
H248	H	0.402330	-0.337200	-0.047859
H249	H	-0.097684	-0.701881	-0.547862
H250	H	0.402316	-0.201881	-0.047862
H251	H	-0.174660	-0.634170	-0.464852
H252	H	0.325340	-0.134170	0.035148
C253	C	-0.934381	-1.069124	-0.235319
C254	C	-0.434381	-0.569124	0.264681
C255	C	-0.970530	-1.116788	-0.187760
C256	C	-0.470530	-0.616788	0.312240
C257	C	-0.934366	-1.164422	-0.140181
C258	C	-0.434366	-0.664422	0.359819
C259	C	-0.862053	-1.164391	-0.140161
C260	C	-0.362053	-0.664391	0.359839
C261	C	-0.825900	-1.116726	-0.187722
C262	C	-0.325900	-0.616726	0.312278
C263	C	-0.862064	-1.069092	-0.235301
C264	C	-0.362064	-0.569092	0.264699
H265	H	-1.024064	-1.116812	-0.187773
H266	H	-0.524064	-0.616812	0.312227
H267	H	-0.961129	-1.199707	-0.104974
H268	H	-0.461129	-0.699707	0.395026
H269	H	-0.835283	-1.199653	-0.104941
H270	H	-0.335283	-0.699653	0.395059
H271	H	-0.772366	-1.116702	-0.187709
H272	H	-0.272366	-0.616702	0.312291
H273	H	-0.835301	-1.033807	-0.270508
H274	H	-0.335301	-0.533807	0.229492
H275	H	-1.063071	-0.899635	-0.404630
H276	H	-0.563071	-0.399635	0.095370
H277	H	-0.376190	-0.899622	-1.068412
H278	H	0.123810	-0.399622	-0.568412
C279	C	-0.387764	-0.374681	-0.235023
C280	C	0.112236	0.125319	0.264977
C281	C	-0.431994	-0.335766	-0.187332
C282	C	0.068006	0.164234	0.312668
C283	C	-0.476225	-0.374604	-0.139630
C284	C	0.023775	0.125396	0.360370
C285	C	-0.476226	-0.452357	-0.139619
C286	C	0.023774	0.047643	0.360381
C287	C	-0.431994	-0.491277	-0.187312
C288	C	0.068006	0.008723	0.312688
C289	C	-0.387763	-0.452439	-0.235014
C290	C	0.112237	0.047561	0.264986
H291	H	-0.431995	-0.278205	-0.187338
H292	H	0.068005	0.221795	0.312662
H293	H	-0.508968	-0.345793	-0.104324
H294	H	-0.008968	0.154207	0.395676
H295	H	-0.508968	-0.481107	-0.104307
H296	H	-0.008968	0.018893	0.395693
H297	H	-0.431994	-0.548838	-0.187306
H298	H	0.068006	-0.048838	0.312694
H299	H	-0.355020	-0.481250	-0.270320
H300	H	0.144980	0.018750	0.229680
H301	H	-1.063044	-1.056806	-0.247707
H302	H	-0.563044	-0.556806	0.252293
H303	H	-0.376218	-0.899602	-0.940166
H304	H	0.123782	-0.399602	-0.440166
H305	H	-0.230376	-0.592234	-0.404765
H306	H	0.269624	-0.092234	0.095235
C307	C	-0.218904	-0.374821	-0.417163
C308	C	0.281096	0.125179	0.082837
C309	C	-0.174681	-0.335981	-0.464865
C310	C	0.325319	0.164019	0.035135
C311	C	-0.130451	-0.374893	-0.512564
C312	C	0.369549	0.125107	-0.012564
C313	C	-0.130444	-0.452646	-0.512561
C314	C	0.369556	0.047354	-0.012561
C315	C	-0.174669	-0.491491	-0.464857
C316	C	0.325331	0.008509	0.035143
C317	C	-0.218899	-0.452579	-0.417158
C318	C	0.281101	0.047421	0.082842
H319	H	-0.174685	-0.278419	-0.464869
H320	H	0.325315	0.221581	0.035131
H321	H	-0.097713	-0.346137	-0.547878
H322	H	0.402287	0.153863	-0.047878
H323	H	-0.097702	-0.481451	-0.547870
H324	H	0.402298	0.018549	-0.047870
H325	H	-0.174665	-0.549053	-0.464853
H326	H	0.325335	-0.049053	0.035147
H327	H	-0.251637	-0.481335	-0.381844
H328	H	0.248363	0.018665	0.118156
C329	C	-0.533547	-1.068961	-0.235240
C330	C	-0.033547	-0.568961	0.264760
C331	C	-0.542643	-1.063492	-0.158292
C332	C	-0.042643	-0.563492	0.341708
C333	C	-0.506486	-1.111129	-0.110711
C334	C	-0.006486	-0.611129	0.389289
C335	C	-0.461233	-1.164236	-0.140078
C336	C	0.038767	-0.664236	0.359922
C337	C	-0.452136	-1.169707	-0.217030
C338	C	0.047864	-0.669707	0.282970
C339	C	-0.488293	-1.122070	-0.264611
C340	C	0.011707	-0.622070	0.235389
H341	H	-0.576143	-1.024177	-0.136549
H342	H	-0.076143	-0.524177	0.363451
H343	H	-0.513220	-1.107079	-0.053745
H344	H	-0.013220	-0.607079	0.446255
H345	H	-0.434468	-1.199500	-0.104856
H346	H	0.065532	-0.699500	0.395144
H347	H	-0.418635	-1.209022	-0.238773
H348	H	0.081365	-0.709022	0.261227
H349	H	-0.481558	-1.126121	-0.321576
H350	H	0.018442	-0.626121	0.178424
C351	C	-0.533566	-0.887043	-0.416887
C352	C	-0.033566	-0.387043	0.083113
C353	C	-0.488312	-0.916318	-0.470043
C354	C	0.011688	-0.416318	0.029957
C355	C	-0.452159	-0.868656	-0.517606
C356	C	0.047841	-0.368656	-0.017606
C357	C	-0.461261	-0.791718	-0.512013
C358	C	0.038739	-0.291718	-0.012013
C359	C	-0.506518	-0.762438	-0.458855
C360	C	-0.006518	-0.262438	0.041145
C361	C	-0.542670	-0.810101	-0.411292
C362	C	-0.042670	-0.310101	0.088708
H363	H	-0.481572	-0.973276	-0.474186
H364	H	0.018428	-0.473276	0.025814
H365	H	-0.418657	-0.890331	-0.556958
H366	H	0.081343	-0.390331	-0.056958
H367	H	-0.434499	-0.756435	-0.547222
H368	H	0.065501	-0.256435	-0.047222
H369	H	-0.513257	-0.705480	-0.454713
H370	H	-0.013257	-0.205480	0.045287
H371	H	-0.576172	-0.788425	-0.371941
H372	H	-0.076172	-0.288425	0.128059
H373	H	-0.376248	-0.592111	-0.247400
H374	H	0.123752	-0.092111	0.252600
H375	H	-0.662206	-1.056638	-0.247625
H376	H	-0.162206	-0.556638	0.252375
C377	C	-0.934408	-0.887203	-0.416959
C378	C	-0.434408	-0.387203	0.083041
C379	C	-0.970570	-0.839572	-0.464535
C380	C	-0.470570	-0.339572	0.035465
C381	C	-0.934420	-0.791912	-0.512103
C382	C	-0.434420	-0.291912	-0.012103
C383	C	-0.862107	-0.791884	-0.512095
C384	C	-0.362107	-0.291884	-0.012095
C385	C	-0.825941	-0.839517	-0.464516
C386	C	-0.325941	-0.339517	0.035484
C387	C	-0.862091	-0.887177	-0.416948
C388	C	-0.362091	-0.387177	0.083052
H389	H	-1.024104	-0.839591	-0.464543
H390	H	-0.524104	-0.339591	0.035457
H391	H	-0.961193	-0.756651	-0.547324
H392	H	-0.461193	-0.256651	-0.047324
H393	H	-0.835346	-0.756604	-0.547308
H394	H	-0.335346	-0.256604	-0.047308
H395	H	-0.772407	-0.839498	-0.464509
H396	H	-0.272407	-0.339498	0.035491
H397	H	-0.835318	-0.922438	-0.381728
H398	H	-0.335318	-0.422438	0.118272
H399	H	-0.230119	-1.056775	-1.068464
H400	H	0.269881	-0.556775	-0.568464
C401	C	-0.218657	-1.069128	-0.930130
C402	C	0.281343	-0.569128	-0.430130
C403	C	-0.174368	-1.116773	-0.969024
C404	C	0.325632	-0.616773	-0.469024
C405	C	-0.130097	-1.164411	-0.930164
C406	C	0.369903	-0.664411	-0.430164
C407	C	-0.130116	-1.164404	-0.852411
C408	C	0.369884	-0.664404	-0.352411
C409	C	-0.174406	-1.116757	-0.813513
C410	C	0.325594	-0.616757	-0.313513
C411	C	-0.218677	-1.069119	-0.852373
C412	C	0.281323	-0.569119	-0.352373
H413	H	-0.174353	-1.116781	-1.026585
H414	H	0.325647	-0.616781	-0.526585
H415	H	-0.097310	-1.199683	-0.958959
H416	H	0.402690	-0.699683	-0.458959
H417	H	-0.097344	-1.199668	-0.823644
H418	H	0.402656	-0.699668	-0.323644
H419	H	-0.174422	-1.116749	-0.755951
H420	H	0.325578	-0.616749	-0.255951
H421	H	-0.251464	-1.033847	-0.823577
H422	H	0.248536	-0.533847	-0.323577
H423	H	-0.230208	-1.056707	-0.712703
H424	H	0.269792	-0.556707	-0.212703
H425	H	-0.230239	-1.056682	-0.584459
H426	H	0.269761	-0.556682	-0.084459
