data_functionalizedCrystal
_audit_creation_method	'MofGen! by Chris Wilmer'
_symmetry_space_group_name_H-M	'P1'
_symmetry_Int_Tables_number	1
_symmetry_cell_setting	triclinic
loop_
_symmetry_equiv_pos_as_xyz
  x,y,z
_cell_length_a	16.959454
_cell_length_b	11.169417
_cell_length_c	11.169409
_cell_angle_alpha	89.978351
_cell_angle_beta	90.032943
_cell_angle_gamma	89.981703
loop_
_atom_site_label
_atom_site_type_symbol
_atom_site_fract_x
_atom_site_fract_y
_atom_site_fract_z
Zn1	Zn	-0.314655	-1.834881	0.678596
Zn2	Zn	-0.446862	-1.834736	0.477911
Zn3	Zn	-0.314697	-1.634167	0.477924
Zn4	Zn	-0.446791	-1.634140	0.678549
O5	O	-0.380751	-1.734481	0.578245
O6	O	-0.332204	-2.002812	0.651989
O7	O	-0.429377	-1.808081	0.309963
O8	O	-0.204081	-1.660864	0.504569
O9	O	-0.429336	-2.002705	0.504546
O10	O	-0.204050	-1.808328	0.652002
O11	O	-0.332276	-1.660724	0.309972
O12	O	-0.332208	-1.466214	0.504523
O13	O	-0.429216	-1.660819	0.846505
O14	O	-0.429257	-1.466194	0.651922
O15	O	-0.332136	-1.808302	0.846540
O16	O	-0.557463	-1.808055	0.504501
O17	O	-0.557412	-1.660678	0.651909
C18	C	-0.380730	-1.422657	0.578220
C19	C	-0.380740	-1.289257	0.578237
C20	C	-0.586118	-1.734381	0.578225
C21	C	-0.673974	-1.734447	0.578256
C22	C	-1.045453	-1.657853	0.654992
C23	C	-1.045447	-1.811443	0.501620
C24	C	-0.962901	-1.811401	0.501609
C25	C	-0.921627	-1.734583	0.578289
C26	C	-0.962899	-1.657807	0.654981
C27	C	-0.921622	-1.888168	0.424910
C28	C	-0.839072	-1.888128	0.424895
C29	C	-0.797796	-1.811315	0.501583
C30	C	-0.839074	-1.734536	0.578278
C31	C	-0.797800	-1.657718	0.654959
C32	C	-0.839076	-1.580944	0.731661
C33	C	-0.921624	-1.580993	0.731669
C34	C	-0.715248	-1.811266	0.501576
C35	C	-0.715246	-1.657671	0.654948
C36	C	-0.174583	-1.734615	0.578292
C37	C	-0.086726	-1.734672	0.578312
C38	C	-0.380664	-1.734573	0.891288
C39	C	-0.380626	-1.734613	1.024688
C40	C	-0.380766	-1.047524	0.578263
C41	C	-0.380752	-1.180924	0.578251
C42	C	-0.380782	-1.734459	0.266420
C43	C	-0.380596	-1.734652	0.133021
H44	H	-0.681646	-1.595120	0.717395
H45	H	-0.955234	-1.950700	0.362472
H46	H	-0.805461	-1.518393	0.794090
H47	H	-0.955238	-1.518487	0.794114
Cl48	Cl	-0.787190	-1.984652	0.328482
H49	H	-0.681645	-1.873768	0.439120
H50	H	-1.079063	-1.595350	0.717445
Cl51	Cl	-1.097334	-1.908010	0.405228
