data_functionalizedCrystal
_audit_creation_method	'MofGen! by Chris Wilmer'
_symmetry_space_group_name_H-M	'P1'
_symmetry_Int_Tables_number	1
_symmetry_cell_setting	triclinic
loop_
_symmetry_equiv_pos_as_xyz
  x,y,z
_cell_length_a	18.050589
_cell_length_b	10.686220
_cell_length_c	10.685880
_cell_angle_alpha	90.358431
_cell_angle_beta	94.341171
_cell_angle_gamma	85.590250
loop_
_atom_site_label
_atom_site_type_symbol
_atom_site_fract_x
_atom_site_fract_y
_atom_site_fract_z
Zn1	Zn	-0.231829	-1.972165	-0.562384
Zn2	Zn	-0.347314	-1.955903	-0.352637
Zn3	Zn	-0.233342	-1.746294	-0.368707
Zn4	Zn	-0.366191	-1.762313	-0.578410
O5	O	-0.294669	-1.859169	-0.465534
O6	O	-0.238615	-2.145554	-0.521129
O7	O	-0.324929	-1.914588	-0.179227
O8	O	-0.129213	-1.776359	-0.394417
O9	O	-0.323461	-2.133606	-0.367028
O10	O	-0.128101	-1.942305	-0.536711
O11	O	-0.241194	-1.760590	-0.191034
O12	O	-0.259499	-1.572873	-0.409956
O13	O	-0.355634	-1.803660	-0.751825
O14	O	-0.357102	-1.584642	-0.564024
O15	O	-0.256919	-1.957838	-0.740051
O16	O	-0.453746	-1.930121	-0.382568
O17	O	-0.467615	-1.787891	-0.548442
C18	C	-0.487628	-1.859016	-0.465525
C19	C	-0.570172	-1.859069	-0.465554
C20	C	-0.310513	-1.533241	-0.490474
C21	C	-0.317311	-1.393809	-0.501173
C22	C	-0.308213	-1.884350	-0.792727
C23	C	-0.313985	-1.895081	-0.932157
C24	C	-0.777187	-1.781804	-0.555721
C25	C	-0.823357	-1.742442	-0.443595
C26	C	-0.721297	-1.859193	-0.465561
C27	C	-0.822206	-1.898618	-0.577696
C28	C	-0.867278	-1.859312	-0.465578
C29	C	-0.766381	-1.819766	-0.353379
C30	C	-0.765226	-1.976001	-0.487553
C31	C	-0.811369	-1.936676	-0.375345
C32	C	-0.637202	-1.859122	-0.465553
C33	C	-0.951371	-1.859382	-0.465573
C34	C	-0.100956	-1.859359	-0.465568
C35	C	-0.018408	-1.859440	-0.465583
C36	C	-0.278763	-2.186370	-0.440498
C37	C	-0.271985	-2.325804	-0.429829
C38	C	-0.281120	-1.834158	-0.139609
C39	C	-0.275127	-1.823671	-0.000161
H40	H	-0.761929	-1.716247	-0.631874
O41	O	-0.230270	-1.740857	-0.942242
C42	C	-0.273396	-1.654004	-0.872673
H43	H	-0.326730	-1.696708	-0.849774
H44	H	-0.240192	-1.630204	-0.781774
H45	H	-0.288137	-1.564871	-0.930213
O46	O	-0.853629	-1.624598	-0.421611
C47	C	-0.836465	-1.543236	-0.516850
H48	H	-0.823923	-1.600070	-0.604419
H49	H	-0.885944	-1.472191	-0.539924
H50	H	-0.785648	-1.491655	-0.483221
H51	H	-0.351672	-1.964436	-0.980609
O52	O	-0.737254	-1.779873	-0.240323
C53	C	-0.659191	-1.780271	-0.241687
H54	H	-0.643561	-1.773915	-0.342710
H55	H	-0.638975	-1.696426	-0.186097
H56	H	-0.631915	-1.870790	-0.197355
O57	O	-0.735039	-2.093820	-0.509856
C58	C	-0.792283	-2.176362	-0.526598
H59	H	-0.847070	-2.120757	-0.556913
H60	H	-0.778029	-2.248372	-0.601936
H61	H	-0.798039	-2.226704	-0.434488
H62	H	-0.826485	-2.002166	-0.299025
O63	O	-0.851256	-1.938210	-0.690922
C64	C	-0.834121	-1.856264	-0.785677
H65	H	-0.782938	-1.805603	-0.752117
H66	H	-0.822187	-1.912440	-0.873914
H67	H	-0.883379	-1.784487	-0.807621
H68	H	-0.361323	-1.345356	-0.570435
H69	H	-0.227981	-1.374250	-0.360563
