data_functionalizedCrystal
_audit_creation_method	'MofGen! by Chris Wilmer'
_symmetry_space_group_name_H-M	'P1'
_symmetry_Int_Tables_number	1
_symmetry_cell_setting	triclinic
loop_
_symmetry_equiv_pos_as_xyz
  x,y,z
_cell_length_a	19.805407
_cell_length_b	12.759400
_cell_length_c	19.805399
_cell_angle_alpha	90.023237
_cell_angle_beta	90.019573
_cell_angle_gamma	90.014685
loop_
_atom_site_label
_atom_site_type_symbol
_atom_site_fract_x
_atom_site_fract_y
_atom_site_fract_z
Zn1	Zn	1.034791	-0.418291	0.382740
Zn2	Zn	1.034729	-0.593984	0.269560
Zn3	Zn	0.921605	-0.418320	0.269565
Zn4	Zn	0.921592	-0.593928	0.382707
O5	O	0.978179	-0.506131	0.326143
O6	O	1.129499	-0.441608	0.367739
O7	O	1.019702	-0.570717	0.174844
O8	O	0.936651	-0.271295	0.284593
O9	O	1.129454	-0.570689	0.284586
O10	O	1.019808	-0.271273	0.367743
O11	O	0.936591	-0.441657	0.174848
O12	O	0.826887	-0.441603	0.284561
O13	O	0.936629	-0.570594	0.477428
O14	O	0.826877	-0.570622	0.367687
O15	O	1.019795	-0.441554	0.477452
O16	O	1.019689	-0.740998	0.284554
O17	O	0.936568	-0.740957	0.367682
C18	C	0.802323	-0.506110	0.326121
C19	C	0.727091	-0.506127	0.326128
C20	C	0.691760	-0.573408	0.369341
C21	C	0.621071	-0.573410	0.369351
C22	C	0.585716	-0.506135	0.326143
C23	C	0.621052	-0.438847	0.282928
C24	C	0.691739	-0.438840	0.282922
C25	C	0.335979	-0.438870	0.282950
C26	C	0.265287	-0.438884	0.282958
C27	C	0.265311	-0.573440	0.369379
C28	C	0.335998	-0.573433	0.369373
C29	C	0.371328	-0.506141	0.326161
C30	C	0.447977	-0.506139	0.326152
C31	C	0.509069	-0.506142	0.326148
C32	C	0.978139	-0.779098	0.326129
C33	C	0.978184	-0.895875	0.326146
C34	C	1.021513	-0.950723	0.282908
C35	C	1.021555	-1.060447	0.282929
C36	C	0.934932	-1.060464	0.369426
C37	C	0.934894	-0.950742	0.369408
C38	C	1.064802	-0.895855	0.239646
C39	C	1.108135	-0.950704	0.196404
C40	C	1.108176	-1.060428	0.196425
C41	C	1.064886	-1.115303	0.239687
C42	C	1.154722	-0.506152	0.326165
C43	C	1.229954	-0.506160	0.326175
C44	C	0.978217	-0.506064	0.502686
C45	C	0.978233	-0.506036	0.577918
C46	C	0.978238	-0.232097	0.326172
C47	C	0.978263	-0.115321	0.326184
C48	C	0.978180	-0.506121	0.150287
C49	C	0.978295	-0.505853	0.075055
C50	C	1.021539	-0.438842	0.613276
C51	C	1.021546	-0.438811	0.683964
C52	C	0.978250	-0.505981	0.719294
C53	C	0.934940	-0.573179	0.683931
C54	C	0.934930	-0.573203	0.613244
C55	C	0.934978	-0.573081	0.969004
C56	C	0.934992	-0.573054	1.039696
C57	C	1.021594	-0.438689	1.039725
C58	C	1.021584	-0.438713	0.969038
C59	C	0.978272	-0.505906	0.933681
C60	C	0.978264	-0.505937	0.857033
C61	C	0.978261	-0.505957	0.795941
H62	H	0.236536	-0.628228	0.404567
H63	H	1.056843	-0.384020	0.940276
H64	H	0.899659	-0.627909	0.584456
O65	O	0.892818	-0.638463	0.718143
C66	C	0.854605	-0.697795	0.671774
H67	H	0.852261	-0.654776	0.621392
H68	H	0.801278	-0.708991	0.692187
H69	H	0.879374	-0.777592	0.664250
H70	H	1.056798	-0.384147	0.584516
H71	H	0.899686	-1.105153	0.404648
O72	O	1.063641	-0.373681	0.718390
C73	C	1.107358	-0.433480	0.759276
H74	H	1.083474	-0.513097	0.769848
H75	H	1.116434	-0.390667	0.808991
H76	H	1.157516	-0.445033	0.732051
H77	H	0.720505	-0.384048	0.247737
H78	H	0.592260	-0.384066	0.247750
O79	O	1.064870	-0.789271	0.239561
C80	C	1.112355	-0.752601	0.192094
H81	H	1.151930	-0.815789	0.182660
H82	H	1.138000	-0.679140	0.212526
H83	H	1.085534	-0.733222	0.142714
H84	H	1.143384	-0.906019	0.161186
H85	H	1.056859	-0.383973	1.068521
O86	O	1.150290	-1.113547	0.154362
C87	C	1.188500	-1.041586	0.116190
H88	H	1.160749	-0.963411	0.113808
H89	H	1.195761	-1.073334	0.062873
H90	H	1.239888	-1.029824	0.141018
O91	O	0.231046	-0.373424	0.240965
C92	C	0.277386	-0.314045	0.202812
H93	H	0.327787	-0.310457	0.230534
H94	H	0.256965	-0.231256	0.195692
H95	H	0.284878	-0.352404	0.151361
O96	O	0.586855	-0.638879	0.411342
C97	C	0.633219	-0.698247	0.449481
H98	H	0.683596	-0.701809	0.421750
H99	H	0.612790	-0.781046	0.456598
H100	H	0.640760	-0.659896	0.500935
O101	O	0.726176	-0.638614	0.411348
C102	C	0.767077	-0.578881	0.455138
H103	H	0.777668	-0.499214	0.431352
H104	H	0.816782	-0.621690	0.464159
H105	H	0.739856	-0.567440	0.505311
O106	O	1.064993	-1.221890	0.239605
C107	C	1.112536	-1.258538	0.192182
H108	H	1.122014	-1.195340	0.152632
H109	H	1.092156	-1.331999	0.166494
H110	H	1.161881	-1.277910	0.219071
H111	H	0.899613	-0.906084	0.404617
O112	O	0.892865	-0.638335	1.073912
C113	C	0.854644	-0.697664	1.027548
H114	H	0.852301	-0.654651	0.977164
H115	H	0.801317	-0.708849	1.047965
H116	H	0.879406	-0.777467	1.020026
H117	H	0.364781	-0.628219	0.404555
H118	H	0.364736	-0.384085	0.247759
H119	H	0.899720	-0.627809	0.940225
