data_functionalizedCrystal
_audit_creation_method	'MofGen! by Chris Wilmer'
_symmetry_space_group_name_H-M	'P1'
_symmetry_Int_Tables_number	1
_symmetry_cell_setting	triclinic
loop_
_symmetry_equiv_pos_as_xyz
  x,y,z
_cell_length_a	26.374263
_cell_length_b	26.373608
_cell_length_c	26.370205
_cell_angle_alpha	60.005297
_cell_angle_beta	60.010839
_cell_angle_gamma	59.993700
loop_
_atom_site_label
_atom_site_type_symbol
_atom_site_fract_x
_atom_site_fract_y
_atom_site_fract_z
O1	O	0.070152	-0.740800	0.619517
O2	O	0.026377	-0.576764	0.499159
O3	O	0.130245	-0.680560	0.499088
O4	O	-0.033715	-0.637003	0.619589
O5	O	0.164701	-0.646107	0.533470
O6	O	0.060833	-0.542310	0.533541
O7	O	0.104608	-0.706346	0.653899
Cu8	Cu	0.085867	-0.621182	0.596859
Cu9	Cu	0.045119	-0.661927	0.556199
O10	O	0.000741	-0.602549	0.653971
N11	N	0.114528	-0.592529	0.625461
N12	N	0.016463	-0.690587	0.527598
C13	C	0.181428	-0.355400	0.692330
C14	C	0.181530	-0.525690	0.862573
C15	C	0.181440	-0.525667	0.692313
C16	C	0.351736	-0.525673	0.692271
C17	C	0.200174	-0.411588	0.711047
C18	C	0.200232	-0.506954	0.806384
C19	C	0.295546	-0.506943	0.711016
C20	C	0.200182	-0.506940	0.711037
C21	C	0.157567	-0.283881	0.668507
C22	C	0.157587	-0.549500	0.668479
C23	C	0.224035	-0.483107	0.734871
C24	C	0.455739	-0.507754	0.637520
C25	C	0.520749	-0.529425	0.615835
C26	C	0.520768	-0.634611	0.655947
C27	C	0.455759	-0.612939	0.677633
C28	C	0.173240	-0.251367	0.604595
C29	C	0.151546	-0.186351	0.582941
C30	C	0.098512	-0.186369	0.689113
C31	C	0.120206	-0.251385	0.710768
C32	C	0.093669	-0.533798	0.684205
C33	C	0.071992	-0.555464	0.662532
C34	C	0.178144	-0.608536	0.609422
C35	C	0.199825	-0.586869	0.631088
C36	C	0.093821	-0.533842	0.966616
C37	C	0.072187	-0.555526	1.031630
C38	C	0.178370	-0.608608	1.031591
C39	C	0.200004	-0.586926	0.966576
C40	C	0.157728	-0.549541	0.934090
C41	C	0.423247	-0.549509	0.668416
C42	C	-0.097522	-0.709158	0.508557
C43	C	-0.002050	-0.709295	0.413344
C44	C	-0.002241	-0.804604	0.508735
C45	C	-0.002225	-0.709288	0.508793
C46	C	-0.026009	-0.733087	0.484858
N47	N	0.552340	-0.592538	0.625346
O48	O	0.750867	-0.598274	0.477076
O49	O	0.751048	-0.718989	0.640960
O50	O	0.750981	-0.718715	0.537020
O51	O	0.750934	-0.598547	0.581017
O52	O	0.647701	-0.684348	0.571512
O53	O	0.647768	-0.684622	0.675452
O54	O	0.647587	-0.563907	0.511569
Cu55	Cu	0.638247	-0.621127	0.596660
Cu56	Cu	0.760388	-0.661769	0.555869
O57	O	0.647654	-0.564181	0.615509
N58	N	0.846295	-0.690358	0.527176
N59	N	0.114503	-0.154778	0.625499
O60	O	-0.033701	0.043855	0.619632
O61	O	0.130190	0.043858	0.498933
O62	O	0.026233	0.043841	0.499224
O63	O	0.070257	0.043872	0.619341
O64	O	0.060690	-0.059448	0.533654
O65	O	0.164647	-0.059431	0.533363
O66	O	0.000756	-0.059434	0.654062
Cu67	Cu	0.085848	-0.068863	0.596857
Cu68	Cu	0.045099	0.053287	0.556138
O69	O	0.104714	-0.059417	0.653771
N70	N	0.016435	0.139202	0.527497
N71	N	0.114760	-0.592585	1.063190
O72	O	0.108896	-0.740779	1.261808
O73	O	-0.011787	-0.576838	1.261822
O74	O	-0.011509	-0.680779	1.261780
O75	O	0.108618	-0.636838	1.261850
O76	O	0.022916	-0.646341	1.158496
O77	O	0.022638	-0.542399	1.158538
O78	O	0.143321	-0.706341	1.158524
Cu79	Cu	0.086123	-0.621225	1.149100
Cu80	Cu	0.045411	-0.661953	1.271246
O81	O	0.143044	-0.602399	1.158566
N82	N	0.016774	-0.690600	1.357156
C83	C	0.039504	-0.538867	0.499769
C84	C	0.168130	-0.667407	0.499680
C85	C	0.091482	-0.744243	0.653289
C86	C	-0.037145	-0.615703	0.653378
C87	C	0.699429	-0.718429	0.678853
C88	C	0.699348	-0.718091	0.550135
C89	C	0.699202	-0.564465	0.473677
C90	C	0.699287	-0.564805	0.602393
C91	C	0.168023	-0.007659	0.499484
C92	C	0.039327	-0.007807	0.499887
C93	C	-0.037119	-0.007789	0.653468
C94	C	0.091620	-0.007770	0.653109
C95	C	-0.011194	-0.538964	1.210181
C96	C	-0.010843	-0.667676	1.210109
C97	C	0.142729	-0.744214	1.210165
C98	C	0.142386	-0.615494	1.210214
H99	H	0.020147	-0.542732	1.058106
H100	H	0.699278	-0.527058	0.611808
H101	H	0.215222	-0.676694	0.461838
C102	C	-0.061808	-0.680346	1.210022
H103	H	-0.097948	-0.644437	1.210012
H104	H	-0.047436	-0.690193	1.173986
H105	H	-0.071489	-0.714221	1.246025
C106	C	0.699124	-0.513264	0.410099
H107	H	0.699119	-0.528268	0.384002
H108	H	0.663089	-0.477987	0.415564
H109	H	0.735125	-0.501956	0.391501
H110	H	0.101045	-0.007760	0.690842
H111	H	0.699474	-0.756325	0.725922
C112	C	0.026601	-0.007823	0.448910
H113	H	-0.014519	-0.007832	0.464093
H114	H	0.031219	0.028192	0.413586
H115	H	0.055251	-0.043851	0.437609
H116	H	0.100832	-0.791364	0.691090
C117	C	-0.100761	-0.603165	0.704499
H118	H	-0.126813	-0.562055	0.689433
H119	H	-0.119375	-0.631864	0.715812
H120	H	-0.095341	-0.607831	0.739789
H121	H	-0.084187	-0.007791	0.691362
H122	H	0.547206	-0.495421	0.590679
C123	C	-0.062381	-0.475360	1.210186
H124	H	-0.047385	-0.449273	1.210208
H125	H	-0.073665	-0.456773	1.174163
H126	H	-0.097671	-0.480797	1.246202
C127	C	0.193916	-0.807818	1.210159
H128	H	0.178917	-0.833908	1.210145
H129	H	0.229206	-0.802384	1.174149
H130	H	0.205195	-0.826407	1.246189
C131	C	0.193373	-0.602802	1.210233
H132	H	0.229515	-0.638710	1.210237
H133	H	0.203032	-0.568928	1.174223
H134	H	0.179027	-0.592950	1.246262
C135	C	0.047315	-0.492718	0.930888
H136	H	0.006156	-0.486478	0.959572
H137	H	0.053545	-0.453749	0.905529
H138	H	0.053547	-0.512569	0.905526
H139	H	0.214995	-0.007372	0.461496
C140	C	0.224874	-0.649688	1.067323
H141	H	0.266034	-0.655924	1.038640
H142	H	0.218618	-0.629816	1.092674
H143	H	0.218665	-0.688669	1.092692
C144	C	0.699368	-0.769088	0.537420
H145	H	0.699327	-0.753906	0.496304
H146	H	0.735407	-0.804395	0.542026
H147	H	0.663371	-0.780418	0.566083
H148	H	0.059274	-0.503369	0.714648
C149	C	0.270304	-0.604193	0.930801
H150	H	0.292380	-0.629556	0.959461
H151	H	0.280957	-0.626246	0.905434
H152	H	0.280944	-0.567425	0.905445
C153	C	0.026881	-0.475215	0.448698
H154	H	0.062803	-0.475050	0.412585
H155	H	-0.006987	-0.467676	0.439011
H156	H	0.017049	-0.443649	0.462992
C157	C	0.001683	-0.538199	0.679830
H158	H	-0.020368	-0.512849	0.705211
H159	H	-0.009003	-0.516134	0.643080
H160	H	-0.008955	-0.574969	0.701884
H161	H	0.251872	-0.599651	0.618278
C162	C	0.224610	-0.649644	0.568295
H163	H	0.265781	-0.655890	0.562033
H164	H	0.218376	-0.688612	0.588139
H165	H	0.218342	-0.629782	0.529331
H166	H	0.429307	-0.646943	0.702793
H167	H	0.547237	-0.686258	0.663446
H168	H	0.203661	-0.277820	0.570179
C169	C	0.419975	-0.437981	0.627386
H170	H	0.448641	-0.416220	0.605884
H171	H	0.394599	-0.422728	0.603572
H172	H	0.394630	-0.431952	0.666453
H173	H	0.164306	-0.159876	0.530897
H174	H	0.107441	-0.277854	0.762810
C175	C	0.057420	-0.150622	0.735599
H176	H	0.051195	-0.179300	0.776765
H177	H	0.077265	-0.125256	0.729346
H178	H	0.018439	-0.125265	0.729369
