data_functionalizedCrystal
_audit_creation_method	'MofGen! by Chris Wilmer'
_symmetry_space_group_name_H-M	'P1'
_symmetry_Int_Tables_number	1
_symmetry_cell_setting	triclinic
loop_
_symmetry_equiv_pos_as_xyz
  x,y,z
_cell_length_a	13.032831
_cell_length_b	17.637651
_cell_length_c	13.032268
_cell_angle_alpha	95.517745
_cell_angle_beta	89.113023
_cell_angle_gamma	92.682084
loop_
_atom_site_label
_atom_site_type_symbol
_atom_site_fract_x
_atom_site_fract_y
_atom_site_fract_z
Zn1	Zn	1.381839	-0.508243	0.630045
Zn2	Zn	1.377848	-0.620370	0.424798
Zn3	Zn	1.238912	-0.476804	0.445613
Zn4	Zn	1.185030	-0.616301	0.576130
O5	O	1.295908	-0.555429	0.519147
O6	O	1.521820	-0.537977	0.616670
O7	O	1.380298	-0.589871	0.287041
O8	O	1.282092	-0.375669	0.501353
O9	O	1.518888	-0.620356	0.465876
O10	O	1.387099	-0.398767	0.636854
O11	O	1.278222	-0.484394	0.302334
O12	O	1.091255	-0.480449	0.449074
O13	O	1.190258	-0.613421	0.723801
O14	O	1.051668	-0.582936	0.544965
O15	O	1.334852	-0.534031	0.763411
O16	O	1.328051	-0.725135	0.413598
O17	O	1.186388	-0.722146	0.524781
C18	C	1.035028	-0.527840	0.493428
C19	C	0.923415	-0.516057	0.482444
C20	C	0.854092	-0.561579	0.524879
C21	C	0.738734	-0.549402	0.513528
C22	C	1.250963	-0.750950	0.461105
C23	C	1.231823	-0.834607	0.436317
C24	C	1.441920	-1.169577	0.707838
C25	C	1.423906	-1.248181	0.684525
C26	C	1.314665	-1.224235	0.543312
C27	C	1.332675	-1.145628	0.566610
C28	C	1.396302	-1.118306	0.648875
C29	C	1.287057	-1.094357	0.507647
C30	C	1.305061	-1.015756	0.530946
C31	C	1.368683	-0.988427	0.613209
C32	C	1.414306	-1.039705	0.672174
C33	C	1.223424	-1.121681	0.425387
C34	C	1.177806	-1.070409	0.366424
C35	C	1.195815	-0.991807	0.389718
C36	C	1.259437	-0.964478	0.471981
C37	C	1.150192	-0.940529	0.330753
C38	C	1.168196	-0.861929	0.354052
C39	C	1.277441	-0.885878	0.495280
C40	C	1.557805	-0.583127	0.544966
C41	C	1.669411	-0.594930	0.555968
C42	C	1.256990	-0.576779	0.781060
C43	C	1.240405	-0.585877	0.892671
C44	C	1.341051	-0.359150	0.577440
C45	C	1.360289	-0.275508	0.602281
C46	C	1.334744	-0.534115	0.258274
C47	C	1.351572	-0.524825	0.146745
C48	C	1.304554	-0.550652	0.962030
C49	C	1.287414	-0.560055	1.077387
H50	H	0.712686	-0.501408	0.468796
H51	H	0.897362	-0.468067	0.437716
H52	H	1.329262	-0.863632	0.562262
O53	O	0.700299	-0.652201	0.609412
C54	C	0.613442	-0.692174	0.646638
H55	H	0.545184	-0.653804	0.652023
H56	H	0.630229	-0.709929	0.726296
H57	H	0.594678	-0.745112	0.591699
H58	H	1.419181	-0.487700	1.120731
H59	H	1.172791	-0.622989	0.918694
O60	O	1.206870	-0.604442	1.108447
C61	C	1.243911	-0.663988	1.160356
H62	H	1.326598	-0.674433	1.135095
H63	H	1.194089	-0.718166	1.140868
H64	H	1.240998	-0.647517	1.247077
H65	H	0.880145	-0.609564	0.569617
H66	H	1.372159	-0.513532	0.936009
H67	H	1.466127	-1.017459	0.739156
O68	O	1.385989	-0.912057	0.635835
C69	C	1.291924	-0.877761	0.659853
H70	H	1.226274	-0.915571	0.623506
H71	H	1.292889	-0.819617	0.628380
H72	H	1.280544	-0.870361	0.747093
O73	O	1.252951	-1.250690	0.463293
C74	C	1.294264	-1.225686	0.371090
H75	H	1.346248	-1.172513	0.389771
H76	H	1.229143	-1.211710	0.319641
H77	H	1.340805	-1.272614	0.329299
O78	O	1.503717	-1.143156	0.787816
C79	C	1.540148	-1.205264	0.834850
H80	H	1.485676	-1.257250	0.817621
H81	H	1.544236	-1.190103	0.921764
H82	H	1.619990	-1.218660	0.803201
H83	H	1.098379	-0.962788	0.263780
O84	O	1.468049	-1.298021	0.741885
C85	C	1.390767	-1.342742	0.787537
H86	H	1.316191	-1.311225	0.792884
H87	H	1.415325	-1.353740	0.868166
H88	H	1.378294	-1.399423	0.738480
H89	H	1.131047	-0.820183	0.306039
H90	H	1.208756	-1.185683	0.406428
H91	H	1.125997	-1.092666	0.299446
