data_functionalizedCrystal
_audit_creation_method	'MofGen! by Chris Wilmer'
_symmetry_space_group_name_H-M	'P1'
_symmetry_Int_Tables_number	1
_symmetry_cell_setting	triclinic
loop_
_symmetry_equiv_pos_as_xyz
  x,y,z
_cell_length_a	14.853558
_cell_length_b	14.421503
_cell_length_c	14.853567
_cell_angle_alpha	90.005344
_cell_angle_beta	96.366968
_cell_angle_gamma	89.992399
loop_
_atom_site_label
_atom_site_type_symbol
_atom_site_fract_x
_atom_site_fract_y
_atom_site_fract_z
O1	O	1.196356	0.077092	-0.117658
O2	O	1.696356	0.577092	0.382342
O3	O	0.933895	0.077096	-0.131688
O4	O	1.433895	0.577096	0.368312
O5	O	1.072136	0.077097	0.006557
O6	O	1.572136	0.577097	0.506557
O7	O	1.058115	0.077091	-0.255903
O8	O	1.558115	0.577091	0.244097
O9	O	1.072153	-0.077127	0.006548
O10	O	1.572153	0.422873	0.506548
O11	O	0.933912	-0.077128	-0.131697
O12	O	1.433912	0.422872	0.368303
O13	O	1.196372	-0.077131	-0.117667
O14	O	1.696372	0.422869	0.382333
Cu15	Cu	1.065144	-0.091211	-0.124683
Cu16	Cu	1.565144	0.408789	0.375317
Cu17	Cu	1.065124	0.091176	-0.124672
Cu18	Cu	1.565124	0.591176	0.375328
O19	O	1.058131	-0.077132	-0.255912
O20	O	1.558131	0.422868	0.244088
C21	C	0.900314	-0.000015	-0.131058
C22	C	1.400314	0.499985	0.368942
C23	C	0.800230	-0.000014	-0.129158
C24	C	1.300230	0.499986	0.370842
N25	N	1.065164	-0.219492	-0.124689
N26	N	1.565164	0.280508	0.375311
C27	C	0.753201	0.084057	-0.128261
C28	C	1.253201	0.584057	0.371739
C29	C	0.753218	-0.084083	-0.128260
C30	C	1.253218	0.415917	0.371740
C31	C	0.659184	-0.084085	-0.126470
C32	C	1.159184	0.415915	0.373530
C33	C	0.612155	-0.000014	-0.125574
C34	C	1.112155	0.499986	0.374426
C35	C	0.659159	0.084058	-0.126468
C36	C	1.159159	0.584058	0.373532
C37	C	0.612174	-0.168156	-0.125567
C38	C	1.112174	0.331844	0.374433
C39	C	0.518135	-0.168160	-0.123775
C40	C	1.018135	0.331840	0.376225
C41	C	0.471103	-0.084089	-0.122885
C42	C	0.971103	0.415911	0.377115
C43	C	0.518113	-0.000013	-0.123781
C44	C	1.018113	0.499987	0.376219
C45	C	0.471083	0.084058	-0.122884
C46	C	0.971083	0.584058	0.377116
C47	C	0.518091	0.168134	-0.123786
C48	C	1.018091	0.668134	0.376214
C49	C	0.612127	0.168130	-0.125578
C50	C	1.112127	0.668130	0.374422
C51	C	0.377066	-0.084084	-0.121093
C52	C	0.877066	0.415916	0.378907
C53	C	0.377041	0.084059	-0.121091
C54	C	0.877041	0.584059	0.378909
C55	C	1.129100	-0.469121	-0.060751
C56	C	1.629100	0.030879	0.439249
C57	C	1.047616	-0.530916	-0.043143
C58	C	1.547616	-0.030916	0.456857
C59	C	1.065144	-0.408654	-0.124679
C60	C	1.565144	0.091346	0.375321
C61	C	1.146609	-0.530952	-0.142234
C62	C	1.646609	-0.030952	0.357766
C63	C	1.065132	-0.591375	-0.124666
C64	C	1.565132	-0.091375	0.375334
C65	C	0.983618	-0.469088	-0.107030
C66	C	1.483618	0.030912	0.392970
C67	C	1.082665	-0.469119	-0.206157
C68	C	1.582665	0.030881	0.293843
C69	C	1.001122	-0.530887	-0.188583
C70	C	1.501122	-0.030887	0.311417
C71	C	1.065152	-0.303393	-0.124683
C72	C	1.565152	0.196607	0.375317
C73	C	1.065114	-0.696634	-0.124662
C74	C	1.565114	-0.196634	0.375338
C75	C	1.229953	-0.000018	-0.118296
C76	C	1.729953	0.499982	0.381704
C77	C	1.330037	-0.000013	-0.120197
C78	C	1.830037	0.499987	0.379803
C79	C	1.071509	-0.000012	0.040141
C80	C	1.571509	0.499988	0.540141
C81	C	1.069605	-0.000004	0.140225
C82	C	1.569605	0.499996	0.640225
N83	N	1.065110	0.219457	-0.124658
N84	N	1.565110	0.719457	0.375342
C85	C	1.058758	-0.000021	-0.289496
C86	C	1.558758	0.499979	0.210504
C87	C	1.060662	-0.000023	-0.389580
C88	C	1.560662	0.499977	0.110420
C89	C	0.979439	-0.000021	0.552756
C90	C	1.479439	0.499979	1.052756
C91	C	1.143673	-0.000023	0.574042
C92	C	1.643673	0.499977	1.074042
C93	C	1.145463	-0.000017	0.480009
C94	C	1.645463	0.499983	0.980009
C95	C	1.064240	-0.000015	0.422344
C96	C	1.564240	0.499985	0.922344
C97	C	0.981227	-0.000018	0.458713
C98	C	1.481227	0.499982	0.958713
C99	C	1.228474	-0.000024	0.443632
C100	C	1.728474	0.499976	0.943632
C101	C	1.230268	-0.000019	0.349593
C102	C	1.730268	0.499981	0.849593
C103	C	1.149044	-0.000010	0.291927
C104	C	1.649044	0.499990	0.791927
C105	C	1.066027	-0.000012	0.328301
C106	C	1.566027	0.499988	0.828301
C107	C	0.984805	-0.000010	0.270637
C108	C	1.484805	0.499990	0.770637
C109	C	0.901787	-0.000005	0.307009
C110	C	1.401787	0.499995	0.807009
C111	C	0.900003	-0.000009	0.401047
C112	C	1.400003	0.499991	0.901047
C113	C	1.150828	-0.000007	0.197890
C114	C	1.650828	0.499993	0.697890
C115	C	0.986592	-0.000007	0.176594
C116	C	1.486592	0.499993	0.676594
H117	H	0.338756	0.152520	-0.120367
H118	H	0.838756	0.652520	0.379633
H119	H	0.650409	0.236580	-0.126311
H120	H	1.150409	0.736580	0.373689
H121	H	1.097522	-0.441954	-0.275045
H122	H	1.597522	0.058046	0.224955
H123	H	0.791516	-0.152530	-0.128983
H124	H	1.291516	0.347470	0.371017
H125	H	1.215509	-0.558126	-0.157088
H126	H	1.715509	-0.058126	0.342912
H127	H	1.297865	-0.000022	0.319987
H128	H	1.797865	0.499978	0.819987
H129	H	0.479869	-0.236621	-0.123040
H130	H	0.979869	0.263379	0.376960
H131	H	0.479788	0.236585	-0.123052
H132	H	0.979788	0.736585	0.376948
H133	H	1.209801	-0.000032	0.620998
H134	H	1.709801	0.499968	1.120998
H135	H	0.832414	-0.000006	0.430670
H136	H	1.332414	0.499994	0.930670
H137	H	1.294601	-0.000034	0.490589
H138	H	1.794601	0.499966	0.990589
H139	H	0.338796	-0.152538	-0.120367
H140	H	0.838796	0.347462	0.379633
H141	H	0.650473	-0.236601	-0.126288
H142	H	1.150473	0.263399	0.373712
H143	H	1.032784	-0.558062	0.025766
H144	H	1.532784	-0.058062	0.525766
H145	H	0.946972	-0.557836	-0.242643
H146	H	1.446972	-0.057836	0.257357
H147	H	1.183129	-0.442000	-0.006659
H148	H	1.683129	0.058000	0.493341
H149	H	0.920449	-0.000001	0.129649
H150	H	1.420449	0.499999	0.629649
H151	H	0.914703	-0.442029	-0.092098
H152	H	1.414703	0.057971	0.407902
H153	H	0.911848	-0.000013	0.582375
H154	H	1.411848	0.499987	1.082375
H155	H	0.791478	0.152510	-0.128999
H156	H	1.291478	0.652510	0.371001
H157	H	0.835656	-0.000010	0.260047
H158	H	1.335656	0.499990	0.760047
H159	H	1.218419	-0.000016	0.168279
H160	H	1.718419	0.499984	0.668279
