data_functionalizedCrystal
_audit_creation_method	'MofGen! by Chris Wilmer'
_symmetry_space_group_name_H-M	'P1'
_symmetry_Int_Tables_number	1
_symmetry_cell_setting	triclinic
loop_
_symmetry_equiv_pos_as_xyz
  x,y,z
_cell_length_a	14.971486
_cell_length_b	9.730217
_cell_length_c	14.971486
_cell_angle_alpha	89.994685
_cell_angle_beta	96.385871
_cell_angle_gamma	89.998766
loop_
_atom_site_label
_atom_site_type_symbol
_atom_site_fract_x
_atom_site_fract_y
_atom_site_fract_z
O1	O	1.186944	0.114133	-0.116563
O2	O	1.686944	0.614133	0.383437
O3	O	0.926543	0.114170	-0.130522
O4	O	1.426543	0.614170	0.369478
O5	O	1.063723	0.114141	0.006657
O6	O	1.563723	0.614141	0.506657
O7	O	1.049764	0.114162	-0.253743
O8	O	1.549764	0.614162	0.246257
O9	O	1.063713	-0.114440	0.006663
O10	O	1.563713	0.385560	0.506663
O11	O	0.926534	-0.114410	-0.130517
O12	O	1.426534	0.385590	0.369483
O13	O	1.186934	-0.114448	-0.116558
O14	O	1.686934	0.385552	0.383442
Zn15	Zn	1.056732	-0.150721	-0.123536
Zn16	Zn	1.556732	0.349279	0.376464
Zn17	Zn	1.056745	0.150443	-0.123544
Zn18	Zn	1.556745	0.650443	0.376456
O19	O	1.049754	-0.114418	-0.253737
O20	O	1.549754	0.385582	0.246263
C21	C	0.893214	-0.000115	-0.129895
C22	C	1.393214	0.499885	0.370105
C23	C	0.793917	-0.000101	-0.128024
C24	C	1.293917	0.499899	0.371976
N25	N	1.056730	-0.356257	-0.123531
N26	N	1.556730	0.143743	0.376469
C27	C	0.736692	-0.000096	-0.208614
C28	C	1.236692	0.499904	0.291386
C29	C	0.643392	-0.000117	-0.206850
C30	C	1.143392	0.499883	0.293150
C31	C	0.607320	-0.000133	-0.124497
C32	C	1.107320	0.499867	0.375503
C33	C	0.664552	-0.000141	-0.043902
C34	C	1.164552	0.499859	0.456098
C35	C	0.757850	-0.000131	-0.045666
C36	C	1.257850	0.499869	0.454334
C37	C	0.470090	-0.000161	-0.040231
C38	C	0.970090	0.499839	0.459769
C39	C	0.376786	-0.000169	-0.038466
C40	C	0.876786	0.499831	0.461534
C41	C	0.355632	-0.000147	-0.201415
C42	C	0.855632	0.499853	0.298585
C43	C	0.448930	-0.000136	-0.203179
C44	C	0.948930	0.499864	0.296821
C45	C	0.506156	-0.000143	-0.122584
C46	C	1.006156	0.499857	0.377416
C47	C	0.948135	-0.356306	-0.014842
C48	C	1.448135	0.143694	0.485158
C49	C	0.893847	-0.428271	0.039505
C50	C	1.393847	0.071729	0.539505
C51	C	0.893860	-0.572151	0.039505
C52	C	1.393860	-0.072151	0.539505
C53	C	0.948165	-0.644069	-0.014849
C54	C	1.448165	-0.144069	0.485151
C55	C	1.002453	-0.572105	-0.069196
C56	C	1.502453	-0.072105	0.430804
C57	C	1.002436	-0.428222	-0.069188
C58	C	1.502436	0.071778	0.430812
C59	C	1.111042	-0.572056	-0.177888
C60	C	1.611042	-0.072056	0.322112
C61	C	1.111035	-0.428176	-0.177885
C62	C	1.611035	0.071824	0.322115
C63	C	1.165347	-0.643974	-0.232243
C64	C	1.665347	-0.143974	0.267757
C65	C	1.219641	-0.572010	-0.286586
C66	C	1.719641	-0.072010	0.213414
C67	C	1.219626	-0.428121	-0.286583
C68	C	1.719626	0.071879	0.213417
C69	C	1.165323	-0.356212	-0.232232
C70	C	1.665323	0.143788	0.267768
C71	C	1.220263	-0.000159	-0.117185
C72	C	1.720263	0.499841	0.382815
C73	C	1.319561	-0.000164	-0.119056
C74	C	1.819561	0.499836	0.380944
C75	C	1.063094	-0.000149	0.039985
C76	C	1.563094	0.499851	0.539985
C77	C	1.061223	-0.000148	0.139282
C78	C	1.561223	0.499852	0.639282
N79	N	1.056754	0.355980	-0.123542
N80	N	1.556754	0.855980	0.376458
C81	C	1.050384	-0.000125	-0.287065
C82	C	1.550384	0.499875	0.212935
C83	C	1.052254	-0.000118	-0.386362
C84	C	1.552254	0.499882	0.113638
C85	C	1.141812	-0.000160	0.196507
C86	C	1.641812	0.499840	0.696507
C87	C	1.140049	-0.000146	0.289807
C88	C	1.640049	0.499854	0.789807
C89	C	1.057696	-0.000129	0.325879
C90	C	1.557696	0.499871	0.825879
C91	C	0.977101	-0.000112	0.268646
C92	C	1.477101	0.499888	0.768646
C93	C	0.978865	-0.000117	0.175349
C94	C	1.478865	0.499883	0.675349
C95	C	0.973430	-0.000107	0.463109
C96	C	1.473430	0.499893	0.963109
C97	C	0.971665	-0.000105	0.556413
C98	C	1.471665	0.499895	1.056413
C99	C	1.134614	-0.000136	0.577567
C100	C	1.634614	0.499864	1.077567
C101	C	1.136378	-0.000141	0.484269
C102	C	1.636378	0.499859	0.984269
C103	C	1.055782	-0.000126	0.427043
C104	C	1.555782	0.499874	0.927043
H105	H	0.766054	-0.000083	-0.275675
H106	H	1.266054	0.499917	0.224325
H107	H	0.948163	-0.761224	-0.014852
H108	H	1.448163	-0.261224	0.485148
Br109	Br	1.165357	-0.839241	-0.232253
Br110	Br	1.665357	-0.339241	0.267747
H111	H	0.948125	-0.239152	-0.014830
H112	H	1.448125	0.260848	0.485170
Br113	Br	1.293302	-0.330467	-0.360349
Br114	Br	1.793302	0.169533	0.139651
Br115	Br	1.253584	-0.000203	0.147562
Br116	Br	1.753584	0.499797	0.647562
H117	H	0.478296	-0.000111	-0.270239
H118	H	0.978296	0.499889	0.229761
Br119	Br	0.820144	-0.330663	0.113261
Br120	Br	1.320144	0.169337	0.613261
H121	H	1.203437	-0.000164	0.454903
H122	H	1.703437	0.499836	0.954903
Br123	Br	0.864048	-0.000083	0.385445
Br124	Br	1.364048	0.499917	0.885445
Br125	Br	1.249425	-0.000163	0.367467
Br126	Br	1.749425	0.499837	0.867467
H127	H	0.635175	-0.000174	0.023152
H128	H	1.135175	0.499826	0.523152
H129	H	0.849650	-0.630744	0.083755
H130	H	1.349650	-0.130744	0.583755
H131	H	1.200238	-0.000144	0.624165
H132	H	1.700238	0.499856	1.124165
Br133	Br	1.293322	-0.669618	-0.360355
Br134	Br	1.793322	-0.169618	0.139645
H135	H	0.309033	-0.000148	-0.267039
H136	H	0.809033	0.499852	0.232961
Br137	Br	0.327830	-0.000236	0.073300
Br138	Br	0.827830	0.499764	0.573300
Br139	Br	1.165304	-0.160945	-0.232218
Br140	Br	1.665304	0.339055	0.267782
Br141	Br	0.859899	-0.000089	0.605368
Br142	Br	1.359899	0.499911	1.105368
Br143	Br	0.865334	-0.000067	0.317600
Br144	Br	1.365334	0.499933	0.817600
Br145	Br	0.869489	-0.000089	0.097684
Br146	Br	1.369489	0.499911	0.597684
H147	H	0.804443	-0.000134	0.019958
H148	H	1.304443	0.499866	0.519958
H149	H	0.516682	-0.000168	0.025399
H150	H	1.016682	0.499832	0.525399
Br151	Br	0.565731	-0.000106	-0.316227
Br152	Br	1.065731	0.499894	0.183773
