data_functionalizedCrystal
_audit_creation_method	'MofGen! by Chris Wilmer'
_symmetry_space_group_name_H-M	'P1'
_symmetry_Int_Tables_number	1
_symmetry_cell_setting	triclinic
loop_
_symmetry_equiv_pos_as_xyz
  x,y,z
_cell_length_a	19.121246
_cell_length_b	12.827892
_cell_length_c	12.827885
_cell_angle_alpha	90.029786
_cell_angle_beta	92.466039
_cell_angle_gamma	92.448960
loop_
_atom_site_label
_atom_site_type_symbol
_atom_site_fract_x
_atom_site_fract_y
_atom_site_fract_z
Zn1	Zn	-1.073809	0.347983	-0.659212
Zn2	Zn	-1.073737	0.522765	-0.484467
Zn3	Zn	-0.956352	0.355472	-0.477007
Zn4	Zn	-0.956342	0.530121	-0.651693
O5	O	-1.015060	0.439085	-0.568095
O6	O	-1.172086	0.364955	-0.642300
O7	O	-1.058140	0.500628	-0.337240
O8	O	-0.971967	0.208240	-0.501202
O9	O	-1.172033	0.493366	-0.513916
O10	O	-1.058262	0.202738	-0.635066
O11	O	-0.971897	0.377719	-0.331759
O12	O	-0.858064	0.384852	-0.493912
O13	O	-0.971950	0.505904	-0.798928
O14	O	-0.858057	0.513166	-0.622253
O15	O	-1.058253	0.372088	-0.804452
O16	O	-1.058131	0.669979	-0.506626
O17	O	-0.971881	0.675383	-0.629486
C18	C	-0.832576	0.450621	-0.556457
C19	C	-0.754508	0.455581	-0.551504
C20	C	-0.717860	0.391161	-0.616121
C21	C	-0.644507	0.395816	-0.611457
C22	C	-0.607804	0.464899	-0.542181
C23	C	-0.644458	0.529322	-0.477556
C24	C	-0.717809	0.524660	-0.482216
C25	C	-0.386329	0.482309	-0.524759
C26	C	-0.312972	0.486968	-0.520107
C27	C	-0.313027	0.353460	-0.654007
C28	C	-0.386380	0.348809	-0.658665
C29	C	-0.423027	0.413228	-0.594036
C30	C	-0.532826	0.469661	-0.537414
C31	C	-0.498004	0.408459	-0.598798
C32	C	-1.015016	0.710598	-0.568074
C33	C	-1.015062	0.826748	-0.568104
C34	C	-1.015108	0.438982	-0.840668
C35	C	-1.015129	0.438937	-0.956823
C36	C	-0.198257	0.427499	-0.579770
C37	C	-0.276324	0.422547	-0.584725
C38	C	-1.015123	0.166511	-0.568140
C39	C	-1.015150	0.050356	-0.568160
C40	C	-1.057791	0.875820	-0.507382
C41	C	-1.057839	0.995868	-0.507412
C42	C	-1.057830	0.499684	-1.131366
C43	C	-1.057809	0.499731	-1.011314
C44	C	-1.015052	0.439110	-0.296584
C45	C	-1.015168	0.438851	-0.180439
H46	H	-0.416259	0.292559	-0.715081
C47	C	-0.758125	0.595521	-0.411140
H48	H	-0.807067	0.582844	-0.423828
H49	H	-0.746105	0.666518	-0.425545
H50	H	-0.746083	0.580899	-0.340185
C51	C	-0.965798	0.368543	-1.117144
H52	H	-0.939031	0.330378	-1.163500
H53	H	-0.992690	0.321365	-1.076281
H54	H	-0.935203	0.410520	-1.072615
H55	H	-0.283181	0.301012	-0.706622
H56	H	-0.502934	0.525908	-0.481009
H57	H	-1.094336	0.551808	-0.969102
C58	C	-0.758227	0.315169	-0.692326
H59	H	-0.725892	0.277464	-0.730134
H60	H	-0.786853	0.353376	-0.739609
H61	H	-0.786832	0.267767	-0.654238
C62	C	-0.965726	0.993352	-0.638397
H63	H	-0.938947	1.043111	-0.676509
H64	H	-0.992586	0.949002	-0.685625
H65	H	-0.935143	0.952781	-0.596381
H66	H	-0.527891	0.352209	-0.655198
H67	H	-0.416158	0.534764	-0.472135
C68	C	-0.604197	0.324956	-0.682539
H69	H	-0.636562	0.283155	-0.724473
H70	H	-0.575576	0.281191	-0.640826
H71	H	-0.575593	0.366810	-0.726187
C72	C	-0.272600	0.562960	-0.443898
H73	H	-0.304931	0.600652	-0.406069
H74	H	-0.243996	0.610358	-0.481980
H75	H	-0.243974	0.524741	-0.396618
H76	H	-0.614568	0.585565	-0.421145
H77	H	-1.094342	0.828961	-0.455378
H78	H	-1.094420	1.038079	-0.455423
H79	H	-0.978517	0.873609	-0.620116
H80	H	-0.978606	0.386849	-0.999029
C81	C	-1.107194	0.569995	-1.194665
H82	H	-1.100736	0.560734	-1.267050
H83	H	-1.096910	0.640882	-1.176163
H84	H	-1.154399	0.551730	-1.179843
