data_functionalizedCrystal
_audit_creation_method	'MofGen! by Chris Wilmer'
_symmetry_space_group_name_H-M	'P1'
_symmetry_Int_Tables_number	1
_symmetry_cell_setting	triclinic
loop_
_symmetry_equiv_pos_as_xyz
  x,y,z
_cell_length_a	16.625547
_cell_length_b	25.639240
_cell_length_c	25.639243
_cell_angle_alpha	90.013927
_cell_angle_beta	90.010627
_cell_angle_gamma	90.032694
loop_
_atom_site_label
_atom_site_type_symbol
_atom_site_fract_x
_atom_site_fract_y
_atom_site_fract_z
Zn1	Zn	1.232510	-0.208277	0.295653
Zn2	Zn	1.732510	0.291723	0.795653
Zn3	Zn	1.232422	-0.295678	0.208206
Zn4	Zn	1.732422	0.204322	0.708206
Zn5	Zn	1.097705	-0.208258	0.208224
Zn6	Zn	1.597705	0.291742	0.708224
Zn7	Zn	1.097618	-0.295683	0.295603
Zn8	Zn	1.597618	0.204317	0.795603
O9	O	1.165064	-0.251974	0.251921
O10	O	1.665064	0.248026	0.751921
O11	O	1.345331	-0.219877	0.284066
O12	O	1.845331	0.280123	0.784066
O13	O	1.214552	-0.284071	0.135043
O14	O	1.714552	0.215929	0.635043
O15	O	1.115660	-0.135095	0.219850
O16	O	1.615660	0.364905	0.719850
O17	O	1.345266	-0.284090	0.219820
O18	O	1.845266	0.215910	0.719820
O19	O	1.214701	-0.135109	0.284083
O20	O	1.714701	0.364891	0.784083
O21	O	1.115575	-0.219844	0.135056
O22	O	1.615575	0.280156	0.635056
O23	O	0.984861	-0.219849	0.219801
O24	O	1.484861	0.280151	0.719801
O25	O	1.115512	-0.284099	0.368775
O26	O	1.615512	0.215901	0.868775
O27	O	0.984797	-0.284081	0.283999
O28	O	1.484797	0.215919	0.783999
O29	O	1.214616	-0.219882	0.368811
O30	O	1.714616	0.280118	0.868811
O31	O	1.214467	-0.368844	0.219771
O32	O	1.714467	0.131156	0.719771
O33	O	1.115427	-0.368848	0.283981
O34	O	1.615427	0.131152	0.783981
C35	C	0.955573	-0.251964	0.251897
C36	C	1.455573	0.248036	0.751897
C37	C	0.865952	-0.251972	0.251899
C38	C	1.365952	0.248028	0.751899
C39	C	0.793169	-0.251973	0.251905
C40	C	1.293169	0.248027	0.751905
C41	C	0.701861	-0.251976	0.251918
C42	C	1.201861	0.248024	0.751918
C43	C	0.629084	-0.251981	0.251931
C44	C	1.129084	0.248019	0.751931
C45	C	0.537770	-0.251984	0.251944
C46	C	1.037770	0.248016	0.751944
C47	C	1.164950	-0.387817	0.251881
C48	C	1.664950	0.112183	0.751881
C49	C	1.164975	-0.445931	0.251880
C50	C	1.664975	0.054069	0.751880
C51	C	1.216660	-0.806263	0.285428
C52	C	1.716660	-0.306263	0.785428
C53	C	1.216683	-0.860867	0.285439
C54	C	1.716683	-0.360867	0.785439
O55	O	1.260492	-0.889077	0.313920
O56	O	1.760492	-0.389077	0.813920
N57	N	1.165176	-0.888213	0.251972
N58	N	1.665176	-0.388213	0.751972
C59	C	1.113635	-0.860952	0.218496
C60	C	1.613635	-0.360952	0.718496
O61	O	1.069825	-0.889226	0.190031
O62	O	1.569825	-0.389226	0.690031
C63	C	1.113608	-0.806349	0.218488
C64	C	1.613608	-0.306349	0.718488
C65	C	1.165125	-0.779005	0.251954
C66	C	1.665125	-0.279005	0.751954
C67	C	1.268172	-0.778919	0.318891
C68	C	1.768172	-0.278919	0.818891
C69	C	1.268149	-0.724319	0.318880
C70	C	1.768149	-0.224319	0.818880
C71	C	1.216614	-0.697062	0.285405
C72	C	1.716614	-0.197062	0.785405
C73	C	1.165102	-0.724405	0.251942
C74	C	1.665102	-0.224405	0.751942
C75	C	1.062063	-0.779089	0.185016
C76	C	1.562063	-0.279089	0.685016
C77	C	1.062040	-0.724482	0.185011
C78	C	1.562040	-0.224482	0.685011
C79	C	1.113557	-0.697139	0.218476
C80	C	1.613557	-0.197139	0.718476
C81	C	1.113544	-0.642547	0.218456
C82	C	1.613544	-0.142547	0.718456
N83	N	1.165051	-0.615201	0.251923
N84	N	1.665051	-0.115201	0.751923
C85	C	1.216587	-0.642458	0.285398
C86	C	1.716587	-0.142458	0.785398
C87	C	1.113695	-0.975623	0.218515
C88	C	1.613695	-0.475623	0.718515
C89	C	1.113726	-1.030225	0.218520
C90	C	1.613726	-0.530225	0.718520
C91	C	1.216773	-1.030136	0.285463
C92	C	1.716773	-0.530136	0.785463
C93	C	1.216746	-0.975533	0.285456
C94	C	1.716746	-0.475533	0.785456
C95	C	1.165203	-0.948277	0.251982
C96	C	1.665203	-0.448277	0.751982
C97	C	1.216535	-0.527793	0.285371
C98	C	1.716535	-0.027793	0.785371
C99	C	1.216510	-0.473188	0.285355
C100	C	1.716510	0.026812	0.785355
C101	C	1.113459	-0.473282	0.218413
C102	C	1.613459	0.026718	0.718413
C103	C	1.113487	-0.527882	0.218427
C104	C	1.613487	-0.027882	0.718427
C105	C	1.165028	-0.555137	0.251910
C106	C	1.665028	-0.055137	0.751910
O107	O	1.069755	-0.614302	0.189991
O108	O	1.569755	-0.114302	0.689991
O109	O	1.260382	-0.614178	0.313863
O110	O	1.760382	-0.114178	0.813863
C111	C	1.375373	-0.251985	0.251947
C112	C	1.875373	0.248015	0.751947
C113	C	1.464994	-0.251989	0.251957
C114	C	1.964994	0.248011	0.751957
C115	C	1.165064	-0.251993	0.388294
C116	C	1.665064	0.248007	0.888294
C117	C	1.165064	-0.252002	0.446408
C118	C	1.665064	0.247998	0.946408
C119	C	1.165200	-0.115601	0.251974
C120	C	1.665200	0.384399	0.751974
C121	C	1.165258	-0.057487	0.251996
C122	C	1.665258	0.442513	0.751996
C123	C	1.216665	-0.218540	0.806796
C124	C	1.716665	0.281460	1.306796
C125	C	1.216665	-0.218537	0.861401
C126	C	1.716665	0.281463	1.361401
O127	O	1.260525	-0.190090	0.889658
O128	O	1.760525	0.309910	1.389658
N129	N	1.165069	-0.251972	0.888691
N130	N	1.665069	0.248028	1.388691
C131	C	1.113465	-0.285408	0.861374
C132	C	1.613465	0.214592	1.361374
O133	O	1.069579	-0.313846	0.889601
O134	O	1.569579	0.186154	1.389601
C135	C	1.113462	-0.285408	0.806771
C136	C	1.613462	0.214592	1.306771
C137	C	1.165067	-0.251975	0.779483
C138	C	1.665067	0.248025	1.279483
C139	C	1.268265	-0.185109	0.779509
C140	C	1.768265	0.314891	1.279509
C141	C	1.268266	-0.185113	0.724908
C142	C	1.768266	0.314887	1.224908
C143	C	1.216668	-0.218548	0.697595
C144	C	1.716668	0.281452	1.197595
C145	C	1.165068	-0.251979	0.724883
C146	C	1.665068	0.248021	1.224883
C147	C	1.061854	-0.318841	0.779455
C148	C	1.561854	0.181159	1.279455
C149	C	1.061855	-0.318838	0.724848
C150	C	1.561855	0.181162	1.224848
C151	C	1.113460	-0.285405	0.697561
C152	C	1.613460	0.214595	1.197561
C153	C	1.113471	-0.285417	0.642969
C154	C	1.613471	0.214583	1.142969
N155	N	1.165066	-0.251982	0.615679
N156	N	1.665066	0.248018	1.115679
C157	C	1.216664	-0.218548	0.642992
C158	C	1.716664	0.281452	1.142992
C159	C	1.113475	-0.285405	0.976045
C160	C	1.613475	0.214595	1.476045
C161	C	1.113481	-0.285408	1.030647
C162	C	1.613481	0.214592	1.530647
C163	C	1.216680	-0.218536	1.030670
C164	C	1.716680	0.281464	1.530670
C165	C	1.216677	-0.218536	0.976066
C166	C	1.716677	0.281464	1.476066
C167	C	1.165070	-0.251970	0.948754
C168	C	1.665070	0.248030	1.448754
C169	C	1.216664	-0.218559	0.528327
C170	C	1.716664	0.281441	1.028327
C171	C	1.216663	-0.218567	0.473721
C172	C	1.716663	0.281433	0.973721
C173	C	1.113461	-0.285437	0.473704
C174	C	1.613461	0.214563	0.973704
C175	C	1.113465	-0.285430	0.528304
C176	C	1.613465	0.214570	1.028304
C177	C	1.165069	-0.251987	0.555614
C178	C	1.665069	0.248013	1.055614
O179	O	1.069630	-0.313848	0.614677
O180	O	1.569630	0.186152	1.114677
O181	O	1.260536	-0.190110	0.614759
O182	O	1.760536	0.309890	1.114759
C183	C	1.165062	-0.251970	1.116079
C184	C	1.665062	0.248030	1.616079
C185	C	1.165077	-0.251971	1.057965
C186	C	1.665077	0.248029	1.557965
H187	H	1.258464	-0.450926	0.312606
H188	H	1.758464	0.049074	0.812606
H189	H	1.071469	-0.312638	1.052860
H190	H	1.571469	0.187362	1.552860
C191	C	1.273435	-0.181754	1.060724
C192	C	1.773435	0.318246	1.560724
N193	N	1.316179	-0.154050	1.083363
N194	N	1.816179	0.345950	1.583363
H195	H	1.071449	-0.312634	0.953811
H196	H	1.571449	0.187366	1.453811
H197	H	1.019832	-0.346066	0.801663
H198	H	1.519832	0.153934	1.301663
H199	H	1.258697	-0.191311	0.953852
H200	H	1.758697	0.308689	1.453852
C201	C	1.057059	-1.060297	0.181701
C202	C	1.557059	-0.560297	0.681701
N203	N	1.014372	-1.082945	0.153971
N204	N	1.514372	-0.582945	0.653971
H205	H	1.258682	-0.191324	0.550556
H206	H	1.758682	0.308676	1.050556
C207	C	1.056821	-0.557961	0.181611
C208	C	1.556821	-0.057961	0.681611
N209	N	1.014133	-0.580612	0.153884
N210	N	1.514133	-0.080612	0.653884
C211	C	1.005384	-0.809155	0.148204
C212	C	1.505384	-0.309155	0.648204
N213	N	0.962687	-0.831799	0.120477
N214	N	1.462687	-0.331799	0.620477
H215	H	1.310138	-0.801106	0.346153
H216	H	1.810138	-0.301106	0.846153
H217	H	1.258695	-0.953273	0.312706
H218	H	1.758695	-0.453273	0.812706
C219	C	1.005338	-0.694504	0.148186
C220	C	1.505338	-0.194504	0.648186
N221	N	0.962631	-0.671925	0.120447
N222	N	1.462631	-0.171925	0.620447
C223	C	1.056770	-0.443288	0.181595
C224	C	1.556770	0.056712	0.681595
N225	N	1.014066	-0.420696	0.153867
N226	N	1.514066	0.079304	0.653867
H227	H	1.310286	-0.157887	0.702695
H228	H	1.810286	0.342113	1.202695
H229	H	1.071454	-0.312660	0.451456
H230	H	1.571454	0.187340	0.951456
C231	C	1.273458	-1.060129	0.322290
C232	C	1.773458	-0.560129	0.822290
N233	N	1.316149	-1.082722	0.350027
N234	N	1.816149	-0.582722	0.850027
C235	C	1.056992	-0.945646	0.181687
C236	C	1.556992	-0.445646	0.681687
N237	N	1.014282	-0.923070	0.153949
N238	N	1.514282	-0.423070	0.653949
C239	C	1.273430	-0.181784	0.443708
C240	C	1.773430	0.318216	0.943708
N241	N	1.316184	-0.154078	0.421104
N242	N	1.816184	0.345922	0.921104
C243	C	1.325035	-0.148327	0.809544
C244	C	1.825035	0.351673	1.309544
N245	N	1.367803	-0.120623	0.832163
N246	N	1.867803	0.379377	1.332163
H247	H	1.019821	-0.346059	0.702614
H248	H	1.519821	0.153941	1.202614
H249	H	1.258499	-0.549977	0.312639
H250	H	1.758499	-0.049977	0.812639
C251	C	1.324825	-0.694248	0.355693
C252	C	1.824825	-0.194248	0.855693
N253	N	1.367517	-0.671602	0.383422
N254	N	1.867517	-0.171602	0.883422
H255	H	1.071452	-0.312659	0.550523
H256	H	1.571452	0.187341	1.050523
