data_functionalizedCrystal
_audit_creation_method	'MofGen! by Chris Wilmer'
_symmetry_space_group_name_H-M	'P1'
_symmetry_Int_Tables_number	1
_symmetry_cell_setting	triclinic
loop_
_symmetry_equiv_pos_as_xyz
  x,y,z
_cell_length_a	12.759401
_cell_length_b	16.625545
_cell_length_c	16.625539
_cell_angle_alpha	89.971766
_cell_angle_beta	90.018781
_cell_angle_gamma	89.974438
loop_
_atom_site_label
_atom_site_type_symbol
_atom_site_fract_x
_atom_site_fract_y
_atom_site_fract_z
Zn1	Zn	1.606176	0.320967	0.455871
Zn2	Zn	1.606045	0.455811	0.321039
Zn3	Zn	1.430481	0.320999	0.321056
Zn4	Zn	1.430438	0.455765	0.455833
O5	O	1.518285	0.388386	0.388450
O6	O	1.753179	0.338860	0.437994
O7	O	1.582719	0.437960	0.208209
O8	O	1.453860	0.208163	0.338963
O9	O	1.753083	0.437929	0.338933
O10	O	1.582942	0.208139	0.438011
O11	O	1.453733	0.338914	0.208221
O12	O	1.283454	0.338871	0.338926
O13	O	1.453786	0.437852	0.568670
O14	O	1.283423	0.437883	0.437945
O15	O	1.582900	0.338816	0.568699
O16	O	1.582677	0.568637	0.338896
O17	O	1.453660	0.568604	0.437929
C18	C	1.245318	0.388376	0.388434
C19	C	1.128541	0.388391	0.388446
C20	C	1.518178	0.597876	0.388424
C21	C	1.518228	0.687498	0.388440
C22	C	1.073690	0.440025	0.439924
C23	C	0.963966	0.440028	0.439940
C24	C	0.963954	0.336761	0.336993
C25	C	1.073676	0.336754	0.336981
C26	C	0.814059	0.468968	0.534997
C27	C	0.759204	0.520615	0.586468
C28	C	0.794785	0.599304	0.598704
C29	C	0.885218	0.626362	0.559457
C30	C	0.940067	0.574720	0.507980
C31	C	0.904488	0.496019	0.495759
C32	C	1.223584	0.307823	0.241924
C33	C	1.278435	0.256184	0.190442
C34	C	1.242857	0.177493	0.178197
C35	C	1.152420	0.150438	0.217431
C36	C	1.097569	0.202077	0.268913
C37	C	1.133155	0.280766	0.281158
C38	C	1.518400	1.015673	0.388536
C39	C	1.518349	0.924365	0.388512
C40	C	1.518313	0.851588	0.388488
C41	C	1.518264	0.760274	0.388464
C42	C	1.792318	0.388396	0.388466
C43	C	1.909095	0.388401	0.388473
C44	C	1.518353	0.388326	0.598759
C45	C	1.518382	0.388300	0.688380
C46	C	1.518412	1.178077	0.388503
C47	C	1.518443	1.088456	0.388550
C48	C	1.518277	0.388387	0.178959
C49	C	1.518452	0.388186	0.089338
C50	C	1.518431	0.388210	1.016556
C51	C	1.518414	0.388237	0.925247
C52	C	1.518407	0.388255	0.852471
C53	C	1.518390	0.388282	0.761156
H54	H	1.118358	0.482069	0.481832
H55	H	0.750115	0.641354	0.640614
H56	H	1.252568	0.371897	0.251896
H57	H	1.352074	0.278220	0.158495
H58	H	0.785088	0.404890	0.525047
H59	H	1.013696	0.596750	0.476025
F60	F	0.923070	0.710119	0.572473
H61	H	1.023936	0.180039	0.300864
F62	F	1.301230	0.122540	0.123394
F63	F	0.905553	0.281810	0.282222
F64	F	0.662964	0.491813	0.628239
F65	F	1.114546	0.066688	0.204395
