data_functionalizedCrystal
_audit_creation_method	'MofGen! by Chris Wilmer'
_symmetry_space_group_name_H-M	'P1'
_symmetry_Int_Tables_number	1
_symmetry_cell_setting	triclinic
loop_
_symmetry_equiv_pos_as_xyz
  x,y,z
_cell_length_a	12.759395
_cell_length_b	25.639240
_cell_length_c	12.759387
_cell_angle_alpha	90.043601
_cell_angle_beta	90.021426
_cell_angle_gamma	90.033446
loop_
_atom_site_label
_atom_site_type_symbol
_atom_site_fract_x
_atom_site_fract_y
_atom_site_fract_z
Zn1	Zn	1.606137	-0.208114	0.593937
Zn2	Zn	1.605972	-0.295559	0.418219
Zn3	Zn	1.430435	-0.208141	0.418271
Zn4	Zn	1.430372	-0.295521	0.593855
O5	O	1.518229	-0.251834	0.506070
O6	O	1.753136	-0.219718	0.570640
O7	O	1.582644	-0.283991	0.271204
O8	O	1.453838	-0.134972	0.441631
O9	O	1.753015	-0.283964	0.441540
O10	O	1.582925	-0.134952	0.570692
O11	O	1.453678	-0.219765	0.271243
O12	O	1.283406	-0.219727	0.441550
O13	O	1.453730	-0.283899	0.740887
O14	O	1.283359	-0.283925	0.570551
O15	O	1.582864	-0.219681	0.740948
O16	O	1.582583	-0.368720	0.441460
O17	O	1.453570	-0.368691	0.570500
C18	C	1.245262	-0.251825	0.506048
C19	C	1.128485	-0.251834	0.506063
C20	C	0.909052	-0.318804	0.640214
C21	C	0.963919	-0.352277	0.707264
C22	C	1.073640	-0.352271	0.707251
C23	C	1.128497	-0.318788	0.640178
C24	C	1.073630	-0.285314	0.573127
C25	C	0.963906	-0.285323	0.573150
C26	C	1.073618	-0.218361	0.439013
C27	C	0.963896	-0.218364	0.439030
C28	C	1.128475	-0.184878	0.371940
C29	C	1.073608	-0.151401	0.304893
C30	C	0.963880	-0.151408	0.304910
C31	C	0.909029	-0.184890	0.371980
C32	C	1.518081	-0.387676	0.505988
C33	C	1.518113	-0.445790	0.505988
C34	C	1.585478	-0.806104	0.573394
C35	C	1.585509	-0.860709	0.573415
O36	O	1.642609	-0.888904	0.630641
N37	N	1.518375	-0.888073	0.506172
C38	C	1.451198	-0.860830	0.438911
O39	O	1.394097	-0.889119	0.381718
C40	C	1.451162	-0.806226	0.438895
C41	C	1.518308	-0.778865	0.506135
C42	C	1.652618	-0.778743	0.640629
C43	C	1.652588	-0.724143	0.640606
C44	C	1.585418	-0.696903	0.573348
C45	C	1.518278	-0.724265	0.506112
C46	C	1.383980	-0.778984	0.371640
C47	C	1.383950	-0.724377	0.371631
C48	C	1.451096	-0.697016	0.438871
C49	C	1.451079	-0.642425	0.438831
N50	N	1.518213	-0.615061	0.506074
C51	C	1.585383	-0.642300	0.573333
C52	C	1.451276	-0.975500	0.438949
C53	C	1.451316	-1.030102	0.438958
C54	C	1.585626	-1.029978	0.573464
C55	C	1.585591	-0.975375	0.573449
C56	C	1.518410	-0.948136	0.506192
C57	C	1.585316	-0.527635	0.573279
C58	C	1.585283	-0.473030	0.573246
C59	C	1.450969	-0.473159	0.438745
C60	C	1.451005	-0.527760	0.438772
C61	C	1.518182	-0.554996	0.506048
O62	O	1.394005	-0.614195	0.381637
O63	O	1.642464	-0.614004	0.630526
C64	C	1.792262	-0.251842	0.506094
C65	C	1.909039	-0.251846	0.506104
C66	C	1.518308	-0.251782	0.780104
C67	C	1.518342	-0.251761	0.896881
C68	C	1.518407	-0.115461	0.506176
C69	C	1.518482	-0.057347	0.506221
C70	C	1.518210	-0.251847	0.233103
C71	C	1.518380	-0.251722	0.116327
C72	C	1.652818	-0.184895	0.896964
C73	C	1.720071	-0.151454	0.951866
C74	C	1.720096	-0.151435	1.061588
C75	C	1.652860	-0.184859	1.116410
C76	C	1.585607	-0.218300	1.061507
C77	C	1.585591	-0.218317	0.951783
C78	C	1.451128	-0.285162	1.061425
C79	C	1.451106	-0.285185	0.951703
C80	C	1.383891	-0.318586	1.116247
C81	C	1.316642	-0.352030	1.061344
C82	C	1.316620	-0.352048	0.951616
C83	C	1.383853	-0.318625	0.896801
H84	H	0.919242	-0.379539	0.761872
H85	H	1.396572	-0.953325	0.384172
H86	H	1.261843	-0.379274	0.906921
H87	H	1.640010	-0.549805	0.628068
O88	O	1.132829	-0.388371	0.779571
H89	H	1.076256	-0.411652	0.826218
O90	O	0.904701	-0.115302	0.232593
H91	H	0.961283	-0.092019	0.185962
O92	O	1.246840	-0.318787	0.640143
H93	H	1.275776	-0.347689	0.698032
H94	H	1.217816	-0.184877	0.371929
O95	O	1.725078	-0.808114	0.713179
H96	H	1.678055	-0.832986	0.766613
H97	H	0.819688	-0.184897	0.372005
O98	O	1.311547	-0.808483	0.299120
H99	H	1.358596	-0.833362	0.245699
O100	O	1.658009	-0.945866	0.645976
H101	H	1.711475	-0.920989	0.598992
O102	O	1.658071	-1.059364	0.646016
H103	H	1.640003	-1.048851	0.728452
O104	O	1.378589	-0.557276	0.366250
H105	H	1.331874	-0.529159	0.319481
O106	O	1.132769	-0.115289	0.232556
H107	H	1.218283	-0.120909	0.243812
H108	H	1.639965	-0.450754	0.628001
H109	H	1.774853	-0.124202	1.106289
H110	H	1.396283	-0.450972	0.383980
O111	O	1.378901	-1.059612	0.366430
H112	H	1.332188	-1.031492	0.319666
H113	H	1.707261	-0.701868	0.695362
H114	H	1.329240	-0.702202	0.316864
H115	H	1.652814	-0.184912	0.807623
O116	O	1.792599	-0.115409	0.892741
H117	H	1.781296	-0.121043	0.807220
O118	O	1.652875	-0.184837	1.234753
H119	H	1.710935	-0.155969	1.263719
O120	O	1.383911	-0.318569	1.234589
H121	H	1.441978	-0.289704	1.263559
O122	O	1.244120	-0.388073	1.120470
H123	H	1.291108	-0.414670	1.170449
O124	O	0.790709	-0.318814	0.640217
H125	H	0.761781	-0.347723	0.698109
O126	O	1.383824	-0.318651	0.778458
H127	H	1.362638	-0.279220	0.749553
