data_functionalizedCrystal
_audit_creation_method	'MofGen! by Chris Wilmer'
_symmetry_space_group_name_H-M	'P1'
_symmetry_Int_Tables_number	1
_symmetry_cell_setting	triclinic
loop_
_symmetry_equiv_pos_as_xyz
  x,y,z
_cell_length_a	17.699083
_cell_length_b	14.044220
_cell_length_c	16.176319
_cell_angle_alpha	89.992517
_cell_angle_beta	89.998611
_cell_angle_gamma	88.235946
loop_
_atom_site_label
_atom_site_type_symbol
_atom_site_fract_x
_atom_site_fract_y
_atom_site_fract_z
O1	O	1.012346	0.119850	-0.068632
O2	O	0.793044	0.135443	-0.068659
O3	O	0.899403	-0.010330	-0.068638
O4	O	0.905987	0.265624	-0.068653
O5	O	0.899387	-0.010340	0.068855
O6	O	0.793027	0.135434	0.068834
O7	O	1.012330	0.119841	0.068861
Cu8	Cu	0.902677	0.127637	0.081402
Cu9	Cu	0.902696	0.127648	-0.081200
O10	O	0.905970	0.265614	0.068840
C11	C	0.764800	0.134880	0.000084
C12	C	0.680666	0.133204	0.000074
C13	C	0.896513	-0.045643	0.000109
C14	C	0.887917	-0.150849	0.000109
C15	C	0.637948	0.218769	0.000069
C16	C	0.558895	0.217189	0.000080
C17	C	0.522563	0.130041	0.000089
C18	C	0.565287	0.044469	0.000096
C19	C	0.644338	0.046050	0.000092
C20	C	0.246484	0.038089	0.000117
C21	C	0.167427	0.036514	0.000120
C22	C	0.161041	0.209227	0.000106
C23	C	0.240092	0.210809	0.000101
C24	C	0.282809	0.125237	0.000112
C25	C	0.368527	0.126952	0.000102
C26	C	0.436847	0.128325	0.000094
C27	C	0.872202	-0.343474	0.000095
C28	C	0.933168	-0.401248	0.000100
C29	C	0.924424	-0.508431	0.000092
C30	C	0.880945	-0.236281	0.000102
C31	C	1.040574	0.120404	0.000116
C32	C	1.124707	0.122081	0.000121
C33	C	0.908860	0.300927	0.000091
C34	C	0.917456	0.406133	0.000086
N35	N	0.902668	0.127628	0.195767
N36	N	0.902710	0.127648	-0.195565
C37	C	0.949782	0.063106	0.239041
C38	C	0.949786	0.063105	0.325588
C39	C	0.902679	0.127632	0.368860
C40	C	0.855561	0.192157	0.325580
C41	C	0.855554	0.192153	0.239034
C42	C	0.855588	0.192175	0.674608
C43	C	0.855600	0.192176	0.761160
C44	C	0.949820	0.063127	0.761161
C45	C	0.949813	0.063123	0.674616
C46	C	0.902692	0.127644	0.631344
C47	C	0.902687	0.127643	0.537500
C48	C	0.902687	0.127638	0.462702
H49	H	0.524117	0.286865	0.000075
H50	H	0.991930	-0.370212	0.000052
C51	C	0.813740	0.249473	0.458245
C52	C	0.803782	0.263089	0.373143
H53	H	0.781777	0.293271	0.487605
H54	H	0.801253	0.186243	0.472438
H55	H	0.864944	0.259689	0.472410
H56	H	0.752579	0.252866	0.358977
H57	H	0.816264	0.326334	0.358945
C58	C	0.225837	0.381376	0.000098
C59	C	0.280028	0.306604	0.000094
H60	H	0.250493	0.440516	0.000102
H61	H	0.195139	0.377175	-0.047845
H62	H	0.195136	0.377155	0.048049
H63	H	0.310725	0.310821	-0.047860
H64	H	0.310739	0.310807	0.048042
C65	C	0.983194	-0.101019	0.787818
C66	C	1.001608	-0.007810	0.808729
H67	H	1.015169	-0.144809	0.817180
H68	H	0.932002	-0.111226	0.802012
H69	H	0.989935	-0.110240	0.730081
H70	H	0.994862	0.001413	0.866466
H71	H	1.052812	0.002401	0.794541
C72	C	0.847866	0.321186	0.577279
C73	C	0.803804	0.263111	0.627054
H74	H	0.815895	0.364981	0.547917
H75	H	0.881667	0.355216	0.611035
H76	H	0.875908	0.282747	0.539120
H77	H	0.775766	0.301551	0.665218
H78	H	0.769989	0.229079	0.593296
C79	C	0.799463	-0.484976	0.000093
C80	C	0.792879	-0.385364	0.000092
H81	H	0.750493	-0.510843	0.000099
H82	H	0.826173	-0.505813	-0.047853
H83	H	0.826180	-0.505827	0.048042
H84	H	0.766167	-0.364513	-0.047860
H85	H	0.766158	-0.364518	0.048042
C86	C	0.181676	-0.134063	0.000153
C87	C	0.127489	-0.059286	0.000139
H88	H	0.157018	-0.193201	0.000169
H89	H	0.212374	-0.129861	-0.047793
H90	H	0.212377	-0.129846	0.048102
H91	H	0.096791	-0.063499	-0.047814
H92	H	0.096778	-0.063490	0.048089
H93	H	0.281255	-0.031590	0.000127
C94	C	0.623687	0.389335	0.000064
C95	C	0.677880	0.314567	0.000061
H96	H	0.648339	0.448477	0.000066
H97	H	0.592988	0.385131	-0.047878
H98	H	0.592987	0.385113	0.048016
H99	H	0.708577	0.318785	-0.047895
H100	H	0.708592	0.318773	0.048008
C101	C	0.037025	0.283508	0.000117
C102	C	0.114084	0.303293	0.000104
H103	H	0.008039	0.341580	0.000120
H104	H	0.025382	0.247775	-0.047822
H105	H	0.025392	0.247765	0.048073
H106	H	0.125717	0.339030	-0.047854
H107	H	0.125731	0.339041	0.048048
C108	C	1.042912	-0.064463	0.247745
C109	C	1.001562	-0.007827	0.191480
H110	H	1.074874	-0.108260	0.218383
H111	H	1.072796	-0.025054	0.281488
H112	H	1.009105	-0.098498	0.281512
H113	H	1.035369	0.026214	0.157717
H114	H	0.971675	-0.047241	0.157723
C115	C	0.957529	-0.065912	0.422920
C116	C	1.001579	-0.007819	0.373148
H117	H	0.989508	-0.109703	0.452275
H118	H	0.929483	-0.027490	0.461077
H119	H	0.923730	-0.099952	0.389157
H120	H	1.035375	0.026227	0.406912
H121	H	1.029638	-0.046246	0.334986
H122	H	0.817238	0.244723	0.796390
H123	H	0.535699	-0.026488	0.000116
H124	H	0.988174	0.010583	0.639387
C125	C	0.762426	0.319724	0.247720
C126	C	0.803769	0.263082	0.191465
H127	H	0.730458	0.363515	0.218351
H128	H	0.732548	0.280318	0.281484
H129	H	0.796237	0.353766	0.281468
H130	H	0.769958	0.229035	0.157721
H131	H	0.833649	0.302493	0.157687
C132	C	0.674129	-0.100671	-0.070587
C133	C	0.691300	-0.048004	0.000090
H134	H	0.703126	-0.158735	-0.070587
H135	H	0.621857	-0.114086	-0.070577
H136	H	0.685773	-0.064914	-0.118531
H137	H	0.679651	-0.083759	0.048034
H138	H	0.743584	-0.034592	0.000088
