data_functionalizedCrystal
_audit_creation_method	'MofGen! by Chris Wilmer'
_symmetry_space_group_name_H-M	'P1'
_symmetry_Int_Tables_number	1
_symmetry_cell_setting	triclinic
loop_
_symmetry_equiv_pos_as_xyz
  x,y,z
_cell_length_a	10.685980
_cell_length_b	10.685194
_cell_length_c	10.686551
_cell_angle_alpha	81.584560
_cell_angle_beta	81.591741
_cell_angle_gamma	98.380820
loop_
_atom_site_label
_atom_site_type_symbol
_atom_site_fract_x
_atom_site_fract_y
_atom_site_fract_z
Zn1	Zn	1.972034	-0.286508	-0.842905
Zn2	Zn	1.936412	-0.518076	-0.611406
Zn3	Zn	1.740511	-0.322085	-0.611414
Zn4	Zn	1.740546	-0.517952	-0.807327
O5	O	1.847376	-0.411155	-0.718263
O6	O	2.146172	-0.302389	-0.827082
O7	O	1.895503	-0.507019	-0.432534
O8	O	1.786117	-0.138482	-0.657015
O9	O	2.120001	-0.472521	-0.657001
O10	O	1.956215	-0.112343	-0.827090
O11	O	1.751576	-0.363024	-0.432540
O12	O	1.561652	-0.362904	-0.622516
O13	O	1.786176	-0.472309	-0.990919
O14	O	1.561678	-0.506807	-0.766452
O15	O	1.956249	-0.302268	-1.017058
O16	O	1.895537	-0.696943	-0.622502
O17	O	1.751635	-0.696852	-0.766444
C18	C	1.515288	-0.438703	-0.690625
C19	C	1.373219	-0.450517	-0.678829
C20	C	1.819761	-0.743275	-0.690642
C21	C	1.808068	-0.885344	-0.678879
C22	C	2.180761	-0.383500	-0.746009
C23	C	2.322830	-0.371715	-0.757833
C24	C	1.875190	-0.383306	-1.051665
C25	C	1.887043	-0.371439	-1.193742
C26	C	1.875136	-0.077733	-0.746022
C27	C	1.886965	0.064351	-0.757851
C28	C	1.819751	-0.438797	-0.386171
C29	C	1.808176	-0.450284	-0.244146
H30	H	1.307665	-0.527025	-0.602155
H31	H	1.731558	-0.950970	-0.602266
O32	O	1.978363	-0.279907	-1.271795
C33	C	2.061850	-0.053919	-1.336198
C34	C	1.958378	-0.157445	-1.247711
H35	H	2.045713	0.045117	-1.316777
H36	H	2.160914	-0.069872	-1.316716
H37	H	2.055473	-0.060364	-1.440688
H38	H	1.964635	-0.151060	-1.143191
H39	H	1.859358	-0.141458	-1.267304
H40	H	1.963460	-0.870031	-0.834470
O41	O	1.716966	-0.541708	-1.165832
C42	C	1.672976	-0.728221	-0.999218
C43	C	1.776400	-0.624740	-1.087825
H44	H	1.720991	-0.795396	-0.936146
H45	H	1.605885	-0.680312	-0.935953
H46	H	1.615479	-0.785620	-1.060034
H47	H	1.833989	-0.567307	-1.027110
H48	H	1.843403	-0.672728	-1.151096
O49	O	1.401201	-0.280549	-0.849265
C50	C	1.619018	-0.185168	-0.944702
C51	C	1.530401	-0.288490	-0.841117
H52	H	1.723494	-0.191536	-0.938132
H53	H	1.599685	-0.201312	-1.043745
H54	H	1.599467	-0.086092	-0.928858
H55	H	1.549900	-0.387609	-0.856841
H56	H	1.549751	-0.272233	-0.742112
