data_functionalizedCrystal
_audit_creation_method	'MofGen! by Chris Wilmer'
_symmetry_space_group_name_H-M	'P1'
_symmetry_Int_Tables_number	1
_symmetry_cell_setting	triclinic
loop_
_symmetry_equiv_pos_as_xyz
  x,y,z
_cell_length_a	10.654545
_cell_length_b	27.731996
_cell_length_c	26.809956
_cell_angle_alpha	89.998344
_cell_angle_beta	89.991546
_cell_angle_gamma	83.552233
loop_
_atom_site_label
_atom_site_type_symbol
_atom_site_fract_x
_atom_site_fract_y
_atom_site_fract_z
O1	O	1.664968	0.067870	-0.041482
O2	O	2.164968	0.567870	0.458518
O3	O	1.299214	0.074341	-0.041485
O4	O	1.799214	0.574341	0.458515
O5	O	1.493485	0.000778	-0.041472
O6	O	1.993485	0.500778	0.458528
O7	O	1.470697	0.141433	-0.041494
O8	O	1.970697	0.641433	0.458506
O9	O	1.493448	0.000789	0.041487
O10	O	1.993448	0.500789	0.541487
O11	O	1.299177	0.074352	0.041475
O12	O	1.799177	0.574352	0.541475
O13	O	1.664932	0.067882	0.041477
O14	O	2.164932	0.567882	0.541477
Zn15	Zn	1.482049	0.071118	0.054647
Zn16	Zn	1.982049	0.571118	0.554647
Zn17	Zn	1.482097	0.071104	-0.054655
Zn18	Zn	1.982097	0.571104	0.445345
O19	O	1.470661	0.141444	0.041465
O20	O	1.970661	0.641444	0.541465
C21	C	1.252418	0.073872	-0.000005
C22	C	1.752418	0.573872	0.499995
C23	C	1.113034	0.072452	-0.000006
C24	C	1.613034	0.572452	0.499994
C25	C	1.047538	0.071789	0.045216
C26	C	1.547538	0.571789	0.545216
C27	C	0.916576	0.070447	0.045216
C28	C	1.416576	0.570447	0.545216
C29	C	0.916617	0.070432	-0.045231
C30	C	1.416617	0.570432	0.454769
C31	C	1.047578	0.071770	-0.045231
C32	C	1.547578	0.571770	0.454769
C33	C	1.492998	-0.017227	0.000009
C34	C	1.992998	0.482773	0.500009
C35	C	1.491588	-0.070892	0.000014
C36	C	1.991588	0.429108	0.500014
C37	C	1.482737	-0.403670	-0.045232
C38	C	1.982737	0.096330	0.454768
C39	C	1.477383	-0.605361	-0.045240
C40	C	1.977383	-0.105361	0.454760
O41	O	1.476654	-0.631442	-0.083699
O42	O	1.976654	-0.131442	0.416301
N43	N	1.476698	-0.630576	-0.000020
N44	N	1.976698	-0.130576	0.499980
C45	C	1.477344	-0.605365	0.045206
C46	C	1.977344	-0.105365	0.545206
O47	O	1.476625	-0.631439	0.083669
O48	O	1.976625	-0.131439	0.583669
C49	C	1.482689	-0.403674	0.045215
C50	C	1.982689	0.096326	0.545215
C51	C	1.483387	-0.378462	-0.000009
C52	C	1.983387	0.121538	0.499991
C53	C	1.483434	-0.378457	-0.090451
C54	C	1.983434	0.121543	0.409549
C55	C	1.484779	-0.328038	-0.090449
C56	C	1.984779	0.171962	0.409551
C57	C	1.485428	-0.302830	-0.045226
C58	C	1.985428	0.197170	0.454774
C59	C	1.484732	-0.328042	-0.000006
C60	C	1.984732	0.171958	0.499994
C61	C	1.483325	-0.378463	0.090440
C62	C	1.983325	0.121537	0.590440
C63	C	1.484658	-0.328037	0.090438
C64	C	1.984658	0.171963	0.590438
C65	C	1.485356	-0.302825	0.045215
C66	C	1.985356	0.197175	0.545215
C67	C	1.486726	-0.252415	0.045219
C68	C	1.986726	0.247585	0.545219
N69	N	1.487411	-0.227200	-0.000002
N70	N	1.987411	0.272800	0.499998
C71	C	1.486762	-0.252408	-0.045224
C72	C	1.986762	0.247592	0.454776
C73	C	1.474540	-0.711256	0.045199
C74	C	1.974540	-0.211256	0.545199
C75	C	1.473206	-0.761678	0.045197
C76	C	1.973206	-0.261678	0.545197
C77	C	1.473243	-0.761671	-0.045250
C78	C	1.973243	-0.261671	0.454750
C79	C	1.474586	-0.711248	-0.045248
C80	C	1.974586	-0.211248	0.454752
C81	C	1.475225	-0.686041	-0.000022
C82	C	1.975225	-0.186041	0.499978
C83	C	1.489589	-0.146523	-0.045215
C84	C	1.989589	0.353477	0.454785
C85	C	1.490939	-0.096099	-0.045209
C86	C	1.990939	0.403901	0.454791
C87	C	1.490895	-0.096111	0.045238
C88	C	1.990895	0.403889	0.545238
C89	C	1.489551	-0.146531	0.045232
C90	C	1.989551	0.353469	0.545232
C91	C	1.488894	-0.171735	0.000001
C92	C	1.988894	0.328265	0.500001
O93	O	1.487442	-0.226303	0.083658
O94	O	1.987442	0.273697	0.583658
O95	O	1.487453	-0.226323	-0.083681
O96	O	1.987453	0.273677	0.416319
C97	C	1.481392	-0.454089	-0.045234
C98	C	1.981392	0.045911	0.454766
C99	C	1.480696	-0.479301	-0.000014
C100	C	1.980696	0.020699	0.499986
C101	C	1.481345	-0.454094	0.045208
C102	C	1.981345	0.045906	0.545208
C103	C	1.479362	-0.529724	-0.000016
C104	C	1.979362	-0.029724	0.499984
C105	C	1.478713	-0.554931	-0.045239
C106	C	1.978713	-0.054931	0.454761
C107	C	1.479398	-0.529716	-0.090459
C108	C	1.979398	-0.029716	0.409541
C109	C	1.480743	-0.479297	-0.090457
C110	C	1.980743	0.020703	0.409543
C111	C	1.480660	-0.479309	0.090429
C112	C	1.980660	0.020691	0.590429
C113	C	1.479316	-0.529728	0.090423
C114	C	1.979316	-0.029728	0.590423
C115	C	1.478667	-0.554936	0.045200
C116	C	1.978667	-0.054936	0.545200
C117	C	1.711728	0.068351	-0.000003
C118	C	2.211728	0.568351	0.499997
C119	C	1.851111	0.069771	-0.000006
C120	C	2.351111	0.569771	0.499994
C121	C	1.471147	0.159449	-0.000017
C122	C	1.971147	0.659449	0.499983
C123	C	1.472557	0.213114	-0.000026
C124	C	1.972557	0.713114	0.499974
N125	N	1.482025	0.071128	0.129243
N126	N	1.982025	0.571128	0.629243
N127	N	1.482131	0.071090	-0.129251
N128	N	1.982131	0.571090	0.370749
C129	C	1.568109	0.038538	0.473875
C130	C	2.068109	0.538538	0.973875
C131	C	1.568139	0.038531	0.682753
C132	C	2.068139	0.538531	1.182753
O133	O	1.641279	0.010824	0.709761
O134	O	2.141279	0.510824	1.209761
N135	N	1.482104	0.071093	0.708871
N136	N	1.982104	0.571093	1.208871
C137	C	1.396050	0.103657	0.682766
C138	C	1.896050	0.603657	1.182766
O139	O	1.322864	0.131350	0.709774
O140	O	1.822864	0.631350	1.209774
C141	C	1.396015	0.103662	0.473889
C142	C	1.896015	0.603662	0.973889
C143	C	1.482064	0.071101	0.447774
C144	C	1.982064	0.571101	0.947774
C145	C	1.654150	0.005980	0.447760
C146	C	2.154150	0.505980	0.947760
C147	C	1.654146	0.005983	0.395543
C148	C	2.154146	0.505983	0.895543
C149	C	1.568101	0.038546	0.369442
C150	C	2.068101	0.538546	0.869442
C151	C	1.482060	0.071105	0.395558
C152	C	1.982060	0.571105	0.895558
C153	C	1.309956	0.136223	0.447785
C154	C	1.809956	0.636223	0.947785
C155	C	1.309953	0.136221	0.395563
C156	C	1.809953	0.636221	0.895563
C157	C	1.396002	0.103660	0.369448
C158	C	1.896002	0.603660	0.869448
C159	C	1.396012	0.103671	0.317240
C160	C	1.896012	0.603671	0.817240
N161	N	1.482046	0.071109	0.291122
N162	N	1.982046	0.571109	0.791122
C163	C	1.568091	0.038546	0.317223
C164	C	2.068091	0.538546	0.817223
C165	C	1.396076	0.103653	0.792429
C166	C	1.896076	0.603653	1.292429
C167	C	1.396086	0.103653	0.844648
C168	C	1.896086	0.603653	1.344648
C169	C	1.568173	0.038526	0.844631
C170	C	2.068173	0.538526	1.344631
C171	C	1.568168	0.038529	0.792411
C172	C	2.068168	0.538529	1.292411
C173	C	1.482111	0.071091	0.766311
C174	C	1.982111	0.571091	1.266311
C175	C	1.568078	0.038557	0.207565
C176	C	2.068078	0.538557	0.707565
C177	C	1.568070	0.038566	0.155345
C178	C	2.068070	0.538566	0.655345
C179	C	1.395978	0.103691	0.155366
C180	C	1.895978	0.603691	0.655366
C181	C	1.395990	0.103684	0.207582
C182	C	1.895990	0.603684	0.707582
C183	C	1.482044	0.071114	0.233681
C184	C	1.982044	0.571114	0.733681
O185	O	1.322900	0.131359	0.290200
O186	O	1.822900	0.631359	0.790200
O187	O	1.641248	0.010851	0.290207
O188	O	2.141248	0.510851	0.790207
C189	C	1.568113	0.038534	0.526091
C190	C	2.068113	0.538534	1.026091
C191	C	1.482072	0.071093	0.552207
C192	C	1.982072	0.571093	1.052207
C193	C	1.396027	0.103655	0.526105
C194	C	1.896027	0.603655	1.026105
C195	C	1.482082	0.071092	0.604425
C196	C	1.982082	0.571092	1.104425
C197	C	1.568126	0.038530	0.630526
C198	C	2.068126	0.538530	1.130526
C199	C	1.654161	0.005968	0.604409
C200	C	2.154161	0.505968	1.104409
C201	C	1.654157	0.005972	0.552192
C202	C	2.154157	0.505972	1.052192
C203	C	1.309992	0.136218	0.552223
C204	C	1.809992	0.636218	1.052223
C205	C	1.310004	0.136211	0.604440
C206	C	1.810004	0.636211	1.104440
C207	C	1.396048	0.103649	0.630541
C208	C	1.896048	0.603649	1.130541
H209	H	1.100907	0.072308	-0.082058
H210	H	1.600907	0.572308	0.417942
H211	H	1.724226	-0.020543	0.530933
H212	H	2.224226	0.479457	1.030933
H213	H	1.325925	0.130204	0.134106
H214	H	1.825925	0.630204	0.634106
C215	C	1.748803	-0.029852	0.633126
C216	C	2.248803	0.470148	1.133126
H217	H	1.736465	-0.025190	0.667965
H218	H	2.236465	0.474810	1.167965
H219	H	1.832506	-0.024308	0.624567
H220	H	2.332506	0.475692	1.124567
H221	H	1.735798	-0.062161	0.624570
H222	H	2.235798	0.437839	1.124570
C223	C	1.491699	-0.068369	-0.094956
C224	C	1.991699	0.431631	0.405044
H225	H	1.491106	-0.090605	-0.121889
H226	H	1.991106	0.409395	0.378111
H227	H	1.565478	-0.052143	-0.096838
H228	H	2.065478	0.447857	0.403162
H229	H	1.418958	-0.045255	-0.096836
H230	H	1.918958	0.454745	0.403164
C231	C	1.119544	0.072534	0.094959
C232	C	1.619544	0.572534	0.594959
H233	H	1.206920	0.073431	0.088484
H234	H	1.706920	0.573431	0.588484
H235	H	1.108216	0.044181	0.113545
H236	H	1.608216	0.544181	0.613545
H237	H	1.087928	0.100457	0.113534
H238	H	1.587928	0.600457	0.613534
H239	H	1.478875	-0.550249	-0.127281
H240	H	1.978875	-0.050249	0.372719
C241	C	1.478545	-0.557456	0.140172
C242	C	1.978545	-0.057456	0.640172
H243	H	1.479111	-0.535217	0.167103
H244	H	1.979111	-0.035217	0.667103
H245	H	1.551269	-0.580573	0.142059
H246	H	2.051269	-0.080573	0.642059
H247	H	1.404749	-0.573676	0.142048
H248	H	1.904749	-0.073676	0.642048
H249	H	1.482759	-0.398982	0.127266
H250	H	1.982759	0.101018	0.627266
H251	H	1.488995	-0.167060	0.082056
H252	H	1.988995	0.332940	0.582056
H253	H	1.481311	-0.458773	-0.127283
H254	H	1.981311	0.041227	0.372717
C255	C	0.844534	0.069722	0.094959
C256	C	1.344534	0.569722	0.594959
H257	H	0.902277	0.070323	0.121892
H258	H	1.402277	0.570323	0.621892
H259	H	0.803588	0.041064	0.096848
H260	H	1.303588	0.541064	0.596848
H261	H	0.783303	0.097339	0.096832
H262	H	1.283303	0.597339	0.596832
H263	H	1.638236	0.012013	0.865891
H264	H	2.138236	0.512013	1.365891
C265	C	0.844608	0.069689	-0.094974
C266	C	1.344608	0.569689	0.405026
H267	H	0.757229	0.068802	-0.088498
H268	H	1.257229	0.568802	0.411502
H269	H	0.876217	0.041770	-0.113552
H270	H	1.376217	0.541770	0.386448
H271	H	0.855939	0.098046	-0.113557
H272	H	1.355939	0.598046	0.386443
H273	H	1.239934	0.162731	0.625699
H274	H	1.739934	0.662731	1.125699
H275	H	1.638236	0.012015	0.771151
H276	H	2.138236	0.512015	1.271151
H277	H	1.472657	-0.782203	0.082022
H278	H	1.972657	-0.282203	0.582022
H279	H	1.239922	0.162733	0.530976
H280	H	1.739922	0.662733	1.030976
H281	H	1.472716	-0.782203	-0.082072
H282	H	1.972716	-0.282203	0.417928
C283	C	1.488900	-0.174243	-0.094968
C284	C	1.988900	0.325757	0.405032
H285	H	1.489526	-0.152001	-0.121895
H286	H	1.989526	0.347999	0.378105
H287	H	1.415132	-0.190473	-0.096863
H288	H	1.915132	0.309527	0.403137
H289	H	1.561652	-0.197352	-0.096842
H290	H	2.061652	0.302648	0.403158
C291	C	1.485523	-0.300310	-0.140195
C292	C	1.985523	0.199690	0.359805
H293	H	1.484929	-0.322549	-0.167125
H294	H	1.984929	0.177451	0.332875
H295	H	1.559295	-0.284081	-0.142082
H296	H	2.059295	0.215919	0.357918
H297	H	1.412775	-0.277199	-0.142074
H298	H	1.912775	0.222801	0.357926
C299	C	1.475260	-0.683535	0.094950
C300	C	1.975260	-0.183535	0.594950
H301	H	1.474674	-0.705779	0.121878
H302	H	1.974674	-0.205779	0.621878
H303	H	1.402528	-0.660421	0.096838
H304	H	1.902528	-0.160421	0.596838
H305	H	1.549048	-0.667311	0.096832
H306	H	2.049048	-0.167311	0.596832
H307	H	1.482901	-0.398976	-0.127279
H308	H	1.982901	0.101024	0.372721
H309	H	1.638145	0.012051	0.134083
H310	H	2.138145	0.512051	0.634083
C311	C	1.491602	-0.068376	0.094979
C312	C	1.991602	0.431624	0.594979
H313	H	1.492487	-0.034736	0.088499
H314	H	1.992487	0.465264	0.588499
H315	H	1.564623	-0.080080	0.113566
H316	H	2.064623	0.419920	0.613566
H317	H	1.418103	-0.073195	0.113555
H318	H	1.918103	0.426805	0.613555
H319	H	1.475153	-0.690723	-0.082073
H320	H	1.975153	-0.190723	0.417927
H321	H	1.485160	-0.307515	0.127267
H322	H	1.985160	0.192485	0.627267
C323	C	1.662740	0.002733	0.236266
C324	C	2.162740	0.502733	0.736266
H325	H	1.713983	-0.016652	0.213228
H326	H	2.213983	0.483348	0.713228
H327	H	1.617988	-0.017554	0.256640
H328	H	2.117988	0.482446	0.756640
H329	H	1.714672	0.020308	0.256632
H330	H	2.214672	0.520308	0.756632
C331	C	1.481387	-0.451588	0.140177
C332	C	1.981387	0.048412	0.640177
H333	H	1.480797	-0.473831	0.167104
H334	H	1.980797	0.026169	0.667104
H335	H	1.408661	-0.428471	0.142064
H336	H	1.908661	0.071529	0.642064
H337	H	1.555180	-0.435367	0.142057
H338	H	2.055180	0.064633	0.642057
H339	H	1.724211	-0.020532	0.374283
H340	H	2.224211	0.479468	0.874283
C341	C	1.748814	-0.029840	0.476463
C342	C	2.248814	0.470160	0.976463
H343	H	1.800053	-0.049225	0.453424
H344	H	2.300053	0.450775	0.953424
H345	H	1.704072	-0.050127	0.496840
H346	H	2.204072	0.449873	0.996840
H347	H	1.800749	-0.012262	0.496825
H348	H	2.300749	0.487738	0.996825
C349	C	1.301433	0.139470	0.873369
C350	C	1.801433	0.639470	1.373369
H351	H	1.250181	0.158857	0.850341
H352	H	1.750181	0.658857	1.350341
H353	H	1.346186	0.159755	0.893739
H354	H	1.846186	0.659755	1.393739
H355	H	1.249510	0.121890	0.893741
H356	H	1.749510	0.621890	1.393741
H357	H	1.325995	0.130170	0.771182
H358	H	1.825995	0.630170	1.271182
C359	C	1.215311	0.172045	0.476501
C360	C	1.715311	0.672045	0.976501
H361	H	1.164068	0.191433	0.453470
H362	H	1.664068	0.691433	0.953470
H363	H	1.260078	0.192329	0.496866
H364	H	1.760078	0.692329	0.996866
H365	H	1.163378	0.154473	0.496876
H366	H	1.663378	0.654473	0.996876
H367	H	1.239870	0.162736	0.374315
H368	H	1.739870	0.662736	0.874315
C369	C	1.301292	0.139482	0.236310
C370	C	1.801292	0.639482	0.736310
H371	H	1.250028	0.158868	0.213284
H372	H	1.750028	0.658868	0.713284
H373	H	1.345997	0.159770	0.256694
H374	H	1.845997	0.659770	0.756694
H375	H	1.249387	0.121880	0.256668
H376	H	1.749387	0.621880	0.756668
