data_functionalizedCrystal
_audit_creation_method	'MofGen! by Chris Wilmer'
_symmetry_space_group_name_H-M	'P1'
_symmetry_Int_Tables_number	1
_symmetry_cell_setting	triclinic
loop_
_symmetry_equiv_pos_as_xyz
  x,y,z
_cell_length_a	19.077105
_cell_length_b	19.077068
_cell_length_c	18.215407
_cell_angle_alpha	87.719460
_cell_angle_beta	92.301445
_cell_angle_gamma	90.115316
loop_
_atom_site_label
_atom_site_type_symbol
_atom_site_fract_x
_atom_site_fract_y
_atom_site_fract_z
Zn1	Zn	1.062871	-0.323082	0.474259
Zn2	Zn	1.562871	0.176918	0.974259
Zn3	Zn	1.058088	-0.440566	0.355920
Zn4	Zn	1.558088	0.059434	0.855920
Zn5	Zn	0.945396	-0.318349	0.346080
Zn6	Zn	1.445396	0.181651	0.846080
Zn7	Zn	0.940606	-0.435824	0.473817
Zn8	Zn	1.440606	0.064176	0.973817
O9	O	1.001740	-0.379455	0.412519
O10	O	1.501740	0.120545	0.912519
O11	O	1.160567	-0.342632	0.462865
O12	O	1.660567	0.157368	0.962865
O13	O	1.043141	-0.424357	0.251631
O14	O	1.543141	0.075643	0.751631
O15	O	0.964985	-0.220646	0.359150
O16	O	1.464985	0.279354	0.859150
O17	O	1.157053	-0.428946	0.375922
O18	O	1.657053	0.071054	0.875922
O19	O	1.051294	-0.224123	0.453323
O20	O	1.551294	0.275877	0.953323
O21	O	0.960347	-0.334565	0.244401
O22	O	1.460347	0.165435	0.744401
O23	O	0.846430	-0.329967	0.358721
O24	O	1.346430	0.170033	0.858721
O25	O	0.956823	-0.420864	0.576860
O26	O	1.456823	0.079136	1.076860
O27	O	0.842911	-0.416275	0.452569
O28	O	1.342911	0.083725	0.952569
O29	O	1.046650	-0.338034	0.577185
O30	O	1.546650	0.161966	1.077185
O31	O	1.038497	-0.538267	0.375493
O32	O	1.538497	-0.038267	0.875493
O33	O	0.952184	-0.534783	0.462111
O34	O	1.452184	-0.034783	0.962111
C35	C	0.819175	-0.372093	0.404530
C36	C	1.319175	0.127907	0.904530
C37	C	0.741072	-0.368961	0.401130
C38	C	1.241072	0.131039	0.901130
C39	C	0.702562	-0.412493	0.448323
C40	C	1.202562	0.087507	0.948323
C41	C	0.629177	-0.409540	0.445132
C42	C	1.129177	0.090460	0.945132
C43	C	0.594301	-0.363059	0.394743
C44	C	1.094301	0.136941	0.894743
C45	C	0.632816	-0.319522	0.347548
C46	C	1.132816	0.180478	0.847548
C47	C	0.706200	-0.322472	0.350743
C48	C	1.206200	0.177528	0.850743
C49	C	0.375020	-0.349408	0.379958
C50	C	0.875020	0.150592	0.879958
C51	C	0.301630	-0.346464	0.376765
C52	C	0.801630	0.153536	0.876765
C53	C	0.297996	-0.436481	0.474350
C54	C	0.797996	0.063519	0.974350
C55	C	0.371382	-0.439430	0.477538
C56	C	0.871382	0.060570	0.977538
C57	C	0.409890	-0.395890	0.430346
C58	C	0.909890	0.104110	0.930346
N59	N	0.519289	-0.360041	0.391479
N60	N	1.019289	0.139959	0.891479
N61	N	0.484901	-0.398905	0.433614
N62	N	0.984901	0.101095	0.933614
C63	C	0.994321	-0.562022	0.419839
C64	C	1.494321	-0.062022	0.919839
C65	C	0.991211	-0.640128	0.422998
C66	C	1.491211	-0.140128	0.922998
C67	C	1.034724	-0.678614	0.379425
C68	C	1.534724	-0.178614	0.879425
C69	C	1.031803	-0.752002	0.382400
C70	C	1.531803	-0.252002	0.882400
C71	C	0.985366	-0.786903	0.428945
C72	C	1.485366	-0.286903	0.928945
C73	C	0.941852	-0.748412	0.472523
C74	C	1.441852	-0.248412	0.972523
C75	C	0.944777	-0.675025	0.469551
C76	C	1.444777	-0.175025	0.969551
C77	C	0.971800	-1.006195	0.442670
C78	C	1.471800	-0.506195	0.942670
C79	C	0.968877	-1.079587	0.445637
C80	C	1.468877	-0.579587	0.945637
C81	C	1.058830	-1.083172	0.355514
C82	C	1.558830	-0.583172	0.855514
C83	C	1.061747	-1.009784	0.352543
C84	C	1.561747	-0.509784	0.852543
C85	C	1.018236	-0.971299	0.396124
C86	C	1.518236	-0.471299	0.896124
N87	N	0.982378	-0.861918	0.431986
N88	N	1.482378	-0.361918	0.931986
N89	N	1.021228	-0.896286	0.393086
N90	N	1.521228	-0.396286	0.893086
C91	C	1.185019	-0.386846	0.420540
C92	C	1.685019	0.113154	0.920540
C93	C	1.263121	-0.389996	0.423958
C94	C	1.763121	0.110004	0.923958
C95	C	1.001736	-0.379448	0.604472
C96	C	1.501736	0.120552	1.104472
C97	C	1.001734	-0.379445	0.686270
C98	C	1.501734	0.120555	1.186270
C99	C	1.009207	-0.196176	0.405188
C100	C	1.509207	0.303824	0.905188
C101	C	1.012390	-0.118073	0.402064
C102	C	1.512390	0.381927	0.902064
C103	C	0.958623	-0.332708	0.870701
C104	C	1.458623	0.167292	1.370701
C105	C	0.958620	-0.332714	0.947560
C106	C	1.458620	0.167286	1.447560
C107	C	1.044838	-0.426214	0.955078
C108	C	1.544838	0.073786	1.455078
C109	C	1.044837	-0.426211	0.878221
C110	C	1.544837	0.073789	1.378221
C111	C	1.001731	-0.379455	0.836034
C112	C	1.501731	0.120545	1.336034
C113	C	1.001729	-0.379463	0.989750
C114	C	1.501729	0.120537	1.489750
C115	C	1.001725	-0.379469	1.073084
C116	C	1.501725	0.120531	1.573084
C117	C	1.001733	-0.379449	0.752695
C118	C	1.501733	0.120551	1.252695
C119	C	1.001735	-0.379476	1.221314
C120	C	1.501735	0.120524	1.721314
C121	C	1.001725	-0.379472	1.139514
C122	C	1.501725	0.120528	1.639514
H123	H	0.730952	-0.450346	0.489353
H124	H	1.230952	0.049654	0.989353
H125	H	0.923516	-0.294649	0.975782
H126	H	1.423516	0.205351	1.475782
N127	N	0.912126	-0.282290	0.825195
N128	N	1.412126	0.217710	1.325195
H129	H	0.942006	-0.250875	0.793256
H130	H	1.442006	0.249125	1.293256
H131	H	0.884822	-0.252724	0.858867
H132	H	1.384822	0.247276	1.358867
H133	H	0.931071	-1.108001	0.483553
H134	H	1.431071	-0.608001	0.983553
H135	H	0.406365	-0.313961	0.341525
H136	H	0.906365	0.186039	0.841525
H137	H	1.079934	-0.464281	0.989435
H138	H	1.579934	0.035719	1.489435
N139	N	0.587640	-0.456503	0.496023
N140	N	1.087640	0.043497	0.996023
H141	H	0.620869	-0.486402	0.528422
H142	H	1.120869	0.013598	1.028422
H143	H	0.555874	-0.487747	0.465974
H144	H	1.055874	0.012253	0.965974
H145	H	1.079942	-0.464281	0.849994
H146	H	1.579942	0.035719	1.349994
H147	H	0.904045	-0.776834	0.510425
H148	H	1.404045	-0.276834	1.010425
H149	H	0.399772	-0.477282	0.518568
H150	H	0.899772	0.022718	1.018568
H151	H	0.266635	-0.471928	0.512773
H152	H	0.766635	0.028072	1.012773
H153	H	0.604415	-0.281673	0.306524
H154	H	1.104415	0.218327	0.806524
N155	N	0.747736	-0.275524	0.299836
N156	N	1.247736	0.224476	0.799836
H157	H	0.799517	-0.284443	0.309507
H158	H	1.299517	0.215557	0.809507
H159	H	0.736947	-0.224840	0.308807
H160	H	1.236947	0.275160	0.808807
H161	H	0.273237	-0.308605	0.335737
H162	H	0.773237	0.191395	0.835737
N163	N	0.897848	-0.633511	0.516550
N164	N	1.397848	-0.133511	1.016550
H165	H	0.867985	-0.666755	0.546486
H166	H	1.367985	-0.166755	1.046486
H167	H	0.866565	-0.601793	0.483914
H168	H	1.366565	-0.101793	0.983914
H169	H	1.072535	-0.650202	0.341519
H170	H	1.572535	-0.150202	0.841519
H171	H	1.099560	-0.981369	0.314642
H172	H	1.599560	-0.481369	0.814642
N173	N	1.078734	-0.793513	0.335404
N174	N	1.578734	-0.293513	0.835404
H175	H	1.108592	-0.760268	0.305463
H176	H	1.608592	-0.260268	0.805463
H177	H	1.048942	-0.822852	0.301309
H178	H	1.548942	-0.322852	0.801309
H179	H	0.936370	-0.974866	0.478153
H180	H	1.436370	-0.474866	0.978153
H181	H	1.094256	-1.114515	0.320035
H182	H	1.594256	-0.614515	0.820035
