data_functionalizedCrystal
_audit_creation_method	'MofGen! by Chris Wilmer'
_symmetry_space_group_name_H-M	'P1'
_symmetry_Int_Tables_number	1
_symmetry_cell_setting	triclinic
loop_
_symmetry_equiv_pos_as_xyz
  x,y,z
_cell_length_a	19.188905
_cell_length_b	19.188925
_cell_length_c	9.730223
_cell_angle_alpha	89.999035
_cell_angle_beta	89.992681
_cell_angle_gamma	83.138552
loop_
_atom_site_label
_atom_site_type_symbol
_atom_site_fract_x
_atom_site_fract_y
_atom_site_fract_z
O1	O	0.926150	0.087082	-0.114515
O2	O	1.426150	0.587082	0.385485
O3	O	0.722836	0.098834	-0.114468
O4	O	1.222836	0.598834	0.385532
O5	O	0.830362	-0.008699	-0.114485
O6	O	1.330362	0.491301	0.385515
O7	O	0.818624	0.194614	-0.114498
O8	O	1.318624	0.694614	0.385502
O9	O	0.830361	-0.008696	0.114095
O10	O	1.330361	0.491304	0.614095
O11	O	0.722835	0.098837	0.114112
O12	O	1.222835	0.598837	0.614112
O13	O	0.926149	0.087084	0.114065
O14	O	1.426149	0.587084	0.614065
Zn15	Zn	0.824492	0.092961	0.150380
Zn16	Zn	1.324492	0.592961	0.650380
Zn17	Zn	0.824493	0.092957	-0.150784
Zn18	Zn	1.324493	0.592957	0.349216
O19	O	0.818623	0.194617	0.114082
O20	O	1.318623	0.694617	0.614082
C21	C	0.696824	0.098458	-0.000172
C22	C	1.196824	0.598458	0.499828
C23	C	0.619319	0.097324	-0.000154
C24	C	1.119319	0.597324	0.499846
C25	C	0.582928	0.096778	-0.124757
C26	C	1.082928	0.596778	0.375243
C27	C	0.510104	0.095705	-0.124774
C28	C	1.010104	0.595705	0.375226
C29	C	0.473676	0.095164	-0.000181
C30	C	0.973676	0.595164	0.499819
C31	C	0.510076	0.095714	0.124438
C32	C	1.010076	0.595714	0.624438
C33	C	0.582897	0.096794	0.124451
C34	C	1.082897	0.596794	0.624451
N35	N	0.364656	0.053736	0.092544
N36	N	0.864656	0.553736	0.592544
N37	N	0.295479	0.052709	0.092523
N38	N	0.795479	0.552709	0.592523
C39	C	0.254270	0.091911	-0.000214
C40	C	0.754270	0.591911	0.499786
N41	N	0.284852	0.132171	-0.092949
N42	N	0.784852	0.632171	0.407051
N43	N	0.354035	0.133196	-0.092932
N44	N	0.854035	0.633196	0.407068
C45	C	0.394714	0.093993	-0.000182
C46	C	0.894714	0.593993	0.499818
C47	C	0.138915	0.090203	-0.124844
C48	C	0.638915	0.590203	0.375156
C49	C	0.066089	0.089134	-0.124855
C50	C	0.566089	0.589134	0.375145
C51	C	0.066063	0.089136	0.124360
C52	C	0.566063	0.589136	0.624360
C53	C	0.138886	0.090212	0.124368
C54	C	0.638886	0.590212	0.624368
C55	C	0.175308	0.090742	-0.000237
C56	C	0.675308	0.590742	0.499763
C57	C	0.829982	-0.034708	-0.000196
C58	C	1.329982	0.465292	0.499804
C59	C	0.828843	-0.112213	-0.000199
C60	C	1.328843	0.387787	0.499801
C61	C	0.884308	-0.673988	-0.000246
C62	C	1.384308	-0.173988	0.499754
C63	C	0.885384	-0.601165	-0.000234
C64	C	1.385384	-0.101165	0.499766
C65	C	0.822291	-0.556225	-0.000220
C66	C	1.322291	-0.056225	0.499780
C67	C	0.758117	-0.584113	-0.000183
C68	C	1.258117	-0.084113	0.499817
C69	C	0.757043	-0.656935	-0.000181
C70	C	1.257043	-0.156935	0.499819
N71	N	0.776615	-0.435541	-0.078012
N72	N	1.276615	0.064459	0.421988
N73	N	0.777640	-0.366364	-0.078016
N74	N	1.277640	0.133636	0.421984
C75	C	0.825525	-0.336816	-0.000222
C76	C	1.325525	0.163184	0.499778
N77	N	0.872357	-0.379060	0.077561
N78	N	1.372357	0.120940	0.577561
N79	N	0.871334	-0.448244	0.077559
N80	N	1.371334	0.051756	0.577559
C81	C	0.823450	-0.477261	-0.000221
C82	C	1.323450	0.022739	0.499779
C83	C	0.890863	-0.229973	-0.000236
C84	C	1.390863	0.270027	0.499764
C85	C	0.891937	-0.157148	-0.000215
C86	C	1.391937	0.342852	0.499785
C87	C	0.764668	-0.140097	-0.000178
C88	C	1.264668	0.359903	0.499822
C89	C	0.763596	-0.212921	-0.000184
C90	C	1.263596	0.287079	0.499816
C91	C	0.826695	-0.257855	-0.000220
C92	C	1.326695	0.242145	0.499780
C93	C	0.952161	0.087461	-0.000234
C94	C	1.452161	0.587461	0.499766
C95	C	1.029666	0.088594	-0.000261
C96	C	1.529666	0.588594	0.499739
C97	C	0.819003	0.220627	-0.000210
C98	C	1.319003	0.720627	0.499790
C99	C	0.820142	0.298131	-0.000217
C100	C	1.320142	0.798131	0.499783
N101	N	0.824496	0.092963	0.355917
N102	N	1.324496	0.592963	0.855917
N103	N	0.824495	0.092950	-0.356320
N104	N	1.324495	0.592950	0.143680
C105	C	0.872120	0.045363	0.427835
C106	C	1.372120	0.545363	0.927835
C107	C	0.872119	0.045355	0.571718
C108	C	1.372119	0.545355	1.071718
C109	C	0.776865	0.140552	0.571751
C110	C	1.276865	0.640552	1.071751
C111	C	0.776864	0.140556	0.427871
C112	C	1.276864	0.640556	0.927871
C113	C	0.919752	-0.002230	0.355881
C114	C	1.419752	0.497770	0.855881
C115	C	0.967381	-0.049833	0.427799
C116	C	1.467381	0.450167	0.927799
C117	C	0.967379	-0.049841	0.571682
C118	C	1.467379	0.450159	1.071682
C119	C	0.919748	-0.002247	0.643647
C120	C	1.419748	0.497753	1.143647
H121	H	0.036460	0.088694	-0.226326
H122	H	0.536460	0.588694	0.273674
F123	F	0.919759	-0.002222	0.202748
F124	F	1.419759	0.497778	0.702748
F125	F	1.018063	-0.100508	0.648221
F126	F	1.518063	0.399492	1.148221
H127	H	0.168517	0.090652	0.225833
H128	H	0.668517	0.590652	0.725833
F129	F	0.960234	-0.127477	-0.000250
F130	F	1.460234	0.372523	0.499750
F131	F	0.621628	0.097375	0.257077
F132	F	1.121628	0.597375	0.757077
F133	F	0.027298	0.088566	0.256962
F134	F	0.527298	0.588566	0.756962
H135	H	0.935689	-0.710569	-0.000268
H136	H	1.435689	-0.210569	0.499732
F137	F	0.953681	-0.571485	-0.000252
F138	F	1.453681	-0.071485	0.499748
F139	F	0.690969	-0.536284	-0.000162
F140	F	1.190969	-0.036284	0.499838
H141	H	0.704790	-0.679634	-0.000154
H142	H	1.204790	-0.179634	0.499846
H143	H	0.168570	0.090642	-0.226305
H144	H	0.668570	0.590642	0.273695
H145	H	0.919746	-0.002262	0.760806
H146	H	1.419746	0.497738	1.260806
H147	H	0.738087	0.179302	0.630354
H148	H	1.238087	0.679302	1.130354
H149	H	0.738083	0.179316	0.369315
H150	H	1.238083	0.679316	0.869315
F151	F	0.695301	-0.242595	-0.000164
F152	F	1.195301	0.257405	0.499836
H153	H	0.480469	0.095261	-0.226243
H154	H	0.980469	0.595261	0.273757
F155	F	0.471305	0.095142	0.257038
F156	F	0.971305	0.595142	0.757038
H157	H	0.942242	-0.266560	-0.000264
H158	H	1.442242	0.233440	0.499736
F159	F	0.621686	0.097344	-0.257374
F160	F	1.121686	0.597344	0.242626
F161	F	1.018065	-0.100489	0.351209
F162	F	1.518065	0.399511	0.851209
H163	H	0.713296	-0.103508	-0.000154
H164	H	1.213296	0.396492	0.499846
