data_functionalizedCrystal
_audit_creation_method	'MofGen! by Chris Wilmer'
_symmetry_space_group_name_H-M	'P1'
_symmetry_Int_Tables_number	1
_symmetry_cell_setting	triclinic
loop_
_symmetry_equiv_pos_as_xyz
  x,y,z
_cell_length_a	12.759401
_cell_length_b	12.827892
_cell_length_c	12.759393
_cell_angle_alpha	90.029782
_cell_angle_beta	90.020938
_cell_angle_gamma	90.016917
loop_
_atom_site_label
_atom_site_type_symbol
_atom_site_fract_x
_atom_site_fract_y
_atom_site_fract_z
Zn1	Zn	1.606261	-0.415940	0.594025
Zn2	Zn	1.606150	-0.590717	0.418348
Zn3	Zn	1.430560	-0.415996	0.418361
Zn4	Zn	1.430550	-0.590644	0.593985
O5	O	1.518380	-0.503324	0.506180
O6	O	1.753268	-0.439132	0.570733
O7	O	1.582816	-0.567594	0.271328
O8	O	1.453918	-0.269752	0.441685
O9	O	1.753186	-0.567540	0.441663
O10	O	1.583005	-0.269711	0.570745
O11	O	1.453810	-0.439227	0.271338
O12	O	1.283538	-0.439156	0.441646
O13	O	1.453900	-0.567416	0.741011
O14	O	1.283530	-0.567469	0.570676
O15	O	1.582995	-0.439061	0.741041
O16	O	1.582806	-0.736944	0.441624
O17	O	1.453793	-0.736890	0.570664
C18	C	1.245413	-0.503312	0.506159
C19	C	1.128636	-0.503331	0.506175
C20	C	1.073798	-0.570246	0.573255
C21	C	0.964074	-0.570250	0.573276
C22	C	0.964036	-0.436422	0.439127
C23	C	1.073758	-0.436413	0.439112
C24	C	0.814177	-0.607747	0.697137
C25	C	0.759335	-0.674678	0.764208
C26	C	0.794932	-0.776661	0.780157
C27	C	0.885369	-0.811735	0.729020
C28	C	0.940205	-0.744809	0.661941
C29	C	0.904610	-0.642811	0.646012
C30	C	1.223657	-0.398927	0.315250
C31	C	1.278495	-0.332006	0.248165
C32	C	1.242901	-0.230021	0.232205
C33	C	1.152461	-0.194951	0.283324
C34	C	1.097622	-0.261872	0.350409
C35	C	1.133224	-0.363856	0.366370
C36	C	1.518315	-0.774834	0.506161
C37	C	1.518383	-0.890987	0.506188
C38	C	1.582298	-0.942764	0.442406
C39	C	1.582370	-1.062814	0.442433
C40	C	1.792414	-0.503338	0.506201
C41	C	1.909190	-0.503344	0.506210
C42	C	1.518459	-0.503224	0.780213
C43	C	1.518492	-0.503181	0.896990
C44	C	1.518475	-0.230754	0.506221
C45	C	1.518515	-0.114601	0.506239
C46	C	1.518363	-0.503349	0.233212
C47	C	1.518533	-0.503097	0.116436
C48	C	1.585717	-0.436336	0.951869
C49	C	1.585735	-0.436291	1.061593
C50	C	1.451301	-0.569945	1.061549
C51	C	1.451278	-0.569984	0.951827
C52	C	1.623348	-0.312997	1.211570
C53	C	1.690589	-0.246161	1.266452
C54	C	1.793102	-0.230136	1.230861
C55	C	1.828395	-0.280963	1.140388
C56	C	1.761160	-0.347806	1.085511
C57	C	1.658632	-0.363811	1.121101
C58	C	1.413676	-0.693280	0.801849
C59	C	1.346445	-0.760130	0.746969
C60	C	1.243930	-0.776165	0.782559
C61	C	1.208641	-0.725357	0.873035
C62	C	1.275872	-0.658507	0.927914
C63	C	1.378385	-0.642470	0.892317
H64	H	1.118476	-0.624732	0.627864
H65	H	1.637087	-1.107341	0.387824
O66	O	1.445957	-0.949989	0.578541
H67	H	1.493022	-0.999646	0.631997
O68	O	1.237807	-0.603690	1.025492
H69	H	1.214182	-0.662502	1.084731
H70	H	0.914338	-0.894784	0.742002
H71	H	1.640444	-0.381938	0.907224
O72	O	1.799204	-0.402619	0.987929
H73	H	1.881787	-0.380246	0.972394
H74	H	1.023986	-0.233307	0.392040
O75	O	1.171417	-0.848267	0.723362
H76	H	1.094203	-0.850877	0.763315
O77	O	1.938972	-0.263687	1.102010
H78	H	1.981427	-0.339188	1.100814
H79	H	1.463788	-1.070082	0.560844
H80	H	1.396580	-0.624336	1.106211
O81	O	0.735776	-0.848845	0.852499
H82	H	0.708926	-0.918218	0.807921
H83	H	1.497149	-0.680222	0.772857
H84	H	1.123467	-0.111913	0.270312
O85	O	0.661799	-0.636842	0.819360
H86	H	0.594212	-0.686193	0.796081
O87	O	1.865625	-0.158036	1.290040
H88	H	1.823861	-0.125381	1.358921
O89	O	1.652525	-0.191324	1.364020
H90	H	1.569933	-0.213674	1.379538
O91	O	0.904848	-0.364282	0.366762
H92	H	0.819338	-0.375545	0.378022
H93	H	1.375190	-0.801510	0.673306
O94	O	1.512770	-0.330270	1.249948
H95	H	1.499536	-0.283710	1.322082
O96	O	0.775765	-0.497757	0.679905
H97	H	0.703651	-0.484629	0.726706
O98	O	1.301629	-0.158081	0.159267
H99	H	1.261522	-0.081360	0.156549
H100	H	1.125166	-0.738417	0.902016
H101	H	1.352136	-0.360569	0.206540
O102	O	1.037750	-0.782621	0.606800
H103	H	1.017870	-0.850481	0.556573
O104	O	1.262044	-0.508933	0.332464
H105	H	1.334134	-0.522082	0.285632
H106	H	1.636970	-0.898218	0.387783
