data_functionalizedCrystal
_audit_creation_method	'MofGen! by Chris Wilmer'
_symmetry_space_group_name_H-M	'P1'
_symmetry_Int_Tables_number	1
_symmetry_cell_setting	triclinic
loop_
_symmetry_equiv_pos_as_xyz
  x,y,z
_cell_length_a	31.640172
_cell_length_b	14.560432
_cell_length_c	14.560432
_cell_angle_alpha	90.001357
_cell_angle_beta	60.007848
_cell_angle_gamma	59.999563
loop_
_atom_site_label
_atom_site_type_symbol
_atom_site_fract_x
_atom_site_fract_y
_atom_site_fract_z
Zr1	Zr	0.462595	-0.120514	0.884887
O2	O	0.550759	-0.267157	0.738268
O3	O	0.374430	-0.075561	0.929816
O4	O	0.462594	-0.267160	0.929842
O5	O	0.462596	0.075579	0.738241
O6	O	0.462596	-0.267160	1.080979
O7	O	0.462594	-0.075559	0.738242
O8	O	0.304886	0.075574	1.080932
O9	O	0.620306	-0.267155	0.738289
O10	O	0.410696	-0.056388	1.061791
O11	O	0.410696	0.056404	0.948999
O12	O	0.514498	-0.169178	0.949030
O13	O	0.514498	-0.056385	0.836238
Zr14	Zr	0.462601	0.120533	1.125934
Zr15	Zr	0.462598	-0.120514	1.125934
Zr16	Zr	0.462598	0.120533	0.884887
Zr17	Zr	0.573515	-0.120511	0.884920
Zr18	Zr	0.351681	0.120530	1.125901
O19	O	0.550767	0.075580	1.081006
O20	O	0.550763	-0.267158	1.081006
O21	O	0.550763	0.075581	0.738268
O22	O	0.374438	0.267176	1.272553
O23	O	0.374434	-0.075562	1.272553
O24	O	0.374434	0.267176	0.929815
O25	O	0.462600	-0.075560	1.272580
O26	O	0.462602	0.267178	1.080979
O27	O	0.462600	0.267179	0.929842
O28	O	0.462602	0.075578	1.272580
O29	O	0.620308	-0.267156	0.929889
O30	O	0.304888	0.267174	1.080932
O31	O	0.304890	0.267174	1.272533
O32	O	0.304888	0.075574	1.272533
O33	O	0.620308	-0.075555	0.738289
O34	O	0.620311	-0.075555	0.929889
O35	O	0.410698	0.169196	1.061791
O36	O	0.410698	0.056404	1.174584
O37	O	0.514501	-0.056386	1.061822
O38	O	0.514501	0.056407	0.949030
C39	C	0.323854	0.000006	1.005369
C40	C	0.276765	0.000005	1.005355
C41	C	0.462595	0.000010	0.703897
C42	C	0.462593	0.000010	0.601567
C43	C	0.462602	0.301523	1.005411
C44	C	0.462603	0.403853	1.005410
C45	C	-0.015277	-0.058857	1.064310
C46	C	-0.192272	-0.058856	1.064333
O47	O	-0.215177	-0.108888	1.114446
N48	N	-0.214401	0.000018	1.005455
C49	C	-0.192282	0.058903	0.946573
O50	O	-0.215169	0.108988	0.896504
C51	C	-0.015290	0.058908	0.946557
C52	C	0.006841	0.000020	1.005430
C53	C	0.006854	-0.117738	1.123178
C54	C	0.051103	-0.117743	1.123167
C55	C	0.073221	-0.058866	1.064287
C56	C	0.051090	0.000016	1.005418
C57	C	0.006826	0.117798	0.887683
C58	C	0.051076	0.117796	0.887686
C59	C	0.073207	0.058909	0.946559
C60	C	0.117456	0.058888	0.946527
N61	N	0.139586	0.000014	1.005405
C62	C	0.117468	-0.058863	1.064285
C63	C	-0.285204	0.058894	0.946584
C64	C	-0.329451	0.058891	0.946586
C65	C	-0.329440	-0.058866	1.064348
C66	C	-0.285189	-0.058869	1.064338
C67	C	-0.263075	0.000019	1.005462
C68	C	0.210393	-0.058869	1.064256
C69	C	0.254647	-0.058872	1.064235
C70	C	0.254630	0.058889	0.946479
C71	C	0.210382	0.058888	0.946494
C72	C	0.188263	0.000007	1.005391
O73	O	0.140384	0.108904	0.896450
O74	O	0.140354	-0.108921	1.114367
C75	C	-0.059525	-0.058852	1.064321
C76	C	-0.081656	0.000029	1.005452
C77	C	-0.059538	0.058906	0.946572
C78	C	-0.125903	0.000027	1.005455
C79	C	-0.148021	-0.058850	1.064335
C80	C	-0.125892	-0.117725	1.123212
C81	C	-0.081643	-0.117729	1.123201
C82	C	-0.081667	0.117781	0.887695
C83	C	-0.125915	0.117779	0.887710
C84	C	-0.148033	0.058902	0.946590
C85	C	0.601342	0.000013	1.005452
C86	C	0.648431	0.000014	1.005466
C87	C	0.462595	-0.301504	1.005411
C88	C	0.462593	-0.403835	1.005411
C89	C	0.570974	0.286117	0.887698
C90	C	0.625157	0.275326	0.828846
C91	C	0.625155	0.371478	0.828849
C92	C	0.570963	0.478431	0.887706
C93	C	0.516779	0.489222	0.946557
C94	C	0.516788	0.393061	0.946551
C95	C	0.408410	0.606957	1.064262
C96	C	0.408411	0.510806	1.064268
C97	C	0.354218	0.713909	1.123119
C98	C	0.300033	0.724701	1.181979
C99	C	0.300038	0.628541	1.181975
C100	C	0.354228	0.521597	1.123119
C101	C	0.354223	0.117753	0.719273
C102	C	0.300039	0.176618	0.730050
C103	C	0.300042	0.176615	0.633897
C104	C	0.354234	0.117743	0.526960
C105	C	0.408417	0.058877	0.516183
C106	C	0.408409	0.058884	0.612344
C107	C	0.516786	-0.058857	0.398478
C108	C	0.516785	-0.058862	0.494629
C109	C	0.570978	-0.117729	0.291541
C110	C	0.625163	-0.176603	0.280763
C111	C	0.625158	-0.176599	0.376924
C112	C	0.570969	-0.117728	0.483853
C113	C	0.462602	0.000009	1.306924
C114	C	0.462603	0.000009	1.409255
C115	C	0.323857	0.000005	1.306882
C116	C	0.276770	0.000004	1.409199
C117	C	0.323857	0.301519	1.005369
C118	C	0.276770	0.403849	1.005355
C119	C	0.323861	0.301519	1.306882
C120	C	0.276775	0.403848	1.409199
C121	C	0.601335	-0.301500	0.703939
C122	C	0.648421	-0.403829	0.601622
C123	C	0.601339	0.000013	0.703939
C124	C	0.648426	0.000015	0.601622
C125	C	0.601339	-0.301500	1.005452
C126	C	0.648426	-0.403830	1.005466
C127	C	0.254656	-0.058883	1.398372
C128	C	0.210419	-0.058907	1.494500
C129	C	0.188293	-0.000036	1.601455
C130	C	0.210412	0.058853	1.612280
C131	C	0.254651	0.058869	1.516153
C132	C	0.254659	0.510790	1.064225
C133	C	0.210422	0.606949	1.064207
C134	C	0.188293	0.596164	1.005326
C135	C	0.210409	0.489211	0.946449
C136	C	0.254648	0.393055	0.946461
C137	C	0.254663	0.393026	1.516135
C138	C	0.210427	0.489167	1.612281
C139	C	0.188300	0.596127	1.601490
C140	C	0.210417	0.606947	1.494543
C141	C	0.254655	0.510808	1.398399
C142	C	0.670539	-0.393008	0.494687
C143	C	0.714789	-0.489148	0.398540
C144	C	0.736917	-0.596109	0.409331
C145	C	0.714798	-0.606928	0.516278
C146	C	0.670552	-0.510789	0.612422
C147	C	0.670545	0.058892	0.612449
C148	C	0.714795	0.058889	0.516321
C149	C	0.736922	0.000015	0.409367
C150	C	0.714801	-0.058869	0.398541
C151	C	0.670555	-0.058872	0.494669
C152	C	0.670540	-0.393009	1.064359
C153	C	0.714778	-0.489149	1.064394
C154	C	0.736904	-0.596110	1.005529
C155	C	0.714785	-0.606929	0.946635
C156	C	0.670545	-0.510789	0.946607
H157	H	0.272666	-0.106829	1.112175
F158	F	0.647005	0.121555	0.726270
F159	F	0.186891	0.720765	1.126878
F160	F	0.646995	-0.279181	0.483176
F161	F	0.278197	-0.121549	1.284552
F162	F	0.738327	0.121568	0.527866
F163	F	0.682822	0.359993	0.766214
H164	H	0.192415	-0.106861	1.485664
F165	F	-0.058135	0.180453	0.825027
H166	H	0.152271	0.674470	1.005326
F167	F	0.186895	0.477628	1.726091
H168	H	0.152278	0.674401	1.679786
H169	H	0.272648	0.106822	0.898537
F170	F	0.242374	0.239271	0.645367
F171	F	0.783989	-0.698421	1.005567
F172	F	0.682831	-0.239244	0.166955
H173	H	-0.143905	-0.165670	1.171150
F174	F	-0.261675	0.121577	0.883916
F175	F	0.186852	0.477750	0.883788
F176	F	0.186858	-0.121534	1.126943
F177	F	0.738355	-0.121520	0.284703
H178	H	0.192391	0.106782	1.699375
H179	H	0.772949	0.000027	0.331103
H180	H	0.272671	0.519593	1.112173
F181	F	0.647016	-0.121534	0.483128
F182	F	0.278174	0.279242	0.883805
H183	H	0.069117	-0.165690	1.171109
H184	H	0.732807	-0.694029	0.898708
H185	H	0.652533	-0.305925	1.112294
H186	H	0.652545	-0.519616	0.898644
H187	H	0.354231	0.117757	0.448673
F188	F	-0.016677	-0.180413	1.185848
F189	F	0.141208	-0.000063	1.703753
F190	F	0.278181	0.522342	1.284592
F191	F	0.278179	0.121556	1.527693
F192	F	0.784008	-0.698420	0.306995
F193	F	-0.261640	-0.121543	1.126999
F194	F	0.278206	0.279200	1.527645
F195	F	-0.352987	-0.121528	1.127013
F196	F	0.738320	-0.477610	0.284730
F197	F	-0.352992	0.121550	0.883909
F198	F	0.738313	-0.477611	1.127075
F199	F	0.570959	-0.117723	0.586195
H200	H	-0.011186	0.165752	0.839744
F201	F	0.682829	-0.239246	0.365442
H202	H	0.192395	0.694047	1.485773
H203	H	0.069079	0.165750	0.839739
H204	H	0.732821	-0.694027	0.525051
F205	F	0.647014	-0.522323	0.726229
H206	H	-0.063627	-0.165681	1.171141
F207	F	-0.149461	0.180454	0.825039
F208	F	0.186834	0.121547	0.883821
H209	H	0.570981	0.207819	0.887703
F210	F	0.682829	0.161497	0.766201
H211	H	0.354220	0.792197	1.123112
F212	F	0.570963	0.580762	0.887692
H213	H	0.255915	0.637340	1.229893
F214	F	0.354237	0.419255	1.123116
F215	F	0.242365	0.838525	1.244604
H216	H	0.354215	0.117752	0.797572
H217	H	0.255917	0.224553	0.817128
H218	H	0.570977	-0.117722	0.213252
