data_functionalizedCrystal
_audit_creation_method	'MofGen! by Chris Wilmer'
_symmetry_space_group_name_H-M	'P1'
_symmetry_Int_Tables_number	1
_symmetry_cell_setting	triclinic
loop_
_symmetry_equiv_pos_as_xyz
  x,y,z
_cell_length_a	16.109301
_cell_length_b	10.723024
_cell_length_c	14.586319
_cell_angle_alpha	89.997376
_cell_angle_beta	89.999213
_cell_angle_gamma	83.964675
loop_
_atom_site_label
_atom_site_type_symbol
_atom_site_fract_x
_atom_site_fract_y
_atom_site_fract_z
O1	O	1.104075	0.160391	-0.076180
O2	O	0.862130	0.180351	-0.076194
O3	O	0.988683	-0.011279	-0.076183
O4	O	0.977521	0.352021	-0.076191
O5	O	0.988674	-0.011282	0.076297
O6	O	0.862121	0.180348	0.076287
O7	O	1.104066	0.160388	0.076301
Cu8	Cu	0.983093	0.170368	0.090216
Cu9	Cu	0.983103	0.170371	-0.090110
O10	O	0.977513	0.352018	0.076290
C11	C	0.831146	0.179541	0.000044
C12	C	0.738836	0.177117	0.000039
C13	C	0.517200	0.285190	0.000047
C14	C	0.430466	0.282903	0.000053
C15	C	0.449003	0.055540	0.000054
C16	C	0.535735	0.057829	0.000055
C17	C	0.569831	0.172657	0.000047
C18	C	0.396365	0.168081	0.000052
C19	C	0.302324	0.165600	0.000058
C20	C	0.663877	0.175139	0.000042
C21	C	0.987866	-0.057770	0.000056
C22	C	0.985436	-0.196292	0.000053
C23	C	1.056249	-0.272213	0.000055
C24	C	1.053739	-0.415383	0.000052
C25	C	1.135050	0.161198	0.000060
C26	C	1.227359	0.163622	0.000060
C27	C	0.978329	0.398508	0.000049
C28	C	0.980760	0.537031	0.000046
N29	N	0.983091	0.170365	0.217048
N30	N	0.983111	0.170364	-0.216942
C31	C	1.039148	0.085539	0.452059
C32	C	1.039150	0.085536	0.548041
C33	C	0.927048	0.255194	0.548040
C34	C	0.927043	0.255190	0.452061
C35	C	0.983097	0.170364	0.404073
C36	C	0.983105	0.170365	0.596034
C37	C	0.983107	0.170362	0.700101
C38	C	0.983094	0.170365	0.299999
H39	H	0.387617	0.374539	0.000056
H40	H	0.421231	-0.037950	0.000066
C41	C	1.100800	-0.007776	0.399272
C42	C	1.162450	-0.101087	0.452062
C43	C	1.224102	-0.194409	0.399278
C44	C	1.224103	-0.194420	0.293704
C45	C	1.162450	-0.101105	0.240908
C46	C	1.100798	-0.007784	0.293692
H47	H	1.162452	-0.101082	0.530219
H48	H	1.269742	-0.263486	0.438361
H49	H	1.269741	-0.263502	0.254630
H50	H	1.162449	-0.101111	0.162751
H51	H	1.055159	0.061293	0.254609
C52	C	0.593636	-0.065966	0.000054
C53	C	0.655807	-0.095659	0.079236
C54	C	0.713707	-0.219448	0.079240
C55	C	0.709436	-0.313544	0.000061
C56	C	0.647262	-0.283854	-0.079128
C57	C	0.589362	-0.160065	-0.079132
H58	H	0.658971	-0.026001	0.137855
H59	H	0.759733	-0.241426	0.137861
H60	H	0.752297	-0.405180	0.000063
H61	H	0.644098	-0.353512	-0.137747
H62	H	0.543337	-0.138087	-0.137753
H63	H	1.084791	0.016463	0.587109
C64	C	1.135640	-0.503502	0.000055
C65	C	1.154797	-0.597111	0.079233
C66	C	1.236701	-0.685234	0.079237
C67	C	1.299448	-0.679748	0.000062
C68	C	1.280292	-0.586135	-0.079122
C69	C	1.198388	-0.498013	-0.079126
H70	H	1.108346	-0.601175	0.137849
H71	H	1.250880	-0.754532	0.137855
H72	H	1.360078	-0.744981	0.000064
H73	H	1.326743	-0.582071	-0.137737
H74	H	1.184209	-0.428714	-0.137743
C75	C	0.865397	0.348509	0.600828
C76	C	0.865444	0.348593	0.706401
C77	C	0.803793	0.441914	0.759185
C78	C	0.742093	0.535153	0.706396
C79	C	0.742043	0.535073	0.600816
C80	C	0.803695	0.441751	0.548032
H81	H	0.911120	0.279569	0.745485
H82	H	0.803830	0.441973	0.837343
H83	H	0.696455	0.604235	0.745470
H84	H	0.696368	0.604096	0.561733
H85	H	0.803658	0.441692	0.469875
H86	H	0.544958	0.378691	0.000048
H87	H	0.920135	-0.397741	0.000050
H88	H	1.118732	-0.231219	0.000065
H89	H	0.922953	-0.237286	0.000043
H90	H	0.881395	0.324265	0.412988
