data_functionalizedCrystal
_audit_creation_method	'MofGen! by Chris Wilmer'
_symmetry_space_group_name_H-M	'P1'
_symmetry_Int_Tables_number	1
_symmetry_cell_setting	triclinic
loop_
_symmetry_equiv_pos_as_xyz
  x,y,z
_cell_length_a	16.992694
_cell_length_b	10.489741
_cell_length_c	16.053802
_cell_angle_alpha	92.592148
_cell_angle_beta	87.249047
_cell_angle_gamma	87.603699
loop_
_atom_site_label
_atom_site_type_symbol
_atom_site_fract_x
_atom_site_fract_y
_atom_site_fract_z
O1	O	1.045194	0.265584	-0.069324
O2	O	0.816893	0.262613	-0.069348
O3	O	0.936238	0.078953	-0.069330
O4	O	0.925849	0.449244	-0.069341
O5	O	0.929669	0.089018	0.069528
O6	O	0.810324	0.272678	0.069510
O7	O	1.038624	0.275649	0.069534
Zn8	Zn	0.923431	0.275761	0.091569
Zn9	Zn	0.932086	0.262501	-0.091383
O10	O	0.919279	0.459309	0.069516
C11	C	0.784374	0.263826	0.000078
C12	C	0.697266	0.252430	0.000068
C13	C	0.647647	0.362379	0.000066
C14	C	0.565799	0.351666	0.000078
C15	C	0.533573	0.231001	0.000086
C16	C	0.583199	0.121044	0.000091
C17	C	0.665044	0.131759	0.000085
C18	C	0.289723	0.186590	0.000110
C19	C	0.207871	0.175882	0.000113
C20	C	0.190477	0.406505	0.000101
C21	C	0.272325	0.417210	0.000090
C22	C	0.321944	0.307253	0.000100
N23	N	0.449912	0.220047	0.000096
N24	N	0.405603	0.318209	0.000096
C25	C	0.932169	0.036385	0.000098
C26	C	0.929821	-0.105448	0.000096
C27	C	0.853885	-0.180196	0.000082
C28	C	0.886518	-0.264235	0.068550
C29	C	0.893013	-0.274131	-0.068353
C30	C	0.962482	-0.187615	0.068621
C31	C	0.968969	-0.197507	-0.068344
C32	C	1.001656	-0.281513	0.000141
C33	C	1.071143	0.274436	0.000107
C34	C	1.158252	0.285831	0.000110
C35	C	0.923349	0.501876	0.000086
C36	C	0.925697	0.643710	0.000083
N37	N	0.917530	0.284811	0.216428
N38	N	0.937994	0.253441	-0.216242
C39	C	0.968330	0.206695	0.260130
C40	C	0.964209	0.213038	0.347536
C41	C	0.909292	0.297505	0.391239
C42	C	0.858486	0.375625	0.347531
C43	C	0.862603	0.369274	0.260127
C44	C	0.891306	0.325210	0.652646
C45	C	0.887193	0.331557	0.740056
C46	C	0.992917	0.168969	0.740055
C47	C	0.997032	0.162631	0.652649
C48	C	0.946224	0.240745	0.608949
N49	N	0.905080	0.303994	0.480582
N50	N	0.950432	0.234249	0.519607
H51	H	0.298558	0.515467	0.000074
O52	O	0.813370	0.445216	0.217580
C53	C	0.858206	0.524623	0.167021
H54	H	0.919927	0.479159	0.153925
H55	H	0.828469	0.536974	0.105561
H56	H	0.862477	0.621943	0.200694
O57	O	0.997588	-0.142364	0.137670
C58	C	1.064964	-0.076594	0.113249
H59	H	1.058873	-0.043210	0.047176
H60	H	1.070879	0.009701	0.157920
H61	H	1.119623	-0.143085	0.114902
H62	H	0.150069	0.496026	0.000095
H63	H	1.003811	-0.167865	-0.126225
O64	O	0.779380	-0.127476	0.000299
C65	C	0.736211	-0.161205	0.072607
H66	H	0.778685	-0.186392	0.122814
H67	H	0.695209	-0.077306	0.096496
H68	H	0.699830	-0.247190	0.056981
H69	H	0.863611	-0.312087	-0.126243
H70	H	0.330113	0.097054	0.000118
H71	H	0.849937	0.388816	0.617072
O72	O	0.805207	0.457645	0.390111
C73	C	0.812453	0.446483	0.476628
H74	H	0.873996	0.406068	0.488562
H75	H	0.802704	0.544649	0.509836
H76	H	0.766521	0.379708	0.501447
H77	H	0.673878	0.460637	0.000058
H78	H	1.034282	0.105370	0.775644
O79	O	0.517713	0.458597	0.000037
C80	C	0.563707	0.567397	0.000044
H81	H	0.625838	0.539320	-0.026251
H82	H	0.535875	0.642023	-0.040272
H83	H	0.566599	0.608825	0.066658
H84	H	0.181636	0.077618	0.000119
O85	O	0.551768	0.003924	0.000064
C86	C	0.468888	0.018041	0.000087
H87	H	0.451473	0.113770	-0.026206
H88	H	0.445240	-0.062597	-0.040222
H89	H	0.442931	0.014366	0.066706
H90	H	1.013053	0.137919	0.224552
H91	H	1.064144	-0.325497	0.000186
O92	O	1.013647	0.137122	0.389858
C93	C	1.062996	0.061199	0.332542
H94	H	1.067100	0.109086	0.270230
H95	H	1.124352	0.050034	0.357786
H96	H	1.037442	-0.036916	0.323263
H97	H	0.851649	-0.293846	0.126428
O98	O	0.713223	0.024907	-0.000064
C99	C	0.701895	-0.053090	-0.071966
H100	H	0.676675	0.007787	-0.122232
H101	H	0.760805	-0.100096	-0.096106
H102	H	0.659045	-0.130032	-0.055701
O103	O	1.050400	0.080464	0.610328
C104	C	1.094369	0.012897	0.667644
H105	H	1.059263	0.012670	0.729954
H106	H	1.106955	-0.089626	0.642397
H107	H	1.152443	0.061008	0.676927
H108	H	0.842470	0.400346	0.775635
