data_functionalizedCrystal
_audit_creation_method	'MofGen! by Chris Wilmer'
_symmetry_space_group_name_H-M	'P1'
_symmetry_Int_Tables_number	1
_symmetry_cell_setting	triclinic
loop_
_symmetry_equiv_pos_as_xyz
  x,y,z
_cell_length_a	16.625547
_cell_length_b	16.625546
_cell_length_c	17.640968
_cell_angle_alpha	78.766516
_cell_angle_beta	78.771085
_cell_angle_gamma	90.022405
loop_
_atom_site_label
_atom_site_type_symbol
_atom_site_fract_x
_atom_site_fract_y
_atom_site_fract_z
Zn1	Zn	1.324888	-0.228801	-0.447042
Zn2	Zn	1.297525	-0.390908	-0.314850
Zn3	Zn	1.162785	-0.256092	-0.314858
Zn4	Zn	1.190008	-0.363607	-0.446985
O5	O	1.243802	-0.309852	-0.380934
O6	O	1.434095	-0.250310	-0.429527
O7	O	1.256807	-0.395871	-0.204232
O8	O	1.184347	-0.139634	-0.332419
O9	O	1.413991	-0.369409	-0.332406
O10	O	1.303443	-0.119583	-0.429534
O11	O	1.157814	-0.296822	-0.204238
O12	O	1.053560	-0.270349	-0.332364
O13	O	1.230745	-0.322878	-0.557611
O14	O	1.073561	-0.349340	-0.429438
O15	O	1.329840	-0.223837	-0.557653
O16	O	1.283204	-0.500125	-0.332351
O17	O	1.204212	-0.480067	-0.429430
C18	C	1.034303	-0.309844	-0.380896
C19	C	0.944683	-0.309856	-0.380899
C20	C	1.243719	-0.519350	-0.380901
C21	C	1.243762	-0.608968	-0.380913
C22	C	0.871902	-0.309856	-0.380909
C23	C	0.780598	-0.309856	-0.380929
C24	C	0.707826	-0.309859	-0.380949
C25	C	0.616515	-0.309861	-0.380968
C26	C	1.243920	-0.937127	-0.380995
C27	C	1.243874	-0.845823	-0.380974
C28	C	1.243840	-0.773051	-0.380954
C29	C	1.243796	-0.681741	-0.380934
C30	C	1.454118	-0.309861	-0.380972
C31	C	1.543743	-0.309864	-0.380988
C32	C	1.286382	-0.267268	-0.587116
C33	C	1.304527	-0.249121	-0.674979
C34	C	1.243911	-0.099533	-0.380984
C35	C	1.243957	-0.009907	-0.381006
C36	C	1.106266	-0.447273	-0.963839
C37	C	1.123333	-0.430211	-1.046399
C38	C	1.226512	-0.327088	-1.046432
C39	C	1.209451	-0.344139	-0.963870
C40	C	1.149327	-0.404233	-0.922580
C41	C	1.252513	-0.301098	-0.922612
C42	C	1.235456	-0.318151	-0.840057
C43	C	1.175337	-0.378243	-0.798761
C44	C	1.132270	-0.421285	-0.840025
C45	C	1.312640	-0.241009	-0.963903
C46	C	1.355701	-0.197968	-0.922644
C47	C	1.338641	-0.215016	-0.840088
C48	C	1.278522	-0.275109	-0.798792
C49	C	1.381707	-0.171975	-0.798823
C50	C	1.364650	-0.189027	-0.716269
C51	C	1.261465	-0.292162	-0.716237
C52	C	1.201434	-0.352212	-0.175553
C53	C	1.183445	-0.370132	-0.087691
H54	H	1.212487	-0.341077	-0.682617
O55	O	1.440061	-0.113607	-0.839059
C56	C	1.512114	-0.041678	-0.966255
C57	C	1.445993	-0.107785	-0.920788
H58	H	1.516943	-0.036962	-1.032341
H59	H	1.494647	0.020023	-0.950103
H60	H	1.573749	-0.059197	-0.949973
H61	H	1.384333	-0.090344	-0.937045
H62	H	1.463529	-0.169468	-0.936945
H63	H	1.404656	-0.149042	-0.956274
O64	O	1.081519	-0.472149	-1.086395
C65	C	1.047572	-0.604082	-1.111665
C66	C	1.094945	-0.556693	-1.066306
H67	H	1.058424	-0.672442	-1.095453
H68	H	0.979191	-0.593343	-1.095417
H69	H	1.070077	-0.581530	-1.177758
H70	H	1.072510	-0.579216	-1.000203
H71	H	1.163318	-0.567433	-1.082620
O72	O	1.406527	-0.147116	-0.676307
C73	C	1.510705	-0.043056	-0.685043
C74	C	1.463323	-0.090443	-0.730398
H75	H	1.556647	0.002763	-0.728755
H76	H	1.465762	-0.008820	-0.646420
H77	H	1.544822	-0.088081	-0.646367
H78	H	1.429203	-0.045474	-0.769116
H79	H	1.508306	-0.124691	-0.768971
O80	O	1.158616	-0.394807	-0.718567
C81	C	1.056853	-0.398515	-0.600098
C82	C	1.075674	-0.379746	-0.690916
H83	H	0.989800	-0.386329	-0.577715
H84	H	1.068860	-0.465601	-0.577630
H85	H	1.097993	-0.357452	-0.577716
H86	H	1.034547	-0.420755	-0.713366
H87	H	1.063692	-0.312642	-0.713331
H88	H	1.057288	-0.496188	-0.930218
O89	O	1.073971	-0.479777	-0.799935
C90	C	1.029553	-0.622155	-0.774655
C91	C	1.095633	-0.555996	-0.820098
H92	H	1.047034	-0.683790	-0.790953
H93	H	1.024781	-0.627014	-0.708558
H94	H	0.967887	-0.604620	-0.790855
H95	H	1.157334	-0.573482	-0.803965
H96	H	1.100333	-0.551149	-0.886185
O97	O	1.284862	-0.268716	-1.086667
C98	C	1.356907	-0.196773	-1.213860
C99	C	1.290793	-0.262889	-1.168396
H100	H	1.361735	-0.192052	-1.279946
H101	H	1.339433	-0.135076	-1.197702
H102	H	1.418544	-0.214286	-1.197581
H103	H	1.229131	-0.245453	-1.184651
H104	H	1.308336	-0.324568	-1.184558
H105	H	1.326527	-0.227129	-1.031125
