data_functionalizedCrystal
_audit_creation_method	'MofGen! by Chris Wilmer'
_symmetry_space_group_name_H-M	'P1'
_symmetry_Int_Tables_number	1
_symmetry_cell_setting	triclinic
loop_
_symmetry_equiv_pos_as_xyz
  x,y,z
_cell_length_a	6.817900
_cell_length_b	19.551833
_cell_length_c	15.301048
_cell_angle_alpha	95.693335
_cell_angle_beta	104.176180
_cell_angle_gamma	101.663477
loop_
_atom_site_label
_atom_site_type_symbol
_atom_site_fract_x
_atom_site_fract_y
_atom_site_fract_z
V1	V	-4.009817	-0.218075	-0.125706
O2	O	-3.994104	-0.213702	0.005068
O3	O	-3.964863	-0.216797	-0.248317
O4	O	-3.952469	-0.313088	-0.124199
O5	O	-4.006584	-0.116744	-0.119910
V6	V	-4.494158	-0.205929	-0.110013
O7	O	-4.269281	-0.244718	-0.160128
O8	O	-4.684891	-0.179286	-0.075590
O9	O	-4.315905	-0.207207	0.012599
O10	O	-4.627268	-0.210302	-0.240786
O11	O	-4.614788	-0.307260	-0.115809
O12	O	-4.328299	-0.110916	-0.111520
C13	C	-3.810992	-0.213411	-0.278194
C14	C	-3.855464	-0.213000	-0.378434
C15	C	-4.012376	-0.147192	-0.797042
C16	C	-3.970584	-0.147583	-0.702857
C17	C	-3.984315	-0.211790	-0.668923
C18	C	-4.039822	-0.275610	-0.729178
C19	C	-4.081599	-0.275218	-0.823361
C20	C	-3.952748	-0.276423	-0.532871
C21	C	-3.910972	-0.276815	-0.438682
C22	C	-3.841732	-0.148787	-0.412367
C23	C	-3.883509	-0.148395	-0.506550
C24	C	-3.939018	-0.212216	-0.566799
C25	C	-3.795181	-0.336239	-0.119867
C26	C	-3.829599	-0.413914	-0.119447
C27	C	-4.027669	-0.453969	-0.123775
C28	C	-4.060009	-0.526953	-0.123380
C29	C	-3.894276	-0.559881	-0.118674
C30	C	-3.696175	-0.519816	-0.114340
C31	C	-3.663836	-0.446833	-0.114726
C32	C	-3.832851	-0.679278	-0.167704
C33	C	-3.865200	-0.752261	-0.167324
C34	C	-3.994009	-0.784986	-0.117479
C35	C	-4.090506	-0.744721	-0.068028
C36	C	-4.058168	-0.671738	-0.068414
C37	C	-3.929321	-0.639019	-0.118255
C38	C	-4.227158	-0.904178	-0.121378
C39	C	-4.259488	-0.977163	-0.120978
C40	C	-3.895653	-0.970026	-0.111946
C41	C	-3.863324	-0.897042	-0.112338
C42	C	-4.029087	-0.864123	-0.117059
C43	C	-4.133119	-0.210591	0.042471
C44	C	-4.067884	-0.211007	0.142709
C45	C	-4.148930	-0.087761	-0.115854
C46	C	-4.093750	-0.010086	-0.116270
H47	H	-3.925394	-0.095618	-0.653806
C48	C	-4.142666	-0.345415	-0.889634
H49	H	-4.144880	-0.383712	-0.855937
H50	H	-4.044026	-0.345690	-0.923974
H51	H	-4.276794	-0.350157	-0.929870
H52	H	-3.796529	-0.096822	-0.363307
H53	H	-3.760705	-0.996834	-0.108107
C54	C	-3.926051	-0.347441	-0.401354
H55	H	-3.965061	-0.385393	-0.450723
H56	H	-4.027569	-0.352493	-0.368108
H57	H	-3.794794	-0.348010	-0.362211
C58	C	-3.513875	-0.556035	-0.109168
H59	H	-3.561506	-0.605240	-0.109568
H60	H	-3.407249	-0.536139	-0.054520
H61	H	-3.460419	-0.549079	-0.160239
H62	H	-3.872341	-0.096112	-0.534176
C63	C	-4.164279	-0.627448	-0.014012
H64	H	-4.245615	-0.657385	0.015736
H65	H	-4.251505	-0.605241	-0.054442
H66	H	-4.061157	-0.592398	0.030251
H67	H	-4.050987	-0.327889	-0.701541
C68	C	-3.645460	-0.852979	-0.107603
H69	H	-3.649935	-0.804797	-0.108505
H70	H	-3.602618	-0.869951	-0.158544
H71	H	-3.549416	-0.856997	-0.052825
H72	H	-4.420781	-1.009774	-0.124496
H73	H	-3.786637	-0.785039	-0.207596
C74	C	-3.691170	-0.643288	-0.222542
H75	H	-3.638363	-0.677721	-0.251950
H76	H	-3.578704	-0.608547	-0.182417
H77	H	-3.769064	-0.621403	-0.267108
C78	C	-3.997281	-0.076565	-0.834367
H79	H	-4.030131	-0.085469	-0.899088
H80	H	-3.859833	-0.048091	-0.810577
H81	H	-4.092602	-0.052565	-0.816471
H82	H	-4.195399	-0.771365	-0.027442
C83	C	-4.209992	-0.417760	-0.128951
H84	H	-4.332586	-0.452071	-0.131463
H85	H	-4.231528	-0.395905	-0.182141
H86	H	-4.178350	-0.382969	-0.076423
H87	H	-3.997933	-0.328392	-0.581924
H88	H	-4.221310	-0.559572	-0.126910
H89	H	-4.362131	-0.877374	-0.125219
H90	H	-3.502538	-0.414219	-0.111194
