data_functionalizedCrystal
_audit_creation_method	'MofGen! by Chris Wilmer'
_symmetry_space_group_name_H-M	'P1'
_symmetry_Int_Tables_number	1
_symmetry_cell_setting	triclinic
loop_
_symmetry_equiv_pos_as_xyz
  x,y,z
_cell_length_a	16.625546
_cell_length_b	13.897449
_cell_length_c	13.897441
_cell_angle_alpha	89.978743
_cell_angle_beta	89.967525
_cell_angle_gamma	90.023294
loop_
_atom_site_label
_atom_site_type_symbol
_atom_site_fract_x
_atom_site_fract_y
_atom_site_fract_z
Zn1	Zn	-0.320966	1.474650	-0.545431
Zn2	Zn	-0.455814	1.474537	-0.384124
Zn3	Zn	-0.321001	1.313345	-0.384141
Zn4	Zn	-0.455762	1.313308	-0.545369
O5	O	-0.388386	1.393960	-0.464766
O6	O	-0.338861	1.609617	-0.524051
O7	O	-0.437967	1.453123	-0.249145
O8	O	-0.208164	1.334806	-0.405570
O9	O	-0.437933	1.609534	-0.405540
O10	O	-0.208138	1.453316	-0.524068
O11	O	-0.338920	1.334696	-0.249157
O12	O	-0.338870	1.178359	-0.405510
O13	O	-0.437845	1.334742	-0.680359
O14	O	-0.437879	1.178331	-0.523963
O15	O	-0.338811	1.453280	-0.680404
O16	O	-0.568639	1.453086	-0.405480
O17	O	-0.568601	1.334632	-0.523946
C18	C	-0.388373	1.143346	-0.464733
C19	C	-0.388387	1.036132	-0.464741
C20	C	-0.388390	0.949062	-0.464757
C21	C	-0.388396	0.839830	-0.464787
C22	C	-0.597877	1.393869	-0.464726
C23	C	-0.687498	1.393918	-0.464741
C24	C	-1.015673	1.394086	-0.464841
C25	C	-0.924365	1.394036	-0.464816
C26	C	-0.851588	1.394001	-0.464791
C27	C	-0.760274	1.393953	-0.464766
C28	C	-0.178077	1.394078	-0.464828
C29	C	-0.088456	1.394128	-0.464854
C30	C	-0.388318	1.394019	-0.716359
C31	C	-0.388289	1.394044	-0.823573
C32	C	-0.388399	1.645553	-0.464801
C33	C	-0.388404	1.752767	-0.464815
C34	C	-0.388266	1.394064	-0.910643
C35	C	-0.388230	1.394092	-1.019876
C36	C	-0.388395	1.393957	-0.214152
C37	C	-0.388197	1.394118	-0.106939
