data_functionalizedCrystal
_audit_creation_method	'MofGen! by Chris Wilmer'
_symmetry_space_group_name_H-M	'P1'
_symmetry_Int_Tables_number	1
_symmetry_cell_setting	triclinic
loop_
_symmetry_equiv_pos_as_xyz
  x,y,z
_cell_length_a	15.995343
_cell_length_b	14.971486
_cell_length_c	13.448316
_cell_angle_alpha	90.006811
_cell_angle_beta	89.997560
_cell_angle_gamma	96.448344
loop_
_atom_site_label
_atom_site_type_symbol
_atom_site_fract_x
_atom_site_fract_y
_atom_site_fract_z
O1	O	1.111108	-0.115262	-0.082593
O2	O	1.611108	0.384738	0.417407
O3	O	0.867346	-0.129507	-0.082616
O4	O	1.367346	0.370493	0.417384
O5	O	0.995760	0.007823	-0.082597
O6	O	1.495760	0.507823	0.417403
O7	O	0.982693	-0.252592	-0.082612
O8	O	1.482693	0.247408	0.417388
O9	O	0.995744	0.007832	0.082787
O10	O	1.495744	0.507832	0.582787
O11	O	0.867329	-0.129498	0.082767
O12	O	1.367329	0.370502	0.582767
O13	O	1.111091	-0.115254	0.082791
O14	O	1.611091	0.384746	0.582791
Cu15	Cu	0.989209	-0.122375	0.097880
Cu16	Cu	1.489209	0.377625	0.597880
Cu17	Cu	0.989228	-0.122385	-0.097705
Cu18	Cu	1.489228	0.377615	0.402295
O19	O	0.982677	-0.252584	0.082772
O20	O	1.482677	0.247416	0.582772
C21	C	0.836142	-0.128915	0.000072
C22	C	1.336142	0.371085	0.500072
C23	C	0.743190	-0.127153	0.000063
C24	C	1.243190	0.372847	0.500063
C25	C	0.573000	-0.123955	0.000077
C26	C	1.073000	0.376045	0.500077
C27	C	0.549555	-0.024824	0.000083
C28	C	1.049555	0.475176	0.500083
C29	C	0.452875	-0.022959	0.000464
C30	C	0.952875	0.477041	0.500464
C31	C	0.405437	-0.120806	0.000089
C32	C	0.905437	0.379194	0.500089
C33	C	0.434569	-0.170645	0.094341
C34	C	0.934569	0.329355	0.594341
C35	C	0.531363	-0.171821	0.094414
C36	C	1.031363	0.328179	0.594414
C37	C	0.531293	-0.173282	-0.093665
C38	C	1.031293	0.326718	0.406335
C39	C	0.434795	-0.169623	-0.094898
C40	C	0.934795	0.330377	0.405102
C41	C	0.310737	-0.119031	0.000099
C42	C	0.810737	0.380969	0.500099
C43	C	0.667700	-0.125733	0.000073
C44	C	1.167700	0.374267	0.500073
C45	C	0.995168	0.041151	0.000095
C46	C	1.495168	0.541151	0.500095
C47	C	0.993416	0.140446	0.000094
C48	C	1.493416	0.640446	0.500094
C49	C	1.142295	-0.115846	0.000100
C50	C	1.642295	0.384154	0.500100
C51	C	1.235247	-0.117608	0.000103
C52	C	1.735247	0.382392	0.500103
C53	C	0.983269	-0.285912	0.000078
C54	C	1.483269	0.214088	0.500078
C55	C	0.985021	-0.385207	0.000072
C56	C	1.485021	0.114793	0.500072
N57	N	0.989202	-0.122368	0.235444
N58	N	1.489202	0.377632	0.735444
C59	C	1.068856	0.197760	0.000102
C60	C	1.568856	0.697760	0.500102
C61	C	1.067206	0.291058	0.000092
C62	C	1.567206	0.791058	0.500092
C63	C	0.990115	0.327040	0.000080
C64	C	1.490115	0.827040	0.500080
C65	C	0.914669	0.269719	0.000069
C66	C	1.414669	0.769719	0.500069
C67	C	0.916320	0.176423	0.000072
C68	C	1.416320	0.676423	0.500072
C69	C	0.911232	0.464177	0.000065
C70	C	1.411232	0.964177	0.500065
C71	C	0.909581	0.557479	0.000064
C72	C	1.409581	1.057479	0.500064
C73	C	1.062118	0.578812	0.000085
C74	C	1.562118	1.078812	0.500085
C75	C	1.063769	0.485516	0.000088
C76	C	1.563769	0.985516	0.500088
C77	C	0.988323	0.428201	0.000078
C78	C	1.488323	0.928201	0.500078
N79	N	0.989242	-0.122386	-0.235270
N80	N	1.489242	0.377614	0.264730
C81	C	1.046081	-0.061583	0.287494
C82	C	1.546081	0.438417	0.787494
C83	C	1.046086	-0.061582	0.391597
C84	C	1.546086	0.438418	0.891597
C85	C	0.989215	-0.122371	0.443649
C86	C	1.489215	0.377629	0.943649
C87	C	0.932330	-0.183159	0.391593
C88	C	1.432330	0.316841	0.891593
C89	C	0.932321	-0.183155	0.287491
C90	C	1.432321	0.316845	0.787491
C91	C	0.932353	-0.183165	0.608573
C92	C	1.432353	0.316835	1.108573
C93	C	0.932362	-0.183171	0.712681
C94	C	1.432362	0.316829	1.212681
C95	C	1.046118	-0.061593	0.712678
C96	C	1.546118	0.438407	1.212678
C97	C	1.046110	-0.061588	0.608577
C98	C	1.546110	0.438412	1.108577
C99	C	0.989225	-0.122377	0.556528
C100	C	1.489225	0.377623	1.056528
H101	H	0.433823	0.016056	-0.067086
H102	H	0.933823	0.516056	0.432914
H103	H	0.545380	-0.246249	-0.094578
H104	H	1.045380	0.253751	0.405422
C105	C	0.824785	0.597063	0.000048
C106	C	1.324785	1.097063	0.500048
H107	H	0.834610	0.660835	0.000060
H108	H	1.334610	1.160835	0.500060
H109	H	0.793725	0.577389	-0.057631
H110	H	1.293725	1.077389	0.442369
H111	H	0.793710	0.577396	0.057723
H112	H	1.293710	1.077396	0.557723
H113	H	0.402795	-0.242657	0.097577
H114	H	0.902795	0.257343	0.597577
C115	C	0.833336	0.113378	0.000066
C116	C	1.333336	0.613378	0.500066
H117	H	0.787187	0.148168	0.000067
H118	H	1.287187	0.648168	0.500067
H119	H	0.830817	0.076533	-0.057606
H120	H	1.330817	0.576533	0.442394
H121	H	0.830804	0.076547	0.057747
H122	H	1.330804	0.576547	0.557747
H123	H	0.886051	-0.232670	0.755057
H124	H	1.386051	0.267330	1.255057
H125	H	1.123549	0.625482	0.000089
H126	H	1.623549	1.125482	0.500089
C127	C	0.828243	0.401133	0.000057
C128	C	1.328243	0.901133	0.500057
H129	H	0.782093	0.435923	0.000060
H130	H	1.282093	0.935923	0.500060
H131	H	0.825720	0.364286	-0.057614
H132	H	1.325720	0.864286	0.442386
H133	H	0.825714	0.364304	0.057739
H134	H	1.325714	0.864304	0.557739
H135	H	1.128637	0.337719	0.000100
H136	H	1.628637	0.837719	0.500100
C137	C	1.148567	0.445937	0.000098
C138	C	1.648567	0.945937	0.500098
H139	H	1.193264	0.493432	0.000093
H140	H	1.693264	0.993432	0.500093
H141	H	1.152376	0.409990	0.057770
H142	H	1.652376	0.909990	0.557770
H143	H	1.152382	0.409981	-0.057583
H144	H	1.652382	0.909981	0.442417
H145	H	0.851900	0.299022	0.000054
H146	H	1.351900	0.799022	0.500054
C147	C	1.153656	0.158184	0.000117
C148	C	1.653656	0.658184	0.500117
H149	H	1.143837	0.094411	0.000128
H150	H	1.643837	0.594411	0.500128
H151	H	1.184730	0.177850	-0.057552
H152	H	1.684730	0.677850	0.442448
H153	H	1.184713	0.177866	0.057802
H154	H	1.684713	0.677866	0.557802
C155	C	1.108662	0.005272	0.448847
C156	C	1.608662	0.505272	0.948847
H157	H	1.142539	0.041467	0.402937
H158	H	1.642539	0.541467	0.902937
H159	H	1.078521	0.042530	0.489471
H160	H	1.578521	0.542530	0.989471
H161	H	1.143547	-0.026940	0.489441
H162	H	1.643547	0.473060	0.989441
C163	C	1.108639	0.005287	0.230245
C164	C	1.608639	0.505287	0.730245
H165	H	1.142509	0.041494	0.276157
H166	H	1.642509	0.541494	0.776157
H167	H	1.143520	-0.026905	0.189621
H168	H	1.643520	0.473095	0.689621
H169	H	1.078475	0.042544	0.189650
H170	H	1.578475	0.542544	0.689650
C171	C	1.108684	0.005281	0.769928
C172	C	1.608684	0.505281	1.269928
H173	H	1.100538	-0.003417	0.839381
H174	H	1.600538	0.496583	1.339381
H175	H	1.164571	-0.004465	0.752859
H176	H	1.664571	0.495535	1.252859
H177	H	1.099527	0.064986	0.752874
H178	H	1.599527	0.564986	1.252874
C179	C	0.551154	-0.270022	0.099839
C180	C	1.051154	0.229978	0.599839
H181	H	0.500057	-0.309020	0.101998
H182	H	1.000057	0.190980	0.601998
H183	H	0.582535	-0.283424	0.042839
H184	H	1.082535	0.216576	0.542839
H185	H	0.583068	-0.278205	0.158049
H186	H	1.083068	0.221795	0.658049
H187	H	1.092422	-0.012094	0.566196
H188	H	1.592422	0.487906	1.066196
H189	H	0.886020	-0.232652	0.433980
H190	H	1.386020	0.267348	0.933980
H191	H	0.886003	-0.232651	0.245114
H192	H	1.386003	0.267349	0.745114
H193	H	0.558108	-0.137701	0.165140
H194	H	1.058108	0.362299	0.665140
C195	C	0.407382	-0.124444	0.189467
C196	C	0.907382	0.375556	0.689467
H197	H	0.425297	-0.155098	0.246106
H198	H	0.925297	0.344902	0.746106
H199	H	0.432217	-0.063761	0.190548
H200	H	0.932217	0.436239	0.690548
H201	H	0.347850	-0.125984	0.190439
H202	H	0.847850	0.374016	0.690439
C203	C	0.587367	0.027092	-0.091191
C204	C	1.087367	0.527092	0.408809
H205	H	0.617794	-0.011219	-0.130121
H206	H	1.117794	0.488781	0.369879
H207	H	0.543407	0.046942	-0.130016
H208	H	1.043407	0.546942	0.369984
H209	H	0.624253	0.077581	-0.069739
H210	H	1.124253	0.577581	0.430261
C211	C	0.588641	0.026245	0.091260
C212	C	1.088641	0.526245	0.591260
H213	H	0.619184	-0.012585	0.129325
H214	H	1.119184	0.487415	0.629325
H215	H	0.625598	0.076643	0.069738
H216	H	1.125598	0.576643	0.569738
H217	H	0.545248	0.046169	0.130980
H218	H	1.045248	0.546169	0.630980
C219	C	0.409677	-0.120603	-0.189098
C220	C	0.909677	0.379397	0.310902
H221	H	0.381412	-0.070597	-0.170628
H222	H	0.881412	0.429403	0.329372
H223	H	0.458730	-0.100267	-0.226106
H224	H	0.958730	0.399733	0.273894
H225	H	0.373372	-0.160704	-0.228669
H226	H	0.873372	0.339296	0.271331
H227	H	0.434393	0.015880	0.068427
H228	H	0.934393	0.515880	0.568427
C229	C	0.569440	-0.131038	-0.190208
C230	C	1.069440	0.368962	0.309792
H231	H	0.543405	-0.161785	-0.245871
H232	H	1.043405	0.338215	0.254129
H233	H	0.560298	-0.069479	-0.192874
H234	H	1.060298	0.430521	0.307126
H235	H	0.628158	-0.135800	-0.191442
H236	H	1.128158	0.364200	0.308558
C237	C	0.390397	-0.266083	-0.102972
C238	C	0.890397	0.233917	0.397028
H239	H	0.353214	-0.277901	-0.048271
H240	H	0.853214	0.222099	0.451729
H241	H	0.359365	-0.272345	-0.163272
H242	H	0.859365	0.227655	0.336728
H243	H	0.431229	-0.307519	-0.102328
H244	H	0.931229	0.192481	0.397672
H245	H	0.886029	-0.232663	0.566198
H246	H	1.386029	0.267337	1.066198
