data_functionalizedCrystal
_audit_creation_method	'MofGen! by Chris Wilmer'
_symmetry_space_group_name_H-M	'P1'
_symmetry_Int_Tables_number	1
_symmetry_cell_setting	triclinic
loop_
_symmetry_equiv_pos_as_xyz
  x,y,z
_cell_length_a	18.426585
_cell_length_b	14.560438
_cell_length_c	14.560438
_cell_angle_alpha	59.997697
_cell_angle_beta	60.002691
_cell_angle_gamma	90.000540
loop_
_atom_site_label
_atom_site_type_symbol
_atom_site_fract_x
_atom_site_fract_y
_atom_site_fract_z
Zr1	Zr	0.699116	-0.120611	1.005349
O2	O	0.583240	-0.267266	1.196949
O3	O	0.734637	-0.075645	0.813744
O4	O	0.734638	-0.267258	1.005349
O5	O	0.583241	0.075486	1.005346
O6	O	0.854064	-0.267262	1.005355
O7	O	0.583240	-0.075653	1.005344
O8	O	0.854063	0.075499	0.662609
O9	O	0.583241	-0.267276	1.348093
O10	O	0.838914	-0.056481	0.892561
O11	O	0.749788	0.056315	0.892558
O12	O	0.749789	-0.169285	1.118148
O13	O	0.660663	-0.056490	1.118145
Zr14	Zr	0.889588	0.120431	1.005363
Zr15	Zr	0.889587	-0.120617	1.005359
Zr16	Zr	0.699117	0.120437	1.005353
Zr17	Zr	0.699118	-0.120627	1.246406
Zr18	Zr	0.889586	0.120446	0.764307
O19	O	0.854066	0.075465	1.196969
O20	O	0.854065	-0.267275	1.196963
O21	O	0.583242	0.075473	1.196954
O22	O	1.005463	0.267086	0.813764
O23	O	1.005462	-0.075654	0.813758
O24	O	0.734639	0.267094	0.813750
O25	O	1.005463	-0.075666	1.005366
O26	O	0.854066	0.267078	1.005364
O27	O	0.734640	0.267082	1.005358
O28	O	1.005464	0.075472	1.005369
O29	O	0.734640	-0.267280	1.348101
O30	O	0.854064	0.267100	0.662612
O31	O	1.005463	0.267095	0.662620
O32	O	1.005462	0.075494	0.662617
O33	O	0.583242	-0.075675	1.348096
O34	O	0.734641	-0.075679	1.348104
O35	O	0.838915	0.169105	0.892565
O36	O	0.928041	0.056309	0.892568
O37	O	0.838915	-0.056495	1.118155
O38	O	0.749790	0.056300	1.118152
C39	C	0.556102	-0.000083	1.005344
C40	C	0.475243	-0.000080	1.005339
C41	C	0.794350	-0.000071	0.703831
C42	C	0.794349	-0.000064	0.601496
C43	C	0.794353	0.301424	1.005361
C44	C	0.794354	0.403755	1.005363
C45	C	0.179128	-0.000100	1.005378
C46	C	0.261514	-0.000097	1.005373
C47	C	0.327182	-0.000091	1.005359
C48	C	0.409574	-0.000086	1.005353
C49	C	1.032601	-0.000098	1.005369
C50	C	1.113461	-0.000100	1.005373
C51	C	0.794351	-0.301605	1.005351
C52	C	0.794350	-0.403936	1.005350
C53	C	0.747832	0.392951	1.123115
C54	C	0.747828	0.489106	1.123109
C55	C	0.840873	0.606866	0.887588
C56	C	0.840872	0.510713	0.887596
C57	C	0.728555	-0.083343	0.636705
C58	C	0.728559	-0.083372	0.540565
C59	C	0.860155	0.083167	0.374008
C60	C	0.860155	0.083190	0.470147
C61	C	0.794354	-0.000110	1.306882
C62	C	0.794354	-0.000116	1.409217
C63	C	1.032600	-0.000078	0.703844
C64	C	1.113459	-0.000075	0.601513
C65	C	0.794351	0.301444	0.703836
C66	C	0.794351	0.403781	0.601503
C67	C	1.032601	0.301436	0.703849
C68	C	1.113460	0.403771	0.601520
C69	C	0.556103	-0.301616	1.306864
C70	C	0.475243	-0.403951	1.409193
C71	C	0.556104	-0.000102	1.306869
C72	C	0.475245	-0.000106	1.409200
C73	C	0.794352	-0.301624	1.306877
C74	C	0.794353	-0.403962	1.409210
C75	C	1.104908	-0.058958	0.553454
C76	C	1.180876	-0.058977	0.457317
C77	C	1.265395	-0.000105	0.409234
C78	C	1.273944	0.058780	0.457302
C79	C	1.197976	0.058792	0.553444
C80	C	1.197964	0.392951	0.553467
C81	C	1.273947	0.489096	0.457331
C82	C	1.265425	0.596061	0.409244
C83	C	1.180913	0.606879	0.457307
C84	C	1.104932	0.510735	0.553447
C85	C	0.390740	-0.393131	1.457258
C86	C	0.314757	-0.489277	1.553423
C87	C	0.323278	-0.596242	1.601515
C88	C	0.407790	-0.607060	1.553447
C89	C	0.483772	-0.510915	1.457289
C90	C	0.483796	0.058767	1.457269
C91	C	0.407827	0.058760	1.553433
C92	C	0.323309	-0.000116	1.601519
C93	C	0.314760	-0.058996	1.553446
C94	C	0.390727	-0.058994	1.457290
C95	C	0.840873	0.510735	0.553428
C96	C	0.840863	0.606888	0.457284
C97	C	0.747807	0.489121	0.457294
C98	C	0.747813	0.392970	0.553443
H99	H	0.709952	0.305866	1.219009
N100	N	1.342999	-0.000093	0.311009
N101	N	1.418460	0.052480	0.268072
H102	H	1.473267	0.052490	0.198696
H103	H	0.878748	0.693960	0.791707
H104	H	0.913737	0.151008	0.441467
N105	N	0.416484	-0.716327	1.602552
N106	N	0.456099	-0.745021	1.527431
H107	H	0.462236	-0.822194	1.562108
N108	N	1.172201	0.716137	0.408176
N109	N	1.096749	0.725798	0.451073
H110	H	1.090597	0.802963	0.416367
H111	H	0.674983	-0.151187	0.569245
N112	N	0.888390	0.521756	0.602553
N113	N	0.888390	0.435902	0.688400
H114	H	0.921947	0.443687	0.723097
N115	N	1.360273	0.478050	0.408214
N116	N	1.428113	0.563891	0.322373
H117	H	1.489080	0.556090	0.287682
N118	N	0.228428	-0.478239	1.602521
N119	N	0.175643	-0.518738	1.720555
H120	H	0.114673	-0.510945	1.755227
N121	N	0.661348	-0.168406	0.770866
N122	N	0.653278	-0.269692	0.815893
H123	H	0.605814	-0.329775	0.910645
H124	H	0.261458	-0.000108	1.679815
H125	H	0.261402	-0.674519	1.679812
H126	H	0.709944	0.480299	1.218995
H127	H	1.342769	0.106711	0.418139
N128	N	0.382037	-0.283869	1.408147
N129	N	0.449875	-0.198023	1.322299
H130	H	0.443724	-0.120857	1.287623
H131	H	1.204919	0.305863	0.592605
N132	N	1.206734	0.118951	0.602514
N133	N	1.282206	0.171509	0.559561
H134	H	1.288399	0.213999	0.594212
H135	H	0.878755	0.519518	0.791702
N136	N	1.018587	-0.119094	0.602532
N137	N	1.010981	-0.171660	0.559596
H138	H	0.950019	-0.214137	0.594253
N139	N	1.343052	0.694254	0.311040
N140	N	1.418495	0.684564	0.268151
H141	H	1.473323	0.753908	0.198791
H142	H	0.913731	0.150951	0.267055
H143	H	0.552576	-0.519739	1.418156
N144	N	0.570116	0.118922	1.408173
N145	N	0.577722	0.171473	1.451124
H146	H	0.638684	0.213957	1.416459
N147	N	1.172115	-0.119116	0.408224
N148	N	1.132475	-0.094125	0.354573
H149	H	1.126284	-0.136597	0.319902
N150	N	0.700267	0.478062	0.408215
N151	N	0.618238	0.427894	0.483346
H152	H	0.584662	0.420079	0.448684
H153	H	1.036128	0.519561	0.592560
N154	N	0.228417	-0.119130	1.602589
N155	N	0.160603	-0.119110	1.688437
H156	H	0.099621	-0.161575	1.723145
H157	H	0.414806	0.106712	1.592558
H158	H	0.878745	0.693972	0.418147
N159	N	0.381969	-0.119140	1.408207
N160	N	0.306497	-0.171696	1.451159
H161	H	0.300305	-0.214179	1.416500
H162	H	0.709924	0.305877	0.592589
