data_functionalizedCrystal
_audit_creation_method	'MofGen! by Chris Wilmer'
_symmetry_space_group_name_H-M	'P1'
_symmetry_Int_Tables_number	1
_symmetry_cell_setting	triclinic
loop_
_symmetry_equiv_pos_as_xyz
  x,y,z
_cell_length_a	16.992694
_cell_length_b	12.837942
_cell_length_c	15.455313
_cell_angle_alpha	92.949088
_cell_angle_beta	87.142206
_cell_angle_gamma	92.748582
loop_
_atom_site_label
_atom_site_type_symbol
_atom_site_fract_x
_atom_site_fract_y
_atom_site_fract_z
O1	O	1.060029	0.216906	-0.072020
O2	O	0.831564	0.214478	-0.072045
O3	O	0.940730	0.064370	-0.072028
O4	O	0.950863	0.367014	-0.072037
O5	O	0.934485	0.072916	0.072233
O6	O	0.825318	0.223024	0.072216
O7	O	1.053784	0.225452	0.072241
Cu8	Cu	0.938981	0.225018	0.085401
Cu9	Cu	0.946367	0.214912	-0.085205
O10	O	0.944617	0.375560	0.072224
C11	C	0.798995	0.215629	0.000082
C12	C	0.711256	0.206315	0.000072
C13	C	0.667730	0.296178	0.000070
C14	C	0.585288	0.287422	0.000082
C15	C	0.546375	0.188801	0.000091
C16	C	0.589907	0.098931	0.000095
C17	C	0.672346	0.107689	0.000089
C18	C	0.300064	0.152503	0.000115
C19	C	0.217618	0.143751	0.000118
C20	C	0.213006	0.332243	0.000107
C21	C	0.295447	0.340992	0.000096
C22	C	0.338972	0.251123	0.000105
N23	N	0.462107	0.179848	0.000100
N24	N	0.423238	0.260077	0.000102
C25	C	0.934185	0.029739	0.000102
C26	C	0.923977	-0.086184	0.000099
C27	C	1.046699	-0.316976	0.000095
C28	C	1.037111	-0.425897	0.000093
C29	C	0.895215	-0.412947	0.000086
C30	C	0.904802	-0.304027	0.000088
C31	C	0.980547	-0.256046	0.000094
C32	C	0.990134	-0.147123	0.000103
C33	C	0.848238	-0.134176	0.000090
C34	C	0.838650	-0.243096	0.000087
C35	C	1.086352	0.224301	0.000112
C36	C	1.174092	0.233614	0.000116
C37	C	0.951163	0.410191	0.000092
C38	C	0.961371	0.526114	0.000089
N39	N	0.933792	0.232127	0.205396
N40	N	0.951562	0.207795	-0.205199
C41	C	0.980189	0.168382	0.250797
C42	C	0.976273	0.173768	0.341604
C43	C	0.925963	0.242905	0.387008
C44	C	0.879560	0.306652	0.341600
C45	C	0.883473	0.301260	0.250795
C46	C	0.909072	0.266151	0.658587
C47	C	0.905164	0.271540	0.749399
C48	C	1.001877	0.138654	0.749397
C49	C	1.005788	0.133273	0.658589
C50	C	0.959383	0.197016	0.613189
N51	N	0.921960	0.248414	0.479828
N52	N	0.963381	0.191501	0.520371
H53	H	0.185938	0.063438	0.000124
C54	C	1.035536	0.092341	0.200856
H55	H	1.031230	0.098266	0.140273
H56	H	1.021134	0.022891	0.215745
H57	H	1.088399	0.108970	0.215734
H58	H	1.051808	-0.108058	0.000111
H59	H	0.335492	0.079324	0.000123
C60	C	1.130011	-0.264193	0.000108
H61	H	1.168037	-0.316082	0.000107
H62	H	1.134520	-0.218994	0.050417
H63	H	1.138879	-0.224951	-0.050204
C64	C	0.858035	0.336275	0.608658
H65	H	0.827520	0.378230	0.648707
H66	H	0.823912	0.293909	0.573244
H67	H	0.891191	0.379970	0.573227
H68	H	0.794372	-0.084554	0.000096
C69	C	1.109878	-0.492917	0.000098
H70	H	1.156358	-0.448737	0.000108
H71	H	1.111264	-0.538655	-0.050208
H72	H	1.106910	-0.532695	0.050412
C73	C	1.027318	0.103659	0.391543
H74	H	1.057851	0.061724	0.351496
H75	H	0.994175	0.059962	0.426978
H76	H	1.061437	0.146046	0.426953
C77	C	1.061125	0.057216	0.608651
H78	H	1.088192	0.020015	0.648697
H79	H	1.098296	0.095378	0.573216
H80	H	1.031018	0.009316	0.573240
C81	C	0.824221	0.382703	0.391542
H82	H	0.828541	0.376794	0.452126
H83	H	0.771359	0.366092	0.376672
H84	H	0.838637	0.452153	0.376647
C85	C	0.849820	0.347590	0.799346
H86	H	0.854146	0.341679	0.859929
H87	H	0.796957	0.330975	0.784480
H88	H	0.864231	0.417043	0.784453
C89	C	0.811905	-0.465740	0.000078
H90	H	0.815673	-0.539335	0.000081
H91	H	0.786497	-0.448206	-0.050227
H92	H	0.782151	-0.442259	0.050393
C93	C	0.547104	-0.009550	0.000103
H94	H	0.491772	-0.001898	0.000097
H95	H	0.559391	-0.043859	0.050410
H96	H	0.563736	-0.049815	-0.050211
H97	H	1.039657	0.086756	0.786370
C98	C	0.832439	0.371379	0.200849
H99	H	0.841968	0.358260	0.140266
H100	H	0.845562	0.442595	0.215719
H101	H	0.778292	0.356523	0.215741
C102	C	0.710528	0.404662	0.000061
H103	H	0.672794	0.456926	0.000069
H104	H	0.744762	0.409019	-0.050248
H105	H	0.740419	0.414977	0.050372
C106	C	0.537410	0.386268	0.000071
H107	H	0.482738	0.366931	0.000085
H108	H	0.552143	0.423438	-0.050242
H109	H	0.547802	0.429413	0.050379
C110	C	0.338246	0.449476	0.000099
H111	H	0.300515	0.501743	0.000109
H112	H	0.372483	0.453835	-0.050207
H113	H	0.368135	0.459783	0.050413
C114	C	0.755338	-0.295882	0.000086
H115	H	0.759101	-0.369478	0.000091
H116	H	0.729928	-0.278347	-0.050218
H117	H	0.725589	-0.272395	0.050402
C118	C	0.720225	0.008839	0.000083
H119	H	0.685245	-0.051151	0.000079
H120	H	0.750313	0.011315	0.050386
H121	H	0.754649	0.005360	-0.050234
H122	H	0.177559	0.405409	0.000101
