data_functionalizedCrystal
_audit_creation_method	'MofGen! by Chris Wilmer'
_symmetry_space_group_name_H-M	'P1'
_symmetry_Int_Tables_number	1
_symmetry_cell_setting	triclinic
loop_
_symmetry_equiv_pos_as_xyz
  x,y,z
_cell_length_a	13.635800
_cell_length_b	23.752959
_cell_length_c	11.102291
_cell_angle_alpha	84.891335
_cell_angle_beta	108.605752
_cell_angle_gamma	79.933576
loop_
_atom_site_label
_atom_site_type_symbol
_atom_site_fract_x
_atom_site_fract_y
_atom_site_fract_z
V1	V	2.034378	-0.079167	0.396977
O2	O	2.036312	0.003797	0.388681
O3	O	2.001744	-0.156969	0.394972
O4	O	2.023099	-0.077953	0.569788
O5	O	2.014809	-0.075766	0.212655
V6	V	2.275611	-0.069244	0.374844
O7	O	2.166167	-0.100936	0.445527
O8	O	2.368920	-0.047475	0.326295
O9	O	2.196641	0.008558	0.376849
O10	O	2.332375	-0.152208	0.383140
O11	O	2.353878	-0.072645	0.559166
O12	O	2.175287	-0.070458	0.202033
V13	V	2.534378	-0.079167	0.396977
O14	O	2.536312	0.003797	0.388681
O15	O	2.501744	-0.156969	0.394972
O16	O	2.523099	-0.077953	0.569788
O17	O	2.514809	-0.075766	0.212655
V18	V	2.775611	-0.069244	0.374844
O19	O	2.666167	-0.100936	0.445527
O20	O	2.868920	-0.047475	0.326295
O21	O	2.696641	0.008558	0.376849
O22	O	2.832375	-0.152208	0.383140
O23	O	2.853878	-0.072645	0.559166
O24	O	2.675287	-0.070458	0.202033
C25	C	1.921775	-0.175935	0.388893
C26	C	1.935822	-0.239538	0.388406
C27	C	1.905400	-0.511547	0.380011
C28	C	1.892184	-0.451783	0.380459
O29	O	1.807785	-0.418399	0.375318
N30	N	1.976794	-0.424807	0.387044
C31	C	2.074628	-0.457598	0.393194
O32	O	2.145382	-0.429164	0.398837
C33	C	2.087845	-0.517360	0.392756
C34	C	2.003226	-0.544333	0.386158
C35	C	1.820789	-0.538520	0.373415
C36	C	1.834004	-0.598279	0.372965
C37	C	1.931830	-0.631065	0.379112
C38	C	2.016441	-0.604092	0.385708
C39	C	2.185680	-0.550151	0.398916
C40	C	2.198890	-0.609917	0.398478
C41	C	2.114271	-0.636890	0.391880
C42	C	2.127481	-0.696637	0.391404
N43	N	2.042872	-0.723614	0.384820
C44	C	1.945046	-0.690828	0.378673
C45	C	2.046866	-0.332091	0.394117
C46	C	2.033648	-0.272329	0.394546
C47	C	1.851206	-0.266519	0.381813
C48	C	1.864422	-0.326282	0.381375
C49	C	1.962257	-0.359068	0.387532
C50	C	1.972804	-0.816326	0.377728
C51	C	1.986027	-0.876090	0.377273
C52	C	2.168470	-0.881895	0.390013
C53	C	2.155247	-0.822136	0.390461
C54	C	2.057408	-0.789353	0.384322
O55	O	2.211851	-0.730059	0.396547
O56	O	1.874311	-0.719270	0.373048
C57	C	1.949014	-0.075142	0.611886
C58	C	1.980378	-0.074663	0.753165
C59	C	2.108281	0.027521	0.382924
C60	C	2.083853	0.091124	0.383420
C61	C	2.081042	-0.073271	0.159928
C62	C	2.039297	-0.073746	0.018648
C63	C	2.421775	-0.175935	0.388893
C64	C	2.435822	-0.239538	0.388406
C65	C	2.449014	-0.075142	0.611886
C66	C	2.480378	-0.074663	0.753165
C67	C	2.086345	-0.077292	0.826037
C68	C	2.115805	-0.076832	0.958779
C69	C	1.933321	-0.071116	0.945766
C70	C	1.903861	-0.071572	0.813025
C71	C	2.191701	-0.080595	0.833552
C72	C	2.221161	-0.080134	0.966294
C73	C	2.608281	0.027521	0.382924
C74	C	2.583853	0.091124	0.383420
C75	C	2.581042	-0.073271	0.159928
C76	C	2.539297	-0.073746	0.018648
C77	C	2.533648	-0.272325	0.394554
C78	C	2.546866	-0.332088	0.394116
C79	C	2.462255	-0.359064	0.387521
C80	C	2.364422	-0.326274	0.381377
C81	C	2.351207	-0.266512	0.381824
C82	C	2.658521	0.123910	0.377276
C83	C	2.635575	0.183673	0.377720
C84	C	2.537964	0.210649	0.384318
C85	C	2.463290	0.177859	0.390458
C86	C	2.486233	0.118097	0.390005
C87	C	2.586345	-0.077292	0.826037
C88	C	2.615805	-0.076832	0.958779
C89	C	2.433321	-0.071116	0.945766
C90	C	2.403861	-0.071572	0.813025
C91	C	2.691701	-0.080595	0.833552
C92	C	2.721161	-0.080134	0.966294
H93	H	1.917116	-0.898048	0.371901
Br94	Br	2.269846	-0.012429	1.014200
H95	H	2.317575	-0.069432	0.753697
H96	H	2.473029	-0.407727	0.387158
H97	H	2.281832	-0.121504	1.019516
H98	H	2.295536	-0.348247	0.376007
Br99	Br	2.648499	-0.235729	0.403515
H100	H	2.254590	-0.528201	0.404294
Br101	Br	1.749578	-0.362881	0.372422
H102	H	2.696392	0.210363	0.372721
Br103	Br	2.218430	-0.222022	0.373471
H104	H	2.211931	-0.041761	0.786104
Br105	Br	2.791003	0.087313	0.368323
Br106	Br	2.506842	0.291756	0.384929
H107	H	2.383813	0.199832	0.395829
Br108	Br	2.384883	0.073609	0.398345
Br109	Br	2.329485	-0.066920	1.027012
Br110	Br	2.679645	-0.376577	0.402451
Br111	Br	2.301226	-0.926401	0.398338
H112	H	2.278560	-0.636609	0.403495
Br113	Br	2.822289	-0.149081	1.055012
Br114	Br	2.725410	-0.015871	0.754455
H115	H	1.771550	-0.239814	0.376813
H116	H	2.750369	-0.039511	0.995027
Br117	Br	1.840024	-0.771844	0.369398
Br118	Br	1.719153	-0.634874	0.364001
H119	H	1.741127	-0.511831	0.368415
Br120	Br	2.751981	-0.151709	0.793409
Br121	Br	2.270089	-0.785529	0.399422
Br122	Br	2.179649	-0.376580	0.402461
Br123	Br	2.148485	-0.235728	0.403461
H124	H	2.227870	-0.123263	0.809476
Br125	Br	1.760043	-0.067998	0.714127
Br126	Br	1.829485	-0.066920	1.027012
