data_functionalizedCrystal
_audit_creation_method	'MofGen! by Chris Wilmer'
_symmetry_space_group_name_H-M	'P1'
_symmetry_Int_Tables_number	1
_symmetry_cell_setting	triclinic
loop_
_symmetry_equiv_pos_as_xyz
  x,y,z
_cell_length_a	6.817900
_cell_length_b	10.773890
_cell_length_c	11.102182
_cell_angle_alpha	95.425559
_cell_angle_beta	108.603774
_cell_angle_gamma	96.645716
loop_
_atom_site_label
_atom_site_type_symbol
_atom_site_fract_x
_atom_site_fract_y
_atom_site_fract_z
V1	V	-4.050641	-0.172607	-0.394187
O2	O	-4.073467	0.008281	-0.388814
O3	O	-3.967595	-0.342239	-0.389442
O4	O	-4.028349	-0.169958	-0.567041
O5	O	-4.012292	-0.165192	-0.209986
V6	V	-4.535375	-0.150970	-0.372404
O7	O	-4.309242	-0.220070	-0.441970
O8	O	-4.726971	-0.103508	-0.324621
O9	O	-4.395215	0.018661	-0.377149
O10	O	-4.629946	-0.331859	-0.377778
O11	O	-4.691121	-0.158386	-0.556605
O12	O	-4.334461	-0.153620	-0.199551
C13	C	-3.803323	-0.383591	-0.382695
C14	C	-3.816883	-0.522267	-0.379968
C15	C	-3.995674	-0.590130	-0.384707
C16	C	-4.009694	-0.733458	-0.381888
C17	C	-3.880819	-0.163828	-0.609238
C18	C	-3.943648	-0.162785	-0.750533
C19	C	-3.993049	-0.276526	-0.833704
C20	C	-4.052104	-0.275530	-0.966465
C21	C	-4.012341	-0.047041	-0.932869
C22	C	-3.953302	-0.048039	-0.800112
C23	C	-3.983394	-0.391272	-0.784126
C24	C	-4.032795	-0.505022	-0.867298
C25	C	-4.091850	-0.504025	-1.000059
C26	C	-4.101504	-0.389279	-1.049646
C27	C	-4.222827	0.060007	-0.383893
C28	C	-4.188505	0.198681	-0.386628
C29	C	-4.145330	-0.159753	-0.157347
C30	C	-4.061742	-0.160791	-0.016051
H31	H	-3.674197	-0.570278	-0.373831
F32	F	-3.900792	0.073014	-0.711593
H33	H	-4.138367	-0.542120	-0.390858
F34	F	-3.823171	-0.796201	-0.373866
F35	F	-3.920536	-0.392341	-0.642832
F36	F	-4.022542	-0.627136	-0.814522
F37	F	-4.022611	0.075071	-0.985649
H38	H	-4.132090	-0.596647	-1.067776
F39	F	-4.375040	-0.738582	-0.394670
H40	H	-4.149581	-0.388477	-1.157750
