data_functionalizedCrystal
_audit_creation_method	'MofGen! by Chris Wilmer'
_symmetry_space_group_name_H-M	'P1'
_symmetry_Int_Tables_number	1
_symmetry_cell_setting	triclinic
loop_
_symmetry_equiv_pos_as_xyz
  x,y,z
_cell_length_a	14.044209
_cell_length_b	10.868271
_cell_length_c	11.792241
_cell_angle_alpha	90.001559
_cell_angle_beta	91.309316
_cell_angle_gamma	90.000974
loop_
_atom_site_label
_atom_site_type_symbol
_atom_site_fract_x
_atom_site_fract_y
_atom_site_fract_z
O1	O	-1.259115	0.102175	0.273752
O2	O	-0.983095	0.102210	0.263876
O3	O	-1.127803	0.102183	0.104272
O4	O	-1.114407	0.102202	0.433356
O5	O	-1.127790	-0.102462	0.104277
O6	O	-0.983082	-0.102435	0.263880
O7	O	-1.259102	-0.102470	0.273757
Zn8	Zn	-1.121090	-0.134944	0.268819
Zn9	Zn	-1.121107	0.134684	0.268813
O10	O	-1.114394	-0.102443	0.433360
C11	C	-0.947752	-0.000108	0.259554
C12	C	-0.842459	-0.000095	0.246656
N13	N	-1.121085	-0.318958	0.268823
C14	C	-1.121092	-0.430296	0.268824
C15	C	-1.121105	-0.569974	0.268815
C16	C	-0.649677	-0.000118	0.223076
C17	C	-0.592514	-0.000117	0.314561
C18	C	-0.485243	-0.000130	0.301441
C19	C	-0.756958	-0.000105	0.236194
C20	C	-0.294445	-0.000146	0.278081
C21	C	-0.399736	-0.000140	0.290986
C22	C	-1.126955	-0.000139	0.061905
C23	C	-1.124436	-0.000138	-0.064346
N24	N	-1.121120	0.318698	0.268801
C25	C	-1.119805	-0.000116	-0.295493
C26	C	-1.122378	-0.000128	-0.166866
C27	C	-1.115242	-0.000119	0.475728
C28	C	-1.117760	-0.000112	0.601978
H29	H	-0.624138	-0.000107	0.402738
H30	H	-0.618054	-0.000129	0.134906
