data_functionalizedCrystal
_audit_creation_method	'MofGen! by Chris Wilmer'
_symmetry_space_group_name_H-M	'P1'
_symmetry_Int_Tables_number	1
_symmetry_cell_setting	triclinic
loop_
_symmetry_equiv_pos_as_xyz
  x,y,z
_cell_length_a	12.837943
_cell_length_b	12.837942
_cell_length_c	9.198806
_cell_angle_alpha	89.997396
_cell_angle_beta	89.997100
_cell_angle_gamma	94.828940
loop_
_atom_site_label
_atom_site_type_symbol
_atom_site_fract_x
_atom_site_fract_y
_atom_site_fract_z
O1	O	1.402335	0.272138	-0.120865
O2	O	1.099201	0.258695	-0.120874
O3	O	1.244047	0.113850	-0.120861
O4	O	1.257490	0.416983	-0.120878
O5	O	1.244034	0.113848	0.120924
O6	O	1.099189	0.258693	0.120911
O7	O	1.402322	0.272136	0.120920
Cu8	Cu	1.250754	0.265415	0.142992
Cu9	Cu	1.250769	0.265417	-0.142946
O10	O	1.257477	0.416982	0.120907
C11	C	1.060126	0.254153	0.000018
C12	C	0.943711	0.240608	0.000015
C13	C	0.718837	0.403437	0.000026
C14	C	0.609454	0.390716	0.000024
C15	C	0.615562	0.202445	0.000020
C16	C	0.724944	0.215166	0.000021
C17	C	0.776578	0.315666	0.000022
C18	C	0.885962	0.328386	0.000014
C19	C	0.892067	0.140116	0.000020
C20	C	0.782685	0.127395	0.000018
C21	C	1.239499	0.074780	0.000031
C22	C	1.225954	-0.041635	0.000028
C23	C	1.388784	-0.266510	0.000002
C24	C	1.376062	-0.375892	-0.000000
C25	C	1.187791	-0.369785	0.000009
C26	C	1.200513	-0.260402	0.000012
C27	C	1.301012	-0.208769	0.000011
C28	C	1.313732	-0.099384	0.000024
C29	C	1.125462	-0.093279	0.000023
C30	C	1.112741	-0.202661	0.000021
C31	C	1.441398	0.276679	0.000025
C32	C	1.557813	0.290223	0.000019
C33	C	1.262025	0.456052	0.000012
C34	C	1.275569	0.572467	0.000005
N35	N	1.250751	0.265413	0.344106
N36	N	1.250780	0.265410	-0.344060
C37	C	1.311541	0.204302	0.416309
C38	C	1.311557	0.204300	0.583721
H39	H	0.562446	0.462189	0.000031
H40	H	0.928000	0.410218	0.000017
H41	H	0.760878	0.485268	0.000025
H42	H	1.363606	0.151984	0.645812
H43	H	1.198714	0.317727	0.406230
H44	H	1.447536	-0.422901	-0.000012
H45	H	0.573502	0.120623	0.000139
H46	H	1.470614	-0.224469	0.000016
H47	H	0.740630	0.045571	0.000034
H48	H	0.939092	0.068646	0.000007
H49	H	1.395564	-0.057346	0.000028
H50	H	1.105969	-0.411844	-0.000005
H51	H	1.030917	-0.244717	0.000016
H52	H	1.363570	0.151979	0.354187
H53	H	1.198737	0.317737	0.593858
H54	H	1.053992	-0.046254	0.000042
