data_functionalizedCrystal
_audit_creation_method	'MofGen! by Chris Wilmer'
_symmetry_space_group_name_H-M	'P1'
_symmetry_Int_Tables_number	1
_symmetry_cell_setting	triclinic
loop_
_symmetry_equiv_pos_as_xyz
  x,y,z
_cell_length_a	21.295420
_cell_length_b	21.295417
_cell_length_c	19.120904
_cell_angle_alpha	92.408338
_cell_angle_beta	92.422698
_cell_angle_gamma	90.028757
loop_
_atom_site_label
_atom_site_type_symbol
_atom_site_fract_x
_atom_site_fract_y
_atom_site_fract_z
Zn1	Zn	0.947123	-0.265835	-0.397096
Zn2	Zn	1.197123	-0.015835	-0.147096
Zn3	Zn	1.447123	0.234165	0.102904
Zn4	Zn	1.697123	0.484165	0.352904
Zn5	Zn	0.951531	-0.366613	-0.279640
Zn6	Zn	1.201531	-0.116613	-0.029640
Zn7	Zn	1.451531	0.133387	0.220360
Zn8	Zn	1.701531	0.383387	0.470360
Zn9	Zn	0.846351	-0.261359	-0.279662
Zn10	Zn	1.096351	-0.011359	-0.029662
Zn11	Zn	1.346351	0.238641	0.220338
Zn12	Zn	1.596351	0.488641	0.470338
Zn13	Zn	0.841817	-0.371065	-0.397048
Zn14	Zn	1.091817	-0.121065	-0.147048
Zn15	Zn	1.341817	0.128935	0.102952
Zn16	Zn	1.591817	0.378935	0.352952
O17	O	0.896705	-0.316218	-0.338361
O18	O	1.146705	-0.066218	-0.088361
O19	O	1.396705	0.183782	0.161639
O20	O	1.646705	0.433782	0.411639
O21	O	1.035796	-0.279213	-0.381526
O22	O	1.285796	-0.029213	-0.131526
O23	O	1.535796	0.220787	0.118474
O24	O	1.785796	0.470787	0.368474
O25	O	0.941320	-0.348915	-0.181361
O26	O	1.191320	-0.098915	0.068639
O27	O	1.441320	0.151085	0.318639
O28	O	1.691320	0.401085	0.568639
O29	O	0.859771	-0.173865	-0.295269
O30	O	1.109771	0.076135	-0.045269
O31	O	1.359771	0.326135	0.204731
O32	O	1.609771	0.576135	0.454731
O33	O	1.039035	-0.353254	-0.295232
O34	O	1.289035	-0.103254	-0.045232
O35	O	1.539035	0.146746	0.204768
O36	O	1.789035	0.396746	0.454768
O37	O	0.933807	-0.177153	-0.381547
O38	O	1.183807	0.072847	-0.131547
O39	O	1.433807	0.322847	0.118453
O40	O	1.683807	0.572847	0.368453
O41	O	0.864045	-0.271585	-0.181377
O42	O	1.114045	-0.021585	0.068623
O43	O	1.364045	0.228415	0.318623
O44	O	1.614045	0.478415	0.568623
O45	O	0.757660	-0.275902	-0.295222
O46	O	1.007660	-0.025902	-0.045222
O47	O	1.257660	0.224098	0.204778
O48	O	1.507660	0.474098	0.454778
O49	O	0.852044	-0.360842	-0.495336
O50	O	1.102044	-0.110842	-0.245336
O51	O	1.352044	0.139158	0.004664
O52	O	1.602044	0.389158	0.254664
O53	O	0.754329	-0.356503	-0.381465
O54	O	1.004329	-0.106503	-0.131465
O55	O	1.254329	0.143497	0.118535
O56	O	1.504329	0.393497	0.368535
O57	O	0.929411	-0.283530	-0.495372
O58	O	1.179411	-0.033530	-0.245372
O59	O	1.429411	0.216470	0.004628
O60	O	1.679411	0.466470	0.254628
O61	O	0.936924	-0.455292	-0.295185
O62	O	1.186924	-0.205292	-0.045185
O63	O	1.436924	0.044708	0.204815
O64	O	1.686924	0.294708	0.454815
O65	O	0.856318	-0.458563	-0.381444
O66	O	1.106318	-0.208563	-0.131444
O67	O	1.356318	0.041437	0.118556
O68	O	1.606318	0.291437	0.368556
C69	C	0.733154	-0.316200	-0.338341
C70	C	0.983154	-0.066200	-0.088341
C71	C	1.233154	0.183800	0.161659
C72	C	1.483154	0.433800	0.411659
C73	C	0.663186	-0.316208	-0.338349
C74	C	0.913186	-0.066208	-0.088349
C75	C	1.163186	0.183792	0.161651
C76	C	1.413186	0.433792	0.411651
C77	C	0.162011	-0.358259	-0.383224
C78	C	0.412011	-0.108259	-0.133224
C79	C	0.662011	0.141741	0.116776
C80	C	0.912011	0.391741	0.366776
C81	C	0.227754	-0.358259	-0.383217
C82	C	0.477754	-0.108259	-0.133217
C83	C	0.727754	0.141741	0.116783
C84	C	0.977754	0.391741	0.366783
C85	C	0.262345	-0.316233	-0.338383
C86	C	0.512345	-0.066233	-0.088383
C87	C	0.762345	0.183767	0.161617
C88	C	1.012345	0.433767	0.411617
C89	C	0.231189	-0.274215	-0.293541
C90	C	0.481189	-0.024215	-0.043541
C91	C	0.731189	0.225785	0.206459
C92	C	0.981189	0.475785	0.456459
C93	C	0.165447	-0.274221	-0.293545
C94	C	0.415447	-0.024221	-0.043545
C95	C	0.665447	0.225779	0.206455
C96	C	0.915447	0.475779	0.456455
N97	N	0.365788	-0.260915	-0.333103
N98	N	0.615788	-0.010915	-0.083103
N99	N	0.865788	0.239085	0.166897
N100	N	1.115788	0.489085	0.416897
N101	N	0.428240	-0.260911	-0.333104
N102	N	0.678240	-0.010911	-0.083104
N103	N	0.928240	0.239089	0.166896
N104	N	1.178240	0.489089	0.416896
C105	C	0.460420	-0.316215	-0.338368
C106	C	0.710420	-0.066215	-0.088368
C107	C	0.960420	0.183785	0.161632
C108	C	1.210420	0.433785	0.411632
N109	N	0.427790	-0.371524	-0.343646
N110	N	0.677790	-0.121524	-0.093646
N111	N	0.927790	0.128476	0.156354
N112	N	1.177790	0.378476	0.406354
N113	N	0.365333	-0.371526	-0.343649
N114	N	0.615333	-0.121526	-0.093649
N115	N	0.865333	0.128474	0.156351
N116	N	1.115333	0.378474	0.406351
C117	C	0.333631	-0.316223	-0.338374
C118	C	0.583631	-0.066223	-0.088374
C119	C	0.833631	0.183777	0.161626
C120	C	1.083631	0.433777	0.411626
C121	C	0.562855	-0.358233	-0.383197
C122	C	0.812855	-0.108233	-0.133197
C123	C	1.062855	0.141767	0.116803
C124	C	1.312855	0.391767	0.366803
C125	C	0.628599	-0.358234	-0.383184
C126	C	0.878599	-0.108234	-0.133184
C127	C	1.128599	0.141766	0.116816
C128	C	1.378599	0.391766	0.366816
C129	C	0.632033	-0.274185	-0.293512
C130	C	0.882033	-0.024185	-0.043512
C131	C	1.132033	0.225815	0.206488
C132	C	1.382033	0.475815	0.456488
C133	C	0.566290	-0.274189	-0.293520
C134	C	0.816290	-0.024189	-0.043520
C135	C	1.066290	0.225811	0.206480
C136	C	1.316290	0.475811	0.456480
C137	C	0.531705	-0.316213	-0.338367
C138	C	0.781705	-0.066213	-0.088367
C139	C	1.031705	0.183787	0.161633
C140	C	1.281705	0.433787	0.411633
C141	C	0.896624	-0.479768	-0.338322
C142	C	1.146624	-0.229768	-0.088322
C143	C	1.396624	0.020232	0.161678
C144	C	1.646624	0.270232	0.411678
C145	C	0.896646	-0.549737	-0.338329
C146	C	1.146646	-0.299737	-0.088329
C147	C	1.396646	-0.049737	0.161671
C148	C	1.646646	0.200263	0.411671
C149	C	0.938652	-0.580881	-0.293460
C150	C	1.188652	-0.330881	-0.043460
C151	C	1.438652	-0.080881	0.206540
C152	C	1.688652	0.169119	0.456540
C153	C	0.938681	-0.646624	-0.293476
C154	C	1.188681	-0.396624	-0.043476
C155	C	1.438681	-0.146624	0.206524
C156	C	1.688681	0.103376	0.456524
C157	C	0.896693	-0.681220	-0.338354
C158	C	1.146693	-0.431220	-0.088354
C159	C	1.396693	-0.181220	0.161646
C160	C	1.646693	0.068780	0.411646
C161	C	0.854684	-0.650068	-0.383231
C162	C	1.104684	-0.400068	-0.133231
C163	C	1.354684	-0.150068	0.116769
C164	C	1.604684	0.099932	0.366769
C165	C	0.854661	-0.584326	-0.383219
C166	C	1.104661	-0.334326	-0.133219
C167	C	1.354661	-0.084326	0.116781
C168	C	1.604661	0.165674	0.366781
N169	N	0.841421	-0.784689	-0.343701
N170	N	1.091421	-0.534689	-0.093701
N171	N	1.341421	-0.284689	0.156299
N172	N	1.591421	-0.034689	0.406299
N173	N	0.841445	-0.847140	-0.343708
N174	N	1.091445	-0.597140	-0.093708
N175	N	1.341445	-0.347140	0.156292
N176	N	1.591445	-0.097140	0.406292
C177	C	0.896762	-0.879296	-0.338394
C178	C	1.146762	-0.629296	-0.088394
C179	C	1.396762	-0.379296	0.161606
C180	C	1.646762	-0.129296	0.411606
N181	N	0.952056	-0.846641	-0.333058
N182	N	1.202056	-0.596641	-0.083058
N183	N	1.452056	-0.346641	0.166942
N184	N	1.702056	-0.096641	0.416942
N185	N	0.952031	-0.784183	-0.333047
N186	N	1.202031	-0.534183	-0.083047
N187	N	1.452031	-0.284183	0.166953
N188	N	1.702031	-0.034183	0.416953
C189	C	0.896714	-0.752506	-0.338372
C190	C	1.146714	-0.502506	-0.088372
C191	C	1.396714	-0.252506	0.161628
C192	C	1.646714	-0.002506	0.411628
C193	C	0.938802	-0.981727	-0.293540
C194	C	1.188802	-0.731727	-0.043540
C195	C	1.438802	-0.481727	0.206460
C196	C	1.688802	-0.231727	0.456460
C197	C	0.938832	-1.047471	-0.293560
C198	C	1.188832	-0.797471	-0.043560
C199	C	1.438832	-0.547471	0.206440
C200	C	1.688832	-0.297471	0.456440
C201	C	0.854830	-1.050914	-0.383312
C202	C	1.104830	-0.800914	-0.133312
C203	C	1.354830	-0.550914	0.116688
C204	C	1.604830	-0.300914	0.366688
C205	C	0.854806	-0.985171	-0.383295
C206	C	1.104806	-0.735171	-0.133295
C207	C	1.354806	-0.485171	0.116705
C208	C	1.604806	-0.235171	0.366705
C209	C	0.896791	-0.950581	-0.338405
C210	C	1.146791	-0.700581	-0.088405
C211	C	1.396791	-0.450581	0.161595
C212	C	1.646791	-0.200581	0.411595
C213	C	1.060895	-0.316236	-0.338382
C214	C	1.310895	-0.066236	-0.088382
C215	C	1.560895	0.183764	0.161618
C216	C	1.810895	0.433764	0.411618
C217	C	1.130862	-0.316244	-0.338391
C218	C	1.380862	-0.066244	-0.088391
C219	C	1.630862	0.183756	0.161609
C220	C	1.880862	0.433756	0.411609
C221	C	0.889730	-0.323182	-0.521550
C222	C	1.139730	-0.073182	-0.271550
C223	C	1.389730	0.176818	-0.021550
C224	C	1.639730	0.426818	0.228450
C225	C	0.886758	-0.326150	-0.599614
C226	C	1.136758	-0.076150	-0.349614
C227	C	1.386758	0.173850	-0.099614
C228	C	1.636758	0.423850	0.150386
C229	C	0.896803	-0.152030	-0.338416
C230	C	1.146803	0.097970	-0.088416
C231	C	1.396803	0.347970	0.161584
C232	C	1.646803	0.597970	0.411584
C233	C	0.896845	-0.082063	-0.338439
C234	C	1.146845	0.167937	-0.088439
C235	C	1.396845	0.417937	0.161561
C236	C	1.646845	0.667937	0.411561
C237	C	0.925641	-0.287293	-0.636308
C238	C	1.175641	-0.037293	-0.386308
C239	C	1.425641	0.212707	-0.136308
C240	C	1.675641	0.462707	0.113692
C241	C	0.922840	-0.290080	-0.709658
C242	C	1.172840	-0.040080	-0.459658
C243	C	1.422840	0.209920	-0.209658
C244	C	1.672840	0.459920	0.040342
C245	C	0.881160	-0.331725	-0.746311
C246	C	1.131160	-0.081725	-0.496311
C247	C	1.381160	0.168275	-0.246311
C248	C	1.631160	0.418275	0.003689
C249	C	0.842273	-0.370583	-0.709612
C250	C	1.092273	-0.120583	-0.459612
C251	C	1.342273	0.129417	-0.209612
C252	C	1.592273	0.379417	0.040388
C253	C	0.845071	-0.367794	-0.636264
C254	C	1.095071	-0.117794	-0.386264
C255	C	1.345071	0.132206	-0.136264
C256	C	1.595071	0.382206	0.113736
C257	C	0.870694	-0.342159	-0.967774
C258	C	1.120694	-0.092159	-0.717774
C259	C	1.370694	0.157841	-0.467774
C260	C	1.620694	0.407841	-0.217774
C261	C	0.867901	-0.344947	-1.041128
C262	C	1.117901	-0.094947	-0.791128
C263	C	1.367901	0.155053	-0.541128
C264	C	1.617901	0.405053	-0.291128
C265	C	0.948468	-0.264442	-1.041168
C266	C	1.198468	-0.014442	-0.791168
C267	C	1.448468	0.235558	-0.541168
C268	C	1.698468	0.485558	-0.291168
C269	C	0.951264	-0.261659	-0.967818
C270	C	1.201264	-0.011659	-0.717818
C271	C	1.451264	0.238341	-0.467818
C272	C	1.701264	0.488341	-0.217818
C273	C	0.912375	-0.300514	-0.931126
C274	C	1.162375	-0.050514	-0.681126
C275	C	1.412375	0.199486	-0.431126
C276	C	1.662375	0.449486	-0.181126
C277	C	0.878298	-0.334576	-0.821286
C278	C	1.128298	-0.084576	-0.571286
C279	C	1.378298	0.165424	-0.321286
C280	C	1.628298	0.415424	-0.071286
C281	C	0.915235	-0.297661	-0.856152
C282	C	1.165235	-0.047661	-0.606152
C283	C	1.415235	0.202339	-0.356152
C284	C	1.665235	0.452339	-0.106152
C285	C	0.903689	-0.309236	-0.155885
C286	C	1.153689	-0.059236	0.094115
C287	C	1.403689	0.190764	0.344115
C288	C	1.653689	0.440764	0.594115
C289	C	0.906784	-0.306091	-0.077822
C290	C	1.156784	-0.056091	0.172178
C291	C	1.406784	0.193909	0.422178
C292	C	1.656784	0.443909	0.672178
H293	H	0.259357	-0.239998	-0.257036
H294	H	0.509357	0.010002	-0.007036
H295	H	0.759357	0.260002	0.242964
H296	H	1.009357	0.510002	0.492964
H297	H	0.820646	-1.079081	-0.419855
H298	H	1.070646	-0.829081	-0.169855
H299	H	1.320646	-0.579081	0.080145
H300	H	1.570646	-0.329081	0.330145
H301	H	0.534695	-0.392452	-0.419712
H302	H	0.784695	-0.142452	-0.169712
H303	H	1.034695	0.107548	0.080288
H304	H	1.284695	0.357548	0.330288
H305	H	0.972991	-0.953563	-0.256990
H306	H	1.222991	-0.703563	-0.006990
H307	H	1.472991	-0.453563	0.243010
H308	H	1.722991	-0.203563	0.493010
Br309	Br	0.995851	-1.089740	-0.232668
Br310	Br	1.245851	-0.839740	0.017332
Br311	Br	1.495851	-0.589740	0.267332
Br312	Br	1.745851	-0.339740	0.517332
H313	H	0.972840	-0.552720	-0.256910
H314	H	1.222840	-0.302720	-0.006910
H315	H	1.472840	-0.052720	0.243090
H316	H	1.722840	0.197280	0.493090
Br317	Br	1.007835	-0.205139	-0.918079
Br318	Br	1.257835	0.044861	-0.668079
Br319	Br	1.507835	0.294861	-0.418079
Br320	Br	1.757835	0.544861	-0.168079
H321	H	0.839037	-0.373807	-0.937908
H322	H	1.089037	-0.123807	-0.687908
H323	H	1.339037	0.126193	-0.437908
H324	H	1.589037	0.376193	-0.187908
H325	H	0.980128	-0.232807	-1.071051
H326	H	1.230128	0.017193	-0.821051
H327	H	1.480128	0.267193	-0.571051
H328	H	1.730128	0.517193	-0.321051
Br329	Br	0.524013	-0.217162	-0.232676
Br330	Br	0.774013	0.032838	0.017324
Br331	Br	1.024013	0.282838	0.267324
Br332	Br	1.274013	0.532838	0.517324
Br333	Br	0.811329	-0.401468	-1.090872
Br334	Br	1.061329	-0.151468	-0.840872
Br335	Br	1.311329	0.098532	-0.590872
Br336	Br	1.561329	0.348532	-0.340872
H337	H	0.660196	-0.239968	-0.257005
H338	H	0.910196	0.010032	-0.007005
H339	H	1.160196	0.260032	0.242995
H340	H	1.410196	0.510032	0.492995
Br341	Br	0.797705	-0.697018	-0.444142
Br342	Br	1.047705	-0.447018	-0.194142
Br343	Br	1.297705	-0.197018	0.055858
Br344	Br	1.547705	0.052982	0.305858
H345	H	0.808333	-0.404490	-0.739462
H346	H	1.058333	-0.154490	-0.489462
H347	H	1.308333	0.095510	-0.239462
H348	H	1.558333	0.345510	0.010538
H349	H	0.140086	-0.240005	-0.257035
H350	H	0.390086	0.009995	-0.007035
H351	H	0.640086	0.259995	0.242965
H352	H	0.890086	0.509995	0.492965
H353	H	0.820599	-0.959811	-0.419828
H354	H	1.070599	-0.709811	-0.169828
H355	H	1.320599	-0.459811	0.080172
H356	H	1.570599	-0.209811	0.330172
H357	H	0.820454	-0.558968	-0.419758
H358	H	1.070454	-0.308968	-0.169758
H359	H	1.320454	-0.058968	0.080242
H360	H	1.570454	0.191032	0.330242
Br361	Br	0.982215	-0.230776	-0.586571
Br362	Br	1.232215	0.019224	-0.336571
Br363	Br	1.482215	0.269224	-0.086571
Br364	Br	1.732215	0.519224	0.163429
Br365	Br	0.975641	-0.237373	-0.759454
Br366	Br	1.225641	0.012627	-0.509454
Br367	Br	1.475641	0.262627	-0.259454
Br368	Br	1.725641	0.512627	-0.009454
Br369	Br	0.792295	-0.420525	-0.586464
Br370	Br	1.042295	-0.170525	-0.336464
Br371	Br	1.292295	0.079475	-0.086464
Br372	Br	1.542295	0.329475	0.163536
Br373	Br	0.821734	-0.391095	-0.871037
Br374	Br	1.071734	-0.141095	-0.621037
Br375	Br	1.321734	0.108905	-0.371037
Br376	Br	1.571734	0.358905	-0.121037
H377	H	0.133856	-0.392480	-0.419739
H378	H	0.383856	-0.142480	-0.169739
H379	H	0.633856	0.107520	0.080261
H380	H	0.883856	0.357520	0.330261
H381	H	0.949168	-0.263750	-0.826305
H382	H	1.199168	-0.013750	-0.576305
H383	H	1.449168	0.236250	-0.326305
H384	H	1.699168	0.486250	-0.076305
H385	H	0.653960	-0.392452	-0.419691
H386	H	0.903960	-0.142452	-0.169691
H387	H	1.153960	0.107548	0.080309
H388	H	1.403960	0.357548	0.330309
H389	H	0.253120	-0.392473	-0.419728
H390	H	0.503120	-0.142473	-0.169728
H391	H	0.753120	0.107527	0.080272
H392	H	1.003120	0.357527	0.330272
H393	H	0.972889	-0.671987	-0.256939
H394	H	1.222889	-0.421987	-0.006939
H395	H	1.472889	-0.171987	0.243061
H396	H	1.722889	0.078013	0.493061
