data_functionalizedCrystal
_audit_creation_method	'MofGen! by Chris Wilmer'
_symmetry_space_group_name_H-M	'P1'
_symmetry_Int_Tables_number	1
_symmetry_cell_setting	triclinic
loop_
_symmetry_equiv_pos_as_xyz
  x,y,z
_cell_length_a	19.188930
_cell_length_b	13.339070
_cell_length_c	11.804365
_cell_angle_alpha	74.887832
_cell_angle_beta	78.179079
_cell_angle_gamma	80.612963
loop_
_atom_site_label
_atom_site_type_symbol
_atom_site_fract_x
_atom_site_fract_y
_atom_site_fract_z
O1	O	0.961036	-0.105636	-0.099421
O2	O	0.761044	-0.122640	-0.099340
O3	O	0.838087	0.033021	-0.099367
O4	O	0.883993	-0.261298	-0.099393
O5	O	0.817796	-0.007917	0.098696
O6	O	0.740753	-0.163579	0.098723
O7	O	0.940746	-0.146575	0.098643
Cu8	Cu	0.838897	-0.158815	0.116768
Cu9	Cu	0.862893	-0.110400	-0.117465
O10	O	0.863703	-0.302236	0.098670
C11	C	0.724778	-0.142561	-0.000298
C12	C	0.646947	-0.140917	-0.000266
C13	C	0.820187	0.050206	-0.000334
C14	C	0.797074	0.162405	-0.000330
C15	C	0.881602	-0.319421	-0.000366
C16	C	0.904716	-0.431618	-0.000378
C17	C	0.619912	-0.232245	-0.000293
C18	C	0.546786	-0.230691	-0.000306
C19	C	0.500699	-0.137798	-0.000316
C20	C	0.527742	-0.046460	-0.000283
C21	C	0.600865	-0.048019	-0.000258
N22	N	0.385725	-0.052854	-0.067767
N23	N	0.316261	-0.051378	-0.067794
C24	C	0.280380	-0.133096	-0.000389
N25	N	0.316591	-0.216357	0.067029
N26	N	0.386062	-0.217834	0.067050
C27	C	0.421408	-0.136098	-0.000342
C28	C	0.174054	-0.222745	-0.000428
C29	C	0.100925	-0.221189	-0.000433
C30	C	0.081883	-0.036953	-0.000422
C31	C	0.155009	-0.038514	-0.000404
C32	C	0.201091	-0.131412	-0.000413
C33	C	0.977011	-0.126653	-0.000402
C34	C	1.054843	-0.128296	-0.000441
N35	N	0.822024	-0.192866	0.281514
C36	C	0.976795	0.528008	-0.000402
C37	C	0.998512	0.422591	-0.000399
C38	C	0.948155	0.357539	-0.000382
C39	C	0.876076	0.397915	-0.000367
C40	C	0.854355	0.503341	-0.000360
C41	C	0.825715	0.332872	-0.000341
C42	C	0.753636	0.373248	-0.000325
C43	C	0.731919	0.478663	-0.000319
C44	C	0.782276	0.543715	-0.000336
C45	C	0.847436	0.227447	-0.000348
C46	C	0.724996	0.202779	-0.000306
C47	C	0.703278	0.308196	-0.000308
N48	N	0.879769	-0.076341	-0.282212
C49	C	0.920282	0.005449	0.655428
C50	C	0.933045	0.031213	0.530762
C51	C	0.905290	-0.024804	0.468444
C52	C	0.864772	-0.106591	0.530804
C53	C	0.852013	-0.132363	0.655483
C54	C	0.837021	-0.162616	0.468498
C55	C	0.796503	-0.244403	0.530859
C56	C	0.783746	-0.270170	0.655525
C57	C	0.811500	-0.214153	0.717843
C58	C	0.849780	-0.136844	0.343820
C59	C	0.781511	-0.274656	0.343875
C60	C	0.768749	-0.300420	0.468541
H61	H	0.524769	-0.305064	-0.000324
O62	O	0.754636	-0.329228	0.283408
C63	C	0.782228	-0.435543	0.313871
H64	H	0.834679	-0.442914	0.348102
H65	H	0.792418	-0.469350	0.231880
H66	H	0.741900	-0.480333	0.386262
O67	O	0.889021	-0.057249	0.283346
C68	C	0.855161	0.036424	0.313920
H69	H	0.795697	0.029591	0.348203
H70	H	0.861747	0.104166	0.231972
H71	H	0.880658	0.051264	0.386304
H72	H	0.644590	0.341085	-0.000295
O73	O	0.761075	0.646070	-0.000184
C74	C	0.709741	0.653336	0.102421
H75	H	0.683007	0.578314	0.136642
H76	H	0.667478	0.722563	0.079357
H77	H	0.737226	0.665005	0.174232
O78	O	0.627231	0.040670	-0.000400
C79	C	0.679478	0.066496	-0.102984
H80	H	0.702209	-0.006646	-0.137186
H81	H	0.724502	0.099617	-0.079901
H82	H	0.653972	0.127401	-0.174817
O83	O	0.675975	0.139733	-0.000241
C84	C	0.607702	0.197977	-0.000245
H85	H	0.606322	0.268991	0.037253
H86	H	0.565270	0.147004	0.057270
H87	H	0.596304	0.225034	-0.095259
O88	O	0.181263	0.050277	-0.000604
C89	C	0.168120	0.127905	-0.103171
H90	H	0.160953	0.089254	-0.174877
H91	H	0.215426	0.175781	-0.137585
H92	H	0.117356	0.181452	-0.079990
H93	H	1.017787	0.580979	-0.000406
H94	H	0.657428	-0.307889	-0.000302
O95	O	0.947191	0.060023	0.715837
C96	C	0.919568	0.166328	0.685426
H97	H	0.901968	0.184822	0.594920
H98	H	0.962805	0.217182	0.681148
H99	H	0.871597	0.182942	0.755618
H100	H	0.490215	0.029177	-0.000307
O101	O	0.218717	-0.313083	-0.000371
C102	C	0.179172	-0.393358	-0.000414
H103	H	0.120404	-0.372993	0.037072
H104	H	0.201055	-0.470117	0.057091
H105	H	0.184078	-0.401878	-0.095438
H106	H	1.057199	0.389724	-0.000410
O107	O	0.917723	0.000391	0.347344
C108	C	0.959450	0.084572	0.305665
H109	H	0.952611	0.129973	0.377513
H110	H	0.941197	0.138570	0.222281
H111	H	1.018284	0.053247	0.283498
O112	O	0.799007	-0.239286	0.838948
C113	C	0.757314	-0.323506	0.880631
H114	H	0.726521	-0.326446	0.808810
H115	H	0.717839	-0.312360	0.964053
H116	H	0.793866	-0.399813	0.902735
H117	H	0.078915	-0.295564	-0.000448
H118	H	0.750760	-0.336773	0.706299
H119	H	0.044368	0.038697	-0.000504
O120	O	0.729325	-0.379758	0.529258
C121	C	0.668409	-0.340680	0.601387
H122	H	0.678970	-0.265343	0.620044
H123	H	0.656572	-0.401024	0.689064
H124	H	0.620427	-0.324076	0.553382
H125	H	0.906123	0.194583	-0.000360
H126	H	0.965842	0.271705	-0.000380
H127	H	0.673226	0.511531	-0.000298
H128	H	0.966035	0.097802	0.479992
