data_functionalizedCrystal
_audit_creation_method	'MofGen! by Chris Wilmer'
_symmetry_space_group_name_H-M	'P1'
_symmetry_Int_Tables_number	1
_symmetry_cell_setting	triclinic
loop_
_symmetry_equiv_pos_as_xyz
  x,y,z
_cell_length_a	11.792241
_cell_length_b	14.853567
_cell_length_c	13.930277
_cell_angle_alpha	90.004245
_cell_angle_beta	89.995317
_cell_angle_gamma	96.085827
loop_
_atom_site_label
_atom_site_type_symbol
_atom_site_fract_x
_atom_site_fract_y
_atom_site_fract_z
O1	O	0.148181	-1.196945	-0.079765
O2	O	0.165833	-0.934554	-0.079782
O3	O	-0.008203	-1.072117	-0.079766
O4	O	0.322217	-1.059382	-0.079780
O5	O	-0.008206	-1.072098	0.079896
O6	O	0.165829	-0.934535	0.079880
O7	O	0.148177	-1.196926	0.079897
Zn8	Zn	0.157003	-1.065728	0.105238
Zn9	Zn	0.157008	-1.065753	-0.105123
O10	O	0.322213	-1.059363	0.079881
C11	C	-0.050491	-1.071308	0.000064
C12	C	-0.176489	-1.068913	0.000063
C13	C	0.165032	-0.900953	0.000047
C14	C	0.162635	-0.800860	0.000041
C15	C	0.148979	-1.230527	0.000066
C16	C	0.151376	-1.330621	0.000066
C17	C	-0.407174	-1.064511	0.000047
C18	C	-0.278804	-1.066957	0.000056
C19	C	0.364501	-1.060173	0.000049
C20	C	0.490500	-1.062567	0.000044
N21	N	0.156999	-1.065717	0.248804
C22	C	0.049122	-0.387884	0.000068
C23	C	0.255880	-0.367408	0.000058
C24	C	0.258134	-0.461451	0.000055
C25	C	0.155880	-0.518715	0.000056
C26	C	0.051372	-0.481936	0.000062
C27	C	0.362640	-0.498237	0.000040
C28	C	0.364898	-0.592285	0.000035
C29	C	0.262642	-0.649550	0.000044
C30	C	0.158131	-0.612766	0.000050
C31	C	0.055877	-0.670030	0.000052
C32	C	-0.048637	-0.633248	0.000065
C33	C	-0.050883	-0.539201	0.000070
C34	C	0.264889	-0.743596	0.000039
C35	C	0.058127	-0.764081	0.000046
N36	N	0.157003	-1.065771	-0.248689
C37	C	0.234041	-1.004838	0.701067
C38	C	0.079966	-1.126693	0.701050
C39	C	0.079963	-1.126682	0.600554
C40	C	0.157000	-1.065749	0.550310
C41	C	0.234042	-1.004827	0.600562
C42	C	0.002930	-1.187610	0.550295
C43	C	0.002925	-1.187602	0.449793
C44	C	0.079958	-1.126664	0.399547
C45	C	0.157001	-1.065738	0.449805
C46	C	0.234039	-1.004805	0.399561
C47	C	0.311078	-0.943875	0.449817
C48	C	0.311075	-0.943889	0.550316
C49	C	0.079961	-1.126650	0.299048
C50	C	0.234040	-1.004794	0.299056
H51	H	-0.131891	-0.679884	0.000060
O52	O	0.355309	-0.311916	0.000009
C53	C	0.560626	-0.301524	0.000055
C54	C	0.448103	-0.364477	0.000088
H55	H	0.635679	-0.343994	0.000140
H56	H	0.564820	-0.257005	-0.066780
H57	H	0.564676	-0.256958	0.066857
H58	H	0.443978	-0.409100	-0.066668
H59	H	0.443957	-0.408935	0.066967
H60	H	0.445889	-0.451606	0.000028
H61	H	0.296770	-0.955172	0.258153
O62	O	0.466392	-0.628047	-0.000151
C63	C	0.588906	-0.722372	-0.082866
C64	C	0.473935	-0.681917	-0.082782
H65	H	0.595032	-0.765950	-0.149656
H66	H	0.661640	-0.665318	-0.082935
H67	H	0.595130	-0.765850	-0.016022
H68	H	0.467600	-0.638449	-0.149614
H69	H	0.401257	-0.739014	-0.082663
H70	H	-0.035970	-0.357932	0.000082
H71	H	-0.135972	-0.509244	0.000104
H72	H	0.349982	-0.773540	0.000030
O73	O	0.386069	-0.884777	0.401049
C74	C	0.583299	-0.832870	0.370327
C75	C	0.498501	-0.899859	0.425604
H76	H	0.674218	-0.845027	0.390174
H77	H	0.570163	-0.843336	0.289855
H78	H	0.568281	-0.760600	0.390079
H79	H	0.513467	-0.972154	0.405932
H80	H	0.511656	-0.889313	0.506062
H81	H	-0.059805	-1.237214	0.408881
O82	O	0.385753	-0.884673	0.599243
C83	C	0.409626	-0.761662	0.712705
C84	C	0.324929	-0.828680	0.657367
H85	H	0.360483	-0.716361	0.759696
H86	H	0.466396	-0.800822	0.759806
H87	H	0.464713	-0.718145	0.659521
H88	H	0.269767	-0.872213	0.710482
H89	H	0.268237	-0.789465	0.610251
O90	O	0.004977	-1.185834	0.749753
C91	C	-0.192262	-1.237640	0.780569
C92	C	-0.107452	-1.170630	0.725328
H93	H	-0.283179	-1.225359	0.760857
H94	H	-0.177418	-1.309940	0.760782
H95	H	-0.178964	-1.227189	0.861024
H96	H	-0.120699	-1.180999	0.644860
H97	H	-0.122318	-1.098355	0.745194
H98	H	0.296762	-0.955226	0.741988
O99	O	-0.072061	-1.246745	0.599002
C100	C	-0.269301	-1.298545	0.629819
C101	C	-0.184489	-1.231544	0.574570
H102	H	-0.360217	-1.286266	0.610101
H103	H	-0.254457	-1.370848	0.610047
H104	H	-0.256007	-1.288081	0.710273
H105	H	-0.197732	-1.241926	0.494104
H106	H	-0.199354	-1.159266	0.594422
H107	H	0.017242	-1.176263	0.258135
H108	H	-0.025142	-0.810700	0.000052
