data_functionalizedCrystal
_audit_creation_method	'MofGen! by Chris Wilmer'
_symmetry_space_group_name_H-M	'P1'
_symmetry_Int_Tables_number	1
_symmetry_cell_setting	triclinic
loop_
_symmetry_equiv_pos_as_xyz
  x,y,z
_cell_length_a	15.538191
_cell_length_b	16.776229
_cell_length_c	17.699092
_cell_angle_alpha	90.004970
_cell_angle_beta	65.279231
_cell_angle_gamma	90.009041
loop_
_atom_site_label
_atom_site_type_symbol
_atom_site_fract_x
_atom_site_fract_y
_atom_site_fract_z
O1	O	1.250469	0.066304	-0.245969
O2	O	1.750469	0.566304	0.254031
O3	O	0.976013	0.066301	-0.158524
O4	O	1.476013	0.566301	0.341476
O5	O	1.120991	0.066301	-0.314553
O6	O	1.620991	0.566301	0.185447
O7	O	1.105491	0.066305	-0.089940
O8	O	1.605491	0.566305	0.410060
O9	O	1.120972	-0.066275	-0.314555
O10	O	1.620972	0.433725	0.185445
O11	O	0.975994	-0.066275	-0.158526
O12	O	1.475994	0.433725	0.341474
O13	O	1.250450	-0.066272	-0.245971
O14	O	1.750450	0.433728	0.254029
Zn15	Zn	1.113219	-0.087323	-0.202249
Zn16	Zn	1.613219	0.412677	0.297751
Zn17	Zn	1.113244	0.087352	-0.202246
Zn18	Zn	1.613244	0.587352	0.297754
O19	O	1.105472	-0.066272	-0.089942
O20	O	1.605472	0.433728	0.410058
C21	C	0.940888	0.000013	-0.149376
C22	C	1.440888	0.500013	0.350624
C23	C	0.836253	0.000012	-0.122123
C24	C	1.336253	0.500012	0.377877
N25	N	1.113209	-0.206534	-0.202253
N26	N	1.613209	0.293466	0.297747
C27	C	1.120425	0.000014	-0.342599
C28	C	1.620425	0.500014	0.157401
C29	C	1.118755	0.000018	-0.426160
C30	C	1.618755	0.500018	0.073840
C31	C	0.549072	0.000020	-0.392867
C32	C	1.049072	0.500020	0.107133
C33	C	0.450748	0.000021	-0.367240
C34	C	0.950748	0.500021	0.132760
C35	C	0.427981	0.000023	-0.223096
C36	C	0.927981	0.500023	0.276904
C37	C	0.526304	0.000018	-0.248711
C38	C	1.026304	0.500018	0.251289
C39	C	0.586843	0.000018	-0.333597
C40	C	1.086843	0.500018	0.166403
C41	C	0.564075	0.000016	-0.189441
C42	C	1.064075	0.500016	0.310559
C43	C	0.662390	0.000015	-0.215054
C44	C	1.162390	0.500015	0.284946
C45	C	0.722934	0.000017	-0.299936
C46	C	1.222934	0.500017	0.200064
C47	C	0.685158	0.000017	-0.359210
C48	C	1.185158	0.500017	0.140790
C49	C	0.503535	0.000022	-0.104555
C50	C	1.003535	0.500022	0.395445
C51	C	0.541306	0.000019	-0.045285
C52	C	1.041306	0.500019	0.454715
C53	C	0.639623	0.000013	-0.070898
C54	C	1.139623	0.500013	0.429102
C55	C	0.700167	0.000015	-0.155780
C56	C	1.200167	0.500015	0.344220
C57	C	0.677399	0.000013	-0.011624
C58	C	1.177399	0.500013	0.488376
C59	C	0.775714	0.000012	-0.037237
C60	C	1.275714	0.500012	0.462763
C61	C	0.798482	0.000014	-0.181393
C62	C	1.298482	0.500014	0.318607
C63	C	1.285576	0.000018	-0.255119
C64	C	1.785576	0.500018	0.244881
C65	C	1.390211	0.000025	-0.282372
C66	C	1.890211	0.500025	0.217628
C67	C	1.177424	-0.248251	-0.271327
C68	C	1.677424	0.251749	0.228673
C69	C	1.177430	-0.331704	-0.271329
C70	C	1.677430	0.168296	0.228671
C71	C	1.113223	-0.373437	-0.202254
C72	C	1.613223	0.126563	0.297746
C73	C	1.049000	-0.331714	-0.133175
C74	C	1.549000	0.168286	0.366825
C75	C	1.048991	-0.248263	-0.133177
C76	C	1.548991	0.251737	0.366823
C77	C	1.049034	-0.668261	-0.133170
C78	C	1.549034	-0.168261	0.366830
C79	C	1.049050	-0.751718	-0.133173
C80	C	1.549050	-0.251718	0.366827
C81	C	1.177473	-0.751701	-0.271322
C82	C	1.677473	-0.251701	0.228678
C83	C	1.177464	-0.668251	-0.271323
C84	C	1.677464	-0.168251	0.228677
C85	C	1.113238	-0.626535	-0.202247
C86	C	1.613238	-0.126535	0.297753
C87	C	1.113232	-0.536047	-0.202246
C88	C	1.613232	-0.036047	0.297754
C89	C	1.113233	-0.463924	-0.202251
C90	C	1.613233	0.036076	0.297749
N91	N	1.113262	0.206564	-0.202250
N92	N	1.613262	0.706564	0.297750
C93	C	1.117983	0.072286	-0.465413
C94	C	1.617983	0.572286	0.034587
C95	C	1.116408	0.072287	-0.543925
C96	C	1.616408	0.572287	-0.043925
C97	C	1.115611	0.000019	-0.583186
C98	C	1.615611	0.500019	-0.083186
C99	C	1.116380	-0.072255	-0.543927
C100	C	1.616380	0.427745	-0.043927
C101	C	1.117949	-0.072255	-0.465413
C102	C	1.617949	0.427745	0.034587
C103	C	1.110053	-0.072256	-0.860563
C104	C	1.610053	0.427744	-0.360563
C105	C	1.108487	-0.072251	-0.939083
C106	C	1.608487	0.427749	-0.439083
C107	C	1.108512	0.072286	-0.939075
C108	C	1.608512	0.572286	-0.439075
C109	C	1.110081	0.072286	-0.860561
C110	C	1.610081	0.572286	-0.360561
C111	C	1.110845	0.000012	-0.821307
C112	C	1.610845	0.500012	-0.321307
C113	C	1.112551	0.000012	-0.736174
C114	C	1.612551	0.500012	-0.236174
C115	C	1.113911	0.000018	-0.668320
C116	C	1.613911	0.500018	-0.168320
C117	C	1.106038	0.000017	-0.061896
C118	C	1.606038	0.500017	0.438104
C119	C	1.107709	0.000018	0.021665
C120	C	1.607709	0.500018	0.521665
H121	H	0.847776	0.000009	-0.250516
H122	H	1.347776	0.500009	0.249484
H123	H	0.996742	-0.634303	-0.076925
H124	H	1.496742	-0.134303	0.423075
H125	H	1.115783	0.131135	-0.575883
H126	H	1.615783	0.631135	-0.075883
O127	O	0.979736	-0.203262	-0.058674
O128	O	1.479736	0.296738	0.441326
H129	H	0.935096	-0.246300	-0.010637
H130	H	1.435096	0.253700	0.489363
H131	H	1.118637	0.131135	-0.433454
H132	H	1.618637	0.631135	0.066546
H133	H	1.110734	0.131134	-0.828601
H134	H	1.610734	0.631134	-0.328601
H135	H	0.802988	0.000027	-0.320789
H136	H	1.302988	0.500027	0.179211
O137	O	0.410014	0.000015	-0.431176
O138	O	0.910014	0.500015	0.068824
H139	H	0.331479	0.000020	-0.399107
H140	H	0.831479	0.500020	0.100893
H141	H	1.107885	0.131134	-0.971043
H142	H	1.607885	0.631134	-0.471043
H143	H	0.806467	0.000003	0.011026
H144	H	1.306467	0.500003	0.511026
O145	O	1.115517	-0.150201	-0.586272
O146	O	1.615517	0.349799	-0.086272
H147	H	1.116308	-0.200455	-0.545780
H148	H	1.616308	0.299545	-0.045780
O149	O	1.107617	-0.150200	-0.981430
O150	O	1.607617	0.349800	-0.481430
H151	H	1.108401	-0.200457	-0.940941
H152	H	1.608401	0.299543	-0.440941
O153	O	0.476001	0.000014	0.046266
O154	O	0.976001	0.500014	0.546266
H155	H	0.489412	0.054049	0.075919
H156	H	0.989412	0.554049	0.575919
H157	H	0.628095	0.000021	0.057490
H158	H	1.128095	0.500021	0.557490
H159	H	1.229750	-0.634274	-0.327569
H160	H	1.729750	-0.134274	0.172431
H161	H	0.996717	-0.365698	-0.076934
H162	H	1.496717	0.134302	0.423066
H163	H	1.110694	-0.131106	-0.828619
H164	H	1.610694	0.368894	-0.328619
H165	H	0.734452	0.000012	-0.428333
H166	H	1.234452	0.500012	0.071667
H167	H	0.423481	0.000025	-0.083704
H168	H	0.923481	0.500025	0.416296
H169	H	1.229713	-0.214277	-0.327573
H170	H	1.729713	0.285723	0.172427
O171	O	1.246707	-0.376702	-0.345820
O172	O	1.746707	0.123298	0.154180
H173	H	1.291366	-0.333662	-0.393845
H174	H	1.791366	0.166338	0.106155
H175	H	1.229766	-0.785675	-0.327569
H176	H	1.729766	-0.285675	0.172431
O177	O	1.118792	-0.150201	-0.423074
O178	O	1.618792	0.349799	0.076926
H179	H	1.117986	-0.200454	-0.463568
H180	H	1.617986	0.299546	0.036432
O181	O	0.979810	-0.796736	-0.058660
O182	O	1.479810	-0.296736	0.441340
H183	H	0.935149	-0.753709	-0.010627
H184	H	1.435149	-0.253709	0.489373
H185	H	0.598366	0.000015	-0.461989
H186	H	1.098366	0.500015	0.038011
H187	H	0.378678	0.000027	-0.153981
H188	H	0.878678	0.500027	0.346019
