data_functionalizedCrystal
_audit_creation_method	'MofGen! by Chris Wilmer'
_symmetry_space_group_name_H-M	'P1'
_symmetry_Int_Tables_number	1
_symmetry_cell_setting	triclinic
loop_
_symmetry_equiv_pos_as_xyz
  x,y,z
_cell_length_a	14.044220
_cell_length_b	10.723024
_cell_length_c	9.198806
_cell_angle_alpha	90.003648
_cell_angle_beta	89.995861
_cell_angle_gamma	91.171627
loop_
_atom_site_label
_atom_site_type_symbol
_atom_site_fract_x
_atom_site_fract_y
_atom_site_fract_z
O1	O	0.133040	-1.670498	-0.120888
O2	O	0.466373	-1.337165	0.212446
O3	O	0.799707	-1.003831	0.545779
O4	O	0.145774	-1.308620	-0.120893
O5	O	0.479108	-0.975286	0.212440
O6	O	0.812441	-0.641953	0.545774
O7	O	0.001387	-1.484127	-0.120876
O8	O	0.334721	-1.150794	0.212457
O9	O	0.668054	-0.817460	0.545791
O10	O	0.277427	-1.494991	-0.120905
O11	O	0.610760	-1.161657	0.212429
O12	O	0.944094	-0.828324	0.545762
O13	O	0.001387	-1.484112	0.120909
O14	O	0.334720	-1.150779	0.454242
O15	O	0.668053	-0.817445	0.787576
O16	O	0.145774	-1.308604	0.120892
O17	O	0.479107	-0.975271	0.454225
O18	O	0.812441	-0.641938	0.787559
O19	O	0.133039	-1.670483	0.120898
O20	O	0.466373	-1.337149	0.454231
O21	O	0.799706	-1.003816	0.787564
Cu22	Cu	0.139407	-1.489542	0.142972
Cu23	Cu	0.472740	-1.156209	0.476305
Cu24	Cu	0.806073	-0.822876	0.809638
Cu25	Cu	0.139407	-1.489560	-0.142967
Cu26	Cu	0.472740	-1.156227	0.190366
Cu27	Cu	0.806074	-0.822894	0.523700
O28	O	0.277427	-1.494975	0.120881
O29	O	0.610760	-1.161642	0.454214
O30	O	0.944093	-0.828309	0.787547
C31	C	0.144847	-1.262020	-0.000001
C32	C	0.478181	-0.928686	0.333332
C33	C	0.811514	-0.595353	0.666666
C34	C	0.142075	-1.123188	-0.000003
C35	C	0.475408	-0.789855	0.333331
C36	C	0.808741	-0.456521	0.666664
C37	C	-0.033958	-1.479364	0.000017
C38	C	0.299375	-1.146031	0.333350
C39	C	0.632708	-0.812697	0.666684
C40	C	-0.139276	-1.465180	0.000019
C41	C	0.194057	-1.131846	0.333352
C42	C	0.527390	-0.798513	0.666685
C43	C	0.133966	-1.717083	0.000002
C44	C	0.467300	-1.383749	0.333336
C45	C	0.800633	-1.050416	0.666669
C46	C	0.136739	-1.855914	-0.000006
C47	C	0.470072	-1.522581	0.333328
C48	C	0.803406	-1.189248	0.666661
C49	C	-0.332106	-1.439248	-0.000003
C50	C	0.001227	-1.105914	0.333331
C51	C	0.334560	-0.772581	0.666664
C52	C	-0.389085	-1.539849	-0.000006
C53	C	-0.055752	-1.206516	0.333328
C54	C	0.277581	-0.873183	0.666661
C55	C	-0.496383	-1.525420	-0.000017
C56	C	-0.163049	-1.192087	0.333316
C57	C	0.170284	-0.858754	0.666649
C58	C	-0.224799	-1.453675	0.000009
C59	C	0.108534	-1.120341	0.333343
C60	C	0.441868	-0.787008	0.666676
C61	C	0.312772	-1.499738	-0.000016
C62	C	0.646106	-1.166405	0.333318
C63	C	0.979439	-0.833072	0.666651
C64	C	0.418090	-1.513923	-0.000027
C65	C	0.751424	-1.180589	0.333307
C66	C	1.084757	-0.847256	0.666640
N67	N	0.139406	-1.489539	0.344086
N68	N	0.472739	-1.156205	0.677419
N69	N	0.806072	-0.822872	1.010752
C70	C	0.222866	-1.056288	-0.000012
C71	C	0.556200	-0.722955	0.333322
C72	C	0.889533	-0.389622	0.666655
C73	C	0.220002	-0.912798	-0.000013
C74	C	0.553336	-0.579465	0.333320
C75	C	0.886669	-0.246132	0.666653
N76	N	0.139401	-1.489573	-0.344081
N77	N	0.472734	-1.156240	-0.010748
N78	N	0.806067	-0.822906	0.322586
C79	C	0.078514	-1.563202	0.416290
C80	C	0.411848	-1.229869	0.749623
C81	C	0.745181	-0.896536	1.082957
C82	C	0.078511	-1.563221	0.583702
C83	C	0.411844	-1.229888	0.917035
C84	C	0.745178	-0.896555	1.250369
H85	H	-0.357284	-1.636814	-0.000102
H86	H	-0.023951	-1.303480	0.333232
H87	H	0.309383	-0.970147	0.666565
F88	F	0.010374	-1.645663	0.664858
F89	F	0.343707	-1.312330	0.998191
F90	F	0.677040	-0.978997	1.331525
H91	H	0.294155	-1.105243	-0.000011
H92	H	0.627488	-0.771909	0.333322
H93	H	0.960822	-0.438576	0.666656
H94	H	0.289166	-0.855286	-0.000027
H95	H	0.622500	-0.521952	0.333306
H96	H	0.955833	-0.188619	0.666639
H97	H	0.191538	-1.426508	0.593836
H98	H	0.524872	-1.093174	0.927169
H99	H	0.858205	-0.759841	1.260503
H100	H	0.191531	-1.426481	0.406208
H101	H	0.524865	-1.093148	0.739541
H102	H	0.858198	-0.759815	1.072874
H103	H	0.067571	-0.913420	-0.000007
H104	H	0.400905	-0.580086	0.333326
H105	H	0.734238	-0.246753	0.666660
H106	H	-0.363906	-1.342291	-0.000008
H107	H	-0.030573	-1.008958	0.333326
H108	H	0.302761	-0.675624	0.666659
F109	F	0.010207	-1.645378	0.335098
F110	F	0.343540	-1.312045	0.668431
F111	F	0.676874	-0.978712	1.001765
F112	F	0.048892	-1.059208	0.000017
F113	F	0.382225	-0.725875	0.333350
F114	F	0.715559	-0.392541	0.666683
