data_functionalizedCrystal
_audit_creation_method	'MofGen! by Chris Wilmer'
_symmetry_space_group_name_H-M	'P1'
_symmetry_Int_Tables_number	1
_symmetry_cell_setting	triclinic
loop_
_symmetry_equiv_pos_as_xyz
  x,y,z
_cell_length_a	12.759401
_cell_length_b	12.759400
_cell_length_c	12.759393
_cell_angle_alpha	90.031564
_cell_angle_beta	90.018496
_cell_angle_gamma	90.014845
loop_
_atom_site_label
_atom_site_type_symbol
_atom_site_fract_x
_atom_site_fract_y
_atom_site_fract_z
Zn1	Zn	1.606255	-0.418200	0.593981
Zn2	Zn	1.606150	-0.593919	0.418301
Zn3	Zn	1.430557	-0.418255	0.418321
Zn4	Zn	1.430546	-0.593838	0.593943
O5	O	1.518377	-0.506053	0.506137
O6	O	1.753262	-0.441520	0.570685
O7	O	1.582818	-0.570673	0.271283
O8	O	1.453913	-0.271226	0.441647
O9	O	1.753185	-0.570620	0.441614
O10	O	1.582998	-0.271186	0.570704
O11	O	1.453811	-0.441614	0.271297
O12	O	1.283535	-0.441535	0.441609
O13	O	1.453894	-0.570482	0.740969
O14	O	1.283527	-0.570536	0.570638
O15	O	1.582987	-0.441442	0.740997
O16	O	1.582807	-0.740929	0.441577
O17	O	1.453791	-0.740870	0.570620
C18	C	1.245410	-0.506033	0.506122
C19	C	1.128633	-0.506050	0.506141
C20	C	1.073794	-0.573328	0.573215
C21	C	0.964070	-0.573342	0.573227
C22	C	0.964034	-0.438796	0.439081
C23	C	1.073756	-0.438778	0.439075
C24	C	1.128672	-0.640600	0.640281
C25	C	1.073833	-0.707885	0.707360
C26	C	0.964109	-0.707898	0.707371
C27	C	0.909224	-0.640627	0.640304
C28	C	1.518315	-0.779020	0.506115
C29	C	1.518384	-0.895797	0.506140
C30	C	1.585637	-0.950655	0.439022
C31	C	1.585702	-1.060379	0.439054
C32	C	1.451252	-1.060377	0.573327
C33	C	1.451193	-0.950655	0.573299
C34	C	1.652828	-0.895797	0.371864
C35	C	1.720086	-0.950655	0.304739
C36	C	1.720150	-1.060379	0.304771
C37	C	1.652957	-1.115245	0.371929
C38	C	1.792410	-0.506073	0.506152
C39	C	1.909187	-0.506082	0.506158
C40	C	1.518451	-0.505947	0.780170
C41	C	1.518482	-0.505902	0.896947
C42	C	1.518468	-0.232019	0.506182
C43	C	1.518507	-0.115243	0.506201
C44	C	1.518364	-0.506083	0.233169
C45	C	1.518537	-0.505832	0.116393
C46	C	1.585710	-0.438704	0.951825
C47	C	1.585735	-0.438666	1.061549
C48	C	1.451301	-0.573033	1.061507
C49	C	1.451272	-0.573064	0.951785
C50	C	1.652920	-0.371541	0.896987
C51	C	1.720155	-0.304339	0.951866
C52	C	1.720180	-0.304301	1.061590
C53	C	1.652970	-0.371465	1.116436
H54	H	1.652780	-0.806454	0.371827
H55	H	1.774917	-0.249574	1.106269
C56	C	1.378155	-0.645860	0.892152
C57	C	1.310794	-0.586395	0.829190
C58	C	1.243412	-0.653420	0.774257
H59	H	1.418195	-0.691676	0.849256
H60	H	1.338083	-0.685838	0.940501
H61	H	1.350862	-0.546435	0.780846
H62	H	1.270731	-0.540582	0.872059
H63	H	1.203339	-0.693398	0.822606
H64	H	1.283460	-0.699232	0.731367
H65	H	1.197693	-0.613083	0.731539
C66	C	1.793074	-0.231528	0.892135
C67	C	1.778684	-0.245959	0.784298
C68	C	1.845848	-0.178910	0.729245
H69	H	1.777791	-0.160888	0.910006
H70	H	1.863687	-0.246912	0.910058
H71	H	1.708087	-0.230568	0.766382
H72	H	1.793975	-0.316585	0.766396
H73	H	1.916461	-0.194294	0.747168
H74	H	1.830559	-0.108274	0.747124
H75	H	1.836100	-0.188699	0.656073
C76	C	1.133493	-0.365777	0.366365
C77	C	1.241328	-0.380140	0.380739
C78	C	1.296390	-0.312895	0.313789
H79	H	1.115614	-0.381002	0.295704
H80	H	1.115585	-0.295184	0.381876
H81	H	1.259228	-0.450716	0.365221
H82	H	1.259238	-0.364907	0.451386
H83	H	1.278483	-0.242302	0.329300
H84	H	1.278503	-0.328126	0.243133
H85	H	1.369561	-0.322624	0.323539
H86	H	1.774798	-0.905977	0.250068
H87	H	1.218015	-0.640599	0.640277
H88	H	0.919462	-0.762676	0.761998
C89	C	0.790094	-0.640590	0.640555
C90	C	0.753864	-0.613916	0.740641
C91	C	0.644131	-0.613871	0.740918
H92	H	0.765145	-0.590888	0.591088
H93	H	0.765180	-0.708369	0.622333
H94	H	0.778767	-0.546147	0.758851
H95	H	0.778783	-0.663609	0.790126
H96	H	0.619217	-0.681650	0.722696
H97	H	0.619193	-0.564169	0.691447
H98	H	0.619535	-0.595782	0.808827
C99	C	0.904500	-0.365599	0.366391
C100	C	0.931179	-0.261667	0.389459
C101	C	0.876347	-0.194212	0.322524
H102	H	0.922408	-0.380751	0.295736
H103	H	0.831290	-0.375179	0.376010
H104	H	1.004373	-0.252092	0.379831
H105	H	0.913268	-0.246482	0.460102
H106	H	0.803137	-0.203792	0.332143
H107	H	0.894260	-0.209374	0.251873
H108	H	0.894434	-0.123687	0.338173
C109	C	1.378337	-1.120132	0.646114
C110	C	1.392762	-1.227964	0.631751
C111	C	1.325597	-1.283041	0.698773
H112	H	1.393597	-1.102211	0.716757
H113	H	1.307722	-1.102279	0.630662
H114	H	1.463360	-1.245810	0.647211
H115	H	1.377494	-1.245916	0.561122
H116	H	1.254983	-1.265187	0.683321
H117	H	1.340863	-1.265111	0.769412
H118	H	1.335369	-1.356210	0.689031
C119	C	1.653191	-0.371310	1.235566
C120	C	1.726468	-0.298101	1.271892
C121	C	1.726717	-0.297944	1.381626
H122	H	1.585468	-0.353092	1.260522
H123	H	1.671396	-0.439086	1.260407
H124	H	1.708258	-0.230340	1.247062
H125	H	1.794201	-0.316302	1.246965
H126	H	1.744921	-0.365720	1.406466
H127	H	1.658991	-0.279729	1.406572
H128	H	1.776441	-0.248281	1.406287
C129	C	1.378069	-0.891276	0.646217
C130	C	1.319217	-0.962800	0.705016
C131	C	1.251841	-0.908139	0.772198
H132	H	1.418107	-0.848406	0.692104
H133	H	1.332232	-0.848559	0.606009
H134	H	1.365048	-1.005500	0.745220
H135	H	1.279157	-1.005672	0.659156
H136	H	1.206004	-0.865421	0.731990
H137	H	1.291888	-0.865271	0.818078
H138	H	1.211895	-0.956659	0.812093
C139	C	1.378460	-0.645919	1.121240
C140	C	1.392897	-0.631530	1.229076
C141	C	1.325827	-0.698670	1.284133
H142	H	1.307825	-0.630614	1.103389
H143	H	1.393820	-0.716538	1.103299
H144	H	1.377529	-0.560927	1.247009
H145	H	1.463518	-0.646843	1.246958
H146	H	1.341188	-0.769289	1.266192
H147	H	1.255196	-0.683358	1.266274
H148	H	1.335620	-0.688923	1.357305
H149	H	1.774922	-1.105041	0.250123
H150	H	1.118528	-0.762647	0.761970
H151	H	1.653024	-1.204589	0.371958
H152	H	1.652910	-0.371567	0.807644
