data_functionalizedCrystal
_audit_creation_method	'MofGen! by Chris Wilmer'
_symmetry_space_group_name_H-M	'P1'
_symmetry_Int_Tables_number	1
_symmetry_cell_setting	triclinic
loop_
_symmetry_equiv_pos_as_xyz
  x,y,z
_cell_length_a	13.635800
_cell_length_b	23.752966
_cell_length_c	23.752955
_cell_angle_alpha	82.892904
_cell_angle_beta	100.066352
_cell_angle_gamma	79.933465
loop_
_atom_site_label
_atom_site_type_symbol
_atom_site_fract_x
_atom_site_fract_y
_atom_site_fract_z
V1	V	1.985889	-0.079895	0.178714
O2	O	1.988836	0.003084	0.174982
O3	O	1.953500	-0.157693	0.177810
O4	O	1.953502	-0.078998	0.256512
O5	O	1.988834	-0.076156	0.095734
V6	V	2.229825	-0.069931	0.168750
O7	O	2.111748	-0.101753	0.200570
O8	O	2.329065	-0.048073	0.146894
O9	O	2.150611	0.007866	0.169655
O10	O	2.285576	-0.152910	0.172483
O11	O	2.285578	-0.073671	0.251730
O12	O	2.150609	-0.070828	0.090952
V13	V	2.485889	-0.079895	0.178714
O14	O	2.488836	0.003084	0.174982
O15	O	2.453500	-0.157693	0.177810
O16	O	2.453502	-0.078998	0.256512
O17	O	2.488834	-0.076156	0.095734
V18	V	2.729825	-0.069931	0.168750
O19	O	2.611748	-0.101753	0.200570
O20	O	2.829065	-0.048073	0.146894
O21	O	2.650611	0.007866	0.169655
O22	O	2.785576	-0.152910	0.172483
O23	O	2.785578	-0.073671	0.251730
O24	O	2.650609	-0.070828	0.090952
C25	C	1.874273	-0.176647	0.175072
C26	C	1.888379	-0.240250	0.174851
C27	C	2.066422	-0.637590	0.176411
C28	C	2.079693	-0.697353	0.176212
O29	O	2.163476	-0.730753	0.178567
N30	N	1.995887	-0.724316	0.173242
C31	C	1.898805	-0.691515	0.170477
O32	O	1.828740	-0.719937	0.167933
C33	C	1.885536	-0.631754	0.170680
C34	C	1.969347	-0.604792	0.173644
C35	C	2.150226	-0.610628	0.179375
C36	C	2.136955	-0.550869	0.179573
C37	C	2.039880	-0.518072	0.176806
C38	C	1.956076	-0.545033	0.173842
C39	C	1.788456	-0.598954	0.167919
C40	C	1.775194	-0.539189	0.168122
C41	C	1.859005	-0.512228	0.171087
C42	C	1.845731	-0.452477	0.171272
N43	N	1.929537	-0.425513	0.174242
C44	C	2.026612	-0.458311	0.177009
C45	C	1.926677	-0.817018	0.170052
C46	C	1.939943	-0.876777	0.169845
C47	C	2.120832	-0.882611	0.175581
C48	C	2.107563	-0.822850	0.175784
C49	C	2.010483	-0.790054	0.173022
C50	C	1.998735	-0.332812	0.177423
C51	C	1.985454	-0.273047	0.177618
C52	C	1.804569	-0.267219	0.171885
C53	C	1.817847	-0.326978	0.171687
C54	C	1.914938	-0.359774	0.174458
O55	O	1.761979	-0.419040	0.168921
O56	O	2.096664	-0.429882	0.179560
C57	C	1.874275	-0.076264	0.275465
C58	C	1.888382	-0.076045	0.339067
C59	C	2.061509	0.026818	0.172390
C60	C	2.037021	0.090420	0.172615
C61	C	2.061507	-0.073564	0.071997
C62	C	2.037019	-0.073780	0.008393
C63	C	2.374273	-0.176647	0.175072
C64	C	2.388379	-0.240250	0.174851
C65	C	1.858979	-0.072237	0.611056
C66	C	1.845708	-0.072438	0.551294
O67	O	1.761926	-0.070084	0.517894
N68	N	1.929515	-0.075410	0.524330
C69	C	2.026597	-0.078175	0.557131
O70	O	2.096663	-0.080720	0.528709
C71	C	2.039866	-0.077969	0.616892
C72	C	1.956054	-0.075003	0.643853
C73	C	1.775175	-0.069270	0.638018
C74	C	1.788445	-0.069070	0.697776
C75	C	1.885520	-0.071837	0.730573
C76	C	1.969324	-0.074803	0.703612
C77	C	2.136946	-0.080730	0.649691
C78	C	2.150207	-0.080524	0.709456
C79	C	2.066395	-0.077558	0.736417
C80	C	2.079670	-0.077369	0.796168
N81	N	1.995863	-0.074397	0.823131
C82	C	1.898788	-0.071631	0.790334
C83	C	1.998726	-0.078605	0.431629
C84	C	1.985460	-0.078814	0.371870
C85	C	1.804571	-0.073077	0.366037
C86	C	1.817840	-0.072871	0.425797
C87	C	1.914919	-0.075633	0.458593
C88	C	1.926664	-0.071212	0.915832
C89	C	1.939944	-0.071014	0.975596
C90	C	2.120830	-0.076749	0.981424
C91	C	2.107553	-0.076949	0.921665
C92	C	2.010461	-0.074178	0.888870
O93	O	2.163421	-0.079720	0.829604
O94	O	1.828736	-0.069078	0.818763
C95	C	2.374275	-0.076264	0.275465
C96	C	2.388382	-0.076045	0.339067
C97	C	2.561509	0.026818	0.172390
C98	C	2.537021	0.090420	0.172615
C99	C	2.561507	-0.073564	0.071997
C100	C	2.537019	-0.073780	0.008393
C101	C	2.485454	-0.273047	0.177618
C102	C	2.498725	-0.332810	0.177420
C103	C	2.414919	-0.359774	0.174450
C104	C	2.317837	-0.326972	0.171685
C105	C	2.304568	-0.267211	0.171887
C106	C	2.485456	-0.078807	0.371864
C107	C	2.498723	-0.078593	0.431624
C108	C	2.414917	-0.075622	0.458588
C109	C	2.317835	-0.072859	0.425787
C110	C	2.304568	-0.073068	0.366027
C111	C	2.612440	0.123217	0.169850
C112	C	2.589440	0.182979	0.170051
C113	C	2.491023	0.209943	0.173022
C114	C	2.415598	0.177142	0.175786
C115	C	2.438597	0.117381	0.175580
C116	C	2.438595	-0.076745	-0.018556
C117	C	2.415569	-0.076941	-0.078318
C118	C	2.490971	-0.074177	-0.111130
C119	C	2.589404	-0.071211	-0.084178
C120	C	2.612426	-0.071010	-0.024417
H121	H	2.053708	-0.251098	0.180030
Cl122	Cl	1.712483	-0.360873	0.167960
Cl123	Cl	2.620777	-0.082073	0.472849
Cl124	Cl	2.462013	-0.074432	-0.186258
Cl125	Cl	1.804621	-0.775793	0.166572
H126	H	2.692582	0.101271	0.167431
H127	H	2.577781	-0.359509	0.179670
H128	H	2.377185	-0.078996	0.008152
Cl129	Cl	2.291824	-0.080676	-0.112188
H130	H	2.229279	-0.637326	0.181630
H131	H	2.650789	-0.068958	-0.110902
Cl132	Cl	1.683080	-0.632832	0.164186
H133	H	1.696141	-0.512490	0.165876
Cl134	Cl	2.431617	-0.434904	0.174194
Cl135	Cl	1.683072	-0.065337	0.731661
Cl136	Cl	1.682534	-0.225976	0.168401
Cl137	Cl	1.653125	-0.065796	0.596798
Cl138	Cl	2.212490	-0.069132	0.459695
Cl139	Cl	2.431614	-0.075363	0.533717
Cl140	Cl	2.182524	-0.069604	0.324805
Cl141	Cl	2.090833	-0.082555	0.337985
H142	H	2.205206	-0.528924	0.181990
H143	H	2.650867	0.209678	0.167802
Cl144	Cl	2.212489	-0.360878	0.167948
H145	H	2.077794	-0.359508	0.179681
H146	H	2.553704	-0.251101	0.180033
H147	H	2.472310	0.258605	0.173189
Cl148	Cl	2.212932	-0.788962	0.179514
H149	H	1.725525	-0.070823	0.339322
Cl150	Cl	2.291877	0.211048	0.179518
H151	H	2.377179	0.090681	0.177837
H152	H	2.692576	-0.068599	-0.002479
Cl153	Cl	2.182519	-0.225986	0.168403
H154	H	2.199876	-0.909325	0.177830
H155	H	1.871692	-0.898722	0.167424
H156	H	1.871691	-0.068600	0.997545
H157	H	1.749591	-0.070455	0.447745
Cl158	Cl	1.804607	-0.067728	0.874613
Cl159	Cl	2.120782	-0.082085	0.472854
H160	H	2.205197	-0.083144	0.627750
Cl161	Cl	2.272256	-0.083993	0.750680
H162	H	2.175802	-0.079373	0.899714
Cl163	Cl	2.590829	-0.082541	0.337980
Cl164	Cl	2.242864	-0.080228	1.022666
