data_functionalizedCrystal
_audit_creation_method	'MofGen! by Chris Wilmer'
_symmetry_space_group_name_H-M	'P1'
_symmetry_Int_Tables_number	1
_symmetry_cell_setting	triclinic
loop_
_symmetry_equiv_pos_as_xyz
  x,y,z
_cell_length_a	10.868271
_cell_length_b	14.853567
_cell_length_c	11.792241
_cell_angle_alpha	96.085827
_cell_angle_beta	90.005281
_cell_angle_gamma	89.998656
loop_
_atom_site_label
_atom_site_type_symbol
_atom_site_fract_x
_atom_site_fract_y
_atom_site_fract_z
O1	O	0.102238	-1.196941	0.148183
O2	O	0.602238	-0.696941	0.648183
O3	O	0.102259	-0.934551	0.165835
O4	O	0.602259	-0.434551	0.665835
O5	O	0.102239	-1.072113	-0.008201
O6	O	0.602239	-0.572113	0.491799
O7	O	0.102258	-1.059378	0.322219
O8	O	0.602258	-0.559378	0.822219
O9	O	-0.102405	-1.072102	-0.008208
O10	O	0.397595	-0.572102	0.491792
O11	O	-0.102386	-0.934539	0.165828
O12	O	0.397614	-0.434539	0.665828
O13	O	-0.102407	-1.196930	0.148176
O14	O	0.397593	-0.696930	0.648176
Zn15	Zn	-0.134888	-1.065733	0.157001
Zn16	Zn	0.365112	-0.565733	0.657001
Zn17	Zn	0.134740	-1.065748	0.157010
Zn18	Zn	0.634740	-0.565748	0.657010
O19	O	-0.102387	-1.059367	0.322212
O20	O	0.397613	-0.559367	0.822212
C21	C	-0.000061	-0.900953	0.165032
C22	C	0.499939	-0.400953	0.665032
C23	C	-0.000053	-0.800860	0.162635
C24	C	0.499947	-0.300860	0.662635
N25	N	-0.318902	-1.065729	0.156994
N26	N	0.181098	-0.565729	0.656994
C27	C	-0.000083	-1.071308	-0.050491
C28	C	0.499917	-0.571308	0.449509
C29	C	-0.000081	-1.068913	-0.176489
C30	C	0.499919	-0.568913	0.323511
C31	C	-0.569908	-1.065743	0.157007
C32	C	-0.069908	-0.565743	0.657007
C33	C	-0.430231	-1.065732	0.157003
C34	C	0.069769	-0.565732	0.657003
N35	N	0.318754	-1.065759	0.157008
N36	N	0.818754	-0.565759	0.657008
C37	C	-0.000084	-1.230527	0.148979
C38	C	0.499916	-0.730527	0.648979
C39	C	-0.000084	-1.330621	0.151376
C40	C	0.499916	-0.830621	0.651376
C41	C	-0.000087	-0.387884	0.049122
C42	C	0.499913	0.112116	0.549122
C43	C	-0.000074	-0.367408	0.255880
C44	C	0.499926	0.132592	0.755880
C45	C	-0.000070	-0.461451	0.258134
C46	C	0.499930	0.038549	0.758134
C47	C	-0.000072	-0.518715	0.155880
C48	C	0.499928	-0.018715	0.655880
C49	C	-0.000079	-0.481936	0.051372
C50	C	0.499921	0.018064	0.551372
C51	C	-0.000051	-0.498237	0.362640
C52	C	0.499949	0.001763	0.862640
C53	C	-0.000045	-0.592285	0.364898
C54	C	0.499955	-0.092285	0.864898
C55	C	-0.000057	-0.649550	0.262642
C56	C	0.499943	-0.149550	0.762642
C57	C	-0.000065	-0.612766	0.158131
C58	C	0.499935	-0.112766	0.658131
C59	C	-0.000067	-0.670030	0.055877
C60	C	0.499933	-0.170030	0.555877
C61	C	-0.000084	-0.633248	-0.048637
C62	C	0.499916	-0.133248	0.451363
C63	C	-0.000090	-0.539201	-0.050883
C64	C	0.499910	-0.039201	0.449117
C65	C	-0.000050	-0.743596	0.264889
C66	C	0.499950	-0.243596	0.764889
C67	C	-0.000059	-0.764081	0.058127
C68	C	0.499941	-0.264081	0.558127
C69	C	-0.000060	-1.064511	-0.407174
C70	C	0.499940	-0.564511	0.092826
C71	C	-0.000072	-1.066957	-0.278804
C72	C	0.499928	-0.566957	0.221196
C73	C	-0.000063	-1.060173	0.364501
C74	C	0.499937	-0.560173	0.864501
C75	C	-0.000056	-1.062567	0.490500
C76	C	0.499944	-0.562567	0.990500
H77	H	-0.000077	-0.679884	-0.131891
H78	H	0.499923	-0.179884	0.368109
N79	N	-0.000083	-0.499527	-0.163597
N80	N	0.499917	0.000473	0.336403
H81	H	-0.000085	-0.550071	-0.228035
H82	H	0.499915	-0.050071	0.271965
H83	H	-0.075945	-0.460949	-0.169039
H84	H	0.424055	0.039051	0.330961
H85	H	-0.000105	-0.357932	-0.035970
H86	H	0.499895	0.142068	0.464030
N87	N	-0.000062	-0.305652	0.366164
N88	N	0.499938	0.194348	0.866164
H89	H	0.075801	-0.266177	0.369835
H90	H	0.575801	0.233823	0.869835
H91	H	-0.075973	-0.266232	0.369769
H92	H	0.424027	0.233768	0.869769
N93	N	-0.000076	-0.825842	-0.052163
N94	N	0.499924	-0.325842	0.447837
H95	H	-0.000090	-0.788268	-0.118706
H96	H	0.499910	-0.288268	0.381294
H97	H	0.075792	-0.865306	-0.055738
H98	H	0.575792	-0.365306	0.444262
N99	N	-0.000036	-0.436478	0.472922
N100	N	0.499964	0.063522	0.972922
H101	H	-0.000049	-0.371319	0.455635
H102	H	0.499951	0.128681	0.955635
H103	H	-0.075892	-0.448447	0.518462
H104	H	0.424108	0.051553	1.018462
H105	H	-0.000032	-0.622224	0.449998
H106	H	0.499968	-0.122224	0.949998
H107	H	-0.000039	-0.773540	0.349982
H108	H	0.499961	-0.273540	0.849982
