data_functionalizedCrystal
_audit_creation_method	'MofGen! by Chris Wilmer'
_symmetry_space_group_name_H-M	'P1'
_symmetry_Int_Tables_number	1
_symmetry_cell_setting	triclinic
loop_
_symmetry_equiv_pos_as_xyz
  x,y,z
_cell_length_a	16.625547
_cell_length_b	16.120444
_cell_length_c	16.625539
_cell_angle_alpha	87.130642
_cell_angle_beta	90.024822
_cell_angle_gamma	92.926748
loop_
_atom_site_label
_atom_site_type_symbol
_atom_site_fract_x
_atom_site_fract_y
_atom_site_fract_z
Zn1	Zn	1.216381	-0.331909	0.472263
Zn2	Zn	1.716381	0.168091	0.972263
Zn3	Zn	1.209437	-0.471333	0.344261
Zn4	Zn	1.709437	0.028667	0.844261
Zn5	Zn	1.081541	-0.331938	0.337434
Zn6	Zn	1.581541	0.168062	0.837434
Zn7	Zn	1.074669	-0.471283	0.479038
Zn8	Zn	1.574669	0.028717	0.979038
O9	O	1.145507	-0.401616	0.408249
O10	O	1.645507	0.098384	0.908249
O11	O	1.328292	-0.350413	0.455304
O12	O	1.828292	0.149587	0.955304
O13	O	1.192442	-0.452876	0.230524
O14	O	1.692442	0.047124	0.730524
O15	O	1.105210	-0.215267	0.349627
O16	O	1.605210	0.284733	0.849627
O17	O	1.323190	-0.452847	0.361262
O18	O	1.823190	0.047153	0.861262
O19	O	1.204276	-0.215246	0.448685
O20	O	1.704276	0.284754	0.948685
O21	O	1.098477	-0.350462	0.225509
O22	O	1.598477	0.149538	0.725509
O23	O	0.967798	-0.350413	0.356197
O24	O	1.467798	0.149587	0.856197
O25	O	1.093497	-0.452761	0.590970
O26	O	1.593497	0.047239	1.090970
O27	O	0.962748	-0.452789	0.460233
O28	O	1.462748	0.047211	0.960233
O29	O	1.197612	-0.350364	0.585992
O30	O	1.697612	0.149636	1.085992
O31	O	1.185778	-0.587993	0.367832
O32	O	1.685778	-0.087993	0.867832
O33	O	1.086764	-0.587956	0.466852
O34	O	1.586764	-0.087956	0.966852
C35	C	0.936017	-0.401599	0.408210
C36	C	1.436017	0.098401	0.908210
C37	C	0.846395	-0.401613	0.408214
C38	C	1.346395	0.098387	0.908214
C39	C	0.773613	-0.401614	0.408224
C40	C	1.273613	0.098386	0.908224
C41	C	0.682304	-0.401619	0.408244
C42	C	1.182304	0.098381	0.908244
C43	C	0.609527	-0.401626	0.408265
C44	C	1.109527	0.098374	0.908265
C45	C	0.518213	-0.401632	0.408285
C46	C	1.018213	0.098368	0.908285
C47	C	1.134793	-0.618225	0.418836
C48	C	1.634793	-0.118225	0.918836
C49	C	1.130284	-0.710891	0.423391
C50	C	1.630284	-0.210891	0.923391
C51	C	1.169098	-0.921832	0.384788
C52	C	1.669098	-0.421832	0.884788
C53	C	1.122065	-0.880548	0.431718
C54	C	1.622065	-0.380548	0.931718
C55	C	1.126640	-0.786142	0.427084
C56	C	1.626640	-0.286142	0.927084
C57	C	1.164525	-1.016247	0.389422
C58	C	1.664525	-0.516247	0.889422
C59	C	1.355815	-0.401632	0.408289
C60	C	1.855815	0.098368	0.908289
C61	C	1.445436	-0.401640	0.408305
C62	C	1.945436	0.098360	0.908305
C63	C	1.145563	-0.401554	0.618555
C64	C	1.645563	0.098446	1.118555
C65	C	1.145586	-0.401527	0.708175
C66	C	1.645586	0.098473	1.208175
C67	C	1.156285	-0.184161	0.397639
C68	C	1.656285	0.315839	0.897639
C69	C	1.160877	-0.091494	0.393117
C70	C	1.660877	0.408506	0.893117
C71	C	1.145501	-0.401617	0.198758
C72	C	1.645501	0.098383	0.698758
C73	C	1.145645	-0.401409	0.109127
C74	C	1.645645	0.098591	0.609127
C75	C	1.145628	-0.401434	1.036346
C76	C	1.645628	0.098566	1.536346
C77	C	1.145614	-0.401462	0.945039
C78	C	1.645614	0.098538	1.445039
C79	C	1.145607	-0.401481	0.872263
C80	C	1.645607	0.098519	1.372263
C81	C	1.145593	-0.401508	0.780950
C82	C	1.645593	0.098492	1.280950
H83	H	1.078364	-0.916104	0.475376
H84	H	1.578364	-0.416104	0.975376
H85	H	1.212796	-0.886279	0.341133
H86	H	1.712796	-0.386279	0.841133
