data_functionalizedCrystal
_audit_creation_method	'MofGen! by Chris Wilmer'
_symmetry_space_group_name_H-M	'P1'
_symmetry_Int_Tables_number	1
_symmetry_cell_setting	triclinic
loop_
_symmetry_equiv_pos_as_xyz
  x,y,z
_cell_length_a	16.956993
_cell_length_b	16.992694
_cell_length_c	16.053934
_cell_angle_alpha	87.253259
_cell_angle_beta	92.384727
_cell_angle_gamma	83.361462
loop_
_atom_site_label
_atom_site_type_symbol
_atom_site_fract_x
_atom_site_fract_y
_atom_site_fract_z
O1	O	-0.171514	-1.025980	-0.069333
O2	O	-0.169668	-0.797813	-0.069357
O3	O	-0.055385	-0.925604	-0.069333
O4	O	-0.285796	-0.898190	-0.069357
O5	O	-0.049116	-0.932600	0.069525
O6	O	-0.163398	-0.804810	0.069500
O7	O	-0.165244	-1.032977	0.069525
Zn8	Zn	-0.163326	-0.920004	0.091559
Zn9	Zn	-0.171586	-0.910786	-0.091391
O10	O	-0.279527	-0.905186	0.069501
C11	C	-0.164157	-0.772253	0.000069
C12	C	-0.157066	-0.685668	0.000060
C13	C	-0.022632	-0.930506	0.000097
C14	C	0.065623	-0.934679	0.000100
C15	C	-0.170755	-1.058537	0.000097
C16	C	-0.177846	-1.145122	0.000101
C17	C	0.562935	-0.965897	0.000131
C18	C	0.480010	-0.961971	0.000130
C19	C	0.433619	-0.888257	0.000115
C20	C	0.470156	-0.818467	0.000110
C21	C	0.553080	-0.822395	0.000116
C22	C	0.185084	-0.868816	0.000100
C23	C	0.102155	-0.864893	0.000092
C24	C	0.112015	-1.008398	0.000114
C25	C	0.194940	-1.012319	0.000115
C26	C	0.231470	-0.942529	0.000114
N27	N	0.348856	-0.884241	0.000112
N28	N	0.316232	-0.946546	0.000123
C29	C	0.687720	-0.900284	0.000085
C30	C	0.599467	-0.896112	0.000122
N31	N	-0.157688	-0.926301	0.216418
C32	C	-0.225481	-0.630993	0.000053
C33	C	-0.218814	-0.549639	0.000066
C34	C	-0.143731	-0.522961	0.000078
C35	C	-0.075310	-0.577643	0.000087
C36	C	-0.081978	-0.658995	0.000081
C37	C	-0.116094	-0.281156	0.000103
C38	C	-0.109431	-0.199796	0.000107
C39	C	-0.252935	-0.171798	0.000087
C40	C	-0.259597	-0.253154	0.000076
C41	C	-0.191176	-0.307828	0.000089
N42	N	-0.136913	-0.439805	0.000088
N43	N	-0.197994	-0.390983	0.000085
N44	N	-0.177218	-0.904495	-0.216251
C45	C	-0.206296	-0.871917	0.260123
C46	C	-0.202350	-0.876345	0.347529
C47	C	-0.149793	-0.935154	0.391229
C48	C	-0.101183	-0.989543	0.347518
C49	C	-0.105133	-0.985118	0.260114
C50	C	-0.132558	-0.954460	0.652635
C51	C	-0.128610	-0.958879	0.740045
C52	C	-0.229779	-0.845682	0.740049
C53	C	-0.233721	-0.841259	0.652643
C54	C	-0.185115	-0.895651	0.608941
N55	N	-0.145757	-0.939680	0.480572
N56	N	-0.189155	-0.891128	0.519599
H57	H	0.450270	-1.018797	0.000138
H58	H	0.600702	-1.025923	0.000136
C59	C	0.225261	-0.792052	0.000086
H60	H	0.281292	-0.804943	0.000099
H61	H	0.207458	-0.759493	-0.048345
H62	H	0.211832	-0.764363	0.048507
C63	C	-0.079085	-1.014281	0.604572
H64	H	-0.047212	-1.049931	0.643119
H65	H	-0.111279	-1.043209	0.570468
H66	H	-0.045758	-0.986607	0.570485
H67	H	-0.085808	-1.006771	0.775622
C68	C	-0.291538	-0.776573	0.604579
H69	H	-0.319928	-0.744821	0.643127
H70	H	-0.262422	-0.744198	0.570489
H71	H	-0.327946	-0.800796	0.570478
C72	C	0.245965	-1.093404	0.000141
H73	H	0.212331	-1.134405	0.000154
H74	H	0.276334	-1.095485	-0.048277
H75	H	0.280702	-1.100352	0.048574
H76	H	0.432378	-0.758448	0.000103
C77	C	0.071830	-1.085160	0.000127
H78	H	0.015800	-1.072267	0.000128
H79	H	0.085257	-1.112852	-0.048287
H80	H	0.089634	-1.117717	0.048565
C81	C	-0.342187	-0.282498	0.000058
H82	H	-0.336359	-0.338779	0.000046
H83	H	-0.368397	-0.265862	0.048475
H84	H	-0.372754	-0.260964	-0.048376
H85	H	-0.014175	-0.555916	0.000109
C86	C	0.051125	-0.783805	0.000076
H87	H	0.084758	-0.742803	0.000083
H88	H	0.016388	-0.776853	-0.048351
H89	H	0.020757	-0.781732	0.048500
H90	H	-0.308639	-0.127274	0.000078
C91	C	0.593265	-0.745630	0.000099
H92	H	0.553761	-0.701166	0.000081
H93	H	0.627597	-0.746614	0.048523
H94	H	0.623220	-0.741745	-0.048329
H95	H	-0.058392	-1.037430	0.383104
C96	C	-0.051662	-1.044938	0.212039
H97	H	-0.019789	-1.080592	0.250582
H98	H	-0.083861	-1.073860	0.177935
H99	H	-0.018335	-1.017264	0.177950
H100	H	-0.286622	-0.652707	0.000043
H101	H	-0.274525	-0.505125	0.000060
H102	H	-0.048286	-0.178080	0.000116
C103	C	-0.040834	-0.341287	0.000112
H104	H	0.004835	-0.313744	0.000112
H105	H	-0.038264	-0.376051	0.048534
H106	H	-0.042636	-0.371158	-0.048318
C107	C	-0.006724	-0.719141	0.000087
H108	H	-0.021448	-0.771412	0.000090
H109	H	0.021667	-0.709117	-0.048330
H110	H	0.026031	-0.714006	0.048522
H111	H	-0.249090	-0.824026	0.224548
C112	C	-0.255836	-0.816538	0.395600
H113	H	-0.287702	-0.780880	0.357056
H114	H	-0.289157	-0.844223	0.429678
H115	H	-0.223649	-0.787606	0.429715
H116	H	-0.269353	-0.801399	0.775640
