data_functionalizedCrystal
_audit_creation_method	'MofGen! by Chris Wilmer'
_symmetry_space_group_name_H-M	'P1'
_symmetry_Int_Tables_number	1
_symmetry_cell_setting	triclinic
loop_
_symmetry_equiv_pos_as_xyz
  x,y,z
_cell_length_a	17.699083
_cell_length_b	10.540539
_cell_length_c	16.176319
_cell_angle_alpha	89.995366
_cell_angle_beta	89.998611
_cell_angle_gamma	83.904253
loop_
_atom_site_label
_atom_site_type_symbol
_atom_site_fract_x
_atom_site_fract_y
_atom_site_fract_z
O1	O	1.005122	0.160521	-0.068627
O2	O	0.784880	0.181405	-0.068653
O3	O	0.900026	-0.013836	-0.068638
O4	O	0.889976	0.355761	-0.068642
O5	O	0.900010	-0.013848	0.068855
O6	O	0.784864	0.181392	0.068840
O7	O	1.005106	0.160508	0.068866
Cu8	Cu	0.894984	0.170949	0.081407
Cu9	Cu	0.895003	0.170964	-0.081194
O10	O	0.889960	0.355749	0.068852
C11	C	0.756670	0.180650	0.000090
C12	C	0.672637	0.178405	0.000080
C13	C	0.899264	-0.061131	0.000107
C14	C	0.897009	-0.202038	0.000102
C15	C	0.624761	0.293007	0.000079
C16	C	0.545804	0.290890	0.000090
C17	C	0.514725	0.174170	0.000095
C18	C	0.562607	0.059559	0.000098
C19	C	0.641562	0.061677	0.000094
C20	C	0.244188	0.051014	0.000119
C21	C	0.165226	0.048904	0.000121
C22	C	0.148430	0.280227	0.000115
C23	C	0.227386	0.282345	0.000110
C24	C	0.275261	0.167735	0.000118
C25	C	0.360875	0.170032	0.000108
C26	C	0.429112	0.171872	0.000099
C27	C	0.810610	-0.383885	-0.000217
C28	C	0.812896	-0.237308	0.000093
C29	C	0.937479	-0.264443	0.078622
C30	C	0.934609	-0.410935	0.078688
C31	C	0.936338	-0.411471	-0.077667
C32	C	0.937113	-0.264503	-0.078705
C33	C	1.033316	0.161263	0.000122
C34	C	1.117349	0.163508	0.000126
C35	C	0.890722	0.403044	0.000105
C36	C	0.892977	0.543951	0.000104
N37	N	0.894976	0.170938	0.195773
N38	N	0.895016	0.170965	-0.195559
C39	C	0.945978	0.084521	0.239043
C40	C	0.945982	0.084519	0.325591
C41	C	0.894987	0.170942	0.368865
C42	C	0.843979	0.257364	0.325588
C43	C	0.843972	0.257358	0.239043
C44	C	0.844005	0.257387	0.674617
C45	C	0.844017	0.257389	0.761168
C46	C	0.946015	0.084549	0.761164
C47	C	0.946008	0.084543	0.674619
C48	C	0.894998	0.170959	0.631349
C49	C	0.894993	0.170958	0.537505
C50	C	0.894994	0.170951	0.462708
H51	H	0.650060	0.388054	0.000074
C52	C	0.493144	0.416952	0.000086
H53	H	0.522962	0.486769	0.000072
H54	H	0.461997	0.420938	0.048035
H55	H	0.461992	0.420934	-0.047864
C56	C	0.787903	0.352452	0.627031
H57	H	0.757541	0.403930	0.665202
H58	H	0.756147	0.306860	0.593277
H59	H	0.815413	0.405238	0.593263
C60	C	1.020923	-0.235767	0.082585
H61	H	1.031846	-0.185355	0.036279
H62	H	1.053320	-0.313619	0.081863
H63	H	1.029077	-0.190609	0.132058
H64	H	0.909354	-0.221335	0.137047
C65	C	0.694226	-0.064385	0.000086
H66	H	0.664409	-0.134203	0.000081
H67	H	0.725379	-0.068375	0.048030
H68	H	0.725371	-0.068357	-0.047870
C69	C	0.899570	-0.453404	-0.158065
H70	H	0.857425	-0.498494	-0.144950
H71	H	0.935799	-0.507293	-0.188718
H72	H	0.882782	-0.380280	-0.190117
H73	H	0.907501	-0.223097	-0.136792
C74	C	1.019960	-0.233308	-0.085102
H75	H	1.031228	-0.181557	-0.039588
H76	H	1.026618	-0.188838	-0.135213
H77	H	1.053150	-0.310297	-0.084431
H78	H	0.781052	-0.194117	-0.056194
H79	H	0.777390	-0.411872	-0.056526
H80	H	0.987508	0.014151	0.203815
C81	C	1.002115	-0.010496	0.627017
H82	H	0.994814	0.001892	0.569276
H83	H	0.993457	-0.095205	0.641200
H84	H	1.052697	0.003216	0.641200
H85	H	0.995101	-0.460010	0.082257
H86	H	0.283159	-0.042309	0.000126
C87	C	1.018408	-0.476777	-0.078380
H88	H	1.026241	-0.530955	-0.031540
H89	H	1.052942	-0.413724	-0.076654
H90	H	1.026664	-0.525972	-0.127380
H91	H	0.252686	0.377390	0.000102
H92	H	0.537295	-0.035477	0.000115
H93	H	0.802453	0.327727	0.360828
H94	H	0.802440	0.327726	0.203813
C95	C	0.765897	-0.423862	0.075417
H96	H	0.797208	-0.484338	0.107191
H97	H	0.722131	-0.460936	0.057361
H98	H	0.750780	-0.350970	0.108372
C99	C	1.002082	-0.010538	0.373189
H100	H	0.994778	0.001828	0.430930
H101	H	1.052665	0.003140	0.359001
H102	H	0.993402	-0.095242	0.359009
C103	C	0.095766	0.406298	0.000118
H104	H	0.044291	0.388326	0.000131
H105	H	0.105252	0.454171	-0.047832
H106	H	0.105259	0.454163	0.048068
C107	C	0.894177	-0.448304	0.157962
H108	H	0.879654	-0.373988	0.189821
H109	H	0.927673	-0.505973	0.189360
H110	H	0.850245	-0.487981	0.143608
H111	H	0.987548	0.014180	0.796403
H112	H	0.802488	0.327767	0.796401
H113	H	0.139925	-0.046149	0.000127
H114	H	0.780815	-0.194971	0.056466
