data_functionalizedCrystal
_audit_creation_method	'MofGen! by Chris Wilmer'
_symmetry_space_group_name_H-M	'P1'
_symmetry_Int_Tables_number	1
_symmetry_cell_setting	triclinic
loop_
_symmetry_equiv_pos_as_xyz
  x,y,z
_cell_length_a	16.959455
_cell_length_b	25.639240
_cell_length_c	16.959447
_cell_angle_alpha	89.963308
_cell_angle_beta	89.982507
_cell_angle_gamma	90.029705
loop_
_atom_site_label
_atom_site_type_symbol
_atom_site_fract_x
_atom_site_fract_y
_atom_site_fract_z
Zn1	Zn	1.208339	-0.208201	-0.446854
Zn2	Zn	1.208225	-0.295637	-0.314653
Zn3	Zn	1.076160	-0.208212	-0.314692
Zn4	Zn	1.076103	-0.295603	-0.446791
O5	O	1.142207	-0.251913	-0.380747
O6	O	1.318935	-0.219809	-0.429327
O7	O	1.190682	-0.284058	-0.204047
O8	O	1.093765	-0.135046	-0.332266
O9	O	1.318851	-0.284048	-0.332199
O10	O	1.190877	-0.135038	-0.429365
O11	O	1.093655	-0.219828	-0.204075
O12	O	0.965541	-0.219795	-0.332205
O13	O	1.093668	-0.283990	-0.557410
O14	O	0.965499	-0.284001	-0.429258
O15	O	1.190821	-0.219777	-0.557457
O16	O	1.190627	-0.368797	-0.332138
O17	O	1.093557	-0.368773	-0.429220
C18	C	0.936840	-0.251896	-0.380729
C19	C	0.848984	-0.251901	-0.380740
C20	C	0.477506	-0.218454	-0.330317
C21	C	0.477511	-0.285416	-0.431222
C22	C	0.560056	-0.285408	-0.431218
C23	C	0.601331	-0.251924	-0.380761
C24	C	0.560059	-0.218447	-0.330309
C25	C	0.601334	-0.318888	-0.481663
C26	C	0.683885	-0.318882	-0.481659
C27	C	0.725161	-0.285395	-0.431206
C28	C	0.683884	-0.251916	-0.380753
C29	C	0.725159	-0.218432	-0.330296
C30	C	0.683883	-0.184950	-0.279847
C31	C	0.601335	-0.184959	-0.279856
C32	C	0.807709	-0.285386	-0.431197
C33	C	0.807712	-0.218424	-0.330288
C34	C	1.142095	-0.387756	-0.380685
C35	C	1.142119	-0.445870	-0.380685
C36	C	1.192797	-0.806190	-0.431398
C37	C	1.192821	-0.860795	-0.431414
O38	O	1.235776	-0.888995	-0.474468
N39	N	1.142316	-0.888152	-0.380824
C40	C	1.091779	-0.860903	-0.330220
O41	O	1.048823	-0.889187	-0.287190
C42	C	1.091753	-0.806300	-0.330208
C43	C	1.142266	-0.778945	-0.380796
C44	C	1.243306	-0.778835	-0.481983
C45	C	1.243284	-0.724235	-0.481965
C46	C	1.192753	-0.696989	-0.431364
C47	C	1.142244	-0.724344	-0.380779
C48	C	1.041212	-0.779051	-0.279609
C49	C	1.041190	-0.724444	-0.279602
C50	C	1.091703	-0.697089	-0.330190
C51	C	1.091690	-0.642498	-0.330160
N52	N	1.142195	-0.615140	-0.380750
C53	C	1.192726	-0.642386	-0.431352
C54	C	1.091838	-0.975574	-0.330249
C55	C	1.091868	-1.030176	-0.330255
C56	C	1.192909	-1.030064	-0.431451
C57	C	1.192882	-0.975461	-0.431440
C58	C	1.142343	-0.948216	-0.380839
C59	C	1.192675	-0.527721	-0.431311
C60	C	1.192651	-0.473116	-0.431287
C61	C	1.091607	-0.473232	-0.330095
C62	C	1.091635	-0.527833	-0.330116
C63	C	1.142171	-0.555076	-0.380730
O64	O	1.048754	-0.614263	-0.287130
O65	O	1.235668	-0.614095	-0.474381
C66	C	1.348375	-0.251931	-0.380766
C67	C	1.436231	-0.251939	-0.380774
C68	C	1.142251	-0.251879	-0.586916
C69	C	1.142270	-0.251864	-0.674772
C70	C	1.142340	-0.115540	-0.380827
C71	C	1.142397	-0.057426	-0.380861
C72	C	1.091696	-0.285290	-0.716024
C73	C	1.192856	-0.218420	-0.716074
C74	C	1.192873	-0.218403	-0.798620
C75	C	1.142299	-0.251829	-0.839872
C76	C	1.091710	-0.285273	-0.798577
C77	C	1.243456	-0.184956	-0.839921
C78	C	1.243474	-0.184937	-0.922472
C79	C	1.192904	-0.218367	-0.963725
C80	C	1.142313	-0.251812	-0.922425
C81	C	1.091739	-0.285239	-0.963677
C82	C	1.041151	-0.318687	-0.922379
C83	C	1.041139	-0.318703	-0.839830
C84	C	1.192916	-0.218351	-1.046274
C85	C	1.091752	-0.285222	-1.046231
C86	C	1.142208	-0.251910	-0.175381
C87	C	1.142342	-0.251778	-0.087525
H88	H	0.567723	-0.346153	-0.522736
H89	H	1.234014	-0.953191	-0.472633
H90	H	0.717484	-0.346145	-0.522739
H91	H	1.050509	-0.550107	-0.288916
H92	H	1.050511	-0.312525	-0.682395
H93	H	1.050468	-0.451041	-0.288893
H94	H	1.050685	-0.953394	-0.289037
H95	H	1.050572	-0.312444	-1.079812
H96	H	1.284667	-0.157702	-0.956090
H97	H	1.234027	-0.191203	-0.682483
H98	H	0.567721	-0.157701	-0.238782
H99	H	1.234053	-1.052257	-0.472656
H100	H	1.000032	-0.702264	-0.238397
H101	H	1.284455	-0.801013	-0.523194
H102	H	0.443896	-0.191193	-0.289245
H103	H	0.999970	-0.345900	-0.955977
H104	H	1.050744	-1.052444	-0.289053
H105	H	0.841312	-0.191154	-0.289205
H106	H	1.000079	-0.801314	-0.238414
H107	H	0.999953	-0.345934	-0.806198
H108	H	0.841312	-0.312648	-0.472270
H109	H	1.284627	-0.157740	-0.806328
H110	H	1.233788	-0.450845	-0.472482
H111	H	0.717500	-0.157689	-0.238762
H112	H	0.443900	-0.312680	-0.472297
H113	H	1.233821	-0.549896	-0.472532
H114	H	1.234097	-0.191114	-1.079895
H115	H	1.284414	-0.701966	-0.523161
