data_functionalizedCrystal
_audit_creation_method	'MofGen! by Chris Wilmer'
_symmetry_space_group_name_H-M	'P1'
_symmetry_Int_Tables_number	1
_symmetry_cell_setting	triclinic
loop_
_symmetry_equiv_pos_as_xyz
  x,y,z
_cell_length_a	27.732064
_cell_length_b	27.732048
_cell_length_c	10.065875
_cell_angle_alpha	98.710990
_cell_angle_beta	81.333551
_cell_angle_gamma	82.646040
loop_
_atom_site_label
_atom_site_type_symbol
_atom_site_fract_x
_atom_site_fract_y
_atom_site_fract_z
O1	O	0.648033	0.050412	-0.113260
O2	O	0.981366	0.383745	0.220073
O3	O	1.314700	0.717079	0.553407
O4	O	0.507244	0.059146	-0.113318
O5	O	0.840578	0.392479	0.220015
O6	O	1.173911	0.725812	0.553349
O7	O	0.582009	-0.015616	-0.113261
O8	O	0.915343	0.317717	0.220072
O9	O	1.248676	0.651051	0.553405
O10	O	0.573268	0.125174	-0.113317
O11	O	0.906601	0.458507	0.220017
O12	O	1.239934	0.791840	0.553350
O13	O	0.567752	-0.001303	0.113717
O14	O	0.901086	0.332030	0.447050
O15	O	1.234419	0.665364	0.780383
O16	O	0.492987	0.073458	0.113660
O17	O	0.826320	0.406792	0.446993
O18	O	1.159654	0.740125	0.780326
O19	O	0.633776	0.064725	0.113718
O20	O	0.967109	0.398058	0.447051
O21	O	1.300442	0.731392	0.780385
Zn22	Zn	0.561118	0.071364	0.149726
Zn23	Zn	0.894451	0.404697	0.483060
Zn24	Zn	1.227784	0.738031	0.816393
Zn25	Zn	0.579902	0.052506	-0.149327
Zn26	Zn	0.913236	0.385840	0.184007
Zn27	Zn	1.246569	0.719173	0.517340
O28	O	0.559010	0.139486	0.113661
O29	O	0.892344	0.472820	0.446994
O30	O	1.225677	0.806153	0.780328
C31	C	0.482109	0.066117	0.000164
C32	C	0.815443	0.399450	0.333497
C33	C	1.148776	0.732783	0.666830
C34	C	0.428456	0.065560	0.000143
C35	C	0.761790	0.398893	0.333476
C36	C	1.095123	0.732226	0.666809
C37	C	0.051377	0.017598	0.000239
C38	C	0.384711	0.350932	0.333573
C39	C	0.718044	0.684265	0.666906
C40	C	0.253040	0.019642	0.000203
C41	C	0.586373	0.352976	0.333536
C42	C	0.919707	0.686309	0.666870
O43	O	0.284288	-0.017575	0.000269
O44	O	0.617622	0.315759	0.333602
O45	O	0.950955	0.649092	0.666935
N46	N	0.272169	0.063975	0.000179
N47	N	0.605502	0.397309	0.333513
N48	N	0.938836	0.730642	0.666846
C49	C	0.240878	0.107801	0.000174
C50	C	0.574211	0.441134	0.333507
C51	C	0.907545	0.774467	0.666841
O52	O	0.261775	0.145556	0.000167
O53	O	0.595108	0.478890	0.333500
O54	O	0.928442	0.812223	0.666834
C55	C	0.039216	0.105757	0.000220
C56	C	0.372549	0.439090	0.333553
C57	C	0.705883	0.772424	0.666887
C58	C	0.020091	0.061420	0.000230
C59	C	0.353424	0.394754	0.333563
C60	C	0.686758	0.728087	0.666896
C61	C	0.032252	-0.026734	0.000251
C62	C	0.365585	0.306599	0.333584
C63	C	0.698918	0.639932	0.666917
C64	C	-0.018161	-0.027245	0.000252
C65	C	0.315173	0.306088	0.333586
C66	C	0.648506	0.639421	0.666919
C67	C	-0.049447	0.016576	0.000243
C68	C	0.283886	0.349910	0.333576
C69	C	0.617220	0.683243	0.666909
C70	C	-0.030321	0.060909	0.000231
C71	C	0.303012	0.394243	0.333565
C72	C	0.636345	0.727576	0.666898
C73	C	0.007926	0.149582	0.000224
C74	C	0.341259	0.482916	0.333558
C75	C	0.674592	0.816249	0.666891
C76	C	-0.042493	0.149068	0.000239
C77	C	0.290840	0.482401	0.333573
C78	C	0.624174	0.815734	0.666906
C79	C	-0.061618	0.104731	0.000249
C80	C	0.271715	0.438065	0.333582
C81	C	0.605049	0.771398	0.666916
C82	C	-0.112020	0.104220	0.000223
C83	C	0.221313	0.437554	0.333557
C84	C	0.554647	0.770887	0.666890
N85	N	-0.131149	0.059887	0.000247
N86	N	0.202184	0.393221	0.333580
N87	N	0.535518	0.726554	0.666914
C88	C	-0.099863	0.016066	0.000257
C89	C	0.233471	0.349399	0.333590
C90	C	0.566804	0.682732	0.666923
C91	C	0.346754	0.108870	0.000147
C92	C	0.680088	0.442204	0.333480
C93	C	1.013421	0.775537	0.666814
C94	C	0.397170	0.109381	0.000133
C95	C	0.730503	0.442715	0.333466
C96	C	1.063836	0.776048	0.666800
C97	C	0.409328	0.021223	0.000165
C98	C	0.742661	0.354556	0.333498
C99	C	1.075995	0.687890	0.666831
C100	C	0.358912	0.020712	0.000169
C101	C	0.692245	0.354045	0.333502
C102	C	1.025579	0.687379	0.666836
C103	C	0.327625	0.064538	0.000171
C104	C	0.660959	0.397871	0.333504
C105	C	0.994292	0.731204	0.666837
C106	C	-0.205732	0.014996	0.000259
C107	C	0.127601	0.348329	0.333592
C108	C	0.460934	0.681662	0.666926
C109	C	-0.256149	0.014488	0.000255
C110	C	0.077184	0.347822	0.333588
C111	C	0.410518	0.681155	0.666921
C112	C	-0.268303	0.102647	0.000230
C113	C	0.065030	0.435980	0.333564
C114	C	0.398363	0.769313	0.666897
C115	C	-0.217890	0.103154	0.000227
C116	C	0.115443	0.436487	0.333560
C117	C	0.448776	0.769821	0.666894
C118	C	-0.186606	0.059325	0.000246
C119	C	0.146728	0.392658	0.333579
C120	C	0.480061	0.725992	0.666913
O121	O	-0.143298	0.141418	0.000173
O122	O	0.190035	0.474751	0.333506
O123	O	0.523369	0.808085	0.666840
O124	O	-0.120771	-0.021683	0.000294
O125	O	0.212563	0.311651	0.333627
O126	O	0.545896	0.644984	0.666960
C127	C	0.101790	0.018109	0.000238
C128	C	0.435123	0.351443	0.333571
C129	C	0.768456	0.684776	0.666904
C130	C	0.120915	0.062442	0.000226
C131	C	0.454249	0.395776	0.333560
C132	C	0.787582	0.729109	0.666893
C133	C	0.089629	0.106264	0.000217
C134	C	0.422962	0.439597	0.333550
C135	C	0.756295	0.772931	0.666883
C136	C	0.171331	0.062953	0.000212
C137	C	0.504664	0.396287	0.333546
C138	C	0.837997	0.729620	0.666879
C139	C	0.202617	0.019131	0.000222
C140	C	0.535951	0.352465	0.333555
C141	C	0.869284	0.685798	0.666889
C142	C	0.183488	-0.025201	0.000246
C143	C	0.516822	0.308132	0.333579
C144	C	0.850155	0.641465	0.666912
C145	C	0.133076	-0.025712	0.000247
C146	C	0.466409	0.307621	0.333581
C147	C	0.799743	0.640954	0.666914
C148	C	0.108758	0.150597	0.000193
C149	C	0.442091	0.483930	0.333527
C150	C	0.775424	0.817264	0.666860
C151	C	0.159171	0.151104	0.000190
C152	C	0.492504	0.484438	0.333523
C153	C	0.825837	0.817771	0.666857
C154	C	0.190457	0.107282	0.000200
C155	C	0.523790	0.440616	0.333533
C156	C	0.857124	0.773949	0.666866
C157	C	0.574697	-0.026466	0.000231
C158	C	0.908030	0.306867	0.333565
C159	C	1.241364	0.640200	0.666898
C160	C	0.574144	-0.080120	0.000242
C161	C	0.907477	0.253213	0.333576
C162	C	1.240810	0.586546	0.666909
C163	C	0.614850	-0.418936	0.000189
C164	C	0.948184	-0.085603	0.333522
C165	C	1.281517	0.247730	0.666856
C166	C	0.612801	-0.620597	0.000169
C167	C	0.946134	-0.287264	0.333503
C168	C	1.279467	0.046069	0.666836
O169	O	0.650024	-0.651854	0.000125
O170	O	0.983357	-0.318520	0.333458
O171	O	1.316691	0.014813	0.666792
N172	N	0.568467	-0.639725	0.000152
N173	N	0.901800	-0.306392	0.333486
N174	N	1.235134	0.026942	0.666819
C175	C	0.524643	-0.608434	0.000131
C176	C	0.857976	-0.275101	0.333465
C177	C	1.191310	0.058232	0.666798
O178	O	0.486888	-0.629331	0.000102
O179	O	0.820222	-0.295998	0.333436
O180	O	1.153555	0.037335	0.666769
C181	C	0.526694	-0.406775	0.000141
C182	C	0.860027	-0.073441	0.333475
C183	C	1.193361	0.259892	0.666808
C184	C	0.571030	-0.387649	0.000172
C185	C	0.904363	-0.054316	0.333506
C186	C	1.237696	0.279017	0.666839
C187	C	0.659183	-0.399811	0.000219
C188	C	0.992516	-0.066477	0.333552
C189	C	1.325849	0.266856	0.666885
C190	C	0.659694	-0.349398	0.000231
C191	C	0.993028	-0.016065	0.333564
C192	C	1.326361	0.317269	0.666898
C193	C	0.615873	-0.318111	0.000214
C194	C	0.949207	0.015222	0.333547
C195	C	1.282540	0.348556	0.666881
C196	C	0.571541	-0.337237	0.000185
C197	C	0.904874	-0.003903	0.333518
C198	C	1.238208	0.329430	0.666851
C199	C	0.482871	-0.375486	0.000110
C200	C	0.816204	-0.042152	0.333444
C201	C	1.149538	0.291181	0.666777
C202	C	0.483388	-0.325068	0.000110
C203	C	0.816721	0.008265	0.333443
C204	C	1.150055	0.341598	0.666776
C205	C	0.527724	-0.305943	0.000140
C206	C	0.861057	0.027390	0.333474
C207	C	1.194390	0.360724	0.666807
C208	C	0.528232	-0.255537	0.000180
C209	C	0.861565	0.077796	0.333513
C210	C	1.194899	0.411130	0.666847
N211	N	0.572566	-0.236410	0.000197
N212	N	0.905899	0.096924	0.333530
N213	N	1.239232	0.430257	0.666864
C214	C	0.616386	-0.267696	0.000214
C215	C	0.949720	0.065637	0.333547
C216	C	1.283053	0.398970	0.666881
C217	C	0.523569	-0.714309	0.000129
C218	C	0.856903	-0.380975	0.333462
C219	C	1.190236	-0.047642	0.666795
C220	C	0.523056	-0.764723	0.000129
C221	C	0.856390	-0.431390	0.333462
C222	C	1.189723	-0.098056	0.666795
C223	C	0.611214	-0.776883	0.000164
C224	C	0.944548	-0.443550	0.333497
C225	C	1.277881	-0.110216	0.666831
C226	C	0.611726	-0.726467	0.000174
C227	C	0.945060	-0.393134	0.333507
C228	C	1.278393	-0.059800	0.666841
C229	C	0.567903	-0.695181	0.000146
C230	C	0.901236	-0.361848	0.333479
C231	C	1.234570	-0.028514	0.666812
C232	C	0.617457	-0.161826	0.000241
C233	C	0.950791	0.171508	0.333575
C234	C	1.284124	0.504841	0.666908
C235	C	0.617964	-0.111407	0.000259
C236	C	0.951298	0.221926	0.333593
C237	C	1.284631	0.555259	0.666926
C238	C	0.529807	-0.099252	0.000217
C239	C	0.863140	0.234081	0.333550
C240	C	1.196474	0.567414	0.666883
C241	C	0.529299	-0.149666	0.000206
C242	C	0.862632	0.183668	0.333539
C243	C	1.195966	0.517001	0.666872
C244	C	0.573128	-0.180952	0.000213
C245	C	0.906462	0.152382	0.333547
C246	C	1.239795	0.485715	0.666880
O247	O	0.491030	-0.224253	0.000209
O248	O	0.824363	0.109080	0.333542
O249	O	1.157696	0.442413	0.666876
O250	O	0.654138	-0.246792	0.000213
O251	O	0.987471	0.086542	0.333546
O252	O	1.320804	0.419875	0.666879
C253	C	0.614339	-0.469349	0.000177
C254	C	0.947672	-0.136016	0.333510
C255	C	1.281006	0.197317	0.666843
C256	C	0.570007	-0.488475	0.000147
C257	C	0.903340	-0.155142	0.333481
C258	C	1.236673	0.178192	0.666814
C259	C	0.526186	-0.457188	0.000130
C260	C	0.859519	-0.123855	0.333464
C261	C	1.192853	0.209479	0.666797
C262	C	0.569494	-0.538889	0.000147
C263	C	0.902827	-0.205556	0.333481
C264	C	1.236160	0.127777	0.666814
C265	C	0.613314	-0.570176	0.000164
C266	C	0.946648	-0.236843	0.333498
C267	C	1.279981	0.096490	0.666831
C268	C	0.657648	-0.551049	0.000181
C269	C	0.990982	-0.217716	0.333515
C270	C	1.324315	0.115618	0.666848
C271	C	0.658160	-0.500636	0.000194
C272	C	0.991493	-0.167303	0.333527
C273	C	1.324826	0.166030	0.666860
C274	C	0.481852	-0.476315	0.000113
C275	C	0.815185	-0.142982	0.333447
C276	C	1.148519	0.190351	0.666780
C277	C	0.481344	-0.526729	0.000103
C278	C	0.814677	-0.193395	0.333436
C279	C	1.148011	0.139938	0.666769
C280	C	0.525165	-0.558016	0.000119
C281	C	0.858498	-0.224682	0.333453
C282	C	1.191832	0.108651	0.666786
C283	C	0.658911	0.057753	0.000233
C284	C	0.992244	0.391087	0.333566
C285	C	1.325577	0.724420	0.666900
C286	C	0.712564	0.058310	0.000245
C287	C	1.045898	0.391643	0.333579
C288	C	1.379231	0.724977	0.666912
C289	C	0.566323	0.150336	0.000165
C290	C	0.899656	0.483670	0.333499
C291	C	1.232990	0.817003	0.666832
C292	C	0.566877	0.203990	0.000145
C293	C	0.900210	0.537323	0.333479
C294	C	1.233544	0.870657	0.666812
N295	N	0.548301	0.084234	0.353822
N296	N	0.881635	0.417567	0.687156
N297	N	1.214968	0.750900	1.020489
N298	N	0.592722	0.039633	-0.353422
N299	N	0.926056	0.372966	-0.020089
N300	N	1.259389	0.706300	0.313244
C301	C	0.575440	0.056981	0.421622
C302	C	0.908773	0.390314	0.754955
C303	C	1.242107	0.723648	1.088288
C304	C	0.565580	0.066889	0.578782
C305	C	0.898913	0.400223	0.912115
C306	C	1.232247	0.733556	1.245448
H307	H	-0.067965	0.184757	0.000247
H308	H	0.265368	0.518091	0.333580
H309	H	0.598702	0.851424	0.666914
O310	O	0.615885	0.016356	0.344400
O311	O	0.949218	0.349689	0.677734
O312	O	1.282552	0.683022	1.011067
H313	H	0.634262	-0.002103	0.417971
H314	H	0.967596	0.331230	0.751305
H315	H	1.300929	0.664564	1.084638
O316	O	0.217241	-0.072466	0.000261
O317	O	0.550574	0.260868	0.333594
O318	O	0.883907	0.594201	0.666928
H319	H	0.195476	-0.103384	0.000266
H320	H	0.528810	0.229949	0.333600
H321	H	0.862143	0.563282	0.666933
O322	O	0.434582	-0.442577	0.000111
O323	O	0.767915	-0.109243	0.333444
O324	O	1.101248	0.224090	0.666778
H325	H	0.438506	-0.425144	-0.092399
H326	H	0.771839	-0.091810	0.240935
H327	H	1.105173	0.241523	0.574268
O328	O	-0.171994	-0.032276	0.000283
O329	O	0.161339	0.301057	0.333617
O330	O	0.494672	0.634390	0.666950
H331	H	-0.142926	-0.039986	-0.092224
H332	H	0.190407	0.293348	0.241110
H333	H	0.523740	0.626681	0.574443
O334	O	0.476296	-0.680570	0.000118
O335	O	0.809629	-0.347237	0.333451
O336	O	1.142962	-0.013903	0.666785
H337	H	0.480220	-0.663141	-0.092398
H338	H	0.813554	-0.329808	0.240935
H339	H	1.146887	0.003526	0.574268
H340	H	0.434810	-0.014459	0.000168
H341	H	0.768144	0.318875	0.333501
H342	H	1.101477	0.652208	0.666834
H343	H	0.412738	0.145483	0.000106
H344	H	0.746071	0.478817	0.333439
H345	H	1.079404	0.812150	0.666773
O346	O	0.179796	0.198928	0.000197
O347	O	0.513129	0.532262	0.333530
O348	O	0.846462	0.865595	0.666863
H349	H	0.149564	0.229313	0.000210
H350	H	0.482898	0.562646	0.333543
H351	H	0.816231	0.895980	0.666877
O352	O	0.525138	0.107520	0.656007
O353	O	0.858471	0.440853	0.989340
O354	O	1.191805	0.774187	1.322673
H355	H	0.532835	0.143413	0.628635
H356	H	0.866168	0.476746	0.961968
H357	H	1.199502	0.810079	1.295301
O358	O	0.065994	-0.074003	0.000259
O359	O	0.399327	0.259330	0.333592
O360	O	0.732660	0.592663	0.666925
H361	H	0.044216	-0.104912	0.000261
H362	H	0.377550	0.228421	0.333595
H363	H	0.710883	0.561755	0.666928
H364	H	0.623257	0.008962	0.588280
H365	H	0.956590	0.342295	0.921613
H366	H	1.289923	0.675628	1.254947
H367	H	0.517766	0.114899	0.412125
H368	H	0.851099	0.448233	0.745458
H369	H	1.184432	0.781566	1.078792
O370	O	-0.302056	0.149909	0.000221
O371	O	0.031278	0.483242	0.333555
O372	O	0.364611	0.816576	0.666888
H373	H	-0.280290	0.180826	0.000203
H374	H	0.053044	0.514159	0.333536
H375	H	0.386377	0.847493	0.666870
O376	O	-0.197259	0.150973	0.000203
O377	O	0.136074	0.484306	0.333536
O378	O	0.469408	0.817639	0.666870
H379	H	-0.180387	0.159145	0.092715
H380	H	0.152946	0.492478	0.426049
H381	H	0.486279	0.825811	0.759382
H382	H	0.447701	-0.299597	0.000085
H383	H	0.781034	0.033736	0.333418
H384	H	1.114368	0.367069	0.666751
H385	H	0.494129	-0.073769	0.000208
H386	H	0.827462	0.259564	0.333541
H387	H	1.160796	0.592897	0.666874
H388	H	0.343344	-0.015391	0.000178
H389	H	0.676678	0.317943	0.333511
H390	H	1.010011	0.651276	0.666845
O391	O	0.313011	0.156142	0.000139
O392	O	0.646345	0.489475	0.333472
O393	O	0.979678	0.822808	0.666806
H394	H	0.334789	0.187050	0.000107
H395	H	0.668122	0.520383	0.333440
H396	H	1.001456	0.853716	0.666774
H397	H	-0.271717	-0.021618	0.000259
H398	H	0.061616	0.311716	0.333593
H399	H	0.394949	0.645049	0.666926
O400	O	0.112452	-0.073532	0.000284
O401	O	0.445785	0.259801	0.333617
O402	O	0.779119	0.593134	0.666951
H403	H	0.130854	-0.100406	-0.092213
H404	H	0.464187	0.232928	0.241121
H405	H	0.797521	0.566261	0.574454
O406	O	0.075016	0.197864	0.000184
O407	O	0.408349	0.531198	0.333517
O408	O	0.741682	0.864531	0.666850
H409	H	0.087583	0.213261	-0.092344
H410	H	0.420917	0.546595	0.240989
H411	H	0.754250	0.879928	0.574323
O412	O	-0.038784	-0.075065	0.000298
O413	O	0.294549	0.258268	0.333631
O414	O	0.627882	0.591601	0.666965
H415	H	-0.020383	-0.101941	-0.092195
H416	H	0.312950	0.231393	0.241138
H417	H	0.646284	0.564726	0.574471
O418	O	0.028539	0.197408	0.000247
O419	O	0.361873	0.530741	0.333580
O420	O	0.695206	0.864074	0.666913
H421	H	0.021744	0.212623	-0.092252
H422	H	0.355077	0.545956	0.241082
H423	H	0.688411	0.879289	0.574415
O424	O	0.665786	-0.090780	0.000271
O425	O	0.999120	0.242554	0.333605
O426	O	1.332453	0.575887	0.666938
H427	H	0.696172	-0.121010	0.000261
H428	H	1.029505	0.212324	0.333594
H429	H	1.362838	0.545657	0.666927
O430	O	0.664727	-0.195565	0.000270
O431	O	0.998061	0.137768	0.333603
O432	O	1.331394	0.471101	0.666936
H433	H	0.695635	-0.173788	0.000309
H434	H	1.028969	0.159545	0.333642
H435	H	1.362302	0.492879	0.666975
H436	H	0.695797	-0.333832	0.000250
H437	H	1.029131	-0.000498	0.333584
H438	H	1.362464	0.332835	0.666917
H439	H	0.694869	-0.425281	0.000227
H440	H	1.028203	-0.091947	0.333561
H441	H	1.361536	0.241386	0.666894
H442	H	0.646895	-0.802366	0.000179
H443	H	0.980228	-0.469032	0.333512
H444	H	1.313561	-0.135699	0.666845
O445	O	0.659546	-0.705841	0.000182
O446	O	0.992879	-0.372507	0.333515
O447	O	1.326213	-0.039174	0.666848
H448	H	0.689929	-0.736072	0.000182
H449	H	1.023262	-0.402738	0.333516
H450	H	1.356596	-0.069405	0.666849
H451	H	0.486952	-0.780288	0.000127
H452	H	0.820286	-0.446955	0.333460
H453	H	1.153619	-0.113622	0.666794
O454	O	0.435052	-0.396107	0.000072
O455	O	0.768385	-0.062774	0.333406
O456	O	1.101719	0.270559	0.666739
H457	H	0.404673	-0.365876	0.000044
H458	H	0.738006	-0.032542	0.333377
H459	H	1.071340	0.300791	0.666710
H460	H	0.493195	-0.165236	0.000219
H461	H	0.826528	0.168098	0.333552
H462	H	1.159862	0.501431	0.666885
H463	H	0.693328	-0.576531	0.000201
H464	H	1.026662	-0.243198	0.333534
H465	H	1.359995	0.090135	0.666868
O466	O	0.705981	-0.480012	0.000200
O467	O	1.039314	-0.146679	0.333533
O468	O	1.372647	0.186655	0.666866
H469	H	0.736363	-0.510245	0.000192
H470	H	1.069696	-0.176912	0.333525
H471	H	1.403029	0.156422	0.666859
H472	H	0.445237	-0.542294	0.000089
H473	H	0.778571	-0.208961	0.333423
H474	H	1.111904	0.124372	0.666756
