data_functionalizedCrystal
_audit_creation_method	'MofGen! by Chris Wilmer'
_symmetry_space_group_name_H-M	'P1'
_symmetry_Int_Tables_number	1
_symmetry_cell_setting	triclinic
loop_
_symmetry_equiv_pos_as_xyz
  x,y,z
_cell_length_a	12.645331
_cell_length_b	12.594516
_cell_length_c	12.645323
_cell_angle_alpha	89.976054
_cell_angle_beta	89.984262
_cell_angle_gamma	90.015287
loop_
_atom_site_label
_atom_site_type_symbol
_atom_site_fract_x
_atom_site_fract_y
_atom_site_fract_z
Zn1	Zn	1.620743	-0.423755	-0.599257
Zn2	Zn	1.620630	-0.601759	-0.422000
Zn3	Zn	1.443458	-0.423792	-0.422023
Zn4	Zn	1.443445	-0.601690	-0.599237
O5	O	1.532069	-0.512749	-0.510629
O6	O	1.769075	-0.447381	-0.575742
O7	O	1.597086	-0.578195	-0.273655
O8	O	1.467028	-0.274842	-0.445551
O9	O	1.768992	-0.578160	-0.445512
O10	O	1.597279	-0.274815	-0.575764
O11	O	1.466918	-0.447444	-0.273672
O12	O	1.295109	-0.447377	-0.445532
O13	O	1.467006	-0.578042	-0.747587
O14	O	1.295099	-0.578078	-0.575730
O15	O	1.597266	-0.447315	-0.747602
O16	O	1.597073	-0.750695	-0.445493
O17	O	1.466896	-0.750645	-0.575708
C18	C	1.256639	-0.512725	-0.510632
C19	C	1.138809	-0.512740	-0.510658
C20	C	0.971275	-0.595415	-0.592139
C21	C	1.093835	-0.595148	-0.592479
C22	C	1.094328	-0.400635	-0.541178
C23	C	0.971730	-0.401139	-0.541751
C24	C	0.971564	-0.541268	-0.398399
C25	C	1.094170	-0.543720	-0.399005
C26	C	1.531999	-0.789290	-0.510619
C27	C	1.532067	-0.907596	-0.510650
C28	C	1.461256	-0.976860	-0.581424
C29	C	1.435425	-1.047721	-0.484694
C30	C	1.557995	-1.047533	-0.607396
C31	C	1.506184	-0.976899	-0.413869
C32	C	1.628799	-0.976705	-0.536636
C33	C	1.603004	-1.047534	-0.439839
C34	C	1.808574	-0.512774	-0.510627
C35	C	1.926404	-0.512785	-0.510626
C36	C	1.532147	-0.512667	-0.787134
C37	C	1.532180	-0.512632	-0.904965
C38	C	1.532168	-0.235128	-0.510663
C39	C	1.532210	-0.116823	-0.510677
C40	C	1.449981	-0.594485	-1.072519
C41	C	1.450196	-0.594890	-0.949959
C42	C	1.643881	-0.543074	-0.949471
C43	C	1.643430	-0.543587	-1.072070
C44	C	1.503736	-0.399879	-1.072164
C45	C	1.501244	-0.400554	-0.949558
C46	C	1.532052	-0.512754	-0.235199
C47	C	1.532224	-0.512490	-0.117370
H48	H	1.123183	-0.576298	-0.675635
N49	N	1.682406	-1.088383	-0.360487
H50	H	1.645068	-1.133612	-0.306080
H51	H	1.737516	-1.132417	-0.398128
N52	N	1.132685	-0.652978	-0.368455
H53	H	1.174932	-0.648275	-0.300847
H54	H	1.070010	-0.701455	-0.357407
N55	N	1.583063	-0.318944	-1.110590
H56	H	1.619714	-0.285514	-1.047939
H57	H	1.637137	-0.355056	-1.157068
H58	H	0.940645	-0.621621	-0.370659
N59	N	1.340490	-0.569660	-0.910066
H60	H	1.342854	-0.503157	-0.865520
H61	H	1.291596	-0.558221	-0.972172
N62	N	1.134716	-0.469787	-0.314233
H63	H	1.182806	-0.414915	-0.347152
H64	H	1.073027	-0.433134	-0.279025
H65	H	0.940483	-0.576809	-0.674811
N66	N	1.574791	-0.315345	-0.908998
H67	H	1.571074	-0.312754	-0.829255
H68	H	1.649561	-0.331952	-0.931686
H69	H	1.423702	-0.372130	-1.103077
H70	H	1.668442	-0.624532	-0.918781
N71	N	1.339928	-0.569484	-1.111541
H72	H	1.342311	-0.504768	-1.158677
H73	H	1.311665	-0.631951	-1.152864
H74	H	1.579867	-1.078561	-0.689202
N75	N	1.474664	-0.704388	-1.113301
H76	H	1.538887	-0.701293	-1.160706
H77	H	1.489306	-0.753238	-1.051665
N78	N	1.327147	-1.089041	-0.455595
H79	H	1.328177	-1.169226	-0.455148
H80	H	1.307121	-1.062165	-0.383068
N81	N	1.475118	-0.705478	-0.911144
H82	H	1.546945	-0.727712	-0.938154
H83	H	1.475293	-0.706150	-0.831279
H84	H	0.942546	-0.481081	-0.337665
N85	N	1.132910	-0.316854	-0.465007
H86	H	1.108523	-0.334982	-0.391109
H87	H	1.212710	-0.314044	-0.466824
N88	N	1.392365	-0.370131	-0.911017
H89	H	1.372906	-0.297978	-0.939952
H90	H	1.339254	-0.424468	-0.936095
H91	H	1.401267	-0.945827	-0.641188
H92	H	1.125052	-0.376035	-0.622331
H93	H	1.667577	-0.625908	-1.100679
H94	H	1.706786	-0.486458	-1.101740
N95	N	1.737048	-0.935353	-0.565772
H96	H	1.756517	-0.960999	-0.638894
H97	H	1.736277	-0.855173	-0.564798
N98	N	0.932404	-0.316851	-0.466516
H99	H	0.852534	-0.316533	-0.466290
H100	H	0.959179	-0.332552	-0.392915
N101	N	0.932180	-0.705890	-0.567093
H102	H	0.890822	-0.734374	-0.629237
H103	H	0.994551	-0.753793	-0.552569
H104	H	1.706802	-0.485241	-0.920328
N105	N	0.933867	-0.369036	-0.650392
H106	H	0.996816	-0.354702	-0.697463
H107	H	0.889997	-0.428225	-0.681668
H108	H	1.484217	-0.945999	-0.332040
H109	H	1.123909	-0.678281	-0.573352
