data_functionalizedCrystal
_audit_creation_method	'MofGen! by Chris Wilmer'
_symmetry_space_group_name_H-M	'P1'
_symmetry_Int_Tables_number	1
_symmetry_cell_setting	triclinic
loop_
_symmetry_equiv_pos_as_xyz
  x,y,z
_cell_length_a	18.050590
_cell_length_b	18.050589
_cell_length_c	16.120297
_cell_angle_alpha	92.875657
_cell_angle_beta	92.894469
_cell_angle_gamma	90.017386
loop_
_atom_site_label
_atom_site_type_symbol
_atom_site_fract_x
_atom_site_fract_y
_atom_site_fract_z
Zn1	Zn	1.114048	-0.317167	-0.471066
Zn2	Zn	1.120246	-0.435063	-0.331662
Zn3	Zn	0.996152	-0.310870	-0.331706
Zn4	Zn	0.989815	-0.441296	-0.471068
O5	O	1.055065	-0.376099	-0.401376
O6	O	1.218796	-0.332833	-0.452555
O7	O	1.109030	-0.413344	-0.215003
O8	O	1.011850	-0.207781	-0.350209
O9	O	1.223349	-0.419450	-0.350135
O10	O	1.098467	-0.212408	-0.452597
O11	O	1.017859	-0.322100	-0.215035
O12	O	0.891386	-0.328144	-0.350212
O13	O	1.001049	-0.430074	-0.587733
O14	O	0.886730	-0.423968	-0.452601
O15	O	1.092323	-0.338877	-0.587731
O16	O	1.102885	-0.539813	-0.350138
O17	O	1.007059	-0.544393	-0.452559
C18	C	0.862112	-0.376050	-0.401412
C19	C	0.779564	-0.376047	-0.401447
C20	C	0.577609	-0.428292	-0.456994
C21	C	0.527291	-0.361502	-0.477503
C22	C	0.628436	-0.376087	-0.401406
C23	C	0.531672	-0.442916	-0.380895
C24	C	0.482452	-0.376131	-0.401368
C25	C	0.579203	-0.309263	-0.421956
C26	C	0.583590	-0.390720	-0.325312
C27	C	0.533296	-0.323882	-0.345793
C28	C	0.712533	-0.376063	-0.401430
C29	C	0.398357	-0.376148	-0.401344
C30	C	1.054976	-0.569050	-0.401362
C31	C	1.055005	-0.651597	-0.401384
C32	C	1.002944	-0.853564	-0.457061
C33	C	0.988277	-0.899564	-0.380992
C34	C	1.055077	-0.802728	-0.401395
C35	C	1.069781	-0.903810	-0.477473
C36	C	1.055146	-0.948714	-0.401412
C37	C	1.040376	-0.847639	-0.325285
C38	C	1.121910	-0.851883	-0.421818
C39	C	1.107270	-0.897858	-0.345696
C40	C	1.055036	-0.718629	-0.401386
C41	C	1.055187	-1.032810	-0.401412
C42	C	1.248773	-0.376149	-0.401340
C43	C	1.331319	-0.376170	-0.401325
C44	C	1.045288	-0.385873	-0.618828
C45	C	1.041121	-0.390038	-0.711493
C46	C	1.055174	-0.182395	-0.401408
C47	C	1.055220	-0.099849	-0.401421
C48	C	1.033487	-0.397626	-0.881153
C49	C	1.076790	-0.354349	-0.922450
C50	C	1.072543	-0.358571	-1.016854
C51	C	1.037733	-0.393405	-0.786740
C52	C	1.064848	-0.366309	-0.184769
C53	C	1.069158	-0.361935	-0.092105
H54	H	0.513893	-0.279704	-0.298768
O55	O	0.497887	-0.346624	-0.554199
C56	C	0.455177	-0.281346	-0.548549
H57	H	0.474656	-0.246311	-0.490742
H58	H	0.462097	-0.248380	-0.606169
H59	H	0.394246	-0.296560	-0.544167
O60	O	1.189308	-0.826799	-0.442299
C61	C	1.220392	-0.780859	-0.376219
H62	H	1.194719	-0.795054	-0.315799
H63	H	1.282879	-0.790066	-0.370433
H64	H	1.208713	-0.720309	-0.388988
H65	H	1.082190	-0.928370	-0.541804
H66	H	1.117054	-0.314126	-0.886904
O67	O	0.612944	-0.405621	-0.248608
C68	C	0.587669	-0.475535	-0.226575
H69	H	0.570340	-0.510399	-0.285277
H70	H	0.634121	-0.504887	-0.190736
H71	H	0.538109	-0.467855	-0.185897
H72	H	0.510758	-0.499413	-0.363566
H73	H	0.993227	-0.437846	-0.916697
O74	O	1.159891	-0.921129	-0.289545
C75	C	1.159740	-0.999282	-0.290633
H76	H	1.134814	-1.022417	-0.352996
H77	H	1.219062	-1.020084	-0.281364
H78	H	1.125225	-1.018543	-0.238418
O79	O	0.604059	-0.241899	-0.442865
C80	C	0.644243	-0.250474	-0.515479
H81	H	0.626188	-0.303896	-0.551606
H82	H	0.632957	-0.201260	-0.555881
H83	H	0.706077	-0.253198	-0.497667
O84	O	0.950381	-0.830223	-0.513237
C85	C	0.984493	-0.789919	-0.573641
H86	H	1.045210	-0.806816	-0.576258
H87	H	0.954978	-0.802325	-0.637013
H88	H	0.980875	-0.728025	-0.556497
O89	O	0.600886	-0.480798	-0.513246
C90	C	0.572067	-0.465115	-0.593369
H91	H	0.558134	-0.403597	-0.595055
H92	H	0.615084	-0.479688	-0.640917
H93	H	0.519681	-0.499378	-0.608927
H94	H	1.027902	-0.823167	-0.260936
O95	O	0.920837	-0.924560	-0.360521
C96	C	0.865993	-0.902076	-0.419343
H97	H	0.892745	-0.890910	-0.480069
H98	H	0.822611	-0.947824	-0.431004
H99	H	0.838275	-0.849315	-0.394522
