data_functionalizedCrystal
_audit_creation_method	'MofGen! by Chris Wilmer'
_symmetry_space_group_name_H-M	'P1'
_symmetry_Int_Tables_number	1
_symmetry_cell_setting	triclinic
loop_
_symmetry_equiv_pos_as_xyz
  x,y,z
_cell_length_a	17.699097
_cell_length_b	10.723023
_cell_length_c	9.798715
_cell_angle_alpha	89.998168
_cell_angle_beta	89.992158
_cell_angle_gamma	83.877989
loop_
_atom_site_label
_atom_site_type_symbol
_atom_site_fract_x
_atom_site_fract_y
_atom_site_fract_z
O1	O	1.005065	0.157870	-0.113602
O2	O	1.505065	0.657870	0.386398
O3	O	0.784817	0.178382	-0.113579
O4	O	1.284817	0.678382	0.386421
O5	O	0.900022	-0.013537	-0.113585
O6	O	1.400022	0.486463	0.386415
O7	O	0.889860	0.349789	-0.113595
O8	O	1.389860	0.849789	0.386405
O9	O	0.900012	-0.013536	0.113397
O10	O	1.400012	0.486464	0.613397
O11	O	0.784807	0.178383	0.113403
O12	O	1.284807	0.678383	0.613403
O13	O	1.005055	0.157871	0.113381
O14	O	1.505055	0.657871	0.613381
Zn15	Zn	0.894930	0.168127	0.149430
Zn16	Zn	1.394930	0.668127	0.649430
Zn17	Zn	0.894943	0.168126	-0.149629
Zn18	Zn	1.394943	0.668126	0.350371
O19	O	0.889851	0.349790	0.113387
O20	O	1.389851	0.849790	0.613387
C21	C	0.756611	0.177645	-0.000085
C22	C	1.256611	0.677645	0.499915
C23	C	0.672579	0.175431	-0.000076
C24	C	1.172579	0.675431	0.499924
C25	C	0.156781	0.161863	-0.123859
C26	C	0.656781	0.661863	0.376141
C27	C	0.235738	0.163935	-0.123852
C28	C	0.735738	0.663935	0.376148
C29	C	0.275205	0.164973	-0.000119
C30	C	0.775205	0.664973	0.499881
C31	C	0.235712	0.163927	0.123616
C32	C	0.735712	0.663927	0.623616
C33	C	0.156757	0.161847	0.123608
C34	C	0.656757	0.661847	0.623608
C35	C	0.554129	0.172314	0.123652
C36	C	1.054129	0.672314	0.623652
C37	C	0.633089	0.174398	0.123650
C38	C	1.133089	0.674398	0.623650
C39	C	0.633110	0.174402	-0.123809
C40	C	1.133110	0.674402	0.376191
C41	C	0.554155	0.172322	-0.123817
C42	C	1.054155	0.672322	0.376183
C43	C	0.514669	0.171270	-0.000083
C44	C	1.014669	0.671270	0.499917
C45	C	0.429055	0.169021	-0.000092
C46	C	0.929055	0.669021	0.499908
C47	C	0.360817	0.167230	-0.000109
C48	C	0.860817	0.667230	0.499891
C49	C	0.899277	-0.060024	-0.000095
C50	C	1.399277	0.439976	0.499905
C51	C	0.897065	-0.198540	-0.000100
C52	C	1.397065	0.301460	0.499900
C53	C	0.896084	-0.260290	-0.117685
C54	C	1.396084	0.239710	0.382315
C55	C	0.893798	-0.403454	-0.117692
C56	C	1.393798	0.096546	0.382308
C57	C	1.033261	0.158608	-0.000116
C58	C	1.533261	0.658608	0.499884
C59	C	1.117293	0.160821	-0.000134
C60	C	1.617293	0.660821	0.499866
C61	C	0.890595	0.396276	-0.000106
C62	C	1.390595	0.896276	0.499894
C63	C	0.892807	0.534793	-0.000111
C64	C	1.392807	1.034793	0.499889
N65	N	0.894926	0.168127	0.353530
N66	N	1.394926	0.668127	0.853530
C67	C	0.939057	0.239736	0.421301
C68	C	1.439057	0.739736	0.921301
C69	C	0.939068	0.239736	0.578464
C70	C	1.439068	0.739736	1.078464
N71	N	0.894946	0.168126	0.646272
N72	N	1.394946	0.668126	1.146272
H73	H	0.522024	0.171483	-0.224573
H74	H	1.022024	0.671483	0.275427
H75	H	0.896934	-0.207166	-0.218349
H76	H	1.396934	0.292834	0.281651
H77	H	0.976833	0.301037	0.362970
H78	H	1.476833	0.801037	0.862970
Cl79	Cl	0.682704	0.175701	0.279213
Cl80	Cl	1.182704	0.675701	0.779213
Cl81	Cl	0.836608	0.073461	0.443577
Cl82	Cl	1.336608	0.573461	0.943577
Cl83	Cl	0.836604	0.073471	0.556306
Cl84	Cl	1.336604	0.573471	1.056306
Cl85	Cl	0.285328	0.165230	0.279168
Cl86	Cl	0.785328	0.665230	0.779168
Cl87	Cl	0.682755	0.175716	-0.279363
Cl88	Cl	1.182755	0.675716	0.220637
H89	H	0.124652	0.161027	-0.224618
H90	H	0.624652	0.661027	0.275382
Cl91	Cl	0.285377	0.165238	-0.279400
Cl92	Cl	0.785377	0.665238	0.220600
H93	H	0.893654	-0.412113	0.100564
H94	H	1.393654	0.087887	0.600564
Cl95	Cl	0.895743	-0.280545	0.155326
Cl96	Cl	1.395743	0.219455	0.655326
Cl97	Cl	0.892502	-0.485435	-0.273126
Cl98	Cl	1.392502	0.014565	0.226874
Cl99	Cl	0.504497	0.171025	0.279204
Cl100	Cl	1.004497	0.671025	0.779204
Cl101	Cl	0.107115	0.160525	0.279155
Cl102	Cl	0.607115	0.660525	0.779155
Cl103	Cl	0.997399	0.334401	0.668438
Cl104	Cl	1.497399	0.834401	1.168438
