data_functionalizedCrystal
_audit_creation_method	'MofGen! by Chris Wilmer'
_symmetry_space_group_name_H-M	'P1'
_symmetry_Int_Tables_number	1
_symmetry_cell_setting	triclinic
loop_
_symmetry_equiv_pos_as_xyz
  x,y,z
_cell_length_a	19.188905
_cell_length_b	19.188925
_cell_length_c	7.540329
_cell_angle_alpha	89.996768
_cell_angle_beta	89.989921
_cell_angle_gamma	83.138552
loop_
_atom_site_label
_atom_site_type_symbol
_atom_site_fract_x
_atom_site_fract_y
_atom_site_fract_z
O1	O	0.926153	0.087084	-0.147773
O2	O	0.722839	0.098836	-0.147712
O3	O	0.830365	-0.008697	-0.147735
O4	O	0.818627	0.194616	-0.147751
O5	O	0.830359	-0.008698	0.147230
O6	O	0.722832	0.098835	0.147253
O7	O	0.926146	0.087082	0.147192
Cu8	Cu	0.824489	0.092958	0.174155
Cu9	Cu	0.824496	0.092960	-0.174676
O10	O	0.818620	0.194615	0.147214
C11	C	0.696824	0.098458	-0.000222
C12	C	0.619319	0.097324	-0.000199
C13	C	0.582931	0.096780	-0.160989
C14	C	0.510107	0.095707	-0.161011
C15	C	0.473676	0.095164	-0.000234
C16	C	0.510073	0.095712	0.160578
C17	C	0.582894	0.096792	0.160595
N18	N	0.364654	0.053735	0.119421
N19	N	0.295477	0.052707	0.119393
C20	C	0.254270	0.091911	-0.000276
N21	N	0.284854	0.132173	-0.119944
N22	N	0.354037	0.133197	-0.119922
C23	C	0.394714	0.093993	-0.000234
C24	C	0.138918	0.090205	-0.161101
C25	C	0.066092	0.089136	-0.161116
C26	C	0.066060	0.089134	0.160477
C27	C	0.138884	0.090210	0.160488
C28	C	0.175308	0.090742	-0.000306
C29	C	0.829982	-0.034708	-0.000253
C30	C	0.828843	-0.112213	-0.000256
C31	C	0.884308	-0.673988	-0.000318
C32	C	0.885384	-0.601165	-0.000302
C33	C	0.822291	-0.556225	-0.000284
C34	C	0.758117	-0.584113	-0.000236
C35	C	0.757043	-0.656935	-0.000234
N36	N	0.776617	-0.435540	-0.100669
N37	N	0.777642	-0.366363	-0.100674
C38	C	0.825525	-0.336816	-0.000286
N39	N	0.872356	-0.379061	0.100086
N40	N	0.871332	-0.448245	0.100084
C41	C	0.823450	-0.477261	-0.000285
C42	C	0.890863	-0.229973	-0.000304
C43	C	0.891937	-0.157148	-0.000278
C44	C	0.764668	-0.140097	-0.000229
C45	C	0.763596	-0.212921	-0.000238
C46	C	0.826695	-0.257855	-0.000284
C47	C	0.952161	0.087461	-0.000302
C48	C	1.029666	0.088594	-0.000337
C49	C	0.819003	0.220627	-0.000271
C50	C	0.820142	0.298131	-0.000280
N51	N	0.824489	0.092957	0.419503
N52	N	0.824502	0.092956	-0.420024
H53	H	0.612583	0.097214	-0.291920
H54	H	0.168575	0.090646	-0.292029
Cl55	Cl	0.970186	-0.286464	-0.000352
Cl56	Cl	0.963633	-0.730472	-0.000356
H57	H	0.704790	-0.679634	-0.000199
H58	H	0.480474	0.095265	-0.291950
Cl59	Cl	0.682925	-0.247973	-0.000207
Cl60	Cl	0.972610	-0.122098	-0.000333
H61	H	0.706747	-0.547518	-0.000215
Cl62	Cl	0.464275	0.095034	0.362698
H63	H	0.937637	-0.578460	-0.000333
H64	H	0.036399	0.088696	0.291385
Cl65	Cl	0.628642	0.097475	0.362749
H66	H	0.036465	0.088698	-0.292056
H67	H	0.168512	0.090648	0.291420
Cl68	Cl	0.685350	-0.083608	-0.000182
