data_functionalizedCrystal
_audit_creation_method	'MofGen! by Chris Wilmer'
_symmetry_space_group_name_H-M	'P1'
_symmetry_Int_Tables_number	1
_symmetry_cell_setting	triclinic
loop_
_symmetry_equiv_pos_as_xyz
  x,y,z
_cell_length_a	19.288835
_cell_length_b	27.732048
_cell_length_c	18.366186
_cell_angle_alpha	89.988789
_cell_angle_beta	90.017524
_cell_angle_gamma	97.116693
loop_
_atom_site_label
_atom_site_type_symbol
_atom_site_fract_x
_atom_site_fract_y
_atom_site_fract_z
O1	O	-0.920990	0.060231	-0.060700
O2	O	-0.587657	0.393564	0.272633
O3	O	-0.254324	0.726897	0.605966
O4	O	-0.718676	0.068380	-0.060671
O5	O	-0.385343	0.401713	0.272662
O6	O	-0.052009	0.735047	0.605995
O7	O	-0.826117	-0.006073	-0.060673
O8	O	-0.492783	0.327260	0.272661
O9	O	-0.159450	0.660594	0.605994
O10	O	-0.813550	0.134684	-0.060699
O11	O	-0.480216	0.468017	0.272635
O12	O	-0.146883	0.801350	0.605968
O13	O	-0.826099	-0.006077	0.060427
O14	O	-0.492765	0.327257	0.393760
O15	O	-0.159432	0.660590	0.727093
O16	O	-0.718658	0.068376	0.060428
O17	O	-0.385325	0.401710	0.393761
O18	O	-0.051991	0.735043	0.727095
O19	O	-0.920972	0.060227	0.060399
O20	O	-0.587639	0.393560	0.393733
O21	O	-0.254306	0.726894	0.727066
Zn22	Zn	-0.819812	0.064301	0.079641
Zn23	Zn	-0.486479	0.397634	0.412974
Zn24	Zn	-0.153146	0.730968	0.746307
Zn25	Zn	-0.819836	0.064306	-0.079913
Zn26	Zn	-0.486503	0.397639	0.253420
Zn27	Zn	-0.153169	0.730973	0.586754
O28	O	-0.813532	0.134680	0.060401
O29	O	-0.480198	0.468013	0.393734
O30	O	-0.146865	0.801347	0.727067
C31	C	-0.692792	0.068119	-0.000118
C32	C	-0.359458	0.401452	0.333216
C33	C	-0.026125	0.734785	0.666549
C34	C	-0.615692	0.067339	-0.000106
C35	C	-0.282359	0.400672	0.333227
C36	C	0.050975	0.734005	0.666561
C37	C	-0.579500	0.066966	-0.066118
C38	C	-0.246167	0.400299	0.267215
C39	C	0.087166	0.733633	0.600548
C40	C	-0.507058	0.066228	-0.066126
C41	C	-0.173725	0.399561	0.267208
C42	C	0.159609	0.732894	0.600541
C43	C	-0.470812	0.065853	-0.000117
C44	C	-0.137478	0.399186	0.333217
C45	C	0.195855	0.732519	0.666550
C46	C	-0.507011	0.066228	0.065904
C47	C	-0.173678	0.399561	0.399238
C48	C	0.159655	0.732895	0.732571
C49	C	-0.579451	0.066971	0.065910
C50	C	-0.246118	0.400304	0.399243
C51	C	0.087215	0.733638	0.732576
C52	C	-0.361660	0.036361	0.050453
C53	C	-0.028327	0.369695	0.383786
C54	C	0.305007	0.703028	0.717119
C55	C	-0.289222	0.035615	0.050445
C56	C	0.044111	0.368949	0.383778
C57	C	0.377445	0.702282	0.717111
C58	C	-0.247382	0.063563	-0.000130
C59	C	0.085952	0.396896	0.333203
C60	C	0.419285	0.730230	0.666537
C61	C	-0.277990	0.092251	-0.050709
C62	C	0.055343	0.425584	0.282624
C63	C	0.388677	0.758917	0.615958
C64	C	-0.350430	0.092994	-0.050704
C65	C	-0.017097	0.426327	0.282630
C66	C	0.316237	0.759660	0.615963
C67	C	-0.392262	0.065047	-0.000115
C68	C	-0.058929	0.398380	0.333218
C69	C	0.274404	0.731714	0.666552
C70	C	-0.132640	0.062391	-0.066155
C71	C	0.200694	0.395724	0.267179
C72	C	0.534027	0.729057	0.600512
C73	C	-0.060195	0.061655	-0.066159
C74	C	0.273138	0.394989	0.267174
C75	C	0.606471	0.728322	0.600508
C76	C	-0.060151	0.061651	0.065873
C77	C	0.273182	0.394984	0.399206
C78	C	0.606516	0.728317	0.732539
C79	C	-0.132593	0.062391	0.065875
C80	C	0.200740	0.395724	0.399209
C81	C	0.534074	0.729058	0.732542
C82	C	-0.168834	0.062758	-0.000140
C83	C	0.164500	0.396092	0.333193
C84	C	0.497833	0.729425	0.666526
C85	C	-0.825844	-0.024082	-0.000121
C86	C	-0.492510	0.309251	0.333212
C87	C	-0.159177	0.642584	0.666546
C88	C	-0.825049	-0.077740	-0.000115
C89	C	-0.491716	0.255594	0.333218
C90	C	-0.158383	0.588927	0.666552
C91	C	-0.883539	-0.416382	-0.000161
C92	C	-0.550206	-0.083049	0.333173
C93	C	-0.216872	0.250284	0.666506
C94	C	-0.880592	-0.618051	-0.000170
C95	C	-0.547259	-0.284717	0.333163
C96	C	-0.213925	0.048616	0.666496
O97	O	-0.934077	-0.649149	-0.000210
O98	O	-0.600743	-0.315815	0.333123
O99	O	-0.267410	0.017518	0.666457
N100	N	-0.816884	-0.637362	-0.000161
N101	N	-0.483551	-0.304029	0.333173
N102	N	-0.150217	0.029305	0.666506
C103	C	-0.753908	-0.606253	-0.000153
C104	C	-0.420575	-0.272920	0.333180
C105	C	-0.087242	0.060414	0.666513
O106	O	-0.699653	-0.627306	-0.000153
O107	O	-0.366320	-0.293973	0.333181
O108	O	-0.032987	0.039361	0.666514
C109	C	-0.756856	-0.404586	-0.000149
C110	C	-0.423523	-0.071252	0.333185
C111	C	-0.090190	0.262081	0.666518
C112	C	-0.820568	-0.385277	-0.000151
C113	C	-0.487235	-0.051944	0.333182
C114	C	-0.153902	0.281389	0.666516
C115	C	-0.947246	-0.397073	-0.000164
C116	C	-0.613913	-0.063740	0.333169
C117	C	-0.280579	0.269593	0.666503
C118	C	-0.947982	-0.346659	-0.000157
C119	C	-0.614649	-0.013326	0.333176
C120	C	-0.281315	0.320007	0.666509
C121	C	-0.885011	-0.315554	-0.000148
C122	C	-0.551678	0.017779	0.333185
C123	C	-0.218345	0.351112	0.666519
C124	C	-0.821305	-0.334863	-0.000145
C125	C	-0.487971	-0.001530	0.333189
C126	C	-0.154638	0.331804	0.666522
C127	C	-0.693882	-0.373477	-0.000146
C128	C	-0.360548	-0.040144	0.333187
C129	C	-0.027215	0.293189	0.666520
C130	C	-0.694624	-0.323058	-0.000147
C131	C	-0.361291	0.010275	0.333186
C132	C	-0.027958	0.343609	0.666519
C133	C	-0.758336	-0.303750	-0.000150
C134	C	-0.425003	0.029584	0.333184
C135	C	-0.091670	0.362917	0.666517
C136	C	-0.759070	-0.253344	-0.000129
C137	C	-0.425737	0.079990	0.333205
C138	C	-0.092403	0.413323	0.666538
N139	N	-0.822778	-0.234032	-0.000138
N140	N	-0.489444	0.099301	0.333195
N141	N	-0.156111	0.432634	0.666528
C142	C	-0.885748	-0.265138	-0.000148
C143	C	-0.552415	0.068196	0.333185
C144	C	-0.219082	0.401529	0.666519
C145	C	-0.752365	-0.712132	-0.000154
C146	C	-0.419032	-0.378798	0.333179
C147	C	-0.085699	-0.045465	0.666513
C148	C	-0.751628	-0.762548	-0.000154
C149	C	-0.418295	-0.429215	0.333179
C150	C	-0.084961	-0.095882	0.666513
C151	C	-0.878312	-0.774342	-0.000173
C152	C	-0.544978	-0.441009	0.333161
C153	C	-0.211645	-0.107676	0.666494
C154	C	-0.879048	-0.723925	-0.000167
C155	C	-0.545715	-0.390592	0.333166
C156	C	-0.212382	-0.057258	0.666499
C157	C	-0.816073	-0.692820	-0.000164
C158	C	-0.482740	-0.359487	0.333169
C159	C	-0.149406	-0.026154	0.666503
C160	C	-0.887290	-0.159264	-0.000134
C161	C	-0.553956	0.174069	0.333199
C162	C	-0.220623	0.507403	0.666533
C163	C	-0.888020	-0.108845	-0.000125
C164	C	-0.554687	0.224489	0.333209
C165	C	-0.221353	0.557822	0.666542
C166	C	-0.761337	-0.097055	-0.000110
C167	C	-0.428004	0.236278	0.333223
C168	C	-0.094670	0.569612	0.666557
C169	C	-0.760606	-0.147470	-0.000115
C170	C	-0.427273	0.185864	0.333218
C171	C	-0.093939	0.519197	0.666551
C172	C	-0.823588	-0.178573	-0.000130
C173	C	-0.490255	0.154760	0.333203
C174	C	-0.156921	0.488093	0.666537
O175	O	-0.705614	-0.222217	-0.000097
O176	O	-0.372281	0.111116	0.333236
O177	O	-0.038947	0.444449	0.666569
O178	O	-0.939996	-0.244075	-0.000165
O179	O	-0.606662	0.089258	0.333169
O180	O	-0.273329	0.422591	0.666502
C181	C	-0.882803	-0.466797	-0.000167
C182	C	-0.549470	-0.133463	0.333166
C183	C	-0.216136	0.199870	0.666500
C184	C	-0.819096	-0.486105	-0.000164
C185	C	-0.485763	-0.152772	0.333169
C186	C	-0.152429	0.180561	0.666503
C187	C	-0.756125	-0.455000	-0.000154
C188	C	-0.422792	-0.121667	0.333179
C189	C	-0.089459	0.211666	0.666512
C190	C	-0.818359	-0.536522	-0.000164
C191	C	-0.485026	-0.203189	0.333170
C192	C	-0.151692	0.130145	0.666503
C193	C	-0.881330	-0.567627	-0.000173
C194	C	-0.547996	-0.234294	0.333160
C195	C	-0.214663	0.099039	0.666493
C196	C	-0.945038	-0.548316	-0.000183
C197	C	-0.611704	-0.214982	0.333150
C198	C	-0.278371	0.118351	0.666484
C199	C	-0.945774	-0.497902	-0.000177
C200	C	-0.612440	-0.164568	0.333157
C201	C	-0.279107	0.168765	0.666490
C202	C	-0.692418	-0.474312	-0.000145
C203	C	-0.359084	-0.140978	0.333189
C204	C	-0.025751	0.192355	0.666522
C205	C	-0.691687	-0.524726	-0.000150
C206	C	-0.358353	-0.191393	0.333183
C207	C	-0.025020	0.141940	0.666517
C208	C	-0.754657	-0.555832	-0.000160
C209	C	-0.421324	-0.222498	0.333174
C210	C	-0.087991	0.110835	0.666507
C211	C	0.053144	0.060492	-0.000150
C212	C	0.386477	0.393825	0.333183
C213	C	0.719811	0.727158	0.666516
C214	C	-0.023954	0.061281	-0.000149
C215	C	0.309379	0.394614	0.333184
C216	C	0.642713	0.727948	0.666517
C217	C	-0.813804	0.152689	-0.000153
C218	C	-0.480471	0.486023	0.333181
C219	C	-0.147138	0.819356	0.666514
C220	C	-0.814599	0.206347	-0.000164
C221	C	-0.481265	0.539680	0.333170
C222	C	-0.147932	0.873013	0.666503
N223	N	-0.819801	0.064298	0.188532
N224	N	-0.486468	0.397631	0.521865
N225	N	-0.153134	0.730964	0.855199
N226	N	-0.819853	0.064306	-0.188804
N227	N	-0.486519	0.397639	0.144529
N228	N	-0.153186	0.730972	0.477863
C229	C	-0.867391	0.031346	0.226632
C230	C	-0.534058	0.364679	0.559965
C231	C	-0.200724	0.698013	0.893298
C232	C	-0.867395	0.031344	0.302859
C233	C	-0.534062	0.364677	0.636193
C234	C	-0.200729	0.698010	0.969526
C235	C	-0.819816	0.064302	0.340985
C236	C	-0.486483	0.397635	0.674318
C237	C	-0.153150	0.730968	1.007651
C238	C	-0.772217	0.097256	0.302876
C239	C	-0.438884	0.430589	0.636209
C240	C	-0.105551	0.763922	0.969542
C241	C	-0.772210	0.097254	0.226649
C242	C	-0.438876	0.430587	0.559983
C243	C	-0.105543	0.763920	0.893316
C244	C	-0.810243	0.108345	0.461738
C245	C	-0.476910	0.441678	0.795071
C246	C	-0.143577	0.775012	1.128404
C247	C	-0.810256	0.108348	0.537963
C248	C	-0.476923	0.441681	0.871296
C249	C	-0.143589	0.775014	1.204629
C250	C	-0.819836	0.064308	0.576092
C251	C	-0.486503	0.397641	0.909425
C252	C	-0.153169	0.730974	1.242759
C253	C	-0.829419	0.020263	0.537987
C254	C	-0.496085	0.353596	0.871321
C255	C	-0.162752	0.686930	1.204654
C256	C	-0.829411	0.020261	0.461761
C257	C	-0.496078	0.353594	0.795094
C258	C	-0.162744	0.686928	1.128428
C259	C	-0.819819	0.064307	0.423639
C260	C	-0.486486	0.397640	0.756973
C261	C	-0.153152	0.730974	1.090306
C262	C	-0.867434	0.031351	0.696847
C263	C	-0.534100	0.364684	1.030180
C264	C	-0.200767	0.698018	1.363513
C265	C	-0.867433	0.031348	0.773076
C266	C	-0.534100	0.364681	1.106409
C267	C	-0.200766	0.698015	1.439743
C268	C	-0.772258	0.097264	0.773091
C269	C	-0.438925	0.430598	1.106424
C270	C	-0.105592	0.763931	1.439757
C271	C	-0.772256	0.097263	0.696863
C272	C	-0.438922	0.430596	1.030196
C273	C	-0.105589	0.763929	1.363530
C274	C	-0.819847	0.064307	0.658746
C275	C	-0.486513	0.397640	0.992079
C276	C	-0.153180	0.730973	1.325412
H277	H	-0.938576	-0.184583	-0.000149
H278	H	-0.605242	0.148750	0.333185
H279	H	-0.271909	0.482083	0.666518
H280	H	-0.477585	0.065925	-0.119882
H281	H	-0.144252	0.399258	0.213451
H282	H	0.189082	0.732592	0.546784
H283	H	-0.906141	0.004510	0.195599
H284	H	-0.572808	0.337843	0.528932
H285	H	-0.239474	0.671177	0.862265
O286	O	-0.799935	0.155850	0.579061
O287	O	-0.466602	0.489183	0.912394
O288	O	-0.133268	0.822516	1.245727
H289	H	-0.793263	0.186473	0.539743
H290	H	-0.459929	0.519806	0.873076
H291	H	-0.126596	0.853140	1.206409
H292	H	-0.906150	0.004510	0.333886
H293	H	-0.572817	0.337843	0.667219
H294	H	-0.239484	0.671176	1.000553
H295	H	-0.906183	0.004514	0.665810
H296	H	-0.572850	0.337848	0.999144
H297	H	-0.239517	0.671181	1.332477
H298	H	-0.264307	0.012254	0.091626
H299	H	0.069026	0.345587	0.424959
H300	H	0.402360	0.678920	0.758292
H301	H	-0.375348	0.116353	-0.091885
H302	H	-0.042015	0.449686	0.241448
H303	H	0.291319	0.783020	0.574781
O304	O	-0.720927	0.132809	0.655771
O305	O	-0.387594	0.466143	0.989104
O306	O	-0.054260	0.799476	1.322437
H307	H	-0.687381	0.112522	0.621071
H308	H	-0.354048	0.445855	0.954404
H309	H	-0.020715	0.779188	1.287737
O310	O	-0.839756	-0.027246	0.579091
O311	O	-0.506423	0.306087	0.912424
O312	O	-0.173090	0.639420	1.245757
H313	H	-0.793398	-0.030271	0.613833
H314	H	-0.460065	0.303063	0.947166
H315	H	-0.126732	0.636396	1.280500
H316	H	-0.699747	-0.778264	-0.000139
H317	H	-0.366414	-0.444931	0.333194
H318	H	-0.033081	-0.111598	0.666527
H319	H	-0.708726	-0.163191	-0.000093
H320	H	-0.375393	0.170142	0.333240
H321	H	-0.042060	0.503476	0.666573
O322	O	-0.021012	0.061273	0.137041
O323	O	0.312321	0.394606	0.470374
O324	O	0.645654	0.727940	0.803707
H325	H	-0.041412	0.028486	0.168749
H326	H	0.291922	0.361820	0.502082
H327	H	0.625255	0.695153	0.835416
H328	H	-0.930928	-0.708208	-0.000170
H329	H	-0.597595	-0.374875	0.333163
H330	H	-0.264261	-0.041541	0.666497
O331	O	-0.406786	0.006218	0.105008
O332	O	-0.073453	0.339552	0.438341
O333	O	0.259881	0.672885	0.771674
H334	H	-0.445095	-0.020026	0.075707
H335	H	-0.111761	0.313307	0.409040
H336	H	0.221572	0.646641	0.742374
O337	O	-0.232874	0.122401	-0.105260
O338	O	0.100459	0.455735	0.228073
O339	O	0.433792	0.789068	0.561407
H340	H	-0.177359	0.117072	-0.096762
H341	H	0.155974	0.450406	0.236571
H342	H	0.489308	0.783739	0.569904
H343	H	-0.477495	0.065924	0.119649
H344	H	-0.144161	0.399257	0.452983
H345	H	0.189172	0.732590	0.786316
O346	O	-0.171735	0.062796	-0.137352
O347	O	0.161599	0.396129	0.195982
O348	O	0.494932	0.729462	0.529315
H349	H	-0.134393	0.062421	-0.183257
H350	H	0.198941	0.395755	0.150076
H351	H	0.532274	0.729088	0.483409
H352	H	-0.030729	0.061355	-0.119916
H353	H	0.302604	0.394688	0.213417
H354	H	0.635938	0.728022	0.546750
H355	H	-0.162061	0.062691	0.119630
H356	H	0.171272	0.396024	0.452963
H357	H	0.504606	0.729358	0.786296
H358	H	-0.608918	0.067275	0.119666
H359	H	-0.275585	0.400608	0.453000
H360	H	0.057749	0.733942	0.786333
H361	H	-0.939904	-0.093127	-0.000125
H362	H	-0.606571	0.240206	0.333209
H363	H	-0.273238	0.573540	0.666542
O364	O	-0.720884	0.132799	0.185548
O365	O	-0.387551	0.466133	0.518882
O366	O	-0.054217	0.799466	0.852215
H367	H	-0.687801	0.155719	0.224862
H368	H	-0.354467	0.489053	0.558195
H369	H	-0.021134	0.822386	0.891529
O370	O	-0.693422	-0.063499	-0.000102
O371	O	-0.360089	0.269835	0.333232
O372	O	-0.026756	0.603168	0.666565
H373	H	-0.662898	-0.070347	0.049261
H374	H	-0.329564	0.262986	0.382594
H375	H	0.003769	0.596319	0.715927
O376	O	-1.016700	-0.325836	-0.000181
O377	O	-0.683366	0.007497	0.333152
O378	O	-0.350033	0.340831	0.666485
H379	H	-1.060357	-0.355942	-0.000201
H380	H	-0.727024	-0.022608	0.333133
H381	H	-0.393691	0.310725	0.666466
O382	O	-1.015170	-0.430620	-0.000164
O383	O	-0.681836	-0.097286	0.333170
O384	O	-0.348503	0.236047	0.666503
H385	H	-1.059586	-0.408714	-0.000159
H386	H	-0.726252	-0.075381	0.333175
H387	H	-0.392919	0.257952	0.666508
O388	O	-1.014492	-0.477079	-0.000183
O389	O	-0.681158	-0.143746	0.333150
O390	O	-0.347825	0.189588	0.666484
H391	H	-1.017865	-0.454382	-0.049538
H392	H	-0.684532	-0.121049	0.283795
H393	H	-0.351198	0.212284	0.617129
H394	H	-0.701080	-0.686810	-0.000151
H395	H	-0.367747	-0.353476	0.333182
H396	H	-0.034414	-0.020143	0.666516
O397	O	-0.618589	0.067369	-0.137317
O398	O	-0.285256	0.400702	0.196016
O399	O	0.048078	0.734035	0.529349
H400	H	-0.581246	0.066990	-0.183222
H401	H	-0.247913	0.400323	0.150112
H402	H	0.085420	0.733657	0.483445
H403	H	-0.929585	-0.799677	-0.000180
H404	H	-0.596252	-0.466344	0.333153
H405	H	-0.262918	-0.133010	0.666487
H406	H	-0.643341	-0.297734	-0.000145
H407	H	-0.310008	0.035599	0.333188
H408	H	0.023326	0.368932	0.666521
H409	H	-0.642001	-0.389189	-0.000149
H410	H	-0.308667	-0.055856	0.333184
H411	H	0.024666	0.277478	0.666518
H412	H	-0.996310	-0.573651	-0.000188
H413	H	-0.662977	-0.240317	0.333146
H414	H	-0.329644	0.093016	0.666479
O415	O	-0.622964	-0.545550	-0.000146
O416	O	-0.289631	-0.212217	0.333187
O417	O	0.043702	0.121117	0.666521
H418	H	-0.579305	-0.515446	-0.000145
H419	H	-0.245971	-0.182113	0.333188
H420	H	0.087362	0.151221	0.666522
O421	O	-0.624496	-0.440765	-0.000121
O422	O	-0.291163	-0.107431	0.333213
O423	O	0.042171	0.225902	0.666546
H424	H	-0.580078	-0.462668	-0.000107
H425	H	-0.246745	-0.129335	0.333227
H426	H	0.086589	0.203998	0.666560
H427	H	-0.837211	-0.015602	0.430739
H428	H	-0.503878	0.317732	0.764072
H429	H	-0.170545	0.651065	1.097406
O430	O	-0.918772	-0.004189	0.814176
O431	O	-0.585439	0.329144	1.147509
O432	O	-0.252105	0.662478	1.480842
H433	H	-0.951868	-0.027099	0.774861
H434	H	-0.618535	0.306234	1.108194
H435	H	-0.285201	0.639568	1.441527
H436	H	-0.802430	0.144210	0.430699
H437	H	-0.469097	0.477543	0.764032
H438	H	-0.135763	0.810877	1.097366
O439	O	-0.720940	0.132814	0.814199
O440	O	-0.387606	0.466148	1.147532
O441	O	-0.054273	0.799481	1.480865
H442	H	-0.728942	0.127283	0.873606
H443	H	-0.395609	0.460616	1.206939
H444	H	-0.062275	0.793949	1.540272
H445	H	-0.733477	0.124090	0.333921
H446	H	-0.400143	0.457423	0.667254
H447	H	-0.066810	0.790756	1.000588
