data_functionalizedCrystal
_audit_creation_method	'MofGen! by Chris Wilmer'
_symmetry_space_group_name_H-M	'P1'
_symmetry_Int_Tables_number	1
_symmetry_cell_setting	triclinic
loop_
_symmetry_equiv_pos_as_xyz
  x,y,z
_cell_length_a	9.065215
_cell_length_b	12.503552
_cell_length_c	9.065218
_cell_angle_alpha	86.426261
_cell_angle_beta	85.015291
_cell_angle_gamma	93.574918
loop_
_atom_site_label
_atom_site_type_symbol
_atom_site_fract_x
_atom_site_fract_y
_atom_site_fract_z
O1	O	1.968807	0.089304	0.207922
O2	O	1.539522	0.089308	0.225673
O3	O	1.763038	0.089304	0.002155
O4	O	1.745292	0.089308	0.431440
O5	O	1.746208	-0.089338	0.018980
O6	O	1.522693	-0.089334	0.242497
O7	O	1.951978	-0.089338	0.224747
Cu8	Cu	1.735799	-0.105648	0.235158
Cu9	Cu	1.755701	0.105617	0.215261
O10	O	1.728462	-0.089334	0.448264
C11	C	1.476121	-0.000012	0.232380
C12	C	1.312278	-0.000010	0.227282
N13	N	1.721811	-0.254240	0.249152
C14	C	1.790269	-0.526675	0.180666
C15	C	1.701248	-0.473349	0.269737
C16	C	1.712692	-0.351425	0.258281
C17	C	1.778826	-0.648609	0.192121
C18	C	2.015379	-0.000016	0.218039
C19	C	2.179223	-0.000010	0.223137
C20	C	1.752918	-0.000016	-0.044419
C21	C	1.747818	-0.000010	-0.208263
N22	N	1.769700	0.254210	0.201256
C23	C	1.738583	-0.000012	0.494839
C24	C	1.743682	-0.000010	0.658681
H25	H	1.616440	-0.519263	0.354598
H26	H	1.875073	-0.480766	0.095812
