data_functionalizedCrystal
_audit_creation_method	'MofGen! by Chris Wilmer'
_symmetry_space_group_name_H-M	'P1'
_symmetry_Int_Tables_number	1
_symmetry_cell_setting	triclinic
loop_
_symmetry_equiv_pos_as_xyz
  x,y,z
_cell_length_a	18.215407
_cell_length_b	12.645330
_cell_length_c	18.215399
_cell_angle_alpha	89.974561
_cell_angle_beta	89.983176
_cell_angle_gamma	90.018140
loop_
_atom_site_label
_atom_site_type_symbol
_atom_site_fract_x
_atom_site_fract_y
_atom_site_fract_z
Zn1	Zn	1.125087	-0.422012	-0.416141
Zn2	Zn	1.125017	-0.599302	-0.293085
Zn3	Zn	1.002026	-0.422054	-0.293088
Zn4	Zn	1.002001	-0.599236	-0.416110
O5	O	1.063533	-0.510651	-0.354606
O6	O	1.228062	-0.445540	-0.399829
O7	O	1.108684	-0.575835	-0.190101
O8	O	1.018390	-0.273702	-0.309426
O9	O	1.228011	-0.575794	-0.309421
O10	O	1.108802	-0.273671	-0.399832
O11	O	1.018322	-0.445612	-0.190104
O12	O	0.899038	-0.445548	-0.309396
O13	O	1.018347	-0.575681	-0.519099
O14	O	0.899020	-0.575722	-0.399780
O15	O	1.108778	-0.445476	-0.519121
O16	O	1.108659	-0.747641	-0.309391
O17	O	1.018280	-0.747592	-0.399777
C18	C	0.872326	-0.510633	-0.354585
C19	C	0.790528	-0.510651	-0.354594
C20	C	0.602343	-0.578539	-0.401597
C21	C	0.525485	-0.578542	-0.401606
C22	C	0.525474	-0.442782	-0.307631
C23	C	0.602331	-0.442775	-0.307626
C24	C	0.640764	-0.510659	-0.354608
C25	C	0.487048	-0.510670	-0.354622
C26	C	0.403714	-0.510673	-0.354632
C27	C	0.724103	-0.510655	-0.354600
C28	C	1.063479	-0.786081	-0.354596
C29	C	1.063523	-0.903911	-0.354616
C30	C	1.006900	-1.071488	-0.411653
C31	C	1.006610	-0.948929	-0.411470
C32	C	1.042535	-0.948506	-0.277058
C33	C	1.042189	-1.071105	-0.277404
C34	C	1.141482	-1.070999	-0.374509
C35	C	1.141004	-0.948392	-0.376205
C36	C	1.255486	-0.510670	-0.354628
C37	C	1.337284	-0.510678	-0.354637
C38	C	1.063567	-0.510566	-0.546559
C39	C	1.063582	-0.510530	-0.628358
C40	C	1.063607	-0.234146	-0.354633
C41	C	1.063638	-0.116316	-0.354644
C42	C	1.016571	-0.442677	-0.816554
C43	C	1.016584	-0.442656	-0.893413
C44	C	1.110682	-0.578257	-0.893400
C45	C	1.110665	-0.578283	-0.816543
C46	C	1.063610	-0.510487	-0.778122
C47	C	1.063640	-0.510440	-0.931838
C48	C	1.063654	-0.510417	-1.015172
C49	C	1.063595	-0.510511	-0.694783
C50	C	1.063540	-0.510659	-0.163400
C51	C	1.063668	-0.510396	-0.081602
H52	H	0.633633	-0.633812	-0.439855
H53	H	0.494206	-0.633816	-0.439871
H54	H	0.948900	-0.919695	-0.398309
H55	H	1.148992	-0.633453	-0.924692
H56	H	0.978256	-0.387474	-0.785274
C57	C	1.095577	-1.111187	-0.218055
C58	C	1.083185	-1.081449	-0.137023
C59	C	1.136563	-1.121529	-0.077669
C60	C	1.202333	-1.191348	-0.099347
C61	C	1.214728	-1.221090	-0.180383
C62	C	1.161350	-1.181010	-0.239737
H63	H	1.034495	-1.029762	-0.120972
H64	H	1.127387	-1.099512	-0.017680
H65	H	1.241847	-1.221018	-0.055410
H66	H	1.263418	-1.272778	-0.196434
H67	H	1.170526	-1.203027	-0.299725
H68	H	0.494173	-0.387515	-0.269379
H69	H	0.978279	-0.387440	-0.924701
C70	C	1.096587	-0.909115	-0.218101
C71	C	1.105312	-0.789720	-0.203949
C72	C	1.159365	-0.750327	-0.144994
C73	C	1.204694	-0.830329	-0.100192
C74	C	1.195971	-0.949731	-0.114343
C75	C	1.141917	-0.989125	-0.173298
H76	H	1.071755	-0.730492	-0.237116
H77	H	1.165822	-0.661937	-0.134519
H78	H	1.244707	-0.801168	-0.056550
H79	H	1.229527	-1.008960	-0.081176
H80	H	1.135460	-1.077515	-0.183773
C81	C	0.644600	-0.368107	-0.255931
C82	C	0.602330	-0.293449	-0.204244
C83	C	0.644599	-0.218784	-0.152552
C84	C	0.729139	-0.218777	-0.152548
C85	C	0.771414	-0.293437	-0.204237
C86	C	0.729145	-0.368102	-0.255929
H87	H	0.539744	-0.293452	-0.204245
H88	H	0.613303	-0.163516	-0.114289
H89	H	0.760429	-0.163506	-0.114283
H90	H	0.834000	-0.293434	-0.204236
H91	H	0.760441	-0.423371	-0.294193
H92	H	1.019910	-1.100899	-0.469351
C93	C	0.929422	-1.113231	-0.394109
C94	C	0.917501	-1.187773	-0.328298
C95	C	0.840025	-1.229521	-0.310753
C96	C	0.774470	-1.196728	-0.359018
C97	C	0.786390	-1.122182	-0.424833
C98	C	0.863866	-1.080434	-0.442378
H99	H	0.966030	-1.212052	-0.292566
H100	H	0.831202	-1.284705	-0.262033
H101	H	0.717118	-1.227632	-0.346030
H102	H	0.737860	-1.097903	-0.460565
H103	H	0.872689	-1.025250	-0.491098
H104	H	0.986224	-0.917896	-0.259925
C105	C	1.024302	-0.908182	-0.489170
C106	C	1.038796	-0.987197	-0.551820
C107	C	1.056464	-0.946457	-0.629529
C108	C	1.059637	-0.826702	-0.644588
C109	C	1.045142	-0.747679	-0.581936
C110	C	1.027474	-0.788420	-0.504227
H111	H	1.036448	-1.075854	-0.540674
H112	H	1.067194	-1.004956	-0.675908
H113	H	1.072716	-0.796544	-0.702113
H114	H	1.047491	-0.659023	-0.593082
H115	H	1.016744	-0.729921	-0.457848
C116	C	1.162390	-0.909007	-0.453313
C117	C	1.177227	-0.989058	-0.515246
C118	C	1.198607	-0.949668	-0.592356
C119	C	1.205150	-0.830226	-0.607534
C120	C	1.190313	-0.750167	-0.545600
C121	C	1.168933	-0.789558	-0.468490
H122	H	1.172383	-1.077483	-0.504011
H123	H	1.209590	-1.008933	-0.638203
H124	H	1.220977	-0.801067	-0.664616
H125	H	1.195157	-0.661743	-0.556834
H126	H	1.157950	-0.730293	-0.422643
H127	H	0.985285	-1.099797	-0.260576
H128	H	1.160630	-1.101842	-0.430103
H129	H	1.185502	-0.917742	-0.337706
H130	H	1.183753	-1.099987	-0.332986
H131	H	1.148971	-0.633506	-0.785250
