data_functionalizedCrystal
_audit_creation_method	'MofGen! by Chris Wilmer'
_symmetry_space_group_name_H-M	'P1'
_symmetry_Int_Tables_number	1
_symmetry_cell_setting	triclinic
loop_
_symmetry_equiv_pos_as_xyz
  x,y,z
_cell_length_a	14.044191
_cell_length_b	15.995292
_cell_length_c	13.101039
_cell_angle_alpha	93.364742
_cell_angle_beta	86.337551
_cell_angle_gamma	88.330196
loop_
_atom_site_label
_atom_site_type_symbol
_atom_site_fract_x
_atom_site_fract_y
_atom_site_fract_z
O1	O	1.262872	0.197664	-0.085151
O2	O	1.762872	0.697664	0.414849
O3	O	0.986905	0.190373	-0.085165
O4	O	1.486905	0.690373	0.414835
O5	O	1.132461	0.072694	-0.085159
O6	O	1.632461	0.572694	0.414841
O7	O	1.117316	0.315344	-0.085157
O8	O	1.617316	0.815344	0.414843
O9	O	1.122018	0.081152	0.085270
O10	O	1.622018	0.581152	0.585270
O11	O	0.976462	0.198832	0.085265
O12	O	1.476462	0.698832	0.585265
O13	O	1.252429	0.206123	0.085278
O14	O	1.752429	0.706123	0.585278
Zn15	Zn	1.112787	0.203820	0.112331
Zn16	Zn	1.612787	0.703820	0.612331
Zn17	Zn	1.126547	0.192676	-0.112217
Zn18	Zn	1.626547	0.692676	0.387783
O19	O	1.106873	0.323803	0.085273
O20	O	1.606873	0.823803	0.585273
C21	C	0.946370	0.191413	0.000048
C22	C	1.446370	0.691413	0.500048
C23	C	0.841147	0.181899	0.000043
C24	C	1.341147	0.681899	0.500043
C25	C	0.590848	0.231979	0.000054
C26	C	1.090848	0.731979	0.500054
C27	C	0.648493	0.164521	0.000051
C28	C	1.148493	0.664521	0.500051
C29	C	0.755695	0.174193	0.000046
C30	C	1.255695	0.674193	0.500046
C31	C	0.483635	0.222308	0.000058
C32	C	0.983635	0.722308	0.500058
C33	C	1.126623	0.045681	0.000053
C34	C	1.626623	0.545681	0.500053
C35	C	1.124776	-0.047410	0.000045
C36	C	1.624776	0.452590	0.500045
C37	C	1.117982	-0.385656	0.000054
C38	C	1.617982	0.114344	0.500054
C39	C	1.223017	-0.354475	0.000440
C40	C	1.723017	0.145525	0.500440
C41	C	1.225037	-0.257670	0.000052
C42	C	1.725037	0.242330	0.500052
C43	C	1.121353	-0.217848	0.000050
C44	C	1.621353	0.282152	0.500050
C45	C	1.074792	-0.255704	-0.097273
C46	C	1.574792	0.244296	0.402727
C47	C	1.073532	-0.352593	-0.097350
C48	C	1.573532	0.147407	0.402650
C49	C	1.059511	-0.342991	0.096460
C50	C	1.559511	0.157009	0.596460
C51	C	1.063325	-0.246144	0.097742
C52	C	1.563325	0.253856	0.597742
C53	C	1.123253	-0.123010	0.000045
C54	C	1.623253	0.376990	0.500045
C55	C	1.116079	-0.480494	0.000053
C56	C	1.616079	0.019506	0.500053
C57	C	1.292964	0.205083	0.000063
C58	C	1.792964	0.705083	0.500063
C59	C	1.398188	0.214596	0.000062
C60	C	1.898188	0.714596	0.500062
C61	C	1.112711	0.350815	0.000058
C62	C	1.612711	0.850815	0.500058
C63	C	1.114559	0.443906	0.000059
C64	C	1.614559	0.943906	0.500059
N65	N	1.103403	0.211426	0.265579
N66	N	1.603403	0.711426	0.765579
N67	N	1.135938	0.185064	-0.265465
N68	N	1.635938	0.685064	0.234535
C69	C	1.090637	0.221782	0.474621
C70	C	1.590637	0.721782	0.974621
C71	C	1.148702	0.174711	0.525499
C72	C	1.648702	0.674711	1.025499
C73	C	1.141598	0.180473	0.641817
C74	C	1.641598	0.680473	1.141817
C75	C	1.097739	0.216021	0.358292
C76	C	1.597739	0.716021	0.858292
H77	H	1.261898	-0.232109	0.069816
H78	H	1.761898	0.267891	0.569816
H79	H	1.035594	0.266407	0.518416
H80	H	1.535594	0.766407	1.018416
H81	H	0.617337	0.099500	-0.000022
H82	H	1.117337	0.599500	0.499978
N83	N	0.629915	0.313543	0.000035
N84	N	1.129915	0.813543	0.500035
N85	N	0.575784	0.376976	0.000028
N86	N	1.075784	0.876976	0.500028
H87	H	0.603384	0.434581	0.000011
H88	H	1.103384	0.934581	0.500011
H89	H	1.203749	0.130085	0.481699
H90	H	1.703749	0.630085	0.981699
N91	N	1.268448	-0.381464	0.087996
N92	N	1.768448	0.118536	0.587996
N93	N	1.223949	-0.423998	0.151135
N94	N	1.723949	0.076002	0.651135
H95	H	1.256035	-0.443067	0.212974
H96	H	1.756035	0.056933	0.712974
H97	H	1.267539	-0.383929	-0.068959
H98	H	1.767539	0.116071	0.431041
N99	N	1.282320	-0.235060	-0.087618
N100	N	1.782320	0.264940	0.412382
N101	N	1.320923	-0.290813	-0.148712
N102	N	1.820923	0.209187	0.351288
H103	H	1.361380	-0.274847	-0.210635
H104	H	1.861380	0.225153	0.289365
H105	H	0.998716	-0.229716	-0.100892
H106	H	1.498716	0.270284	0.399108
N107	N	0.977252	-0.378364	-0.102922
N108	N	1.477252	0.121636	0.397078
N109	N	0.959172	-0.454454	-0.103980
N110	N	1.459172	0.045546	0.396020
H111	H	0.891176	-0.472654	-0.107923
H112	H	1.391176	0.027346	0.392077
H113	H	1.114366	-0.380302	-0.170100
H114	H	1.614366	0.119698	0.329900
H115	H	1.115705	-0.236513	-0.169698
H116	H	1.615705	0.263487	0.330302
H117	H	1.088076	-0.364946	0.170230
H118	H	1.588076	0.135054	0.670230
H119	H	1.097159	-0.221148	0.169741
H120	H	1.597159	0.278852	0.669741
H121	H	0.987286	-0.218537	0.103618
H122	H	1.487286	0.281463	0.603618
H123	H	0.982140	-0.362727	0.097114
H124	H	1.482140	0.137273	0.597114
