data_functionalizedCrystal
_audit_creation_method	'MofGen! by Chris Wilmer'
_symmetry_space_group_name_H-M	'P1'
_symmetry_Int_Tables_number	1
_symmetry_cell_setting	triclinic
loop_
_symmetry_equiv_pos_as_xyz
  x,y,z
_cell_length_a	11.026607
_cell_length_b	15.944493
_cell_length_c	10.065875
_cell_angle_alpha	98.793649
_cell_angle_beta	79.302338
_cell_angle_gamma	96.030530
loop_
_atom_site_label
_atom_site_type_symbol
_atom_site_fract_x
_atom_site_fract_y
_atom_site_fract_z
O1	O	1.627836	0.342076	-0.113445
O2	O	1.274540	0.302023	-0.113453
O3	O	1.460874	0.201235	-0.113460
O4	O	1.441502	0.442865	-0.113438
O5	O	1.425343	0.220552	0.113530
O6	O	1.239008	0.321341	0.113537
O7	O	1.592305	0.361394	0.113545
Zn8	Zn	1.410015	0.344435	0.149581
Zn9	Zn	1.456829	0.318983	-0.149489
O10	O	1.405970	0.462183	0.113552
C11	C	1.211565	0.304293	0.000041
C12	C	1.076856	0.282267	0.000037
C13	C	1.442318	0.179479	0.000029
C14	C	1.439947	0.085870	0.000012
C15	C	1.003037	0.343086	0.000042
C16	C	0.863808	0.320322	0.000038
C17	C	1.549622	-0.133307	0.000040
C18	C	1.507995	-0.202341	-0.111879
C19	C	1.435547	-0.085515	0.000028
C20	C	1.472937	-0.183276	0.111916
C21	C	1.431304	-0.251063	0.000050
C22	C	1.393965	-0.153324	-0.111983
C23	C	1.358908	-0.134244	0.111912
C24	C	1.317201	-0.203260	-0.000033
C25	C	1.437994	0.009854	0.000014
C26	C	1.428849	-0.346431	0.000054
C27	C	1.655280	0.359124	0.000048
C28	C	1.789990	0.381150	0.000043
C29	C	1.424527	0.483938	0.000060
C30	C	1.426899	0.577547	0.000069
N31	N	1.378074	0.361806	0.353688
N32	N	1.488779	0.301606	-0.353595
C33	C	1.445709	0.325020	0.421464
C34	C	1.421136	0.338397	0.578632
H35	H	1.042911	0.412009	0.000056
H36	H	1.295961	-0.104507	0.206534
H37	H	1.564876	0.260203	0.588081
H38	H	1.506328	-0.196868	0.206528
H39	H	1.301974	0.403199	0.412017
C40	C	1.318326	0.394327	0.657412
C41	C	1.323753	0.488659	0.637908
C42	C	1.220945	0.544587	0.716690
C43	C	1.112711	0.506183	0.814975
C44	C	1.107280	0.411846	0.834484
C45	C	1.210088	0.355918	0.755703
H46	H	1.403878	0.517092	0.565147
H47	H	1.224966	0.614422	0.702247
H48	H	1.036607	0.547584	0.873294
H49	H	1.027155	0.383413	0.907245
H50	H	1.206067	0.286083	0.770145
C51	C	0.809959	0.227204	0.000029
C52	C	0.708423	0.202633	0.117894
C53	C	0.654573	0.109517	0.117885
C54	C	0.702259	0.040973	0.000010
C55	C	0.803801	0.065542	-0.117864
C56	C	0.857651	0.158657	-0.117855
H57	H	0.673118	0.253375	0.205160
H58	H	0.579405	0.091330	0.205144
H59	H	0.662396	-0.027957	0.000003
H60	H	0.839106	0.014800	-0.205130
H61	H	0.932819	0.176845	-0.205114
H62	H	1.521801	0.283619	0.363136
H63	H	1.036987	0.213341	-0.000004
C64	C	0.843829	0.474270	0.000062
C65	C	0.908455	0.518902	0.117943
C66	C	0.962292	0.612022	0.117967
C67	C	0.951502	0.660508	0.000109
C68	C	0.886872	0.615876	-0.117781
C69	C	0.833036	0.522757	-0.117805
H70	H	0.916445	0.483009	0.205196
H71	H	1.010134	0.645061	0.205237
H72	H	0.991354	0.729441	0.000126
H73	H	0.878883	0.651769	-0.205034
H74	H	0.785193	0.489717	-0.205075
C75	C	1.682386	-0.092130	-0.000102
C76	C	1.786761	-0.119132	-0.118669
C77	C	1.919521	-0.077954	-0.118819
C78	C	1.947906	-0.009773	-0.000402
C79	C	1.843529	0.017233	0.118174
C80	C	1.710769	-0.023946	0.118324
H81	H	1.765750	-0.169607	-0.206337
H82	H	1.996788	-0.097946	-0.206597
H83	H	2.046183	0.020709	-0.000512
H84	H	1.864539	0.067707	0.205842
H85	H	1.633502	-0.003954	0.206102
C86	C	1.593082	-0.242491	-0.239698
C87	C	1.605504	-0.339167	-0.263722
C88	C	1.690600	-0.379312	-0.391535
C89	C	1.763274	-0.322781	-0.495324
C90	C	1.750855	-0.226100	-0.471303
C91	C	1.665759	-0.185955	-0.343490
H92	H	1.551704	-0.381020	-0.186889
H93	H	1.699793	-0.450883	-0.409317
H94	H	1.826267	-0.352499	-0.589938
H95	H	1.804655	-0.184247	-0.548136
H96	H	1.656566	-0.114385	-0.325708
C97	C	1.348964	-0.135122	-0.239956
C98	C	1.342986	-0.042598	-0.263646
C99	C	1.297993	-0.024394	-0.391620
C100	C	1.258977	-0.098714	-0.495904
C101	C	1.264954	-0.191245	-0.472217
C102	C	1.309948	-0.209448	-0.344243
H103	H	1.371869	0.012424	-0.186447
H104	H	1.293568	0.044103	-0.409154
H105	H	1.225670	-0.085239	-0.590637
H106	H	1.236071	-0.246266	-0.549416
H107	H	1.314372	-0.277946	-0.326709
H108	H	1.218871	-0.233597	-0.000097
