data_functionalizedCrystal
_audit_creation_method	'MofGen! by Chris Wilmer'
_symmetry_space_group_name_H-M	'P1'
_symmetry_Int_Tables_number	1
_symmetry_cell_setting	triclinic
loop_
_symmetry_equiv_pos_as_xyz
  x,y,z
_cell_length_a	29.839134
_cell_length_b	29.839131
_cell_length_c	29.839126
_cell_angle_alpha	90.021998
_cell_angle_beta	90.035740
_cell_angle_gamma	90.036281
loop_
_atom_site_label
_atom_site_type_symbol
_atom_site_fract_x
_atom_site_fract_y
_atom_site_fract_z
Zn1	Zn	0.686781	-0.178959	0.254125
Zn2	Zn	0.936781	0.071041	0.504125
Zn3	Zn	1.186781	0.321041	0.754125
Zn4	Zn	1.436781	0.571041	1.004125
Zn5	Zn	0.686695	-0.254076	0.178995
Zn6	Zn	0.936695	-0.004076	0.428995
Zn7	Zn	1.186695	0.245924	0.678995
Zn8	Zn	1.436695	0.495924	0.928995
Zn9	Zn	0.611645	-0.178955	0.178995
Zn10	Zn	0.861645	0.071045	0.428995
Zn11	Zn	1.111645	0.321045	0.678995
Zn12	Zn	1.361645	0.571045	0.928995
Zn13	Zn	0.611611	-0.254056	0.254083
Zn14	Zn	0.861611	-0.004056	0.504083
Zn15	Zn	1.111611	0.245944	0.754083
Zn16	Zn	1.361611	0.495944	1.004083
O17	O	0.649183	-0.216511	0.216550
O18	O	0.899183	0.033489	0.466550
O19	O	1.149183	0.283489	0.716550
O20	O	1.399183	0.533489	0.966550
O21	O	0.749636	-0.188934	0.244176
O22	O	0.999636	0.061066	0.494176
O23	O	1.249636	0.311066	0.744176
O24	O	1.499636	0.561066	0.994176
O25	O	0.676718	-0.244118	0.116128
O26	O	0.926718	0.005882	0.366128
O27	O	1.176718	0.255882	0.616128
O28	O	1.426718	0.505882	0.866128
O29	O	0.621662	-0.116088	0.188978
O30	O	0.871662	0.133912	0.438978
O31	O	1.121662	0.383912	0.688978
O32	O	1.371662	0.633912	0.938978
O33	O	0.749573	-0.244122	0.188979
O34	O	0.999573	0.005878	0.438979
O35	O	1.249573	0.255878	0.688979
O36	O	1.499573	0.505878	0.938979
O37	O	0.676864	-0.116091	0.244176
O38	O	0.926864	0.133909	0.494176
O39	O	1.176864	0.383909	0.744176
O40	O	1.426864	0.633909	0.994176
O41	O	0.621579	-0.188927	0.116128
O42	O	0.871579	0.061073	0.366128
O43	O	1.121579	0.311073	0.616128
O44	O	1.371579	0.561073	0.866128
O45	O	0.548774	-0.188906	0.188938
O46	O	0.798774	0.061094	0.438938
O47	O	1.048774	0.311094	0.688938
O48	O	1.298774	0.561094	0.938938
O49	O	0.621604	-0.244087	0.316956
O50	O	0.871604	0.005913	0.566956
O51	O	1.121604	0.255913	0.816956
O52	O	1.371604	0.505913	1.066956
O53	O	0.548749	-0.244083	0.244105
O54	O	0.798749	0.005917	0.494105
O55	O	1.048749	0.255917	0.744105
O56	O	1.298749	0.505917	0.994105
O57	O	0.676831	-0.188914	0.316987
O58	O	0.926831	0.061086	0.566987
O59	O	1.176831	0.311086	0.816987
O60	O	1.426831	0.561086	1.066987
O61	O	0.676684	-0.316941	0.188938
O62	O	0.926684	-0.066941	0.438938
O63	O	1.176684	0.183059	0.688938
O64	O	1.426684	0.433059	0.938938
O65	O	0.621521	-0.316926	0.244105
O66	O	0.871521	-0.066926	0.494105
O67	O	1.121521	0.183074	0.744105
O68	O	1.371521	0.433074	0.994105
C69	C	0.532460	-0.216492	0.216517
C70	C	0.782460	0.033508	0.466517
C71	C	1.032460	0.283508	0.716517
C72	C	1.282460	0.533508	0.966517
C73	C	0.482526	-0.216495	0.216514
C74	C	0.732526	0.033505	0.466514
C75	C	0.982526	0.283505	0.716514
C76	C	1.232526	0.533505	0.966514
C77	C	0.172879	-0.245284	0.245240
C78	C	0.422879	0.004716	0.495240
C79	C	0.672879	0.254716	0.745240
C80	C	0.922879	0.504716	0.995240
C81	C	-0.014794	-0.245297	0.245260
C82	C	0.235206	0.004703	0.495260
C83	C	0.485206	0.254703	0.745260
C84	C	0.735206	0.504703	0.995260
O85	O	-0.039062	-0.269754	0.269665
O86	O	0.210938	-0.019754	0.519665
O87	O	0.460938	0.230246	0.769665
O88	O	0.710938	0.480246	1.019665
N89	N	-0.038259	-0.216528	0.216583
N90	N	0.211741	0.033472	0.466583
N91	N	0.461741	0.283472	0.716583
N92	N	0.711741	0.533472	0.966583
C93	C	-0.014803	-0.187752	0.187902
C94	C	0.235197	0.062248	0.437902
C95	C	0.485197	0.312248	0.687902
C96	C	0.735197	0.562248	0.937902
O97	O	-0.039068	-0.163279	0.163514
O98	O	0.210932	0.086721	0.413514
O99	O	0.460932	0.336721	0.663514
O100	O	0.710932	0.586721	0.913514
C101	C	0.172869	-0.187737	0.187884
C102	C	0.422869	0.062263	0.437884
C103	C	0.672869	0.312263	0.687884
C104	C	0.922869	0.562263	0.937884
C105	C	0.196332	-0.216511	0.216560
C106	C	0.446332	0.033489	0.466560
C107	C	0.696332	0.283489	0.716560
C108	C	0.946332	0.533489	0.966560
C109	C	0.196342	-0.274056	0.273913
C110	C	0.446342	-0.024056	0.523913
C111	C	0.696342	0.225944	0.773913
C112	C	0.946342	0.475944	1.023913
C113	C	0.243257	-0.274054	0.273906
C114	C	0.493257	-0.024054	0.523906
C115	C	0.743257	0.225946	0.773906
C116	C	0.993257	0.475946	1.023906
C117	C	0.266710	-0.245281	0.245226
C118	C	0.516710	0.004719	0.495226
C119	C	0.766710	0.254719	0.745226
C120	C	1.016710	0.504719	0.995226
C121	C	0.243247	-0.216509	0.216553
C122	C	0.493247	0.033491	0.466553
C123	C	0.743247	0.283491	0.716553
C124	C	0.993247	0.533491	0.966553
C125	C	0.196325	-0.158959	0.159205
C126	C	0.446325	0.091041	0.409205
C127	C	0.696325	0.341041	0.659205
C128	C	0.946325	0.591041	0.909205
C129	C	0.243246	-0.158957	0.159204
C130	C	0.493246	0.091043	0.409204
C131	C	0.743246	0.341043	0.659204
C132	C	0.993246	0.591043	0.909204
C133	C	0.266708	-0.187731	0.187880
C134	C	0.516708	0.062269	0.437880
C135	C	0.766708	0.312269	0.687880
C136	C	1.016708	0.562269	0.937880
C137	C	0.313616	-0.187734	0.187865
C138	C	0.563616	0.062266	0.437865
C139	C	0.813616	0.312266	0.687865
C140	C	1.063616	0.562266	0.937865
N141	N	0.337081	-0.216504	0.216542
N142	N	0.587081	0.033496	0.466542
N143	N	0.837081	0.283496	0.716542
N144	N	1.087081	0.533496	0.966542
C145	C	0.313628	-0.245277	0.245222
C146	C	0.563628	0.004723	0.495222
C147	C	0.813628	0.254723	0.745222
C148	C	1.063628	0.504723	0.995222
C149	C	-0.113334	-0.187762	0.187912
C150	C	0.136666	0.062238	0.437912
C151	C	0.386666	0.312238	0.687912
C152	C	0.636666	0.562238	0.937912
C153	C	-0.160251	-0.187766	0.187916
C154	C	0.089749	0.062234	0.437916
C155	C	0.339749	0.312234	0.687916
C156	C	0.589749	0.562234	0.937916
C157	C	-0.160239	-0.245311	0.245275
C158	C	0.089761	0.004689	0.495275
C159	C	0.339761	0.254689	0.745275
C160	C	0.589761	0.504689	0.995275
C161	C	-0.113321	-0.245309	0.245269
C162	C	0.136679	0.004691	0.495269
C163	C	0.386679	0.254691	0.745269
C164	C	0.636679	0.504691	0.995269
C165	C	-0.089869	-0.216531	0.216589
C166	C	0.160131	0.033469	0.466589
C167	C	0.410131	0.283469	0.716589
C168	C	0.660131	0.533469	0.966589
C169	C	0.412154	-0.245271	0.245205
C170	C	0.662154	0.004729	0.495205
C171	C	0.912154	0.254729	0.745205
C172	C	1.162154	0.504729	0.995205
C173	C	0.459073	-0.245268	0.245194
C174	C	0.709073	0.004732	0.495194
C175	C	0.959073	0.254732	0.745194
C176	C	1.209073	0.504732	0.995194
C177	C	0.459057	-0.187722	0.187837
C178	C	0.709057	0.062278	0.437837
C179	C	0.959057	0.312278	0.687837
C180	C	1.209057	0.562278	0.937837
C181	C	0.412141	-0.187726	0.187846
C182	C	0.662141	0.062274	0.437846
C183	C	0.912141	0.312274	0.687846
C184	C	1.162141	0.562274	0.937846
C185	C	0.388691	-0.216502	0.216534
C186	C	0.638691	0.033498	0.466534
C187	C	0.888691	0.283498	0.716534
C188	C	1.138691	0.533498	0.966534
O189	O	0.337912	-0.163287	0.163477
O190	O	0.587912	0.086713	0.413477
O191	O	0.837912	0.336713	0.663477
O192	O	1.087912	0.586713	0.913477
O193	O	0.337900	-0.269739	0.269613
O194	O	0.587900	-0.019739	0.519613
O195	O	0.837900	0.230261	0.769613
O196	O	1.087900	0.480261	1.019613
C197	C	0.125964	-0.245286	0.245247
C198	C	0.375964	0.004714	0.495247
C199	C	0.625964	0.254714	0.745247
C200	C	0.875964	0.504714	0.995247
C201	C	0.102501	-0.216515	0.216574
C202	C	0.352501	0.033485	0.466574
C203	C	0.602501	0.283485	0.716574
C204	C	0.852501	0.533485	0.966574
C205	C	0.125954	-0.187741	0.187893
C206	C	0.375954	0.062259	0.437893
C207	C	0.625954	0.312259	0.687893
C208	C	0.875954	0.562259	0.937893
C209	C	0.055583	-0.216519	0.216577
C210	C	0.305583	0.033481	0.466577
C211	C	0.555583	0.283481	0.716577
C212	C	0.805583	0.533481	0.966577
C213	C	0.032130	-0.245292	0.245258
C214	C	0.282130	0.004708	0.495258
C215	C	0.532130	0.254708	0.745258
C216	C	0.782130	0.504708	0.995258
C217	C	0.055595	-0.274061	0.273934
C218	C	0.305595	-0.024061	0.523934
C219	C	0.555595	0.225939	0.773934
C220	C	0.805595	0.475939	1.023934
C221	C	0.102511	-0.274059	0.273927
C222	C	0.352511	-0.024059	0.523927
C223	C	0.602511	0.225941	0.773927
C224	C	0.852511	0.475941	1.023927
C225	C	0.102489	-0.158972	0.159217
C226	C	0.352489	0.091028	0.409217
C227	C	0.602489	0.341028	0.659217
C228	C	0.852489	0.591028	0.909217
C229	C	0.055573	-0.158977	0.159226
C230	C	0.305573	0.091023	0.409226
C231	C	0.555573	0.341023	0.659226
C232	C	0.805573	0.591023	0.909226
C233	C	0.032120	-0.187750	0.187906
C234	C	0.282120	0.062250	0.437906
C235	C	0.532120	0.312250	0.687906
C236	C	0.782120	0.562250	0.937906
C237	C	0.649102	-0.333234	0.216527
C238	C	0.899102	-0.083234	0.466527
C239	C	1.149102	0.166766	0.716527
C240	C	1.399102	0.416766	0.966527
C241	C	0.649108	-0.383168	0.216533
C242	C	0.899108	-0.133168	0.466533
C243	C	1.149108	0.116832	0.716533
C244	C	1.399108	0.366832	0.966533
C245	C	0.677959	-0.692807	0.187866
C246	C	0.927959	-0.442807	0.437866
C247	C	1.177959	-0.192807	0.687866
C248	C	1.427959	0.057193	0.937866
C249	C	0.678014	-0.880480	0.187883
C250	C	0.928014	-0.630480	0.437883
C251	C	1.178014	-0.380480	0.687883
C252	C	1.428014	-0.130480	0.937883
O253	O	0.702480	-0.904741	0.163493
O254	O	0.952480	-0.654741	0.413493
O255	O	1.202480	-0.404741	0.663493
O256	O	1.452480	-0.154741	0.913493
N257	N	0.649276	-0.903953	0.216583
N258	N	0.899276	-0.653953	0.466583
N259	N	1.149276	-0.403953	0.716583
N260	N	1.399276	-0.153953	0.966583
C261	C	0.620524	-0.880506	0.245283
C262	C	0.870524	-0.630506	0.495283
C263	C	1.120524	-0.380506	0.745283
C264	C	1.370524	-0.130506	0.995283
O265	O	0.596085	-0.904777	0.269698
O266	O	0.846085	-0.654777	0.519698
O267	O	1.096085	-0.404777	0.769698
O268	O	1.346085	-0.154777	1.019698
C269	C	0.620471	-0.692833	0.245268
C270	C	0.870471	-0.442833	0.495268
C271	C	1.120471	-0.192833	0.745268
C272	C	1.370471	0.057167	0.995268
C273	C	0.649208	-0.669363	0.216563
C274	C	0.899208	-0.419363	0.466563
C275	C	1.149208	-0.169363	0.716563
C276	C	1.399208	0.080637	0.966563
C277	C	0.706694	-0.669336	0.159164
C278	C	0.956694	-0.419336	0.409164
C279	C	1.206694	-0.169336	0.659164
C280	C	1.456694	0.080664	0.909164
C281	C	0.706678	-0.622421	0.159158
C282	C	0.956678	-0.372421	0.409158
C283	C	1.206678	-0.122421	0.659158
C284	C	1.456678	0.127579	0.909158
C285	C	0.677927	-0.598976	0.187854
C286	C	0.927927	-0.348976	0.437854
C287	C	1.177927	-0.098976	0.687854
C288	C	1.427927	0.151024	0.937854
C289	C	0.649192	-0.622447	0.216557
C290	C	0.899192	-0.372447	0.466557
C291	C	1.149192	-0.122447	0.716557
C292	C	1.399192	0.127553	0.966557
C293	C	0.591722	-0.669387	0.273969
C294	C	0.841722	-0.419387	0.523969
C295	C	1.091722	-0.169387	0.773969
C296	C	1.341722	0.080613	1.023969
C297	C	0.591712	-0.622466	0.273964
C298	C	0.841712	-0.372466	0.523964
C299	C	1.091712	-0.122466	0.773964
C300	C	1.341712	0.127534	1.023964
C301	C	0.620449	-0.598995	0.245259
C302	C	0.870449	-0.348995	0.495259
C303	C	1.120449	-0.098995	0.745259
C304	C	1.370449	0.151005	0.995259
C305	C	0.620426	-0.552087	0.245248
C306	C	0.870426	-0.302087	0.495248
C307	C	1.120426	-0.052087	0.745248
C308	C	1.370426	0.197913	0.995248
N309	N	0.649164	-0.528614	0.216548
N310	N	0.899164	-0.278614	0.466548
N311	N	1.149164	-0.028614	0.716548
N312	N	1.399164	0.221386	0.966548
C313	C	0.677915	-0.552058	0.187851
C314	C	0.927915	-0.302058	0.437851
C315	C	1.177915	-0.052058	0.687851
C316	C	1.427915	0.197942	0.937851
C317	C	0.620553	-0.979036	0.245289
C318	C	0.870553	-0.729036	0.495289
C319	C	1.120553	-0.479036	0.745289
C320	C	1.370553	-0.229036	0.995289
C321	C	0.620566	-1.025954	0.245292
C322	C	0.870566	-0.775954	0.495292
C323	C	1.120566	-0.525954	0.745292
C324	C	1.370566	-0.275954	0.995292
C325	C	0.678057	-1.025925	0.187893
C326	C	0.928057	-0.775925	0.437893
C327	C	1.178057	-0.525925	0.687893
C328	C	1.428057	-0.275925	0.937893
C329	C	0.678042	-0.979007	0.187887
C330	C	0.928042	-0.729007	0.437887
C331	C	1.178042	-0.479007	0.687887
C332	C	1.428042	-0.229007	0.937887
C333	C	0.649291	-0.955563	0.216589
C334	C	0.899291	-0.705563	0.466589
C335	C	1.149291	-0.455563	0.716589
C336	C	1.399291	-0.205563	0.966589
C337	C	0.677879	-0.453533	0.187841
C338	C	0.927879	-0.203533	0.437841
C339	C	1.177879	0.046467	0.687841
C340	C	1.427879	0.296467	0.937841
C341	C	0.677859	-0.406613	0.187836
C342	C	0.927859	-0.156613	0.437836
C343	C	1.177859	0.093387	0.687836
C344	C	1.427859	0.343387	0.937836
C345	C	0.620370	-0.406646	0.245237
C346	C	0.870370	-0.156646	0.495237
C347	C	1.120370	0.093354	0.745237
C348	C	1.370370	0.343354	0.995237
C349	C	0.620388	-0.453561	0.245240
C350	C	0.870388	-0.203561	0.495240
C351	C	1.120388	0.046439	0.745240
C352	C	1.370388	0.296439	0.995240
C353	C	0.649146	-0.477004	0.216540
C354	C	0.899146	-0.227004	0.466540
C355	C	1.149146	0.022996	0.716540
C356	C	1.399146	0.272996	0.966540
O357	O	0.595976	-0.527797	0.269629
O358	O	0.845976	-0.277797	0.519629
O359	O	1.095976	-0.027797	0.769629
O360	O	1.345976	0.222203	1.019629
O361	O	0.702357	-0.527778	0.163447
O362	O	0.952357	-0.277778	0.413447
O363	O	1.202357	-0.027778	0.663447
O364	O	1.452357	0.222222	0.913447
C365	C	0.677975	-0.739723	0.187872
C366	C	0.927975	-0.489723	0.437872
C367	C	1.177975	-0.239723	0.687872
C368	C	1.427975	0.010277	0.937872
C369	C	0.649240	-0.763193	0.216574
C370	C	0.899240	-0.513193	0.466574
C371	C	1.149240	-0.263193	0.716574
C372	C	1.399240	-0.013193	0.966574
C373	C	0.620489	-0.739749	0.245271
C374	C	0.870489	-0.489749	0.495271
C375	C	1.120489	-0.239749	0.745271
C376	C	1.370489	0.010251	0.995271
C377	C	0.649252	-0.810111	0.216578
C378	C	0.899252	-0.560111	0.466578
C379	C	1.149252	-0.310111	0.716578
C380	C	1.399252	-0.060111	0.966578
C381	C	0.678003	-0.833556	0.187881
C382	C	0.928003	-0.583556	0.437881
C383	C	1.178003	-0.333556	0.687881
C384	C	1.428003	-0.083556	0.937881
C385	C	0.706741	-0.810082	0.159181
C386	C	0.956741	-0.560082	0.409181
C387	C	1.206741	-0.310082	0.659181
C388	C	1.456741	-0.060082	0.909181
C389	C	0.706726	-0.763167	0.159175
C390	C	0.956726	-0.513167	0.409175
C391	C	1.206726	-0.263167	0.659175
C392	C	1.456726	-0.013167	0.909175
C393	C	0.591751	-0.763222	0.273971
C394	C	0.841751	-0.513222	0.523971
C395	C	1.091751	-0.263222	0.773971
C396	C	1.341751	-0.013222	1.023971
C397	C	0.591769	-0.810138	0.273974
C398	C	0.841769	-0.560138	0.523974
C399	C	1.091769	-0.310138	0.773974
C400	C	1.341769	-0.060138	1.023974
C401	C	0.620520	-0.833582	0.245277
C402	C	0.870520	-0.583582	0.495277
C403	C	1.120520	-0.333582	0.745277
C404	C	1.370520	-0.083582	0.995277
C405	C	0.766361	-0.216531	0.216582
C406	C	1.016361	0.033469	0.466582
C407	C	1.266361	0.283469	0.716582
C408	C	1.516361	0.533469	0.966582
C409	C	0.816296	-0.216539	0.216596
C410	C	1.066296	0.033461	0.466596
C411	C	1.316296	0.283461	0.716596
C412	C	1.566296	0.533461	0.966596
C413	C	0.649223	-0.216499	0.333728
C414	C	0.899223	0.033501	0.583728
C415	C	1.149223	0.283501	0.833728
C416	C	1.399223	0.533501	1.083728
C417	C	0.649240	-0.216493	0.383662
C418	C	0.899240	0.033507	0.633662
C419	C	1.149240	0.283507	0.883662
C420	C	1.399240	0.533507	1.133662
C421	C	0.649277	-0.099333	0.216582
C422	C	0.899277	0.150667	0.466582
C423	C	1.149277	0.400667	0.716582
C424	C	1.399277	0.650667	0.966582
C425	C	0.649317	-0.049399	0.216595
C426	C	0.899317	0.200601	0.466595
C427	C	1.149317	0.450601	0.716595
C428	C	1.399317	0.700601	0.966595
C429	C	0.649169	-0.216492	0.099827
C430	C	0.899169	0.033508	0.349827
C431	C	1.149169	0.283508	0.599827
C432	C	1.399169	0.533508	0.849827
C433	C	0.649239	-0.216371	0.049893
C434	C	0.899239	0.033629	0.299893
C435	C	1.149239	0.283629	0.549893
C436	C	1.399239	0.533629	0.799893
C437	C	0.677945	-0.245172	0.740253
C438	C	0.927945	0.004828	0.990253
C439	C	1.177945	0.254828	1.240253
C440	C	1.427945	0.504828	1.490253
C441	C	0.677946	-0.245203	0.552580
C442	C	0.927946	0.004797	0.802580
C443	C	1.177946	0.254797	1.052580
C444	C	1.427946	0.504797	1.302580
O445	O	0.702347	-0.269657	0.528318
O446	O	0.952347	-0.019657	0.778318
O447	O	1.202347	0.230343	1.028318
O448	O	1.452347	0.480343	1.278318
N449	N	0.649238	-0.216471	0.529108
N450	N	0.899238	0.033529	0.779108
N451	N	1.149238	0.283529	1.029108
N452	N	1.399238	0.533529	1.279108
C453	C	0.620527	-0.187732	0.552557
C454	C	0.870527	0.062268	0.802557
C455	C	1.120527	0.312268	1.052557
C456	C	1.370527	0.562268	1.302557
O457	O	0.596106	-0.163298	0.528286
O458	O	0.846106	0.086702	0.778286
O459	O	1.096106	0.336702	1.028286
O460	O	1.346106	0.586702	1.278286
C461	C	0.620524	-0.187704	0.740229
C462	C	0.870524	0.062296	0.990229
C463	C	1.120524	0.312296	1.240229
C464	C	1.370524	0.562296	1.490229
C465	C	0.649237	-0.216434	0.763699
C466	C	0.899237	0.033566	1.013699
C467	C	1.149237	0.283566	1.263699
C468	C	1.399237	0.533566	1.513699
C469	C	0.706655	-0.273900	0.763723
C470	C	0.956655	-0.023900	1.013723
C471	C	1.206655	0.226100	1.263723
C472	C	1.456655	0.476100	1.513723
C473	C	0.706656	-0.273890	0.810638
C474	C	0.956656	-0.023890	1.060638
C475	C	1.206656	0.226110	1.310638
C476	C	1.456656	0.476110	1.560638
C477	C	0.677947	-0.245152	0.834084
C478	C	0.927947	0.004848	1.084084
C479	C	1.177947	0.254848	1.334084
C480	C	1.427947	0.504848	1.584084
C481	C	0.649238	-0.216424	0.810614
C482	C	0.899238	0.033576	1.060614
C483	C	1.149238	0.283576	1.310614
C484	C	1.399238	0.533576	1.560614
C485	C	0.591811	-0.158967	0.763677
C486	C	0.841811	0.091033	1.013677
C487	C	1.091811	0.341033	1.263677
C488	C	1.341811	0.591033	1.513677
C489	C	0.591812	-0.158963	0.810598
C490	C	0.841812	0.091037	1.060598
C491	C	1.091812	0.341037	1.310598
C492	C	1.341812	0.591037	1.560598
C493	C	0.620524	-0.187693	0.834068
C494	C	0.870524	0.062307	1.084068
C495	C	1.120524	0.312307	1.334068
C496	C	1.370524	0.562307	1.584068
C497	C	0.620531	-0.187676	0.880975
C498	C	0.870531	0.062324	1.130975
C499	C	1.120531	0.312324	1.380975
C500	C	1.370531	0.562324	1.630975
N501	N	0.649238	-0.216407	0.904447
N502	N	0.899238	0.033593	1.154447
N503	N	1.149238	0.283593	1.404447
N504	N	1.399238	0.533593	1.654447
C505	C	0.677946	-0.245145	0.881002
C506	C	0.927946	0.004855	1.131002
C507	C	1.177946	0.254855	1.381002
C508	C	1.427946	0.504855	1.631002
C509	C	0.620531	-0.187749	0.454026
C510	C	0.870531	0.062251	0.704026
C511	C	1.120531	0.312251	0.954026
C512	C	1.370531	0.562251	1.204026
C513	C	0.620532	-0.187755	0.407108
C514	C	0.870532	0.062245	0.657108
C515	C	1.120532	0.312245	0.907108
C516	C	1.370532	0.562245	1.157108
C517	C	0.677950	-0.245227	0.407134
C518	C	0.927950	0.004773	0.657134
C519	C	1.177950	0.254773	0.907134
C520	C	1.427950	0.504773	1.157134
C521	C	0.677951	-0.245217	0.454053
C522	C	0.927951	0.004783	0.704053
C523	C	1.177951	0.254783	0.954053
C524	C	1.427951	0.504783	1.204053
C525	C	0.649238	-0.216480	0.477498
C526	C	0.899238	0.033520	0.727498
C527	C	1.149238	0.283520	0.977498
C528	C	1.399238	0.533520	1.227498
C529	C	0.677947	-0.245122	0.979527
C530	C	0.927947	0.004878	1.229527
C531	C	1.177947	0.254878	1.479527
C532	C	1.427947	0.504878	1.729527
C533	C	0.677947	-0.245109	1.026447
C534	C	0.927947	0.004891	1.276447
C535	C	1.177947	0.254891	1.526447
C536	C	1.427947	0.504891	1.776447
C537	C	0.620527	-0.187639	1.026417
C538	C	0.870527	0.062361	1.276417
C539	C	1.120527	0.312361	1.526417
C540	C	1.370527	0.562361	1.776417
C541	C	0.620529	-0.187651	0.979501
C542	C	0.870529	0.062349	1.229501
C543	C	1.120529	0.312349	1.479501
C544	C	1.370529	0.562349	1.729501
C545	C	0.649240	-0.216396	0.956058
C546	C	0.899240	0.033604	1.206058
C547	C	1.149240	0.283604	1.456058
C548	C	1.399240	0.533604	1.706058
O549	O	0.596139	-0.163238	0.905266
O550	O	0.846139	0.086762	1.155266
O551	O	1.096139	0.336762	1.405266
O552	O	1.346139	0.586762	1.655266
O553	O	0.702356	-0.269583	0.905280
O554	O	0.952356	-0.019583	1.155280
O555	O	1.202356	0.230417	1.405280
O556	O	1.452356	0.480417	1.655280
C557	C	0.677944	-0.245181	0.693337
C558	C	0.927944	0.004819	0.943337
C559	C	1.177944	0.254819	1.193337
C560	C	1.427944	0.504819	1.443337
C561	C	0.649234	-0.216453	0.669868
C562	C	0.899234	0.033547	0.919868
C563	C	1.149234	0.283547	1.169868
C564	C	1.399234	0.533547	1.419868
C565	C	0.620526	-0.187715	0.693313
C566	C	0.870526	0.062285	0.943313
C567	C	1.120526	0.312285	1.193313
C568	C	1.370526	0.562285	1.443313
C569	C	0.649235	-0.216460	0.622950
C570	C	0.899235	0.033540	0.872950
C571	C	1.149235	0.283540	1.122950
C572	C	1.399235	0.533540	1.372950
C573	C	0.677944	-0.245198	0.599504
C574	C	0.927944	0.004802	0.849504
C575	C	1.177944	0.254802	1.099504
C576	C	1.427944	0.504802	1.349504
C577	C	0.706651	-0.273929	0.622976
C578	C	0.956651	-0.023929	0.872976
C579	C	1.206651	0.226071	1.122976
C580	C	1.456651	0.476071	1.372976
C581	C	0.706652	-0.273919	0.669892
C582	C	0.956652	-0.023919	0.919892
C583	C	1.206652	0.226081	1.169892
C584	C	1.456652	0.476081	1.419892
C585	C	0.591818	-0.158984	0.669841
C586	C	0.841818	0.091016	0.919841
C587	C	1.091818	0.341016	1.169841
C588	C	1.341818	0.591016	1.419841
C589	C	0.591820	-0.158996	0.622926
C590	C	0.841820	0.091004	0.872926
C591	C	1.091820	0.341004	1.122926
C592	C	1.341820	0.591004	1.372926
C593	C	0.620528	-0.187734	0.599480
C594	C	0.870528	0.062266	0.849480
C595	C	1.120528	0.312266	1.099480
C596	C	1.370528	0.562266	1.349480
H597	H	0.177251	-0.297487	0.297271
H598	H	0.427251	-0.047487	0.547271
H599	H	0.677251	0.202513	0.797271
H600	H	0.927251	0.452513	1.047271
H601	H	0.568364	-0.829244	0.297349
H602	H	0.818364	-0.579244	0.547349
H603	H	1.068364	-0.329244	0.797349
H604	H	1.318364	-0.079244	1.047349
Br605	Br	0.581568	-0.148654	0.947648
Br606	Br	0.831568	0.101346	1.197648
Br607	Br	1.081568	0.351346	1.447648
Br608	Br	1.331568	0.601346	1.697648
H609	H	0.730035	-0.297286	0.829743
H610	H	0.980035	-0.047286	1.079743
H611	H	1.230035	0.202714	1.329743
H612	H	1.480035	0.452714	1.579743
H613	H	0.478174	-0.268701	0.268545
H614	H	0.728174	-0.018701	0.518545
H615	H	0.978174	0.231299	0.768545
H616	H	1.228174	0.481299	1.018545
Br617	Br	0.716919	-0.284209	0.485900
Br618	Br	0.966919	-0.034209	0.735900
Br619	Br	1.216919	0.215791	0.985900
Br620	Br	1.466919	0.465791	1.235900
Br621	Br	0.490895	-0.148675	0.148915
Br622	Br	0.740895	0.101325	0.398915
Br623	Br	0.990895	0.351325	0.648915
Br624	Br	1.240895	0.601325	0.898915
Br625	Br	0.716918	-0.284101	1.058296
Br626	Br	0.966918	-0.034101	1.308296
Br627	Br	1.216918	0.215899	1.558296
Br628	Br	1.466918	0.465899	1.808296
Br629	Br	0.380335	-0.284325	0.284139
Br630	Br	0.630335	-0.034325	0.534139
Br631	Br	0.880335	0.215675	0.784139
Br632	Br	1.130335	0.465675	1.034139
H633	H	0.730028	-0.297327	0.603878
H634	H	0.980028	-0.047327	0.853878
H635	H	1.230028	0.202673	1.103878
H636	H	1.480028	0.452673	1.353878
H637	H	0.597161	-1.045060	0.268662
H638	H	0.847161	-0.795060	0.518662
H639	H	1.097161	-0.545060	0.768662
H640	H	1.347161	-0.295060	1.018662
Br641	Br	0.745621	-0.312907	0.731912
Br642	Br	0.995621	-0.062907	0.981912
Br643	Br	1.245621	0.187093	1.231912
Br644	Br	1.495621	0.437093	1.481912
H645	H	-0.094220	-0.268739	0.268619
H646	H	0.155780	-0.018739	0.518619
H647	H	0.405780	0.231261	0.768619
H648	H	0.655780	0.481261	1.018619
H649	H	0.701260	-0.387504	0.164459
H650	H	0.951260	-0.137504	0.414459
H651	H	1.201260	0.112496	0.664459
H652	H	1.451260	0.362496	0.914459
Br653	Br	0.581355	-0.374819	0.284182
Br654	Br	0.831355	-0.124819	0.534182
Br655	Br	1.081355	0.125181	0.784182
Br656	Br	1.331355	0.375181	1.034182
Br657	Br	0.552844	-0.119958	0.842413
Br658	Br	0.802844	0.130042	1.092413
Br659	Br	1.052844	0.380042	1.342413
Br660	Br	1.302844	0.630042	1.592413
H661	H	0.262356	-0.297484	0.297258
H662	H	0.512356	-0.047484	0.547258
H663	H	0.762356	0.202516	0.797258
H664	H	1.012356	0.452516	1.047258
H665	H	0.568339	-0.744137	0.297340
H666	H	0.818339	-0.494137	0.547340
H667	H	1.068339	-0.244137	0.797340
H668	H	1.318339	0.005863	1.047340
Br669	Br	0.275071	-0.119897	0.120281
Br670	Br	0.525071	0.130103	0.370281
Br671	Br	0.775071	0.380103	0.620281
Br672	Br	1.025071	0.630103	0.870281
H673	H	0.393037	-0.164297	0.164496
H674	H	0.643037	0.085703	0.414496
H675	H	0.893037	0.335703	0.664496
H676	H	1.143037	0.585703	0.914496
Br677	Br	0.745758	-0.841909	0.120234
Br678	Br	0.995758	-0.591909	0.370234
Br679	Br	1.245758	-0.341909	0.620234
Br680	Br	1.495758	-0.091909	0.870234
Br681	Br	0.716911	-0.284229	0.375306
Br682	Br	0.966911	-0.034229	0.625306
Br683	Br	1.216911	0.215771	0.875306
Br684	Br	1.466911	0.465771	1.125306
H685	H	-0.179343	-0.268739	0.268628
H686	H	0.070657	-0.018739	0.518628
H687	H	0.320657	0.231261	0.768628
H688	H	0.570657	0.481261	1.018628
H689	H	0.701297	-0.472614	0.164472
H690	H	0.951297	-0.222614	0.414472
H691	H	1.201297	0.027386	0.664472
H692	H	1.451297	0.277386	0.914472
Br693	Br	0.717074	-1.057752	0.148946
Br694	Br	0.967074	-0.807752	0.398946
Br695	Br	1.217074	-0.557752	0.648946
Br696	Br	1.467074	-0.307752	0.898946
H697	H	0.730079	-0.603313	0.135785
H698	H	0.980079	-0.353313	0.385785
H699	H	1.230079	-0.103313	0.635785
H700	H	1.480079	0.146687	0.885785
Br701	Br	0.745729	-0.731321	0.120217
Br702	Br	0.995729	-0.481321	0.370217
Br703	Br	1.245729	-0.231321	0.620217
Br704	Br	1.495729	0.018679	0.870217
H705	H	0.596989	-0.472672	0.268615
H706	H	0.846989	-0.222672	0.518615
H707	H	1.096989	0.027328	0.768615
H708	H	1.346989	0.277328	1.018615
H709	H	0.036474	-0.135546	0.135871
H710	H	0.286474	0.114454	0.385871
H711	H	0.536474	0.364454	0.635871
H712	H	0.786474	0.614454	0.885871
Br713	Br	0.134345	-0.313113	0.312845
Br714	Br	0.384345	-0.063113	0.562845
Br715	Br	0.634345	0.186887	0.812845
Br716	Br	0.884345	0.436887	1.062845
Br717	Br	0.717043	-0.947158	0.148929
Br718	Br	0.967043	-0.697158	0.398929
Br719	Br	1.217043	-0.447158	0.648929
Br720	Br	1.467043	-0.197158	0.898929
H721	H	0.568429	-0.135573	0.744576
H722	H	0.818429	0.114427	0.994576
H723	H	1.068429	0.364427	1.244576
H724	H	1.318429	0.614427	1.494576
Br725	Br	-0.192088	-0.148721	0.148991
Br726	Br	0.057912	0.101279	0.398991
Br727	Br	0.307912	0.351279	0.648991
Br728	Br	0.557912	0.601279	0.898991
H729	H	-0.094243	-0.164327	0.164556
H730	H	0.155757	0.085673	0.414556
H731	H	0.405757	0.335673	0.664556
H732	H	0.655757	0.585673	0.914556
H733	H	0.730109	-0.688420	0.135795
H734	H	0.980109	-0.438420	0.385795
H735	H	1.230109	-0.188420	0.635795
H736	H	1.480109	0.061580	0.885795
Br737	Br	0.164494	-0.119903	0.120289
Br738	Br	0.414494	0.130097	0.370289
Br739	Br	0.664494	0.380097	0.620289
Br740	Br	0.914494	0.630097	0.870289
H741	H	0.597157	-0.164355	0.388003
H742	H	0.847157	0.085645	0.638003
H743	H	1.097157	0.335645	0.888003
H744	H	1.347157	0.585645	1.138003
Br745	Br	0.552693	-0.590652	0.312919
Br746	Br	0.802693	-0.340652	0.562919
Br747	Br	1.052693	-0.090652	0.812919
Br748	Br	1.302693	0.159348	1.062919
Br749	Br	0.716912	-0.284134	0.947719
Br750	Br	0.966912	-0.034134	1.197719
Br751	Br	1.216912	0.215866	1.447719
Br752	Br	1.466912	0.465866	1.697719
H753	H	0.036492	-0.297491	0.297286
H754	H	0.286492	-0.047491	0.547286
H755	H	0.536492	0.202509	0.797286
H756	H	0.786492	0.452509	1.047286
H757	H	0.121579	-0.135541	0.135861
H758	H	0.371579	0.114459	0.385861
H759	H	0.621579	0.364459	0.635861
H760	H	0.871579	0.614459	0.885861
H761	H	0.597148	-0.164346	0.473111
H762	H	0.847148	0.085654	0.723111
H763	H	1.097148	0.335654	0.973111
H764	H	1.347148	0.585654	1.223111
Br765	Br	0.581569	-0.148638	1.058245
Br766	Br	0.831569	0.101362	1.308245
Br767	Br	1.081569	0.351362	1.558245
Br768	Br	1.331569	0.601362	1.808245
Br769	Br	0.581531	-0.947227	0.284244
Br770	Br	0.831531	-0.697227	0.534244
Br771	Br	1.081531	-0.447227	0.784244
Br772	Br	1.331531	-0.197227	1.034244
Br773	Br	0.552852	-0.119998	0.591080
Br774	Br	0.802852	0.130002	0.841080
Br775	Br	1.052852	0.380002	1.091080
Br776	Br	1.302852	0.630002	1.341080
Br777	Br	0.552842	-0.119989	0.701653
Br778	Br	0.802842	0.130011	0.951653
Br779	Br	1.052842	0.380011	1.201653
Br780	Br	1.302842	0.630011	1.451653
H781	H	0.568319	-0.688489	0.297342
H782	H	0.818319	-0.438489	0.547342
H783	H	1.068319	-0.188489	0.797342
H784	H	1.318319	0.061511	1.047342
H785	H	0.730033	-0.297314	0.688996
H786	H	0.980033	-0.047314	0.938996
H787	H	1.230033	0.202686	1.188996
H788	H	1.480033	0.452686	1.438996
