data_functionalizedCrystal
_audit_creation_method	'MofGen! by Chris Wilmer'
_symmetry_space_group_name_H-M	'P1'
_symmetry_Int_Tables_number	1
_symmetry_cell_setting	triclinic
loop_
_symmetry_equiv_pos_as_xyz
  x,y,z
_cell_length_a	9.065218
_cell_length_b	19.188930
_cell_length_c	7.540329
_cell_angle_alpha	89.991297
_cell_angle_beta	89.996962
_cell_angle_gamma	84.080333
loop_
_atom_site_label
_atom_site_type_symbol
_atom_site_fract_x
_atom_site_fract_y
_atom_site_fract_z
O1	O	1.956847	0.102369	-0.147510
O2	O	1.527271	0.110766	-0.147515
O3	O	1.754456	0.005009	-0.147478
O4	O	1.729662	0.208127	-0.147547
O5	O	1.754442	0.005007	0.147487
O6	O	1.527257	0.110765	0.147450
O7	O	1.956833	0.102368	0.147455
Cu8	Cu	1.742044	0.106566	0.174385
Cu9	Cu	1.742060	0.106568	-0.174445
O10	O	1.729649	0.208126	0.147418
C11	C	1.472305	0.109959	-0.000032
C12	C	1.308546	0.107546	-0.000033
C13	C	1.753646	-0.021009	0.000010
C14	C	1.751236	-0.098533	0.000025
C15	C	1.884540	-0.142421	0.000035
C16	C	1.882276	-0.215262	0.000006
C17	C	1.746699	-0.244212	0.000004
C18	C	1.613377	-0.200314	-0.000016
C19	C	1.615646	-0.127474	-0.000006
N20	N	1.643063	-0.353023	0.100385
N21	N	1.640917	-0.422218	0.100379
C22	C	1.739858	-0.463674	-0.000032
N23	N	1.841047	-0.433322	-0.100414
N24	N	1.843197	-0.364120	-0.100400
C25	C	1.744225	-0.323194	-0.000009
C26	C	1.870716	-0.586546	-0.000056
C27	C	1.868446	-0.659388	-0.000095
C28	C	1.599544	-0.644438	-0.000100
C29	C	1.601818	-0.571598	-0.000078
C30	C	1.737408	-0.542656	-0.000048
C31	C	2.011799	0.103176	-0.000032
C32	C	2.175558	0.105589	-0.000043
C33	C	1.730458	0.234144	-0.000074
C34	C	1.732869	0.311667	-0.000101
N35	N	1.742044	0.106565	0.419734
N36	N	1.742072	0.106564	-0.419794
H37	H	1.994948	-0.118862	0.000054
H38	H	1.990832	-0.251003	0.000007
C39	C	1.450412	-0.676275	-0.000108
H40	H	1.468151	-0.725942	-0.000106
H41	H	1.395547	-0.661256	-0.102968
H42	H	1.395539	-0.661276	0.102767
C43	C	1.469004	-0.079195	0.000000
H44	H	1.387932	-0.106866	0.000003
H45	H	1.464304	-0.050458	-0.102849
H46	H	1.464299	-0.050483	0.102885
H47	H	1.502990	-0.223890	-0.000022
C48	C	2.019856	-0.554706	-0.000043
H49	H	2.098926	-0.591280	-0.000067
H50	H	2.026328	-0.526612	0.102826
H51	H	2.026331	-0.526592	-0.102909
C52	C	2.015089	-0.707666	-0.000081
H53	H	2.096160	-0.679994	-0.000044
H54	H	2.019812	-0.736383	-0.102946
H55	H	2.019775	-0.736399	0.102788
C56	C	1.455181	-0.523318	-0.000059
H57	H	1.374110	-0.550990	-0.000049
H58	H	1.450476	-0.494582	-0.102911
H59	H	1.450478	-0.494604	0.102823
