data_functionalizedCrystal
_audit_creation_method	'MofGen! by Chris Wilmer'
_symmetry_space_group_name_H-M	'P1'
_symmetry_Int_Tables_number	1
_symmetry_cell_setting	triclinic
loop_
_symmetry_equiv_pos_as_xyz
  x,y,z
_cell_length_a	13.635800
_cell_length_b	7.076090
_cell_length_c	12.095381
_cell_angle_alpha	117.540669
_cell_angle_beta	31.196177
_cell_angle_gamma	117.701400
loop_
_atom_site_label
_atom_site_type_symbol
_atom_site_fract_x
_atom_site_fract_y
_atom_site_fract_z
V1	V	-2.340230	0.291701	0.663510
O2	O	-2.435766	-0.017518	0.652431
O3	O	-2.209880	0.581760	0.657480
O4	O	-2.505969	0.285678	0.953571
O5	O	-2.137628	0.280614	0.354291
V6	V	-2.571186	0.254896	0.626707
O7	O	-2.494560	0.372435	0.744243
O8	O	-2.641954	0.174162	0.545974
O9	O	-2.589932	-0.035163	0.632737
O10	O	-2.534348	0.564115	0.637786
O11	O	-2.832486	0.265983	0.935926
O12	O	-2.293844	0.260919	0.336646
V13	V	-1.840230	0.291701	0.663510
O14	O	-1.935766	-0.017518	0.652431
O15	O	-1.709880	0.581760	0.657480
O16	O	-2.005969	0.285678	0.953571
O17	O	-1.637628	0.280614	0.354291
V18	V	-2.071186	0.254896	0.626707
O19	O	-1.994560	0.372435	0.744243
O20	O	-2.141954	0.174162	0.545974
O21	O	-2.089932	-0.035163	0.632737
O22	O	-2.034348	0.564115	0.637786
O23	O	-2.332486	0.265983	0.935926
O24	O	-1.793844	0.260919	0.336646
C25	C	-2.100425	0.652521	0.646638
C26	C	-2.034547	0.894096	0.643590
C27	C	-2.586404	-0.347473	0.646678
C28	C	-2.531074	-0.105902	0.643601
C29	C	-1.978110	0.274825	1.024318
C30	C	-2.156857	0.271761	1.265891
C31	C	-2.478110	0.274825	1.024318
C32	C	-2.656857	0.271761	1.265891
