data_functionalizedCrystal
_audit_creation_method	'MofGen! by Chris Wilmer'
_symmetry_space_group_name_H-M	'P1'
_symmetry_Int_Tables_number	1
_symmetry_cell_setting	triclinic
loop_
_symmetry_equiv_pos_as_xyz
  x,y,z
_cell_length_a	9.065218
_cell_length_b	15.995350
_cell_length_c	8.140239
_cell_angle_alpha	89.998714
_cell_angle_beta	89.997198
_cell_angle_gamma	84.254130
loop_
_atom_site_label
_atom_site_type_symbol
_atom_site_fract_x
_atom_site_fract_y
_atom_site_fract_z
O1	O	1.957507	0.122770	-0.136609
O2	O	1.527985	0.132840	-0.136610
O3	O	1.754487	0.006007	-0.136608
O4	O	1.731005	0.249604	-0.136611
O5	O	1.754475	0.006005	0.136619
O6	O	1.527973	0.132839	0.136617
O7	O	1.957495	0.122769	0.136619
Zn8	Zn	1.742732	0.127803	0.179998
Zn9	Zn	1.742748	0.127806	-0.179990
O10	O	1.730992	0.249602	0.136616
C11	C	1.473015	0.131872	0.000003
C12	C	1.309240	0.128978	0.000002
C13	C	1.753510	-0.025196	0.000003
C14	C	1.750600	-0.118169	-0.000007
C15	C	1.740148	-0.455995	-0.000001
C16	C	1.578837	-0.409785	-0.000615
C17	C	1.581748	-0.313072	0.000001
C18	C	1.745332	-0.288396	-0.000005
C19	C	1.824889	-0.328871	0.156019
C20	C	1.820837	-0.425537	0.156149
C21	C	1.824183	-0.425868	-0.154561
C22	C	1.824145	-0.328923	-0.156623
C23	C	1.748271	-0.193676	-0.000001
C24	C	1.737214	-0.550716	0.000006
C25	C	2.012465	0.123737	0.000002
C26	C	2.176239	0.126631	-0.000008
C27	C	1.731969	0.280805	0.000002
C28	C	1.734880	0.373778	0.000001
N29	N	1.742731	0.127802	0.425681
N30	N	1.742760	0.127801	-0.425673
H31	H	1.519210	-0.285124	-0.111842
H32	H	1.939269	-0.456887	0.163224
H33	H	1.945070	-0.313833	0.161817
C34	C	1.366053	-0.472409	-0.099910
C35	C	1.491781	-0.435454	-0.151649
H36	H	1.312304	-0.488253	-0.193159
H37	H	1.395715	-0.520763	-0.035689
H38	H	1.304862	-0.433265	-0.035814
H39	H	1.552978	-0.474600	-0.215736
H40	H	1.462121	-0.387093	-0.215898
H41	H	1.514644	-0.429866	0.110649
C42	C	1.737825	-0.538074	0.315735
C43	C	1.742488	-0.450845	0.313584
H44	H	1.689458	-0.553693	0.412934
H45	H	1.684871	-0.554564	0.222440
H46	H	1.835992	-0.565123	0.313317
H47	H	1.644321	-0.423796	0.315990
H48	H	1.795441	-0.434347	0.406904
H49	H	1.769623	-0.300909	0.272130
C50	C	1.857942	-0.505627	-0.403981
C51	C	1.752995	-0.454131	-0.314207
H52	H	1.813976	-0.523079	-0.502526
H53	H	1.939582	-0.475174	-0.430040
H54	H	1.891424	-0.553561	-0.340264
H55	H	1.719521	-0.406194	-0.377919
H56	H	1.671329	-0.484585	-0.288151
C57	C	1.751594	-0.205542	-0.316660
C58	C	1.745738	-0.292661	-0.312449
H59	H	1.703193	-0.183153	-0.412864
H60	H	1.703418	-0.180799	-0.222346
H61	H	1.852147	-0.193591	-0.317655
H62	H	1.645184	-0.304612	-0.311443
H63	H	1.793910	-0.317412	-0.406788
H64	H	1.943438	-0.312656	-0.166048
H65	H	1.943117	-0.456727	-0.155614
H66	H	1.518780	-0.285686	0.112035
