data_functionalizedCrystal
_audit_creation_method	'MofGen! by Chris Wilmer'
_symmetry_space_group_name_H-M	'P1'
_symmetry_Int_Tables_number	1
_symmetry_cell_setting	triclinic
loop_
_symmetry_equiv_pos_as_xyz
  x,y,z
_cell_length_a	21.395364
_cell_length_b	10.685676
_cell_length_c	21.395355
_cell_angle_alpha	94.363429
_cell_angle_beta	90.024552
_cell_angle_gamma	85.597474
loop_
_atom_site_label
_atom_site_type_symbol
_atom_site_fract_x
_atom_site_fract_y
_atom_site_fract_z
Zn1	Zn	0.938819	0.502022	0.373410
Zn2	Zn	1.438819	1.002022	0.873410
Zn3	Zn	0.930720	0.713012	0.276680
Zn4	Zn	1.430720	1.213012	0.776680
Zn5	Zn	0.834032	0.502077	0.268649
Zn6	Zn	1.334032	1.002077	0.768649
Zn7	Zn	0.826001	0.713035	0.381421
Zn8	Zn	1.326001	1.213035	0.881421
O9	O	0.882393	0.607536	0.325040
O10	O	1.382393	1.107536	0.825040
O11	O	1.025424	0.529977	0.360587
O12	O	1.525424	1.029977	0.860587
O13	O	0.917865	0.685045	0.187938
O14	O	1.417865	1.185045	0.687938
O15	O	0.854683	0.325483	0.275832
O16	O	1.354683	0.825483	0.775832
O17	O	1.019473	0.684991	0.289520
O18	O	1.519473	1.184991	0.789520
O19	O	0.931670	0.325442	0.352799
O20	O	1.431670	0.825442	0.852799
O21	O	0.846830	0.530072	0.182037
O22	O	1.346830	1.030072	0.682037
O23	O	0.745288	0.530093	0.283600
O24	O	1.245288	1.030093	0.783600
O25	O	0.840995	0.685029	0.468036
O26	O	1.340995	1.185029	0.968036
O27	O	0.739387	0.685083	0.366453
O28	O	1.239387	1.185083	0.866453
O29	O	0.923882	0.529999	0.462150
O30	O	1.423882	1.029999	0.962150
O31	O	0.910078	0.889602	0.297288
O32	O	1.410078	1.389602	0.797288
O33	O	0.833141	0.889618	0.374241
O34	O	1.333141	1.389618	0.874241
C35	C	0.719603	0.607598	0.325025
C36	C	1.219603	1.107598	0.825025
C37	C	0.649960	0.607654	0.325034
C38	C	1.149960	1.107654	0.825034
C39	C	0.620362	0.527071	0.362106
C40	C	1.120362	1.027071	0.862106
C41	C	0.554928	0.527037	0.362107
C42	C	1.054928	1.027037	0.862107
C43	C	0.519093	0.607610	0.325044
C44	C	1.019093	1.107610	0.825044
C45	C	0.548698	0.688199	0.287965
C46	C	1.048698	1.188199	0.787965
C47	C	0.614131	0.688221	0.287960
C48	C	1.114131	1.188221	0.787960
C49	C	0.411059	0.721251	0.324341
C50	C	0.911059	1.221251	0.824341
C51	C	0.345626	0.721231	0.324350
C52	C	0.845626	1.221231	0.824350
C53	C	0.317275	0.607540	0.325055
C54	C	0.817275	1.107540	0.825055
C55	C	0.354364	0.493866	0.325764
C56	C	0.854364	0.993866	0.825764
C57	C	0.419797	0.493888	0.325759
C58	C	0.919797	0.993888	0.825759
C59	C	0.448141	0.607594	0.325045
C60	C	0.948141	1.107594	0.825045
C61	C	0.216727	0.526914	0.362130
C62	C	0.716727	1.026914	0.862130
C63	C	0.151292	0.526878	0.362127
C64	C	0.651292	1.026878	0.862127
C65	C	0.145062	0.688051	0.287988
C66	C	0.645062	1.188051	0.787988
C67	C	0.210496	0.688075	0.287988
C68	C	0.710496	1.188075	0.787988
C69	C	0.246325	0.607508	0.325062
C70	C	0.746325	1.107508	0.825062
C71	C	0.869876	0.935397	0.337519
C72	C	1.369876	1.435397	0.837519
C73	C	0.864578	1.075657	0.342879
C74	C	1.364578	1.575657	0.842879
C75	C	1.045819	0.607476	0.325056
C76	C	1.545819	1.107476	0.825056
C77	C	1.115461	0.607450	0.325063
C78	C	1.615461	1.107450	0.825063
C79	C	0.882446	0.607511	0.488462
C80	C	1.382446	1.107511	0.988462
C81	C	0.882469	0.607500	0.558103
C82	C	1.382469	1.107500	1.058103
C83	C	0.894971	1.278395	0.312533
C84	C	1.394971	1.778395	0.812533
C85	C	0.900316	1.138135	0.307222
C86	C	1.400316	1.638135	0.807222
C87	C	0.882380	0.607471	0.162250
C88	C	1.382380	1.107471	0.662250
C89	C	0.882492	0.607126	0.092596
C90	C	1.382492	1.107126	0.592596
C91	C	0.925626	0.526772	0.587753
C92	C	1.425626	1.026772	1.087753
C93	C	0.925628	0.526718	0.653186
C94	C	1.425628	1.026718	1.153186
C95	C	0.882477	0.607414	0.688968
C96	C	1.382477	1.107414	1.188968
C97	C	0.839311	0.688147	0.659312
C98	C	1.339311	1.188147	1.159312
C99	C	0.839307	0.688190	0.593879
C100	C	1.339307	1.188190	1.093879
C101	C	0.873191	0.721039	0.796968
C102	C	1.373191	1.221039	1.296968
C103	C	0.873200	0.720998	0.862399
C104	C	1.373200	1.220998	1.362399
C105	C	0.882486	0.607280	0.890784
C106	C	1.382486	1.107280	1.390784
C107	C	0.891776	0.493600	0.853729
C108	C	1.391776	0.993600	1.353729
C109	C	0.891772	0.493643	0.788297
C110	C	1.391772	0.993643	1.288297
C111	C	0.882476	0.607376	0.759919
C112	C	1.382476	1.107376	1.259919
C113	C	0.925647	0.526487	0.991384
C114	C	1.425647	1.026487	1.491384
C115	C	0.925644	0.526431	1.056818
C116	C	1.425644	1.026431	1.556818
C117	C	0.839330	0.687871	1.062943
C118	C	1.339330	1.187871	1.562943
C119	C	0.839330	0.687916	0.997509
C120	C	1.339330	1.187916	1.497509
C121	C	0.882492	0.607226	0.961733
C122	C	1.382492	1.107226	1.461733
H123	H	0.245900	0.461303	0.392314
H124	H	0.745900	0.961303	0.892314
F125	F	0.241997	0.773840	0.248529
F126	F	0.741997	1.273840	0.748529
H127	H	0.115886	0.753654	0.257811
H128	H	0.615886	1.253654	0.757811
H129	H	0.934972	1.084317	0.272594
H130	H	1.434972	1.584317	0.772594
F131	F	0.971561	0.440889	0.549681
F132	F	1.471561	0.940889	1.049681
F133	F	0.901662	0.372564	0.883933
F134	F	1.401662	0.872564	1.383933
H135	H	0.804190	0.753661	0.973369
H136	H	1.304190	1.253661	1.473369
F137	F	0.306160	0.842213	0.323605
F138	F	0.806160	1.342213	0.823605
H139	H	0.530826	0.461410	0.392294
H140	H	1.030826	0.961410	0.892294
H141	H	0.434136	0.813839	0.323767
H142	H	0.934136	1.313839	0.823767
F143	F	0.510559	0.773945	0.248518
F144	F	1.010559	1.273945	0.748518
F145	F	0.324196	0.372858	0.326514
F146	F	0.824196	0.872858	0.826514
F147	F	0.971555	0.440772	0.684747
F148	F	1.471555	0.940772	1.184747
H149	H	0.960789	0.460777	0.962253
H150	H	1.460789	0.960777	1.462253
F151	F	0.459267	0.372912	0.326511
F152	F	0.959267	0.872912	0.826511
H153	H	0.899336	0.401081	0.758129
H154	H	1.399336	0.901081	1.258129
H155	H	0.960788	0.460685	1.080957
H156	H	1.460788	0.960685	1.580957
H157	H	0.804190	0.753563	1.092076
H158	H	1.304190	1.253563	1.592076
F159	F	0.819289	1.145992	0.388144
F160	F	1.319289	1.645992	0.888144
H161	H	0.865638	0.813564	0.892565
H162	H	1.365638	1.313564	1.392565
H163	H	0.865463	0.813618	0.773862
H164	H	1.365463	1.313618	1.273862
F165	F	0.793385	0.774026	0.697394
F166	F	1.293385	1.274026	1.197394
F167	F	0.119793	0.441100	0.401583
F168	F	0.619793	0.941100	0.901583
F169	F	0.658490	0.441322	0.401563
F170	F	1.158490	0.941322	0.901563
H171	H	0.638228	0.753844	0.257771
H172	H	1.138228	1.253844	0.757771
F173	F	0.793370	0.774115	0.562323
F174	F	1.293370	1.274115	1.062323
