data_functionalizedCrystal
_audit_creation_method	'MofGen! by Chris Wilmer'
_symmetry_space_group_name_H-M	'P1'
_symmetry_Int_Tables_number	1
_symmetry_cell_setting	triclinic
loop_
_symmetry_equiv_pos_as_xyz
  x,y,z
_cell_length_a	16.109295
_cell_length_b	9.130313
_cell_length_c	16.109301
_cell_angle_alpha	90.002670
_cell_angle_beta	96.539666
_cell_angle_gamma	90.002695
loop_
_atom_site_label
_atom_site_type_symbol
_atom_site_fract_x
_atom_site_fract_y
_atom_site_fract_z
O1	O	-1.103130	0.121704	0.106841
O2	O	-0.861067	0.121730	0.120145
O3	O	-0.988748	0.121701	-0.007538
O4	O	-0.975449	0.121733	0.234524
O5	O	-0.988747	-0.121897	-0.007534
O6	O	-0.861066	-0.121869	0.120149
O7	O	-1.103128	-0.121895	0.106845
Cu8	Cu	-0.982097	-0.144124	0.113497
Cu9	Cu	-0.982099	0.143959	0.113493
O10	O	-0.975447	-0.121866	0.234528
C11	C	-0.830092	-0.000067	0.119609
C12	C	-0.737796	-0.000057	0.117996
N13	N	-0.982102	-0.346747	0.113499
C14	C	-0.515523	-0.000064	0.190008
C15	C	-0.428803	-0.000073	0.188486
C16	C	-0.448677	-0.000086	0.036996
C17	C	-0.535396	-0.000088	0.038520
C18	C	-0.568816	-0.000069	0.115028
C19	C	-0.395377	-0.000077	0.111982
C20	C	-0.301351	-0.000086	0.110331
C21	C	-0.662849	-0.000062	0.116679
C22	C	-1.038653	-0.423412	0.056980
C23	C	-1.038651	-0.576748	0.056970
C24	C	-0.925543	-0.576743	0.170006
C25	C	-0.925542	-0.423409	0.170011
C26	C	-1.095213	-0.346750	0.000469
C27	C	-1.151770	-0.423415	-0.056054
C28	C	-1.151767	-0.576751	-0.056064
C29	C	-1.095209	-0.653424	0.000449
C30	C	-0.134104	-0.000093	0.107386
C31	C	-0.226397	-0.000088	0.109014
C32	C	-0.988209	-0.000099	-0.038511
C33	C	-0.986594	-0.000101	-0.130806
N34	N	-0.982101	0.346582	0.113484
C35	C	-1.058602	-0.000085	-0.353080
C36	C	-1.057078	-0.000073	-0.439800
C37	C	-0.905588	-0.000063	-0.419923
C38	C	-0.907113	-0.000064	-0.333204
C39	C	-0.983622	-0.000083	-0.299785
C40	C	-0.980573	-0.000069	-0.473225
C41	C	-0.978920	-0.000056	-0.567251
C42	C	-0.985276	-0.000093	-0.205754
C43	C	-0.975987	-0.000063	0.265501
C44	C	-0.977602	-0.000051	0.357796
H45	H	-0.542731	-0.000059	0.252306
C46	C	-0.813736	-0.561342	0.281733
C47	C	-0.863378	-0.661016	0.232124
H48	H	-0.775355	-0.613371	0.320079
H49	H	-0.848329	-0.501544	0.311654
H50	H	-0.783846	-0.501529	0.247107
H51	H	-0.893273	-0.720822	0.266749
H52	H	-0.828781	-0.720839	0.202200
H53	H	-0.846052	-0.000058	-0.289809
H54	H	-0.843297	-0.000050	-0.447144
H55	H	-1.197812	-0.639170	-0.102093
C56	C	-0.546338	-0.000084	-0.111380
C57	C	-0.593983	-0.000087	-0.043905
H58	H	-0.582509	-0.000079	-0.162262
H59	H	-0.512105	-0.085026	-0.108827
H60	H	-0.512097	0.084871	-0.108819
H61	H	-0.628220	-0.085049	-0.046463
H62	H	-0.628231	0.084863	-0.046460
C63	C	-1.208188	-0.000067	-0.381441
C64	C	-1.142699	-0.000079	-0.316345
H65	H	-1.260106	-0.000048	-0.358763
H66	H	-1.204448	-0.085012	-0.414851
H67	H	-1.204428	0.084886	-0.414850
H68	H	-1.146455	-0.085037	-0.282940
H69	H	-1.146440	0.084875	-0.282921
C70	C	-1.173543	-0.127117	0.017279
C71	C	-1.095219	-0.178201	0.000474
H72	H	-1.173548	-0.023063	0.017278
H73	H	-1.184887	-0.161808	0.070418
H74	H	-1.215312	-0.161820	-0.024473
H75	H	-1.053451	-0.143507	0.042230
H76	H	-1.083866	-0.143496	-0.052672
H77	H	-1.118133	-0.000071	-0.483190
H78	H	-0.879492	-0.360988	0.216033
H79	H	-0.385414	-0.000071	0.249542
C80	C	-0.362686	0.125144	-0.052598
C81	C	-0.411938	-0.000087	-0.047099
H82	H	-0.340011	0.125149	-0.104519
H83	H	-0.318538	0.125137	-0.008166
H84	H	-0.396112	0.210079	-0.048852
H85	H	-0.378511	-0.085022	-0.050838
H86	H	-0.456092	-0.000093	-0.091543
H87	H	-1.095206	-0.778281	0.000430
C88	C	-1.169812	-0.251034	-0.169217
C89	C	-1.213917	-0.339174	-0.118207
H90	H	-1.208176	-0.199035	-0.207595
H91	H	-1.135205	-0.310867	-0.199103
H92	H	-1.136155	-0.183407	-0.135547
H93	H	-1.247570	-0.406809	-0.151878
H94	H	-1.248538	-0.279336	-0.088319
