data_functionalizedCrystal
_audit_creation_method	'MofGen! by Chris Wilmer'
_symmetry_space_group_name_H-M	'P1'
_symmetry_Int_Tables_number	1
_symmetry_cell_setting	triclinic
loop_
_symmetry_equiv_pos_as_xyz
  x,y,z
_cell_length_a	13.339070
_cell_length_b	14.519709
_cell_length_c	12.376457
_cell_angle_alpha	101.296542
_cell_angle_beta	75.589755
_cell_angle_gamma	99.654719
loop_
_atom_site_label
_atom_site_type_symbol
_atom_site_fract_x
_atom_site_fract_y
_atom_site_fract_z
O1	O	1.362507	0.449827	-0.094056
O2	O	1.067869	0.389115	-0.094048
O3	O	1.222998	0.287221	-0.094042
O4	O	1.207378	0.551721	-0.094062
O5	O	1.184229	0.312650	0.093969
O6	O	1.029100	0.414544	0.093963
O7	O	1.323739	0.475256	0.093955
Zn8	Zn	1.170264	0.448937	0.123810
Zn9	Zn	1.221343	0.415434	-0.123903
O10	O	1.168610	0.577150	0.093949
C11	C	1.010777	0.391574	-0.000041
C12	C	0.898419	0.361005	-0.000038
C13	C	0.534063	0.598692	-0.000074
C14	C	0.639629	0.627415	-0.000081
C15	C	0.704332	0.560815	-0.000070
C16	C	0.663458	0.465487	-0.000053
C17	C	0.557883	0.436759	-0.000055
C18	C	0.728152	0.398883	-0.000050
C19	C	0.687278	0.303554	-0.000033
C20	C	0.581713	0.274832	-0.000035
C21	C	0.517011	0.341432	-0.000046
C22	C	0.833726	0.427610	-0.000048
C23	C	0.857547	0.265678	-0.000029
C24	C	0.751980	0.236954	-0.000022
C25	C	1.202885	0.265390	-0.000036
C26	C	1.200703	0.162454	-0.000036
C27	C	1.192677	-0.214489	-0.000065
C28	C	1.194906	-0.109612	-0.000056
C29	C	1.196690	-0.026021	-0.000049
C30	C	1.198919	0.078862	-0.000043
C31	C	1.380832	0.472796	-0.000054
C32	C	1.493191	0.503364	-0.000065
C33	C	1.188723	0.598980	-0.000059
C34	C	1.190906	0.701915	-0.000067
N35	N	1.135411	0.471804	0.292866
N36	N	1.256204	0.392562	-0.292960
C37	C	1.337109	0.339463	0.647859
C38	C	1.361497	0.323457	0.529520
C39	C	1.304977	0.360542	0.470351
C40	C	1.224066	0.413636	0.529532
C41	C	1.199681	0.429650	0.647883
C42	C	1.167550	0.450729	0.470375
C43	C	1.086639	0.503824	0.529556
C44	C	1.062257	0.519834	0.647895
C45	C	1.118777	0.482749	0.707064
C46	C	1.191935	0.434715	0.352024
C47	C	1.054507	0.524903	0.352048
C48	C	1.030119	0.540909	0.470387
H49	H	0.790288	0.584207	-0.000078
H50	H	1.324838	0.347507	0.373994
N51	N	0.927319	0.193840	-0.000000
H52	H	0.885409	0.129092	0.000004
H53	H	0.986018	0.192804	-0.069694
H54	H	0.548441	0.197207	-0.000034
H55	H	0.964240	0.584140	0.518587
N56	N	1.448759	0.266197	0.465691
H57	H	1.480862	0.245132	0.521129
H58	H	1.420060	0.208831	0.416601
N59	N	0.707889	0.134139	0.000004
H60	H	0.631195	0.126053	0.000004
H61	H	0.745912	0.094369	-0.069687
N62	N	1.279188	0.377448	0.288187
H63	H	1.346796	0.409274	0.308760
H64	H	1.263080	0.311774	0.308816
H65	H	0.996383	0.563075	0.696080
H66	H	0.672903	0.705030	-0.000103
N67	N	1.092475	0.500021	0.834705
H68	H	1.017814	0.472826	0.863228
H69	H	1.140620	0.468471	0.863110
N70	N	0.993543	0.564911	0.288245
H71	H	1.021265	0.546708	0.204295
H72	H	0.917463	0.538645	0.308949
H73	H	0.481376	0.652906	-0.000092
H74	H	0.866994	0.505228	-0.000058
H75	H	0.431049	0.318049	-0.000040
N76	N	1.398072	0.299479	0.711674
H77	H	1.370348	0.317684	0.795623
H78	H	1.390533	0.228229	0.691007
