data_functionalizedCrystal
_audit_creation_method	'MofGen! by Chris Wilmer'
_symmetry_space_group_name_H-M	'P1'
_symmetry_Int_Tables_number	1
_symmetry_cell_setting	triclinic
loop_
_symmetry_equiv_pos_as_xyz
  x,y,z
_cell_length_a	16.625539
_cell_length_b	13.897449
_cell_length_c	13.897448
_cell_angle_alpha	89.981028
_cell_angle_beta	89.974316
_cell_angle_gamma	90.015918
loop_
_atom_site_label
_atom_site_type_symbol
_atom_site_fract_x
_atom_site_fract_y
_atom_site_fract_z
Zn1	Zn	-0.455889	-1.474657	-0.383998
Zn2	Zn	0.044111	-0.974657	0.116002
Zn3	Zn	-0.321058	-1.474564	-0.545306
Zn4	Zn	0.178942	-0.974564	-0.045306
Zn5	Zn	-0.321072	-1.313359	-0.384030
Zn6	Zn	0.178928	-0.813359	0.115970
Zn7	Zn	-0.455851	-1.313328	-0.545256
Zn8	Zn	0.044149	-0.813328	-0.045256
O9	O	-0.388468	-1.393977	-0.464648
O10	O	0.111532	-0.893977	0.035352
O11	O	-0.438014	-1.609626	-0.405403
O12	O	0.061986	-1.109626	0.094597
O13	O	-0.208228	-1.453155	-0.523946
O14	O	0.291772	-0.953155	-0.023946
O15	O	-0.338978	-1.334808	-0.249044
O16	O	0.161022	-0.834808	0.250956
O17	O	-0.338954	-1.609558	-0.523915
O18	O	0.161046	-1.109558	-0.023915
O19	O	-0.438027	-1.453312	-0.249021
O20	O	0.061973	-0.953312	0.250979
O21	O	-0.208238	-1.334718	-0.405458
O22	O	0.291762	-0.834718	0.094542
O23	O	-0.338941	-1.178374	-0.405410
O24	O	0.161059	-0.678374	0.094590
O25	O	-0.568688	-1.334754	-0.523831
O26	O	-0.068688	-0.834754	-0.023831
O27	O	-0.437962	-1.178350	-0.523862
O28	O	0.062038	-0.678350	-0.023862
O29	O	-0.568716	-1.453281	-0.405355
O30	O	-0.068716	-0.953281	0.094645
O31	O	-0.338917	-1.453124	-0.680281
O32	O	0.161083	-0.953124	-0.180281
O33	O	-0.437948	-1.334664	-0.680245
O34	O	0.062052	-0.834664	-0.180245
C35	C	-0.388444	-1.393907	-0.715262
C36	C	0.111556	-0.893907	-0.215262
C37	C	-0.388461	-1.393965	-0.822476
C38	C	0.111539	-0.893965	-0.322476
C39	C	-0.388449	-1.143363	-0.464635
C40	C	0.111551	-0.643363	0.035365
C41	C	-0.388460	-1.036149	-0.464652
C42	C	0.111540	-0.536149	0.035348
C43	C	-0.598777	-1.394024	-0.464584
C44	C	-0.098777	-0.894024	0.035416
C45	C	-0.688398	-1.394044	-0.464557
C46	C	-0.188398	-0.894044	0.035443
C47	C	-0.761180	-1.394060	-0.464535
C48	C	-0.261180	-0.894060	0.035465
C49	C	-0.852489	-1.394083	-0.464500
C50	C	-0.352489	-0.894083	0.035500
C51	C	-0.925265	-1.394105	-0.464466
C52	C	-0.425265	-0.894105	0.035534
C53	C	-1.016580	-1.394129	-0.464431
C54	C	-0.516580	-0.894129	0.035569
C55	C	-0.178977	-1.393985	-0.464641
C56	C	0.321023	-0.893985	0.035359
C57	C	-0.089356	-1.394152	-0.464397
C58	C	0.410644	-0.894152	0.035603
C59	C	-0.388486	-1.645570	-0.464661
C60	C	0.111514	-1.145570	0.035339
C61	C	-0.388495	-1.752784	-0.464667
C62	C	0.111505	-1.252784	0.035333
C63	C	-0.388482	-0.839854	-0.464656
C64	C	0.111518	-0.339854	0.035344
C65	C	-0.388468	-0.949086	-0.464651
C66	C	0.111532	-0.449086	0.035349
C67	C	-0.388512	-1.394066	-1.018771
C68	C	0.111488	-0.894066	-0.518771
C69	C	-0.388486	-1.394007	-0.909538
C70	C	0.111514	-0.894007	-0.409538
C71	C	-0.388509	-1.394074	-0.213055
C72	C	0.111491	-0.894074	0.286945
C73	C	-0.388526	-1.394115	-0.105841
C74	C	0.111474	-0.894115	0.394159
