data_functionalizedCrystal
_audit_creation_method	'MofGen! by Chris Wilmer'
_symmetry_space_group_name_H-M	'P1'
_symmetry_Int_Tables_number	1
_symmetry_cell_setting	triclinic
loop_
_symmetry_equiv_pos_as_xyz
  x,y,z
_cell_length_a	12.759401
_cell_length_b	13.897447
_cell_length_c	12.759393
_cell_angle_alpha	90.032074
_cell_angle_beta	90.018496
_cell_angle_gamma	90.019691
loop_
_atom_site_label
_atom_site_type_symbol
_atom_site_fract_x
_atom_site_fract_y
_atom_site_fract_z
Zn1	Zn	1.606220	-0.383954	0.593978
Zn2	Zn	1.606100	-0.545283	0.418296
Zn3	Zn	1.430522	-0.384004	0.418317
Zn4	Zn	1.430496	-0.545209	0.593938
O5	O	1.518334	-0.464613	0.506132
O6	O	1.753225	-0.405365	0.570681
O7	O	1.582769	-0.523942	0.271278
O8	O	1.453890	-0.249016	0.441644
O9	O	1.753137	-0.523893	0.441609
O10	O	1.582975	-0.248979	0.570701
O11	O	1.453773	-0.405451	0.271293
O12	O	1.283498	-0.405379	0.441605
O13	O	1.453846	-0.523766	0.740964
O14	O	1.283478	-0.523815	0.570633
O15	O	1.582949	-0.405293	0.740993
O16	O	1.582744	-0.680255	0.441570
O17	O	1.453729	-0.680201	0.570613
C18	C	1.245367	-0.464595	0.506118
C19	C	1.128590	-0.464611	0.506137
C20	C	1.518249	-0.715227	0.506108
C21	C	1.518309	-0.822441	0.506132
C22	C	1.073746	-0.526379	0.573210
C23	C	0.964022	-0.526391	0.573222
C24	C	0.963997	-0.402864	0.439077
C25	C	1.073719	-0.402847	0.439072
C26	C	1.073760	-0.597700	0.650655
C27	C	0.964036	-0.597712	0.650666
C28	C	1.518359	-0.909511	0.506156
C29	C	1.518433	-1.018743	0.506183
C30	C	1.792368	-0.464631	0.506147
C31	C	1.909144	-0.464639	0.506153
C32	C	1.518408	-0.464515	0.780166
C33	C	1.518439	-0.464474	0.896942
C34	C	1.518449	-0.213020	0.506180
C35	C	1.518498	-0.105806	0.506200
C36	C	1.518322	-0.464640	0.233165
C37	C	1.518494	-0.464410	0.116389
C38	C	1.585673	-0.402779	0.951821
C39	C	1.585698	-0.402744	1.061546
C40	C	1.451253	-0.526107	1.061502
C41	C	1.451223	-0.526137	0.951780
C42	C	1.663297	-0.331559	0.951847
C43	C	1.663322	-0.331524	1.061572
H44	H	1.118369	-0.352543	0.384461
Br45	Br	0.914352	-0.722182	0.614075
H46	H	1.396471	-0.576371	0.907101
H47	H	1.744691	-0.351532	1.091350
H48	H	0.919307	-0.352578	0.384476
H49	H	1.396526	-0.576309	1.106164
H50	H	1.740566	-0.358339	0.917811
Br51	Br	1.627029	-0.207056	0.902243
H52	H	1.107767	-0.668626	0.621369
Br53	Br	1.123456	-0.564500	0.786334
H54	H	0.930040	-0.571046	0.728018
Br55	Br	1.614638	-0.213287	1.118333
