data_functionalizedCrystal
_audit_creation_method	'MofGen! by Chris Wilmer'
_symmetry_space_group_name_H-M	'P1'
_symmetry_Int_Tables_number	1
_symmetry_cell_setting	triclinic
loop_
_symmetry_equiv_pos_as_xyz
  x,y,z
_cell_length_a	18.050591
_cell_length_b	21.295417
_cell_length_c	18.050582
_cell_angle_alpha	89.973245
_cell_angle_beta	89.979078
_cell_angle_gamma	90.026512
loop_
_atom_site_label
_atom_site_type_symbol
_atom_site_fract_x
_atom_site_fract_y
_atom_site_fract_z
Zn1	Zn	1.135281	-0.250716	-0.420010
Zn2	Zn	1.135186	-0.355977	-0.295811
Zn3	Zn	1.011100	-0.250719	-0.295821
Zn4	Zn	1.011043	-0.355944	-0.419946
O5	O	1.073153	-0.303339	-0.357897
O6	O	1.239193	-0.264692	-0.403557
O7	O	1.118710	-0.342030	-0.191887
O8	O	1.027636	-0.162629	-0.312326
O9	O	1.239124	-0.342027	-0.312308
O10	O	1.118871	-0.162627	-0.403567
O11	O	1.027545	-0.264697	-0.191895
O12	O	0.907168	-0.264664	-0.312264
O13	O	1.027539	-0.341971	-0.523879
O14	O	0.907126	-0.341973	-0.403458
O15	O	1.118816	-0.264660	-0.523926
O16	O	1.118655	-0.444062	-0.312247
O17	O	1.027448	-0.444038	-0.403449
C18	C	0.880200	-0.303316	-0.357856
C19	C	0.797655	-0.303321	-0.357856
C20	C	0.598205	-0.261232	-0.308379
C21	C	0.548783	-0.318646	-0.290098
C22	C	0.646524	-0.303340	-0.357889
C23	C	0.548865	-0.245945	-0.376169
C24	C	0.500539	-0.303353	-0.357920
C25	C	0.598189	-0.360785	-0.339573
C26	C	0.598276	-0.288045	-0.425676
C27	C	0.548875	-0.345499	-0.407420
C28	C	0.730623	-0.303331	-0.357870
C29	C	0.416443	-0.303368	-0.357940
C30	C	1.073055	-0.466891	-0.357856
C31	C	1.073081	-0.536859	-0.357863
C32	C	1.120615	-0.569717	-0.310423
C33	C	1.120650	-0.635460	-0.310440
C34	C	1.073138	-0.668341	-0.357889
C35	C	1.025600	-0.635475	-0.405338
C36	C	1.025572	-0.569734	-0.405325
N37	N	1.008171	-0.771604	-0.363536
N38	N	1.008200	-0.834055	-0.363544
C39	C	1.073221	-0.866416	-0.357931
N40	N	1.138214	-0.833966	-0.352296
N41	N	1.138184	-0.771509	-0.352284
C42	C	1.073163	-0.739627	-0.357908
C43	C	1.120797	-0.970560	-0.310507
C44	C	1.120833	-1.036304	-0.310529
C45	C	1.025776	-1.036318	-0.405423
C46	C	1.025747	-0.970575	-0.405405
C47	C	1.073256	-0.937700	-0.357943
C48	C	1.266858	-0.303363	-0.357939
C49	C	1.349404	-0.303373	-0.357956
C50	C	1.073182	-0.303311	-0.551603
C51	C	1.073194	-0.303299	-0.634148
C52	C	1.073270	-0.139149	-0.357954
C53	C	1.073321	-0.069181	-0.357979
C54	C	1.023596	-0.345283	-0.833574
C55	C	1.091350	-0.360675	-0.882971
C56	C	1.073231	-0.303251	-0.785279
C57	C	1.005513	-0.287842	-0.882964
C58	C	1.073260	-0.303206	-0.931264
C59	C	1.141021	-0.318673	-0.833589
C60	C	1.055138	-0.245814	-0.833577
C61	C	1.122940	-0.261183	-0.882952
C62	C	1.073213	-0.303279	-0.701181
C63	C	1.073286	-0.303178	-1.015361
C64	C	1.073166	-0.303322	-0.164945
C65	C	1.073298	-0.303156	-0.082399
H66	H	0.527159	-0.197408	-0.391591
H67	H	0.986864	-0.542980	-0.443958
C68	C	0.989470	-0.950295	-0.531113
C69	C	0.973486	-0.934455	-0.457546
H70	H	0.957201	-0.927999	-0.563304
H71	H	1.039348	-0.939475	-0.542028
H72	H	0.982687	-0.994155	-0.537902
H73	H	0.980274	-0.890595	-0.450756
H74	H	0.923595	-0.945271	-0.446627
C75	C	1.214759	-0.977147	-0.216711
C76	C	1.173022	-0.934419	-0.258343
H77	H	1.247003	-0.954835	-0.184511
H78	H	1.182434	-1.002828	-0.188279
H79	H	1.243157	-1.002749	-0.249112
H80	H	1.144620	-0.908820	-0.225942
H81	H	1.205351	-0.908727	-0.286777
C82	C	1.220844	-1.110088	-0.300416
C83	C	1.173162	-1.072390	-0.258420
H84	H	1.253174	-1.132353	-0.268256
H85	H	1.192559	-1.139103	-0.328637
H86	H	1.249146	-1.084372	-0.332827
H87	H	1.144855	-1.098107	-0.226012
H88	H	1.201450	-1.043372	-0.230186
C89	C	0.545289	-0.395809	-0.193111
C90	C	0.519363	-0.336121	-0.212756
H91	H	0.527111	-0.406589	-0.145368
H92	H	0.528432	-0.425753	-0.228263
H93	H	0.597910	-0.395560	-0.192367
H94	H	0.466742	-0.336371	-0.213505
H95	H	0.536215	-0.306169	-0.177594
H96	H	0.619765	-0.409343	-0.324062
C97	C	1.130973	-0.495841	-0.210514
C98	C	1.172843	-0.533585	-0.258257
H99	H	1.163218	-0.473537	-0.178307
H100	H	1.102667	-0.466860	-0.238764
H101	H	1.098645	-0.521531	-0.182083
H102	H	1.205167	-0.507894	-0.286691
H103	H	1.201161	-0.562569	-0.230003
H104	H	0.619865	-0.225660	-0.266464
H105	H	1.159361	-0.662218	-0.271808
C106	C	0.544843	-0.453672	-0.444657
C107	C	0.519809	-0.393631	-0.463959
H108	H	0.526893	-0.483387	-0.479557
H109	H	0.597460	-0.454165	-0.444667
H110	H	0.527143	-0.464188	-0.396659
H111	H	0.537514	-0.383113	-0.511954
H112	H	0.467182	-0.393136	-0.463957
C113	C	0.986131	-0.453422	-0.829234
C114	C	0.966985	-0.393327	-0.804298
H115	H	0.951187	-0.483082	-0.811155
H116	H	0.986064	-0.453998	-0.881849
H117	H	1.034125	-0.463947	-0.811598
H118	H	0.918993	-0.382801	-0.821939
H119	H	0.967045	-0.392750	-0.751671
C120	C	0.602802	-0.210384	-0.522037
C121	C	0.627654	-0.270545	-0.503020
H122	H	0.620945	-0.199575	-0.569785
H123	H	0.550188	-0.209886	-0.522504
H124	H	0.620430	-0.180889	-0.486725
H125	H	0.610021	-0.300040	-0.538330
H126	H	0.680279	-0.271048	-0.502559
C127	C	1.112475	-0.425338	-0.989837
C128	C	1.112029	-0.426218	-0.912272
H129	H	1.125240	-0.465802	-1.007924
H130	H	1.064703	-0.414119	-1.007460
H131	H	1.147793	-0.395503	-1.006731
H132	H	1.076706	-0.456050	-0.895378
H133	H	1.159807	-0.437446	-0.894642
C134	C	1.217642	-0.336217	-0.726870
C135	C	1.218368	-0.336325	-0.804440
H136	H	1.265390	-0.347121	-0.708876
H137	H	1.204707	-0.295563	-0.709552
H138	H	1.182343	-0.365904	-0.709577
H139	H	1.253664	-0.306635	-0.821733
H140	H	1.231312	-0.376986	-0.821765
C141	C	0.983430	-0.736259	-0.447483
C142	C	0.973371	-0.671616	-0.457493
H143	H	0.951183	-0.758569	-0.479682
H144	H	1.033319	-0.746990	-0.458406
H145	H	0.972597	-0.747059	-0.397573
H146	H	0.984210	-0.660815	-0.507402
H147	H	0.923471	-0.660881	-0.446575
H148	H	0.987094	-1.063089	-0.444060
C149	C	1.250529	-0.229436	-0.886985
C150	C	1.179682	-0.213174	-0.912046
H151	H	1.285560	-0.199800	-0.904952
H152	H	1.251105	-0.229434	-0.834368
H153	H	1.262974	-0.270100	-0.904650
H154	H	1.167235	-0.172512	-0.894375
H155	H	1.179104	-0.213169	-0.964673
C156	C	0.963441	-0.164269	-0.829131
C157	C	1.034429	-0.180289	-0.804253
H158	H	0.950649	-0.123818	-0.811022
H159	H	0.962858	-0.163866	-0.881746
H160	H	0.928670	-0.194254	-0.811487
H161	H	1.069201	-0.150306	-0.821903
H162	H	1.035018	-0.180687	-0.751628
C163	C	0.876296	-0.314376	-0.887311
C164	C	0.928189	-0.270269	-0.912242
H165	H	0.828559	-0.303527	-0.905382
H166	H	0.889500	-0.354868	-0.904953
H167	H	0.875627	-0.314636	-0.834689
H168	H	0.928862	-0.270011	-0.964864
H169	H	0.914981	-0.229766	-0.894604
