data_functionalizedCrystal
_audit_creation_method	'MofGen! by Chris Wilmer'
_symmetry_space_group_name_H-M	'P1'
_symmetry_Int_Tables_number	1
_symmetry_cell_setting	triclinic
loop_
_symmetry_equiv_pos_as_xyz
  x,y,z
_cell_length_a	21.295418
_cell_length_b	29.839132
_cell_length_c	21.295411
_cell_angle_alpha	89.977422
_cell_angle_beta	90.043738
_cell_angle_gamma	89.938925
loop_
_atom_site_label
_atom_site_type_symbol
_atom_site_fract_x
_atom_site_fract_y
_atom_site_fract_z
Zn1	Zn	0.962291	0.178715	0.356229
Zn2	Zn	1.462291	0.678715	0.856229
Zn3	Zn	0.962167	0.253830	0.250953
Zn4	Zn	1.462167	0.753830	0.750953
Zn5	Zn	0.857014	0.178736	0.250939
Zn6	Zn	1.357014	0.678736	0.750939
Zn7	Zn	0.856957	0.253839	0.356150
Zn8	Zn	1.356957	0.753839	0.856150
O9	O	0.909607	0.216280	0.303568
O10	O	1.409607	0.716280	0.803568
O11	O	1.050364	0.188667	0.342304
O12	O	1.550364	0.688667	0.842304
O13	O	0.948190	0.243874	0.162862
O14	O	1.448190	0.743874	0.662862
O15	O	0.871056	0.115866	0.264934
O16	O	1.371056	0.615866	0.764934
O17	O	1.050273	0.243854	0.264957
O18	O	1.550273	0.743854	0.764957
O19	O	0.948402	0.115851	0.342290
O20	O	1.448402	0.615851	0.842290
O21	O	0.870935	0.188703	0.162852
O22	O	1.370935	0.688703	0.662852
O23	O	0.768917	0.188711	0.264856
O24	O	1.268917	0.688711	0.764856
O25	O	0.870958	0.243869	0.444250
O26	O	1.370958	0.743869	0.944250
O27	O	0.768875	0.243889	0.342154
O28	O	1.268875	0.743889	0.842154
O29	O	0.948346	0.188675	0.444308
O30	O	1.448346	0.688675	0.944308
O31	O	0.948134	0.316699	0.264880
O32	O	1.448134	0.816699	0.764880
O33	O	0.870837	0.316705	0.342167
O34	O	1.370837	0.816705	0.842167
C35	C	0.746056	0.216304	0.303495
C36	C	1.246056	0.716304	0.803495
C37	C	0.676087	0.216325	0.303479
C38	C	1.176087	0.716325	0.803479
C39	C	0.643215	0.245094	0.343668
C40	C	1.143215	0.745094	0.843668
C41	C	0.577473	0.245083	0.343696
C42	C	1.077473	0.745083	0.843696
C43	C	0.544605	0.216307	0.303525
C44	C	1.044605	0.716307	0.803525
C45	C	0.577485	0.187532	0.263333
C46	C	1.077485	0.687532	0.763333
C47	C	0.643226	0.187541	0.263310
C48	C	1.143226	0.687541	0.763310
N49	N	0.441330	0.212791	0.248467
N50	N	0.941330	0.712791	0.748467
N51	N	0.378879	0.212785	0.248490
N52	N	0.878879	0.712785	0.748490
C53	C	0.346530	0.216279	0.303591
C54	C	0.846530	0.716279	0.803591
N55	N	0.378993	0.219787	0.358669
N56	N	0.878993	0.719787	0.858669
N57	N	0.441450	0.219795	0.358645
N58	N	0.941450	0.719795	0.858645
C59	C	0.473320	0.216294	0.303545
C60	C	0.973320	0.716294	0.803545
C61	C	0.242373	0.245038	0.343814
C62	C	0.742373	0.745038	0.843814
C63	C	0.176629	0.245023	0.343843
C64	C	0.676629	0.745023	0.843843
C65	C	0.176643	0.187475	0.263475
C66	C	0.676643	0.687475	0.763475
C67	C	0.242385	0.187487	0.263451
C68	C	0.742385	0.687487	0.763451
C69	C	0.275246	0.216271	0.303620
C70	C	0.775246	0.716271	0.803620
C71	C	0.909483	0.333003	0.303530
C72	C	1.409483	0.833003	0.803530
C73	C	0.909487	0.382937	0.303535
C74	C	1.409487	0.882937	0.803535
C75	C	0.949884	0.692565	0.263357
C76	C	1.449884	1.192565	0.763357
C77	C	0.949944	0.880238	0.263372
C78	C	1.449944	1.380238	0.763372
O79	O	0.984224	0.904489	0.229200
O80	O	1.484224	1.404489	0.729200
N81	N	0.909673	0.903722	0.303578
N82	N	1.409673	1.403722	0.803578
C83	C	0.869387	0.880286	0.343787
C84	C	1.369387	1.380286	0.843787
O85	O	0.835140	0.904567	0.377990
O86	O	1.335140	1.404567	0.877990
C87	C	0.869331	0.692614	0.343775
C88	C	1.369331	1.192614	0.843775
C89	C	0.909600	0.669131	0.303562
C90	C	1.409600	1.169131	0.803562
C91	C	0.990151	0.669082	0.223147
C92	C	1.490151	1.169082	0.723147
C93	C	0.990133	0.622167	0.223142
C94	C	1.490133	1.122167	0.723142
C95	C	0.949849	0.598734	0.263346
C96	C	1.449849	1.098734	0.763346
C97	C	0.909582	0.622216	0.303556
C98	C	1.409582	1.122216	0.803556
C99	C	0.829048	0.669178	0.383987
C100	C	1.329048	1.169178	0.883987
C101	C	0.829039	0.622257	0.383981
C102	C	1.329039	1.122257	0.883981
C103	C	0.869308	0.598775	0.343768
C104	C	1.369308	1.098775	0.843768
C105	C	0.869280	0.551867	0.343755
C106	C	1.369280	1.051867	0.843755
N107	N	0.909551	0.528383	0.303548
N108	N	1.409551	1.028383	0.803548
C109	C	0.949835	0.551816	0.263344
C110	C	1.449835	1.051816	0.763344
C111	C	0.869419	0.978816	0.343789
C112	C	1.369419	1.478816	0.843789
C113	C	0.869432	1.025734	0.343791
C114	C	1.369432	1.525734	0.843791
C115	C	0.949990	1.025683	0.263377
C116	C	1.449990	1.525683	0.763377
C117	C	0.949973	0.978764	0.263372
C118	C	1.449973	1.478764	0.763372
C119	C	0.909690	0.955332	0.303583
C120	C	1.409690	1.455332	0.803583
C121	C	0.949795	0.453290	0.263335
C122	C	1.449795	0.953290	0.763335
C123	C	0.949771	0.406370	0.263331
C124	C	1.449771	0.906370	0.763331
C125	C	0.869216	0.406426	0.343748
C126	C	1.369216	0.906426	0.843748
C127	C	0.869236	0.453341	0.343749
C128	C	1.369236	0.953341	0.843749
C129	C	0.909531	0.476772	0.303541
C130	C	1.409531	0.976772	0.803541
O131	O	0.835023	0.527587	0.377914
O132	O	1.335023	1.027587	0.877914
O133	O	0.984087	0.527526	0.229156
O134	O	1.484087	1.027526	0.729156
C135	C	0.949902	0.739480	0.263363
C136	C	1.449902	1.239480	0.763363
C137	C	0.909636	0.762962	0.303573
C138	C	1.409636	1.262962	0.803573
C139	C	0.869351	0.739529	0.343777
C140	C	1.369351	1.239529	0.843777
C141	C	0.909649	0.809880	0.303575
C142	C	1.409649	1.309880	0.803575
C143	C	0.949933	0.833313	0.263371
C144	C	1.449933	1.333313	0.763371
C145	C	0.990204	0.809829	0.223164
C146	C	1.490204	1.309829	0.723164
C147	C	0.990187	0.762913	0.223159
C148	C	1.490187	1.262913	0.723159
C149	C	0.829080	0.763014	0.383984
C150	C	1.329080	1.263014	0.883984
C151	C	0.829101	0.809929	0.383985
C152	C	1.329101	1.309929	0.883985
C153	C	0.869385	0.833362	0.343781
C154	C	1.369385	1.333362	0.843781
C155	C	1.073798	0.216257	0.303641
C156	C	1.573798	0.716257	0.803641
C157	C	1.143766	0.216247	0.303672
C158	C	1.643766	0.716247	0.803672
C159	C	0.909660	0.216271	0.467758
C160	C	1.409660	0.716271	0.967758
C161	C	0.909682	0.216267	0.537726
C162	C	1.409682	0.716267	1.037726
C163	C	0.909726	1.099102	0.303606
C164	C	1.409726	1.599102	0.803606
C165	C	0.909716	1.049167	0.303587
C166	C	1.409716	1.549167	0.803587
C167	C	0.909591	0.216257	0.140016
C168	C	1.409591	0.716257	0.640016
C169	C	0.909691	0.216135	0.070049
C170	C	1.409691	0.716135	0.570049
C171	C	0.949976	0.187526	0.570625
C172	C	1.449976	0.687526	1.070625
C173	C	0.949976	0.187507	0.636367
C174	C	1.449976	0.687507	1.136367
C175	C	0.909687	0.216236	0.669209
C176	C	1.409687	0.716236	1.169209
C177	C	0.869384	0.244978	0.636303
C178	C	1.369384	0.744978	1.136303
C179	C	0.869382	0.244994	0.570561
C180	C	1.369382	0.744994	1.070561
N181	N	0.904816	0.255537	0.772422
N182	N	1.404816	0.755537	1.272422
N183	N	0.904822	0.255521	0.834873
N184	N	1.404822	0.755521	1.334873
C185	C	0.909691	0.216190	0.867284
C186	C	1.409691	0.716190	1.367284
N187	N	0.914566	0.176875	0.834884
N188	N	1.414566	0.676875	1.334884
N189	N	0.914563	0.176891	0.772426
N190	N	1.414563	0.676891	1.272426
C191	C	0.909685	0.216222	0.740494
C192	C	1.409685	0.716222	1.240494
C193	C	0.949987	0.187426	0.971468
C194	C	1.449987	0.687426	1.471468
C195	C	0.949981	0.187406	1.037211
C196	C	1.449981	0.687406	1.537211
C197	C	0.869393	0.244882	1.037146
C198	C	1.369393	0.744882	1.537146
C199	C	0.869395	0.244898	0.971403
C200	C	1.369395	0.744898	1.471403
C201	C	0.909695	0.216171	0.938568
C202	C	1.409695	0.716171	1.438568
H203	H	0.982563	0.387253	0.230582
H204	H	1.482563	0.887253	0.730582
O205	O	0.993248	0.478559	0.219964
O206	O	1.493248	0.978559	0.719964
H207	H	1.021237	0.454342	0.192001
H208	H	1.521237	0.954342	0.692001
O209	O	0.993443	0.156511	0.671863
O210	O	1.493443	0.656511	1.171863
H211	H	1.021468	0.136540	0.637986
H212	H	1.521468	0.636540	1.137986
H213	H	0.836587	0.268304	0.944617
H214	H	1.336587	0.768304	1.444617
O215	O	0.785661	0.835251	0.427363
O216	O	1.285661	1.335251	0.927363
H217	H	0.753647	0.856664	0.399156
H218	H	1.253647	1.356664	0.899156
H219	H	0.836613	0.959741	0.376534
H220	H	1.336613	1.459741	0.876534
O221	O	0.678689	0.156513	0.219961
O222	O	1.178689	0.656513	0.719961
H223	H	0.708571	0.176594	0.187876
H224	H	1.208571	0.676594	0.687876
O225	O	0.825928	0.275963	0.671724
O226	O	1.325928	0.775963	1.171724
H227	H	0.797903	0.295949	0.637800
H228	H	1.297903	0.795949	1.137800
O229	O	0.542045	0.156494	0.220001
O230	O	1.042045	0.656494	0.720001
H231	H	0.554606	0.164148	0.170574
H232	H	1.054606	0.664148	0.670574
O233	O	0.141127	0.276054	0.387158
O234	O	0.641127	0.776054	0.887158
H235	H	0.111107	0.298850	0.358887
H236	H	0.611107	0.798850	0.858887
H237	H	0.149882	0.164043	0.230769
H238	H	0.649882	0.664043	0.730769
O239	O	0.993437	0.156539	0.535211
O240	O	1.493437	0.656539	1.035211
H241	H	1.025440	0.176650	0.505285
H242	H	1.525440	0.676650	1.005285
O243	O	0.825910	0.275994	0.535084
O244	O	1.325910	0.775994	1.035084
H245	H	0.854046	0.298857	0.505146
H246	H	1.354046	0.798857	1.005146
H247	H	0.669967	0.268531	0.376378
H248	H	1.169967	0.768531	0.876378
O249	O	0.785582	0.596988	0.427351
O250	O	1.285582	1.096988	0.927351
H251	H	0.813729	0.575578	0.459418
H252	H	1.313729	1.075578	0.959418
H253	H	1.022926	0.603050	0.190398
H254	H	1.522926	1.103050	0.690398
H255	H	0.550703	0.268510	0.376425
H256	H	1.050703	0.768510	0.876425
O257	O	0.993450	0.156441	0.936050
O258	O	1.493450	0.656441	1.436050
H259	H	0.986688	0.161286	0.884808
H260	H	1.486688	0.661286	1.384808
O261	O	1.033600	0.694353	0.179777
O262	O	1.533600	1.194353	0.679777
H263	H	1.061589	0.670135	0.151817
H264	H	1.561589	1.170135	0.651817
O265	O	0.993412	0.953437	0.220006
O266	O	1.493412	1.453437	0.720006
H267	H	1.021427	0.977619	0.192056
H268	H	1.521427	1.477619	0.692056
O269	O	0.785615	0.737742	0.427335
O270	O	1.285615	1.237742	0.927335
H271	H	0.757611	0.761959	0.455283
H272	H	1.257611	1.261959	0.955283
H273	H	0.982793	0.163999	1.063996
H274	H	1.482793	0.663999	1.563996
O275	O	0.825936	0.275869	1.072557
O276	O	1.325936	0.775869	1.572557
H277	H	0.832708	0.271032	1.123799
H278	H	1.332708	0.771032	1.623799
H279	H	0.269150	0.164062	0.230722
H280	H	0.769150	0.664062	0.730722
H281	H	0.836635	1.044850	0.376531
H282	H	1.336635	1.544850	0.876531
O283	O	0.277823	0.276074	0.387144
O284	O	0.777823	0.776074	0.887144
H285	H	0.243917	0.296073	0.415104
H286	H	0.743917	0.796073	0.915104
H287	H	0.796253	0.688289	0.416730
H288	H	1.296253	1.188289	0.916730
O289	O	0.993453	1.050960	0.220023
O290	O	1.493453	1.550960	0.720023
H291	H	0.986700	1.087529	0.226791
H292	H	1.486700	1.587529	0.726791
O293	O	0.825803	0.478673	0.387119
O294	O	1.325803	0.978673	0.887119
H295	H	0.797790	0.454494	0.415076
H296	H	1.297790	0.954494	0.915076
H297	H	0.836414	0.387339	0.376480
H298	H	1.336414	0.887339	0.876480
H299	H	1.022978	0.743797	0.190413
H300	H	1.522978	1.243797	0.690413
H301	H	1.023004	0.828916	0.190427
H302	H	1.523004	1.328916	0.690427
