data_functionalizedCrystal
_audit_creation_method	'MofGen! by Chris Wilmer'
_symmetry_space_group_name_H-M	'P1'
_symmetry_Int_Tables_number	1
_symmetry_cell_setting	triclinic
loop_
_symmetry_equiv_pos_as_xyz
  x,y,z
_cell_length_a	17.038272
_cell_length_b	11.026607
_cell_length_c	9.482900
_cell_angle_alpha	101.363848
_cell_angle_beta	100.012096
_cell_angle_gamma	80.151214
loop_
_atom_site_label
_atom_site_type_symbol
_atom_site_fract_x
_atom_site_fract_y
_atom_site_fract_z
O1	O	0.322506	-1.662374	-0.120910
O2	O	0.284676	-1.305163	-0.120910
O3	O	0.189477	-1.481644	-0.120899
O4	O	0.417705	-1.485893	-0.120922
O5	O	0.208914	-1.445807	0.120891
O6	O	0.304112	-1.269325	0.120880
O7	O	0.341943	-1.626537	0.120880
Cu8	Cu	0.324802	-1.444659	0.142957
Cu9	Cu	0.301816	-1.487041	-0.142988
O10	O	0.437141	-1.450056	0.120868
C11	C	0.287415	-1.241313	-0.000015
C12	C	0.266610	-1.104451	-0.000015
C13	C	0.169523	-1.459863	-0.000004
C14	C	0.081107	-1.448341	-0.000004
N15	N	0.340969	-1.414859	0.344075
C16	C	0.045899	-1.554125	-0.000003
C17	C	-0.037179	-1.543294	-0.000016
C18	C	-0.085048	-1.426676	-0.000021
C19	C	-0.049835	-1.320885	-0.000027
C20	C	0.033241	-1.331719	-0.000024
C21	C	-0.336201	-1.388403	-0.000041
C22	C	-0.419281	-1.377576	-0.000040
C23	C	-0.406621	-1.599987	-0.000032
C24	C	-0.323543	-1.610809	-0.000020
C25	C	-0.288338	-1.505019	-0.000034
C26	C	-0.169967	-1.415602	-0.000031
C27	C	-0.203421	-1.516096	-0.000034
C28	C	0.457095	-1.471837	-0.000030
C29	C	0.545511	-1.483360	-0.000039
C30	C	0.339203	-1.690388	-0.000018
C31	C	0.360008	-1.827251	-0.000028
C32	C	0.324055	-1.036577	-0.000022
C33	C	0.302554	-0.895123	-0.000021
N34	N	0.285644	-1.516850	-0.344106
C35	C	0.306580	-1.478242	0.416279
C36	C	0.320039	-1.453458	0.583695
H37	H	0.084868	-1.649086	0.000010
Cl38	Cl	0.202039	-0.823170	-0.000001
Cl39	Cl	0.460526	-0.899195	-0.000018
H40	H	0.061906	-1.245579	-0.000025
Cl41	Cl	-0.450884	-1.732971	-0.000019
Cl42	Cl	0.401807	-1.302740	0.439982
H43	H	0.389155	-1.083189	-0.000020
Cl44	Cl	-0.479458	-1.230959	-0.000038
Cl45	Cl	0.166099	-1.032493	0.000006
Cl46	Cl	0.245521	-1.590058	0.320373
Cl47	Cl	0.380879	-1.341334	0.679596
Cl48	Cl	0.225004	-1.629247	0.559998
H49	H	-0.284574	-1.705771	-0.000016
Cl50	Cl	-0.081437	-1.676286	-0.000010
Cl51	Cl	-0.291954	-1.255409	-0.000062
H52	H	-0.088816	-1.225934	-0.000041
H53	H	-0.208950	-1.320650	-0.000032
H54	H	-0.164446	-1.611051	-0.000063
