data_functionalizedCrystal
_audit_creation_method	'MofGen! by Chris Wilmer'
_symmetry_space_group_name_H-M	'P1'
_symmetry_Int_Tables_number	1
_symmetry_cell_setting	triclinic
loop_
_symmetry_equiv_pos_as_xyz
  x,y,z
_cell_length_a	16.109302
_cell_length_b	6.394989
_cell_length_c	15.186229
_cell_angle_alpha	90.000778
_cell_angle_beta	89.994701
_cell_angle_gamma	95.020254
loop_
_atom_site_label
_atom_site_type_symbol
_atom_site_fract_x
_atom_site_fract_y
_atom_site_fract_z
O1	O	1.105972	-0.268487	-0.073263
O2	O	0.864264	-0.301898	-0.073255
O3	O	0.988549	0.018874	-0.073259
O4	O	0.981687	-0.589259	-0.073258
O5	O	0.988541	0.018879	0.073198
O6	O	0.864256	-0.301893	0.073202
O7	O	1.105964	-0.268483	0.073195
Zn8	Zn	0.985108	-0.285187	0.096452
Zn9	Zn	0.985120	-0.285193	-0.096512
O10	O	0.981679	-0.589254	0.073199
C11	C	0.833271	-0.300542	-0.000025
C12	C	0.740932	-0.296483	-0.000023
C13	C	0.528488	-0.287097	0.079802
C14	C	0.441727	-0.283262	0.079799
C15	C	0.441747	-0.283277	-0.079876
C16	C	0.528507	-0.287098	-0.079872
C17	C	0.571874	-0.289018	-0.000030
C18	C	0.398354	-0.281362	-0.000037
C19	C	0.304284	-0.277203	-0.000041
C20	C	0.665950	-0.293173	-0.000026
C21	C	1.136957	-0.269839	-0.000037
C22	C	1.229296	-0.273897	-0.000045
C23	C	0.987188	0.096697	-0.000034
C24	C	0.983042	0.332929	-0.000035
N25	N	0.985107	-0.285182	0.228144
N26	N	0.985128	-0.285182	-0.228205
C27	C	1.040160	-0.143192	0.453865
C28	C	1.040162	-0.143187	0.546055
C29	C	0.930069	-0.427179	0.546068
C30	C	0.930063	-0.427172	0.453880
C31	C	0.985113	-0.285181	0.407781
C32	C	0.985122	-0.285183	0.592159
C33	C	0.985124	-0.285179	0.692115
C34	C	0.985110	-0.285182	0.307819
H35	H	0.406405	-0.281698	0.144807
O36	O	0.570737	-0.289253	-0.157371
C37	C	0.661142	-0.474484	-0.250050
C38	C	0.613372	-0.472292	-0.162249
H39	H	0.695610	-0.622477	-0.254031
H40	H	0.707892	-0.330284	-0.254053
H41	H	0.615232	-0.472370	-0.307101
H42	H	0.659219	-0.474478	-0.105148
H43	H	0.566610	-0.616479	-0.158323
H44	H	1.084984	-0.027571	0.416334
O45	O	0.876483	-0.564899	0.590813
C46	C	0.733208	-0.687265	0.619008
C47	C	0.793800	-0.531144	0.568296
H48	H	0.666347	-0.660058	0.600808
H49	H	0.742597	-0.662882	0.692823
H50	H	0.745832	-0.854555	0.600888
H51	H	0.781213	-0.363793	0.586343
H52	H	0.784398	-0.555710	0.494493
O53	O	1.093716	-0.005184	0.590684
C54	C	1.202881	0.276575	0.580936
C55	C	1.142288	0.120358	0.530285
H56	H	1.242155	0.378146	0.532126
H57	H	1.245415	0.186472	0.624066
H58	H	1.165883	0.380859	0.624126
H59	H	1.179218	0.016035	0.487048
H60	H	1.099753	0.210592	0.487211
O61	O	0.876704	-0.565204	0.409012
C62	C	0.861993	-0.850530	0.304965
C63	C	0.922512	-0.694309	0.355705
H64	H	0.899005	-0.954980	0.261868
H65	H	0.819526	-0.760430	0.261754
H66	H	0.822637	-0.951932	0.353765
H67	H	0.961922	-0.592867	0.306969
H68	H	0.964922	-0.784537	0.398929
O69	O	0.570492	-0.288841	0.157436
C70	C	0.561307	-0.288520	0.315812
C71	C	0.513639	-0.286503	0.227953
H72	H	0.515360	-0.286675	0.372848
H73	H	0.607982	-0.144182	0.319861
H74	H	0.595870	-0.436363	0.319765
H75	H	0.479026	-0.138757	0.223941
H76	H	0.467012	-0.430939	0.223942
O77	O	0.399485	-0.281517	-0.157352
C78	C	0.265841	-0.275525	-0.228126
C79	C	0.313594	-0.277555	-0.140320
H80	H	0.196392	-0.272278	-0.214387
H81	H	0.276763	-0.422402	-0.267504
H82	H	0.289030	-0.130228	-0.267498
H83	H	0.290434	-0.422755	-0.100877
H84	H	0.302672	-0.130582	-0.101009
