data_functionalizedCrystal
_audit_creation_method	'MofGen! by Chris Wilmer'
_symmetry_space_group_name_H-M	'P1'
_symmetry_Int_Tables_number	1
_symmetry_cell_setting	triclinic
loop_
_symmetry_equiv_pos_as_xyz
  x,y,z
_cell_length_a	16.992694
_cell_length_b	11.792241
_cell_length_c	15.455446
_cell_angle_alpha	92.692262
_cell_angle_beta	87.147499
_cell_angle_gamma	87.430819
loop_
_atom_site_label
_atom_site_type_symbol
_atom_site_fract_x
_atom_site_fract_y
_atom_site_fract_z
O1	O	1.038012	0.245399	0.072022
O2	O	0.809714	0.242760	0.072048
O3	O	0.929403	0.079362	0.072028
O4	O	0.918322	0.408797	0.072042
O5	O	0.936209	0.070050	-0.072232
O6	O	0.816520	0.233448	-0.072213
O7	O	1.044818	0.236088	-0.072238
Cu8	Cu	0.931290	0.233918	-0.085397
Cu9	Cu	0.923241	0.244930	0.085207
O10	O	0.925128	0.399486	-0.072219
C11	C	0.783890	0.234706	-0.000079
C12	C	0.696802	0.224569	-0.000070
C13	C	0.646977	0.322387	-0.000066
C14	C	0.565151	0.312854	-0.000079
C15	C	0.533150	0.205502	-0.000088
C16	C	0.582982	0.107676	-0.000094
C17	C	0.664807	0.117210	-0.000088
C18	C	0.289386	0.165987	-0.000113
C19	C	0.207554	0.156461	-0.000117
C20	C	0.189729	0.361639	-0.000103
C21	C	0.271556	0.371164	-0.000091
C22	C	0.321381	0.273338	-0.000102
N23	N	0.449510	0.195755	-0.000098
N24	N	0.405019	0.283086	-0.000098
C25	C	0.932110	0.032358	-0.000102
C26	C	0.930027	-0.093826	-0.000101
C27	C	0.926196	-0.324851	-0.000086
C28	C	0.928324	-0.196292	-0.000094
C29	C	1.070642	0.244141	-0.000109
C30	C	1.157729	0.254279	-0.000113
C31	C	0.922421	0.446489	-0.000087
C32	C	0.924504	0.572674	-0.000082
N33	N	0.936957	0.226172	-0.205391
C34	C	0.968438	0.183279	-0.749391
C35	C	0.964135	0.189149	-0.658584
C36	C	0.908970	0.264401	-0.613187
C37	C	0.858110	0.333796	-0.658602
C38	C	0.862417	0.327932	-0.749407
C39	C	0.890405	0.289702	-0.341611
C40	C	0.886099	0.295559	-0.250800
C41	C	0.992126	0.150913	-0.250788
C42	C	0.996426	0.145050	-0.341595
C43	C	0.945569	0.214449	-0.387002
N44	N	0.904568	0.270401	-0.520368
N45	N	0.949975	0.208455	-0.479819
N46	N	0.917581	0.252667	0.205201
H47	H	0.181503	0.069038	-0.000123
H48	H	0.329943	0.086330	-0.000122
H49	H	0.524586	0.392508	-0.000075
H50	H	0.297604	0.458582	-0.000074
H51	H	0.556921	0.020267	-0.000114
N52	N	0.138823	0.461548	-0.000091
N53	N	0.065766	0.453028	-0.000096
H54	H	0.029813	0.523592	-0.000089
H55	H	0.821005	0.384436	-0.786378
H56	H	0.705374	0.037556	-0.000090
H57	H	1.013356	0.121996	-0.786347
H58	H	1.005548	0.132649	-0.621613
N59	N	1.052778	0.068170	-0.387950
N60	N	1.098183	0.006221	-0.347395
H61	H	1.137981	-0.048081	-0.380133
N62	N	0.838439	0.360568	-0.387980
N63	N	0.792000	0.316812	-0.438656
H64	H	0.755294	0.366862	-0.471406
N65	N	1.044065	0.080035	-0.204392
N66	N	1.040214	0.085275	-0.123317
H67	H	1.076899	0.035216	-0.090548
H68	H	0.813195	0.395074	-0.621635
N69	N	0.679648	0.432055	-0.000049
N70	N	0.635148	0.519383	-0.000048
H71	H	0.658219	0.596840	-0.000037
N72	N	0.829741	0.372438	-0.204440
N73	N	0.784339	0.434396	-0.244991
H74	H	0.744537	0.488689	-0.212250
