data_functionalizedCrystal
_audit_creation_method	'MofGen! by Chris Wilmer'
_symmetry_space_group_name_H-M	'P1'
_symmetry_Int_Tables_number	1
_symmetry_cell_setting	triclinic
loop_
_symmetry_equiv_pos_as_xyz
  x,y,z
_cell_length_a	13.032831
_cell_length_b	18.101397
_cell_length_c	13.032268
_cell_angle_alpha	97.138504
_cell_angle_beta	89.113023
_cell_angle_gamma	97.171331
loop_
_atom_site_label
_atom_site_type_symbol
_atom_site_fract_x
_atom_site_fract_y
_atom_site_fract_z
Zn1	Zn	1.498406	0.500116	0.780702
Zn2	Zn	1.520132	0.610450	0.608692
Zn3	Zn	1.348269	0.469180	0.586951
Zn4	Zn	1.326381	0.606446	0.758819
O5	O	1.423297	0.546548	0.683791
O6	O	1.645207	0.529374	0.776141
O7	O	1.515587	0.580439	0.461895
O8	O	1.368253	0.369662	0.612712
O9	O	1.661169	0.610436	0.649767
O10	O	1.478558	0.392391	0.755060
O11	O	1.389320	0.476649	0.445921
O12	O	1.201447	0.472766	0.591493
O13	O	1.330948	0.603612	0.905635
O14	O	1.185366	0.573615	0.717763
O15	O	1.457334	0.525492	0.921713
O16	O	1.494363	0.713540	0.628548
O17	O	1.352015	0.710599	0.738845
C18	C	1.156090	0.519400	0.649895
C19	C	1.041775	0.507806	0.635418
C20	C	1.423196	0.738942	0.683707
C21	C	1.423243	0.821261	0.683717
C22	C	0.982892	0.552599	0.691346
C23	C	0.864741	0.540617	0.676385
C24	C	1.423333	1.120367	0.683792
C25	C	1.512703	1.090823	0.614159
C26	C	1.512960	1.005250	0.614410
C27	C	1.423288	0.971977	0.683754
C28	C	1.438893	1.014475	0.795873
C29	C	1.439553	1.100146	0.795506
C30	C	1.318030	1.075645	0.642221
C31	C	1.318884	0.989862	0.639880
C32	C	1.423261	0.888114	0.683739
C33	C	1.423362	1.204231	0.683814
C34	C	1.691548	0.573803	0.717820
C35	C	1.805860	0.585417	0.732322
C36	C	1.389276	0.567556	0.952033
C37	C	1.374778	0.576508	1.066341
C38	C	1.423398	1.353402	0.683871
C39	C	1.423378	1.271083	0.683829
C40	C	1.457245	0.525574	0.416600
C41	C	1.471942	0.516433	0.302318
C42	C	1.430848	0.541847	1.125258
C43	C	1.415865	0.551099	1.243402
H44	H	1.019951	0.599817	0.750308
H45	H	1.315676	0.613027	1.103365
C46	C	1.287473	1.026607	0.464071
C47	C	1.295266	1.092982	0.532783
H48	H	1.273422	1.037312	0.396509
H49	H	1.350721	1.005571	0.463618
H50	H	1.232977	0.991929	0.485479
H51	H	1.349767	1.127658	0.511379
H52	H	1.232011	1.114029	0.533232
H53	H	0.827685	0.493391	0.617427
H54	H	1.591245	0.994336	0.643011
H55	H	1.004715	0.460583	0.576464
H56	H	0.842912	0.632637	0.791291
C57	C	1.680728	1.081216	0.680538
C58	C	1.617823	1.132715	0.652402
H59	H	1.745624	1.107082	0.704144
H60	H	1.648207	1.055853	0.734231
H61	H	1.691029	1.045794	0.622309
H62	H	1.607516	1.168134	0.710632
H63	H	1.650351	1.158091	0.598704
C64	C	1.495066	1.019396	0.435045
C65	C	1.501955	0.965913	0.502764
H66	H	1.488286	0.995113	0.366116
H67	H	1.436437	1.044745	0.452456
H68	H	1.555814	1.054596	0.440627
H69	H	1.441203	0.930717	0.497187
H70	H	1.560589	0.940553	0.485347
C71	C	1.460433	0.434298	1.006180
C72	C	1.510631	0.492543	1.075284
H73	H	1.509693	0.403864	0.975326
H74	H	1.410381	0.404678	1.042423
H75	H	1.427197	0.454854	0.953914
H76	H	1.543861	0.471987	1.127554
H77	H	1.560701	0.522167	1.039040
C78	C	1.603657	1.087330	0.868120
C79	C	1.542911	1.140438	0.840868
H80	H	1.667470	1.112203	0.896118
H81	H	1.568164	1.059843	0.918242
H82	H	1.616548	1.053933	0.808476
H83	H	1.530014	1.173832	0.900515
H84	H	1.578411	1.167938	0.790744
C85	C	1.303181	1.066030	0.913085
C86	C	1.354503	1.127072	0.868948
H87	H	1.250685	1.082654	0.958433
H88	H	1.272836	1.029498	0.859976
H89	H	1.351216	1.044549	0.950792
H90	H	1.306469	1.148550	0.831234
H91	H	1.384847	1.163617	0.922064
H92	H	1.504785	1.103294	0.531238
C93	C	1.134327	0.975319	0.660284
C94	C	1.225662	0.958170	0.701845
H95	H	1.076778	0.955752	0.698544
H96	H	1.136292	1.028214	0.664007
H97	H	1.127962	0.953608	0.590118
H98	H	1.232032	0.979886	0.772009
H99	H	1.223697	0.905264	0.698132
C100	C	1.158803	1.130052	0.650052
C101	C	1.228369	1.101061	0.710457
H102	H	1.103456	1.145742	0.692184
H103	H	1.193475	1.171700	0.620534
H104	H	1.132286	1.092369	0.596480
H105	H	1.254892	1.138746	0.764025
H106	H	1.193691	1.059408	0.739991
C107	C	1.336690	0.600039	1.400735
C108	C	1.336087	0.600416	1.293369
H109	H	1.287445	0.630490	1.431582
H110	H	1.319453	0.550128	1.416403
H111	H	1.403581	0.619258	1.427037
H112	H	1.269198	0.581192	1.267066
H113	H	1.353318	0.650337	1.277693
C114	C	1.600703	0.436840	1.329425
C115	C	1.551726	0.467120	1.252356
H116	H	1.649951	0.406394	1.298577
H117	H	1.634745	0.476358	1.376293
H118	H	1.550625	0.407223	1.365660
H119	H	1.601803	0.496742	1.216125
H120	H	1.517683	0.427597	1.205470
H121	H	1.375197	0.993220	0.849748
H122	H	1.514517	1.002833	0.829775
H123	H	1.306868	0.961093	0.557302
