data_functionalizedCrystal
_audit_creation_method	'MofGen! by Chris Wilmer'
_symmetry_space_group_name_H-M	'P1'
_symmetry_Int_Tables_number	1
_symmetry_cell_setting	triclinic
loop_
_symmetry_equiv_pos_as_xyz
  x,y,z
_cell_length_a	16.956995
_cell_length_b	13.339070
_cell_length_c	12.376593
_cell_angle_alpha	99.011486
_cell_angle_beta	103.387617
_cell_angle_gamma	95.841883
loop_
_atom_site_label
_atom_site_type_symbol
_atom_site_fract_x
_atom_site_fract_y
_atom_site_fract_z
O1	O	1.084308	0.057056	0.094083
O2	O	0.859862	0.091923	0.094068
O3	O	0.946325	-0.070621	0.094071
O4	O	0.997845	0.219600	0.094081
O5	O	0.912016	-0.102381	-0.093942
O6	O	0.825553	0.060163	-0.093944
O7	O	1.049998	0.025296	-0.093929
Zn8	Zn	0.932328	0.037687	-0.123788
Zn9	Zn	0.977533	0.079532	0.123927
O10	O	0.963535	0.187840	-0.093932
C11	C	0.813394	0.077828	0.000060
C12	C	0.726047	0.083135	0.000054
C13	C	0.235540	0.122851	0.000098
C14	C	0.317610	0.117856	0.000096
C15	C	0.347952	0.024093	0.000085
C16	C	0.296221	-0.064678	0.000085
C17	C	0.214154	-0.059680	0.000094
C18	C	0.592250	-0.000638	0.000064
C19	C	0.674322	-0.005630	0.000051
C20	C	0.695706	0.176904	0.000065
C21	C	0.613635	0.181892	0.000067
C22	C	0.561913	0.093123	0.000074
N23	N	0.431840	0.018984	0.000080
N24	N	0.478028	0.098234	0.000086
C25	C	0.920469	-0.123462	0.000065
C26	C	0.894529	-0.233595	0.000068
C27	C	1.096224	-0.615250	0.000081
C28	C	1.120596	-0.511777	0.000072
C29	C	1.064082	-0.442226	0.000072
C30	C	0.983191	-0.476159	0.000079
C31	C	0.958814	-0.579644	0.000079
C32	C	0.926672	-0.406620	0.000070
C33	C	0.845781	-0.440553	0.000077
C34	C	0.821409	-0.544027	0.000078
C35	C	0.877923	-0.613578	0.000079
C36	C	0.951048	-0.303135	0.000070
C37	C	0.813639	-0.267529	0.000068
C38	C	0.789266	-0.371002	0.000077
C39	C	1.096467	0.039392	0.000082
C40	C	1.183815	0.034086	0.000095
C41	C	0.989393	0.240682	0.000076
C42	C	1.015333	0.350816	0.000081
N43	N	0.901483	0.009128	-0.292847
C44	C	1.079993	0.174394	-0.647829
C45	C	1.101577	0.194394	-0.529489
C46	C	1.051555	0.148079	-0.470323
C47	C	0.979946	0.081761	-0.529508
C48	C	0.958357	0.061765	-0.647860
C49	C	0.929919	0.035450	-0.470353
C50	C	0.858310	-0.030868	-0.529538
C51	C	0.836724	-0.050860	-0.647878
C52	C	0.886746	-0.004545	-0.707045
C53	C	0.951508	0.055446	-0.352001
C54	C	0.829872	-0.057183	-0.352032
C55	C	0.808288	-0.077183	-0.470372
N56	N	1.008382	0.108083	0.292985
H57	H	0.737827	0.249176	0.000061
O58	O	0.536473	-0.096383	0.000067
H59	H	0.474310	-0.077162	0.000090
H60	H	0.588938	0.258244	0.000080
O61	O	0.752673	-0.192528	0.000057
H62	H	0.729026	-0.190908	0.076678
O63	O	1.028738	0.126969	-0.288169
H64	H	1.082401	0.096335	-0.310863
O65	O	0.731058	-0.148720	-0.534205
H66	H	0.677391	-0.118106	-0.511505
H67	H	0.320933	-0.141020	0.000082
H68	H	1.069133	0.164367	-0.373965
H69	H	0.172041	-0.131961	0.000094
O70	O	0.759509	-0.122421	-0.711721
H71	H	0.728363	-0.151291	-0.650701
H72	H	1.120710	0.212101	-0.696014
O73	O	0.863460	-0.026117	-0.834688
H74	H	0.910275	0.017232	-0.865881
H75	H	1.016910	-0.275518	0.000063
H76	H	1.159881	0.248389	-0.481309
O77	O	0.775930	-0.107180	-0.288234
H78	H	0.802983	-0.082156	-0.195999
H79	H	0.210841	0.199201	0.000099
O80	O	0.707056	-0.106761	0.000052
H81	H	0.657305	-0.167647	0.000071
H82	H	0.723403	-0.398645	0.000082
O83	O	0.373397	0.213589	0.000073
H84	H	0.338507	0.279623	0.000060
H85	H	1.142227	-0.671887	0.000072
O86	O	1.090365	-0.330619	0.000072
H87	H	1.156109	-0.318706	0.000078
O88	O	1.207836	-0.475173	0.000066
H89	H	1.236208	-0.415924	0.076691
O90	O	0.851629	-0.725187	0.000074
H91	H	0.904517	-0.767844	0.000068
H92	H	0.755541	-0.571653	0.000076
