data_functionalizedCrystal
_audit_creation_method	'MofGen! by Chris Wilmer'
_symmetry_space_group_name_H-M	'P1'
_symmetry_Int_Tables_number	1
_symmetry_cell_setting	triclinic
loop_
_symmetry_equiv_pos_as_xyz
  x,y,z
_cell_length_a	35.277649
_cell_length_b	35.288076
_cell_length_c	35.277682
_cell_angle_alpha	59.996962
_cell_angle_beta	89.996844
_cell_angle_gamma	59.999937
loop_
_atom_site_label
_atom_site_type_symbol
_atom_site_fract_x
_atom_site_fract_y
_atom_site_fract_z
O1	O	0.260036	0.334271	-0.011290
O2	O	0.204914	0.256670	0.011213
O3	O	0.204913	0.334268	-0.066411
O4	O	0.260037	0.256673	0.066334
O5	O	0.267960	0.271240	-0.066410
O6	O	0.267960	0.193642	0.011213
O7	O	0.323083	0.271243	-0.011290
Cu8	Cu	0.301278	0.226688	-0.000038
Cu9	Cu	0.226718	0.301226	-0.000038
O10	O	0.323083	0.193645	0.066334
C11	C	0.364508	0.456627	-0.023613
C12	C	0.341116	0.503398	-0.020396
C13	C	0.410128	0.433933	-0.023935
C14	C	0.364510	0.388001	-0.023608
C15	C	0.341120	0.361396	-0.020385
C16	C	0.410129	0.365411	-0.023930
C17	C	0.433151	0.388005	-0.023613
C18	C	0.483152	0.361403	-0.020395
C19	C	0.341591	0.433930	-0.023931
C20	C	0.523549	0.339911	-0.017795
C21	C	0.322217	0.541183	-0.017796
C22	C	0.322223	0.339901	-0.017781
C23	C	0.574227	0.312949	-0.014533
C24	C	0.298508	0.588586	-0.014535
C25	C	0.298516	0.312936	-0.014514
C26	C	0.027625	0.061861	0.034093
C27	C	0.050647	0.015934	0.034413
C28	C	0.096269	0.061859	0.034096
C29	C	0.119187	0.015932	0.034415
C30	C	0.096268	-0.006762	0.034093
C31	C	0.050649	0.084450	0.034416
C32	C	-0.137906	0.185442	0.021664
C33	C	-0.184783	0.210707	0.018150
C34	C	-0.208300	0.189023	0.016384
C35	C	-0.259130	0.216420	0.012564
C36	C	-0.184935	0.142070	0.018137
C37	C	-0.138060	0.116805	0.021657
C38	C	-0.114545	0.138493	0.023421
C39	C	0.138183	-0.159817	0.021660
C40	C	0.159788	-0.203166	0.018145
C41	C	0.204994	-0.224912	0.016380
C42	C	0.228421	-0.271909	0.012563
C43	C	0.228596	-0.203309	0.018136
C44	C	0.206995	-0.159967	0.021659
C45	C	0.161783	-0.138221	0.023418
C46	C	0.138189	0.185434	0.021675
C47	C	0.159793	0.210701	0.018157
C48	C	0.205001	0.189015	0.016394
C49	C	0.228427	0.216410	0.012578
C50	C	0.228600	0.142066	0.018145
C51	C	0.206994	0.116803	0.021661
C52	C	0.161788	0.138489	0.023430
C53	C	-0.063718	0.111096	0.027234
C54	C	-0.023203	0.089258	0.030276
C55	C	0.119694	0.089254	0.030281
C56	C	0.138365	0.111090	0.027242
C57	C	0.119691	-0.053758	0.030275
C58	C	0.138362	-0.091221	0.027233
C59	C	0.095978	0.466060	-0.438568
C60	C	0.050358	0.511987	-0.461486
C61	C	0.095978	0.466059	-0.369925
C62	C	0.050358	0.511987	-0.392947
C63	C	0.027335	0.534682	-0.438567
C64	C	0.118896	0.443469	-0.392948
C65	C	0.207166	0.342480	-0.480485
C66	C	0.228923	0.317216	-0.502090
C67	C	0.205468	0.338901	-0.547297
C68	C	0.229054	0.311505	-0.570722
C69	C	0.160255	0.385855	-0.570898
C70	C	0.138503	0.411119	-0.549295
C71	C	0.161960	0.389430	-0.504086
C72	C	-0.138195	0.687740	-0.549753
C73	C	-0.185072	0.731090	-0.571510
C74	C	-0.208589	0.752835	-0.548056
C75	C	-0.259417	0.799832	-0.571639
C76	C	-0.185224	0.731230	-0.502843
C77	C	-0.138348	0.687888	-0.481090
C78	C	-0.114836	0.666143	-0.504550
C79	C	0.207166	0.342480	-0.204394
C80	C	0.228922	0.317212	-0.157515
C81	C	0.205466	0.338897	-0.133999
C82	C	0.229052	0.311501	-0.083169
C83	C	0.160255	0.385846	-0.157362
C84	C	0.138501	0.411110	-0.204239
C85	C	0.161963	0.389425	-0.227753
C86	C	0.138369	0.416826	-0.480662
C87	C	0.119566	0.438663	-0.461991
C88	C	0.119566	0.438663	-0.319098
C89	C	0.138369	0.416826	-0.278583
C90	C	-0.023492	0.581679	-0.462154
C91	C	-0.064007	0.619142	-0.480957
O92	O	0.724111	0.193655	0.011196
O93	O	0.591366	0.271256	-0.011308
O94	O	0.668977	0.193662	0.066316
O95	O	0.646499	0.271250	-0.066428
O96	O	0.668976	0.256694	0.066311
O97	O	0.591364	0.334288	-0.011313
O98	O	0.724109	0.256687	0.011190
Cu99	Cu	0.657736	0.301243	-0.000062
Cu100	Cu	0.657738	0.226701	-0.000056
O101	O	0.646497	0.334281	-0.066434
O102	O	0.267953	0.712704	0.011194
O103	O	0.323075	0.602495	-0.011309
O104	O	0.323072	0.602484	0.066315
O105	O	0.267956	0.712715	-0.066430
O106	O	0.260023	0.602489	0.066309
O107	O	0.260026	0.602499	-0.011315
O108	O	0.204904	0.712709	0.011188
Cu109	Cu	0.226708	0.657604	-0.000064
Cu110	Cu	0.301271	0.657599	-0.000057
O111	O	0.204907	0.712719	-0.066436
O112	O	-0.408919	0.925433	-0.602617
O113	O	-0.276177	0.815217	-0.547497
O114	O	-0.353793	0.815213	-0.547490
O115	O	-0.331302	0.925437	-0.602624
O116	O	-0.353795	0.815215	-0.610537
O117	O	-0.276178	0.815218	-0.610544
O118	O	-0.408921	0.925435	-0.665664
Cu119	Cu	-0.342550	0.870327	-0.643861
Cu120	Cu	-0.342548	0.870325	-0.569300
O121	O	-0.331304	0.925438	-0.665671
O122	O	0.260041	0.256669	-0.665375
O123	O	0.204913	0.334268	-0.610253
O124	O	0.204916	0.256668	-0.610247
O125	O	0.260038	0.334269	-0.665381
O126	O	0.267961	0.193641	-0.547200
O127	O	0.267959	0.271241	-0.547207
O128	O	0.323086	0.193642	-0.602329
Cu129	Cu	0.301279	0.226687	-0.569011
Cu130	Cu	0.226720	0.301223	-0.643571
O131	O	0.323084	0.271242	-0.602335
C132	C	0.433158	0.071299	0.293191
C133	C	0.483160	0.024530	0.316581
C134	C	0.410136	0.093993	0.316110
C135	C	0.364516	0.139921	0.224550
C136	C	0.341124	0.166524	0.174548
C137	C	0.341598	0.162512	0.247573
C138	C	0.364516	0.139921	0.293193
C139	C	0.341125	0.166523	0.316585
C140	C	0.410136	0.093994	0.247571
C141	C	0.322228	0.188015	0.335482
C142	C	0.523556	-0.013254	0.335478
C143	C	0.322226	0.188018	0.134151
C144	C	0.298521	0.214978	0.359191
C145	C	0.574235	-0.060655	0.359185
C146	C	0.298518	0.214982	0.083472
C147	C	0.681233	0.139975	0.293161
C148	C	0.678009	0.166582	0.316548
C149	C	0.681548	0.094050	0.316081
C150	C	0.681248	0.139964	0.224524
C151	C	0.678040	0.166559	0.174524
C152	C	0.681563	0.094039	0.247548
C153	C	0.681232	0.071350	0.293166
C154	C	0.678006	0.024584	0.316558
C155	C	0.681564	0.162559	0.247543
C156	C	0.675399	-0.013197	0.335456
C157	C	0.675403	0.188079	0.335442
C158	C	0.675448	0.188046	0.134128
C159	C	0.672130	-0.060596	0.359165
C160	C	0.672135	0.215047	0.359146
C161	C	0.672196	0.215003	0.083451
C162	C	0.364489	0.387980	0.293167
C163	C	0.341096	0.361377	0.316556
C164	C	0.410109	0.365385	0.316088
C165	C	0.364494	0.456606	0.224527
C166	C	0.341105	0.503380	0.174525
C167	C	0.410114	0.433908	0.247552
C168	C	0.433134	0.387976	0.293172
C169	C	0.483135	0.361370	0.316565
C170	C	0.341573	0.433911	0.247547
C171	C	0.523532	0.339874	0.335464
C172	C	0.322196	0.339884	0.335451
C173	C	0.322210	0.541168	0.134129
C174	C	0.574210	0.312907	0.359174
C175	C	0.298486	0.312920	0.359157
C176	C	0.298504	0.588574	0.083450
C177	C	0.623685	0.534348	-0.438579
C178	C	0.623372	0.511647	-0.461493
C179	C	0.623672	0.465732	-0.369936
C180	C	0.623359	0.443135	-0.392955
C181	C	0.623690	0.465720	-0.438573
C182	C	0.623354	0.511659	-0.392961
C183	C	0.636114	0.687411	-0.480503
C184	C	0.639630	0.730760	-0.502110
C185	C	0.641405	0.752499	-0.547315
C186	C	0.645226	0.799496	-0.570742
C187	C	0.639658	0.730888	-0.570913
C188	C	0.636136	0.687546	-0.549308
C189	C	0.634363	0.665808	-0.504101
C190	C	0.636151	0.411367	-0.549744
C191	C	0.639672	0.386249	-0.571497
C192	C	0.641435	0.339292	-0.548041
C193	C	0.645259	0.312049	-0.571620
C194	C	0.639670	0.317457	-0.502830
C195	C	0.636141	0.342579	-0.481081
C196	C	0.634384	0.389536	-0.504543
C197	C	0.636060	0.411430	-0.204413
C198	C	0.639569	0.386321	-0.157535
C199	C	0.641330	0.339364	-0.134017
C200	C	0.645137	0.312135	-0.083189
C201	C	0.639585	0.317516	-0.157377
C202	C	0.636078	0.342626	-0.204252
C203	C	0.634311	0.389587	-0.227768
C204	C	0.630548	0.618807	-0.480676
C205	C	0.627505	0.581344	-0.462004
C206	C	0.627477	0.438507	-0.319110
C207	C	0.630508	0.416808	-0.278596
C208	C	0.627514	0.438481	-0.462155
C209	C	0.630562	0.416771	-0.480954
O210	O	0.646397	0.271324	0.452738
O211	O	0.668903	0.193717	0.397624
O212	O	0.591280	0.271325	0.397607
O213	O	0.724020	0.193716	0.452755
O214	O	0.591295	0.334345	0.334562
O215	O	0.668918	0.256737	0.334579
O216	O	0.646412	0.334344	0.389693
Cu217	Cu	0.657667	0.301295	0.356379
Cu218	Cu	0.657649	0.226766	0.430937
O219	O	0.724035	0.256736	0.389710
C220	C	0.027648	1.061913	-0.438592
C221	C	0.050673	1.084504	-0.461508
C222	C	0.096288	0.993282	-0.369947
C223	C	0.119208	1.015978	-0.392967
C224	C	0.096293	1.061909	-0.438587
C225	C	0.050668	1.015981	-0.392972
C226	C	-0.137885	1.116251	-0.480517
C227	C	-0.184761	1.141367	-0.502125
C228	C	-0.208274	1.188328	-0.547332
C229	C	-0.259103	1.215568	-0.570759
C230	C	-0.184906	1.210170	-0.570931
C231	C	-0.138032	1.185050	-0.549325
C232	C	-0.114521	1.138089	-0.504116
C233	C	0.138219	1.185491	-0.549766
C234	C	0.159827	1.210755	-0.571521
C235	C	0.205032	1.189070	-0.548065
C236	C	0.228462	1.216462	-0.571645
C237	C	0.228631	1.142112	-0.502852
C238	C	0.207027	1.116845	-0.481101
C239	C	0.161816	1.138542	-0.504563
C240	C	0.138193	0.840210	-0.204418
C241	C	0.159794	0.796859	-0.157539
C242	C	0.205001	0.775110	-0.134021
C243	C	0.228423	0.728108	-0.083191
C244	C	0.228603	0.796715	-0.157382
C245	C	0.207000	0.840066	-0.204259
C246	C	0.161795	0.861807	-0.227775
C247	C	-0.063694	1.110857	-0.480691
C248	C	-0.023179	1.089149	-0.462018
C249	C	0.119708	0.946280	-0.319120
C250	C	0.138377	0.908813	-0.278605
C251	C	0.119719	1.089305	-0.462172
C252	C	0.138392	1.111142	-0.480972
H253	H	0.304108	0.452923	-0.024442
H254	H	0.634660	0.324832	-0.223268
C255	C	0.169820	-0.009718	0.035097
N256	N	0.207954	-0.029034	0.035605
H257	H	0.304102	0.452882	0.229051
H258	H	0.428597	0.452904	0.229068
C259	C	0.682232	0.068398	0.366716
N260	N	0.682745	0.049079	0.404853
C261	C	0.622658	0.393210	-0.367979
N262	N	0.622129	0.355608	-0.349168
H263	H	0.226214	0.078572	0.023092
C264	C	0.641558	0.754522	-0.476148
N265	N	0.643013	0.772418	-0.456592
H266	H	0.428619	0.074991	0.353596
H267	H	0.641100	0.748593	-0.607720
H268	H	0.428613	0.328452	-0.024442
H269	H	0.682081	0.075044	0.229065
H270	H	-0.203803	0.248935	0.016721
H271	H	0.682073	0.199521	0.229056
H272	H	0.428620	0.074997	0.229089
H273	H	0.101409	1.203159	-0.568873
H274	H	0.428589	0.328426	0.353572
H275	H	0.622834	0.530659	-0.374482
C276	C	0.622679	0.537305	-0.512132
N277	N	0.622155	0.556631	-0.550272
C278	C	0.641621	0.410264	-0.621223
N279	N	0.643091	0.428351	-0.658676
C280	C	0.133831	0.262344	0.016231
N281	N	0.114276	0.301240	0.014784
H282	H	0.640992	0.404111	-0.138518
H283	H	0.634669	0.669716	-0.443695
H284	H	0.634618	0.449670	-0.223559
C285	C	0.435103	0.459584	-0.024618
N286	N	0.453916	0.478898	-0.025125
H287	H	0.032162	-0.003060	0.034931
H288	H	0.634712	0.669956	-0.568525
C289	C	0.634203	0.318559	-0.431352
N290	N	0.632746	0.300464	-0.393894
H291	H	0.634717	0.449601	-0.568851
C292	C	0.641578	0.265824	-0.477038
N293	N	0.643008	0.226937	-0.457614
C294	C	0.641521	0.265863	-0.131507
N295	N	0.642978	0.226959	-0.112023
H296	H	0.156694	0.996974	-0.374482
H297	H	0.032187	1.121468	-0.498989
H298	H	0.032180	0.996990	-0.374492
C299	C	0.133828	0.773096	-0.131846
N300	N	0.114272	0.755196	-0.112495
H301	H	0.101389	0.857901	-0.223566
H302	H	-0.118746	1.078013	-0.443707
C303	C	-0.210462	1.117343	-0.476162
N304	N	-0.229821	1.099248	-0.456605
H305	H	0.032164	0.121405	0.034935
H306	H	-0.204054	1.248404	-0.607739
C307	C	0.088460	0.209294	0.023615
N308	N	0.051003	0.227264	0.025075
C309	C	-0.112047	0.209307	0.023596
N310	N	-0.092570	0.227284	0.025047
C311	C	-0.210804	0.118220	0.016197
N312	N	-0.230288	0.100254	0.014737
H313	H	-0.119009	1.202835	-0.568543
C314	C	0.133865	1.262408	-0.621250
N315	N	0.114308	1.301315	-0.658706
C316	C	0.278359	1.118253	-0.477050
N317	N	0.315815	1.100283	-0.457616
H318	H	-0.119039	0.078576	0.023086
C319	C	0.232987	1.065195	-0.431370
N320	N	0.252540	1.026292	-0.393912
C321	C	0.278333	0.772789	-0.131512
N322	N	0.315789	0.754769	-0.112028
C323	C	0.088454	-0.135903	0.023601
N324	N	0.050999	-0.117890	0.025063
C325	C	0.278325	-0.227231	0.016199
N326	N	0.315780	-0.245248	0.014737
C327	C	0.133822	-0.226922	0.016209
N328	N	0.114263	-0.244814	0.014750
C329	C	0.232958	-0.136206	0.023589
N330	N	0.252513	-0.118308	0.025040
H331	H	-0.204372	0.748941	-0.483748
H332	H	0.226221	0.857654	-0.223276
H333	H	0.265412	0.124409	0.016709
C334	C	-0.210770	0.754846	-0.621238
N335	N	-0.230127	0.772738	-0.658694
C336	C	0.025387	0.537645	-0.367976
N337	N	0.006579	0.556971	-0.349168
C338	C	-0.112657	0.664106	-0.431349
N339	N	-0.093311	0.646185	-0.393878
H340	H	0.031876	0.530980	-0.498970
H341	H	0.101689	0.449337	-0.223258
C342	C	0.169535	0.393544	-0.367979
N343	N	0.207675	0.355943	-0.349173
H344	H	0.265731	0.278979	-0.138494
H345	H	0.226271	0.324818	-0.223536
H346	H	0.226271	0.324817	-0.443675
C347	C	0.134457	0.409704	-0.620624
N348	N	0.115024	0.427669	-0.658078
H349	H	0.265734	0.278987	-0.482870
H350	H	0.101692	0.449348	-0.568514
H351	H	-0.119054	0.670040	-0.568858
H352	H	0.141155	0.403500	-0.138211
C353	C	0.290959	0.212437	0.222603
N354	N	0.252820	0.250039	0.203798
