data_functionalizedCrystal
_audit_creation_method	'MofGen! by Chris Wilmer'
_symmetry_space_group_name_H-M	'P1'
_symmetry_Int_Tables_number	1
_symmetry_cell_setting	triclinic
loop_
_symmetry_equiv_pos_as_xyz
  x,y,z
_cell_length_a	17.699097
_cell_length_b	17.699104
_cell_length_c	14.048226
_cell_angle_alpha	89.992629
_cell_angle_beta	89.989943
_cell_angle_gamma	83.289974
loop_
_atom_site_label
_atom_site_type_symbol
_atom_site_fract_x
_atom_site_fract_y
_atom_site_fract_z
O1	O	1.004079	0.095760	-0.079242
O2	O	1.504079	0.595760	0.420758
O3	O	0.783703	0.108202	-0.079226
O4	O	1.283703	0.608202	0.420774
O5	O	0.900109	-0.008207	-0.079226
O6	O	1.400109	0.491793	0.420774
O7	O	0.887673	0.212168	-0.079242
O8	O	1.387673	0.712168	0.420758
O9	O	0.900095	-0.008214	0.079095
O10	O	1.400095	0.491786	0.579095
O11	O	0.783689	0.108195	0.079095
O12	O	1.283689	0.608195	0.579095
O13	O	1.004065	0.095753	0.079080
O14	O	1.504065	0.595753	0.579080
Zn15	Zn	0.893874	0.101973	0.104224
Zn16	Zn	1.393874	0.601973	0.604224
Zn17	Zn	0.893893	0.101982	-0.104371
Zn18	Zn	1.393893	0.601982	0.395629
O19	O	0.887659	0.212162	0.079079
O20	O	1.387659	0.712162	0.579079
C21	C	0.755499	0.107751	-0.000064
C22	C	1.255499	0.607751	0.499936
C23	C	0.671481	0.106408	-0.000058
C24	C	1.171481	0.606408	0.499942
C25	C	0.155770	0.098182	-0.086397
C26	C	0.655770	0.598182	0.413603
C27	C	0.234714	0.099439	-0.086392
C28	C	0.734714	0.599439	0.413608
C29	C	0.274172	0.100064	-0.000087
C30	C	0.774172	0.600064	0.499913
C31	C	0.234683	0.099426	0.086219
C32	C	0.734683	0.599426	0.586219
C33	C	0.155741	0.098164	0.086213
C34	C	0.655741	0.598164	0.586213
C35	C	0.553048	0.104513	0.086243
C36	C	1.053048	0.604513	0.586243
C37	C	0.631995	0.105777	0.086242
C38	C	1.131995	0.605777	0.586242
C39	C	0.632020	0.105788	-0.086361
C40	C	1.132020	0.605788	0.413639
C41	C	0.553078	0.104526	-0.086367
C42	C	1.053078	0.604526	0.413633
C43	C	0.513597	0.103884	-0.000062
C44	C	1.013597	0.603884	0.499938
C45	C	0.427997	0.102520	-0.000068
C46	C	0.927997	0.602520	0.499932
C47	C	0.359770	0.101433	-0.000080
C48	C	0.859770	0.601433	0.499920
C49	C	0.899653	-0.036407	-0.000065
C50	C	1.399653	0.463593	0.499935
C51	C	0.898308	-0.120425	-0.000065
C52	C	1.398308	0.379575	0.499935
C53	C	0.959052	-0.645293	-0.000096
C54	C	1.459052	-0.145293	0.499904
C55	C	0.960311	-0.566349	-0.000087
C56	C	1.460311	-0.066349	0.499913
C57	C	0.891976	-0.517735	-0.000081
C58	C	1.391976	-0.017735	0.499919
C59	C	0.822378	-0.548068	-0.000072
C60	C	1.322378	-0.048068	0.499928
C61	C	0.821119	-0.627010	-0.000074
C62	C	1.321119	-0.127010	0.499926
C63	C	0.827451	-0.229702	-0.000065
C64	C	1.327451	0.270298	0.499935
C65	C	0.828715	-0.150754	-0.000066
C66	C	1.328715	0.349246	0.499934
C67	C	0.966642	-0.169040	-0.000078
C68	C	1.466642	0.330960	0.499922
C69	C	0.965384	-0.247983	-0.000080
C70	C	1.465384	0.252017	0.499920
C71	C	0.895786	-0.278309	-0.000067
C72	C	1.395786	0.221691	0.499933
C73	C	0.894422	-0.363909	-0.000074
C74	C	1.394422	0.136091	0.499926
C75	C	0.893340	-0.432136	-0.000080
C76	C	1.393340	0.067864	0.499920
C77	C	1.032268	0.096204	-0.000085
C78	C	1.532268	0.596204	0.499915
C79	C	1.116286	0.097546	-0.000097
C80	C	1.616286	0.597546	0.499903
C81	C	0.888114	0.240362	-0.000084
C82	C	1.388114	0.740362	0.499916
C83	C	0.889459	0.324379	-0.000091
C84	C	1.389459	0.824379	0.499909
N85	N	0.893867	0.101966	0.246585
N86	N	1.393867	0.601966	0.746585
N87	N	0.893906	0.101982	-0.246732
N88	N	1.393906	0.601982	0.253268
C89	C	0.945428	0.050442	0.296403
C90	C	1.445428	0.550442	0.796403
C91	C	0.945433	0.050441	0.396061
C92	C	1.445433	0.550441	0.896061
C93	C	0.893881	0.101969	0.445898
C94	C	1.393881	0.601969	0.945898
C95	C	0.842314	0.153496	0.396073
C96	C	1.342314	0.653496	0.896073
C97	C	0.842306	0.153493	0.296417
C98	C	1.342306	0.653493	0.796417
C99	C	0.842336	0.153502	0.603787
C100	C	1.342336	0.653502	1.103787
C101	C	0.842345	0.153507	0.703450
C102	C	1.342345	0.653507	1.203450
C103	C	0.945463	0.050450	0.703431
C104	C	1.445463	0.550450	1.203431
C105	C	0.945455	0.050447	0.603775
C106	C	1.445455	0.550447	1.103775
C107	C	0.893890	0.101975	0.553957
C108	C	1.393890	0.601975	1.053957
H109	H	0.664120	0.106287	0.156526
H110	H	1.164120	0.606287	0.656526
C111	C	0.332073	0.035806	0.186361
C112	C	0.832073	0.535806	0.686361
C113	C	0.278057	0.100114	0.181086
C114	C	0.778057	0.600114	0.681086
H115	H	0.358851	0.036237	0.244927
H116	H	0.858851	0.536237	0.744927
H117	H	0.307126	-0.008797	0.182780
H118	H	0.807126	0.491203	0.682780
H119	H	0.366882	0.036375	0.134959
H120	H	0.866882	0.536375	0.634959
H121	H	0.243245	0.099543	0.232485
H122	H	0.743245	0.599543	0.732485
H123	H	0.303005	0.144729	0.184676
H124	H	0.803005	0.644729	0.684676
H125	H	0.800344	0.195459	0.563229
H126	H	1.300344	0.695459	1.063229
C127	C	1.048421	0.033840	0.184248
C128	C	1.548421	0.533840	0.684248
C129	C	1.002062	-0.006219	0.241601
C130	C	1.502062	0.493781	0.741601
H131	H	1.083376	-0.001150	0.150416
H132	H	1.583376	0.498850	0.650416
H133	H	1.017712	0.064536	0.140337
H134	H	1.517712	0.564536	0.640337
H135	H	1.075625	0.065290	0.223101
H136	H	1.575625	0.565290	0.723101
H137	H	0.974854	-0.037666	0.202748
H138	H	1.474854	0.462334	0.702748
H139	H	1.032775	-0.036929	0.285518
H140	H	1.532775	0.463071	0.785518
H141	H	0.800336	0.195449	0.436657
H142	H	1.300336	0.695449	0.936657
C143	C	1.043974	-0.347381	0.081294
C144	C	1.543974	0.152619	0.581294
C145	C	1.040497	-0.301422	-0.000089
C146	C	1.540497	0.198578	0.499911
H147	H	1.090345	-0.380375	0.081285
H148	H	1.590345	0.119625	0.581285
H149	H	1.041599	-0.316211	0.136495
H150	H	1.541599	0.183789	0.636495
H151	H	1.002341	-0.376737	0.081286
H152	H	1.502341	0.123263	0.581286
H153	H	1.082128	-0.272063	-0.000077
H154	H	1.582128	0.227937	0.499923
H155	H	1.042879	-0.332596	-0.055304
H156	H	1.542879	0.167404	0.444696
H157	H	0.987417	0.008485	0.436622
H158	H	1.487417	0.508485	0.936622
C159	C	1.095518	-0.655431	-0.000100
C160	C	1.595518	-0.155431	0.499900
C161	C	1.034169	-0.698726	-0.000102
C162	C	1.534169	-0.198726	0.499898
H163	H	1.141893	-0.688418	-0.000096
H164	H	1.641893	-0.188418	0.499904
H165	H	1.093146	-0.624256	-0.055306
H166	H	1.593146	-0.124256	0.444694
H167	H	1.093128	-0.624263	0.055115
H168	H	1.593128	-0.124263	0.555115
H169	H	1.036556	-0.729890	-0.055321
H170	H	1.536556	-0.229890	0.444679
H171	H	1.036543	-0.729914	0.055109
H172	H	1.536543	-0.229914	0.555109
C173	C	0.962095	-0.052588	0.815500
C174	C	1.462095	0.447412	1.315500
C175	C	1.002144	-0.006197	0.758182
C176	C	1.502144	0.493803	1.258182
H177	H	0.997090	-0.087559	0.849297
H178	H	1.497090	0.412441	1.349297
H179	H	0.931401	-0.021904	0.859442
H180	H	1.431401	0.478096	1.359442
H181	H	0.930642	-0.079774	0.776628
H182	H	1.430642	0.420226	1.276628
H183	H	1.033593	0.020993	0.797055
H184	H	1.533593	0.520993	1.297055
H185	H	1.032851	-0.036885	0.714234
H186	H	1.532851	0.463115	1.214234
C187	C	0.560962	0.104643	0.256858
C188	C	1.060962	0.604643	0.756858
C189	C	0.509655	0.103820	0.181109
C190	C	1.009655	0.603820	0.681109
H191	H	0.534168	0.104221	0.315426
H192	H	1.034168	0.604221	0.815426
H193	H	0.597599	0.061020	0.253275
H194	H	1.097599	0.561020	0.753275
H195	H	0.585905	0.149257	0.253253
H196	H	1.085905	0.649257	0.753253
H197	H	0.484716	0.059203	0.184710
H198	H	0.984716	0.559203	0.684710
H199	H	0.473004	0.147448	0.184694
H200	H	0.973004	0.647448	0.684694
H201	H	0.123594	0.097654	0.156487
H202	H	0.623594	0.597654	0.656487
H203	H	1.016980	-0.541660	-0.000091
H204	H	1.516980	-0.041660	0.499909
H205	H	0.987436	0.008492	0.563197
H206	H	1.487436	0.508492	1.063197
H207	H	1.023312	-0.144340	-0.000102
H208	H	1.523312	0.355660	0.499898
C209	C	0.692240	-0.140603	-0.000032
C210	C	1.192240	0.359397	0.499968
C211	C	0.753595	-0.097315	-0.000049
C212	C	1.253595	0.402685	0.499951
H213	H	0.645869	-0.107610	-0.000016
H214	H	1.145869	0.392390	0.499984
H215	H	0.694615	-0.171766	-0.055238
H216	H	1.194615	0.328234	0.444762
H217	H	0.694622	-0.171781	0.055182
H218	H	1.194622	0.328219	0.555182
H219	H	0.751217	-0.066141	-0.055267
H220	H	1.251217	0.433859	0.444733
H221	H	0.751219	-0.066138	0.055163
H222	H	1.251219	0.433862	0.555163
C223	C	0.250421	0.164877	-0.233513
C224	C	0.750421	0.664877	0.266487
C225	C	0.278112	0.100140	-0.181256
C226	C	0.778112	0.600140	0.318744
H227	H	0.277216	0.165309	-0.292078
H228	H	0.777216	0.665309	0.207922
H229	H	0.197765	0.164034	-0.245861
H230	H	0.697765	0.664034	0.254139
H231	H	0.257513	0.209193	-0.198044
H232	H	0.757513	0.709193	0.301956
H233	H	0.271015	0.055823	-0.216723
H234	H	0.771015	0.555823	0.283277
H235	H	0.330781	0.100976	-0.168911
H236	H	0.830781	0.600976	0.331089
C237	C	0.746021	-0.307853	-0.081450
C238	C	1.246021	0.192147	0.418550
C239	C	0.750949	-0.263028	-0.000064
C240	C	1.250949	0.236972	0.499936
H241	H	0.698791	-0.328431	-0.081447
H242	H	1.198791	0.171569	0.418553
H243	H	0.749388	-0.277431	-0.136649
H244	H	1.249388	0.222569	0.363351
H245	H	0.786538	-0.348105	-0.081439
H246	H	1.286538	0.151895	0.418561
H247	H	0.710436	-0.222773	-0.000079
H248	H	1.210436	0.277227	0.499921
H249	H	0.747575	-0.293452	0.055149
H250	H	1.247575	0.206548	0.555149
C251	C	0.739341	0.170035	0.815574
C252	C	1.239341	0.670035	1.315574
C253	C	0.785676	0.210138	0.758244
C254	C	1.285676	0.710138	1.258244
H255	H	0.704359	0.204997	0.849407
H256	H	1.204359	0.704997	1.349407
H257	H	0.712173	0.138568	0.776714
H258	H	1.212173	0.638568	1.276714
H259	H	0.770067	0.139351	0.859494
H260	H	1.270067	0.639351	1.359494
H261	H	0.754950	0.240818	0.714318
H262	H	1.254950	0.740818	1.214318
H263	H	0.812846	0.241618	0.797107
H264	H	1.312846	0.741618	1.297107
H265	H	0.123648	0.097678	-0.156676
H266	H	0.623648	0.597678	0.343324
H267	H	0.800319	0.195448	0.255856
H268	H	1.300319	0.695448	0.755856
C269	C	0.763061	-0.418936	-0.000073
C270	C	1.263061	0.081064	0.499927
C271	C	0.747262	-0.494632	-0.000067
C272	C	1.247262	0.005368	0.499933
H273	H	0.716685	-0.385950	-0.000078
H274	H	1.216685	0.114050	0.499922
H275	H	0.791593	-0.409762	0.055131
H276	H	1.291593	0.090238	0.555131
H277	H	0.791609	-0.409759	-0.055289
H278	H	1.291609	0.090241	0.444711
H279	H	0.718718	-0.503812	0.055153
H280	H	1.218718	-0.003812	0.555153
H281	H	0.718718	-0.503810	-0.055277
H282	H	1.218718	-0.003810	0.444723
C283	C	0.684906	-0.601011	-0.000076
C284	C	1.184906	-0.101011	0.499924
C285	C	0.744621	-0.660350	-0.000077
C286	C	1.244621	-0.160350	0.499923
H287	H	0.637678	-0.621594	-0.000082
H288	H	1.137678	-0.121594	0.499918
H289	H	0.688259	-0.570608	0.055131
H290	H	1.188259	-0.070608	0.555131
H291	H	0.688277	-0.570594	-0.055290
H292	H	1.188277	-0.070594	0.444710
H293	H	0.741253	-0.690764	0.055141
H294	H	1.241253	-0.190764	0.555141
H295	H	0.741266	-0.690765	-0.055290
H296	H	1.241266	-0.190765	0.444710
H297	H	0.520955	0.104020	-0.156645
H298	H	1.020955	0.604020	0.343355
H299	H	0.664176	0.106308	-0.156635
H300	H	1.164176	0.606308	0.343365
