data_functionalizedCrystal
_audit_creation_method	'MofGen! by Chris Wilmer'
_symmetry_space_group_name_H-M	'P1'
_symmetry_Int_Tables_number	1
_symmetry_cell_setting	triclinic
loop_
_symmetry_equiv_pos_as_xyz
  x,y,z
_cell_length_a	12.827893
_cell_length_b	16.959454
_cell_length_c	12.827885
_cell_angle_alpha	90.029644
_cell_angle_beta	90.019272
_cell_angle_gamma	90.020046
loop_
_atom_site_label
_atom_site_type_symbol
_atom_site_fract_x
_atom_site_fract_y
_atom_site_fract_z
Zn1	Zn	1.597636	-0.314644	0.590850
Zn2	Zn	2.097636	0.185356	1.090850
Zn3	Zn	1.597515	-0.446843	0.416110
Zn4	Zn	2.097515	0.053157	0.916110
Zn5	Zn	1.422877	-0.314682	0.416123
Zn6	Zn	1.922877	0.185318	0.916123
Zn7	Zn	1.422848	-0.446784	0.590810
Zn8	Zn	1.922848	0.053216	1.090810
O9	O	1.510219	-0.380738	0.503473
O10	O	2.010219	0.119262	1.003473
O11	O	1.743856	-0.332189	0.567681
O12	O	2.243856	0.167811	1.067681
O13	O	1.574311	-0.429352	0.269876
O14	O	2.074311	0.070648	0.769876
O15	O	1.446122	-0.204066	0.439323
O16	O	1.946122	0.295934	0.939323
O17	O	1.743767	-0.429315	0.439301
O18	O	2.243767	0.070685	0.939301
O19	O	1.574516	-0.204038	0.567694
O20	O	2.074516	0.295962	1.067694
O21	O	1.446005	-0.332254	0.269885
O22	O	1.946005	0.167746	0.769885
O23	O	1.276637	-0.332197	0.439285
O24	O	1.776637	0.167803	0.939285
O25	O	1.446072	-0.429215	0.737052
O26	O	1.946072	0.070785	1.237052
O27	O	1.276616	-0.429252	0.567627
O28	O	1.776616	0.070748	1.067627
O29	O	1.574488	-0.332132	0.737081
O30	O	2.074488	0.167868	1.237081
O31	O	1.574283	-0.557446	0.439263
O32	O	2.074283	-0.057446	0.939263
O33	O	1.445956	-0.557403	0.567614
O34	O	1.945956	-0.057403	1.067614
C35	C	1.238709	-0.380723	0.503454
C36	C	1.738709	0.119277	1.003454
C37	C	1.122556	-0.380736	0.503470
C38	C	1.622556	0.119264	1.003470
C39	C	1.510131	-0.586105	0.503456
C40	C	2.010131	-0.086105	1.003456
C41	C	1.510190	-0.673961	0.503483
C42	C	2.010190	-0.173961	1.003483
C43	C	1.070788	-0.428836	0.566880
C44	C	1.570788	0.071164	1.066880
C45	C	0.950738	-0.428850	0.566898
C46	C	1.450738	0.071150	1.066898
C47	C	1.443496	-1.045444	0.570299
C48	C	1.943496	-0.545444	1.070299
C49	C	1.577233	-1.045429	0.436755
C50	C	2.077233	-0.545429	0.936755
C51	C	1.577197	-0.962883	0.436745
C52	C	2.077197	-0.462883	0.936745
C53	C	1.510308	-0.921614	0.503512
C54	C	2.010308	-0.421614	1.003512
C55	C	1.443455	-0.962891	0.570289
C56	C	1.943455	-0.462891	1.070289
C57	C	1.644041	-0.921601	0.369962
C58	C	2.144041	-0.421601	0.869962
C59	C	1.644006	-0.839050	0.369949
C60	C	2.144006	-0.339050	0.869949
C61	C	1.577121	-0.797779	0.436722
C62	C	2.077121	-0.297779	0.936722
C63	C	1.510267	-0.839061	0.503502
C64	C	2.010267	-0.339061	1.003502
C65	C	1.443378	-0.797791	0.570270
C66	C	1.943378	-0.297791	1.070270
C67	C	1.376528	-0.839071	0.637056
C68	C	1.876528	-0.339071	1.137056
C69	C	1.376571	-0.921620	0.637062
C70	C	1.876571	-0.421620	1.137062
C71	C	1.577079	-0.715231	0.436716
C72	C	2.077079	-0.215231	0.936716
C73	C	1.443337	-0.715238	0.570260
C74	C	1.943337	-0.215238	1.070260
C75	C	1.782789	-0.380754	0.503494
C76	C	2.282789	0.119246	1.003494
C77	C	1.898942	-0.380761	0.503503
C78	C	2.398942	0.119239	1.003503
C79	C	1.510290	-0.380662	0.776044
C80	C	2.010290	0.119338	1.276044
C81	C	1.510320	-0.380630	0.892197
C82	C	2.010320	0.119370	1.392197
C83	C	1.510335	-0.174570	0.503514
C84	C	2.010335	0.325430	1.003514
C85	C	1.510385	-0.086714	0.503532
C86	C	2.010385	0.413286	1.003532
C87	C	1.510208	-0.380757	0.231964
C88	C	2.010208	0.119243	0.731964
C89	C	1.510380	-0.380567	0.115811
C90	C	2.010380	0.119433	0.615811
C91	C	1.573871	-0.332581	0.943996
C92	C	2.073871	0.167419	1.443996
C93	C	1.573904	-0.332546	1.064046
C94	C	2.073904	0.167454	1.564046
H95	H	1.115345	-0.470004	0.621157
H96	H	1.615345	0.029996	1.121157
H97	H	1.698490	-0.955208	0.315596
H98	H	2.198490	-0.455208	0.815596
F99	F	0.892552	-0.482683	0.637853
F100	F	1.392552	0.017317	1.137853
H101	H	1.322144	-0.955238	0.691435
H102	H	1.822144	-0.455238	1.191435
H103	H	1.628252	-0.291467	0.899466
H104	H	2.128252	0.208533	1.399466
H105	H	1.628316	-0.291412	1.108592
H106	H	2.128316	0.208588	1.608592
H107	H	1.455930	-0.421736	0.936727
H108	H	1.955930	0.078264	1.436727
F109	F	1.715159	-0.795124	0.298876
F110	F	2.215159	-0.295124	0.798876
F111	F	0.957121	-0.326934	0.432534
F112	F	1.457121	0.173066	0.932534
H113	H	1.389071	-1.079058	0.624678
H114	H	1.889071	-0.579058	1.124678
H115	H	1.077999	-0.339562	0.449200
H116	H	1.577999	0.160438	0.949200
H117	H	1.631685	-1.079036	0.382389
H118	H	2.131685	-0.579036	0.882389
F119	F	1.372148	-0.671322	0.641330
F120	F	1.872148	-0.171322	1.141330
F121	F	1.439264	-0.434344	1.057597
F122	F	1.939264	0.065656	1.557597
F123	F	1.305338	-0.795140	0.708108
F124	F	1.805338	-0.295140	1.208108
F125	F	1.648210	-0.671301	0.365632
F126	F	2.148210	-0.171301	0.865632
