data_functionalizedCrystal
_audit_creation_method	'MofGen! by Chris Wilmer'
_symmetry_space_group_name_H-M	'P1'
_symmetry_Int_Tables_number	1
_symmetry_cell_setting	triclinic
loop_
_symmetry_equiv_pos_as_xyz
  x,y,z
_cell_length_a	23.196402
_cell_length_b	15.698487
_cell_length_c	23.196401
_cell_angle_alpha	60.008297
_cell_angle_beta	90.011712
_cell_angle_gamma	59.999178
loop_
_atom_site_label
_atom_site_type_symbol
_atom_site_fract_x
_atom_site_fract_y
_atom_site_fract_z
Zr1	Zr	0.555343	0.932412	-0.075659
O2	O	0.463271	1.110123	-0.167705
O3	O	0.583568	0.754702	-0.047444
O4	O	0.583539	0.932415	-0.167712
O5	O	0.463322	0.932407	0.047434
O6	O	0.678409	0.932417	-0.167715
O7	O	0.463299	0.932410	-0.047437
O8	O	0.678461	0.614520	0.047422
O9	O	0.463270	1.250304	-0.167703
O10	O	0.666406	0.827798	-0.035411
O11	O	0.595623	0.827795	0.035393
O12	O	0.595589	1.037030	-0.106207
O13	O	0.524805	1.037026	-0.035403
Zr14	Zr	0.706686	0.932412	0.075644
Zr15	Zr	0.706650	0.932416	-0.075665
Zr16	Zr	0.555379	0.932409	0.075649
Zr17	Zr	0.555343	1.155985	-0.075656
Zr18	Zr	0.706686	0.708839	0.075641
O19	O	0.678460	1.110123	0.047429
O20	O	0.678409	1.110128	-0.167713
O21	O	0.463322	1.110118	0.047437
O22	O	0.798758	0.754702	0.167690
O23	O	0.798707	0.754707	-0.047452
O24	O	0.583620	0.754697	0.167697
O25	O	0.798706	0.932417	-0.047449
O26	O	0.678489	0.932410	0.167697
O27	O	0.583619	0.932407	0.167700
O28	O	0.798729	0.932415	0.047422
O29	O	0.583539	1.250307	-0.167707
O30	O	0.678490	0.614518	0.167692
O31	O	0.798758	0.614520	0.167688
O32	O	0.798729	0.614523	0.047417
O33	O	0.463299	1.250302	-0.047433
O34	O	0.583568	1.250304	-0.047437
O35	O	0.666440	0.827795	0.106192
O36	O	0.737223	0.827798	0.035388
O37	O	0.666406	1.037030	-0.035408
O38	O	0.595623	1.037026	0.035396
C39	C	0.631015	0.652757	-0.000012
C40	C	0.631015	0.557844	-0.000013
C41	C	0.441753	0.932408	-0.000001
C42	C	0.377519	0.932407	0.000001
C43	C	0.384310	0.823193	0.036949
C44	C	0.323956	0.823192	0.036952
C45	C	0.256811	0.932410	-0.000007
C46	C	0.250023	1.041637	-0.036956
C47	C	0.310377	1.041636	-0.036952
C48	C	0.132867	1.016086	-0.061916
C49	C	0.072515	1.016083	-0.061922
C50	C	0.070657	0.932419	-0.000018
C51	C	0.129164	0.848737	0.061892
C52	C	0.189519	0.848735	0.061896
C53	C	0.191363	0.932423	-0.000015
C54	C	0.012007	0.823196	0.036937
C55	C	-0.048350	0.823199	0.036942
C56	C	-0.122283	1.041648	-0.036973
C57	C	-0.061926	1.041642	-0.036971
C58	C	0.005217	0.932413	-0.000018
C59	C	0.631013	0.384061	-0.000001
C60	C	0.631012	0.480766	-0.000006
C61	C	0.820276	0.932417	-0.000014
C62	C	0.884509	0.932418	-0.000016
C63	C	0.630969	0.932417	-0.189272
C64	C	0.630954	0.932418	-0.253507
C65	C	0.631014	1.212068	-0.000003
C66	C	0.631014	1.306981	-0.000002
C67	C	0.593991	1.041631	-0.320634
C68	C	0.594009	1.041633	-0.380990
C69	C	0.630980	0.932415	-0.374213
C70	C	0.667951	0.823187	-0.307073
C71	C	0.667937	0.823189	-0.246720
C72	C	0.625730	0.848738	-0.441531
C73	C	0.625738	0.848741	-0.501885
C74	C	0.631025	0.932406	-0.560361
C75	C	0.636289	1.016088	-0.558482
C76	C	0.636275	1.016089	-0.498129
C77	C	0.630999	0.932401	-0.439652
C78	C	0.594080	1.041628	-0.692935
C79	C	0.594103	1.041626	-0.753290
C80	C	0.668040	0.823177	-0.679371
C81	C	0.668021	0.823183	-0.619018
C82	C	0.631038	0.932412	-0.625805
C83	C	0.631060	0.932408	0.189257
C84	C	0.631075	0.932407	0.253491
C85	C	0.820276	0.652761	-0.000018
C86	C	0.884510	0.557850	-0.000022
C87	C	0.631060	0.652752	0.189252
C88	C	0.631075	0.557838	0.253486
C89	C	0.820321	0.652757	0.189246
C90	C	0.884570	0.557844	0.253477
C91	C	0.441707	1.212068	-0.189261
C92	C	0.377458	1.306981	-0.253492
C93	C	0.441753	1.212064	0.000003
C94	C	0.377519	1.306975	0.000007
C95	C	0.630969	1.212072	-0.189268
C96	C	0.630953	1.306986	-0.253501
C97	C	0.877709	0.513279	-0.036987
C98	C	0.938057	0.424112	-0.037004
C99	C	1.005206	0.379512	-0.000053
C100	C	1.012006	0.424092	0.036913
C101	C	0.951658	0.513263	0.036926
C102	C	0.668048	0.513266	0.320613
C103	C	0.668060	0.424096	0.380973
C104	C	0.631103	0.379495	0.374203
C105	C	0.594125	0.424076	0.307069
C106	C	0.594109	0.513250	0.246711
C107	C	0.951697	0.513274	0.246681
C108	C	1.012072	0.424106	0.307027
C109	C	1.005318	0.379503	0.374168
C110	C	0.938184	0.424083	0.380962
C111	C	0.877811	0.513255	0.320617
C112	C	0.310332	1.351562	-0.246697
C113	C	0.249957	1.440757	-0.307043
C114	C	0.256711	1.485364	-0.374183
C115	C	0.323844	1.440780	-0.380977
C116	C	0.384217	1.351592	-0.320632
C117	C	0.384320	1.351555	0.036965
C118	C	0.323971	1.440747	0.036966
C119	C	0.256822	1.485350	0.000013
C120	C	0.250023	1.440766	-0.036950
C121	C	0.310371	1.351582	-0.036955
C122	C	0.667918	1.351559	-0.246709
C123	C	0.667917	1.440729	-0.307057
C124	C	0.630947	1.485331	-0.374196
C125	C	0.593981	1.440749	-0.380987
C126	C	0.593987	1.351575	-0.320639
H127	H	0.438977	0.734250	0.067035
O128	O	0.331125	1.488887	-0.453395
H129	H	0.277862	1.558382	-0.494209
H130	H	0.304823	1.315287	-0.067049
H131	H	0.698018	1.477018	-0.301514
H132	H	-0.067459	1.130575	-0.067063
H133	H	0.237152	0.780604	0.112306
O134	O	0.959004	0.561311	0.076809
H135	H	0.905764	0.630814	0.070615
O136	O	0.134859	1.106345	-0.128689
H137	H	0.186651	1.092299	-0.118285
O138	O	0.707805	1.303459	-0.174301
H139	H	0.670507	1.320582	-0.145030
H140	H	0.438991	1.315246	0.067062
O141	O	0.641992	1.106329	-0.621549
H142	H	0.596811	1.198941	-0.641316
H143	H	0.630949	1.557943	-0.423329
O144	O	0.620055	0.758448	-0.378462
H145	H	0.667515	0.701948	-0.331851
O146	O	0.456616	1.303543	-0.327971
H147	H	0.497470	1.234047	-0.274735
O148	O	0.554099	1.488871	-0.453403
H149	H	0.560302	1.558379	-0.494219
O150	O	0.554135	1.159431	-0.453404
H151	H	0.528412	1.235383	-0.447983
H152	H	0.563882	1.315293	-0.326179
H153	H	0.127662	0.780590	0.112297
O154	O	0.009413	1.106336	-0.128691
H155	H	0.020837	1.164531	-0.171733
H156	H	0.195349	1.130563	-0.067048
O157	O	0.191744	1.581527	0.000039
H158	H	0.159854	1.662810	-0.054986
H159	H	0.698144	0.549570	0.326138
H160	H	1.054483	0.306893	0.423299
H161	H	1.054340	0.306902	-0.000069
O162	O	0.620158	0.758343	-0.503820
H163	H	0.569958	0.770577	-0.496398
H164	H	0.329485	0.734254	0.067040
O165	O	0.930904	0.375955	0.453380
H166	H	0.984166	0.306448	0.494194
O167	O	-0.041019	0.705391	0.076795
H168	H	-0.066729	0.700147	0.117652
H169	H	0.698174	0.387809	0.435630
O170	O	0.707824	0.705383	-0.299757
H171	H	0.701617	0.723729	-0.353002
O172	O	0.084429	0.705393	0.076800
H173	H	0.079010	0.629447	0.102504
H174	H	-0.176952	1.130575	-0.067066
O175	O	0.554193	1.159437	-0.700252
H176	H	0.560383	1.141091	-0.647006
H177	H	0.304842	1.130573	-0.067038
H178	H	0.631121	0.306884	0.423357
O179	O	0.303031	1.303471	-0.174287
H180	H	0.328753	1.205101	-0.145026
O181	O	0.554106	1.159437	-0.327950
H182	H	0.528410	1.235381	-0.384773
O183	O	0.331319	1.488803	0.076846
H184	H	0.278079	1.558321	0.070641
H185	H	0.640563	1.084224	-0.496603
O186	O	0.930709	0.376042	-0.076876
H187	H	0.983950	0.306555	-0.070690
H188	H	0.195342	1.477095	-0.067037
H189	H	1.066687	0.387766	0.066997
H190	H	0.564035	0.387749	0.301568
O191	O	0.805410	0.561300	0.327949
H192	H	0.810864	0.515283	0.384776
O193	O	0.554234	1.159425	-0.825698
H194	H	0.528512	1.235373	-0.820273
O195	O	0.554301	0.561130	0.174334
H196	H	0.497493	0.601714	0.168157
H197	H	1.066729	0.387818	0.301483
H198	H	0.698117	0.734249	-0.564359
O199	O	0.707929	0.705360	-0.672037
H200	H	0.670634	0.700103	-0.697770
O201	O	0.707798	0.705391	-0.174311
H202	H	0.733508	0.629441	-0.179734
O203	O	0.177557	1.488807	-0.299701
H204	H	0.171433	1.529400	-0.270373
O205	O	0.805287	0.561385	-0.076851
H206	H	0.810708	0.515413	-0.102563
H207	H	0.207545	1.557987	-0.423315
H208	H	0.957209	0.549576	0.192017
