data_functionalizedCrystal
_audit_creation_method	'MofGen! by Chris Wilmer'
_symmetry_space_group_name_H-M	'P1'
_symmetry_Int_Tables_number	1
_symmetry_cell_setting	triclinic
loop_
_symmetry_equiv_pos_as_xyz
  x,y,z
_cell_length_a	11.792241
_cell_length_b	14.519731
_cell_length_c	10.868271
_cell_angle_alpha	89.993880
_cell_angle_beta	89.999893
_cell_angle_gamma	83.941135
loop_
_atom_site_label
_atom_site_type_symbol
_atom_site_fract_x
_atom_site_fract_y
_atom_site_fract_z
O1	O	1.506220	0.126403	-0.102206
O2	O	2.006220	0.626403	0.397794
O3	O	1.175807	0.139430	-0.102235
O4	O	1.675807	0.639430	0.397765
O5	O	1.349761	-0.001288	-0.102208
O6	O	1.849761	0.498712	0.397792
O7	O	1.332266	0.267122	-0.102232
O8	O	1.832266	0.767122	0.397768
O9	O	1.349747	-0.001294	0.102436
O10	O	1.849747	0.498706	0.602436
O11	O	1.175793	0.139425	0.102410
O12	O	1.675793	0.639425	0.602410
O13	O	1.506205	0.126398	0.102439
O14	O	2.006205	0.626398	0.602439
Zn15	Zn	1.340997	0.132910	0.134916
Zn16	Zn	1.840997	0.632910	0.634916
Zn17	Zn	1.341016	0.132918	-0.134712
Zn18	Zn	1.841016	0.632918	0.365288
O19	O	1.332251	0.267116	0.102412
O20	O	1.832251	0.767116	0.602412
C21	C	1.133514	0.138609	0.000084
C22	C	1.633514	0.638609	0.500084
C23	C	1.007513	0.136160	0.000073
C24	C	1.507513	0.636160	0.500073
C25	C	1.348934	-0.035654	0.000114
C26	C	1.848934	0.464346	0.500114
C27	C	1.346478	-0.138043	0.000115
C28	C	1.846478	0.361957	0.500115
C29	C	0.776826	0.131656	0.000109
C30	C	1.276826	0.631656	0.500109
C31	C	0.905197	0.134159	0.000089
C32	C	1.405197	0.634159	0.500089
C33	C	1.344482	-0.221194	0.000112
C34	C	1.844482	0.278806	0.500112
C35	C	1.341988	-0.325512	0.000102
C36	C	1.841988	0.174488	0.500102
C37	C	1.340008	-0.408658	0.000094
C38	C	1.840008	0.091342	0.500094
C39	C	1.337514	-0.512983	0.000087
C40	C	1.837514	-0.012983	0.500087
C41	C	1.548499	0.127219	0.000117
C42	C	2.048499	0.627219	0.500117
C43	C	1.674499	0.129668	0.000120
C44	C	2.174499	0.629668	0.500120
C45	C	1.333078	0.301482	0.000087
C46	C	1.833078	0.801482	0.500087
C47	C	1.335535	0.403871	0.000079
C48	C	1.835535	0.903871	0.500079
N49	N	1.340992	0.132905	0.318930
N50	N	1.840992	0.632905	0.818930
N51	N	1.341029	0.132916	-0.318726
N52	N	1.841029	0.632916	0.181274
C53	C	1.341010	0.132916	0.569936
C54	C	1.841010	0.632916	1.069936
C55	C	1.340996	0.132912	0.430259
C56	C	1.840996	0.632912	0.930259
