data_functionalizedCrystal
_audit_creation_method	'MofGen! by Chris Wilmer'
_symmetry_space_group_name_H-M	'P1'
_symmetry_Int_Tables_number	1
_symmetry_cell_setting	triclinic
loop_
_symmetry_equiv_pos_as_xyz
  x,y,z
_cell_length_a	12.645331
_cell_length_b	12.827892
_cell_length_c	12.827885
_cell_angle_alpha	90.029786
_cell_angle_beta	89.978553
_cell_angle_gamma	89.985629
loop_
_atom_site_label
_atom_site_type_symbol
_atom_site_fract_x
_atom_site_fract_y
_atom_site_fract_z
Zn1	Zn	1.620735	0.416011	-0.590909
Zn2	Zn	1.620628	0.590788	-0.416170
Zn3	Zn	1.443454	0.416059	-0.416176
Zn4	Zn	1.443439	0.590707	-0.590863
O5	O	1.532064	0.503391	-0.503530
O6	O	1.769068	0.439209	-0.567746
O7	O	1.597087	0.567664	-0.269934
O8	O	1.467022	0.269816	-0.439377
O9	O	1.768989	0.567617	-0.439366
O10	O	1.597270	0.269781	-0.567753
O11	O	1.466918	0.439291	-0.269939
O12	O	1.295105	0.439212	-0.439332
O13	O	1.466996	0.567480	-0.737105
O14	O	1.295094	0.567526	-0.567674
O15	O	1.597255	0.439131	-0.737139
O16	O	1.597072	0.737014	-0.439321
O17	O	1.466892	0.736954	-0.567667
C18	C	1.256634	0.503366	-0.503499
C19	C	1.138804	0.503381	-0.503511
C20	C	1.531998	0.774901	-0.503511
C21	C	1.532066	0.891054	-0.503538
C22	C	1.532136	0.503291	-0.776100
C23	C	1.532167	0.503248	-0.892253
C24	C	0.971212	0.422288	-0.423217
C25	C	1.093771	0.422497	-0.422863
C26	C	1.094289	0.613468	-0.473429
C27	C	0.971691	0.613025	-0.472881
C28	C	0.971651	0.475435	-0.614198
C29	C	1.094257	0.472976	-0.613583
C30	C	1.808569	0.503417	-0.503560
C31	C	1.926399	0.503428	-0.503574
C32	C	1.532159	0.230821	-0.503571
C33	C	1.532200	0.114668	-0.503589
C34	C	1.596560	0.942834	-0.440099
C35	C	1.596632	1.062884	-0.440125
C36	C	1.596630	0.439725	-0.944055
C37	C	1.596663	0.439679	-1.064105
C38	C	1.532053	0.503416	-0.232020
C39	C	1.532228	0.503164	-0.115867
H40	H	1.123868	0.340864	-0.441718
H41	H	1.476909	0.935601	-0.557875
Cl42	Cl	1.681880	1.131628	-0.356260
H43	H	1.476977	1.070147	-0.557901
H44	H	1.651791	0.385370	-0.899527
Cl45	Cl	1.681882	0.355714	-1.132878
H46	H	0.942673	0.534535	-0.674070
H47	H	1.123052	0.441000	-0.340886
Cl48	Cl	1.447018	0.587144	-1.047101
H49	H	1.476995	0.557592	-0.936781
H50	H	0.941744	0.340409	-0.441870
H51	H	0.940366	0.440585	-0.341722
H52	H	0.943048	0.636763	-0.392009
Cl53	Cl	0.925918	0.709528	-0.559294
Cl54	Cl	1.139311	0.709305	-0.560961
Cl55	Cl	1.141615	0.650749	-0.349908
Cl56	Cl	1.681737	0.874067	-0.356216
Cl57	Cl	0.923950	0.353656	-0.656434
H58	H	1.123357	0.391965	-0.636266
H59	H	1.124916	0.527763	-0.676657
