data_functionalizedCrystal
_audit_creation_method	'MofGen! by Chris Wilmer'
_symmetry_space_group_name_H-M	'P1'
_symmetry_Int_Tables_number	1
_symmetry_cell_setting	triclinic
loop_
_symmetry_equiv_pos_as_xyz
  x,y,z
_cell_length_a	19.188925
_cell_length_b	19.188922
_cell_length_c	18.266242
_cell_angle_alpha	90.008854
_cell_angle_beta	89.990012
_cell_angle_gamma	96.858179
loop_
_atom_site_label
_atom_site_type_symbol
_atom_site_fract_x
_atom_site_fract_y
_atom_site_fract_z
O1	O	0.926149	-0.087151	-0.060901
O2	O	0.722837	-0.098889	-0.060899
O3	O	0.830363	0.008636	-0.060891
O4	O	0.818622	-0.194676	-0.060909
O5	O	0.830345	0.008642	0.060871
O6	O	0.722818	-0.098884	0.060863
O7	O	0.926131	-0.087145	0.060861
Zn8	Zn	0.824472	-0.093014	0.080194
Zn9	Zn	0.824496	-0.093021	-0.080232
O10	O	0.818604	-0.194671	0.060853
C11	C	0.696816	-0.098507	-0.000018
C12	C	0.619312	-0.097368	-0.000017
C13	C	0.057540	-0.152832	-0.000024
C14	C	0.130363	-0.153909	-0.000028
C15	C	0.175299	-0.090816	-0.000021
C16	C	0.147407	-0.026642	-0.000028
C17	C	0.074585	-0.025568	-0.000032
N18	N	0.295972	-0.045138	0.041432
N19	N	0.365149	-0.046163	0.041437
C20	C	0.394709	-0.094050	-0.000012
N21	N	0.352476	-0.140884	-0.041457
N22	N	0.283292	-0.139861	-0.041459
C23	C	0.254264	-0.091974	-0.000018
C24	C	0.501555	-0.159387	-0.000014
C25	C	0.574380	-0.160461	-0.000023
C26	C	0.591424	-0.033193	-0.000016
C27	C	0.518600	-0.032121	-0.000015
C28	C	0.473670	-0.095220	-0.000011
C29	C	0.829975	0.034650	-0.000009
C30	C	0.828837	0.112155	-0.000006
C31	C	0.828315	0.148551	-0.066378
C32	C	0.827236	0.221374	-0.066383
C33	C	0.826692	0.257799	-0.000012
C34	C	0.827210	0.221394	0.066369
C35	C	0.828282	0.148572	0.066372
N36	N	0.864734	0.377466	0.049387
N37	N	0.863716	0.446644	0.049379
C38	C	0.823460	0.477209	-0.000018
N39	N	0.784267	0.435983	-0.049418
N40	N	0.785288	0.366799	-0.049412
C41	C	0.825529	0.336763	-0.000008
C42	C	0.821767	0.592567	-0.066400
C43	C	0.820683	0.665391	-0.066402
C44	C	0.820664	0.665411	0.066352
C45	C	0.821740	0.592588	0.066352
C46	C	0.822295	0.556171	-0.000026
C47	C	0.952151	-0.087528	-0.000022
C48	C	1.029656	-0.088667	-0.000027
N49	N	0.824460	-0.093008	0.189681
C50	C	0.818994	0.779316	-0.000029
C51	C	0.820138	0.701812	-0.000030
N52	N	0.824512	-0.093021	-0.189719
C53	C	0.872089	-0.045419	0.227994
C54	C	0.872093	-0.045416	0.304639
C55	C	0.824476	-0.093014	0.342968
C56	C	0.776839	-0.140606	0.304646
C57	C	0.776831	-0.140604	0.228003
N58	N	0.815398	-0.154822	0.463295
N59	N	0.815410	-0.154822	0.536103
C60	C	0.824496	-0.093024	0.573891
N61	N	0.833583	-0.031223	0.536120
N62	N	0.833575	-0.031223	0.463305
C63	C	0.824479	-0.093022	0.426075
C64	C	0.872131	-0.045427	0.695310
C65	C	0.872131	-0.045423	0.771957
C66	C	0.776880	-0.140620	0.771963
C67	C	0.776877	-0.140618	0.695318
C68	C	0.824506	-0.093022	0.656996
H69	H	0.183999	0.024728	-0.000025
N70	N	0.453092	-0.227440	-0.000026
H71	H	0.402727	-0.217024	-0.000024
H72	H	0.462092	-0.255414	0.045109
N73	N	0.604449	-0.229676	-0.000019
H74	H	0.634278	-0.232953	0.045117
H75	H	0.634253	-0.232928	-0.045187
N76	N	0.044508	0.043643	-0.000021
H77	H	-0.008442	0.034750	-0.000020
H78	H	0.060963	0.071241	-0.045158
H79	H	0.820216	0.695068	0.120393
H80	H	0.738106	-0.179372	0.803170
H81	H	0.628010	0.018178	-0.000016
H82	H	0.910913	-0.006667	0.803152
H83	H	0.828703	0.118938	0.120422
H84	H	0.820255	0.695023	-0.120453
N85	N	0.725506	-0.191946	0.653989
H86	H	0.695339	-0.222099	0.689898
H87	H	0.752131	-0.222747	0.622173
N88	N	0.488516	0.037085	-0.000009
H89	H	0.504923	0.064715	-0.045143
H90	H	0.504913	0.064663	0.045162
N91	N	0.009080	-0.220886	0.000044
H92	H	0.037800	-0.261698	0.000067
H93	H	-0.021527	-0.223262	-0.045074
H94	H	0.826765	0.251057	0.120409
H95	H	0.828765	0.118904	-0.120429
H96	H	0.910879	-0.006662	0.335839
N97	N	0.822310	0.553328	0.137940
H98	H	0.821803	0.587451	0.179987
H99	H	0.866029	0.528910	0.140830
H100	H	0.738045	-0.179357	0.196808
H101	H	0.153071	-0.206161	-0.000018
H102	H	0.826807	0.251012	-0.120433
H103	H	0.910870	-0.006663	0.196795
H104	H	0.738067	-0.179360	0.335858
N105	N	0.822363	0.553282	-0.137988
H106	H	0.821863	0.587391	-0.180037
H107	H	0.779537	0.517270	-0.140878
H108	H	0.910912	-0.006670	0.664108
