data_functionalizedCrystal
_audit_creation_method	'MofGen! by Chris Wilmer'
_symmetry_space_group_name_H-M	'P1'
_symmetry_Int_Tables_number	1
_symmetry_cell_setting	triclinic
loop_
_symmetry_equiv_pos_as_xyz
  x,y,z
_cell_length_a	19.288840
_cell_length_b	13.330367
_cell_length_c	19.288865
_cell_angle_alpha	89.990328
_cell_angle_beta	83.131131
_cell_angle_gamma	89.984584
loop_
_atom_site_label
_atom_site_type_symbol
_atom_site_fract_x
_atom_site_fract_y
_atom_site_fract_z
O1	O	0.921363	-0.083602	0.086564
O2	O	0.719100	-0.083569	0.098271
O3	O	0.826076	-0.083567	-0.008713
O4	O	0.814387	-0.083605	0.193548
O5	O	0.826059	0.083280	-0.008715
O6	O	0.719083	0.083278	0.098269
O7	O	0.921346	0.083245	0.086562
Cu8	Cu	0.820213	0.098496	0.092416
Cu9	Cu	0.820233	-0.098820	0.092418
O10	O	0.814370	0.083242	0.193547
C11	C	0.693215	-0.000141	0.097896
C12	C	0.616110	-0.000128	0.096774
N13	N	0.820204	0.237277	0.092414
C14	C	0.579916	-0.091078	0.096236
C15	C	0.507469	-0.091091	0.095174
C16	C	0.471221	-0.000147	0.094636
C17	C	0.507424	0.090816	0.095178
C18	C	0.579868	0.090826	0.096247
C19	C	0.361887	0.069523	0.052258
C20	C	0.289444	0.069510	0.051184
C21	C	0.247778	-0.000172	0.091342
C22	C	0.278564	-0.069858	0.132564
C23	C	0.351009	-0.069848	0.133633
C24	C	0.392667	-0.000147	0.093477
C25	C	0.133028	-0.091142	0.089653
C26	C	0.060579	-0.091151	0.088596
C27	C	0.060536	0.090759	0.088593
C28	C	0.132983	0.090764	0.089658
C29	C	0.169225	-0.000189	0.090185
C30	C	0.772856	0.709899	0.139775
C31	C	0.867616	0.709869	0.045061
C32	C	0.867609	0.604851	0.045058
C33	C	0.820225	0.552352	0.092415
C34	C	0.772849	0.604871	0.139775
C35	C	0.914990	0.552324	-0.002296
C36	C	0.914985	0.447299	-0.002299
C37	C	0.867598	0.394798	0.045055
C38	C	0.820218	0.447324	0.092416
C39	C	0.772835	0.394825	0.139773
C40	C	0.725451	0.447348	0.187131
C41	C	0.725461	0.552370	0.187129
C42	C	0.867588	0.289776	0.045057
C43	C	0.772828	0.289797	0.139773
C44	C	0.947232	-0.000186	0.086937
C45	C	1.024336	-0.000206	0.088059
N46	N	0.820239	0.762398	0.092418
C47	C	0.825692	-0.000140	-0.034591
C48	C	0.824563	-0.000131	-0.111694
C49	C	0.887331	-0.000137	-0.156396
C50	C	0.886270	-0.000152	-0.228843
C51	C	0.822438	-0.000143	-0.256585
C52	C	0.759661	-0.000143	-0.211873
C53	C	0.760723	-0.000137	-0.139428
C54	C	0.772252	0.058309	-0.364868
C55	C	0.771192	0.058309	-0.437313
C56	C	0.819158	-0.000164	-0.480030
C57	C	0.868196	-0.058626	-0.450296
C58	C	0.869258	-0.058620	-0.377850
C59	C	0.821278	-0.000149	-0.335139
C60	C	0.880781	-0.000188	-0.603288
C61	C	0.879717	-0.000210	-0.675736
C62	C	0.753106	-0.000191	-0.658764
C63	C	0.754171	-0.000179	-0.586318
C64	C	0.818010	-0.000173	-0.558584
C65	C	0.814755	-0.000186	0.219424
C66	C	0.815884	-0.000202	0.296527
H67	H	0.477994	-0.165156	0.094737
H68	H	0.686874	0.404592	0.225693
O69	O	0.918723	0.766493	-0.006010
H70	H	0.951669	0.712327	-0.038937
O71	O	0.384217	-0.144990	0.178099
H72	H	0.343078	-0.193444	0.205851
H73	H	0.906170	0.247016	0.006501
H74	H	0.953572	0.595072	-0.040849
H75	H	0.939314	-0.000135	-0.133820
H76	H	0.734275	0.752667	0.178331
O77	O	0.674365	0.609017	0.238213
H78	H	0.682339	0.690864	0.230263
H79	H	0.703058	-0.000169	-0.549920
H80	H	0.932763	-0.000188	-0.580706
H81	H	0.937386	-0.000161	-0.265246
O82	O	0.619001	-0.189178	0.096810
H83	H	0.675459	-0.173895	0.097638
O84	O	0.966080	0.390649	-0.053382
H85	H	0.999025	0.444800	-0.086316
H86	H	0.731259	0.105906	-0.461516
H87	H	0.909185	-0.106223	-0.353644
O88	O	0.919933	-0.121708	-0.496356
H89	H	0.910952	-0.111905	-0.551727
H90	H	0.930833	-0.000220	-0.712132
H91	H	0.733190	0.105930	-0.330093
H92	H	0.701132	-0.000188	-0.681351
O93	O	0.690810	-0.000121	-0.241788
H94	H	0.700616	-0.000112	-0.299674
O95	O	0.693018	-0.000112	-0.091210
H96	H	0.662460	-0.068108	-0.101035
O97	O	0.233636	-0.145018	0.175887
H98	H	0.178088	-0.133312	0.168229
H99	H	0.031110	-0.165217	0.088162
O100	O	0.172124	-0.189235	0.090234
H101	H	0.134780	-0.252483	0.089694
H102	H	0.609337	0.164891	0.096686
O103	O	0.021435	0.188853	0.088144
H104	H	-0.035028	0.173569	0.087354
O105	O	0.172027	0.188862	0.090248
H106	H	0.134653	0.252101	0.089698
H107	H	0.395806	0.126271	0.019555
O108	O	0.256238	0.144670	0.006730
H109	H	0.297379	0.193141	-0.021002
O110	O	0.721712	0.233169	0.190842
H111	H	0.750833	0.185287	0.224524
H112	H	0.477906	0.164863	0.094742
