data_functionalizedCrystal
_audit_creation_method	'MofGen! by Chris Wilmer'
_symmetry_space_group_name_H-M	'P1'
_symmetry_Int_Tables_number	1
_symmetry_cell_setting	triclinic
loop_
_symmetry_equiv_pos_as_xyz
  x,y,z
_cell_length_a	17.077404
_cell_length_b	13.897441
_cell_length_c	17.077402
_cell_angle_alpha	90.033015
_cell_angle_beta	89.981731
_cell_angle_gamma	89.977930
loop_
_atom_site_label
_atom_site_type_symbol
_atom_site_fract_x
_atom_site_fract_y
_atom_site_fract_z
Zn1	Zn	1.200072	-0.545399	0.312580
Zn2	Zn	1.533406	-0.212066	0.645913
Zn3	Zn	1.866739	0.121267	0.979246
Zn4	Zn	1.199974	-0.384094	0.443862
Zn5	Zn	1.533308	-0.050761	0.777195
Zn6	Zn	1.866641	0.282573	1.110529
Zn7	Zn	1.068799	-0.384114	0.312604
Zn8	Zn	1.402132	-0.050781	0.645937
Zn9	Zn	1.735466	0.282553	0.979270
Zn10	Zn	1.068772	-0.545343	0.443797
Zn11	Zn	1.402106	-0.212009	0.777130
Zn12	Zn	1.735439	0.121324	1.110464
O13	O	1.134404	-0.464737	0.378211
O14	O	1.467738	-0.131404	0.711544
O15	O	1.801071	0.201929	1.044877
O16	O	1.309906	-0.524017	0.330012
O17	O	1.643240	-0.190684	0.663345
O18	O	1.976573	0.142650	0.996679
O19	O	1.182544	-0.249115	0.426488
O20	O	1.515877	0.084219	0.759821
O21	O	1.849210	0.417552	1.093154
O22	O	1.086265	-0.405541	0.202754
O23	O	1.419598	-0.072207	0.536087
O24	O	1.752932	0.261126	0.869420
O25	O	1.309834	-0.405507	0.426464
O26	O	1.643167	-0.072173	0.759798
O27	O	1.976501	0.261160	1.093131
O28	O	1.182711	-0.524036	0.202736
O29	O	1.516044	-0.190703	0.536069
O30	O	1.849378	0.142630	0.869403
O31	O	1.086170	-0.249130	0.330053
O32	O	1.419503	0.084204	0.663386
O33	O	1.752836	0.417537	0.996719
O34	O	0.958948	-0.405486	0.329989
O35	O	1.292282	-0.072153	0.663323
O36	O	1.625615	0.261181	0.996656
O37	O	1.086219	-0.680332	0.426353
O38	O	1.419553	-0.346999	0.759687
O39	O	1.752886	-0.013665	1.093020
O40	O	0.958929	-0.523940	0.426377
O41	O	1.292262	-0.190607	0.759710
O42	O	1.625595	0.142727	1.093043
O43	O	1.182685	-0.680373	0.329949
O44	O	1.516018	-0.347040	0.663282
O45	O	1.849352	-0.013707	0.996615
O46	O	1.182518	-0.405452	0.553700
O47	O	1.515851	-0.072118	0.887034
O48	O	1.849184	0.261215	1.220367
O49	O	1.086124	-0.523921	0.553652
O50	O	1.419457	-0.190587	0.886986
O51	O	1.752791	0.142746	1.220319
C52	C	0.930457	-0.464710	0.378179
C53	C	1.263790	-0.131376	0.711512
C54	C	1.597123	0.201957	1.044846
C55	C	0.843207	-0.464721	0.378185
C56	C	1.176540	-0.131387	0.711518
C57	C	1.509873	0.201946	1.044851
C58	C	0.467403	-0.526347	0.428512
C59	C	0.800736	-0.193014	0.761845
C60	C	1.134069	0.140319	1.095178
C61	C	0.549383	-0.526333	0.428501
C62	C	0.882716	-0.192999	0.761835
C63	C	1.216050	0.140334	1.095168
C64	C	0.590358	-0.464753	0.378231
C65	C	0.923691	-0.131420	0.711565
C66	C	1.257025	0.201914	1.044898
C67	C	0.549348	-0.403177	0.327974
C68	C	0.882681	-0.069844	0.661307
C69	C	1.216015	0.263490	0.994641
C70	C	0.467369	-0.403187	0.327989
C71	C	0.800702	-0.069854	0.661322
C72	C	1.134036	0.263479	0.994655
C73	C	0.720218	-0.403161	0.327945
C74	C	1.053551	-0.069828	0.661279
C75	C	1.386885	0.263506	0.994612
C76	C	0.802203	-0.403151	0.327929
C77	C	1.135536	-0.069818	0.661263
C78	C	1.468869	0.263515	0.994596
C79	C	0.802232	-0.526306	0.428458
C80	C	1.135565	-0.192973	0.761791
C81	C	1.468899	0.140361	1.095125
C82	C	0.720253	-0.526317	0.428473
C83	C	1.053587	-0.192983	0.761806
C84	C	1.386920	0.140350	1.095140
C85	C	0.679249	-0.464742	0.378214
C86	C	1.012582	-0.131408	0.711547
C87	C	1.345916	0.201925	1.044881
C88	C	1.134460	-0.716331	0.378141
C89	C	1.467793	-0.382997	0.711475
C90	C	1.801127	-0.049664	1.044808
C91	C	1.134484	-0.823545	0.378112
C92	C	1.467817	-0.490211	0.711445
C93	C	1.801151	-0.156878	1.044778
C94	C	1.134505	-1.019840	0.378059
C95	C	1.467839	-0.686507	0.711392
C96	C	1.801172	-0.353173	1.044725
C97	C	1.134491	-0.910607	0.378090
C98	C	1.467824	-0.577274	0.711424
C99	C	1.801158	-0.243941	1.044757
C100	C	1.339149	-0.464766	0.378243
C101	C	1.672482	-0.131433	0.711576
C102	C	2.005815	0.201901	1.044909
C103	C	1.426398	-0.464778	0.378256
C104	C	1.759732	-0.131445	0.711590
C105	C	2.093065	0.201889	1.044923
C106	C	1.134329	-0.464699	0.582158
C107	C	1.467662	-0.131366	0.915492
C108	C	1.800995	0.201968	1.248825
C109	C	1.134368	-0.464715	0.669408
C110	C	1.467701	-0.131381	1.002742
C111	C	1.801035	0.201952	1.336075
C112	C	1.134394	-0.214123	0.378223
C113	C	1.467727	0.119210	0.711556
C114	C	1.801061	0.452544	1.044890
C115	C	1.134522	-0.106910	0.378031
C116	C	1.467856	0.226424	0.711365
C117	C	1.801189	0.559757	1.044698
C118	C	1.134502	-0.464797	0.173466
C119	C	1.467835	-0.131464	0.506800
C120	C	1.801169	0.201869	0.840133
C121	C	1.134543	-0.464823	0.086216
C122	C	1.467877	-0.131489	0.419550
C123	C	1.801210	0.201844	0.752883
C124	C	1.184611	-0.403094	0.710397
C125	C	1.517945	-0.069761	1.043731
C126	C	1.851278	0.263572	1.377064
C127	C	1.184650	-0.403119	0.792378
C128	C	1.517983	-0.069786	1.125711
C129	C	1.851317	0.263548	1.459044
C130	C	1.134440	-0.464760	0.833368
C131	C	1.467774	-0.131426	1.166701
C132	C	1.801107	0.201907	1.500034
C133	C	1.084195	-0.526387	0.792373
C134	C	1.417528	-0.193054	1.125706
C135	C	1.750861	0.140280	1.459040
C136	C	1.084161	-0.526367	0.710394
C137	C	1.417494	-0.193033	1.043727
C138	C	1.750828	0.140300	1.377061
C139	C	1.084267	-0.526424	0.963243
C140	C	1.417601	-0.193090	1.296576
C141	C	1.750934	0.140243	1.629910
C142	C	1.084300	-0.526443	1.045227
C143	C	1.417633	-0.193110	1.378561
C144	C	1.750967	0.140224	1.711894
C145	C	1.184756	-0.403176	1.045227
C146	C	1.518090	-0.069843	1.378560
C147	C	1.851423	0.263491	1.711893
C148	C	1.184723	-0.403155	0.963248
C149	C	1.518056	-0.069822	1.296581
C150	C	1.851389	0.263511	1.629914
C151	C	1.134476	-0.464782	0.922259
C152	C	1.467809	-0.131448	1.255592
C153	C	1.801142	0.201885	1.588925
H154	H	0.686894	-0.576465	0.469404
H155	H	1.020227	-0.243131	0.802737
H156	H	1.353560	0.090202	1.136070
H157	H	0.686835	-0.353022	0.287018
H158	H	1.020168	-0.019689	0.620351
H159	H	1.353501	0.313645	0.953684
C160	C	0.422338	-0.594089	0.483815
C161	C	0.755671	-0.260756	0.817149
C162	C	1.089005	0.072578	1.150482
N163	N	0.388398	-0.645110	0.525475
N164	N	0.721731	-0.311777	0.858808
N165	N	1.055064	0.021556	1.192142
H166	H	0.835622	-0.576445	0.469379
H167	H	1.168955	-0.243112	0.802712
H168	H	1.502288	0.090222	1.136045
C169	C	1.028986	-0.594208	0.918157
C170	C	1.362320	-0.260875	1.251490
C171	C	1.695653	0.072459	1.584824
N172	N	0.987344	-0.645256	0.884198
N173	N	1.320677	-0.311922	1.217531
N174	N	1.654011	0.021411	1.550865
C175	C	1.028890	-0.594155	0.665307
C176	C	1.362223	-0.260821	0.998640
C177	C	1.695556	0.072512	1.331973
N178	N	0.987260	-0.645217	0.631348
N179	N	1.320593	-0.311884	0.964681
N180	N	1.653926	0.021450	1.298014
C181	C	0.594423	-0.335446	0.272670
C182	C	0.927756	-0.002113	0.606004
C183	C	1.261090	0.331221	0.939337
N184	N	0.628373	-0.284435	0.231010
N185	N	0.961706	0.048898	0.564343
N186	N	1.295040	0.382232	0.897676
C187	C	1.239917	-0.335325	0.837462
C188	C	1.573250	-0.001992	1.170795
C189	C	1.906583	0.331342	1.504128
N190	N	1.281545	-0.284258	0.871419
N191	N	1.614878	0.049075	1.204752
N192	N	1.948212	0.382408	1.538085
H193	H	0.582765	-0.576466	0.469426
H194	H	0.916098	-0.243133	0.802759
H195	H	1.249432	0.090201	1.136093
H196	H	0.433984	-0.353054	0.287064
H197	H	0.767318	-0.019721	0.620397
H198	H	1.100651	0.313613	0.953730
H199	H	0.835562	-0.353017	0.286987
H200	H	1.168895	-0.019684	0.620321
H201	H	1.502229	0.313649	0.953654
C202	C	1.239845	-0.335281	0.665316
C203	C	1.573178	-0.001948	0.998649
C204	C	1.906512	0.331386	1.331982
N205	N	1.281451	-0.284204	0.631363
N206	N	1.614784	0.049129	0.964696
N207	N	1.948117	0.382463	1.298029
H208	H	1.225603	-0.352958	0.929874
H209	H	1.558936	-0.019625	1.263207
H210	H	1.892270	0.313709	1.596540
C211	C	1.240035	-0.335394	1.090316
C212	C	1.573369	-0.002061	1.423649
C213	C	1.906702	0.331272	1.756983
N214	N	1.281669	-0.284343	1.124281
N215	N	1.615003	0.048990	1.457614
N216	N	1.948336	0.382324	1.790948
C217	C	1.029075	-0.594261	1.090315
C218	C	1.362409	-0.260928	1.423648
C219	C	1.695742	0.072405	1.756982
N220	N	0.987481	-0.645346	1.124275
N221	N	1.320815	-0.312013	1.457608
N222	N	1.654148	0.021320	1.790941
H223	H	1.043317	-0.576580	0.825753
H224	H	1.376650	-0.243247	1.159087
H225	H	1.709983	0.090086	1.492420
