data_functionalizedCrystal
_audit_creation_method	'MofGen! by Chris Wilmer'
_symmetry_space_group_name_H-M	'P1'
_symmetry_Int_Tables_number	1
_symmetry_cell_setting	triclinic
loop_
_symmetry_equiv_pos_as_xyz
  x,y,z
_cell_length_a	18.426585
_cell_length_b	21.606444
_cell_length_c	21.606444
_cell_angle_alpha	90.001146
_cell_angle_beta	60.004022
_cell_angle_gamma	59.997708
loop_
_atom_site_label
_atom_site_type_symbol
_atom_site_fract_x
_atom_site_fract_y
_atom_site_fract_z
Zr1	Zr	0.794316	0.596243	-0.081181
O2	O	0.945715	0.497416	-0.180001
O3	O	0.642916	0.626540	-0.050891
O4	O	0.794309	0.626539	-0.180003
O5	O	0.794327	0.497416	0.050961
O6	O	0.794304	0.728393	-0.180001
O7	O	0.794322	0.497417	-0.050889
O8	O	0.523490	0.728394	0.050957
O9	O	1.065142	0.497416	-0.179997
O10	O	0.705185	0.715473	-0.037967
O11	O	0.705193	0.639460	0.038041
O12	O	0.883439	0.639460	-0.113972
O13	O	0.883446	0.563447	-0.037964
Zr14	Zr	0.794316	0.758689	0.081261
Zr15	Zr	0.794308	0.758689	-0.081178
Zr16	Zr	0.794324	0.596243	0.081257
Zr17	Zr	0.984787	0.596243	-0.081175
Zr18	Zr	0.603844	0.758690	0.081255
O19	O	0.945715	0.728392	0.050971
O20	O	0.945704	0.728393	-0.179996
O21	O	0.945727	0.497416	0.050966
O22	O	0.642916	0.857516	0.180081
O23	O	0.642905	0.857516	-0.050886
O24	O	0.642928	0.626539	0.180076
O25	O	0.794304	0.857516	-0.050881
O26	O	0.794322	0.728393	0.180083
O27	O	0.794327	0.626539	0.180081
O28	O	0.794309	0.857516	0.050968
O29	O	1.065135	0.626538	-0.179995
O30	O	0.523496	0.728394	0.180074
O31	O	0.523490	0.857517	0.180077
O32	O	0.523483	0.857517	0.050960
O33	O	1.065148	0.497415	-0.050880
O34	O	1.065142	0.626538	-0.050878
O35	O	0.705193	0.715473	0.114052
O36	O	0.705185	0.791485	0.038044
O37	O	0.883439	0.715472	-0.037961
O38	O	0.883446	0.639459	0.038046
C39	C	0.556065	0.677467	0.000032
C40	C	0.475205	0.677467	0.000030
C41	C	0.794326	0.677466	0.203226
C42	C	0.794330	0.677466	0.272185
C43	C	0.794306	0.880661	0.000044
C44	C	0.794302	0.949623	0.000046
C45	C	0.179095	0.677463	0.000052
C46	C	0.261482	0.677462	0.000047
C47	C	0.327148	0.677465	0.000040
C48	C	0.409539	0.677465	0.000037
C49	C	1.032567	0.677465	0.000047
C50	C	1.113427	0.677465	0.000050
C51	C	0.794326	0.474272	0.000035
C52	C	0.794330	0.405309	0.000034
C53	C	0.701256	1.021700	0.039721
C54	C	0.701259	1.086495	0.039717
C55	C	0.794309	1.079211	0.000041
C56	C	0.887362	1.007127	-0.039639
C57	C	0.887358	0.942334	-0.039639
C58	C	0.887380	1.268430	-0.039642
C59	C	0.887376	1.333231	-0.039638
C60	C	0.701281	1.412591	0.039714
C61	C	0.701277	1.347798	0.039714
C62	C	0.794329	1.275719	0.000031
C63	C	0.794325	1.205462	0.000035
C64	C	0.794314	1.149467	0.000041
C65	C	0.794306	0.677466	-0.203146
C66	C	0.794302	0.677466	-0.272106
C67	C	0.887375	0.637789	0.264910
C68	C	0.887372	0.637786	0.329708
C69	C	0.794323	0.677464	0.401779
C70	C	0.701270	0.717142	0.409052
C71	C	0.701274	0.717140	0.344256
C72	C	0.701252	0.717148	0.670370
C73	C	0.701255	0.717148	0.735168
C74	C	0.887351	0.637793	0.655822
C75	C	0.887355	0.637792	0.591026
C76	C	0.794302	0.677466	0.598304
C77	C	0.794307	0.677468	0.528043
C78	C	0.794317	0.677467	0.472039
C79	C	0.556055	0.880662	0.000037
C80	C	0.475191	0.949624	0.000035
C81	C	0.556075	0.677467	0.203218
C82	C	0.475219	0.677467	0.272175
C83	C	0.556065	0.880661	0.203222
C84	C	0.475205	0.949624	0.272181
C85	C	1.032567	0.474271	-0.203143
C86	C	1.113427	0.405308	-0.272101
C87	C	1.032577	0.474270	0.000043
C88	C	1.113440	0.405308	0.000044
C89	C	1.032556	0.677465	-0.203139
C90	C	1.113413	0.677465	-0.272095
C91	C	0.437217	0.942332	-0.039649
C92	C	0.361247	1.007124	-0.039665
C93	C	0.323249	1.079207	0.000008
C94	C	0.361230	1.086498	0.039693
C95	C	0.437204	1.021707	0.039705
C96	C	0.437248	0.717145	0.344242
C97	C	0.361285	0.717142	0.409040
C98	C	0.323289	0.677466	0.401770
C99	C	0.361268	0.637783	0.329696
C100	C	0.437234	0.637782	0.264899
C101	C	0.437228	1.021694	0.264889
C102	C	0.361262	1.086498	0.329677
C103	C	0.323269	1.079230	0.401755
C104	C	0.361253	1.007152	0.409045
C105	C	0.437223	0.942350	0.344258
C106	C	1.151413	0.333238	-0.264810
C107	C	1.227402	0.268434	-0.329597
C108	C	1.265400	0.275702	-0.401675
C109	C	1.227410	0.347780	-0.408966
C110	C	1.151427	0.412582	-0.344179
C111	C	1.151423	0.412600	0.039722
C112	C	1.227413	0.347808	0.039720
C113	C	1.265415	0.275725	0.000045
C114	C	1.227429	0.268435	-0.039638
C115	C	1.151445	0.333226	-0.039640
C116	C	1.151384	0.717149	-0.264801
C117	C	1.227348	0.717164	-0.329587
C118	C	1.265343	0.677489	-0.401667
C119	C	1.227365	0.637804	-0.408959
C120	C	1.151397	0.637794	-0.344174
H121	H	0.625484	1.027640	0.072033
C122	C	0.398568	0.854741	-0.054387
C123	C	0.478978	0.863103	-0.083265
H124	H	0.424350	0.805831	-0.081322
H125	H	0.368939	0.860419	-0.002196
H126	H	0.347892	0.892295	-0.060072
H127	H	0.529651	0.825552	-0.077575
H128	H	0.508623	0.857418	-0.135468
H129	H	0.330281	1.145196	0.071993
H130	H	1.120500	0.471263	-0.350125
C131	C	1.190147	0.517214	-0.391909
C132	C	1.109695	0.594148	-0.352212
H133	H	1.164407	0.490265	-0.396874
H134	H	1.240814	0.511564	-0.440792
H135	H	1.219770	0.497635	-0.364971
H136	H	1.080076	0.613729	-0.379153
H137	H	1.059010	0.599803	-0.303320
H138	H	0.625492	1.145181	0.072013
H139	H	1.120480	0.327306	-0.206126
C140	C	0.517323	1.432755	0.118145
C141	C	0.598994	1.355806	0.083324
H142	H	0.454178	1.437698	0.145061
H143	H	0.521192	1.456375	0.152391
H144	H	0.521203	1.456375	0.080592
H145	H	0.595118	1.332187	0.120877
H146	H	0.595124	1.332176	0.049074
H147	H	0.625507	0.749445	0.467738
C148	C	1.219723	0.196526	-0.244623
C149	C	1.269139	0.189212	-0.321571
H150	H	1.245484	0.147619	-0.239669
H151	H	1.232173	0.223452	-0.220999
H152	H	1.147996	0.223459	-0.221018
H153	H	1.340865	0.162284	-0.345175
H154	H	1.256697	0.162276	-0.345205
H155	H	1.258328	0.353759	0.072037
H156	H	1.327270	0.222930	-0.454423
C157	C	1.159066	0.484531	0.118154
C158	C	1.109663	0.491829	0.083336
H159	H	1.133293	0.533443	0.145076
H160	H	1.146617	0.457608	0.152396
H161	H	1.230793	0.457603	0.080599
H162	H	1.037937	0.518752	0.120892
H163	H	1.122104	0.518764	0.049092
H164	H	0.468175	0.749454	0.350175
C165	C	0.368924	0.795606	0.480946
C166	C	0.319540	0.760773	0.488258
H167	H	0.343147	0.822546	0.529851
H168	H	0.440645	0.758061	0.454025
H169	H	0.356456	0.829845	0.454014
H170	H	0.332014	0.726530	0.515185
H171	H	0.247802	0.798322	0.515191
H172	H	0.625506	0.749447	0.350184
H173	H	1.120460	0.749457	-0.206116
C174	C	1.343880	0.283656	-0.543516
C175	C	1.269175	0.355761	-0.488199
H176	H	1.369655	0.288584	-0.592431
H177	H	1.398413	0.256750	-0.537825
H178	H	1.314228	0.256740	-0.537813
H179	H	1.298829	0.382675	-0.493898
H180	H	1.214633	0.382678	-0.493892
C181	C	0.398490	1.069427	0.160274
C182	C	0.478925	1.029732	0.083342
H183	H	0.424246	1.074382	0.187216
H184	H	0.347819	1.118319	0.165931
H185	H	0.368866	1.042493	0.179853
H186	H	0.508544	1.056669	0.063762
H187	H	0.529614	0.980831	0.077681
C188	C	0.214442	0.634271	0.451409
C189	C	0.239782	0.677474	0.473001
H190	H	0.162892	0.634276	0.495387
H191	H	0.189529	0.655514	0.422107
H192	H	0.273722	0.583717	0.422101
H193	H	0.180503	0.728030	0.502305
H194	H	0.264692	0.656233	0.502316
H195	H	0.625513	1.471287	0.072023
H196	H	0.963153	1.327292	-0.071945
C197	C	0.368893	1.158406	0.244702
C198	C	0.319510	1.165720	0.321651
H199	H	0.343112	1.207313	0.239748
H200	H	0.440614	1.131482	0.221082
H201	H	0.356429	1.131472	0.221094
H202	H	0.331981	1.192649	0.345258
H203	H	0.247773	1.192656	0.345281
C204	C	1.071330	1.196502	-0.118055
C205	C	0.989661	1.189207	-0.083243
H206	H	1.134476	1.147589	-0.144965
H207	H	1.067470	1.223415	-0.152306
H208	H	1.067437	1.223439	-0.080498
H209	H	0.993549	1.162275	-0.120800
H210	H	0.993523	1.162283	-0.048989
H211	H	0.963124	1.001201	-0.071948
C212	C	0.213765	1.033938	-0.032793
C213	C	0.319497	0.999099	-0.083281
H214	H	0.187992	1.028985	-0.059721
H215	H	0.201320	1.010319	0.004753
H216	H	0.180276	1.086141	-0.009182
H217	H	0.352987	0.946895	-0.106889
H218	H	0.331951	1.022715	-0.120841
H219	H	1.258312	0.605502	-0.467655
H220	H	0.963118	0.605485	0.649902
H221	H	0.963125	0.883645	-0.071949
C222	C	0.214445	1.215257	0.451334
C223	C	0.239753	1.150467	0.472965
H224	H	0.162879	1.259237	0.495296
H225	H	0.273723	1.215244	0.422031
H226	H	0.189552	1.215236	0.422016
H227	H	0.264653	1.150486	0.502279
H228	H	0.180463	1.150481	0.502282
C229	C	0.244767	1.071276	0.543595
C230	C	0.319474	0.999172	0.488278
H231	H	0.218967	1.066348	0.592510
H232	H	0.274419	1.098183	0.537908
H233	H	0.190242	1.098191	0.537888
H234	H	0.374003	0.972258	0.493982
H235	H	0.289824	0.972253	0.493968
H236	H	0.963147	0.605481	0.206230
C237	C	0.152354	1.193622	0.074512
C238	C	0.239728	1.150423	-0.000001
H239	H	0.100794	1.237587	0.074505
H240	H	0.127472	1.164303	0.095745
H241	H	0.169542	1.208284	0.103817
H242	H	0.222543	1.135756	-0.029305
H243	H	0.264614	1.179747	-0.021244
H244	H	0.963139	0.605478	0.323778
C245	C	1.374230	0.226143	0.043271
C246	C	1.348930	0.204510	0.000059
H247	H	1.425782	0.182179	0.043286
H248	H	1.399129	0.255449	0.022024
H249	H	1.314938	0.255461	0.093815
H250	H	1.408221	0.175196	-0.050486
H251	H	1.324035	0.175191	0.021304
C252	C	1.034963	0.397288	-0.074875
C253	C	1.109686	0.325203	-0.083246
H254	H	1.009191	0.392329	-0.101801
H255	H	0.980431	0.424206	-0.022683
H256	H	1.064599	0.424210	-0.094478
H257	H	1.080048	0.298283	-0.063638
H258	H	1.164227	0.298273	-0.135449
C259	C	1.071309	0.559342	0.519103
C260	C	0.989637	0.594173	0.511805
H261	H	1.134454	0.532408	0.470194
H262	H	1.067440	0.596887	0.546023
H263	H	1.067428	0.525098	0.546031
H264	H	0.993513	0.628421	0.484881
H265	H	0.993508	0.556623	0.484873
C266	C	0.399867	0.517232	0.282042
C267	C	0.319481	0.594182	0.321720
H268	H	0.374058	0.490320	0.277127
H269	H	0.450533	0.511546	0.233137
H270	H	0.429514	0.497641	0.308962
H271	H	0.289838	0.613775	0.294797
H272	H	0.268796	0.599873	0.370634
C273	C	0.398520	0.623080	0.177342
C274	C	0.478956	0.594175	0.185683
H275	H	0.424278	0.596159	0.128436
H276	H	0.347853	0.617401	0.214894
H277	H	0.368891	0.675281	0.183028
H278	H	0.508581	0.541975	0.180003
H279	H	0.529641	0.599847	0.148121
C280	C	0.429546	0.870447	0.429231
C281	C	0.478950	0.863131	0.352282
H282	H	0.455300	0.821540	0.434186
H283	H	0.442015	0.897363	0.452844
H284	H	0.357817	0.897389	0.452844
H285	H	0.550679	0.836194	0.328669
H286	H	0.466489	0.836203	0.328658
H287	H	0.625479	0.749459	0.793854
H288	H	0.625483	0.749456	0.676307
C289	C	1.312888	0.180810	-0.160184
C290	C	1.269198	0.189197	-0.083240
H291	H	1.338675	0.131889	-0.187097
H292	H	1.262204	0.218343	-0.165866
H293	H	1.367426	0.186497	-0.179773
H294	H	1.214654	0.183515	-0.063649
H295	H	1.319886	0.151653	-0.077553
C296	C	1.219711	0.795584	-0.244610
C297	C	1.269095	0.760779	-0.321559
H298	H	1.245491	0.822504	-0.239654
H299	H	1.147991	0.829829	-0.220990
H300	H	1.232178	0.758020	-0.221003
H301	H	1.256623	0.798344	-0.345165
H302	H	1.340833	0.726531	-0.345189
H303	H	1.327201	0.677503	-0.454413
H304	H	0.468151	1.027626	0.206205
