data_functionalizedCrystal
_audit_creation_method	'MofGen! by Chris Wilmer'
_symmetry_space_group_name_H-M	'P1'
_symmetry_Int_Tables_number	1
_symmetry_cell_setting	triclinic
loop_
_symmetry_equiv_pos_as_xyz
  x,y,z
_cell_length_a	10.908925
_cell_length_b	9.483334
_cell_length_c	10.967971
_cell_angle_alpha	87.497989
_cell_angle_beta	107.313982
_cell_angle_gamma	96.950706
loop_
_atom_site_label
_atom_site_type_symbol
_atom_site_fract_x
_atom_site_fract_y
_atom_site_fract_z
O1	O	-1.675721	0.161285	-0.160803
O2	O	-1.306525	0.138037	-0.068092
O3	O	-1.492554	0.193461	-0.289312
O4	O	-1.489692	0.105860	0.060417
O5	O	-1.530301	-0.037021	-0.334388
O6	O	-1.344272	-0.092445	-0.113168
O7	O	-1.713468	-0.069197	-0.205879
Cu8	Cu	-1.532316	-0.101866	-0.163639
Cu9	Cu	-1.487677	0.170706	-0.110332
O10	O	-1.527439	-0.124622	0.015341
C11	C	-1.277993	0.020622	-0.081966
C12	C	-1.136740	0.014150	-0.056165
C13	C	-0.937003	0.031074	-0.123661
C14	C	-1.082999	0.037743	-0.150335
C15	C	-0.742001	0.048211	-0.192008
C16	C	-0.883258	0.054664	-0.217818
N17	N	-1.563723	-0.293578	-0.201135
C18	C	-1.496925	-0.385787	-0.121389
C19	C	-1.523087	-0.545371	-0.152605
C20	C	-1.508367	0.089262	-0.355919
C21	C	-1.499233	0.122161	-0.487228
N22	N	-1.456280	0.362420	-0.072847
C23	C	-1.514714	0.017433	-0.569127
C24	C	-1.505274	0.051434	-0.704842
C25	C	-1.511625	-0.020419	0.081949
C26	C	-1.520758	-0.053309	0.213260
H27	H	-1.420372	-0.346590	-0.030000
O28	O	-1.614337	-0.591928	-0.261759
C29	C	-1.581627	-0.528232	-0.368148
H30	H	-1.515437	-0.425348	-0.337619
H31	H	-1.529692	-0.603906	-0.407962
C32	C	-1.786761	-0.621777	-0.509319
C33	C	-1.705474	-0.495406	-0.471823
H34	H	-1.863155	-0.601534	-0.573274
H35	H	-1.808798	-0.664695	-0.437643
H36	H	-1.743466	-0.684826	-0.542488
H37	H	-1.748763	-0.432367	-0.438640
H38	H	-1.683448	-0.452477	-0.543496
H39	H	-1.485036	0.166274	-0.735196
H40	H	-1.145065	0.062888	-0.250698
H41	H	-1.074674	-0.010983	0.044202
O42	O	-1.365095	-0.590693	0.036231
C43	C	-1.423406	-0.521659	0.112048
H44	H	-1.516862	-0.483170	0.048956
H45	H	-1.445825	-0.599033	0.187111
C46	C	-1.215790	-0.440992	0.256188
C47	C	-1.330569	-0.393709	0.178695
H48	H	-1.158524	-0.362071	0.297305
H49	H	-1.176504	-0.487507	0.205112
H50	H	-1.234490	-0.505472	0.318730
H51	H	-1.311870	-0.329245	0.116146
H52	H	-1.369851	-0.347181	0.229763
O53	O	-0.957399	0.084823	-0.337460
C54	C	-1.015190	0.209364	-0.334708
H55	H	-1.019993	0.225876	-0.233972
H56	H	-0.955232	0.304377	-0.363965
C57	C	-1.146924	0.174475	-0.551987
C58	C	-1.152833	0.194748	-0.428262
H59	H	-1.231827	0.165464	-0.609699
H60	H	-1.107987	0.090572	-0.553843
H61	H	-1.096953	0.253656	-0.576350
H62	H	-1.202789	0.115560	-0.403895
H63	H	-1.191783	0.278638	-0.426404
H64	H	-1.534964	-0.097399	-0.538771
H65	H	-0.874930	0.005948	-0.023301
O66	O	-1.654968	-0.340141	-0.310283
C67	C	-1.622258	-0.276446	-0.416672
H68	H	-1.556068	-0.173561	-0.386143
H69	H	-1.570322	-0.352119	-0.456486
C70	C	-1.827392	-0.369990	-0.557843
C71	C	-1.746105	-0.243619	-0.520348
H72	H	-1.903785	-0.349747	-0.621798
H73	H	-1.849428	-0.412908	-0.486167
H74	H	-1.784097	-0.433039	-0.591013
H75	H	-1.789394	-0.180581	-0.487164
H76	H	-1.724078	-0.200690	-0.592020
O77	O	-1.544749	-0.190386	-0.750641
C78	C	-1.445805	-0.268199	-0.760246
H79	H	-1.397276	-0.213112	-0.831098
H80	H	-1.371189	-0.274290	-0.662616
C81	C	-1.563677	-0.487041	-0.719887
C82	C	-1.504080	-0.419388	-0.806918
H83	H	-1.599621	-0.580304	-0.748671
H84	H	-1.630336	-0.434618	-0.713411
H85	H	-1.501487	-0.492103	-0.638536
H86	H	-1.566273	-0.414312	-0.888262
H87	H	-1.437433	-0.471815	-0.813409
H88	H	-1.478996	0.236994	-0.517588
