data_functionalizedCrystal
_audit_creation_method	'MofGen! by Chris Wilmer'
_symmetry_space_group_name_H-M	'P1'
_symmetry_Int_Tables_number	1
_symmetry_cell_setting	triclinic
loop_
_symmetry_equiv_pos_as_xyz
  x,y,z
_cell_length_a	12.759401
_cell_length_b	13.031981
_cell_length_c	12.759393
_cell_angle_alpha	82.784016
_cell_angle_beta	89.980804
_cell_angle_gamma	97.192388
loop_
_atom_site_label
_atom_site_type_symbol
_atom_site_fract_x
_atom_site_fract_y
_atom_site_fract_z
Zn1	Zn	1.553150	-0.416060	-0.540807
Zn2	Zn	1.886483	-0.082727	-0.207474
Zn3	Zn	2.219816	0.250606	0.125860
Zn4	Zn	1.530727	-0.590871	-0.342784
Zn5	Zn	1.864061	-0.257537	-0.009451
Zn6	Zn	2.197394	0.075796	0.323882
Zn7	Zn	1.377444	-0.416111	-0.365140
Zn8	Zn	1.710777	-0.082777	-0.031806
Zn9	Zn	2.044110	0.250556	0.301527
Zn10	Zn	1.355135	-0.590796	-0.518435
Zn11	Zn	1.688468	-0.257463	-0.185101
Zn12	Zn	2.021801	0.075870	0.148232
O13	O	1.454114	-0.503460	-0.441791
O14	O	1.787447	-0.170126	-0.108458
O15	O	2.120780	0.163207	0.224875
O16	O	1.697195	-0.439259	-0.514546
O17	O	2.030528	-0.105926	-0.181213
O18	O	2.363862	0.227407	0.152121
O19	O	1.510346	-0.567741	-0.198722
O20	O	1.843680	-0.234407	0.134611
O21	O	2.177013	0.098926	0.467945
O22	O	1.419472	-0.269839	-0.407161
O23	O	1.752805	0.063495	-0.073828
O24	O	2.086138	0.396828	0.259506
O25	O	1.680721	-0.567692	-0.369059
O26	O	2.014055	-0.234359	-0.035726
O27	O	2.347388	0.098975	0.297607
O28	O	1.548562	-0.269802	-0.536223
O29	O	1.881896	0.063532	-0.202890
O30	O	2.215229	0.396865	0.130444
O31	O	1.397729	-0.439345	-0.215146
O32	O	1.731063	-0.106012	0.118187
O33	O	2.064396	0.227321	0.451520
O34	O	1.227465	-0.439273	-0.385468
O35	O	1.560798	-0.105940	-0.052134
O36	O	1.894131	0.227394	0.281199
O37	O	1.381449	-0.567565	-0.668430
O38	O	1.714783	-0.234232	-0.335097
O39	O	2.048116	0.099102	-0.001764
O40	O	1.211074	-0.567614	-0.498093
O41	O	1.544408	-0.234280	-0.164760
O42	O	1.877741	0.099053	0.168574
O43	O	1.526930	-0.439187	-0.684867
O44	O	1.860264	-0.105854	-0.351534
O45	O	2.193597	0.227479	-0.018200
O46	O	1.488714	-0.737126	-0.347366
O47	O	1.822048	-0.403793	-0.014033
O48	O	2.155381	-0.070459	0.319301
O49	O	1.359707	-0.737071	-0.476416
O50	O	1.693041	-0.403738	-0.143082
O51	O	2.026374	-0.070405	0.190251
C52	C	1.181149	-0.503442	-0.441779
C53	C	1.514482	-0.170108	-0.108446
C54	C	1.847815	0.163225	0.224888
C55	C	1.064370	-0.503459	-0.441795
C56	C	1.397703	-0.170126	-0.108462
C57	C	1.731037	0.163208	0.224871
C58	C	1.018071	-0.436705	-0.517638
C59	C	1.351404	-0.103372	-0.184305
C60	C	1.684738	0.229962	0.149028
C61	C	0.908346	-0.436716	-0.517644
C62	C	1.241679	-0.103382	-0.184310
C63	C	1.575012	0.229951	0.149023
C64	C	0.891226	-0.570243	-0.365959
C65	C	1.224560	-0.236910	-0.032626
C66	C	1.557893	0.096423	0.300707
C67	C	1.000951	-0.570227	-0.365950
C68	C	1.334284	-0.236893	-0.032617
C69	C	1.667617	0.096440	0.300717
C70	C	1.419385	-0.775024	-0.407060
C71	C	1.752719	-0.441690	-0.073727
C72	C	2.086052	-0.108357	0.259606
C73	C	1.404624	-0.891200	-0.392237
C74	C	1.737958	-0.557867	-0.058904
C75	C	2.071291	-0.224533	0.274429
C76	C	1.461873	-0.942893	-0.449549
C77	C	1.795207	-0.609560	-0.116215
C78	C	2.128540	-0.276227	0.217118
C79	C	1.446619	-1.062968	-0.434230
C80	C	1.779952	-0.729634	-0.100896
C81	C	2.113285	-0.396301	0.232437
C82	C	1.728145	-0.503478	-0.441805
C83	C	2.061478	-0.170145	-0.108471
C84	C	2.394811	0.163188	0.224862
C85	C	1.844920	-0.503486	-0.441810
C86	C	2.178254	-0.170153	-0.108477
C87	C	2.511587	0.163180	0.224857
C88	C	1.454203	-0.503362	-0.715837
C89	C	1.787536	-0.170029	-0.382504
C90	C	2.120869	0.163304	-0.049171
C91	C	1.454240	-0.503321	-0.832619
C92	C	1.787574	-0.169987	-0.499286
C93	C	2.120907	0.163346	-0.165953
C94	C	1.489007	-0.230835	-0.476681
C95	C	1.822340	0.102498	-0.143348
C96	C	2.155673	0.435832	0.189985
C97	C	1.503876	-0.114658	-0.491549
C98	C	1.837209	0.218675	-0.158216
C99	C	2.170543	0.552008	0.175117
C100	C	1.512918	-0.570099	-0.988675
C101	C	1.846251	-0.236765	-0.655341
C102	C	2.179584	0.096568	-0.322008
C103	C	1.512886	-0.570148	-0.878944
C104	C	1.846219	-0.236815	-0.545611
C105	C	2.179552	0.096519	-0.212277
C106	C	1.395615	-0.436447	-0.896030
C107	C	1.728948	-0.103114	-0.562697
C108	C	2.062281	0.230219	-0.229364
C109	C	1.395641	-0.436404	-1.005758
C110	C	1.728974	-0.103071	-0.672425
C111	C	2.062308	0.230263	-0.339091
C112	C	1.454095	-0.503481	-0.168821
C113	C	1.787429	-0.170148	0.164512
C114	C	2.120762	0.163186	0.497845
C115	C	1.454299	-0.503228	-0.052078
C116	C	1.787632	-0.169895	0.281256
C117	C	2.120965	0.163439	0.614589
H118	H	0.870655	-0.382356	-0.579401
H119	H	1.203988	-0.049023	-0.246068
H120	H	1.537322	0.284310	0.087265
H121	H	1.069705	-0.382335	-0.579393
H122	H	1.403038	-0.049002	-0.246060
H123	H	1.736371	0.284331	0.087273
H124	H	1.347859	-0.382040	-0.858304
H125	H	1.681192	-0.048707	-0.524970
H126	H	2.014526	0.284627	-0.191637
H127	H	1.347902	-0.381948	-1.057383
H128	H	1.681235	-0.048615	-0.724050
H129	H	2.014568	0.284718	-0.390716
H130	H	0.839577	-0.624604	-0.304210
H131	H	1.172911	-0.291271	0.029124
H132	H	1.506244	0.042063	0.362457
H133	H	1.038647	-0.624587	-0.304184
H134	H	1.371981	-0.291253	0.029150
H135	H	1.705314	0.042080	0.362483
H136	H	1.344313	-0.935838	-0.331835
H137	H	1.677646	-0.602505	0.001499
H138	H	2.010980	-0.269171	0.334832
H139	H	1.560679	-0.624512	-1.026384
H140	H	1.894012	-0.291179	-0.693051
H141	H	2.227346	0.042154	-0.359717
H142	H	1.386303	-1.107602	-0.373823
H143	H	1.719636	-0.774268	-0.040490
H144	H	2.052970	-0.440935	0.292844
H145	H	1.522177	-0.898258	-0.509961
H146	H	1.855510	-0.564925	-0.176627
H147	H	2.188843	-0.231591	0.156706
H148	H	1.564183	-1.070026	-0.551965
H149	H	1.897516	-0.736692	-0.218632
H150	H	2.230850	-0.403359	0.114701
H151	H	1.560619	-0.624601	-0.827325
H152	H	1.893952	-0.291267	-0.493992
H153	H	2.227286	0.042066	-0.160659
