data_functionalizedCrystal
_audit_creation_method	'MofGen! by Chris Wilmer'
_symmetry_space_group_name_H-M	'P1'
_symmetry_Int_Tables_number	1
_symmetry_cell_setting	triclinic
loop_
_symmetry_equiv_pos_as_xyz
  x,y,z
_cell_length_a	9.065215
_cell_length_b	14.519709
_cell_length_c	12.996460
_cell_angle_alpha	90.007090
_cell_angle_beta	90.005021
_cell_angle_gamma	84.347421
loop_
_atom_site_label
_atom_site_type_symbol
_atom_site_fract_x
_atom_site_fract_y
_atom_site_fract_z
O1	O	1.957872	0.135216	0.085558
O2	O	1.528379	0.146310	0.085562
O3	O	1.754513	0.006608	0.085551
O4	O	1.731738	0.274918	0.085569
O5	O	1.754489	0.006600	-0.085583
O6	O	1.528355	0.146302	-0.085571
O7	O	1.957848	0.135208	-0.085576
Cu8	Cu	1.743100	0.140754	-0.101200
Cu9	Cu	1.743127	0.140764	0.101186
O10	O	1.731714	0.274910	-0.085564
C11	C	1.473400	0.145241	-0.000004
C12	C	1.309617	0.142054	-0.000002
C13	C	1.753439	-0.027764	-0.000016
C14	C	1.750259	-0.130168	-0.000017
C15	C	1.738550	-0.505150	0.000010
C16	C	1.741801	-0.400818	0.000002
C17	C	1.744404	-0.317662	-0.000005
C18	C	1.747656	-0.213324	-0.000010
C19	C	2.012827	0.136277	-0.000008
C20	C	2.176610	0.139464	-0.000002
C21	C	1.732788	0.309282	0.000005
C22	C	1.735968	0.411686	0.000012
N23	N	1.743091	0.140747	-0.243547
C24	C	1.743125	0.140765	-0.663361
C25	C	1.743111	0.140763	-0.546556
C26	C	1.743109	0.140757	-0.453458
C27	C	1.743093	0.140753	-0.336645
N28	N	1.743148	0.140764	0.243533
