data_functionalizedCrystal
_audit_creation_method	'MofGen! by Chris Wilmer'
_symmetry_space_group_name_H-M	'P1'
_symmetry_Int_Tables_number	1
_symmetry_cell_setting	triclinic
loop_
_symmetry_equiv_pos_as_xyz
  x,y,z
_cell_length_a	16.959455
_cell_length_b	17.639999
_cell_length_c	16.959447
_cell_angle_alpha	101.227701
_cell_angle_beta	89.979626
_cell_angle_gamma	101.198227
loop_
_atom_site_label
_atom_site_type_symbol
_atom_site_fract_x
_atom_site_fract_y
_atom_site_fract_z
Zn1	Zn	1.272027	0.314717	-0.383489
Zn2	Zn	1.605360	0.648050	-0.050155
Zn3	Zn	1.938694	0.981383	0.283178
Zn4	Zn	1.298681	0.446904	-0.224619
Zn5	Zn	1.632014	0.780237	0.108715
Zn6	Zn	1.965347	1.113571	0.442048
Zn7	Zn	1.139860	0.314742	-0.251307
Zn8	Zn	1.473194	0.648075	0.082026
Zn9	Zn	1.806527	0.981408	0.415360
Zn10	Zn	1.166540	0.446845	-0.356755
Zn11	Zn	1.499873	0.780178	-0.023422
Zn12	Zn	1.833206	1.113512	0.309912
O13	O	1.219277	0.380802	-0.304042
O14	O	1.552610	0.714135	0.029291
O15	O	1.885944	1.047468	0.362624
O16	O	1.386176	0.332266	-0.362433
O17	O	1.719510	0.665599	-0.029100
O18	O	2.052843	0.998932	0.304234
O19	O	1.277602	0.429407	-0.117541
O20	O	1.610936	0.762741	0.215792
O21	O	1.944269	1.096074	0.549126
O22	O	1.135073	0.204132	-0.291198
O23	O	1.468406	0.537465	0.042135
O24	O	1.801739	0.870798	0.375468
O25	O	1.405759	0.429383	-0.245712
O26	O	1.739092	0.762716	0.087621
O27	O	2.072426	1.096050	0.420955
O28	O	1.232175	0.204113	-0.388312
O29	O	1.565508	0.537447	-0.054978
O30	O	1.898841	0.870780	0.278355
O31	O	1.160918	0.332308	-0.137149
O32	O	1.494251	0.665642	0.196185
O33	O	1.827584	0.998975	0.529518
O34	O	1.032786	0.332251	-0.265276
O35	O	1.366119	0.665584	0.068057
O36	O	1.699452	0.998918	0.401391
O37	O	1.180543	0.429283	-0.470919
O38	O	1.513877	0.762616	-0.137586
O39	O	1.847210	1.095949	0.195747
O40	O	1.052387	0.429307	-0.342748
O41	O	1.385720	0.762640	-0.009415
O42	O	1.719053	1.095974	0.323918
O43	O	1.258044	0.332209	-0.490560
O44	O	1.591378	0.665542	-0.157227
O45	O	1.924711	0.998875	0.176106
O46	O	1.303472	0.557503	-0.219790
O47	O	1.636805	0.890836	0.113544
O48	O	1.970139	1.224169	0.446877
O49	O	1.206388	0.557459	-0.316870
O50	O	1.539722	0.890793	0.016464
O51	O	1.873055	1.224126	0.349797
C52	C	1.013905	0.380776	-0.304008
C53	C	1.347239	0.714109	0.029326
C54	C	1.680572	1.047443	0.362659
C55	C	0.926050	0.380784	-0.304008
C56	C	1.259384	0.714117	0.029326
C57	C	1.592717	1.047451	0.362659
C58	C	0.564754	0.431321	-0.243250
C59	C	0.898088	0.764654	0.090083
C60	C	1.231421	1.097987	0.423417
C61	C	0.544416	0.330348	-0.364918
C62	C	0.877749	0.663682	-0.031584
C63	C	1.211083	0.997015	0.301749
C64	C	0.626959	0.330335	-0.364901
C65	C	0.960292	0.663669	-0.031568
C66	C	1.293626	0.997002	0.301766
C67	C	0.678404	0.380817	-0.304059
C68	C	1.011737	0.714150	0.029275
C69	C	1.345071	1.047483	0.362608
C70	C	0.647306	0.431311	-0.243233
C71	C	0.980639	0.764644	0.090100
C72	C	1.313973	1.097978	0.423434
C73	C	0.658065	0.279848	-0.425730
C74	C	0.991398	0.613181	-0.092397
C75	C	1.324732	0.946514	0.240937
C76	C	0.740613	0.279833	-0.425717
C77	C	1.073946	0.613167	-0.092383
C78	C	1.407280	0.946500	0.240950
C79	C	0.792059	0.330311	-0.364870
C80	C	1.125392	0.663644	-0.031537
C81	C	1.458725	0.996978	0.301796
C82	C	0.760956	0.380807	-0.304042
C83	C	1.094289	0.714140	0.029292
C84	C	1.427622	1.047473	0.362625
C85	C	0.812401	0.431288	-0.243199
C86	C	1.145734	0.764621	0.090134
C87	C	1.479067	1.097955	0.423468
C88	C	0.781298	0.481780	-0.182366
C89	C	1.114632	0.815114	0.150967
C90	C	1.447965	1.148447	0.484300
C91	C	0.698752	0.481789	-0.182387
C92	C	1.032085	0.815122	0.150947
C93	C	1.365418	1.148455	0.484280
C94	C	0.874605	0.330303	-0.364850
C95	C	1.207939	0.663636	-0.031517
C96	C	1.541272	0.996969	0.301817
C97	C	0.894952	0.431278	-0.243182
C98	C	1.228286	0.764612	0.090151
C99	C	1.561619	1.097945	0.423485
C100	C	1.260739	0.586160	-0.262550
C101	C	1.594072	0.919493	0.070783
C102	C	1.927406	1.252827	0.404117
C103	C	1.278549	0.674013	-0.244826
C104	C	1.611882	1.007347	0.088508
C105	C	1.945216	1.340680	0.421841
C106	C	1.084177	0.962976	-0.438961
C107	C	1.417511	1.296309	-0.105628
C108	C	1.750844	1.629643	0.227706
C109	C	1.100914	1.045528	-0.422281
C110	C	1.434247	1.378861	-0.088948
C111	C	1.767581	1.712194	0.244385
C112	C	1.202070	1.045507	-0.321294
C113	C	1.535403	1.378840	0.012039
C114	C	1.868737	1.712174	0.345373
C115	C	1.185344	0.962954	-0.337968
C116	C	1.518678	1.296287	-0.004635
C117	C	1.852011	1.629621	0.328699
C118	C	1.126397	0.921695	-0.396802
C119	C	1.459730	1.255028	-0.063468
C120	C	1.793063	1.588362	0.269865
C121	C	1.227564	0.921673	-0.295809
C122	C	1.560897	1.255006	0.037525
C123	C	1.894231	1.588340	0.370858
C124	C	1.210836	0.839127	-0.312479
C125	C	1.544170	1.172460	0.020855
C126	C	1.877503	1.505794	0.354188
C127	C	1.151890	0.797862	-0.371308
C128	C	1.485223	1.131196	-0.037975
C129	C	1.818556	1.464529	0.295359
C130	C	1.109669	0.839149	-0.413472
C131	C	1.443003	1.172482	-0.080138
C132	C	1.776336	1.505816	0.253195
C133	C	1.286507	0.962934	-0.236971
C134	C	1.619841	1.296267	0.096362
C135	C	1.953174	1.629600	0.429695
C136	C	1.328727	0.921652	-0.194812
C137	C	1.662060	1.254986	0.138521
C138	C	1.995393	1.588319	0.471855
C139	C	1.312004	0.839105	-0.211486
C140	C	1.645337	1.172438	0.121848
C141	C	1.978670	1.505772	0.455181
C142	C	1.253057	0.797840	-0.270315
C143	C	1.586390	1.131174	0.063018
C144	C	1.919724	1.464507	0.396352
C145	C	1.354224	0.797818	-0.169322
C146	C	1.687557	1.131152	0.164011
C147	C	2.020891	1.464485	0.497345
C148	C	1.337497	0.715272	-0.185992
C149	C	1.670830	1.048606	0.147341
C150	C	2.004163	1.381939	0.480675
C151	C	1.236330	0.715294	-0.286985
C152	C	1.569663	1.048628	0.046348
C153	C	1.902996	1.381961	0.379682
C154	C	1.425450	0.380828	-0.304077
C155	C	1.758784	0.714162	0.029256
C156	C	2.092117	1.047495	0.362589
C157	C	1.513309	0.380839	-0.304092
C158	C	1.846643	0.714173	0.029241
C159	C	2.179976	1.047506	0.362574
C160	C	1.219297	0.380736	-0.510224
C161	C	1.552630	0.714070	-0.176890
C162	C	1.885963	1.047403	0.156443
C163	C	1.219305	0.380708	-0.598086
C164	C	1.552638	0.714042	-0.264753
C165	C	1.885972	1.047375	0.068581
C166	C	1.177650	1.174641	-0.345711
C167	C	1.510983	1.507975	-0.012377
C168	C	1.844316	1.841308	0.320956
C169	C	1.159847	1.086788	-0.363458
C170	C	1.493180	1.420122	-0.030125
C171	C	1.826514	1.753455	0.303209
C172	C	1.179031	0.431167	-0.959355
C173	C	1.512365	0.764500	-0.626022
C174	C	1.845698	1.097834	-0.292688
C175	C	1.259734	0.330083	-0.979802
C176	C	1.593067	0.663416	-0.646469
C177	C	1.926401	0.996750	-0.313136
C178	C	1.259716	0.330100	-0.897253
C179	C	1.593050	0.663433	-0.563920
C180	C	1.926383	0.996766	-0.230586
C181	C	1.219356	0.380652	-0.845751
C182	C	1.552690	0.713985	-0.512417
C183	C	1.886023	1.047318	-0.179084
C184	C	1.179014	0.431187	-0.876798
C185	C	1.512348	0.764520	-0.543464
C186	C	1.845681	1.097854	-0.210131
C187	C	1.300064	0.279571	-0.866199
C188	C	1.633398	0.612904	-0.532865
C189	C	1.966731	0.946238	-0.199532
C190	C	1.300049	0.279586	-0.783645
C191	C	1.633382	0.612920	-0.450311
C192	C	1.966716	0.946253	-0.116978
C193	C	1.259684	0.330135	-0.732141
C194	C	1.593017	0.663468	-0.398808
C195	C	1.926351	0.996802	-0.065475
C196	C	1.219340	0.380672	-0.763193
C197	C	1.552673	0.714005	-0.429860
C198	C	1.886006	1.047338	-0.096526
C199	C	1.178980	0.431224	-0.711691
C200	C	1.512313	0.764557	-0.378357
C201	C	1.845646	1.097890	-0.045024
C202	C	1.138630	0.481757	-0.742741
C203	C	1.471963	0.815090	-0.409408
C204	C	1.805297	1.148424	-0.076075
C205	C	1.138649	0.481736	-0.825294
C206	C	1.471983	0.815069	-0.491961
C207	C	1.805316	1.148402	-0.158628
C208	C	1.259665	0.330156	-0.649589
C209	C	1.592998	0.663490	-0.316255
C210	C	1.926331	0.996823	0.017078
C211	C	1.178963	0.431244	-0.629133
C212	C	1.512296	0.764577	-0.295800
C213	C	1.845629	1.097910	0.037534
C214	C	1.219291	0.380810	-0.098674
C215	C	1.552625	0.714143	0.234659
C216	C	1.885958	1.047477	0.567992
C217	C	1.219391	0.380615	-0.010858
C218	C	1.552724	0.713948	0.322476
C219	C	1.886058	1.047282	0.655809
H220	H	0.765929	0.238719	-0.475250
H221	H	1.099262	0.572052	-0.141917
H222	H	1.432595	0.905386	0.191417
H223	H	1.300127	1.030148	-0.223403
H224	H	1.633460	1.363481	0.109931
H225	H	1.966793	1.696814	0.443264
H226	H	1.332904	0.238439	-0.758371
H227	H	1.666237	0.571772	-0.425037
H228	H	1.999570	0.905105	-0.091704
H229	H	1.250063	1.079112	-0.273389
H230	H	1.583396	1.412445	0.059944
H231	H	1.916730	1.745778	0.393277
H232	H	1.292520	0.289015	-0.624310
H233	H	1.625853	0.622349	-0.290977
H234	H	1.959186	0.955682	0.042357
F235	F	0.907705	0.276573	-0.429591
F236	F	1.241038	0.609906	-0.096257
F237	F	1.574371	0.943240	0.237076
H238	H	1.061674	0.805554	-0.461386
H239	H	1.395007	1.138888	-0.128053
H240	H	1.728340	1.472221	0.205281
F241	F	1.173597	0.671379	-0.349610
F242	F	1.506930	1.004712	-0.016276
F243	F	1.840264	1.338045	0.317057
F244	F	1.391462	0.965572	-0.132200
F245	F	1.724795	1.298905	0.201133
F246	F	2.058129	1.632238	0.534467
H247	H	1.332929	0.238419	-0.908137
H248	H	1.666262	0.571753	-0.574803
H249	H	1.999596	0.905086	-0.241470
F250	F	1.021445	0.919061	-0.501586
F251	F	1.354778	1.252394	-0.168253
F252	F	1.688111	1.585727	0.165081
F253	F	1.136000	0.485045	-0.574327
F254	F	1.469334	0.818379	-0.240993
F255	F	1.802667	1.151712	0.092340
H256	H	0.936834	0.472384	-0.193634
H257	H	1.270167	0.805717	0.139699
H258	H	1.603500	1.139051	0.473033
F259	F	1.095682	0.535560	-0.687919
F260	F	1.429016	0.868894	-0.354586
F261	F	1.762349	1.202227	-0.021252
H262	H	0.616174	0.238754	-0.475269
H263	H	0.949507	0.572087	-0.141935
H264	H	1.282841	0.905420	0.191398
H265	H	1.105802	0.522880	-0.850583
H266	H	1.439135	0.856213	-0.517250
H267	H	1.772468	1.189546	-0.183917
H268	H	1.146177	0.472308	-0.984641
H269	H	1.479510	0.805641	-0.651308
H270	H	1.812843	1.138974	-0.317974
H271	H	1.292598	0.288930	-1.021739
H272	H	1.625932	0.622264	-0.688406
H273	H	1.959265	0.955597	-0.355073
F274	F	1.134229	0.710009	-0.389193
F275	F	1.467562	1.043342	-0.055859
F276	F	1.800896	1.376675	0.277474
H277	H	1.066539	1.079136	-0.456627
H278	H	1.399872	1.412469	-0.123293
H279	H	1.733206	1.745802	0.210040
H280	H	1.402214	0.831424	-0.121414
H281	H	1.735547	1.164757	0.211919
H282	H	2.068880	1.498090	0.545252
F283	F	1.382425	0.671335	-0.141115
F284	F	1.715759	1.004669	0.192218
F285	F	2.049092	1.338002	0.525551
H286	H	0.673420	0.522896	-0.132860
H287	H	1.006753	0.856230	0.200474
H288	H	1.340087	1.189563	0.533807
F289	F	0.531653	0.485052	-0.178508
F290	F	0.864986	0.818386	0.154825
F291	F	1.198319	1.151719	0.488158
F292	F	0.836060	0.535509	-0.117620
F293	F	1.169393	0.868842	0.215714
F294	F	1.502727	1.202176	0.549047
H295	H	0.502526	0.289253	-0.414456
H296	H	0.835859	0.622587	-0.081123
H297	H	1.169193	0.955920	0.252211
