data_functionalizedCrystal
_audit_creation_method	'MofGen! by Chris Wilmer'
_symmetry_space_group_name_H-M	'P1'
_symmetry_Int_Tables_number	1
_symmetry_cell_setting	triclinic
loop_
_symmetry_equiv_pos_as_xyz
  x,y,z
_cell_length_a	23.532407
_cell_length_b	11.792241
_cell_length_c	10.868271
_cell_angle_alpha	89.998441
_cell_angle_beta	90.002093
_cell_angle_gamma	83.521042
loop_
_atom_site_label
_atom_site_type_symbol
_atom_site_fract_x
_atom_site_fract_y
_atom_site_fract_z
O1	O	-0.756076	-0.137765	0.102138
O2	O	-0.590331	-0.157700	0.102181
O3	O	-0.677226	0.017533	0.102150
O4	O	-0.669181	-0.312998	0.102170
O5	O	-0.677218	0.017527	-0.102494
O6	O	-0.590323	-0.157705	-0.102463
O7	O	-0.756068	-0.137771	-0.102506
Zn8	Zn	-0.673194	-0.147739	-0.134976
Zn9	Zn	-0.673205	-0.147732	0.134652
O10	O	-0.669173	-0.313003	-0.102475
C11	C	-0.569108	-0.157195	-0.000135
C12	C	-0.505882	-0.155669	-0.000119
C13	C	-0.107337	-0.249795	-0.000153
C14	C	-0.047928	-0.248377	-0.000159
O15	O	-0.011701	-0.335633	-0.000197
N16	N	-0.024684	-0.144202	-0.000162
C17	C	-0.060853	-0.041437	-0.000172
O18	O	-0.035627	0.047303	-0.000176
C19	C	-0.120260	-0.042856	-0.000176
C20	C	-0.143501	-0.147038	-0.000160
C21	C	-0.130577	-0.353969	-0.000139
C22	C	-0.189982	-0.355386	-0.000132
C23	C	-0.226146	-0.252629	-0.000138
C24	C	-0.202905	-0.148456	-0.000153
C25	C	-0.156428	0.059907	-0.000195
C26	C	-0.215839	0.058479	-0.000199
C27	C	-0.239079	-0.045703	-0.000184
C28	C	-0.298474	-0.047116	-0.000152
N29	N	-0.321717	-0.151292	-0.000149
C30	C	-0.285553	-0.254048	-0.000142
C31	C	0.063907	-0.038465	-0.000167
C32	C	0.123313	-0.037045	-0.000154
C33	C	0.136234	-0.243985	-0.000143
C34	C	0.076827	-0.245404	-0.000147
C35	C	0.040664	-0.142641	-0.000163
C36	C	-0.410308	-0.257017	-0.000125
C37	C	-0.469718	-0.258425	-0.000113
C38	C	-0.482634	-0.051485	-0.000130
C39	C	-0.423229	-0.050076	-0.000136
C40	C	-0.387066	-0.152852	-0.000138
O41	O	-0.334736	0.040094	-0.000119
O42	O	-0.310787	-0.342774	-0.000154
C43	C	-0.676716	0.059809	-0.000172
C44	C	-0.675204	0.185787	-0.000170
C45	C	-0.669683	-0.355280	-0.000151
C46	C	-0.671195	-0.481258	-0.000144
C47	C	0.222709	-0.138276	-0.000176
C48	C	0.159483	-0.139802	-0.000154
N49	N	-0.673191	-0.147744	-0.318991
C50	C	-0.672423	0.416434	-0.000149
C51	C	-0.673968	0.288085	-0.000160
C52	C	-0.673196	-0.147744	-0.430328
C53	C	-0.673203	-0.147733	-0.570006
N54	N	-0.673212	-0.147718	0.318666
H55	H	-0.245281	0.142164	-0.000214
N56	N	-0.213714	-0.461809	-0.000161
N57	N	-0.245416	-0.485693	-0.086434
H58	H	-0.262173	-0.560861	-0.086464
N59	N	-0.493465	-0.364840	-0.000118
N60	N	-0.546507	-0.366101	-0.000117
H61	H	-0.563279	-0.441254	-0.000125
N62	N	-0.373383	-0.362008	-0.000134
N63	N	-0.394151	-0.455005	-0.000122
H64	H	-0.368073	-0.529156	-0.000123
N65	N	0.173176	-0.348960	-0.000139
N66	N	0.170877	-0.418406	0.086122
H67	H	0.196968	-0.492540	0.086124
H68	H	0.142230	0.047791	-0.000147
H69	H	0.057909	-0.330239	-0.000141
N70	N	-0.399478	0.056332	-0.000127
N71	N	-0.367763	0.080213	0.086126
H72	H	-0.350992	0.155365	0.086125
N73	N	-0.132702	0.166332	-0.000254
N74	N	-0.101004	0.190206	-0.086536
H75	H	-0.084249	0.265375	-0.086586
N76	N	-0.519572	0.053484	-0.000161
N77	N	-0.498820	0.146498	-0.000187
H78	H	-0.524908	0.220635	-0.000220
N79	N	0.026977	0.066524	-0.000179
N80	N	0.047744	0.159523	-0.000183
H81	H	0.021665	0.233673	-0.000194
H82	H	-0.101138	-0.437650	-0.000138
