data_functionalizedCrystal
_audit_creation_method	'MofGen! by Chris Wilmer'
_symmetry_space_group_name_H-M	'P1'
_symmetry_Int_Tables_number	1
_symmetry_cell_setting	triclinic
loop_
_symmetry_equiv_pos_as_xyz
  x,y,z
_cell_length_a	17.077404
_cell_length_b	12.645330
_cell_length_c	17.077396
_cell_angle_alpha	89.973796
_cell_angle_beta	89.980499
_cell_angle_gamma	90.012871
loop_
_atom_site_label
_atom_site_type_symbol
_atom_site_fract_x
_atom_site_fract_y
_atom_site_fract_z
Zn1	Zn	1.200110	-0.422033	-0.443855
Zn2	Zn	1.200041	-0.599318	-0.312594
Zn3	Zn	1.068842	-0.422070	-0.312603
Zn4	Zn	1.068834	-0.599256	-0.443818
O5	O	1.134457	-0.510669	-0.378218
O6	O	1.309948	-0.445561	-0.426455
O7	O	1.182612	-0.575848	-0.202749
O8	O	1.086288	-0.273718	-0.330033
O9	O	1.309897	-0.575812	-0.330018
O10	O	1.182730	-0.273691	-0.426464
O11	O	1.086221	-0.445624	-0.202755
O12	O	0.958994	-0.445563	-0.329997
O13	O	1.086273	-0.575705	-0.553670
O14	O	0.958988	-0.575741	-0.426400
O15	O	1.182722	-0.445500	-0.553697
O16	O	1.182603	-0.747657	-0.329982
O17	O	1.086206	-0.747611	-0.426392
C18	C	0.930509	-0.510650	-0.378196
C19	C	0.843259	-0.510667	-0.378205
C20	C	0.802286	-0.578553	-0.428322
C21	C	0.720306	-0.578555	-0.428334
C22	C	0.679300	-0.510677	-0.378226
C23	C	0.720278	-0.442783	-0.328107
C24	C	0.802257	-0.442777	-0.328099
C25	C	0.549408	-0.442804	-0.328126
C26	C	0.467424	-0.442812	-0.328133
C27	C	0.467457	-0.578583	-0.428361
C28	C	0.549436	-0.578576	-0.428353
C29	C	0.590409	-0.510684	-0.378233
C30	C	1.134418	-0.786099	-0.378199
C31	C	1.134473	-0.903929	-0.378217
C32	C	1.195019	-1.071478	-0.317443
C33	C	1.195216	-0.948918	-0.317592
C34	C	1.156905	-0.948313	-0.460961
C35	C	1.157385	-1.070911	-0.460639
C36	C	1.051470	-1.071256	-0.357063
C37	C	1.051868	-0.948652	-0.355208
C38	C	1.339201	-0.510689	-0.378240
C39	C	1.426451	-0.510698	-0.378249
C40	C	1.134504	-0.510591	-0.582962
C41	C	1.134525	-0.510558	-0.670212
C42	C	1.134518	-0.234164	-0.378253
C43	C	1.134544	-0.116334	-0.378269
C44	C	1.184747	-0.442755	-0.711218
C45	C	1.184757	-0.442719	-0.793198
C46	C	1.134547	-0.510493	-0.834171
C47	C	1.084319	-0.578300	-0.793160
C48	C	1.084306	-0.578329	-0.711181
C49	C	1.084350	-0.578236	-0.964030
C50	C	1.084364	-0.578208	-1.046015
C51	C	1.184801	-0.442626	-1.046047
C52	C	1.184788	-0.442656	-0.964068
C53	C	1.134561	-0.510464	-0.923062
C54	C	1.134455	-0.510671	-0.174270
C55	C	1.134587	-0.510405	-0.087020
H56	H	0.686949	-0.633836	-0.469144
Br57	Br	1.252899	-0.350778	-0.655619
Br58	Br	1.252970	-0.350606	-1.101696
Br59	Br	1.087149	-1.120367	-0.538739
Br60	Br	0.857865	-0.350637	-0.260086
Br61	Br	1.256970	-0.897001	-0.491403
H62	H	1.043477	-0.633394	-1.079373
Br63	Br	1.297025	-1.122691	-0.340555
H64	H	0.434093	-0.633860	-0.469173
Br65	Br	1.297769	-0.899892	-0.340973
H66	H	1.043402	-0.633530	-0.677795
Br67	Br	1.017467	-1.122940	-0.258251
Br68	Br	1.023669	-0.900316	-0.253718
H69	H	1.043434	-0.633479	-0.826527
H70	H	1.114198	-0.919168	-0.507495
Br71	Br	1.016181	-0.670258	-0.908380
H72	H	0.835668	-0.633831	-0.469124
Br73	Br	0.976368	-1.119606	-0.430900
Br74	Br	0.972711	-0.897630	-0.423632
Br75	Br	0.605087	-0.670708	-0.496351
H76	H	1.225655	-0.387510	-0.826581
Br77	Br	0.605014	-0.350662	-0.260107
Br78	Br	0.411773	-0.350698	-0.260122
Br79	Br	0.664628	-0.350651	-0.260109
Br80	Br	1.171765	-0.898902	-0.215346
H81	H	1.181160	-1.101030	-0.255910
H82	H	1.218108	-1.099423	-0.478601
H83	H	1.225678	-0.387474	-0.930710
