data_functionalizedCrystal
_audit_creation_method	'MofGen! by Chris Wilmer'
_symmetry_space_group_name_H-M	'P1'
_symmetry_Int_Tables_number	1
_symmetry_cell_setting	triclinic
loop_
_symmetry_equiv_pos_as_xyz
  x,y,z
_cell_length_a	17.699077
_cell_length_b	16.109304
_cell_length_c	15.186229
_cell_angle_alpha	89.999066
_cell_angle_beta	89.997203
_cell_angle_gamma	83.371607
loop_
_atom_site_label
_atom_site_type_symbol
_atom_site_fract_x
_atom_site_fract_y
_atom_site_fract_z
O1	O	1.004229	0.105113	-0.073211
O2	O	0.783869	0.118797	-0.073215
O3	O	0.900101	-0.009087	-0.073214
O4	O	0.887996	0.232996	-0.073213
O5	O	0.900093	-0.009088	0.073244
O6	O	0.783861	0.118795	0.073242
O7	O	1.004221	0.105111	0.073246
Zn8	Zn	0.894040	0.111953	0.096497
Zn9	Zn	0.894050	0.111955	-0.096466
O10	O	0.887989	0.232994	0.073244
C11	C	0.899607	-0.040062	0.000013
C12	C	0.898135	-0.132354	0.000007
C13	C	0.755668	0.118306	0.000013
C14	C	0.671647	0.116838	0.000011
C15	C	0.894741	-0.344685	-0.079824
C16	C	0.893352	-0.431402	-0.079823
C17	C	0.893347	-0.431401	0.079853
C18	C	0.894731	-0.344684	0.079851
C19	C	0.895432	-0.301329	0.000010
C20	C	0.892658	-0.474764	0.000013
C21	C	0.891152	-0.568787	0.000014
C22	C	0.896936	-0.207299	0.000008
C23	C	0.632174	0.116145	0.079846
C24	C	0.553230	0.114752	0.079847
C25	C	0.513759	0.114058	0.000012
C26	C	0.553237	0.114748	-0.079829
C27	C	0.632181	0.116135	-0.079829
C28	C	0.234866	0.109153	-0.079830
C29	C	0.155916	0.107769	-0.079824
C30	C	0.155915	0.107770	0.079845
C31	C	0.234859	0.109157	0.079845
C32	C	0.274331	0.109843	0.000005
C33	C	0.359931	0.111352	0.000005
C34	C	0.428159	0.112555	0.000012
C35	C	1.032422	0.105601	0.000016
C36	C	1.116443	0.107070	0.000012
C37	C	0.888483	0.263969	0.000016
C38	C	0.889954	0.356262	0.000016
N39	N	0.894038	0.111950	0.228190
N40	N	0.894058	0.111951	-0.228159
C41	C	0.945523	0.055343	0.453913
C42	C	0.945526	0.055341	0.546103
C43	C	0.842567	0.168561	0.546111
C44	C	0.842562	0.168558	0.453923
C45	C	0.894044	0.111950	0.407827
C46	C	0.894052	0.111951	0.592204
C47	C	0.894054	0.111949	0.692160
C48	C	0.894041	0.111951	0.307864
H49	H	0.892787	-0.466699	-0.144832
O50	O	0.895475	-0.297919	0.165966
H51	H	0.896546	-0.230335	0.152549
O52	O	0.510627	0.113920	0.165930
H53	H	0.467858	0.169896	0.169779
H54	H	0.664305	0.116717	0.144857
O55	O	1.001053	-0.005716	0.595807
H56	H	0.992404	0.003786	0.667656
O57	O	0.277427	0.109908	0.165956
H58	H	0.338952	0.110997	0.152543
H59	H	0.895309	-0.309387	-0.144835
O60	O	0.892614	-0.478165	0.165965
H61	H	0.891549	-0.545751	0.152556
H62	H	0.123768	0.107207	0.144855
H63	H	0.800652	0.214651	0.583652
O64	O	0.113342	0.106992	-0.165935
H65	H	0.154053	0.107685	-0.221454
H66	H	0.800637	0.214655	0.416396
H67	H	0.266995	0.109709	-0.144841
H68	H	0.521094	0.114177	-0.144831
H69	H	0.664318	0.116701	-0.144838
H70	H	0.987443	0.009248	0.416384
