data_functionalizedCrystal
_audit_creation_method	'MofGen! by Chris Wilmer'
_symmetry_space_group_name_H-M	'P1'
_symmetry_Int_Tables_number	1
_symmetry_cell_setting	triclinic
loop_
_symmetry_equiv_pos_as_xyz
  x,y,z
_cell_length_a	23.532407
_cell_length_b	11.792241
_cell_length_c	10.868271
_cell_angle_alpha	89.994719
_cell_angle_beta	90.001021
_cell_angle_gamma	83.521047
loop_
_atom_site_label
_atom_site_type_symbol
_atom_site_fract_x
_atom_site_fract_y
_atom_site_fract_z
O1	O	0.756076	0.137772	-0.102169
O2	O	1.256076	0.637772	0.397831
O3	O	0.590331	0.157706	-0.102205
O4	O	1.090331	0.657706	0.397795
O5	O	0.677225	-0.017526	-0.102178
O6	O	1.177225	0.482474	0.397822
O7	O	0.669181	0.313004	-0.102197
O8	O	1.169181	0.813004	0.397803
O9	O	0.677218	-0.017533	0.102467
O10	O	1.177218	0.482467	0.602467
O11	O	0.590323	0.157699	0.102439
O12	O	1.090323	0.657699	0.602439
O13	O	0.756069	0.137765	0.102475
O14	O	1.256069	0.637765	0.602475
Zn15	Zn	0.673195	0.147731	0.134949
Zn16	Zn	1.173195	0.647731	0.634949
Zn17	Zn	0.673204	0.147740	-0.134679
Zn18	Zn	1.173204	0.647740	0.365321
O19	O	0.669174	0.312997	0.102448
O20	O	1.169174	0.812997	0.602448
C21	C	0.676716	-0.059809	0.000144
C22	C	1.176716	0.440191	0.500144
C23	C	0.675204	-0.185787	0.000142
C24	C	1.175204	0.314213	0.500142
C25	C	0.569108	0.157195	0.000112
C26	C	1.069108	0.657195	0.500112
C27	C	0.505882	0.155669	0.000099
C28	C	1.005882	0.655669	0.500099
C29	C	0.672423	-0.416434	0.000121
C30	C	1.172423	0.083566	0.500121
C31	C	0.673968	-0.288085	0.000133
C32	C	1.173968	0.211915	0.500133
C33	C	0.107337	0.249795	0.000149
C34	C	0.607337	0.749795	0.500149
C35	C	0.047928	0.248377	0.000157
C36	C	0.547928	0.748377	0.500157
O37	O	0.011701	0.335633	0.000196
O38	O	0.511701	0.835633	0.500196
N39	N	0.024684	0.144202	0.000161
N40	N	0.524684	0.644202	0.500161
C41	C	0.060853	0.041437	0.000169
C42	C	0.560853	0.541437	0.500169
O43	O	0.035627	-0.047303	0.000175
O44	O	0.535627	0.452697	0.500175
C45	C	0.120260	0.042856	0.000171
C46	C	0.620260	0.542856	0.500171
C47	C	0.143501	0.147038	0.000154
C48	C	0.643501	0.647038	0.500154
C49	C	0.130577	0.353969	0.000134
C50	C	0.630577	0.853969	0.500134
C51	C	0.189982	0.355386	0.000124
C52	C	0.689982	0.855386	0.500124
C53	C	0.226146	0.252630	0.000129
C54	C	0.726146	0.752630	0.500129
C55	C	0.202905	0.148456	0.000144
C56	C	0.702905	0.648456	0.500144
C57	C	0.156428	-0.059907	0.000188
C58	C	0.656428	0.440093	0.500188
C59	C	0.215839	-0.058479	0.000190
C60	C	0.715839	0.441521	0.500190
C61	C	0.239079	0.045703	0.000174
C62	C	0.739079	0.545703	0.500174
C63	C	0.298474	0.047116	0.000140
C64	C	0.798474	0.547116	0.500140
N65	N	0.321717	0.151292	0.000136
N66	N	0.821717	0.651292	0.500136
C67	C	0.285553	0.254049	0.000130
C68	C	0.785553	0.754049	0.500130
C69	C	-0.063907	0.038465	0.000169
C70	C	0.436093	0.538465	0.500169
C71	C	-0.123313	0.037045	0.000159
C72	C	0.376687	0.537045	0.500159
C73	C	-0.136234	0.243985	0.000149
C74	C	0.363766	0.743985	0.500149
C75	C	-0.076827	0.245404	0.000150
C76	C	0.423173	0.745404	0.500150
C77	C	-0.040664	0.142641	0.000165
C78	C	0.459336	0.642641	0.500165
C79	C	0.410308	0.257017	0.000109
C80	C	0.910308	0.757017	0.500109
C81	C	0.469718	0.258425	0.000094
C82	C	0.969718	0.758425	0.500094
C83	C	0.482634	0.051485	0.000111
C84	C	0.982634	0.551485	0.500111
C85	C	0.423229	0.050077	0.000119
C86	C	0.923229	0.550077	0.500119
C87	C	0.387066	0.152852	0.000122
C88	C	0.887066	0.652852	0.500122
O89	O	0.334736	-0.040094	0.000105
O90	O	0.834736	0.459906	0.500105
O91	O	0.310787	0.342774	0.000141
O92	O	0.810787	0.842774	0.500141
C93	C	0.777291	0.138276	0.000155
C94	C	1.277291	0.638276	0.500155
C95	C	0.840517	0.139802	0.000160
C96	C	1.340517	0.639802	0.500160
C97	C	0.669683	0.355280	0.000123
C98	C	1.169683	0.855280	0.500123
C99	C	0.671195	0.481258	0.000117
C100	C	1.171195	0.981258	0.500117
N101	N	0.673193	0.147724	0.318963
N102	N	1.173193	0.647724	0.818963
N103	N	0.673211	0.147737	-0.318693
N104	N	1.173211	0.647737	0.181307
C105	C	0.673201	0.147737	0.569969
C106	C	1.173201	0.647737	1.069969
C107	C	0.673195	0.147733	0.430292
C108	C	1.173195	0.647733	0.930292
H109	H	0.488636	0.343267	0.000079
H110	H	0.988636	0.843267	0.500079
C111	C	0.370537	0.370075	0.000105
C112	C	0.870537	0.870075	0.500105
N113	N	0.340583	0.455231	0.000094
N114	N	0.840583	0.955231	0.500094
H115	H	0.208898	0.440222	0.000110
H116	H	0.708898	0.940222	0.500110
C117	C	-0.148870	-0.077564	0.000169
C118	C	0.351130	0.422436	0.500169
N119	N	-0.168117	-0.163891	0.000187
N120	N	0.331883	0.336109	0.500187
H121	H	0.137517	-0.144743	0.000203
H122	H	0.637517	0.355257	0.500203
H123	H	0.101138	0.437650	0.000134
H124	H	0.601138	0.937650	0.500134
C125	C	0.522425	-0.061541	0.000130
C126	C	1.022425	0.438459	0.500130
N127	N	0.552398	-0.146673	0.000159
N128	N	1.052398	0.353327	0.500159
H129	H	-0.057909	0.330239	0.000143
H130	H	0.442091	0.830239	0.500143
C131	C	-0.176026	0.357020	0.000155
C132	C	0.323974	0.857020	0.500155
N133	N	-0.205999	0.442153	0.000162
N134	N	0.294001	0.942153	0.500162
H135	H	-0.034466	-0.045223	0.000171
H136	H	0.465534	0.454777	0.500171
H137	H	0.245281	-0.142164	0.000204
H138	H	0.745281	0.357836	0.500204
H139	H	0.404306	-0.034757	0.000114
H140	H	0.904306	0.465243	0.500114
