data_functionalizedCrystal
_audit_creation_method	'MofGen! by Chris Wilmer'
_symmetry_space_group_name_H-M	'P1'
_symmetry_Int_Tables_number	1
_symmetry_cell_setting	triclinic
loop_
_symmetry_equiv_pos_as_xyz
  x,y,z
_cell_length_a	15.995350
_cell_length_b	15.995292
_cell_length_c	15.186229
_cell_angle_alpha	89.999448
_cell_angle_beta	90.000289
_cell_angle_gamma	83.480495
loop_
_atom_site_label
_atom_site_type_symbol
_atom_site_fract_x
_atom_site_fract_y
_atom_site_fract_z
O1	O	1.110962	0.107928	-0.073148
O2	O	0.867184	0.121256	-0.073165
O3	O	0.995762	-0.007299	-0.073157
O4	O	0.982384	0.236483	-0.073155
O5	O	0.995753	-0.007300	0.073300
O6	O	0.867175	0.121255	0.073292
O7	O	1.110953	0.107927	0.073310
Zn8	Zn	0.989063	0.114590	0.096554
Zn9	Zn	0.989074	0.114593	-0.096410
O10	O	0.982375	0.236482	0.073302
C11	C	0.835985	0.120704	0.000061
C12	C	0.743035	0.119053	0.000054
C13	C	0.405288	0.113120	0.000073
C14	C	0.452742	0.021566	0.000399
C15	C	0.549431	0.023218	0.000063
C16	C	0.572848	0.116063	0.000064
C17	C	0.531757	0.161222	-0.083566
C18	C	0.435121	0.158922	-0.083630
C19	C	0.434772	0.160811	0.082919
C20	C	0.531718	0.160789	0.084018
C21	C	0.667546	0.117731	0.000056
C22	C	0.310591	0.111455	0.000075
C23	C	0.995213	-0.038495	0.000069
C24	C	0.993581	-0.131448	0.000062
C25	C	0.987580	-0.469186	0.000070
C26	C	1.080384	-0.445874	0.000404
C27	C	1.082148	-0.349199	0.000071
C28	C	0.990557	-0.301631	0.000067
C29	C	0.944165	-0.330731	-0.083568
C30	C	0.943047	-0.427521	-0.083635
C31	C	0.941142	-0.427380	0.082914
C32	C	0.944581	-0.330888	0.084017
C33	C	0.992235	-0.206934	0.000062
C34	C	0.985899	-0.563882	0.000069
C35	C	1.142152	0.108479	0.000081
C36	C	1.235102	0.110130	0.000082
C37	C	0.982924	0.267678	0.000073
C38	C	0.984556	0.360631	0.000074
N39	N	0.989061	0.114588	0.228247
N40	N	0.989082	0.114588	-0.228102
C41	C	1.046015	0.057683	0.453973
C42	C	1.046018	0.057681	0.546163
C43	C	0.932122	0.171496	0.546165
C44	C	0.932116	0.171493	0.453977
C45	C	0.989067	0.114588	0.407883
C46	C	0.989076	0.114589	0.592261
C47	C	0.989079	0.114587	0.692217
C48	C	0.989064	0.114588	0.307921
H49	H	0.414239	0.130879	0.146309
H50	H	1.092388	0.011343	0.583687
C51	C	1.128710	-0.483703	0.081429
N52	N	1.165109	-0.512203	0.142460
C53	C	0.869478	0.234087	0.596876
N54	N	0.822293	0.281231	0.635071
H55	H	0.559038	0.127824	0.145888
H56	H	0.975184	-0.454337	-0.146151
H57	H	0.547069	0.228495	0.089071
C58	C	0.391842	0.252002	0.083688
N59	N	0.359502	0.320684	0.084261
H60	H	1.115960	-0.474891	-0.059233
H61	H	1.118703	-0.330793	-0.059982
C62	C	0.853114	-0.287673	-0.087780
N63	N	0.784536	-0.255239	-0.090952
H64	H	1.118482	-0.330174	0.060022
C65	C	1.108656	-0.004921	0.403274
N66	N	1.155836	-0.052079	0.365089
C67	C	0.427716	-0.027877	0.081420
N68	N	0.408859	-0.065119	0.142447
C69	C	0.869504	0.234134	0.403275
N70	N	0.822360	0.281325	0.365087
C71	C	0.570096	0.118847	-0.167652
N72	N	0.598971	0.086924	-0.230984
H73	H	0.875003	-0.442071	-0.087427
C74	C	0.987701	-0.303638	-0.167650
N75	N	1.020499	-0.283236	-0.230979
H76	H	0.970365	-0.455470	0.146309
H77	H	0.577864	-0.012279	0.060013
H78	H	0.433159	-0.014862	-0.059246
H79	H	0.872831	-0.441371	0.083475
C80	C	0.990198	-0.305779	0.167606
N81	N	1.024551	-0.286852	0.230565
C82	C	0.587084	-0.025056	-0.081072
N83	N	0.615444	-0.061416	-0.142187
H84	H	0.402859	0.226139	-0.087424
C85	C	0.410401	0.114426	-0.168083
N86	N	0.391786	0.080906	-0.231692
H87	H	0.877729	-0.297918	0.089065
C88	C	0.550824	0.253370	-0.087772
N89	N	0.565187	0.322777	-0.090939
