data_functionalizedCrystal
_audit_creation_method	'MofGen! by Chris Wilmer'
_symmetry_space_group_name_H-M	'P1'
_symmetry_Int_Tables_number	1
_symmetry_cell_setting	triclinic
loop_
_symmetry_equiv_pos_as_xyz
  x,y,z
_cell_length_a	18.215407
_cell_length_b	12.759399
_cell_length_c	18.215399
_cell_angle_alpha	90.021345
_cell_angle_beta	89.982187
_cell_angle_gamma	89.989956
loop_
_atom_site_label
_atom_site_type_symbol
_atom_site_fract_x
_atom_site_fract_y
_atom_site_fract_z
Zn1	Zn	1.125120	0.418431	-0.416110
Zn2	Zn	1.625120	0.918431	0.083890
Zn3	Zn	1.125048	0.594128	-0.293058
Zn4	Zn	1.625048	1.094128	0.206942
Zn5	Zn	1.002052	0.418447	-0.293062
Zn6	Zn	1.502052	0.918447	0.206938
Zn7	Zn	1.002038	0.594052	-0.416087
Zn8	Zn	1.502038	1.094052	0.083913
O9	O	1.063565	0.506264	-0.354579
O10	O	1.563565	1.006264	0.145421
O11	O	1.228095	0.441763	-0.399795
O12	O	1.728095	0.941763	0.100205
O13	O	1.108709	0.570863	-0.190074
O14	O	1.608709	1.070863	0.309926
O15	O	1.018413	0.271424	-0.309395
O16	O	1.518413	0.771424	0.190605
O17	O	1.228042	0.570847	-0.309389
O18	O	1.728042	1.070847	0.190611
O19	O	1.108830	0.271412	-0.399798
O20	O	1.608830	0.771412	0.100202
O21	O	1.018344	0.441790	-0.190077
O22	O	1.518344	0.941790	0.309923
O23	O	0.899066	0.441716	-0.309373
O24	O	1.399066	0.941716	0.190627
O25	O	1.018389	0.570716	-0.519074
O26	O	1.518389	1.070716	-0.019074
O27	O	0.899056	0.570732	-0.399760
O28	O	1.399056	1.070732	0.100240
O29	O	1.108817	0.441689	-0.519091
O30	O	1.608817	0.941689	-0.019091
O31	O	1.108695	0.741139	-0.309367
O32	O	1.608695	1.241139	0.190633
O33	O	1.018320	0.741083	-0.399756
O34	O	1.518320	1.241083	0.100244
C35	C	0.872358	0.506218	-0.354565
C36	C	1.372358	1.006218	0.145435
C37	C	0.790560	0.506224	-0.354576
C38	C	1.290560	1.006224	0.145424
C39	C	0.525524	0.439180	-0.401728
C40	C	1.025524	0.939180	0.098272
C41	C	0.602382	0.439163	-0.401726
C42	C	1.102382	0.939163	0.098274
C43	C	0.602347	0.573383	-0.307446
C44	C	1.102347	1.073383	0.192554
C45	C	0.525490	0.573405	-0.307452
C46	C	1.025490	1.073405	0.192548
C47	C	0.487080	0.506297	-0.354593
C48	C	0.987080	1.006297	0.145407
C49	C	0.640796	0.506258	-0.354584
C50	C	1.140796	1.006258	0.145416
C51	C	0.724130	0.506241	-0.354581
C52	C	1.224130	1.006241	0.145419
C53	C	0.403741	0.506316	-0.354597
C54	C	0.903741	1.006316	0.145403
C55	C	1.063518	0.779232	-0.354574
C56	C	1.563518	1.279232	0.145426
C57	C	1.063566	0.896008	-0.354597
C58	C	1.563566	1.396008	0.145403
C59	C	1.110675	0.950865	-0.307586
C60	C	1.610675	1.450865	0.192414
C61	C	1.110720	1.060589	-0.307613
C62	C	1.610720	1.560589	0.192387
C63	C	1.016538	1.060590	-0.401665
C64	C	1.516538	1.560590	0.098335
C65	C	1.016498	0.950868	-0.401641
C66	C	1.516498	1.450868	0.098359
C67	C	1.157743	0.896005	-0.260542
C68	C	1.657743	1.396005	0.239458
C69	C	1.204856	0.950862	-0.213526
C70	C	1.704856	1.450862	0.286474
C71	C	1.204900	1.060586	-0.213553
C72	C	1.704900	1.560586	0.286447
C73	C	1.157831	1.115453	-0.260596
C74	C	1.657831	1.615453	0.239404
C75	C	1.255518	0.506312	-0.354594
C76	C	1.755518	1.006312	0.145406
C77	C	1.337316	0.506332	-0.354600
C78	C	1.837316	1.006332	0.145400
C79	C	1.063609	0.506192	-0.546532
C80	C	1.563609	1.006192	-0.046532
C81	C	1.063629	0.506161	-0.628331
C82	C	1.563629	1.006161	-0.128331
C83	C	1.063629	1.232231	-0.354610
C84	C	1.563629	1.732231	0.145390
C85	C	1.063649	1.115454	-0.354648
C86	C	1.563649	1.615454	0.145352
C87	C	1.110731	0.438914	-0.816535
C88	C	1.610731	0.938914	-0.316535
C89	C	1.110740	0.438883	-0.893394
C90	C	1.610740	0.938883	-0.393394
C91	C	1.016578	0.573246	-0.893365
C92	C	1.516578	1.073246	-0.393365
C93	C	1.016566	0.573271	-0.816508
C94	C	1.516566	1.073271	-0.316508
C95	C	1.063647	0.506106	-0.778095
C96	C	1.563647	1.006106	-0.278095
C97	C	1.063668	0.506051	-0.931811
C98	C	1.563668	1.006051	-0.431811
C99	C	1.063677	0.506018	-1.015145
C100	C	1.563677	1.006018	-0.515145
C101	C	1.063637	0.506137	-0.694756
C102	C	1.563637	1.006137	-0.194756
C103	C	1.063562	0.506261	-0.163373
C104	C	1.563562	1.006261	0.336627
C105	C	1.063686	0.505996	-0.081574
C106	C	1.563686	1.005996	0.418426
H107	H	0.633680	0.384510	-0.440110
H108	H	1.133680	0.884510	0.059890
F109	F	1.160836	0.367428	-0.775656
F110	F	1.660836	0.867428	-0.275656
H111	H	1.149079	0.384166	-0.924689
H112	H	1.649079	0.884166	-0.424689
F113	F	1.255047	1.118965	-0.163522
F114	F	1.755047	1.618965	0.336478
H115	H	0.978216	1.105272	-0.439964
H116	H	1.478216	1.605272	0.060036
H117	H	0.494188	0.628065	-0.269068
H118	H	0.994188	1.128065	0.230932
H119	H	1.157711	0.806662	-0.260513
H120	H	1.657711	1.306662	0.239487
F121	F	0.966359	0.892483	-0.451677
F122	F	1.466359	1.392483	0.048323
H123	H	1.157877	1.204798	-0.260620
H124	H	1.657877	1.704798	0.239380
F125	F	0.484648	0.367760	-0.451901
F126	F	0.984648	0.867760	0.048099
H127	H	0.978248	0.627932	-0.924650
H128	H	1.478248	1.127932	-0.424650
H129	H	1.243183	0.906183	-0.175230
H130	H	1.743183	1.406183	0.324770
F131	F	0.643232	0.644797	-0.257277
F132	F	1.143232	1.144797	0.242723
F133	F	0.966447	0.644785	-0.775594
F134	F	1.466447	1.144785	-0.275594
