data_functionalizedCrystal
_audit_creation_method	'MofGen! by Chris Wilmer'
_symmetry_space_group_name_H-M	'P1'
_symmetry_Int_Tables_number	1
_symmetry_cell_setting	triclinic
loop_
_symmetry_equiv_pos_as_xyz
  x,y,z
_cell_length_a	10.686220
_cell_length_b	10.685676
_cell_length_c	10.686551
_cell_angle_alpha	89.695509
_cell_angle_beta	90.308082
_cell_angle_gamma	81.593313
loop_
_atom_site_label
_atom_site_type_symbol
_atom_site_fract_x
_atom_site_fract_y
_atom_site_fract_z
Zn1	Zn	1.950664	0.307357	-0.587628
Zn2	Zn	1.918381	0.535543	-0.396609
Zn3	Zn	1.722513	0.339608	-0.396594
Zn4	Zn	1.724991	0.532988	-0.622177
O5	O	1.829137	0.428874	-0.500752
O6	O	2.122798	0.325199	-0.547836
O7	O	1.877851	0.524118	-0.222258
O8	O	1.765252	0.158903	-0.407470
O9	O	2.099079	0.492846	-0.407496
O10	O	1.932873	0.135208	-0.547822
O11	O	1.733948	0.380165	-0.222247
O12	O	1.546426	0.377688	-0.440971
O13	O	1.769474	0.488492	-0.791944
O14	O	1.548246	0.519763	-0.606706
O15	O	1.935275	0.322722	-0.766560
O16	O	1.880253	0.711631	-0.440997
O17	O	1.738171	0.709754	-0.606721
C18	C	1.501593	0.451949	-0.527586
C19	C	1.361469	0.461848	-0.539098
C20	C	1.806014	0.756433	-0.527634
C21	C	1.796241	0.896553	-0.539166
C22	C	2.157960	0.405710	-0.473814
C23	C	2.298085	0.395839	-0.462335
C24	C	1.856252	0.401724	-0.825723
C25	C	1.867807	0.390155	-0.964206
C26	C	1.852377	1.100031	-0.473805
C27	C	1.862255	0.959896	-0.462361
C28	C	1.802207	0.455822	-0.177033
C29	C	1.790921	0.467019	-0.038501
H30	H	1.351019	0.331754	-0.387806
C31	C	1.290932	0.547529	-0.638341
C32	C	1.311778	0.672281	-0.618636
C33	C	1.246809	0.751244	-0.710023
H34	H	1.320685	0.520870	-0.718891
H35	H	1.202954	0.543141	-0.633130
H36	H	1.399738	0.676664	-0.623858
H37	H	1.282021	0.698978	-0.538104
H38	H	1.158831	0.746857	-0.704813
H39	H	1.276567	0.724574	-0.790567
H40	H	1.260934	0.835899	-0.696659
H41	H	1.716260	0.541681	-0.996165
C42	C	1.967249	0.290633	-1.020891
C43	C	1.959301	0.298523	-1.151584
C44	C	2.050872	0.206853	-1.203844
H45	H	2.048966	0.304771	-0.994333
H46	H	1.953023	0.208948	-0.994258
H47	H	1.973537	0.380188	-1.178205
H48	H	1.877605	0.284371	-1.178176
H49	H	2.036645	0.125169	-1.177211
H50	H	2.132582	0.220999	-1.177277
H51	H	2.045484	0.212186	-1.292523
C52	C	1.710928	0.967402	-0.638492
C53	C	1.717835	1.096960	-0.630542
C54	C	1.639249	1.162275	-0.722011
H55	H	1.737695	0.937698	-0.719028
H56	H	1.626155	0.953542	-0.625380
H57	H	1.802591	1.110812	-0.643663
H58	H	1.691058	1.126701	-0.550026
H59	H	1.554476	1.148415	-0.708899
H60	H	1.666023	1.132561	-0.802541
H61	H	1.643916	1.250188	-0.716622
C62	C	1.947812	0.889316	-0.363050
C63	C	2.072607	0.910046	-0.382667
C64	C	2.151456	0.845036	-0.291218
H65	H	1.921122	0.919111	-0.282522
H66	H	1.943351	0.801347	-0.368256
H67	H	2.077063	0.997997	-0.377449
H68	H	2.099335	0.880247	-0.463177
H69	H	2.146995	0.757067	-0.296424
H70	H	2.124755	0.874836	-0.210696
H71	H	2.236139	0.859083	-0.304522
