data_functionalizedCrystal
_audit_creation_method	'MofGen! by Chris Wilmer'
_symmetry_space_group_name_H-M	'P1'
_symmetry_Int_Tables_number	1
_symmetry_cell_setting	triclinic
loop_
_symmetry_equiv_pos_as_xyz
  x,y,z
_cell_length_a	19.121063
_cell_length_b	18.101398
_cell_length_c	19.121277
_cell_angle_alpha	92.428224
_cell_angle_beta	85.243870
_cell_angle_gamma	87.535511
loop_
_atom_site_label
_atom_site_type_symbol
_atom_site_fract_x
_atom_site_fract_y
_atom_site_fract_z
Zn1	Zn	-0.297309	-1.100230	0.409876
Zn2	Zn	0.202691	-0.600230	0.909876
Zn3	Zn	-0.409926	-1.100162	0.297225
Zn4	Zn	0.090074	-0.600162	0.797225
Zn5	Zn	-0.292269	-0.981937	0.292216
Zn6	Zn	0.207731	-0.481937	0.792216
Zn7	Zn	-0.414927	-0.970833	0.414835
Zn8	Zn	0.085073	-0.470833	0.914835
O9	O	-0.353608	-1.038291	0.353538
O10	O	0.146392	-0.538291	0.853538
O11	O	-0.312265	-1.203853	0.394953
O12	O	0.187735	-0.703853	0.894953
O13	O	-0.390117	-1.089098	0.198100
O14	O	0.109883	-0.589098	0.698100
O15	O	-0.194474	-1.002304	0.303652
O16	O	0.305526	-0.502304	0.803652
O17	O	-0.395004	-1.203802	0.312189
O18	O	0.104996	-0.703802	0.812189
O19	O	-0.198177	-1.089214	0.390096
O20	O	0.301823	-0.589214	0.890096
O21	O	-0.303675	-1.002238	0.194420
O22	O	0.196325	-0.502238	0.694420
O23	O	-0.308523	-0.876833	0.308461
O24	O	0.191477	-0.376833	0.808461
O25	O	-0.403527	-0.983379	0.512638
O26	O	0.096473	-0.483379	1.012638
O27	O	-0.398640	-0.868674	0.398549
O28	O	0.101360	-0.368674	0.898549
O29	O	-0.317113	-1.078447	0.508994
O30	O	0.182887	-0.578447	1.008994
O31	O	-0.509053	-1.078331	0.316998
O32	O	-0.009053	-0.578331	0.816998
O33	O	-0.512727	-0.983313	0.403406
O34	O	-0.012727	-0.483313	0.903406
C35	C	-0.353578	-0.845883	0.353500
C36	C	0.146422	-0.345883	0.853500
C37	C	-0.353583	-0.763569	0.353501
C38	C	0.146417	-0.263569	0.853501
C39	C	-0.536421	-1.029629	0.361299
C40	C	-0.036421	-0.529629	0.861299
C41	C	-0.614631	-1.025990	0.364643
C42	C	-0.114631	-0.525990	0.864643
C43	C	-0.361440	-1.029682	0.537060
C44	C	0.138560	-0.529682	1.037060
C45	C	-0.364778	-1.026014	0.615266
C46	C	0.135222	-0.526014	1.115266
C47	C	-0.649439	-1.073786	0.321263
C48	C	-0.149439	-0.573786	0.821263
C49	C	-0.722925	-1.070368	0.324412
C50	C	-0.222925	-0.570368	0.824412
C51	C	-0.761602	-1.019150	0.370937
C52	C	-0.261602	-0.519150	0.870937
C53	C	-0.726788	-0.971351	0.414321
C54	C	-0.226788	-0.471351	0.914321
C55	C	-0.653303	-0.974774	0.411176
C56	C	-0.153303	-0.474774	0.911176
C57	C	-0.983575	-1.006343	0.382687
C58	C	-0.483575	-0.506343	0.882687
C59	C	-1.057065	-1.002923	0.385828
C60	C	-0.557065	-0.502923	0.885828
C61	C	-1.053197	-1.101941	0.295919
C62	C	-0.553197	-0.601941	0.795919
C63	C	-0.979711	-1.105356	0.292775
C64	C	-0.479711	-0.605356	0.792775
C65	C	-0.944904	-1.057560	0.336162
C66	C	-0.444904	-0.557560	0.836162
C67	C	-0.836716	-1.015653	0.374155
C68	C	-0.336716	-0.515653	0.874155
C69	C	-0.869791	-1.061061	0.332946
C70	C	-0.369791	-0.561061	0.832946
C71	C	-0.170081	-1.047005	0.345762
C72	C	0.329919	-0.547005	0.845762
C73	C	-0.091873	-1.050719	0.342449
C74	C	0.408127	-0.550719	0.842449
C75	C	-0.353639	-1.231449	0.353577
C76	C	0.146361	-0.731449	0.853577
C77	C	-0.353652	-1.313762	0.353593
C78	C	0.146348	-0.813762	0.853593
C79	C	-0.353629	-0.464473	0.353562
C80	C	0.146371	0.035527	0.853562
C81	C	-0.296670	-0.500906	0.297135
C82	C	0.203330	-0.000906	0.797135
C83	C	-0.296807	-0.586529	0.296911
C84	C	0.203193	-0.086529	0.796911
C85	C	-0.353605	-0.612858	0.353532
C86	C	0.146395	-0.112858	0.853532
C87	C	-0.426856	-0.579223	0.336429
C88	C	0.073144	-0.079223	0.836429
C89	C	-0.426536	-0.493610	0.336039
C90	C	0.073464	0.006390	0.836039
C91	C	-0.337987	-0.493458	0.427247
C92	C	0.162013	0.006542	0.927247
C93	C	-0.336319	-0.579205	0.426771
C94	C	0.163681	-0.079205	0.926771
C95	C	-0.353597	-0.696718	0.353516
C96	C	0.146403	-0.196718	0.853516
C97	C	-0.353643	-0.380612	0.353577
C98	C	0.146357	0.119388	0.853577
C99	C	-0.321357	-1.073784	0.650112
C100	C	0.178643	-0.573784	1.150112
C101	C	-0.324490	-1.070329	0.723594
C102	C	0.175510	-0.570329	1.223594
C103	C	-0.371048	-1.019105	0.762231
C104	C	0.128952	-0.519105	1.262231
C105	C	-0.414471	-0.971329	0.727380
C106	C	0.085529	-0.471329	1.227380
C107	C	-0.411333	-0.974782	0.653898
C108	C	0.088667	-0.474782	1.153898
C109	C	-0.382768	-1.006201	0.984192
C110	C	0.117232	-0.506201	1.484192
C111	C	-0.385904	-1.002753	1.057679
C112	C	0.114096	-0.502753	1.557679
C113	C	-0.295922	-1.101752	1.053888
C114	C	0.204078	-0.601752	1.553888
C115	C	-0.292792	-1.105203	0.980406
C116	C	0.207208	-0.605203	1.480406
C117	C	-0.336212	-1.057425	0.945561
C118	C	0.163788	-0.557425	1.445561
C119	C	-0.374254	-1.015573	0.837342
C120	C	0.125746	-0.515573	1.337342
C121	C	-0.333002	-1.060954	0.870451
C122	C	0.166998	-0.560954	1.370451
C123	C	-0.345822	-1.046858	1.170731
C124	C	0.154178	-0.546858	1.670731
C125	C	-0.342483	-1.050524	1.092525
C126	C	0.157517	-0.550524	1.592525
H127	H	-0.617953	-1.115491	0.283374
H128	H	-0.117953	-0.615491	0.783374
H129	H	-0.285670	-0.473505	0.443406
H130	H	0.214330	0.026495	0.943406
H131	H	-0.283446	-1.115498	0.618659
H132	H	0.216554	-0.615498	1.118659
H133	H	-1.088554	-0.961223	0.423727
H134	H	-0.588554	-0.461223	0.923727
H135	H	-1.081545	-1.140855	0.260597
H136	H	-0.581545	-0.640855	0.760597
H137	H	-0.624963	-0.935854	0.446501
H138	H	-0.124963	-0.435854	0.946501
C139	C	-0.761211	-1.122944	0.276686
C140	C	-0.261211	-0.622944	0.776686
N141	N	-0.790047	-1.162545	0.240735
N142	N	-0.290047	-0.662545	0.740735
H143	H	-0.758285	-0.929651	0.452207
H144	H	-0.258285	-0.429651	0.952207
H145	H	-0.418134	-0.967306	0.955831
H146	H	0.081866	-0.467306	1.455831
H147	H	-0.470294	-0.595830	0.376379
H148	H	0.029706	-0.095830	0.876379
H149	H	-0.423819	-0.961038	1.089135
H150	H	0.076181	-0.461038	1.589135
H151	H	-0.295092	-1.102657	0.838990
H152	H	0.204908	-0.602657	1.338990
C153	C	-0.241567	-1.161546	0.937911
C154	C	0.258433	-0.661546	1.437911
N155	N	-0.202983	-1.203984	0.905904
N156	N	0.297017	-0.703984	1.405904
H157	H	-0.375037	-0.596879	0.470810
H158	H	0.124963	-0.096879	0.970810
H159	H	-0.955241	-0.967425	0.418013
H160	H	-0.455241	-0.467425	0.918013
C161	C	-0.263513	-0.609158	0.444268
C162	C	0.236487	-0.109158	0.944268
N163	N	-0.208673	-0.631721	0.457443
N164	N	0.291327	-0.131721	0.957443
C165	C	-0.879267	-0.959306	0.425324
C166	C	-0.379267	-0.459306	0.925324
N167	N	-0.911319	-0.916864	0.463863
N168	N	-0.411319	-0.416864	0.963863
H169	H	-0.440798	-0.602416	0.283255
H170	H	0.059202	-0.102416	0.783255
C171	C	-0.223287	-0.617625	0.310895
C172	C	0.276713	-0.117625	0.810895
N173	N	-0.167907	-0.641044	0.321423
N174	N	0.332093	-0.141044	0.821423
C175	C	-0.222916	-0.475803	0.310927
C176	C	0.277084	0.024197	0.810927
N177	N	-0.167363	-0.456890	0.321315
N178	N	0.332637	0.043110	0.821315
C179	C	-0.310112	-0.474500	0.223713
C180	C	0.189888	0.025500	0.723713
N181	N	-0.320239	-0.454607	0.168412
N182	N	0.179761	0.045393	0.668412
C183	C	-0.937171	-1.161682	0.241575
C184	C	-0.437171	-0.661682	0.741575
N185	N	-0.905130	-1.204099	0.203002
N186	N	-0.405130	-0.704099	0.703002
H187	H	-0.260571	-1.140650	1.082267
H188	H	0.239429	-0.640650	1.582267
C189	C	-0.310435	-0.616891	0.223063
C190	C	0.189565	-0.116891	0.723063
N191	N	-0.320703	-0.639760	0.167437
N192	N	0.179297	-0.139760	0.667437
C193	C	-0.444954	-0.469031	0.263391
C194	C	0.055046	0.030969	0.763391
N195	N	-0.458824	-0.450522	0.208669
N196	N	0.041176	0.049478	0.708669
C197	C	-0.425462	-0.959224	0.879849
C198	C	0.074538	-0.459224	1.379849
N199	N	-0.464028	-0.916778	0.911867
N200	N	0.035972	-0.416778	1.411867
H201	H	-0.379513	-0.469436	0.469252
H202	H	0.120487	0.030564	0.969252
C203	C	-0.485582	-0.460549	0.389368
C204	C	0.014418	0.039451	0.889368
N205	N	-0.530057	-0.435651	0.429531
N206	N	-0.030057	0.064349	0.929531
C207	C	-0.276725	-1.122882	0.761921
C208	C	0.223275	-0.622882	1.261921
N209	N	-0.240746	-1.162468	0.790788
N210	N	0.259254	-0.662468	1.290788
C211	C	-0.465678	-0.914976	0.769882
C212	C	0.034322	-0.414976	1.269882
N213	N	-0.504249	-0.872529	0.801894
N214	N	-0.004249	-0.372529	1.301894
C215	C	-0.459101	-0.922231	0.615569
C216	C	0.040899	-0.422231	1.115569
N217	N	-0.495080	-0.882647	0.586700
N218	N	0.004920	-0.382647	1.086700
H219	H	-0.838298	-1.102766	0.295068
H220	H	-0.338298	-0.602766	0.795068
