data_functionalizedCrystal
_audit_creation_method	'MofGen! by Chris Wilmer'
_symmetry_space_group_name_H-M	'P1'
_symmetry_Int_Tables_number	1
_symmetry_cell_setting	triclinic
loop_
_symmetry_equiv_pos_as_xyz
  x,y,z
_cell_length_a	12.837932
_cell_length_b	15.538191
_cell_length_c	11.892095
_cell_angle_alpha	92.341637
_cell_angle_beta	85.688545
_cell_angle_gamma	71.050899
loop_
_atom_site_label
_atom_site_type_symbol
_atom_site_fract_x
_atom_site_fract_y
_atom_site_fract_z
O1	O	1.294921	0.231646	-0.093985
O2	O	0.997519	0.219942	-0.093987
O3	O	1.204112	0.093861	-0.093991
O4	O	1.088328	0.357727	-0.093981
O5	O	1.186894	0.104356	0.094017
O6	O	0.980301	0.230437	0.094020
O7	O	1.277702	0.242140	0.094023
Zn8	Zn	1.126268	0.237955	0.123872
Zn9	Zn	1.148954	0.224128	-0.123836
O10	O	1.071109	0.368221	0.094027
C11	C	0.951777	0.221236	0.000016
C12	C	0.841136	0.209445	0.000014
C13	C	0.728373	0.110898	0.000013
C14	C	0.832333	0.121971	0.000013
C15	C	0.745968	0.285854	0.000019
C16	C	0.642008	0.274781	0.000019
C17	C	0.633216	0.187301	0.000014
C18	C	0.529255	0.176229	0.000006
C19	C	0.442891	0.340111	0.000021
C20	C	0.546851	0.351183	0.000021
C21	C	1.207617	0.065100	0.000009
C22	C	1.243702	-0.036235	-0.000002
C23	C	0.885219	-0.356205	0.000019
C24	C	0.919150	-0.451425	0.000022
C25	C	1.110006	-0.456734	0.000024
C26	C	1.076091	-0.361514	0.000015
C27	C	0.963696	-0.311256	0.000014
C28	C	1.154568	-0.316565	0.000010
C29	C	1.120655	-0.221352	0.000008
C30	C	1.008265	-0.171088	0.000010
C31	C	0.929783	-0.216043	0.000012
C32	C	1.266962	-0.366823	0.000019
C33	C	1.345439	-0.321875	0.000014
C34	C	1.311528	-0.226660	0.000003
C35	C	1.199138	-0.176396	0.000006
C36	C	1.390010	-0.181705	0.000002
C37	C	1.356097	-0.086492	-0.000001
C38	C	1.165225	-0.081184	0.000004
C39	C	1.323445	0.240846	0.000017
C40	C	1.434086	0.252637	0.000011
C41	C	1.067604	0.396982	0.000024
C42	C	1.031520	0.498317	0.000027
N43	N	1.110792	0.247391	0.292926
N44	N	1.164440	0.214685	-0.292891
C45	C	1.272143	0.148969	0.529572
C46	C	1.261331	0.155572	0.647914
C47	C	1.078353	0.267196	0.647955
C48	C	1.089166	0.260593	0.529613
C49	C	1.186064	0.201478	0.470425
C50	C	1.196879	0.194880	0.352081
C51	C	1.013899	0.306499	0.352124
C52	C	1.003087	0.313102	0.470466
H53	H	0.365399	0.402323	0.000022
Cl54	Cl	1.393962	0.074665	0.455163
Cl55	Cl	1.454753	-0.029979	0.000014
H56	H	0.855234	-0.488017	0.000043
Cl57	Cl	0.557917	0.461153	0.000025
Cl58	Cl	1.369548	0.089555	0.722266
H59	H	1.073702	-0.040261	-0.000005
H60	H	0.909811	0.059756	0.000012
H61	H	0.753146	0.357077	0.000034
H62	H	0.980655	-0.093559	0.000015
Cl63	Cl	1.318694	0.120568	0.277676
Cl64	Cl	0.717316	0.000926	0.000000
H65	H	0.838261	-0.175121	0.000003
H66	H	0.999456	0.315319	0.696160
Cl67	Cl	0.881276	0.387412	0.544881
H68	H	1.294571	-0.444352	0.000011
Cl69	Cl	0.905686	0.372519	0.277758
H70	H	0.793696	-0.315283	0.000010
H71	H	1.201517	-0.497667	0.000029
H72	H	1.436951	-0.362807	0.000019
H73	H	0.522101	0.104997	-0.000002
H74	H	1.481521	-0.222638	0.000014
