data_functionalizedCrystal
_audit_creation_method	'MofGen! by Chris Wilmer'
_symmetry_space_group_name_H-M	'P1'
_symmetry_Int_Tables_number	1
_symmetry_cell_setting	triclinic
loop_
_symmetry_equiv_pos_as_xyz
  x,y,z
_cell_length_a	27.732064
_cell_length_b	26.809956
_cell_length_c	27.732048
_cell_angle_alpha	89.990422
_cell_angle_beta	97.353960
_cell_angle_gamma	90.008415
loop_
_atom_site_label
_atom_site_type_symbol
_atom_site_fract_x
_atom_site_fract_y
_atom_site_fract_z
O1	O	0.640930	0.041396	-0.057554
O2	O	1.140930	0.541396	0.442446
O3	O	0.500138	0.041417	-0.066291
O4	O	1.000138	0.541417	0.433709
O5	O	0.574907	0.041396	0.008474
O6	O	1.074907	0.541396	0.508474
O7	O	0.566161	0.041417	-0.132319
O8	O	1.066161	0.541417	0.367681
O9	O	0.574884	-0.041563	0.008474
O10	O	1.074884	0.458437	0.508474
O11	O	0.500115	-0.041542	-0.066291
O12	O	1.000115	0.458458	0.433709
O13	O	0.640907	-0.041563	-0.057554
O14	O	1.140907	0.458437	0.442446
Zn15	Zn	0.570507	-0.054724	-0.061923
Zn16	Zn	1.070507	0.445276	0.438077
Zn17	Zn	0.570538	0.054578	-0.061923
Zn18	Zn	1.070538	0.554578	0.438077
O19	O	0.566138	-0.041543	-0.132319
O20	O	1.066138	0.458457	0.367681
C21	C	0.482120	-0.000060	-0.066106
C22	C	0.982120	0.499940	0.433894
C23	C	0.428465	-0.000052	-0.065551
C24	C	0.928465	0.499948	0.434449
C25	C	0.051392	-0.000087	-0.017583
C26	C	0.551392	0.499913	0.482417
C27	C	0.253053	-0.000074	-0.019630
C28	C	0.753053	0.499926	0.480370
O29	O	0.284305	-0.000098	0.017591
O30	O	0.784305	0.499902	0.517591
N31	N	0.272180	-0.000066	-0.063964
N32	N	0.772180	0.499934	0.436036
C33	C	0.240889	-0.000064	-0.107790
C34	C	0.740889	0.499936	0.392210
O35	O	0.261785	-0.000061	-0.145546
O36	O	0.761785	0.499939	0.354454
C37	C	0.039230	-0.000080	-0.105743
C38	C	0.539230	0.499920	0.394257
C39	C	0.020105	-0.000084	-0.061406
C40	C	0.520105	0.499916	0.438594
C41	C	0.032267	-0.000092	0.026750
C42	C	0.532267	0.499908	0.526750
C43	C	-0.018145	-0.000092	0.027261
C44	C	0.481855	0.499908	0.527261
C45	C	-0.049432	-0.000089	-0.016561
C46	C	0.450568	0.499911	0.483439
C47	C	-0.030307	-0.000085	-0.060895
C48	C	0.469693	0.499915	0.439105
C49	C	0.007940	-0.000082	-0.149568
C50	C	0.507940	0.499918	0.350432
C51	C	-0.042478	-0.000087	-0.149053
C52	C	0.457522	0.499913	0.350947
C53	C	-0.061602	-0.000091	-0.104716
C54	C	0.438398	0.499909	0.395284
C55	C	-0.112006	-0.000082	-0.104206
C56	C	0.387994	0.499918	0.395794
N57	N	-0.131134	-0.000090	-0.059872
N58	N	0.368866	0.499910	0.440128
C59	C	-0.099846	-0.000094	-0.016049
C60	C	0.400154	0.499906	0.483951
C61	C	0.346763	-0.000054	-0.108861
C62	C	0.846763	0.499946	0.391139
C63	C	0.397178	-0.000049	-0.109373
C64	C	0.897178	0.499951	0.390627
C65	C	0.409338	-0.000060	-0.021213
C66	C	0.909338	0.499940	0.478787
C67	C	0.358923	-0.000062	-0.020701
C68	C	0.858923	0.499938	0.479299
C69	C	0.327636	-0.000062	-0.064527
C70	C	0.827636	0.499938	0.435473
C71	C	-0.205716	-0.000095	-0.014979
C72	C	0.294284	0.499905	0.485021
C73	C	-0.256133	-0.000093	-0.014472
C74	C	0.243867	0.499907	0.485528
C75	C	-0.268289	-0.000084	-0.102632
C76	C	0.231711	0.499916	0.397368
C77	C	-0.217876	-0.000083	-0.103140
C78	C	0.282124	0.499917	0.396860
C79	C	-0.186590	-0.000090	-0.059309
C80	C	0.313410	0.499910	0.440691
O81	O	-0.143287	-0.000063	-0.141407
O82	O	0.356713	0.499937	0.358593
O83	O	-0.120752	-0.000107	0.021701
O84	O	0.379248	0.499893	0.521701
C85	C	0.101804	-0.000087	-0.018094
C86	C	0.601804	0.499913	0.481906
C87	C	0.120929	-0.000083	-0.062428
C88	C	0.620929	0.499917	0.437572
C89	C	0.089642	-0.000079	-0.106250
C90	C	0.589642	0.499921	0.393750
C91	C	0.171344	-0.000078	-0.062940
C92	C	0.671344	0.499922	0.437060
C93	C	0.202631	-0.000081	-0.019117
C94	C	0.702631	0.499919	0.480883
C95	C	0.183504	-0.000090	0.025217
C96	C	0.683504	0.499910	0.525217
C97	C	0.133092	-0.000090	0.025728
C98	C	0.633092	0.499910	0.525728
C99	C	0.108770	-0.000071	-0.150585
C100	C	0.608770	0.499929	0.349415
C101	C	0.159183	-0.000069	-0.151092
C102	C	0.659183	0.499931	0.348908
C103	C	0.190470	-0.000073	-0.107270
C104	C	0.690470	0.499927	0.392730
N105	N	0.570490	-0.129320	-0.061922
N106	N	1.070490	0.370680	0.438078
C107	C	0.599628	-0.473947	-0.091035
C108	C	1.099628	0.026053	0.408965
C109	C	0.599644	-0.682824	-0.091035
C110	C	1.099644	-0.182824	0.408965
O111	O	0.624404	-0.709828	-0.115782
O112	O	1.124404	-0.209828	0.384218
N113	N	0.570549	-0.708947	-0.061918
N114	N	1.070549	-0.208947	0.438082
C115	C	0.541451	-0.682848	-0.032796
C116	C	1.041451	-0.182848	0.467204
O117	O	0.516709	-0.709860	-0.008027
O118	O	1.016709	-0.209860	0.491973
C119	C	0.541439	-0.473971	-0.032794
C120	C	1.041439	0.026029	0.467206
C121	C	0.570531	-0.447851	-0.061917
C122	C	1.070531	0.052149	0.438083
C123	C	0.628718	-0.447826	-0.120155
C124	C	1.128718	0.052174	0.379845
C125	C	0.628712	-0.395610	-0.120157
C126	C	1.128712	0.104390	0.379843
C127	C	0.599615	-0.369514	-0.091039
C128	C	1.099615	0.130486	0.408961
C129	C	0.570525	-0.395634	-0.061919
C130	C	1.070525	0.104366	0.438081
C131	C	0.512344	-0.447872	-0.003671
C132	C	1.012344	0.052128	0.496329
C133	C	0.512344	-0.395650	-0.003672
C134	C	1.012344	0.104350	0.496328
C135	C	0.541436	-0.369530	-0.032795
C136	C	1.041436	0.130470	0.467205
C137	C	0.541422	-0.317322	-0.032803
C138	C	1.041422	0.182678	0.467197
N139	N	0.570516	-0.291199	-0.061920
N140	N	1.070516	0.208801	0.438080
C141	C	0.599613	-0.317295	-0.091038
C142	C	1.099613	0.182705	0.408962
C143	C	0.541459	-0.792511	-0.032800
C144	C	1.041459	-0.292511	0.467200
C145	C	0.541462	-0.844730	-0.032801
C146	C	1.041462	-0.344730	0.467199
C147	C	0.599655	-0.844703	-0.091039
C148	C	1.099655	-0.344703	0.408961
C149	C	0.599649	-0.792483	-0.091040
C150	C	1.099649	-0.292483	0.408960
C151	C	0.570554	-0.766388	-0.061917
C152	C	1.070554	-0.266388	0.438083
C153	C	0.599598	-0.207637	-0.091040
C154	C	1.099598	0.292363	0.408960
C155	C	0.599587	-0.155416	-0.091040
C156	C	1.099587	0.344584	0.408960
C157	C	0.541396	-0.155448	-0.032801
C158	C	1.041396	0.344552	0.467199
C159	C	0.541404	-0.207664	-0.032802
C160	C	1.041404	0.292336	0.467198
C161	C	0.570509	-0.233757	-0.061923
C162	C	1.070509	0.266243	0.438077
O163	O	0.516678	-0.290286	-0.008064
O164	O	1.016678	0.209714	0.491936
O165	O	0.624360	-0.290274	-0.115795
O166	O	1.124360	0.209726	0.384205
C167	C	0.599634	-0.526163	-0.091033
C168	C	1.099634	-0.026163	0.408967
C169	C	0.570543	-0.552283	-0.061913
C170	C	1.070543	-0.052283	0.438087
C171	C	0.541447	-0.526187	-0.032795
C172	C	1.041447	-0.026187	0.467205
C173	C	0.570546	-0.604502	-0.061914
C174	C	1.070546	-0.104502	0.438086
C175	C	0.599643	-0.630598	-0.091032
C176	C	1.099643	-0.130598	0.408968
C177	C	0.628737	-0.604475	-0.120150
C178	C	1.128737	-0.104475	0.379850
C179	C	0.628731	-0.552259	-0.120151
C180	C	1.128731	-0.052259	0.379849
C181	C	0.512352	-0.552310	-0.003678
C182	C	1.012352	-0.052310	0.496322
C183	C	0.512360	-0.604527	-0.003679
C184	C	1.012360	-0.104527	0.496321
C185	C	0.541457	-0.630623	-0.032797
C186	C	1.041457	-0.130623	0.467203
C187	C	0.658925	-0.000085	-0.057739
C188	C	1.158925	0.499915	0.442261
C189	C	0.712580	-0.000090	-0.058295
C190	C	1.212580	0.499910	0.441705
C191	C	0.574712	-0.000085	0.026481
C192	C	1.074712	0.499915	0.526481
C193	C	0.574159	-0.000089	0.080136
C194	C	1.074159	0.499911	0.580136
N195	N	0.570558	0.129174	-0.061919
N196	N	1.070558	0.629174	0.438081
C197	C	0.566333	-0.000060	-0.150326
C198	C	1.066333	0.499940	0.349674
C199	C	0.566886	-0.000053	-0.203981
C200	C	1.066886	0.499947	0.296019
C201	C	0.614862	-0.000069	0.418948
C202	C	1.114862	0.499931	0.918948
C203	C	0.612811	-0.000062	0.620608
C204	C	1.112811	0.499938	1.120608
O205	O	0.650032	-0.000046	0.651862
O206	O	1.150032	0.499954	1.151862
N207	N	0.568476	-0.000056	0.639735
N208	N	1.068476	0.499944	1.139735
C209	C	0.524651	-0.000048	0.608442
C210	C	1.024651	0.499952	1.108442
O211	O	0.486895	-0.000037	0.629338
O212	O	0.986895	0.499963	1.129338
C213	C	0.526703	-0.000052	0.406784
C214	C	1.026703	0.499948	0.906784
C215	C	0.571040	-0.000063	0.387660
C216	C	1.071040	0.499937	0.887660
C217	C	0.659196	-0.000080	0.399824
C218	C	1.159196	0.499920	0.899824
C219	C	0.659709	-0.000084	0.349412
C220	C	1.159709	0.499916	0.849412
C221	C	0.615887	-0.000078	0.318124
C222	C	1.115887	0.499922	0.818124
C223	C	0.571553	-0.000067	0.337248
C224	C	1.071553	0.499933	0.837248
C225	C	0.482878	-0.000040	0.375493
C226	C	0.982878	0.499960	0.875493
C227	C	0.483395	-0.000040	0.325075
C228	C	0.983395	0.499960	0.825075
C229	C	0.527733	-0.000051	0.305952
C230	C	1.027733	0.499949	0.805952
C231	C	0.528243	-0.000066	0.255548
C232	C	1.028243	0.499934	0.755548
N233	N	0.572578	-0.000072	0.236422
N234	N	1.072578	0.499928	0.736422
C235	C	0.616400	-0.000078	0.267710
C236	C	1.116400	0.499922	0.767710
C237	C	0.523577	-0.000047	0.714317
C238	C	1.023577	0.499953	1.214317
C239	C	0.523064	-0.000047	0.764731
C240	C	1.023064	0.499953	1.264731
C241	C	0.611225	-0.000060	0.776893
C242	C	1.111225	0.499940	1.276893
C243	C	0.611737	-0.000064	0.726478
C244	C	1.111737	0.499936	1.226478
C245	C	0.567912	-0.000053	0.695190
C246	C	1.067912	0.499947	1.195190
C247	C	0.617472	-0.000088	0.161841
C248	C	1.117472	0.499912	0.661841
C249	C	0.617981	-0.000095	0.111424
C250	C	1.117981	0.499905	0.611424
C251	C	0.529821	-0.000079	0.099266
C252	C	1.029821	0.499921	0.599266
C253	C	0.529312	-0.000075	0.149679
C254	C	1.029312	0.499925	0.649679
C255	C	0.573142	-0.000078	0.180965
C256	C	1.073142	0.499922	0.680965
O257	O	0.491043	-0.000076	0.224267
O258	O	0.991043	0.499924	0.724267
O259	O	0.654151	-0.000078	0.246805
O260	O	1.154151	0.499922	0.746805
C261	C	0.614350	-0.000065	0.469360
C262	C	1.114350	0.499935	0.969360
C263	C	0.570016	-0.000054	0.488484
C264	C	1.070016	0.499946	0.988484
C265	C	0.526194	-0.000048	0.457196
C266	C	1.026194	0.499952	0.957196
C267	C	0.569503	-0.000054	0.538899
C268	C	1.069503	0.499946	1.038899
C269	C	0.613325	-0.000060	0.570187
C270	C	1.113325	0.499940	1.070187
C271	C	0.657660	-0.000066	0.551060
C272	C	1.157660	0.499934	1.051060
C273	C	0.658172	-0.000071	0.500648
C274	C	1.158172	0.499929	1.000648
C275	C	0.481859	-0.000041	0.476323
C276	C	0.981859	0.499959	0.976323
C277	C	0.481351	-0.000037	0.526735
C278	C	0.981351	0.499963	1.026735
C279	C	0.525172	-0.000044	0.558023
C280	C	1.025172	0.499956	1.058023
H281	H	-0.033711	-0.000097	0.063365
H282	H	0.466289	0.499903	0.563365
N283	N	0.477774	-0.000031	0.784261
N284	N	0.977774	0.499969	1.284261
N285	N	0.467660	0.034943	0.811028
N286	N	0.967660	0.534943	1.311028
H287	H	0.435672	0.034957	0.824820
H288	H	0.935672	0.534957	1.324820
N289	N	0.658443	-0.368937	-0.149895
N290	N	1.158443	0.131063	0.350105
N291	N	0.690546	-0.339799	-0.130803
N292	N	1.190546	0.160201	0.369197
H293	H	0.711547	-0.320965	-0.151807
H294	H	1.211547	0.179035	0.348193
H295	H	0.487888	-0.000039	0.688846
H296	H	0.987888	0.499961	1.188846
N297	N	0.416702	-0.000034	-0.154667
N298	N	0.916702	0.499966	0.345333
N299	N	0.388756	-0.000031	-0.193788
N300	N	0.888756	0.499969	0.306212
H301	H	0.402542	-0.000022	-0.225779
H302	H	0.902542	0.499978	0.274221
N303	N	0.511747	-0.871408	-0.003050
N304	N	1.011747	-0.371408	0.496950
N305	N	0.530863	-0.900547	0.029041
N306	N	1.030863	-0.400547	0.529041
H307	H	0.509878	-0.919387	0.050055
H308	H	1.009878	-0.419387	0.550055
H309	H	-0.067950	-0.000090	-0.184742
H310	H	0.432050	0.499910	0.315258
H311	H	0.446774	-0.000028	0.391054
H312	H	0.946774	0.499972	0.891054
H313	H	0.623297	-0.228876	-0.114752
H314	H	1.123297	0.271124	0.385248
H315	H	0.321293	-0.000054	-0.144551
H316	H	0.821293	0.499946	0.355449
N317	N	0.437094	-0.000048	0.444366
N318	N	0.937094	0.499952	0.944366
N319	N	0.427534	-0.035022	0.414889
N320	N	0.927534	0.464978	0.914889
H321	H	0.395916	-0.035031	0.392321
H322	H	0.895916	0.464969	0.892321
H323	H	-0.271701	-0.000095	0.021634
H324	H	0.228299	0.499905	0.521634
N325	N	0.704995	-0.000096	0.329875
N326	N	1.204995	0.499904	0.829875
N327	N	0.715114	-0.035067	0.303108
N328	N	1.215114	0.464933	0.803108
H329	H	0.747100	-0.035074	0.289312
H330	H	1.247100	0.464926	0.789312
N331	N	0.658451	-0.631136	-0.149902
N332	N	1.158451	-0.131136	0.350098
N333	N	0.639335	-0.660274	-0.181988
N334	N	1.139335	-0.160274	0.318012
H335	H	0.660321	-0.679105	-0.202999
H336	H	1.160321	-0.179105	0.297001
N337	N	0.485054	-0.000073	0.067310
N338	N	0.985054	0.499927	0.567310
N339	N	0.455466	-0.035032	0.068869
N340	N	0.955466	0.464968	0.568869
H341	H	0.423849	-0.035025	0.046300
H342	H	0.923849	0.464975	0.546300
H343	H	0.517705	-0.134191	-0.009095
H344	H	1.017705	0.365809	0.490905
N345	N	0.484022	-0.000058	0.169213
N346	N	0.984022	0.499942	0.669213
N347	N	0.473908	0.034919	0.195974
N348	N	0.973908	0.534919	0.695974
H349	H	0.441920	0.034936	0.209767
H350	H	0.941920	0.534936	0.709767
H351	H	0.652415	-0.469068	-0.143866
H352	H	1.152415	0.030932	0.356134
H353	H	0.208987	-0.000090	0.060899
H354	H	0.708987	0.499910	0.560899
H355	H	0.488665	-0.625790	0.020035
H356	H	0.988665	-0.125790	0.520035
H357	H	0.623339	-0.771219	-0.114755
H358	H	1.123339	-0.271219	0.385245
N359	N	0.629369	-0.871372	-0.120785
N360	N	1.129369	-0.371372	0.379215
N361	N	0.629361	-0.917996	-0.120780
N362	N	1.129361	-0.417996	0.379220
H363	H	0.650346	-0.936834	-0.141786
H364	H	1.150346	-0.436834	0.358214
H365	H	0.517765	-0.771269	-0.009083
H366	H	1.017765	-0.271269	0.490917
N367	N	0.076813	-0.000059	-0.195350
N368	N	0.576813	0.499941	0.304650
N369	N	0.047329	0.034911	-0.204904
N370	N	0.547329	0.534911	0.295096
H371	H	0.024759	0.034921	-0.236521
H372	H	0.524759	0.534921	0.263479
N373	N	0.703466	-0.000084	0.481126
N374	N	1.203466	0.499916	0.981126
N375	N	0.742586	-0.000090	0.509076
N376	N	1.242586	0.499910	1.009076
H377	H	0.774578	-0.000100	0.495292
H378	H	1.274578	0.499900	0.995292
N379	N	0.657026	-0.000082	0.706945
N380	N	1.157026	0.499918	1.206945
N381	N	0.686471	-0.035059	0.716654
N382	N	1.186471	0.464941	1.216654
H383	H	0.718458	-0.035072	0.702862
H384	H	1.218458	0.464928	1.202862
H385	H	0.057737	-0.000096	0.062438
H386	H	0.557737	0.499904	0.562438
H387	H	0.488654	-0.469131	0.020045
H388	H	0.988654	0.030869	0.520045
H389	H	-0.180248	-0.000100	0.020712
H390	H	0.319752	0.499900	0.520712
N391	N	-0.198331	-0.000070	-0.148424
N392	N	0.301669	0.499930	0.351576
N393	N	-0.171549	0.034898	-0.158548
N394	N	0.328451	0.534898	0.341452
H395	H	-0.157748	0.034904	-0.190531
H396	H	0.342252	0.534904	0.309469
H397	H	0.023501	-0.000077	-0.185672
H398	H	0.523501	0.499923	0.314328
H399	H	0.488650	-0.374406	0.020045
H400	H	0.988650	0.125594	0.520045
H401	H	0.693341	-0.000074	0.576544
H402	H	1.193341	0.499926	1.076544
N403	N	0.178706	-0.000060	-0.196389
N404	N	0.678706	0.499940	0.303611
N405	N	0.150760	-0.000057	-0.235511
N406	N	0.650760	0.499943	0.264489
H407	H	0.164546	-0.000053	-0.267502
H408	H	0.664546	0.499947	0.232498
H409	H	0.646906	-0.000065	0.802377
H410	H	1.146906	0.499935	1.302377
N411	N	0.658450	-0.525589	-0.149904
N412	N	1.158450	-0.025589	0.350096
N413	N	0.684425	-0.548904	-0.175898
N414	N	1.184425	-0.048904	0.324102
H415	H	0.705416	-0.530072	-0.196912
H416	H	1.205416	-0.030072	0.303088
H417	H	0.517709	-0.228932	-0.009094
H418	H	1.017709	0.271068	0.490906
H419	H	0.445243	-0.000033	0.542300
H420	H	0.945243	0.499967	1.042300
N421	N	-0.300254	-0.000093	-0.147393
N422	N	0.199746	0.499907	0.352607
N423	N	-0.298703	-0.035064	-0.176958
N424	N	0.201297	0.464936	0.323042
H425	H	-0.321280	-0.035074	-0.208571
H426	H	0.178720	0.464926	0.291429
H427	H	0.343355	-0.000065	0.015402
H428	H	0.843355	0.499935	0.515402
N429	N	0.482631	-0.525660	0.026070
N430	N	0.982631	-0.025660	0.526070
N431	N	0.488753	-0.531500	0.071159
N432	N	0.988753	-0.031500	0.571159
H433	H	0.467758	-0.512681	0.092169
H434	H	0.967758	-0.012681	0.592169
N435	N	0.441295	-0.000062	0.023556
N436	N	0.941295	0.499938	0.523556
N437	N	0.439744	0.034898	0.053133
N438	N	0.939744	0.534898	0.553133
H439	H	0.462315	0.034894	0.084749
H440	H	0.962315	0.534894	0.584749
N441	N	0.113568	-0.000092	0.071022
N442	N	0.613568	0.499908	0.571022
N443	N	0.141517	-0.000095	0.110142
N444	N	0.641517	0.499905	0.610142
H445	H	0.127732	-0.000096	0.142134
H446	H	0.627732	0.499904	0.642134
N447	N	0.629307	-0.128743	-0.120794
N448	N	1.129307	0.371257	0.379206
N449	N	0.655285	-0.152053	-0.146788
N450	N	1.155285	0.347947	0.353212
H451	H	0.676275	-0.133218	-0.167801
H452	H	1.176275	0.366782	0.332199
H453	H	0.447706	-0.000031	0.299603
H454	H	0.947706	0.499969	0.799603
N455	N	0.663277	-0.000110	0.091899
N456	N	1.163277	0.499890	0.591899
N457	N	0.702399	-0.000116	0.119844
N458	N	1.202399	0.499884	0.619844
H459	H	0.734389	-0.000126	0.106056
H460	H	1.234389	0.499874	0.606056
H461	H	0.653163	-0.000089	0.187309
H462	H	1.153163	0.499911	0.687309
H463	H	0.694883	-0.000083	0.425295
H464	H	1.194883	0.499917	0.925295
