data_functionalizedCrystal
_audit_creation_method	'MofGen! by Chris Wilmer'
_symmetry_space_group_name_H-M	'P1'
_symmetry_Int_Tables_number	1
_symmetry_cell_setting	triclinic
loop_
_symmetry_equiv_pos_as_xyz
  x,y,z
_cell_length_a	12.759401
_cell_length_b	16.625545
_cell_length_c	12.759393
_cell_angle_alpha	90.033904
_cell_angle_beta	90.019377
_cell_angle_gamma	90.027265
loop_
_atom_site_label
_atom_site_type_symbol
_atom_site_fract_x
_atom_site_fract_y
_atom_site_fract_z
Zn1	Zn	1.606176	-0.320917	0.593989
Zn2	Zn	1.606037	-0.455774	0.418302
Zn3	Zn	1.430478	-0.320963	0.418326
Zn4	Zn	1.430433	-0.455716	0.593941
O5	O	1.518281	-0.388343	0.506139
O6	O	1.753179	-0.338812	0.570694
O7	O	1.582709	-0.437935	0.271284
O8	O	1.453862	-0.208125	0.441658
O9	O	1.753077	-0.437890	0.441617
O10	O	1.582946	-0.208091	0.570717
O11	O	1.453727	-0.338890	0.271301
O12	O	1.283451	-0.338833	0.441611
O13	O	1.453786	-0.437791	0.740968
O14	O	1.283418	-0.437835	0.570635
O15	O	1.582903	-0.338755	0.741004
O16	O	1.582666	-0.568599	0.441571
O17	O	1.453651	-0.568556	0.570612
C18	C	1.245314	-0.388333	0.506121
C19	C	1.128537	-0.388349	0.506138
C20	C	0.964009	-0.336849	0.573464
C21	C	1.073733	-0.336846	0.573452
C22	C	1.073611	-0.439863	0.438838
C23	C	0.963889	-0.439868	0.438855
C24	C	0.964081	-0.277370	0.651179
C25	C	1.073805	-0.277368	0.651168
C26	C	1.518167	-0.597834	0.506106
C27	C	1.518214	-0.687455	0.506127
C28	C	1.518255	-0.760237	0.506148
C29	C	1.518316	-0.851545	0.506171
C30	C	1.518371	-0.924322	0.506185
C31	C	1.518431	-1.015636	0.506206
C32	C	1.792314	-0.388352	0.506158
C33	C	1.909091	-0.388357	0.506167
C34	C	1.518355	-0.388261	0.780173
C35	C	1.518386	-0.388227	0.896950
C36	C	1.518424	-0.178034	0.506196
C37	C	1.518485	-0.088413	0.506219
C38	C	1.518268	-0.388365	0.233172
C39	C	1.518441	-0.388173	0.116396
C40	C	1.585627	-0.336654	0.951832
C41	C	1.585652	-0.336625	1.061556
C42	C	1.451193	-0.439748	1.061506
C43	C	1.451163	-0.439773	0.951784
C44	C	1.663259	-0.277119	0.951861
C45	C	1.663284	-0.277089	1.061586
H46	H	0.930065	-0.218027	0.622175
Br47	Br	1.123487	-0.173255	0.615070
Br48	Br	1.359883	-0.509751	0.877303
H49	H	1.396460	-0.481713	1.106165
H50	H	1.118241	-0.481803	0.384037
Br51	Br	1.627005	-0.173046	0.902261
Br52	Br	1.130578	-0.314764	0.779901
H53	H	0.934336	-0.294166	0.732517
Br54	Br	1.792039	-0.314424	0.895121
Br55	Br	1.614613	-0.178255	1.118351
Br56	Br	1.798899	-0.304946	1.111229
H57	H	0.919179	-0.481818	0.384065
