data_functionalizedCrystal
_audit_creation_method	'MofGen! by Chris Wilmer'
_symmetry_space_group_name_H-M	'P1'
_symmetry_Int_Tables_number	1
_symmetry_cell_setting	triclinic
loop_
_symmetry_equiv_pos_as_xyz
  x,y,z
_cell_length_a	15.944551
_cell_length_b	16.109301
_cell_length_c	14.586319
_cell_angle_alpha	90.000846
_cell_angle_beta	89.999016
_cell_angle_gamma	96.519891
loop_
_atom_site_label
_atom_site_type_symbol
_atom_site_fract_x
_atom_site_fract_y
_atom_site_fract_z
O1	O	-1.114488	0.107227	-0.076135
O2	O	-0.614488	0.607227	0.423865
O3	O	-0.869934	0.120447	-0.076157
O4	O	-0.369934	0.620447	0.423843
O5	O	-0.998929	-0.007192	-0.076150
O6	O	-0.498929	0.492808	0.423850
O7	O	-0.985492	0.234866	-0.076142
O8	O	-0.485492	0.734866	0.423858
O9	O	-0.998920	-0.007194	0.076331
O10	O	-0.498920	0.492806	0.576331
O11	O	-0.869925	0.120445	0.076324
O12	O	-0.369925	0.620445	0.576324
O13	O	-1.114479	0.107225	0.076346
O14	O	-0.614479	0.607225	0.576346
Cu15	Cu	-0.992201	0.113835	0.090258
Cu16	Cu	-0.492201	0.613835	0.590258
Cu17	Cu	-0.992211	0.113837	-0.090069
Cu18	Cu	-0.492211	0.613837	0.409931
O19	O	-0.985484	0.234864	0.076339
O20	O	-0.485484	0.734864	0.576339
C21	C	-0.838635	0.119897	0.000081
C22	C	-0.338635	0.619897	0.500081
C23	C	-0.745390	0.118252	0.000072
C24	C	-0.245390	0.618252	0.500072
C25	C	-0.998380	-0.038168	0.000087
C26	C	-0.498380	0.461832	0.500087
C27	C	-0.996748	-0.130464	0.000077
C28	C	-0.496748	0.369536	0.500077
C29	C	-1.145777	0.107775	0.000106
C30	C	-0.645777	0.607775	0.500106
C31	C	-1.239022	0.109420	0.000109
C32	C	-0.739022	0.609420	0.500109
C33	C	-0.530561	0.035203	0.000087
C34	C	-0.030561	0.535203	0.500087
C35	C	-0.469532	0.073769	-0.075093
C36	C	0.030468	0.573769	0.424907
C37	C	-0.574665	0.115275	0.000083
C38	C	-0.074665	0.615275	0.500083
C39	C	-0.469546	0.073786	0.075241
C40	C	0.030454	0.573786	0.575241
C41	C	-0.409753	0.112394	0.000097
C42	C	0.090247	0.612394	0.500097
C43	C	-0.514865	0.153864	-0.075159
C44	C	-0.014865	0.653864	0.424841
C45	C	-0.514884	0.153870	0.075243
C46	C	-0.014884	0.653870	0.575243
C47	C	-0.453874	0.192494	0.000044
C48	C	0.046126	0.692494	0.500044
C49	C	-0.669667	0.116933	0.000074
C50	C	-0.169667	0.616933	0.500074
C51	C	-0.314753	0.110743	0.000100
C52	C	0.185247	0.610743	0.500100
C53	C	-0.986032	0.265840	0.000100
C54	C	-0.486032	0.765840	0.500100
C55	C	-0.987664	0.358136	0.000103
C56	C	-0.487664	0.858136	0.500103
N57	N	-0.992200	0.113833	0.217089
N58	N	-0.492200	0.613833	0.717089
C59	C	-0.914915	0.580385	0.000084
C60	C	-0.414915	1.080385	0.500084
C61	C	-0.916455	0.667106	0.000077
C62	C	-0.416455	1.167106	0.500077
C63	C	-1.069503	0.647281	0.000094
C64	C	-0.569503	1.147281	0.500094
C65	C	-1.067962	0.560562	0.000095
C66	C	-0.567962	1.060562	0.500095
C67	C	-0.990666	0.527116	0.000094
C68	C	-0.490666	1.027116	0.500094
C69	C	-0.993746	0.700556	0.000087
C70	C	-0.493746	1.200556	0.500087
C71	C	-0.995416	0.794583	0.000080
C72	C	-0.495416	1.294583	0.500080
C73	C	-0.988995	0.433084	0.000100
C74	C	-0.488995	0.933084	0.500100
N75	N	-0.992219	0.113833	-0.216900
N76	N	-0.492219	0.613833	0.283100
C77	C	-1.049337	0.057333	0.452099
C78	C	-0.549337	0.557333	0.952099
C79	C	-1.049340	0.057331	0.548080
C80	C	-0.549340	0.557331	1.048080
C81	C	-0.935075	0.170335	0.548083
C82	C	-0.435075	0.670335	1.048083
C83	C	-0.935070	0.170332	0.452104
C84	C	-0.435070	0.670332	0.952104
C85	C	-0.992205	0.113833	0.404114
C86	C	-0.492205	0.613833	0.904114
C87	C	-0.992214	0.113833	0.596075
C88	C	-0.492214	0.613833	1.096075
C89	C	-0.992216	0.113831	0.700142
C90	C	-0.492216	0.613831	1.200142
C91	C	-0.992202	0.113833	0.300040
C92	C	-0.492202	0.613833	0.800040
H93	H	-0.563915	-0.031251	-0.000008
H94	H	-0.063915	0.468749	0.499992
H95	H	-0.449437	0.039902	-0.138654
H96	H	0.050563	0.539902	0.361346
H97	H	-0.535001	0.187708	0.138807
H98	H	-0.035001	0.687708	0.638807
F99	F	-0.874256	0.230466	0.401031
F100	F	-0.374256	0.730466	0.901031
F101	F	-0.443302	0.029501	0.158315
F102	F	0.056698	0.529501	0.658315
F103	F	-0.835830	0.723795	0.000062
F104	F	-0.335830	1.223795	0.500062
H105	H	-0.534845	0.187707	-0.138787
H106	H	-0.034845	0.687707	0.361213
F107	F	-0.410501	0.279442	-0.000005
F108	F	0.089499	0.779442	0.499995
H109	H	-0.851975	0.553157	0.000086
H110	H	-0.351975	1.053157	0.500086
H111	H	-0.888558	0.216337	0.587166
H112	H	-0.388558	0.716337	1.087166
H113	H	-1.132435	0.674523	0.000104
H114	H	-0.632435	1.174523	0.500104
F115	F	-1.148591	0.503865	0.000101
F116	F	-0.648591	1.003865	0.500101
H117	H	-1.095861	0.011324	0.587146
H118	H	-0.595861	0.511324	1.087146
F119	F	-1.110144	-0.002801	0.401028
F120	F	-0.610144	0.497199	0.901028
