data_functionalizedCrystal
_audit_creation_method	'MofGen! by Chris Wilmer'
_symmetry_space_group_name_H-M	'P1'
_symmetry_Int_Tables_number	1
_symmetry_cell_setting	triclinic
loop_
_symmetry_equiv_pos_as_xyz
  x,y,z
_cell_length_a	14.519731
_cell_length_b	10.489741
_cell_length_c	13.596369
_cell_angle_alpha	89.994306
_cell_angle_beta	90.006433
_cell_angle_gamma	95.885987
loop_
_atom_site_label
_atom_site_type_symbol
_atom_site_fract_x
_atom_site_fract_y
_atom_site_fract_z
O1	O	-1.224768	0.167333	-0.081816
O2	O	-0.956401	0.186995	-0.081813
O3	O	-1.096691	-0.008497	-0.081809
O4	O	-1.084478	0.362825	-0.081820
O5	O	-1.096677	-0.008507	0.081774
O6	O	-0.956387	0.186984	0.081770
O7	O	-1.224754	0.167323	0.081767
Zn8	Zn	-1.090568	0.177152	0.107741
Zn9	Zn	-1.090587	0.177166	-0.107787
O10	O	-1.084464	0.362814	0.081763
C11	C	-0.922029	0.186068	-0.000021
C12	C	-0.819634	0.183308	-0.000019
C13	C	-0.736478	0.181064	-0.000021
C14	C	-0.632154	0.178261	-0.000020
C15	C	-0.549003	0.176037	-0.000018
C16	C	-0.444672	0.173234	-0.000018
C17	C	-1.095762	-0.056024	-0.000018
C18	C	-1.093002	-0.197625	-0.000019
C19	C	-1.003739	-0.264844	-0.000025
C20	C	-1.045899	-0.357407	0.080629
C21	C	-1.045934	-0.357372	-0.080651
C22	C	-1.135198	-0.288323	0.080701
C23	C	-1.135221	-0.288278	-0.080651
C24	C	-1.177446	-0.380814	0.000023
C25	C	-0.259125	0.168249	-0.000023
C26	C	-0.361521	0.171010	-0.000016
C27	C	-1.085393	0.410342	-0.000030
C28	C	-1.088153	0.551943	-0.000035
N29	N	-1.090562	0.177142	0.254833
N30	N	-1.090600	0.177166	-0.254878
C31	C	-1.090586	0.177167	0.656124
C32	C	-1.090576	0.177164	0.544472
C33	C	-1.090574	0.177155	0.455482
C34	C	-1.090564	0.177151	0.343823
H35	H	-0.930348	-0.214436	0.000057
H36	H	-1.250903	-0.430996	0.000067
H37	H	-1.172964	-0.257618	-0.148843
H38	H	-1.008124	-0.388033	0.148817
C39	C	-0.994909	-0.398694	-0.172766
H40	H	-1.035629	-0.455806	-0.210751
H41	H	-0.974816	-0.325269	-0.210994
H42	H	-0.942801	-0.440524	-0.153372
H43	H	-1.172929	-0.257885	0.148965
