data_functionalizedCrystal
_audit_creation_method	'MofGen! by Chris Wilmer'
_symmetry_space_group_name_H-M	'P1'
_symmetry_Int_Tables_number	1
_symmetry_cell_setting	triclinic
loop_
_symmetry_equiv_pos_as_xyz
  x,y,z
_cell_length_a	27.440280
_cell_length_b	14.560438
_cell_length_c	14.560438
_cell_angle_alpha	60.007151
_cell_angle_beta	59.997888
_cell_angle_gamma	90.003771
loop_
_atom_site_label
_atom_site_type_symbol
_atom_site_fract_x
_atom_site_fract_y
_atom_site_fract_z
Zr1	Zr	0.469523	-0.120266	1.005086
O2	O	0.391709	-0.266902	1.196685
O3	O	0.493375	-0.075333	0.813496
O4	O	0.493380	-0.266906	1.005078
O5	O	0.391703	0.075809	1.005106
O6	O	0.573583	-0.266887	1.005060
O7	O	0.391704	-0.075329	1.005104
O8	O	0.573574	0.075802	0.662356
O9	O	0.391712	-0.266880	1.347811
O10	O	0.563405	-0.056133	0.892283
O11	O	0.503550	0.056646	0.892298
O12	O	0.503556	-0.168906	1.117861
O13	O	0.443701	-0.056128	1.117876
Zr14	Zr	0.597436	0.120812	1.005062
Zr15	Zr	0.597438	-0.120236	1.005057
Zr16	Zr	0.469522	0.120782	1.005090
Zr17	Zr	0.469528	-0.120230	1.246113
Zr18	Zr	0.597431	0.120777	0.764034
O19	O	0.573585	0.075880	1.196651
O20	O	0.573587	-0.266859	1.196645
O21	O	0.391707	0.075837	1.196691
O22	O	0.675251	0.267449	0.813462
O23	O	0.675252	-0.075290	0.813456
O24	O	0.493373	0.267406	0.813502
O25	O	0.675256	-0.075262	1.005041
O26	O	0.573580	0.267453	1.005069
O27	O	0.493377	0.267434	1.005087
O28	O	0.675256	0.075876	1.005044
O29	O	0.493387	-0.266856	1.347788
O30	O	0.573573	0.267403	0.662359
O31	O	0.675247	0.267427	0.662337
O32	O	0.675248	0.075826	0.662333
O33	O	0.391711	-0.075279	1.347814
O34	O	0.493386	-0.075255	1.347791
O35	O	0.563404	0.169453	0.892287
O36	O	0.623259	0.056674	0.892272
O37	O	0.563410	-0.056099	1.117849
O38	O	0.503555	0.056679	1.117864
C39	C	0.373479	0.000236	1.005109
C40	C	0.319176	0.000223	1.005121
C41	C	0.533473	0.000229	0.703585
C42	C	0.533471	0.000214	0.601262
C43	C	0.533478	0.301788	1.005079
C44	C	0.533478	0.404119	1.005081
C45	C	0.013719	0.059171	0.887303
C46	C	-0.037300	0.059181	0.887296
O47	O	-0.037119	0.109279	0.787155
N48	N	-0.094057	0.000313	1.005044
C49	C	-0.099795	-0.058559	1.122807
O50	O	-0.152757	-0.108629	1.222960
C51	C	-0.048777	-0.058562	1.122812
C52	C	0.007979	0.000301	1.005057
C53	C	0.070473	0.118030	0.769557
C54	C	0.121488	0.118018	0.769565
C55	C	0.115748	0.059147	0.887318
C56	C	0.058994	0.000289	1.005064
C57	C	-0.054516	-0.117427	1.240574
C58	C	-0.003492	-0.117424	1.240569
C59	C	0.053265	-0.058562	1.122814
C60	C	0.104270	-0.058594	1.122826
N61	N	0.161027	0.000274	1.005078
C62	C	0.166766	0.059145	0.887324
C63	C	-0.206934	-0.058547	1.122785
C64	C	-0.257951	-0.058552	1.122781
C65	C	-0.195452	0.059190	0.887270
C66	C	-0.144434	0.059188	0.887275
C67	C	-0.150177	0.000321	1.005037
C68	C	0.273899	0.059114	0.887349
C69	C	0.324915	0.059093	0.887367
C70	C	0.262412	-0.058644	1.122878
C71	C	0.211399	-0.058628	1.122860
C72	C	0.217147	0.000259	1.005086
O73	O	0.104134	-0.108663	1.222916
O74	O	0.219729	0.109218	0.787188
C75	C	0.693481	0.000311	1.005038
C76	C	0.747784	0.000324	1.005026
C77	C	0.533481	-0.301241	1.005068
C78	C	0.533482	-0.403572	1.005067
C79	C	0.502240	0.393331	1.122828
C80	C	0.502240	0.489486	1.122821
C81	C	0.564721	0.607214	0.887311
C82	C	0.564717	0.511060	0.887318
C83	C	0.471001	0.286390	1.240590
C84	C	0.439762	0.275597	1.358347
C85	C	0.439762	0.371752	1.358340
C86	C	0.471002	0.478699	1.240578
C87	C	0.489291	-0.083017	0.636397
C88	C	0.489300	-0.082960	0.540208
C89	C	0.577673	0.083568	0.373750
C90	C	0.577666	0.083506	0.469939
C91	C	0.445096	-0.166308	0.767721
C92	C	0.400912	-0.249545	0.802863
C93	C	0.400922	-0.249489	0.706673
C94	C	0.445116	-0.166195	0.575343
C95	C	0.533486	0.000318	1.306562
C96	C	0.533488	0.000333	1.408885
C97	C	0.693475	0.000267	0.703550
C98	C	0.747775	0.000265	0.601215
C99	C	0.533472	0.301743	0.703590
C100	C	0.533469	0.404060	0.601269
C101	C	0.693473	0.301781	0.703555
C102	C	0.747773	0.404110	0.601222
C103	C	0.373487	-0.301235	1.306593
C104	C	0.319186	-0.403564	1.408925
C105	C	0.373485	0.000280	1.306598
C106	C	0.319184	0.000282	1.408932
C107	C	0.533488	-0.301197	1.306557
C108	C	0.533490	-0.403513	1.408878
C109	C	0.742032	-0.058630	0.553163
C110	C	0.793049	-0.058655	0.457023
C111	C	0.849808	0.000223	0.408928
C112	C	0.855549	0.059120	0.456989
C113	C	0.804533	0.059137	0.553135
C114	C	0.804522	0.393296	0.553157
C115	C	0.855548	0.489436	0.457018
C116	C	0.849823	0.596389	0.408939
C117	C	0.793068	0.607201	0.457013
C118	C	0.742044	0.511062	0.553157
C119	C	0.262437	-0.392749	1.457002
C120	C	0.211412	-0.488889	1.553171
C121	C	0.217136	-0.595842	1.601255
C122	C	0.273891	-0.606654	1.553175
C123	C	0.324916	-0.510516	1.457014
C124	C	0.324927	0.059167	1.456994
C125	C	0.273911	0.059165	1.553161
C126	C	0.217152	0.000284	1.601259
C127	C	0.211410	-0.058609	1.553193
C128	C	0.262426	-0.058612	1.457034
C129	C	0.564712	0.511012	0.553188
C130	C	0.564705	0.607145	0.457052
C131	C	0.502211	0.489360	0.457083
C132	C	0.502215	0.393229	0.553224
C133	C	0.595966	0.521843	0.601233
C134	C	0.627212	0.628800	0.553151
C135	C	0.627205	0.724933	0.457015
C136	C	0.595951	0.714109	0.408961
H137	H	0.371129	0.107030	0.791472
H138	H	0.364948	-0.317270	0.735292
C139	C	0.387336	-0.522425	1.404125
H140	H	0.383432	-0.599894	1.446531
H141	H	0.408552	-0.487362	1.419860
H142	H	0.408531	-0.487388	1.313351
H143	H	0.414323	0.188516	1.454224
C144	C	0.810828	0.275657	0.606036
H145	H	0.772315	0.219938	0.670175
H146	H	0.832026	0.267236	0.643543
H147	H	0.832030	0.267220	0.537005
H148	H	0.165204	-0.480063	1.592301
C149	C	-0.320378	-0.123308	1.252312
H150	H	-0.316483	-0.158361	1.322436
H151	H	-0.341587	-0.179022	1.257214
H152	H	-0.341574	-0.072477	1.257208
C153	C	0.905920	0.000206	0.303159
H154	H	0.894365	-0.043295	0.281426
H155	H	0.929008	-0.031305	0.334650
H156	H	0.928997	0.075218	0.228131
H157	H	0.901756	0.480612	0.417886
C158	C	-0.116938	-0.182168	1.370107
H159	H	-0.113039	-0.217211	1.440226
H160	H	-0.138150	-0.237889	1.375024
H161	H	-0.138133	-0.131334	1.374998
H162	H	0.278587	0.107067	0.791446
H163	H	-0.008175	-0.165347	1.336468
H164	H	0.257742	-0.106561	1.417905
H165	H	0.364934	-0.317364	0.909795
H166	H	0.167698	0.165945	0.673676
C167	C	0.405399	0.359888	1.487860
H168	H	0.409869	0.432468	1.470995
H169	H	0.420831	0.319952	1.536233
H170	H	0.364292	0.319935	1.536252
H171	H	0.470993	0.556991	1.240582
H172	H	0.652642	0.812018	0.417878
H173	H	0.445083	-0.166361	0.846052
H174	H	0.695838	0.519883	0.592278
C175	C	0.161038	0.000298	1.707026
H176	H	0.126409	-0.043207	1.728800
H177	H	0.161041	0.075310	1.675508
H178	H	0.161043	-0.031219	1.782036
H179	H	0.075156	0.165975	0.673662
H180	H	0.590155	0.694296	0.791434
H181	H	0.371138	0.107123	1.417840
H182	H	0.901769	0.107056	0.417817
H183	H	0.278598	0.107127	1.592280
C184	C	0.599067	0.522922	0.757800
H185	H	0.617676	0.600382	0.687664
H186	H	0.572088	0.487850	0.752939
H187	H	0.628636	0.487866	0.752883
C188	C	0.679605	-0.123408	0.606057
H189	H	0.683499	-0.158493	0.563670
H190	H	0.658397	-0.072604	0.590304
H191	H	0.658407	-0.179117	0.696835
H192	H	0.788362	-0.106616	0.417903
C193	C	0.467812	0.275579	0.606186
H194	H	0.449193	0.282896	0.563813
H195	H	0.438257	0.235695	0.696955
H196	H	0.494755	0.235570	0.590465
H197	H	0.445129	-0.166173	0.497026
H198	H	0.613653	0.151383	0.266817
H199	H	0.165191	-0.106548	1.592369
C200	C	0.256129	-0.275113	1.404140
H201	H	0.215020	-0.282458	1.446569
H202	H	0.274726	-0.235156	1.313369
H203	H	0.274737	-0.235160	1.419904
H204	H	0.595977	0.443573	0.679510
C205	C	0.626260	0.175063	0.431296
H206	H	0.652576	0.224687	0.339310
H207	H	0.648081	0.140840	0.465334
H208	H	0.608100	0.216163	0.465389
C209	C	0.905954	0.702131	0.303173
H210	H	0.940569	0.680363	0.281430
H211	H	0.905966	0.745643	0.334671
H212	H	0.905960	0.745614	0.228148
C213	C	0.661586	0.640706	0.606008
H214	H	0.657121	0.568137	0.670141
H215	H	0.646159	0.680658	0.643519
H216	H	0.702691	0.680657	0.536967
H217	H	0.175584	-0.674115	1.679555
C218	C	0.280181	-0.724306	1.606066
H219	H	0.241662	-0.780005	1.670208
H220	H	0.301381	-0.732751	1.643572
H221	H	0.301371	-0.732752	1.537040
H222	H	0.595943	0.792392	0.330690
H223	H	0.809218	0.107103	0.592246
H224	H	-0.098223	0.107129	0.791388
H225	H	-0.190787	0.107122	0.791388
H226	H	-0.211618	-0.106489	1.218687
H227	H	0.476767	0.480557	0.417948
C228	C	0.148967	-0.123374	1.252387
H229	H	0.152858	-0.158431	1.322517
H230	H	0.127755	-0.179084	1.257290
H231	H	0.127777	-0.072532	1.257272
C232	C	0.470997	0.180620	1.240602
H233	H	0.447916	0.115385	1.327598
H234	H	0.510802	0.180618	1.197099
H235	H	0.454260	0.180599	1.197130
C236	C	0.256108	-0.123454	1.252396
H237	H	0.294623	-0.115033	1.235526
H238	H	0.234907	-0.200901	1.300735
H239	H	0.234912	-0.094404	1.300826
C240	C	0.786779	0.724852	0.404105
H241	H	0.825298	0.780551	0.339951
H242	H	0.765582	0.733316	0.473110
H243	H	0.765586	0.733280	0.366581
