data_functionalizedCrystal
_audit_creation_method	'MofGen! by Chris Wilmer'
_symmetry_space_group_name_H-M	'P1'
_symmetry_Int_Tables_number	1
_symmetry_cell_setting	triclinic
loop_
_symmetry_equiv_pos_as_xyz
  x,y,z
_cell_length_a	21.395362
_cell_length_b	18.215405
_cell_length_c	21.395356
_cell_angle_alpha	89.970979
_cell_angle_beta	89.957023
_cell_angle_gamma	90.040762
loop_
_atom_site_label
_atom_site_type_symbol
_atom_site_fract_x
_atom_site_fract_y
_atom_site_fract_z
Zn1	Zn	0.957879	-0.292691	-0.354580
Zn2	Zn	1.291212	0.040642	-0.021246
Zn3	Zn	1.624546	0.373976	0.312087
Zn4	Zn	0.957794	-0.415759	-0.249800
Zn5	Zn	1.291127	-0.082426	0.083533
Zn6	Zn	1.624460	0.250908	0.416867
Zn7	Zn	0.853096	-0.292745	-0.249781
Zn8	Zn	1.186429	0.040588	0.083552
Zn9	Zn	1.519762	0.373922	0.416886
Zn10	Zn	0.853074	-0.415754	-0.354505
Zn11	Zn	1.186407	-0.082421	-0.021171
Zn12	Zn	1.519740	0.250912	0.312162
O13	O	0.905460	-0.354237	-0.302166
O14	O	1.238794	-0.020904	0.031167
O15	O	1.572127	0.312429	0.364500
O16	O	1.045546	-0.308996	-0.340720
O17	O	1.378879	0.024338	-0.007387
O18	O	1.712212	0.357671	0.325947
O19	O	0.943879	-0.399465	-0.162119
O20	O	1.277212	-0.066132	0.171214
O21	O	1.610546	0.267201	0.504547
O22	O	0.867040	-0.189753	-0.263706
O23	O	1.200373	0.143580	0.069627
O24	O	1.533707	0.476913	0.402960
O25	O	1.045483	-0.399413	-0.263739
O26	O	1.378816	-0.066080	0.069595
O27	O	1.712150	0.267254	0.402928
O28	O	0.944024	-0.189714	-0.340702
O29	O	1.277357	0.143620	-0.007368
O30	O	1.610691	0.476953	0.325965
O31	O	0.866958	-0.309087	-0.162106
O32	O	1.200291	0.024246	0.171228
O33	O	1.533624	0.357579	0.504561
O34	O	0.765415	-0.309083	-0.263634
O35	O	1.098748	0.024250	0.069700
O36	O	1.432081	0.357584	0.403033
O37	O	0.867003	-0.399405	-0.442193
O38	O	1.200336	-0.066072	-0.108859
O39	O	1.533669	0.267261	0.224474
O40	O	0.765399	-0.399458	-0.340573
O41	O	1.098732	-0.066124	-0.007240
O42	O	1.432065	0.267209	0.326093
O43	O	0.944003	-0.308991	-0.442248
O44	O	1.277336	0.024342	-0.108914
O45	O	1.610669	0.357676	0.224419
O46	O	0.943858	-0.518743	-0.263666
O47	O	1.277191	-0.185409	0.069668
O48	O	1.610524	0.147924	0.403001
O49	O	0.866920	-0.518739	-0.340592
O50	O	1.200254	-0.185406	-0.007258
O51	O	1.533587	0.147927	0.326075
C52	C	0.742673	-0.354276	-0.302094
C53	C	1.076006	-0.020943	0.031240
C54	C	1.409339	0.312390	0.364573
C55	C	0.673032	-0.354311	-0.302077
C56	C	1.006365	-0.020977	0.031256
C57	C	1.339698	0.312356	0.364589
C58	C	0.640326	-0.401431	-0.342080
C59	C	0.973660	-0.068098	-0.008747
C60	C	1.306993	0.265236	0.324587
C61	C	0.574891	-0.401413	-0.342108
C62	C	0.908224	-0.068080	-0.008775
C63	C	1.241558	0.265254	0.324559
C64	C	0.542163	-0.354282	-0.302122
C65	C	0.875497	-0.020949	0.031211
C66	C	1.208830	0.312384	0.364545
C67	C	0.574876	-0.307153	-0.262117
C68	C	0.908210	0.026181	0.071217
C69	C	1.241543	0.359514	0.404550
C70	C	0.640310	-0.307167	-0.262094
C71	C	0.973644	0.026166	0.071239
C72	C	1.306977	0.359500	0.404572
C73	C	0.438439	-0.348364	-0.245717
C74	C	0.771772	-0.015031	0.087616
C75	C	1.105106	0.318302	0.420950
C76	C	0.373006	-0.348355	-0.245738
C77	C	0.706339	-0.015022	0.087595
C78	C	1.039673	0.318311	0.420928
C79	C	0.340343	-0.354234	-0.302191
C80	C	0.673676	-0.020901	0.031142
C81	C	1.007009	0.312432	0.364475
C82	C	0.373120	-0.360138	-0.358625
C83	C	0.706453	-0.026804	-0.025291
C84	C	1.039787	0.306529	0.308042
C85	C	0.438554	-0.360152	-0.358602
C86	C	0.771888	-0.026819	-0.025269
C87	C	1.105221	0.306515	0.308064
C88	C	0.471211	-0.354261	-0.302142
C89	C	0.804544	-0.020928	0.031191
C90	C	1.137878	0.312405	0.364525
C91	C	0.236685	-0.401338	-0.342228
C92	C	0.570018	-0.068004	-0.008894
C93	C	0.903352	0.265329	0.324439
C94	C	0.171248	-0.401314	-0.342256
C95	C	0.504582	-0.067981	-0.008923
C96	C	0.837915	0.265352	0.324410
C97	C	0.171235	-0.307058	-0.262260
C98	C	0.504568	0.026275	0.071074
C99	C	0.837902	0.359609	0.404407
C100	C	0.236670	-0.307077	-0.262236
C101	C	0.570004	0.026256	0.071097
C102	C	0.903337	0.359589	0.404430
C103	C	0.269391	-0.354221	-0.302219
C104	C	0.602725	-0.020888	0.031114
C105	C	0.936058	0.312446	0.364447
C106	C	0.905394	-0.545444	-0.302136
C107	C	1.238728	-0.212110	0.031197
C108	C	1.572061	0.121223	0.364530
C109	C	0.905423	-0.627243	-0.302144
C110	C	1.238757	-0.293909	0.031189
C111	C	1.572090	0.039424	0.364522
C112	C	0.945579	-0.815414	-0.262163
C113	C	1.278912	-0.482080	0.071171
C114	C	1.612245	-0.148747	0.404504
C115	C	0.945607	-0.892272	-0.262178
C116	C	1.278940	-0.558939	0.071156
C117	C	1.612273	-0.225606	0.404489
C118	C	0.865422	-0.892309	-0.342215
C119	C	1.198756	-0.558976	-0.008882
C120	C	1.532089	-0.225642	0.324452
C121	C	0.865398	-0.815452	-0.342203
C122	C	1.198731	-0.482118	-0.008869
C123	C	1.532065	-0.148785	0.324464
C124	C	0.905475	-0.777006	-0.302173
C125	C	1.238809	-0.443673	0.031160
C126	C	1.572142	-0.110339	0.364494
C127	C	0.905528	-0.930722	-0.302201
C128	C	1.238861	-0.597389	0.031133
C129	C	1.572194	-0.264055	0.364466
C130	C	0.905558	-1.014056	-0.302217
C131	C	1.238891	-0.680722	0.031116
C132	C	1.572224	-0.347389	0.364449
C133	C	0.905446	-0.693667	-0.302157
C134	C	1.238780	-0.360334	0.031177
C135	C	1.572113	-0.027000	0.364510
C136	C	1.068884	-0.354199	-0.302240
C137	C	1.402217	-0.020865	0.031094
C138	C	1.735550	0.312468	0.364427
C139	C	1.138525	-0.354182	-0.302271
C140	C	1.471858	-0.020849	0.031062
C141	C	1.805192	0.312484	0.364396
C142	C	0.905510	-0.354192	-0.465590
C143	C	1.238843	-0.020858	-0.132256
C144	C	1.572176	0.312475	0.201077
C145	C	0.905531	-0.354172	-0.535231
C146	C	1.238864	-0.020839	-0.201898
C147	C	1.572197	0.312494	0.131436
C148	C	0.905544	-0.162284	-0.302210
C149	C	1.238877	0.171049	0.031123
C150	C	1.572211	0.504382	0.364456
C151	C	0.905580	-0.080485	-0.302229
C152	C	1.238913	0.252848	0.031104
C153	C	1.572246	0.586181	0.364438
C154	C	0.865489	-0.307107	-0.567927
C155	C	1.198822	0.026226	-0.234594
C156	C	1.532155	0.359559	0.098740
C157	C	0.865486	-0.307094	-0.633363
C158	C	1.198820	0.026240	-0.300029
C159	C	1.532153	0.359573	0.033304
C160	C	0.905538	-0.354137	-0.666099
C161	C	1.238871	-0.020804	-0.332766
C162	C	1.572204	0.312529	0.000567
C163	C	0.945583	-0.401211	-0.633395
C164	C	1.278916	-0.067878	-0.300062
C165	C	1.612249	0.265455	0.033271
C166	C	0.945579	-0.401229	-0.567961
C167	C	1.278913	-0.067896	-0.234628
C168	C	1.612246	0.265438	0.098705
C169	C	0.961990	-0.359905	-0.769805
C170	C	1.295324	-0.026571	-0.436471
C171	C	1.628657	0.306762	-0.103138
C172	C	0.961995	-0.359882	-0.835238
C173	C	1.295328	-0.026549	-0.501904
C174	C	1.628661	0.306785	-0.168571
C175	C	0.905548	-0.354088	-0.867920
C176	C	1.238881	-0.020754	-0.534587
C177	C	1.572215	0.312579	-0.201254
C178	C	0.849095	-0.348300	-0.835162
C179	C	1.182428	-0.014967	-0.501828
C180	C	1.515762	0.318366	-0.168495
C181	C	0.849092	-0.348318	-0.769728
C182	C	1.182425	-0.014984	-0.436394
C183	C	1.515758	0.318349	-0.103061
C184	C	0.905546	-0.354124	-0.737052
C185	C	1.238879	-0.020791	-0.403718
C186	C	1.572212	0.312543	-0.070385
C187	C	0.865500	-0.307005	-0.971569
C188	C	1.198833	0.026328	-0.638236
C189	C	1.532167	0.359661	-0.304902
C190	C	0.865497	-0.306997	-1.037006
C191	C	1.198830	0.026337	-0.703672
C192	C	1.532164	0.359670	-0.370339
C193	C	0.945599	-0.401111	-1.037037
C194	C	1.278932	-0.067777	-0.703704
C195	C	1.612265	0.265556	-0.370371
C196	C	0.945596	-0.401123	-0.971602
C197	C	1.278930	-0.067790	-0.638268
C198	C	1.612263	0.265544	-0.304935
C199	C	0.905548	-0.354066	-0.938872
C200	C	1.238881	-0.020733	-0.605538
C201	C	1.572215	0.312600	-0.272205
C202	C	0.905447	-0.354230	-0.139379
C203	C	1.238781	-0.020896	0.193955
C204	C	1.572114	0.312437	0.527288
C205	C	0.905548	-0.354042	-0.069738
C206	C	1.238881	-0.020708	0.263595
C207	C	1.572215	0.312625	0.596929
H208	H	0.346527	-0.364924	-0.404594
H209	H	0.679860	-0.031590	-0.071261
H210	H	1.013194	0.301743	0.262072
C211	C	0.821442	-0.255315	-0.669336
C212	C	1.154776	0.078018	-0.336003
C213	C	1.488109	0.411351	-0.002669
H214	H	0.797594	-0.227290	-0.640471
H215	H	1.130927	0.106043	-0.307138
H216	H	1.464261	0.439377	0.026196
H217	H	0.794131	-0.283461	-0.694839
H218	H	1.127464	0.049873	-0.361506
H219	H	1.460797	0.383206	-0.028173
H220	H	0.845436	-0.223239	-0.694883
H221	H	1.178770	0.110094	-0.361549
H222	H	1.512103	0.443428	-0.028216
H223	H	0.144621	-0.439684	-0.374835
H224	H	0.477954	-0.106351	-0.041502
H225	H	0.811288	0.226983	0.291831
C226	C	0.676316	-0.453279	-0.386067
C227	C	1.009650	-0.119945	-0.052733
C228	C	1.342983	0.213388	0.280600
H229	H	0.647463	-0.481335	-0.409899
H230	H	0.980796	-0.148001	-0.076566
H231	H	1.314129	0.185332	0.256768
H232	H	0.701794	-0.485313	-0.362044
H233	H	1.035128	-0.151979	-0.028711
H234	H	1.368461	0.181354	0.304623
H235	H	0.701890	-0.425168	-0.413405
H236	H	1.035223	-0.091835	-0.080071
H237	H	1.368556	0.241499	0.253262
C238	C	0.989712	-0.934521	-0.218161
C239	C	1.323046	-0.601188	0.115173
C240	C	1.656379	-0.267855	0.448506
H241	H	0.983992	-0.985801	-0.223902
H242	H	1.317325	-0.652468	0.109431
H243	H	1.650658	-0.319135	0.442764
H244	H	0.980556	-0.921970	-0.176051
H245	H	1.313889	-0.588636	0.157282
H246	H	1.647222	-0.255303	0.490616
H247	H	1.031805	-0.921865	-0.227381
H248	H	1.365138	-0.588532	0.105953
H249	H	1.698471	-0.255198	0.439286
H250	H	0.548257	-0.439784	-0.374685
H251	H	0.881591	-0.106450	-0.041352
H252	H	1.214924	0.226883	0.291981
H253	H	0.832890	-0.268689	-0.944919
H254	H	1.166223	0.064644	-0.611585
H255	H	1.499556	0.397977	-0.278252
C256	C	0.474607	-0.366634	-0.420674
C257	C	0.807941	-0.033301	-0.087341
C258	C	1.141274	0.300032	0.245993
H259	H	0.445787	-0.370128	-0.454302
H260	H	0.779121	-0.036795	-0.120968
H261	H	1.112454	0.296538	0.212365
H262	H	0.500103	-0.409295	-0.419787
H263	H	0.833436	-0.075962	-0.086454
H264	H	1.166769	0.257372	0.246879
H265	H	0.500169	-0.324464	-0.426232
H266	H	0.833502	0.008870	-0.092899
H267	H	1.166835	0.342203	0.240434
H268	H	1.007962	-0.364591	-0.861905
H269	H	1.341295	-0.031258	-0.528571
H270	H	1.674629	0.302076	-0.195238
H271	H	0.978193	-0.439515	-0.660054
H272	H	1.311526	-0.106182	-0.326721
H273	H	1.644859	0.227152	0.006613
C274	C	0.272681	-0.453184	-0.386213
C275	C	0.606014	-0.119851	-0.052879
C276	C	0.939347	0.213482	0.280454
H277	H	0.243828	-0.481238	-0.410049
H278	H	0.577162	-0.147905	-0.076715
H279	H	0.910495	0.185429	0.256618
H280	H	0.298155	-0.485221	-0.362188
H281	H	0.631488	-0.151887	-0.028855
H282	H	0.964822	0.181446	0.304478
H283	H	0.298258	-0.425075	-0.413548
H284	H	0.631592	-0.091741	-0.080214
H285	H	0.964925	0.241592	0.253119
H286	H	0.832741	-0.784178	-0.374787
H287	H	1.166074	-0.450845	-0.041453
H288	H	1.499408	-0.117511	0.291880
C289	C	0.989667	-0.773126	-0.218138
C290	C	1.323001	-0.439792	0.115195
C291	C	1.656334	-0.106459	0.448529
H292	H	1.013560	-0.807011	-0.194316
H293	H	1.346893	-0.473677	0.139017
H294	H	1.680226	-0.140344	0.472351
H295	H	0.965709	-0.743195	-0.190801
H296	H	1.299042	-0.409862	0.142533
H297	H	1.632375	-0.076529	0.475866
H298	H	1.016946	-0.743091	-0.242142
H299	H	1.350279	-0.409758	0.091192
H300	H	1.683613	-0.076425	0.424525
C301	C	0.821335	-0.934601	-0.386238
C302	C	1.154668	-0.601268	-0.052905
C303	C	1.488002	-0.267935	0.280429
H304	H	0.827087	-0.985876	-0.380511
H305	H	1.160421	-0.652543	-0.047177
H306	H	1.493754	-0.319209	0.286156
H307	H	0.830474	-0.921962	-0.428346
H308	H	1.163807	-0.588628	-0.095013
H309	H	1.497141	-0.255295	0.238320
H310	H	0.779237	-0.922064	-0.377005
H311	H	1.112570	-0.588731	-0.043671
H312	H	1.445904	-0.255398	0.289662
C313	C	0.272651	-0.255251	-0.218230
C314	C	0.605984	0.078082	0.115104
C315	C	0.939317	0.411416	0.448437
H316	H	0.316307	-0.262005	-0.223946
H317	H	0.649641	0.071328	0.109387
H318	H	0.982974	0.404662	0.442720
H319	H	0.261873	-0.265951	-0.176119
H320	H	0.595207	0.067382	0.157215
H321	H	0.928540	0.400715	0.490548
H322	H	0.261975	-0.205814	-0.227485
H323	H	0.595308	0.127520	0.105849
H324	H	0.928641	0.460853	0.439182
H325	H	0.803131	-0.343577	-0.861770
H326	H	1.136464	-0.010243	-0.528437
H327	H	1.469798	0.323090	-0.195104
H328	H	0.832876	-0.268793	-0.541282
H329	H	1.166209	0.064541	-0.207949
H330	H	1.499542	0.397874	0.125385
H331	H	0.144589	-0.268680	-0.229705
H332	H	0.477922	0.064654	0.103628
H333	H	0.811255	0.397987	0.436961
C334	C	0.336957	-0.341860	-0.183665
C335	C	0.670290	-0.008527	0.149668
C336	C	1.003623	0.324806	0.483001
H337	H	0.365780	-0.338347	-0.150042
H338	H	0.699113	-0.005014	0.183291
H339	H	1.032447	0.328320	0.516625
H340	H	0.311392	-0.384022	-0.178096
H341	H	0.644726	-0.050688	0.155238
H342	H	0.978059	0.282645	0.488571
H343	H	0.311465	-0.299192	-0.184560
H344	H	0.644798	0.034141	0.148773
H345	H	0.978132	0.367474	0.482107
H346	H	0.803126	-0.343607	-0.743058
H347	H	1.136459	-0.010274	-0.409725
H348	H	1.469792	0.323060	-0.076392
H349	H	0.978205	-0.439447	-0.944980
H350	H	1.311538	-0.106114	-0.611647
H351	H	1.644871	0.227220	-0.278314
H352	H	0.832885	-0.268673	-1.063626
H353	H	1.166218	0.064660	-0.730292
H354	H	1.499552	0.397994	-0.396959
C355	C	0.989655	-0.452857	-1.073040
C356	C	1.322989	-0.119524	-0.739706
C357	C	1.656322	0.213810	-0.406373
H358	H	0.983926	-0.446104	-1.116693
H359	H	1.317259	-0.112770	-0.783360
H360	H	1.650592	0.220563	-0.450027
H361	H	0.980466	-0.502309	-1.062297
H362	H	1.313800	-0.168976	-0.728964
H363	H	1.647133	0.164358	-0.395631
H364	H	1.031759	-0.442073	-1.062348
H365	H	1.365092	-0.108739	-0.729015
H366	H	1.698426	0.224594	-0.395682
C367	C	1.024086	-0.366274	-0.733860
C368	C	1.357419	-0.032941	-0.400527
C369	C	1.690753	0.300392	-0.067193
H370	H	1.057707	-0.369706	-0.762740
H371	H	1.391040	-0.036373	-0.429406
H372	H	1.724373	0.296961	-0.096073
H373	H	1.023257	-0.408938	-0.708321
H374	H	1.356590	-0.075605	-0.374988
H375	H	1.689923	0.257728	-0.041655
H376	H	1.029606	-0.324096	-0.708351
H377	H	1.362939	0.009238	-0.375018
H378	H	1.696273	0.342571	-0.041684
H379	H	0.978189	-0.439554	-0.541340
H380	H	1.311522	-0.106221	-0.208007
H381	H	1.644856	0.227112	0.125326
C382	C	0.474365	-0.341897	-0.183616
C383	C	0.807699	-0.008564	0.149717
C384	C	1.141032	0.324769	0.483050
H385	H	0.518030	-0.342744	-0.191685
H386	H	0.851363	-0.009411	0.141648
H387	H	1.184696	0.323923	0.474982
H388	H	0.463583	-0.381888	-0.157203
H389	H	0.796916	-0.048554	0.176131
H390	H	1.130249	0.284779	0.509464
H391	H	0.463654	-0.297057	-0.163656
H392	H	0.796988	0.036276	0.169678
H393	H	1.130321	0.369609	0.503011
C394	C	0.538879	-0.255310	-0.218133
C395	C	0.872212	0.078023	0.115200
C396	C	1.205545	0.411356	0.448533
H397	H	0.495224	-0.262055	-0.223871
H398	H	0.828557	0.071278	0.109462
H399	H	1.161890	0.404611	0.442795
H400	H	0.549649	-0.205880	-0.227377
H401	H	0.882982	0.127453	0.105957
H402	H	1.216316	0.460786	0.439290
H403	H	0.549549	-0.266021	-0.176013
H404	H	0.882882	0.067312	0.157320
H405	H	1.216216	0.400645	0.490654
H406	H	0.666939	-0.268794	-0.229519
H407	H	1.000272	0.064540	0.103814
H408	H	1.333605	0.397873	0.437147
