data_functionalizedCrystal
_audit_creation_method	'MofGen! by Chris Wilmer'
_symmetry_space_group_name_H-M	'P1'
_symmetry_Int_Tables_number	1
_symmetry_cell_setting	triclinic
loop_
_symmetry_equiv_pos_as_xyz
  x,y,z
_cell_length_a	18.101398
_cell_length_b	19.121063
_cell_length_c	18.101389
_cell_angle_alpha	92.419391
_cell_angle_beta	89.975673
_cell_angle_gamma	92.464489
loop_
_atom_site_label
_atom_site_type_symbol
_atom_site_fract_x
_atom_site_fract_y
_atom_site_fract_z
Zn1	Zn	1.119554	-0.279777	-0.431404
Zn2	Zn	1.369554	-0.029777	-0.181404
Zn3	Zn	1.619554	0.220223	0.068596
Zn4	Zn	1.869554	0.470223	0.318596
Zn5	Zn	1.114175	-0.397213	-0.312837
Zn6	Zn	1.364175	-0.147213	-0.062837
Zn7	Zn	1.614175	0.102787	0.187163
Zn8	Zn	1.864175	0.352787	0.437163
Zn9	Zn	0.995713	-0.279770	-0.307565
Zn10	Zn	1.245713	-0.029770	-0.057565
Zn11	Zn	1.495713	0.220230	0.192435
Zn12	Zn	1.745713	0.470230	0.442435
Zn13	Zn	0.990390	-0.397183	-0.436624
Zn14	Zn	1.240390	-0.147183	-0.186624
Zn15	Zn	1.490390	0.102817	0.063376
Zn16	Zn	1.740390	0.352817	0.313376
O17	O	1.054958	-0.338486	-0.372107
O18	O	1.304958	-0.088486	-0.122107
O19	O	1.554958	0.161514	0.127893
O20	O	1.804958	0.411514	0.377893
O21	O	1.222473	-0.295371	-0.415698
O22	O	1.472473	-0.045371	-0.165698
O23	O	1.722473	0.204629	0.084302
O24	O	1.972473	0.454629	0.334302
O25	O	1.098437	-0.381644	-0.208505
O26	O	1.348437	-0.131644	0.041495
O27	O	1.598437	0.118356	0.291495
O28	O	1.848437	0.368356	0.541495
O29	O	1.016620	-0.181486	-0.319601
O30	O	1.266620	0.068514	-0.069601
O31	O	1.516620	0.318514	0.180399
O32	O	1.766620	0.568514	0.430399
O33	O	1.218521	-0.381651	-0.328587
O34	O	1.468521	-0.131651	-0.078587
O35	O	1.718521	0.118349	0.171413
O36	O	1.968521	0.368349	0.421413
O37	O	1.107605	-0.181491	-0.410586
O38	O	1.357605	0.068509	-0.160586
O39	O	1.607605	0.318509	0.089414
O40	O	1.857605	0.568509	0.339414
O41	O	1.011404	-0.295359	-0.204632
O42	O	1.261404	-0.045359	0.045368
O43	O	1.511404	0.204641	0.295368
O44	O	1.761404	0.454641	0.545368
O45	O	0.891375	-0.295330	-0.324663
O46	O	1.141375	-0.045330	-0.074663
O47	O	1.391375	0.204670	0.175337
O48	O	1.641375	0.454670	0.425337
O49	O	1.007547	-0.381599	-0.539564
O50	O	1.257547	-0.131599	-0.289564
O51	O	1.507547	0.118401	-0.039564
O52	O	1.757547	0.368401	0.210436
O53	O	0.887464	-0.381592	-0.419482
O54	O	1.137464	-0.131592	-0.169482
O55	O	1.387464	0.118408	0.080518
O56	O	1.637464	0.368408	0.330518
O57	O	1.102443	-0.295342	-0.535729
O58	O	1.352443	-0.045342	-0.285729
O59	O	1.602443	0.204658	-0.035729
O60	O	1.852443	0.454658	0.214271
O61	O	1.093276	-0.495494	-0.333648
O62	O	1.343276	-0.245494	-0.083648
O63	O	1.593276	0.004506	0.166352
O64	O	1.843276	0.254506	0.416352
O65	O	1.002331	-0.495472	-0.424594
O66	O	1.252331	-0.245472	-0.174594
O67	O	1.502331	0.004528	0.075406
O68	O	1.752331	0.254528	0.325406
C69	C	0.862549	-0.338457	-0.372067
C70	C	1.112549	-0.088457	-0.122067
C71	C	1.362549	0.161543	0.127933
C72	C	1.612549	0.411543	0.377933
C73	C	0.780234	-0.338462	-0.372069
C74	C	1.030234	-0.088462	-0.122069
C75	C	1.280234	0.161538	0.127931
C76	C	1.530234	0.411538	0.377931
C77	C	0.481141	-0.338506	-0.372133
C78	C	0.731141	-0.088506	-0.122133
C79	C	0.981141	0.161494	0.127867
C80	C	1.231141	0.411494	0.377867
C81	C	0.514915	-0.283961	-0.312742
C82	C	0.764915	-0.033961	-0.062742
C83	C	1.014915	0.216039	0.187258
C84	C	1.264915	0.466039	0.437258
C85	C	0.600526	-0.284107	-0.312506
C86	C	0.850526	-0.034107	-0.062506
C87	C	1.100526	0.215893	0.187494
C88	C	1.350526	0.465893	0.437494
C89	C	0.629525	-0.338484	-0.372101
C90	C	0.879525	-0.088484	-0.122101
C91	C	1.129525	0.161516	0.127899
C92	C	1.379525	0.411516	0.377899
C93	C	0.595084	-0.412466	-0.354099
C94	C	0.845084	-0.162466	-0.104099
C95	C	1.095084	0.087534	0.145901
C96	C	1.345084	0.337534	0.395901
C97	C	0.509452	-0.412163	-0.353690
C98	C	0.759452	-0.162163	-0.103690
C99	C	1.009452	0.087837	0.146310
C100	C	1.259452	0.337837	0.396310
C101	C	0.513600	-0.319712	-0.449688
C102	C	0.763600	-0.069712	-0.199688
C103	C	1.013600	0.180288	0.050312
C104	C	1.263600	0.430288	0.300312
C105	C	0.599325	-0.318065	-0.449186
C106	C	0.849325	-0.068065	-0.199186
C107	C	1.099325	0.181935	0.050814
C108	C	1.349325	0.431935	0.300814
C109	C	0.713385	-0.338476	-0.372084
C110	C	0.963385	-0.088476	-0.122084
C111	C	1.213385	0.161524	0.127916
C112	C	1.463385	0.411524	0.377916
C113	C	0.397281	-0.338519	-0.372148
C114	C	0.647281	-0.088519	-0.122148
C115	C	0.897281	0.161481	0.127852
C116	C	1.147281	0.411481	0.377852
C117	C	1.046662	-0.520967	-0.380276
C118	C	1.296662	-0.270967	-0.130276
C119	C	1.546662	-0.020967	0.119724
C120	C	1.796662	0.229033	0.369724
C121	C	1.043181	-0.599034	-0.383795
C122	C	1.293181	-0.349034	-0.133795
C123	C	1.543181	-0.099034	0.116205
C124	C	1.793181	0.150966	0.366205
C125	C	1.088932	-0.635698	-0.338137
C126	C	1.338932	-0.385698	-0.088137
C127	C	1.588932	-0.135698	0.161863
C128	C	1.838932	0.114302	0.411863
C129	C	1.085662	-0.709049	-0.341451
C130	C	1.335662	-0.459049	-0.091451
C131	C	1.585662	-0.209049	0.158549
C132	C	1.835662	0.040951	0.408549
C133	C	1.036637	-0.745735	-0.390420
C134	C	1.286637	-0.495735	-0.140420
C135	C	1.536637	-0.245735	0.109580
C136	C	1.786637	0.004265	0.359580
C137	C	0.990884	-0.709066	-0.436083
C138	C	1.240884	-0.459066	-0.186083
C139	C	1.490884	-0.209066	0.063917
C140	C	1.740884	0.040934	0.313917
C141	C	0.994158	-0.635716	-0.432772
C142	C	1.244158	-0.385716	-0.182772
C143	C	1.494158	-0.135716	0.067228
C144	C	1.744158	0.114284	0.317228
C145	C	1.024385	-0.967206	-0.402788
C146	C	1.274385	-0.717206	-0.152788
C147	C	1.524385	-0.467206	0.097212
C148	C	1.774385	-0.217206	0.347212
C149	C	1.021113	-1.040562	-0.406094
C150	C	1.271113	-0.790562	-0.156094
C151	C	1.521113	-0.540562	0.093906
C152	C	1.771113	-0.290562	0.343906
C153	C	1.115892	-1.040539	-0.311462
C154	C	1.365892	-0.790539	-0.061462
C155	C	1.615892	-0.540539	0.188538
C156	C	1.865892	-0.290539	0.438538
C157	C	1.119159	-0.967188	-0.308152
C158	C	1.369159	-0.717188	-0.058152
C159	C	1.619159	-0.467188	0.191848
C160	C	1.869159	-0.217188	0.441848
C161	C	1.073408	-0.930525	-0.353818
C162	C	1.323408	-0.680525	-0.103818
C163	C	1.573408	-0.430525	0.146182
C164	C	1.823408	-0.180525	0.396182
C165	C	1.033292	-0.820713	-0.393807
C166	C	1.283292	-0.570713	-0.143807
C167	C	1.533292	-0.320713	0.106193
C168	C	1.783292	-0.070713	0.356193
C169	C	1.076758	-0.855549	-0.350434
C170	C	1.326758	-0.605549	-0.100434
C171	C	1.576758	-0.355549	0.149566
C172	C	1.826758	-0.105549	0.399566
C173	C	1.248119	-0.338515	-0.372148
C174	C	1.498119	-0.088515	-0.122148
C175	C	1.748119	0.161485	0.127852
C176	C	1.998119	0.411485	0.377852
C177	C	1.330432	-0.338528	-0.372165
C178	C	1.580432	-0.088528	-0.122165
C179	C	1.830432	0.161472	0.127835
C180	C	2.080432	0.411472	0.377835
C181	C	1.055002	-0.338468	-0.565269
C182	C	1.305002	-0.088468	-0.315269
C183	C	1.555002	0.161532	-0.065269
C184	C	1.805002	0.411532	0.184731
C185	C	1.055020	-0.338461	-0.647582
C186	C	1.305020	-0.088461	-0.397582
C187	C	1.555020	0.161539	-0.147582
C188	C	1.805020	0.411539	0.102418
C189	C	1.063306	-0.155292	-0.363923
C190	C	1.313306	0.094708	-0.113923
C191	C	1.563306	0.344708	0.136077
C192	C	1.813306	0.594708	0.386077
C193	C	1.066864	-0.077226	-0.360436
C194	C	1.316864	0.172774	-0.110436
C195	C	1.566864	0.422774	0.139564
C196	C	1.816864	0.672774	0.389564
C197	C	1.055069	-0.338329	-0.946668
C198	C	1.305069	-0.088329	-0.696668
C199	C	1.555069	0.161671	-0.446668
C200	C	1.805069	0.411671	-0.196668
C201	C	0.995174	-0.392427	-0.917747
C202	C	1.245174	-0.142427	-0.667747
C203	C	1.495174	0.107573	-0.417747
C204	C	1.745174	0.357573	-0.167747
C205	C	0.995318	-0.392678	-0.832140
C206	C	1.245318	-0.142678	-0.582140
C207	C	1.495318	0.107322	-0.332140
C208	C	1.745318	0.357322	-0.082140
C209	C	1.055044	-0.338394	-0.798288
C210	C	1.305044	-0.088394	-0.548288
C211	C	1.555044	0.161606	-0.298288
C212	C	1.805044	0.411606	-0.048288
C213	C	1.132167	-0.358491	-0.830296
C214	C	1.382167	-0.108491	-0.580296
C215	C	1.632167	0.141509	-0.330296
C216	C	1.882167	0.391509	-0.080296
C217	C	1.131831	-0.358846	-0.915957
C218	C	1.381831	-0.108846	-0.665957
C219	C	1.631831	0.141154	-0.415957
C220	C	1.881831	0.391154	-0.165957
C221	C	1.038526	-0.264013	-0.911754
C222	C	1.288526	-0.014013	-0.661754
C223	C	1.538526	0.235987	-0.411754
C224	C	1.788526	0.485987	-0.161754
C225	C	1.036771	-0.264443	-0.826122
C226	C	1.286771	-0.014443	-0.576122
C227	C	1.536771	0.235557	-0.326122
C228	C	1.786771	0.485557	-0.076122
C229	C	1.055035	-0.338430	-0.714430
C230	C	1.305035	-0.088430	-0.464430
C231	C	1.555035	0.161570	-0.214430
C232	C	1.805035	0.411570	0.035570
C233	C	1.055084	-0.338295	-1.030526
C234	C	1.305084	-0.088295	-0.780526
C235	C	1.555084	0.161705	-0.530526
C236	C	1.805084	0.411705	-0.280526
C237	C	1.054959	-0.338453	-0.179695
C238	C	1.304959	-0.088453	0.070305
C239	C	1.554959	0.161547	0.320305
C240	C	1.804959	0.411547	0.570305
C241	C	1.055093	-0.338263	-0.097373
C242	C	1.305093	-0.088263	0.152627
C243	C	1.555093	0.161737	0.402627
C244	C	1.805093	0.411737	0.652627
H245	H	0.620422	-0.296530	-0.254971
H246	H	0.870422	-0.046530	-0.004971
H247	H	1.120422	0.203470	0.245029
H248	H	1.370422	0.453470	0.495029
H249	H	1.177847	-0.320327	-0.808236
H250	H	1.427847	-0.070327	-0.558236
H251	H	1.677847	0.179673	-0.308236
H252	H	1.927847	0.429673	-0.058236
Cl253	Cl	1.099628	-0.198907	-0.790176
Cl254	Cl	1.349628	0.051093	-0.540176
Cl255	Cl	1.599628	0.301093	-0.290176
Cl256	Cl	1.849628	0.551093	-0.040176
Cl257	Cl	0.483976	-0.237869	-0.475945
Cl258	Cl	0.733976	0.012131	-0.225945
Cl259	Cl	0.983976	0.262131	0.024055
Cl260	Cl	1.233976	0.512131	0.274055
Cl261	Cl	0.623620	-0.476894	-0.419024
Cl262	Cl	0.873620	-0.226894	-0.169024
Cl263	Cl	1.123620	0.023106	0.080976
Cl264	Cl	1.373620	0.273106	0.330976
H265	H	1.159079	-0.937319	-0.268278
H266	H	1.409079	-0.687319	-0.018278
H267	H	1.659079	-0.437319	0.231722
H268	H	1.909079	-0.187319	0.481722
H269	H	1.116677	-0.825677	-0.310566
H270	H	1.366677	-0.575677	-0.060566
H271	H	1.616677	-0.325677	0.189434
H272	H	1.866677	-0.075677	0.439434
H273	H	0.491559	-0.359441	-0.493899
H274	H	0.741559	-0.109441	-0.243899
H275	H	0.991559	0.140559	0.006101
H276	H	1.241559	0.390559	0.256101
H277	H	0.956904	-0.605865	-0.469953
H278	H	1.206904	-0.355865	-0.219953
H279	H	1.456904	-0.105865	0.030047
H280	H	1.706904	0.144135	0.280047
H281	H	1.153140	-1.070398	-0.274285
H282	H	1.403140	-0.820398	-0.024285
H283	H	1.653140	-0.570398	0.225715
H284	H	1.903140	-0.320398	0.475715
H285	H	0.981200	-1.070430	-0.445983
H286	H	1.231200	-0.820430	-0.195983
H287	H	1.481200	-0.570430	0.054017
H288	H	1.731200	-0.320430	0.304017
H289	H	0.993375	-0.850591	-0.433677
H290	H	1.243375	-0.600591	-0.183677
H291	H	1.493375	-0.350591	0.066323
H292	H	1.743375	-0.100591	0.316323
H293	H	0.938024	-0.380101	-0.810543
H294	H	1.188024	-0.130101	-0.560543
H295	H	1.438024	0.119899	-0.310543
H296	H	1.688024	0.369899	-0.060543
H297	H	0.492814	-0.296243	-0.255539
H298	H	0.742814	-0.046243	-0.005539
H299	H	0.992814	0.203757	0.244461
H300	H	1.242814	0.453757	0.494461
H301	H	0.488724	-0.428103	-0.297092
H302	H	0.738724	-0.178103	-0.047092
H303	H	0.988724	0.071897	0.202908
H304	H	1.238724	0.321897	0.452908
H305	H	0.615770	-0.428682	-0.298133
H306	H	0.865770	-0.178682	-0.048133
H307	H	1.115770	0.071318	0.201867
H308	H	1.365770	0.321318	0.451867
H309	H	1.082192	-0.223708	-0.930220
H310	H	1.332192	0.026292	-0.680220
H311	H	1.582192	0.276292	-0.430220
H312	H	1.832192	0.526292	-0.180220
H313	H	0.486843	-0.454179	-0.395241
H314	H	0.736843	-0.204179	-0.145241
H315	H	0.986843	0.045821	0.104759
H316	H	1.236843	0.295821	0.354759
Cl317	Cl	0.906433	-0.373207	-0.948660
Cl318	Cl	1.156433	-0.123207	-0.698660
Cl319	Cl	1.406433	0.126793	-0.448660
Cl320	Cl	1.656433	0.376793	-0.198660
H321	H	1.005710	-0.447176	-0.941732
H322	H	1.255710	-0.197176	-0.691732
H323	H	1.505710	0.052824	-0.441732
H324	H	1.755710	0.302824	-0.191732
H325	H	1.146245	-0.413172	-0.938380
H326	H	1.396245	-0.163172	-0.688380
H327	H	1.646245	0.086828	-0.438380
H328	H	1.896245	0.336828	-0.188380
Cl329	Cl	0.486973	-0.198996	-0.329333
Cl330	Cl	0.736973	0.051004	-0.079333
Cl331	Cl	0.986973	0.301004	0.170667
Cl332	Cl	1.236973	0.551004	0.420667
Cl333	Cl	0.636820	-0.199404	-0.329336
Cl334	Cl	0.886820	0.050596	-0.079336
Cl335	Cl	1.136820	0.300596	0.170664
Cl336	Cl	1.386820	0.550596	0.420664
Cl337	Cl	0.634523	-0.234016	-0.470248
Cl338	Cl	0.884523	0.015984	-0.220248
Cl339	Cl	1.134523	0.265984	0.029752
Cl340	Cl	1.384523	0.515984	0.279752
Cl341	Cl	1.150562	-0.589585	-0.276568
Cl342	Cl	1.400562	-0.339585	-0.026568
Cl343	Cl	1.650562	-0.089585	0.223432
Cl344	Cl	1.900562	0.160415	0.473432
H345	H	1.005969	-0.447763	-0.814132
H346	H	1.255969	-0.197763	-0.564132
H347	H	1.505969	0.052237	-0.314132
H348	H	1.755969	0.302237	-0.064132
H349	H	1.177791	-0.321154	-0.935005
H350	H	1.427791	-0.071154	-0.685005
H351	H	1.677791	0.178846	-0.435005
H352	H	1.927791	0.428846	-0.185005
Cl353	Cl	0.629812	-0.374937	-0.520755
Cl354	Cl	0.879812	-0.124937	-0.270755
Cl355	Cl	1.129812	0.125063	-0.020755
Cl356	Cl	1.379812	0.375063	0.229245
H357	H	1.122917	-0.738898	-0.304271
H358	H	1.372917	-0.488898	-0.054271
H359	H	1.622917	-0.238898	0.195729
H360	H	1.872917	0.011102	0.445729
H361	H	1.146898	-0.412240	-0.811268
H362	H	1.396898	-0.162240	-0.561268
H363	H	1.646898	0.087760	-0.311268
H364	H	1.896898	0.337760	-0.061268
Cl365	Cl	0.929257	-0.755187	-0.497649
Cl366	Cl	1.179257	-0.505187	-0.247649
Cl367	Cl	1.429257	-0.255187	0.002351
Cl368	Cl	1.679257	-0.005187	0.252351
Cl369	Cl	0.966868	-0.921126	-0.460195
Cl370	Cl	1.216868	-0.671126	-0.210195
Cl371	Cl	1.466868	-0.421126	0.039805
Cl372	Cl	1.716868	-0.171126	0.289805
Cl373	Cl	0.953477	-0.235747	-0.943807
Cl374	Cl	1.203477	0.014253	-0.693807
Cl375	Cl	1.453477	0.264253	-0.443807
Cl376	Cl	1.703477	0.514253	-0.193807
Cl377	Cl	0.949165	-0.241045	-0.793691
Cl378	Cl	1.199165	0.008955	-0.543691
Cl379	Cl	1.449165	0.258955	-0.293691
Cl380	Cl	1.699165	0.508955	-0.043691
