data_functionalizedCrystal
_audit_creation_method	'MofGen! by Chris Wilmer'
_symmetry_space_group_name_H-M	'P1'
_symmetry_Int_Tables_number	1
_symmetry_cell_setting	triclinic
loop_
_symmetry_equiv_pos_as_xyz
  x,y,z
_cell_length_a	16.625546
_cell_length_b	11.169417
_cell_length_c	11.169409
_cell_angle_alpha	90.019824
_cell_angle_beta	89.961577
_cell_angle_gamma	89.976653
loop_
_atom_site_label
_atom_site_type_symbol
_atom_site_fract_x
_atom_site_fract_y
_atom_site_fract_z
Zn1	Zn	-0.320917	-1.834861	-0.678492
Zn2	Zn	0.012416	-1.501528	-0.345159
Zn3	Zn	0.345749	-1.168195	-0.011825
Zn4	Zn	-0.455779	-1.834708	-0.477788
Zn5	Zn	-0.122446	-1.501375	-0.144454
Zn6	Zn	0.210887	-1.168041	0.188879
Zn7	Zn	-0.320967	-1.634147	-0.477826
Zn8	Zn	0.012367	-1.300814	-0.144493
Zn9	Zn	0.345700	-0.967480	0.188840
Zn10	Zn	-0.455714	-1.634112	-0.678432
Zn11	Zn	-0.122380	-1.300779	-0.345099
Zn12	Zn	0.210953	-0.967445	-0.011766
O13	O	-0.388344	-1.734457	-0.578135
O14	O	-0.055011	-1.401124	-0.244801
O15	O	0.278322	-1.067790	0.088532
O16	O	-0.338814	-2.002791	-0.651877
O17	O	-0.005481	-1.669457	-0.318543
O18	O	0.327853	-1.336124	0.014790
O19	O	-0.437944	-1.808054	-0.309843
O20	O	-0.104611	-1.474720	0.023490
O21	O	0.228722	-1.141387	0.356824
O22	O	-0.208128	-1.660851	-0.504486
O23	O	0.125206	-1.327518	-0.171153
O24	O	0.458539	-0.994184	0.162180
O25	O	-0.437897	-2.002678	-0.504420
O26	O	-0.104563	-1.669345	-0.171087
O27	O	0.228770	-1.336011	0.162247
O28	O	-0.208092	-1.808315	-0.651914
O29	O	0.125242	-1.474981	-0.318581
O30	O	0.458575	-1.141648	0.014752
O31	O	-0.338898	-1.660702	-0.309871
O32	O	-0.005565	-1.327369	0.023462
O33	O	0.327769	-0.994036	0.356795
O34	O	-0.338834	-1.466193	-0.504428
O35	O	-0.005501	-1.132859	-0.171095
O36	O	0.327832	-0.799526	0.162238
O37	O	-0.437785	-1.660791	-0.846390
O38	O	-0.104451	-1.327458	-0.513057
O39	O	0.228882	-0.994125	-0.179723
O40	O	-0.437832	-1.466167	-0.651813
O41	O	-0.104499	-1.132834	-0.318480
O42	O	0.228834	-0.799500	0.014854
O43	O	-0.338750	-1.808281	-0.846434
O44	O	-0.005417	-1.474947	-0.513101
O45	O	0.327916	-1.141614	-0.179767
O46	O	-0.568603	-1.808020	-0.504362
O47	O	-0.235270	-1.474687	-0.171029
O48	O	0.098063	-1.141353	0.162304
O49	O	-0.568555	-1.660643	-0.651775
O50	O	-0.235222	-1.327310	-0.318442
O51	O	0.098112	-0.993976	0.014891
C52	C	-0.597835	-1.734344	-0.578084
C53	C	-0.264502	-1.401010	-0.244751
C54	C	0.068831	-1.067677	0.088582
C55	C	-0.687456	-1.734405	-0.578103
C56	C	-0.354123	-1.401071	-0.244770
C57	C	-0.020790	-1.067738	0.088564
C58	C	-0.388332	-1.422632	-0.578119
C59	C	-0.054999	-1.089299	-0.244786
C60	C	0.278335	-0.755966	0.088548
C61	C	-0.388346	-1.289232	-0.578141
C62	C	-0.055013	-0.955899	-0.244808
C63	C	0.278320	-0.622566	0.088526
C64	C	-0.388357	-2.047499	-0.578151
C65	C	-0.055024	-1.714166	-0.244817
C66	C	0.278309	-1.380833	0.088516
C67	C	-0.388363	-2.180899	-0.578158
C68	C	-0.055029	-1.847566	-0.244824
C69	C	0.278304	-1.514233	0.088509
C70	C	-1.015632	-1.734614	-0.578228
C71	C	-0.682299	-1.401281	-0.244895
C72	C	-0.348965	-1.067947	0.088439
C73	C	-0.924323	-1.734552	-0.578197
C74	C	-0.590990	-1.401219	-0.244863
C75	C	-0.257657	-1.067885	0.088470
C76	C	-0.851547	-1.734508	-0.578165
C77	C	-0.518214	-1.401175	-0.244832
C78	C	-0.184880	-1.067842	0.088502
C79	C	-0.760233	-1.734448	-0.578135
C80	C	-0.426899	-1.401115	-0.244801
C81	C	-0.093566	-1.067782	0.088532
C82	C	-0.178035	-1.734604	-0.578211
C83	C	0.155298	-1.401270	-0.244878
C84	C	0.488631	-1.067937	0.088455
C85	C	-0.088414	-1.734666	-0.578244
C86	C	0.244919	-1.401333	-0.244911
C87	C	0.578252	-1.068000	0.088423
C88	C	-0.388255	-1.734549	-0.891177
C89	C	-0.054921	-1.401216	-0.557844
C90	C	0.278412	-1.067883	-0.224511
C91	C	-0.388217	-1.734589	-1.024577
C92	C	-0.054883	-1.401255	-0.691244
C93	C	0.278450	-1.067922	-0.357911
C94	C	-0.388375	-1.734434	-0.266310
C95	C	-0.055042	-1.401101	0.067024
C96	C	0.278291	-1.067768	0.400357
C97	C	-0.388186	-1.734628	-0.132910
C98	C	-0.054853	-1.401294	0.200423
C99	C	0.278480	-1.067961	0.533756
