data_functionalizedCrystal
_audit_creation_method	'MofGen! by Chris Wilmer'
_symmetry_space_group_name_H-M	'P1'
_symmetry_Int_Tables_number	1
_symmetry_cell_setting	triclinic
loop_
_symmetry_equiv_pos_as_xyz
  x,y,z
_cell_length_a	19.188930
_cell_length_b	14.044220
_cell_length_c	17.666332
_cell_angle_alpha	90.003574
_cell_angle_beta	90.023133
_cell_angle_gamma	88.166829
loop_
_atom_site_label
_atom_site_type_symbol
_atom_site_fract_x
_atom_site_fract_y
_atom_site_fract_z
O1	O	0.933784	0.118308	0.063192
O2	O	0.731501	0.134234	0.063140
O3	O	0.829606	-0.011701	0.063162
O4	O	0.835679	0.264243	0.063170
O5	O	0.829587	-0.011705	-0.062735
O6	O	0.731481	0.134230	-0.062756
O7	O	0.933765	0.118304	-0.062705
Cu8	Cu	0.832621	0.126267	-0.074226
Cu9	Cu	0.832644	0.126272	0.074662
O10	O	0.835659	0.264239	-0.062726
C11	C	0.705447	0.133716	0.000185
C12	C	0.627842	0.132168	0.000165
C13	C	0.826938	-0.047006	0.000214
C14	C	0.819010	-0.152199	0.000214
N15	N	0.832611	0.126262	-0.178945
C16	C	0.588444	0.217798	0.000180
C17	C	0.515526	0.216344	0.000188
C18	C	0.482010	0.129254	0.000197
C19	C	0.521417	0.043613	0.000178
C20	C	0.594333	0.045070	0.000163
N21	N	0.369741	0.062687	0.043074
N22	N	0.300473	0.061309	0.043091
C23	C	0.262318	0.124859	0.000243
N24	N	0.296046	0.189855	-0.042612
N25	N	0.365320	0.191236	-0.042625
C26	C	0.402945	0.127665	0.000214
C27	C	0.143854	0.208918	0.000266
C28	C	0.070935	0.207460	0.000269
C29	C	0.076827	0.034727	0.000267
C30	C	0.149744	0.036188	0.000256
C31	C	0.183253	0.123286	0.000259
C32	C	0.959819	0.118822	0.000252
C33	C	1.037423	0.120370	0.000277
C34	C	0.838327	0.299544	0.000224
C35	C	0.846256	0.404737	0.000228
C36	C	0.860752	0.597339	0.000229
C37	C	0.804517	0.655205	0.000214
C38	C	0.812583	0.762375	0.000214
C39	C	0.852687	0.490159	0.000229
C40	C	0.878520	0.183600	-0.218535
C41	C	0.878531	0.183597	-0.297783
C42	C	0.832620	0.126268	-0.337437
C43	C	0.786708	0.068919	-0.297838
C44	C	0.786703	0.068916	-0.218592
N45	N	0.771321	0.123933	-0.461893
N46	N	0.771328	0.123941	-0.537173
C47	C	0.832633	0.126271	-0.576201
N48	N	0.893933	0.128611	-0.537105
N49	N	0.893926	0.128608	-0.461818
C50	C	0.832621	0.126264	-0.423366
C51	C	0.878558	0.183609	-0.701721
C52	C	0.878570	0.183599	-0.780970
C53	C	0.786741	0.068926	-0.781023
C54	C	0.786735	0.068930	-0.701776
C55	C	0.832643	0.126277	-0.662129
N56	N	0.832660	0.126268	0.179381
H57	H	0.615722	0.288720	0.000184
C58	C	0.472180	0.310547	0.000213
N59	N	0.439534	0.381501	0.000236
C60	C	0.933971	0.639144	0.000235
N61	N	0.989119	0.670643	0.000234
H62	H	0.749361	0.022246	-0.813309
C63	C	0.736224	0.005864	-0.658225
N64	N	0.698177	-0.041641	-0.625422
H65	H	0.750316	0.624259	0.000199
C66	C	0.484548	-0.052186	0.000189
N67	N	0.456778	-0.124344	0.000195
H68	H	0.915916	0.230291	-0.330024
C69	C	0.637673	-0.049134	0.000152
N70	N	0.670317	-0.120090	0.000146
H71	H	0.171138	0.279839	0.000257
H72	H	0.749328	0.022240	-0.330129
H73	H	0.038858	0.277193	0.000277
H74	H	0.915904	0.230292	-0.186260
H75	H	0.749317	0.022224	-0.186358
H76	H	0.915939	0.230303	-0.669439
C77	C	0.929063	0.246698	-0.824519
N78	N	0.967090	0.294234	-0.857321
H79	H	0.049539	-0.036183	0.000322
H80	H	0.181823	-0.033542	0.000248
