data_functionalizedCrystal
_audit_creation_method	'MofGen! by Chris Wilmer'
_symmetry_space_group_name_H-M	'P1'
_symmetry_Int_Tables_number	1
_symmetry_cell_setting	triclinic
loop_
_symmetry_equiv_pos_as_xyz
  x,y,z
_cell_length_a	10.654550
_cell_length_b	15.995350
_cell_length_c	9.730223
_cell_angle_alpha	90.000899
_cell_angle_beta	89.996251
_cell_angle_gamma	83.988639
loop_
_atom_site_label
_atom_site_type_symbol
_atom_site_fract_x
_atom_site_fract_y
_atom_site_fract_z
O1	O	1.666298	0.117599	-0.114395
O2	O	1.300673	0.128803	-0.114373
O3	O	1.493480	0.001371	-0.114383
O4	O	1.473491	0.245031	-0.114385
O5	O	1.493478	0.001375	0.114197
O6	O	1.300671	0.128806	0.114207
O7	O	1.666295	0.117602	0.114185
Zn8	Zn	1.483483	0.123205	0.150488
Zn9	Zn	1.483486	0.123200	-0.150676
O10	O	1.473488	0.245034	0.114195
C11	C	1.253885	0.127982	-0.000080
C12	C	1.114473	0.125521	-0.000071
C13	C	1.034008	0.200551	-0.000092
C14	C	0.903017	0.198233	-0.000116
C15	C	0.932971	0.045849	-0.000104
C16	C	1.063959	0.048168	-0.000071
C17	C	1.016713	0.288528	-0.000104
C18	C	0.885722	0.286211	-0.000128
C19	C	1.492652	-0.029827	-0.000096
C20	C	1.490175	-0.122791	-0.000104
C21	C	1.481278	-0.460591	-0.000098
C22	C	1.343964	-0.413954	-0.000603
C23	C	1.346442	-0.317249	-0.000087
C24	C	1.485691	-0.293004	-0.000102
C25	C	1.553417	-0.333687	0.130422
C26	C	1.549968	-0.430342	0.130531
C27	C	1.552807	-0.430688	-0.129407
C28	C	1.552775	-0.333743	-0.131132
C29	C	1.488192	-0.198292	-0.000099
C30	C	1.478780	-0.555303	-0.000092
C31	C	1.713084	0.118423	-0.000111
C32	C	1.852495	0.120884	-0.000129
C33	C	1.474316	0.276232	-0.000095
C34	C	1.476793	0.369197	-0.000097
N35	N	1.483490	0.123207	0.356024
N36	N	1.483488	0.123191	-0.356212
C37	C	1.568886	0.066800	0.427946
C38	C	1.568883	0.066789	0.571829
C39	C	1.398083	0.179602	0.571856
C40	C	1.398081	0.179607	0.427976
C41	C	1.667501	0.001671	0.427931
C42	C	1.667497	0.001661	0.571814
H43	H	1.293204	-0.289138	-0.093652
C44	C	1.270160	-0.440824	0.125181
N45	N	1.214579	-0.461057	0.219934
H46	H	1.758418	0.022064	0.383299
C47	C	1.274038	-0.280021	0.126542
N48	N	1.219503	-0.251981	0.221927
H49	H	1.052003	0.316540	-0.098792
H50	H	0.843557	0.319358	-0.095796
H51	H	1.289082	-0.432806	-0.094203
C52	C	0.823542	0.322149	0.133173
N53	N	0.776705	0.349222	0.233569
C54	C	1.489861	-0.295719	0.261658
N55	N	1.441981	-0.267124	0.360502
C56	C	1.627334	-0.080494	0.632098
N57	N	1.597075	-0.142369	0.677505
C58	C	1.689575	-0.472806	-0.130613
N59	N	1.792584	-0.504535	-0.131512
H60	H	1.500580	-0.448929	0.228110
C61	C	1.304234	0.241724	0.348868
N62	N	1.233583	0.288539	0.289283
C63	C	1.492154	-0.458786	-0.263057
N64	N	1.446455	-0.479947	-0.363716
H65	H	1.328544	0.225520	0.630455
H66	H	0.891826	-0.017130	-0.000125
C67	C	1.686159	-0.473119	0.138540
N68	N	1.788737	-0.505335	0.144581
C69	C	1.639659	-0.085269	0.375167
N70	N	1.618686	-0.150749	0.335425
H71	H	1.763822	0.016006	0.610858
C72	C	1.055736	0.335011	0.129135
N73	N	1.085128	0.370019	0.226478
C74	C	1.152468	-0.034371	-0.000029
N75	N	1.219134	-0.096543	0.000003
C76	C	1.485943	-0.297273	-0.261583
N77	N	1.435592	-0.269806	-0.359836
C78	C	1.689965	-0.312200	-0.141789
N79	N	1.793304	-0.295977	-0.149804
C80	C	1.691616	-0.313785	0.136988
N81	N	1.795704	-0.298787	0.141937
