data_functionalizedCrystal
_audit_creation_method	'MofGen! by Chris Wilmer'
_symmetry_space_group_name_H-M	'P1'
_symmetry_Int_Tables_number	1
_symmetry_cell_setting	triclinic
loop_
_symmetry_equiv_pos_as_xyz
  x,y,z
_cell_length_a	16.625539
_cell_length_b	13.033304
_cell_length_c	13.032318
_cell_angle_alpha	103.332818
_cell_angle_beta	97.209725
_cell_angle_gamma	97.211451
loop_
_atom_site_label
_atom_site_type_symbol
_atom_site_fract_x
_atom_site_fract_y
_atom_site_fract_z
Zn1	Zn	-0.588807	-1.570185	0.216896
Zn2	Zn	-0.255474	-1.236852	0.550229
Zn3	Zn	0.077860	-0.903518	0.883563
Zn4	Zn	-0.434327	-1.547478	0.394573
Zn5	Zn	-0.100993	-1.214144	0.727906
Zn6	Zn	0.232340	-0.880811	1.061240
Zn7	Zn	-0.434334	-1.392544	0.239470
Zn8	Zn	-0.101000	-1.059211	0.572804
Zn9	Zn	0.232333	-0.725877	0.906137
Zn10	Zn	-0.549484	-1.369938	0.417035
Zn11	Zn	-0.216151	-1.036605	0.750368
Zn12	Zn	0.117183	-0.703272	1.083701
O13	O	-0.501738	-1.470036	0.316993
O14	O	-0.168404	-1.136703	0.650327
O15	O	0.164929	-0.803370	0.983660
O16	O	-0.584769	-1.715817	0.221617
O17	O	-0.251435	-1.382484	0.554951
O18	O	0.081898	-1.049150	0.888284
O19	O	-0.321486	-1.526883	0.374045
O20	O	0.011847	-1.193550	0.707379
O21	O	0.345180	-0.860216	1.040712
O22	O	-0.471285	-1.435072	0.087806
O23	O	-0.137951	-1.101739	0.421139
O24	O	0.195382	-0.768405	0.754473
O25	O	-0.471273	-1.699134	0.352156
O26	O	-0.137939	-1.365801	0.685489
O27	O	0.195394	-1.032467	1.018823
O28	O	-0.584775	-1.565584	0.071221
O29	O	-0.251442	-1.232251	0.404554
O30	O	0.081891	-0.898917	0.737887
O31	O	-0.321492	-1.413054	0.260092
O32	O	0.011842	-1.079720	0.593426
O33	O	0.345175	-0.746387	0.926759
O34	O	-0.433155	-1.240901	0.281872
O35	O	-0.099821	-0.907568	0.615206
O36	O	0.233512	-0.574234	0.948539
O37	O	-0.667541	-1.396544	0.390439
O38	O	-0.334208	-1.063210	0.723772
O39	O	-0.000875	-0.729877	1.057105
O40	O	-0.517755	-1.224293	0.412328
O41	O	-0.184422	-0.890959	0.745662
O42	O	0.148912	-0.557626	1.078995
O43	O	-0.696432	-1.543664	0.243398
O44	O	-0.363099	-1.210331	0.576731
O45	O	-0.029765	-0.876998	0.910064
O46	O	-0.433143	-1.504963	0.546222
O47	O	-0.099810	-1.171630	0.879556
O48	O	0.233524	-0.838296	1.212889
O49	O	-0.517748	-1.374526	0.562725
O50	O	-0.184415	-1.041192	0.896058
O51	O	0.148918	-0.707859	1.229392
C52	C	-0.471189	-1.194055	0.351988
C53	C	-0.137856	-0.860722	0.685321
C54	C	0.195478	-0.527388	1.018655
C55	C	-0.458136	-1.075986	0.366985
C56	C	-0.124803	-0.742652	0.700318
C57	C	0.208530	-0.409319	1.033651
C58	C	-0.508537	-1.031588	0.309183
C59	C	-0.175204	-0.698255	0.642516
C60	C	0.158129	-0.364921	0.975849
C61	C	-0.495048	-0.909558	0.324681
C62	C	-0.161715	-0.576224	0.658014
C63	C	0.171619	-0.242891	0.991347
C64	C	-0.712063	-1.470115	0.316906
C65	C	-0.378730	-1.136782	0.650239
C66	C	-0.045397	-0.803449	0.983572
C67	C	-0.801691	-1.470149	0.316868
C68	C	-0.468358	-1.136816	0.650201
C69	C	-0.135025	-0.803482	0.983535
C70	C	-1.129886	-1.470213	0.316743
C71	C	-0.796552	-1.136880	0.650076
C72	C	-0.463219	-0.803546	0.983410
C73	C	-1.038571	-1.470192	0.316782
C74	C	-0.705238	-1.136859	0.650115
C75	C	-0.371905	-0.803525	0.983448
C76	C	-0.965791	-1.470182	0.316806
C77	C	-0.632458	-1.136848	0.650140
C78	C	-0.299125	-0.803515	0.983473
C79	C	-0.874471	-1.470159	0.316843
C80	C	-0.541138	-1.136826	0.650177
C81	C	-0.207805	-0.803493	0.983510
C82	C	-0.292246	-1.470028	0.316997
C83	C	0.041087	-1.136695	0.650330
C84	C	0.374421	-0.803362	0.983663
C85	C	-0.202674	-1.470238	0.316709
C86	C	0.130659	-1.136905	0.650042
C87	C	0.463993	-0.803572	0.983375
C88	C	-0.471199	-1.434856	0.593018
C89	C	-0.137865	-1.101523	0.926352
C90	C	0.195468	-0.768189	1.259685
C91	C	-0.458172	-1.419903	0.711091
C92	C	-0.124838	-1.086570	1.044424
C93	C	0.208495	-0.753236	1.377757
C94	C	-0.532401	-0.747096	0.281858
C95	C	-0.199068	-0.413762	0.615191
C96	C	0.134265	-0.080429	0.948524
C97	C	-0.545456	-0.865164	0.266871
C98	C	-0.212123	-0.531830	0.600204
C99	C	0.121211	-0.198497	0.933538
C100	C	-0.508560	-1.477769	0.755447
C101	C	-0.175227	-1.144436	1.088780
C102	C	0.158107	-0.811103	1.422114
C103	C	-0.495097	-1.462316	0.877481
C104	C	-0.161764	-1.128983	1.210814
C105	C	0.171569	-0.795650	1.544147
C106	C	-0.532418	-1.505319	1.039895
C107	C	-0.199084	-1.171985	1.373228
C108	C	0.134249	-0.838652	1.706562
C109	C	-0.545493	-1.520191	0.921833
C110	C	-0.212160	-1.186857	1.255167
C111	C	0.121174	-0.853524	1.588500
H112	H	-0.561671	-1.083921	0.248219
H113	H	-0.228338	-0.750588	0.581552
H114	H	0.104995	-0.417254	0.914886
N115	N	-0.612099	-1.596735	0.856149
N116	N	-0.278766	-1.263401	1.189482
N117	N	0.054567	-0.930068	1.522816
N118	N	-0.598030	-1.672237	0.785623
N119	N	-0.264697	-1.338904	1.118957
N120	N	0.068637	-1.005571	1.452290
H121	H	-0.645064	-1.726309	0.739237
H122	H	-0.311731	-1.392976	1.072570
H123	H	0.021602	-1.059642	1.405904
H124	H	-0.441906	-0.857229	0.385643
H125	H	-0.108573	-0.523896	0.718976
H126	H	0.224760	-0.190562	1.052309
H127	H	-0.598593	-0.917492	0.205901
H128	H	-0.265260	-0.584159	0.539234
H129	H	0.068073	-0.250825	0.872568
H130	H	-0.405068	-1.358916	0.763461
H131	H	-0.071735	-1.025583	1.096795
H132	H	0.261598	-0.692250	1.430128
H133	H	-0.441990	-1.401325	0.929848
H134	H	-0.108657	-1.067992	1.263181
H135	H	0.224676	-0.734658	1.596515
H136	H	-0.561670	-1.538748	0.703080
H137	H	-0.228336	-1.205415	1.036413
H138	H	0.104997	-0.872081	1.369746
N139	N	-0.391472	-1.010332	0.443447
N140	N	-0.058139	-0.676998	0.776780
N141	N	0.275195	-0.343665	1.110113
N142	N	-0.380606	-0.911295	0.455923
N143	N	-0.047272	-0.577962	0.789257
N144	N	0.286061	-0.244629	1.122590
H145	H	-0.333522	-0.864927	0.509925
H146	H	-0.000188	-0.531594	0.843259
H147	H	0.333145	-0.198260	1.176592
