data_functionalizedCrystal
_audit_creation_method	'MofGen! by Chris Wilmer'
_symmetry_space_group_name_H-M	'P1'
_symmetry_Int_Tables_number	1
_symmetry_cell_setting	triclinic
loop_
_symmetry_equiv_pos_as_xyz
  x,y,z
_cell_length_a	14.971482
_cell_length_b	13.330367
_cell_length_c	14.971494
_cell_angle_alpha	90.002923
_cell_angle_beta	83.615083
_cell_angle_gamma	90.006998
loop_
_atom_site_label
_atom_site_type_symbol
_atom_site_fract_x
_atom_site_fract_y
_atom_site_fract_z
O1	O	1.186954	0.083407	0.116546
O2	O	0.926554	0.083411	0.130508
O3	O	1.063730	0.083406	-0.006673
O4	O	1.049779	0.083411	0.253727
O5	O	1.063710	-0.083441	-0.006676
O6	O	0.926534	-0.083436	0.130505
O7	O	1.186934	-0.083441	0.116543
Cu8	Cu	1.056732	-0.098673	0.123524
Cu9	Cu	1.056756	0.098643	0.123527
O10	O	1.049759	-0.083436	0.253723
C11	C	0.893219	-0.000012	0.129883
C12	C	0.793922	-0.000010	0.128013
C13	C	0.747267	-0.090960	0.127131
C14	C	0.653968	-0.090961	0.125360
C15	C	0.607326	-0.000011	0.124478
C16	C	0.653988	0.090945	0.125358
C17	C	0.747286	0.090945	0.127122
C18	C	0.459526	0.090939	0.121682
C19	C	0.366222	0.090939	0.119920
C20	C	0.366208	-0.090967	0.119921
C21	C	0.459506	-0.090967	0.121685
C22	C	0.506162	-0.000010	0.122566
N23	N	1.056722	-0.237454	0.123520
C24	C	0.996012	-0.710075	0.184247
C25	C	1.117524	-0.710047	0.062800
C26	C	1.117514	-0.605029	0.062798
C27	C	1.056753	-0.552529	0.123521
C28	C	0.996002	-0.605047	0.184248
C29	C	1.178270	-0.552503	0.002078
C30	C	1.178263	-0.447478	0.002074
C31	C	1.117497	-0.394976	0.062794
C32	C	1.056743	-0.447501	0.123522
C33	C	0.995982	-0.395001	0.184246
C34	C	0.935222	-0.447523	0.244971
C35	C	0.935236	-0.552545	0.244968
C36	C	1.117484	-0.289954	0.062797
C37	C	0.995971	-0.289973	0.184247
C38	C	1.220269	-0.000015	0.117168
C39	C	1.319566	-0.000011	0.119037
N40	N	1.056773	0.237425	0.123523
C41	C	1.063094	-0.000016	-0.039999
C42	C	1.061221	-0.000011	-0.139296
C43	C	1.060353	0.090939	-0.185939
C44	C	1.058587	0.090940	-0.279238
C45	C	1.057695	-0.000009	-0.325893
C46	C	1.058559	-0.090966	-0.279243
C47	C	1.060319	-0.090966	-0.185945
C48	C	1.054893	-0.090959	-0.473706
C49	C	1.053135	-0.090959	-0.567011
C50	C	1.053161	0.090947	-0.566999
C51	C	1.054921	0.090947	-0.473701
C52	C	1.055787	-0.000010	-0.427057
C53	C	1.050394	-0.000012	0.287050
C54	C	1.052268	-0.000010	0.386346
H55	H	0.328217	-0.165028	0.119203
C56	C	0.539106	0.196473	0.200212
C57	C	0.602720	0.190920	0.124391
H58	H	0.507461	0.258198	0.199619
H59	H	0.497972	0.142313	0.199428
H60	H	0.568748	0.192693	0.253012
H61	H	0.573077	0.194693	0.071591
H62	H	0.643861	0.245095	0.125168
H63	H	1.227744	-0.595252	-0.047357
H64	H	0.885769	-0.595316	0.294409
H65	H	1.052401	-0.165018	-0.604994
C66	C	0.375602	0.270747	0.120091
C67	C	0.314950	0.190911	0.118952
H68	H	0.343947	0.332465	0.119491
H69	H	0.405228	0.266968	0.172892
H70	H	0.418756	0.266959	0.068652
H71	H	0.271800	0.194695	0.170395
H72	H	0.285310	0.194691	0.066146
H73	H	1.057827	-0.165019	-0.317236
C74	C	0.559040	-0.196501	0.046526
C75	C	0.602694	-0.190941	0.124381
H76	H	0.527394	-0.258232	0.045916
H77	H	0.517906	-0.142349	0.045755
H78	H	0.602219	-0.192708	-0.004893
H79	H	0.559514	-0.194726	0.175800
H80	H	0.643831	-0.245108	0.125160
C81	C	1.054673	-0.270771	-0.483082
C82	C	1.055830	-0.190940	-0.422432
H83	H	1.055255	-0.332491	-0.451426
H84	H	1.001876	-0.266976	-0.512712
H85	H	1.106116	-0.266992	-0.526234
H86	H	1.004384	-0.194715	-0.379284
H87	H	1.108633	-0.194737	-0.392788
C88	C	0.985493	0.196463	-0.071053
C89	C	1.061317	0.190919	-0.134663
H90	H	0.986086	0.258187	-0.039398
H91	H	0.932701	0.192668	-0.100693
H92	H	0.986279	0.142298	-0.029918
H93	H	1.060528	0.245079	-0.175802
H94	H	1.114123	0.194723	-0.105022
H95	H	1.052454	0.165007	-0.604980
H96	H	1.061013	-0.165027	-0.147967
H97	H	0.946540	-0.752842	0.233686
C98	C	0.881266	-0.286537	0.298891
C99	C	0.868435	-0.389808	0.311717
H100	H	0.840031	-0.250906	0.340094
H101	H	0.940961	-0.269325	0.308707
H102	H	0.871491	-0.269343	0.239174
H103	H	0.878216	-0.407004	0.371432
H104	H	0.808725	-0.407027	0.301908
H105	H	1.166957	-0.247195	0.013360
H106	H	0.785235	-0.165021	0.127857
H107	H	0.497479	-0.165026	0.122409
H108	H	0.497510	0.165005	0.122400
C109	C	1.237618	-0.699473	-0.057258
C110	C	1.184303	-0.767751	-0.003953
H111	H	1.278846	-0.735103	-0.098470
H112	H	1.200345	-0.658522	-0.089483
H113	H	1.269834	-0.658501	-0.019969
H114	H	1.152081	-0.808719	-0.041242
H115	H	1.221581	-0.808720	0.028274
C116	C	0.737932	0.270750	0.126962
C117	C	0.798572	0.190920	0.128102
H118	H	0.769595	0.332471	0.127571
H119	H	0.708313	0.266970	0.074156
H120	H	0.694771	0.266958	0.178396
H121	H	0.841729	0.194708	0.076664
H122	H	0.828206	0.194703	0.180913
H123	H	0.946489	-0.247233	0.233693
C124	C	1.298371	-0.458011	-0.117979
C125	C	1.245039	-0.389750	-0.064680
H126	H	1.339589	-0.422369	-0.159195
H127	H	1.330589	-0.498955	-0.080694
H128	H	1.261100	-0.498993	-0.150208
H129	H	1.282309	-0.348773	-0.032447
H130	H	1.212819	-0.348789	-0.101971
C131	C	1.058868	0.270743	-0.269865
C132	C	1.057684	0.190915	-0.330514
H133	H	1.058328	0.332465	-0.301525
H134	H	1.007425	0.266997	-0.226726
H135	H	1.111665	0.266913	-0.240223
H136	H	1.004883	0.194740	-0.360151
H137	H	1.109132	0.194663	-0.373669
H138	H	1.055654	0.165006	-0.435717
