data_functionalizedCrystal
_audit_creation_method	'MofGen! by Chris Wilmer'
_symmetry_space_group_name_H-M	'P1'
_symmetry_Int_Tables_number	1
_symmetry_cell_setting	triclinic
loop_
_symmetry_equiv_pos_as_xyz
  x,y,z
_cell_length_a	14.908941
_cell_length_b	11.169416
_cell_length_c	11.169406
_cell_angle_alpha	89.955198
_cell_angle_beta	93.260056
_cell_angle_gamma	93.303475
loop_
_atom_site_label
_atom_site_type_symbol
_atom_site_fract_x
_atom_site_fract_y
_atom_site_fract_z
Zn1	Zn	-1.379371	0.371650	0.572952
Zn2	Zn	-1.379274	0.572451	0.372286
Zn3	Zn	-1.228476	0.383356	0.383840
Zn4	Zn	-1.228528	0.583868	0.584473
O5	O	-1.303912	0.477831	0.478388
O6	O	-1.505596	0.388609	0.536676
O7	O	-1.359209	0.547488	0.205874
O8	O	-1.248512	0.213852	0.408940
O9	O	-1.505525	0.536137	0.389248
O10	O	-1.359373	0.205251	0.547879
O11	O	-1.248418	0.408561	0.214362
O12	O	-1.102245	0.419631	0.420111
O13	O	-1.248599	0.555596	0.750890
O14	O	-1.102283	0.566947	0.567516
O15	O	-1.359423	0.399680	0.742426
O16	O	-1.359258	0.741917	0.400420
O17	O	-1.248505	0.750305	0.556313
C18	C	-1.069532	0.495799	0.496318
C19	C	-0.969263	0.503515	0.504017
C20	C	-1.303948	0.164786	0.478413
C21	C	-1.303963	0.031385	0.478424
C22	C	-0.780756	0.364382	0.365207
C23	C	-0.686545	0.371628	0.372437
C24	C	-0.686627	0.525257	0.525701
C25	C	-0.780838	0.518011	0.518471
C26	C	-0.827900	0.437570	0.438222
C27	C	-0.922113	0.430319	0.430999
C28	C	-0.922193	0.583953	0.584256
C29	C	-0.827982	0.591198	0.591486
C30	C	-0.539208	0.459782	0.460379
C31	C	-0.639477	0.452061	0.452683
C32	C	-1.303901	0.789657	0.478387
C33	C	-1.303979	0.923051	0.478420
C34	C	-1.303849	0.477965	0.166568
C35	C	-1.303975	0.477710	0.033159
C36	C	-1.304027	0.477606	0.791422
C37	C	-1.304076	0.477509	0.924818
H38	H	-0.960429	0.364813	0.365664
F39	F	-0.777886	0.676817	0.676875
H40	H	-0.819074	0.298870	0.299880
F41	F	-0.636374	0.293734	0.294722
F42	F	-0.972373	0.661831	0.661988
H43	H	-0.648293	0.590758	0.591024
