data_functionalizedCrystal
_audit_creation_method	'MofGen! by Chris Wilmer'
_symmetry_space_group_name_H-M	'P1'
_symmetry_Int_Tables_number	1
_symmetry_cell_setting	triclinic
loop_
_symmetry_equiv_pos_as_xyz
  x,y,z
_cell_length_a	10.654550
_cell_length_b	17.699083
_cell_length_c	9.730223
_cell_angle_alpha	89.997786
_cell_angle_beta	89.996251
_cell_angle_gamma	83.883958
loop_
_atom_site_label
_atom_site_type_symbol
_atom_site_fract_x
_atom_site_fract_y
_atom_site_fract_z
O1	O	1.665973	0.106299	-0.114406
O2	O	1.300318	0.116427	-0.114384
O3	O	1.493476	0.001240	-0.114384
O4	O	1.472815	0.221487	-0.114407
O5	O	1.493474	0.001243	0.114196
O6	O	1.300315	0.116430	0.114196
O7	O	1.665971	0.106302	0.114174
Zn8	Zn	1.483143	0.111366	0.150477
Zn9	Zn	1.483146	0.111363	-0.150687
O10	O	1.472813	0.221490	0.114173
C11	C	1.253531	0.115685	-0.000091
C12	C	1.114127	0.113460	-0.000083
C13	C	1.492735	-0.026961	-0.000093
C14	C	1.490514	-0.110993	-0.000093
C15	C	1.033454	0.181281	-0.000110
C16	C	0.902470	0.179185	-0.000133
C17	C	0.932845	0.041443	-0.000108
C18	C	1.063826	0.043539	-0.000075
C19	C	1.015917	0.260805	-0.000130
C20	C	0.884933	0.258710	-0.000154
C21	C	1.603894	-0.158893	-0.000097
C22	C	1.601799	-0.237850	-0.000109
C23	C	1.486324	-0.268905	-0.000107
C24	C	1.372935	-0.220998	-0.000106
C25	C	1.375031	-0.142043	-0.000104
C26	C	1.364481	-0.539415	-0.000117
C27	C	1.362394	-0.618376	-0.000115
C28	C	1.591249	-0.635222	-0.000122
C29	C	1.593345	-0.556266	-0.000120
C30	C	1.479957	-0.508367	-0.000127
C31	C	1.482229	-0.422753	-0.000116
C32	C	1.484050	-0.354517	-0.000107
C33	C	1.712757	0.107044	-0.000122
C34	C	1.852161	0.109269	-0.000140
C35	C	1.473554	0.249690	-0.000120
C36	C	1.475775	0.333722	-0.000130
N37	N	1.483150	0.111369	0.356013
N38	N	1.483149	0.111355	-0.356223
C39	C	1.568702	0.060381	0.427940
C40	C	1.568699	0.060372	0.571823
C41	C	1.397587	0.162345	0.571840
C42	C	1.397585	0.162349	0.427960
C43	C	1.667496	0.001510	0.427931
C44	C	1.667493	0.001501	0.571814
H45	H	0.891873	-0.015484	-0.000123
C46	C	1.245911	-0.255159	-0.000105
C47	C	1.151789	-0.237355	0.118591
C48	C	1.024763	-0.271515	0.118596
C49	C	0.991859	-0.323479	-0.000096
C50	C	1.085983	-0.341285	-0.118802
C51	C	1.213009	-0.307125	-0.118806
H52	H	1.176144	-0.198887	0.206462
H53	H	0.955086	-0.258334	0.206470
H54	H	0.897827	-0.348766	-0.000093
H55	H	1.061628	-0.379753	-0.206672
H56	H	1.282686	-0.320306	-0.206680
C57	C	1.790240	0.026413	0.367624
C58	C	1.917927	-0.019135	0.400819
C59	C	2.040669	0.005773	0.340513
C60	C	2.035722	0.076228	0.247012
C61	C	1.908029	0.121780	0.213812
C62	C	1.785288	0.096872	0.274118
H63	H	1.921594	-0.071294	0.470038
H64	H	2.135195	-0.027948	0.365091
H65	H	2.126582	0.094666	0.202370
H66	H	1.904363	0.173939	0.144593
H67	H	1.690761	0.130593	0.249540
C68	C	1.726516	-0.290543	-0.000102
C69	C	1.756561	-0.347136	-0.118799
C70	C	1.881282	-0.399831	-0.118791
C71	C	1.975959	-0.395933	-0.000086
C72	C	1.945917	-0.339338	0.118620
C73	C	1.821196	-0.286643	0.118612
H74	H	1.686473	-0.350024	-0.206680
H75	H	1.903521	-0.441727	-0.206666
H76	H	2.068285	-0.434941	-0.000080
H77	H	2.016005	-0.336451	0.206500
H78	H	1.798957	-0.244747	0.206486
C79	C	0.827840	0.299178	-0.129401
C80	C	0.729329	0.368978	-0.114912
C81	C	0.672238	0.409443	-0.244155
C82	C	0.713659	0.380109	-0.387887
C83	C	0.812176	0.310306	-0.402381
C84	C	0.869266	0.269840	-0.273138
H85	H	0.698662	0.390696	-0.008508
H86	H	0.599310	0.461116	-0.233424
H87	H	0.671398	0.410064	-0.483560
H88	H	0.842843	0.288588	-0.508785
H89	H	0.942195	0.218167	-0.283869
C90	C	1.063495	0.295011	-0.133451
C91	C	1.159459	0.247310	-0.225213
C92	C	1.207036	0.281510	-0.358540
C93	C	1.158650	0.363412	-0.400105
C94	C	1.062680	0.411118	-0.308341
C95	C	1.015103	0.376917	-0.175015
H96	H	1.195282	0.186677	-0.194445
H97	H	1.278079	0.246195	-0.426469
H98	H	1.193869	0.388729	-0.498801
H99	H	1.026857	0.471751	-0.339109
H100	H	0.944060	0.412233	-0.107086
H101	H	1.647071	-0.056663	0.388884
C102	C	1.627609	-0.072765	0.632131
C103	C	1.510688	-0.070603	0.725668
C104	C	1.470815	-0.144867	0.785997
C105	C	1.547863	-0.221292	0.752788
C106	C	1.664792	-0.223457	0.659245
C107	C	1.704664	-0.149193	0.598917
H108	H	1.453646	-0.014026	0.750256
H109	H	1.384257	-0.143264	0.855243
H110	H	1.518347	-0.276267	0.797447
H111	H	1.721834	-0.280034	0.634658
H112	H	1.791223	-0.150796	0.529670
H113	H	1.129507	-0.011687	-0.000033
H114	H	1.327911	0.203861	0.369399
H115	H	1.697927	-0.133615	-0.000091
C116	C	1.797549	0.019032	0.624586
C117	C	1.877047	-0.039016	0.715574
C118	C	2.007091	-0.021479	0.768353
C119	C	2.057637	0.054107	0.730144
C120	C	1.978137	0.112160	0.639151
C121	C	1.848093	0.094622	0.586373
H122	H	1.839631	-0.094973	0.743863
H123	H	2.065941	-0.064454	0.835711
H124	H	2.153903	0.067089	0.769214
H125	H	2.015553	0.168117	0.610863
H126	H	1.789243	0.137598	0.519014
H127	H	1.044703	0.291908	0.095532
H128	H	0.838840	0.282744	0.098528
H129	H	1.687377	-0.530986	-0.000115
H130	H	1.683575	-0.674231	-0.000124
H131	H	1.268354	-0.643658	-0.000110
H132	H	1.272153	-0.500424	-0.000122
H133	H	1.282705	-0.103043	-0.000100
H134	H	1.327922	0.203851	0.630435
