data_functionalizedCrystal
_audit_creation_method	'MofGen! by Chris Wilmer'
_symmetry_space_group_name_H-M	'P1'
_symmetry_Int_Tables_number	1
_symmetry_cell_setting	triclinic
loop_
_symmetry_equiv_pos_as_xyz
  x,y,z
_cell_length_a	10.967926
_cell_length_b	19.188924
_cell_length_c	18.266242
_cell_angle_alpha	90.007204
_cell_angle_beta	77.879694
_cell_angle_gamma	83.944562
loop_
_atom_site_label
_atom_site_type_symbol
_atom_site_fract_x
_atom_site_fract_y
_atom_site_fract_z
O1	O	1.655097	0.097916	-0.147930
O2	O	1.905097	0.347916	0.102070
O3	O	2.155097	0.597916	0.352070
O4	O	2.405097	0.847916	0.602070
O5	O	1.291763	0.107290	-0.102088
O6	O	1.541763	0.357290	0.147912
O7	O	1.791763	0.607290	0.397912
O8	O	2.041763	0.857290	0.647912
O9	O	1.483920	0.001015	-0.126341
O10	O	1.733920	0.251015	0.123659
O11	O	1.983920	0.501015	0.373659
O12	O	2.233920	0.751015	0.623659
O13	O	1.462941	0.204191	-0.123677
O14	O	1.712941	0.454191	0.126323
O15	O	1.962941	0.704191	0.376323
O16	O	2.212941	0.954191	0.626323
O17	O	1.483887	0.001012	-0.248099
O18	O	1.733887	0.251012	0.001901
O19	O	1.983887	0.501012	0.251901
O20	O	2.233887	0.751012	0.501901
O21	O	1.291731	0.107287	-0.223846
O22	O	1.541731	0.357287	0.026154
O23	O	1.791731	0.607287	0.276154
O24	O	2.041731	0.857287	0.526154
O25	O	1.655064	0.097912	-0.269688
O26	O	1.905064	0.347912	-0.019688
O27	O	2.155064	0.597912	0.230312
O28	O	2.405064	0.847912	0.480312
Zn29	Zn	1.473392	0.102599	-0.266098
Zn30	Zn	1.723392	0.352599	-0.016098
Zn31	Zn	1.973392	0.602599	0.233902
Zn32	Zn	2.223392	0.852599	0.483902
Zn33	Zn	1.473435	0.102603	-0.105677
Zn34	Zn	1.723435	0.352603	0.144323
Zn35	Zn	1.973435	0.602603	0.394323
Zn36	Zn	2.223435	0.852603	0.644323
O37	O	1.462908	0.204188	-0.245435
O38	O	1.712908	0.454188	0.004565
O39	O	1.962908	0.704188	0.254565
O40	O	2.212908	0.954188	0.504565
C41	C	1.245263	0.106607	-0.157102
C42	C	1.495263	0.356607	0.092898
C43	C	1.745263	0.606607	0.342898
C44	C	1.995263	0.856607	0.592898
C45	C	1.106757	0.104567	-0.139627
C46	C	1.356757	0.354567	0.110373
C47	C	1.606757	0.604567	0.360373
C48	C	1.856757	0.854567	0.610373
C49	C	1.044989	0.103656	-0.194911
C50	C	1.294989	0.353656	0.055089
C51	C	1.544989	0.603656	0.305089
C52	C	1.794989	0.853656	0.555089
C53	C	0.901835	0.101547	-0.176851
C54	C	1.151835	0.351547	0.073149
C55	C	1.401835	0.601547	0.323149
C56	C	1.651835	0.851547	0.573149
C57	C	1.483225	-0.025002	-0.187135
C58	C	1.733225	0.224998	0.062865
C59	C	1.983225	0.474998	0.312865
C60	C	2.233225	0.724998	0.562865
C61	C	1.481190	-0.102520	-0.186880
C62	C	1.731190	0.147480	0.063120
C63	C	1.981190	0.397480	0.313120
C64	C	2.231190	0.647480	0.563120
C65	C	1.480258	-0.138923	-0.120390
C66	C	1.730258	0.111077	0.129610
C67	C	1.980258	0.361077	0.379610
C68	C	2.230258	0.611077	0.629610
C69	C	1.478328	-0.211759	-0.120141
C70	C	1.728328	0.038241	0.129859
C71	C	1.978328	0.288241	0.379859
C72	C	2.228328	0.538241	0.629859
C73	C	1.477356	-0.248189	-0.186389
C74	C	1.727356	0.001811	0.063611
C75	C	1.977356	0.251811	0.313611
C76	C	2.227356	0.501811	0.563611
C77	C	1.478281	-0.211777	-0.252887
C78	C	1.728281	0.038223	-0.002887
C79	C	1.978281	0.288223	0.247113
C80	C	2.228281	0.538223	0.497113
C81	C	1.480198	-0.138942	-0.253133
C82	C	1.730198	0.111058	-0.003133
C83	C	1.980198	0.361058	0.246867
C84	C	2.230198	0.611058	0.496867
N85	N	1.545337	-0.367412	-0.244364
N86	N	1.795337	-0.117412	0.005636
N87	N	2.045337	0.132588	0.255636
N88	N	2.295337	0.382588	0.505636
N89	N	1.543518	-0.436602	-0.244127
N90	N	1.793518	-0.186602	0.005873
N91	N	2.043518	0.063398	0.255873
N92	N	2.293518	0.313398	0.505873
C93	C	1.471576	-0.467636	-0.185653
C94	C	1.721576	-0.217636	0.064347
C95	C	1.971576	0.032364	0.314347
C96	C	2.221576	0.282364	0.564347
N97	N	1.401537	-0.426867	-0.127416
N98	N	1.651537	-0.176867	0.122584
N99	N	1.901537	0.073133	0.372584
N100	N	2.151537	0.323133	0.622584
N101	N	1.403362	-0.357671	-0.127652
N102	N	1.653362	-0.107671	0.122348
N103	N	1.903362	0.142329	0.372348
N104	N	2.153362	0.392329	0.622348
C105	C	1.475276	-0.327166	-0.186130
C106	C	1.725276	-0.077166	0.063870
C107	C	1.975276	0.172834	0.313870
C108	C	2.225276	0.422834	0.563870
C109	C	1.468550	-0.583016	-0.118888
C110	C	1.718550	-0.333016	0.131112
C111	C	1.968550	-0.083016	0.381112
C112	C	2.218550	0.166984	0.631112
C113	C	1.466612	-0.655852	-0.118640
C114	C	1.716612	-0.405852	0.131360
C115	C	1.966612	-0.155852	0.381360
C116	C	2.216612	0.094148	0.631360
C117	C	1.466577	-0.655869	-0.251390
C118	C	1.716577	-0.405869	-0.001390
C119	C	1.966577	-0.155869	0.248610
C120	C	2.216577	0.094131	0.498610
C121	C	1.468502	-0.583034	-0.251634
C122	C	1.718502	-0.333034	-0.001634
C123	C	1.968502	-0.083034	0.248366
C124	C	2.218502	0.166966	0.498366
C125	C	1.469494	-0.546612	-0.185381
C126	C	1.719494	-0.296612	0.064619
C127	C	1.969494	-0.046612	0.314619
C128	C	2.219494	0.203388	0.564619
C129	C	1.701564	0.098596	-0.214672
C130	C	1.951564	0.348596	0.035328
C131	C	2.201564	0.598596	0.285328
C132	C	2.451564	0.848596	0.535328
C133	C	1.840071	0.100636	-0.232142
C134	C	2.090071	0.350636	0.017858
C135	C	2.340071	0.600636	0.267858
C136	C	2.590071	0.850636	0.517858
C137	C	1.463602	0.230205	-0.184639
C138	C	1.713602	0.480205	0.065361
C139	C	1.963602	0.730205	0.315361
C140	C	2.213602	0.980205	0.565361
C141	C	1.465637	0.307723	-0.184889
C142	C	1.715637	0.557723	0.065111
C143	C	1.965637	0.807723	0.315111
C144	C	2.215637	1.057723	0.565111
N145	N	1.473372	0.102596	-0.375583
N146	N	1.723372	0.352596	-0.125583
N147	N	1.973372	0.602596	0.124417
N148	N	2.223372	0.852596	0.374417
C149	C	1.548801	0.145331	-0.423399
C150	C	1.798801	0.395331	-0.173399
C151	C	2.048801	0.645331	0.076601
C152	C	2.298801	0.895331	0.326601
C153	C	1.548822	0.145330	-0.500046
C154	C	1.798822	0.395330	-0.250046
C155	C	2.048822	0.645330	-0.000046
C156	C	2.298822	0.895330	0.249954
C157	C	1.473390	0.102600	-0.528872
C158	C	1.723390	0.352600	-0.278872
C159	C	1.973390	0.602600	-0.028872
C160	C	2.223390	0.852600	0.221128
C161	C	1.397956	0.059856	-0.481046
C162	C	1.647956	0.309856	-0.231046
C163	C	1.897956	0.559856	0.018954
C164	C	2.147956	0.809856	0.268954
C165	C	1.397947	0.059854	-0.404402
C166	C	1.647947	0.309854	-0.154402
C167	C	1.897947	0.559854	0.095598
C168	C	2.147947	0.809854	0.345598
N169	N	1.364115	0.100171	-0.635438
N170	N	1.614115	0.350171	-0.385438
N171	N	1.864115	0.600171	-0.135438
N172	N	2.114115	0.850171	0.114562
N173	N	1.364126	0.100177	-0.708247
N174	N	1.614126	0.350177	-0.458247
N175	N	1.864126	0.600177	-0.208247
N176	N	2.114126	0.850177	0.041753
C177	C	1.473415	0.102603	-0.759798
C178	C	1.723415	0.352603	-0.509798
C179	C	1.973415	0.602603	-0.259798
C180	C	2.223415	0.852603	-0.009798
N181	N	1.582693	0.105037	-0.735788
N182	N	1.832693	0.355037	-0.485788
N183	N	2.082693	0.605037	-0.235788
N184	N	2.332693	0.855037	0.014212
N185	N	1.582679	0.105034	-0.662971
N186	N	1.832679	0.355034	-0.412971
N187	N	2.082679	0.605034	-0.162971
N188	N	2.332679	0.855034	0.087029
C189	C	1.473392	0.102598	-0.611979
C190	C	1.723392	0.352598	-0.361979
C191	C	1.973392	0.602598	-0.111979
C192	C	2.223392	0.852598	0.138021
C193	C	1.548873	0.145339	-0.890724
C194	C	1.798873	0.395339	-0.640724
C195	C	2.048873	0.645339	-0.390724
C196	C	2.298873	0.895339	-0.140724
C197	C	1.548896	0.145332	-0.967373
C198	C	1.798896	0.395332	-0.717373
C199	C	2.048896	0.645332	-0.467373
C200	C	2.298896	0.895332	-0.217373
C201	C	1.398019	0.059863	-0.948371
C202	C	1.648019	0.309863	-0.698371
C203	C	1.898019	0.559863	-0.448371
C204	C	2.148019	0.809863	-0.198371
C205	C	1.398008	0.059865	-0.871724
C206	C	1.648008	0.309865	-0.621724
C207	C	1.898008	0.559865	-0.371724
C208	C	2.148008	0.809865	-0.121724
C209	C	1.473432	0.102607	-0.842905
C210	C	1.723432	0.352607	-0.592905
C211	C	1.973432	0.602607	-0.342905
C212	C	2.223432	0.852607	-0.092905
N213	N	1.473466	0.102601	0.003806
N214	N	1.723466	0.352601	0.253806
N215	N	1.973466	0.602601	0.503806
N216	N	2.223466	0.852601	0.753806
H217	H	1.098089	0.104433	-0.255611
H218	H	1.348089	0.354433	-0.005611
H219	H	1.598089	0.604433	0.244389
H220	H	1.848089	0.854433	0.494389
H221	H	0.848741	0.100764	-0.116147
H222	H	1.098741	0.350764	0.133853
H223	H	1.348741	0.600764	0.383853
H224	H	1.598741	0.850764	0.633853
F225	F	1.477335	-0.250509	-0.049370
F226	F	1.727335	-0.000509	0.200630
F227	F	1.977335	0.249491	0.450630
F228	F	2.227335	0.499491	0.700630
H229	H	0.893164	0.101414	-0.292847
H230	H	1.143164	0.351414	-0.042847
H231	H	1.393164	0.601414	0.207153
H232	H	1.643164	0.851414	0.457153
F233	F	1.037360	0.103541	-0.060286
F234	F	1.287360	0.353541	0.189714
F235	F	1.537360	0.603541	0.439714
F236	F	1.787360	0.853541	0.689714
H237	H	1.481063	-0.109273	-0.066442
H238	H	1.731063	0.140727	0.183558
H239	H	1.981063	0.390727	0.433558
H240	H	2.231063	0.640727	0.683558
H241	H	1.477485	-0.241443	-0.306826
H242	H	1.727485	0.008557	-0.056826
H243	H	1.977485	0.258557	0.193174
H244	H	2.227485	0.508557	0.443174
F245	F	1.317750	0.014380	-0.979046
F246	F	1.567750	0.264380	-0.729046
F247	F	1.817750	0.514380	-0.479046
F248	F	2.067750	0.764380	-0.229046
H249	H	1.480952	-0.109303	-0.307278
H250	H	1.730952	0.140697	-0.057278
H251	H	1.980952	0.390697	0.192722
H252	H	2.230952	0.640697	0.442722
H253	H	1.465775	-0.685530	-0.305330
H254	H	1.715775	-0.435530	-0.055330
H255	H	1.965775	-0.185530	0.194670
H256	H	2.215775	0.064470	0.444670
F257	F	1.465612	-0.694594	-0.047867
F258	F	1.715612	-0.444594	0.202133
F259	F	1.965612	-0.194594	0.452133
F260	F	2.215612	0.055406	0.702133
H261	H	1.469350	-0.553359	-0.064940
H262	H	1.719350	-0.303359	0.185060
H263	H	1.969350	-0.053359	0.435060
H264	H	2.219350	0.196641	0.685060
F265	F	1.629189	0.190816	-1.018264
F266	F	1.879189	0.440816	-0.768264
F267	F	2.129189	0.690816	-0.518264
F268	F	2.379189	0.940816	-0.268264
H269	H	1.610289	0.180141	-0.867259
H270	H	1.860289	0.430141	-0.617259
H271	H	2.110289	0.680141	-0.367259
H272	H	2.360289	0.930141	-0.117259
F273	F	1.317704	0.014391	-0.820830
F274	F	1.567704	0.264391	-0.570830
F275	F	1.817704	0.514391	-0.320830
F276	F	2.067704	0.764391	-0.070830
H277	H	1.469272	-0.553395	-0.305779
H278	H	1.719272	-0.303395	-0.055779
H279	H	1.969272	-0.053395	0.194221
H280	H	2.219272	0.196605	0.444221
H281	H	1.610223	0.180132	-0.399940
H282	H	1.860223	0.430132	-0.149940
H283	H	2.110223	0.680132	0.100060
H284	H	2.360223	0.930132	0.350060
H285	H	1.610246	0.180132	-0.538985
H286	H	1.860246	0.430132	-0.288985
H287	H	2.110246	0.680132	-0.038985
H288	H	2.360246	0.930132	0.211015
F289	F	1.317680	0.014379	-0.511726
F290	F	1.567680	0.264379	-0.261726
F291	F	1.817680	0.514379	-0.011726
F292	F	2.067680	0.764379	0.238274
H293	H	1.336521	0.025053	-0.365469
H294	H	1.586521	0.275053	-0.115469
H295	H	1.836521	0.525053	0.134531
H296	H	2.086521	0.775053	0.384531
