data_functionalizedCrystal
_audit_creation_method	'MofGen! by Chris Wilmer'
_symmetry_space_group_name_H-M	'P1'
_symmetry_Int_Tables_number	1
_symmetry_cell_setting	triclinic
loop_
_symmetry_equiv_pos_as_xyz
  x,y,z
_cell_length_a	25.639240
_cell_length_b	18.101398
_cell_length_c	18.101389
_cell_angle_alpha	90.014346
_cell_angle_beta	90.015431
_cell_angle_gamma	90.030211
loop_
_atom_site_label
_atom_site_type_symbol
_atom_site_fract_x
_atom_site_fract_y
_atom_site_fract_z
Zn1	Zn	-0.208231	1.132116	0.418657
Zn2	Zn	-0.295653	1.132010	0.294822
Zn3	Zn	-0.208230	1.008275	0.294840
Zn4	Zn	-0.295635	1.008224	0.418632
O5	O	-0.251937	1.070156	0.356738
O6	O	-0.219836	1.235735	0.402233
O7	O	-0.284063	1.115573	0.191191
O8	O	-0.135065	1.024769	0.311282
O9	O	-0.284064	1.235657	0.311252
O10	O	-0.135066	1.115754	0.402250
O11	O	-0.219834	1.024666	0.191204
O12	O	-0.219817	0.904635	0.311258
O13	O	-0.284033	1.024681	0.522268
O14	O	-0.284032	0.904598	0.402208
O15	O	-0.219819	1.115704	0.522287
O16	O	-0.368816	1.115523	0.311228
O17	O	-0.368802	1.024578	0.402190
C18	C	-0.251923	0.877746	0.356732
C19	C	-0.251929	0.795431	0.356748
C20	C	-0.251939	0.644723	0.356747
C21	C	-0.292404	0.613370	0.413881
C22	C	-0.292568	0.527752	0.413712
C23	C	-0.251949	0.496340	0.356747
C24	C	-0.266643	0.527393	0.278606
C25	C	-0.266931	0.613038	0.278936
C26	C	-0.196680	0.613203	0.377071
C27	C	-0.196983	0.527553	0.378792
C28	C	-0.251953	0.412481	0.356742
C29	C	-0.251936	0.728583	0.356746
C30	C	-0.387780	1.070054	0.356721
C31	C	-0.445894	1.070078	0.356738
C32	C	-0.697036	1.117528	0.404153
C33	C	-0.642432	1.117506	0.404147
O34	O	-0.614152	1.157764	0.444437
N35	N	-0.615168	1.070159	0.356747
C36	C	-0.642511	1.022836	0.309344
O37	O	-0.614306	0.982563	0.269026
C38	C	-0.697114	1.022863	0.309347
C39	C	-0.724375	1.070208	0.356755
C40	C	-0.724298	1.164869	0.451557
C41	C	-0.778899	1.164891	0.451564
C42	C	-0.806238	1.117570	0.404166
C43	C	-0.778976	1.070229	0.356762
C44	C	-0.724456	0.975545	0.261941
C45	C	-0.779063	0.975576	0.261947
C46	C	-0.806324	1.022921	0.309355
C47	C	-0.860915	1.022929	0.309370
N48	N	-0.888180	1.070276	0.356770
C49	C	-0.860841	1.117597	0.404168
C50	C	-0.527840	1.022785	0.309342
C51	C	-0.473238	1.022754	0.309343
C52	C	-0.473163	1.117425	0.404145
C53	C	-0.527766	1.117451	0.404147
C54	C	-0.555104	1.070132	0.356742
C55	C	-0.975506	1.117637	0.404179
C56	C	-1.030111	1.117652	0.404183
C57	C	-1.030181	1.022984	0.309378
C58	C	-0.975581	1.022966	0.309376
C59	C	-0.948244	1.070299	0.356779
O60	O	-0.889230	0.982693	0.269099
O61	O	-0.889052	1.157871	0.444473
C62	C	-0.115564	1.070279	0.356771
C63	C	-0.057450	1.070331	0.356785
C64	C	-0.251924	1.070199	0.549900
C65	C	-0.251918	1.070217	0.632214
C66	C	-0.251952	1.263318	0.356743
C67	C	-0.251958	1.345632	0.356746
C68	C	-0.251913	1.070156	0.164327
C69	C	-0.251771	1.070281	0.082013
C70	C	-0.251820	1.070260	0.931305
C71	C	-0.292094	1.012794	0.899968
C72	C	-0.292281	1.012949	0.814350
C73	C	-0.251869	1.070238	0.782922
C74	C	-0.266827	1.148263	0.814015
C75	C	-0.267091	1.147943	0.899661
C76	C	-0.196499	1.050380	0.899728
C77	C	-0.196819	1.048644	0.814078
C78	C	-0.251896	1.070231	0.699063
C79	C	-0.251795	1.070273	1.015164
H80	H	-0.333119	0.634857	0.400561
H81	H	-0.185898	0.507261	0.436299
O82	O	-0.694822	1.215920	0.502683
H83	H	-0.669954	1.182750	0.540337
O84	O	-0.557171	1.168516	0.455277
H85	H	-0.546659	1.226641	0.442621
O86	O	-0.346811	0.500568	0.395843
H87	H	-0.361584	0.466532	0.442352
H88	H	-0.238415	1.192230	0.793660
O89	O	-0.181866	0.972593	0.787149
H90	H	-0.213505	0.950261	0.751720
O91	O	-0.154964	1.100054	0.785753
H92	H	-0.135866	1.128089	0.833128
O93	O	-0.156748	1.105815	0.926574
H94	H	-0.176263	1.147327	0.962233
O95	O	-0.443672	1.168474	0.455262
H96	H	-0.401124	1.160505	0.447285
H97	H	-0.801318	0.937043	0.223342
O98	O	-0.946030	1.168691	0.455304
H99	H	-0.921159	1.135520	0.492953
H100	H	-0.306838	1.165408	0.792573
O101	O	-0.156748	0.640083	0.321965
H102	H	-0.126215	0.672306	0.351185
O103	O	-0.320427	0.639462	0.256189
H104	H	-0.345848	0.591070	0.245060
H105	H	-0.283403	0.506757	0.471643
H106	H	-0.238717	0.633778	0.234906
H107	H	-1.052450	0.984455	0.270790
H108	H	-0.306589	0.505913	0.261136
H109	H	-0.550095	0.984245	0.270741
H110	H	-0.238073	0.507047	0.234867
H111	H	-0.283345	0.633991	0.471992
H112	H	-0.165243	0.506173	0.340245
O113	O	-0.443836	0.971690	0.258210
H114	H	-0.472025	0.938798	0.225250
H115	H	-0.953384	0.984407	0.270779
O116	O	-0.279820	0.935918	0.927237
H117	H	-0.313548	0.914238	0.958978
H118	H	-0.282921	0.955090	0.793327
O119	O	-0.320661	1.170257	0.926133
H120	H	-0.317524	1.221006	0.960278
H121	H	-0.702267	0.936993	0.223336
H122	H	-0.332850	1.025788	0.921494
O123	O	-0.178887	0.641848	0.451272
H124	H	-0.209237	0.678873	0.474496
O125	O	-0.346611	1.030238	0.787208
H126	H	-0.372850	1.038544	0.835256
O127	O	-0.229934	1.206590	0.927131
H128	H	-0.211859	1.235058	0.879241
H129	H	-1.052305	1.156204	0.442793
H130	H	-0.182872	0.994473	0.921323
O131	O	-0.808300	1.215961	0.502691
H132	H	-0.780108	1.248863	0.535638
