data_functionalizedCrystal
_audit_creation_method	'MofGen! by Chris Wilmer'
_symmetry_space_group_name_H-M	'P1'
_symmetry_Int_Tables_number	1
_symmetry_cell_setting	triclinic
loop_
_symmetry_equiv_pos_as_xyz
  x,y,z
_cell_length_a	17.019372
_cell_length_b	17.038272
_cell_length_c	11.295483
_cell_angle_alpha	94.391706
_cell_angle_beta	89.763812
_cell_angle_gamma	87.242864
loop_
_atom_site_label
_atom_site_type_symbol
_atom_site_fract_x
_atom_site_fract_y
_atom_site_fract_z
O1	O	1.052905	0.100044	0.008850
O2	O	1.552905	0.600044	0.508850
O3	O	0.825264	0.111510	-0.014476
O4	O	1.325264	0.611510	0.485524
O5	O	0.937731	-0.008044	-0.002942
O6	O	1.437731	0.491956	0.497058
O7	O	0.940438	0.219598	-0.002684
O8	O	1.440438	0.719598	0.497316
O9	O	0.927852	0.002440	0.194095
O10	O	1.427852	0.502440	0.694095
O11	O	0.815385	0.121994	0.182562
O12	O	1.315385	0.621994	0.682562
O13	O	1.043026	0.110529	0.205887
O14	O	1.543026	0.610529	0.705887
Cu15	Cu	0.928303	0.117219	0.212216
Cu16	Cu	1.428303	0.617219	0.712216
Cu17	Cu	0.939987	0.104820	-0.020804
Cu18	Cu	1.439987	0.604820	0.479196
O19	O	0.930559	0.230082	0.194354
O20	O	1.430559	0.730082	0.694354
C21	C	0.791054	0.116111	0.081044
C22	C	1.291054	0.616111	0.581044
C23	C	0.703835	0.114194	0.072107
C24	C	1.203835	0.614194	0.572107
C25	C	0.210822	0.103030	0.016095
C26	C	0.710822	0.603030	0.516095
C27	C	0.292772	0.104833	0.024508
C28	C	0.792772	0.604833	0.524508
C29	C	0.328353	0.111455	0.136121
C30	C	0.828353	0.611455	0.636121
C31	C	0.281981	0.116267	0.239328
C32	C	0.781981	0.616267	0.739328
C33	C	0.200032	0.114459	0.230913
C34	C	0.700032	0.614459	0.730913
C35	C	0.575514	0.117197	0.166899
C36	C	1.075514	0.617197	0.666899
C37	C	0.657468	0.119007	0.175306
C38	C	1.157468	0.619007	0.675306
C39	C	0.668254	0.107572	-0.039515
C40	C	1.168254	0.607572	0.460485
C41	C	0.586304	0.105768	-0.047919
C42	C	1.086304	0.605768	0.452081
C43	C	0.539938	0.110576	0.055288
C44	C	1.039938	0.610576	0.555288
C45	C	0.412119	0.113301	0.144723
C46	C	0.912119	0.613301	0.644723
C47	C	0.456175	0.108725	0.046685
C48	C	0.956175	0.608725	0.546685
C49	C	0.930330	-0.031941	0.095324
C50	C	1.430330	0.468059	0.595324
C51	C	0.922988	-0.118768	0.094571
C52	C	1.422988	0.381232	0.594571
C53	C	0.990401	-0.168574	0.101480
C54	C	1.490401	0.331426	0.601480
C55	C	0.983498	-0.250157	0.100762
C56	C	1.483498	0.249843	0.600762
C57	C	0.909180	-0.281931	0.093143
C58	C	1.409180	0.218069	0.593143
C59	C	0.841762	-0.232119	0.086230
C60	C	1.341762	0.267881	0.586230
C61	C	0.848667	-0.150538	0.086940
C62	C	1.348667	0.349462	0.586940
C63	C	0.884789	-0.527801	0.090627
C64	C	1.384789	-0.027801	0.590627
C65	C	0.877889	-0.609388	0.089921
C66	C	1.377889	-0.109388	0.589921
C67	C	1.019626	-0.627421	0.104451
C68	C	1.519626	-0.127421	0.604451
C69	C	1.026523	-0.545838	0.105167
C70	C	1.526523	-0.045838	0.605167
C71	C	0.959105	-0.496032	0.098248
C72	C	1.459105	0.003968	0.598248
C73	C	0.902122	-0.365321	0.092412
C74	C	1.402122	0.134679	0.592412
C75	C	0.966165	-0.412644	0.098971
C76	C	1.466165	0.087356	0.598971
C77	C	1.077236	0.105927	0.110365
C78	C	1.577236	0.605927	0.610365
C79	C	1.164455	0.107844	0.119294
C80	C	1.664455	0.607844	0.619294
C81	C	0.937959	0.253980	0.096085
C82	C	1.437959	0.753980	0.596085
C83	C	0.945302	0.340806	0.096830
C84	C	1.445302	0.840806	0.596830
N85	N	0.920091	0.125939	0.376110
N86	N	1.420091	0.625939	0.876110
N87	N	0.948204	0.096093	-0.184698
N88	N	1.448204	0.596093	0.315302
C89	C	1.007315	0.033275	0.634344
C90	C	1.507315	0.533275	1.134344
C91	C	1.001115	0.039871	0.758372
C92	C	1.501115	0.539871	1.258372
C93	C	0.901488	0.145722	0.748195
C94	C	1.401488	0.645722	1.248195
C95	C	0.907688	0.139126	0.624167
C96	C	1.407688	0.639126	1.124167
C97	C	0.960604	0.082902	0.567246
C98	C	1.460604	0.582902	1.067246
C99	C	0.966807	0.076310	0.443217
C100	C	1.466807	0.576310	0.943217
C101	C	0.867177	0.182157	0.433042
C102	C	1.367177	0.682157	0.933042
C103	C	0.860978	0.188752	0.557070
C104	C	1.360978	0.688752	1.057070
H105	H	0.330521	0.100908	-0.059527
H106	H	0.830521	0.600908	0.440473
H107	H	1.050406	-0.012499	0.587999
H108	H	1.550406	0.487501	1.087999
H109	H	0.557340	0.100375	-0.138806
H110	H	1.057340	0.600375	0.361194
C111	C	1.025013	0.014461	0.380605
C112	C	1.525013	0.514461	0.880605
N113	N	1.068852	-0.032128	0.333450
N114	N	1.568852	0.467872	0.833450
C115	C	0.149029	0.119758	0.344441
C116	C	0.649029	0.619758	0.844441
N117	N	0.110614	0.123747	0.429953
N118	N	0.610614	0.623747	0.929953
C119	C	1.052498	-0.014725	0.832175
C120	C	1.552498	0.485275	1.332175
N121	N	1.091200	-0.055850	0.887764
N122	N	1.591200	0.444150	1.387764
H123	H	0.817367	-0.635254	0.083735
H124	H	1.317367	-0.135254	0.583735
C125	C	0.171690	0.095744	-0.106688
C126	C	0.671690	0.595744	0.393312
N127	N	0.142219	0.090252	-0.199173
N128	N	0.642219	0.590252	0.300827
C129	C	0.719263	0.102274	-0.153034
C130	C	1.219263	0.602274	0.346966
N131	N	0.757683	0.098279	-0.238541
N132	N	1.257683	0.598279	0.261459
C133	C	0.696606	0.126288	0.298094
C134	C	1.196606	0.626288	0.798094
N135	N	0.726085	0.131772	0.390573
N136	N	1.226085	0.631772	0.890573
H137	H	0.537774	0.121100	0.250938
H138	H	1.037774	0.621100	0.750938
C139	C	0.843266	0.207545	0.810828
C140	C	1.343266	0.707545	1.310828
N141	N	0.799407	0.254105	0.858004
N142	N	1.299407	0.754105	1.358004
H143	H	0.817892	0.234527	0.603429
H144	H	1.317892	0.734527	1.103429
H145	H	0.310958	0.121654	0.330205
H146	H	0.810958	0.621654	0.830205
C147	C	0.760012	-0.267073	0.077858
C148	C	1.260012	0.232927	0.577858
N149	N	0.698435	-0.293398	0.071562
N150	N	1.198435	0.206602	0.571562
C151	C	0.417032	0.101441	-0.076086
C152	C	0.917032	0.601441	0.423914
N153	N	0.387543	0.095958	-0.168558
N154	N	0.887543	0.595958	0.331442
C155	C	0.815792	0.236749	0.359224
C156	C	1.315792	0.736749	0.859224
N157	N	0.777091	0.277869	0.303624
N158	N	1.277091	0.777869	0.803624
H159	H	1.050918	-0.142710	0.107692
H160	H	1.550918	0.357290	0.607692
C161	C	0.451264	0.120638	0.267494
C162	C	0.951264	0.620638	0.767494
N163	N	0.480749	0.126180	0.359965
N164	N	0.980749	0.626180	0.859965
C165	C	1.057657	-0.304940	0.108381
C166	C	1.557657	0.195060	0.608381
N167	N	1.113518	-0.346202	0.114126
N168	N	1.613518	0.153798	0.614126
H169	H	0.829892	-0.487259	0.084993
H170	H	1.329892	0.012741	0.584993
C171	C	0.774507	-0.095751	0.079342
C172	C	1.274507	0.404249	0.579342
N173	N	0.718647	-0.054485	0.073617
N174	N	1.218647	0.445515	0.573617
H175	H	1.087040	-0.519974	0.111372
H176	H	1.587040	-0.019974	0.611372
H177	H	1.074513	-0.667981	0.110082
H178	H	1.574513	-0.167981	0.610082
H179	H	1.026675	-0.386772	0.105148
H180	H	1.526675	0.113228	0.605148
H181	H	0.841612	-0.391201	0.086211
H182	H	1.341612	0.108799	0.586211
