data_functionalizedCrystal
_audit_creation_method	'MofGen! by Chris Wilmer'
_symmetry_space_group_name_H-M	'P1'
_symmetry_Int_Tables_number	1
_symmetry_cell_setting	triclinic
loop_
_symmetry_equiv_pos_as_xyz
  x,y,z
_cell_length_a	14.044220
_cell_length_b	14.044190
_cell_length_c	9.198806
_cell_angle_alpha	90.008268
_cell_angle_beta	89.999093
_cell_angle_gamma	93.190328
loop_
_atom_site_label
_atom_site_type_symbol
_atom_site_fract_x
_atom_site_fract_y
_atom_site_fract_z
O1	O	1.277173	0.230167	0.120767
O2	O	1.000501	0.221861	0.120803
O3	O	1.134681	0.087677	0.120757
O4	O	1.142994	0.364350	0.120813
O5	O	1.134669	0.087675	-0.121028
O6	O	1.000490	0.221859	-0.120982
O7	O	1.277161	0.230165	-0.121018
Cu8	Cu	1.138825	0.226011	-0.143077
Cu9	Cu	1.138838	0.226014	0.142862
O10	O	1.142982	0.364348	-0.120972
C11	C	1.131039	0.052054	-0.000139
C12	C	1.120191	-0.054089	-0.000150
C13	C	0.964874	0.218224	-0.000085
C14	C	0.858731	0.207380	-0.000073
C15	C	1.177292	-0.299547	-0.000101
C16	C	1.100375	-0.248422	-0.000101
C17	C	1.111404	-0.140285	-0.000129
C18	C	1.166265	-0.407694	-0.000073
C19	C	0.664392	0.187553	-0.000106
C20	C	0.613264	0.264468	-0.000096
C21	C	0.505128	0.253436	-0.000115
C22	C	0.772539	0.198583	-0.000087
C23	C	1.312789	0.233801	-0.000126
C24	C	1.418932	0.244646	-0.000129
C25	C	1.146624	0.399971	-0.000072
C26	C	1.157472	0.506114	-0.000051
N27	N	1.138822	0.226010	-0.344191
C28	C	1.198662	0.285564	-0.416384
C29	C	1.198677	0.285564	-0.583797
N30	N	1.138848	0.226009	0.343976
H31	H	1.026243	-0.285865	-0.000083
H32	H	1.249904	0.336555	-0.645882
H33	H	0.626954	0.113425	-0.000129
C34	C	1.266913	0.353707	-0.333738
C35	C	1.249014	0.447758	-0.370665
C36	C	1.311877	0.510558	-0.294577
H37	H	1.257889	0.344801	-0.232205
H38	H	1.330727	0.341423	-0.358633
H39	H	1.185215	0.460037	-0.345759
H40	H	1.258044	0.456694	-0.472184
H41	H	1.375692	0.498274	-0.319473
H42	H	1.302849	0.501644	-0.193048
H43	H	1.299748	0.574378	-0.319631
H44	H	1.087610	0.175024	-0.593948
H45	H	1.087603	0.175021	-0.406323
H46	H	1.251418	-0.262106	-0.000125
H47	H	0.650706	0.338602	-0.000074
