data_functionalizedCrystal
_audit_creation_method	'MofGen! by Chris Wilmer'
_symmetry_space_group_name_H-M	'P1'
_symmetry_Int_Tables_number	1
_symmetry_cell_setting	triclinic
loop_
_symmetry_equiv_pos_as_xyz
  x,y,z
_cell_length_a	12.759401
_cell_length_b	12.594516
_cell_length_c	12.759386
_cell_angle_alpha	90.072503
_cell_angle_beta	90.041678
_cell_angle_gamma	90.019420
loop_
_atom_site_label
_atom_site_type_symbol
_atom_site_fract_x
_atom_site_fract_y
_atom_site_fract_z
Zn1	Zn	-1.606445	0.423397	-0.593924
Zn2	Zn	-1.606251	0.601512	-0.418213
Zn3	Zn	-1.430677	0.423543	-0.418262
Zn4	Zn	-1.430716	0.601329	-0.593853
O5	O	-1.518522	0.512445	-0.506063
O6	O	-1.753440	0.447039	-0.570625
O7	O	-1.582863	0.578042	-0.271198
O8	O	-1.454058	0.274578	-0.441614
O9	O	-1.753298	0.577900	-0.441531
O10	O	-1.583194	0.274470	-0.570672
O11	O	-1.453870	0.447289	-0.271234
O12	O	-1.283662	0.447112	-0.441545
O13	O	-1.454125	0.577588	-0.740884
O14	O	-1.283690	0.577730	-0.570551
O15	O	-1.583232	0.446862	-0.740936
O16	O	-1.582901	0.750434	-0.441462
O17	O	-1.453937	0.750299	-0.570504
C18	C	-1.245555	0.512418	-0.506046
C19	C	-1.128778	0.512432	-0.506064
C20	C	-0.964228	0.580559	-0.573137
C21	C	-1.073952	0.580551	-0.573128
C22	C	-1.073875	0.444324	-0.438998
C23	C	-0.964153	0.444339	-0.439004
C24	C	-1.223905	0.706083	-0.610422
C25	C	-1.278804	0.774178	-0.677497
C26	C	-1.243270	0.790591	-0.779982
C27	C	-1.152838	0.738893	-0.815414
C28	C	-1.097944	0.670790	-0.748345
C29	C	-1.133477	0.654397	-0.645845
C30	C	-0.814198	0.318805	-0.401720
C31	C	-0.759302	0.250696	-0.334655
C32	C	-0.794835	0.234273	-0.232168
C33	C	-0.885270	0.285952	-0.196740
C34	C	-0.940166	0.354061	-0.263805
C35	C	-0.904626	0.370486	-0.366291
C36	C	-1.518430	0.788986	-0.505993
C37	C	-1.518487	0.907292	-0.505999
C38	C	-0.792556	0.512466	-0.506078
C39	C	-0.909332	0.512455	-0.506079
C40	C	-1.518704	0.512188	-0.780097
C41	C	-1.518782	0.512079	-0.896874
C42	C	-1.588742	1.047343	-0.435916
C43	C	-1.492865	0.976671	-0.410110
C44	C	-1.614352	0.976392	-0.531757
C45	C	-1.422642	1.047406	-0.480205
C46	C	-1.544193	1.047132	-0.601897
C47	C	-1.448250	0.976493	-0.576128
C48	C	-1.518611	1.234824	-0.506122
C49	C	-1.518568	1.116519	-0.506060
C50	C	-1.518402	0.512625	-0.233095
C51	C	-1.518528	0.512434	-0.116319
C52	C	-1.450943	0.444769	-0.061525
C53	C	-1.451073	0.444588	0.048198
C54	C	-1.586374	0.579747	0.048325
C55	C	-1.586249	0.579922	-0.061397
C56	C	-1.412858	0.319098	0.197869
C57	C	-1.345258	0.251442	0.252667
C58	C	-1.242595	0.235903	0.217204
C59	C	-1.207512	0.288035	0.126945
C60	C	-1.275108	0.355699	0.072152
C61	C	-1.377785	0.371218	0.107614
C62	C	-1.624452	0.705413	-0.211070
C63	C	-1.692043	0.773083	-0.265864
C64	C	-1.794707	0.788633	-0.230403
C65	C	-1.829786	0.736520	-0.140140
C66	C	-1.762196	0.668850	-0.085346
C67	C	-1.659532	0.653298	-0.120815
H68	H	-1.352435	0.816271	-0.648639
H69	H	-1.565936	1.078111	-0.682949
O70	O	-1.383093	0.195201	0.350007
H71	H	-1.465849	0.217352	0.365451
O72	O	-1.721691	0.935078	-0.560597
H73	H	-1.779822	0.963470	-0.502281
O74	O	-1.659405	0.652545	0.107560
H75	H	-1.648131	0.641066	0.193063
H76	H	-1.388804	0.945582	-0.635421
H77	H	-1.341580	1.078466	-0.458353
O78	O	-1.377918	0.371970	-0.120768
H79	H	-1.330953	0.324880	-0.064228
O80	O	-1.237290	0.411921	-0.025198
H81	H	-1.154543	0.389748	-0.040658
H82	H	-1.123910	0.275387	0.098084
O83	O	-1.800027	0.612626	0.012004
H84	H	-1.882776	0.634797	0.027457
O85	O	-0.923606	0.268234	-0.086201
H86	H	-0.924780	0.345094	-0.043561
H87	H	-0.785257	0.332174	-0.485174
O88	O	-1.940520	0.753278	-0.101884
H89	H	-1.981631	0.809077	-0.155156
O90	O	-1.000414	0.615032	-0.786552
H91	H	-0.968215	0.564920	-0.722695
H92	H	-1.648046	1.078450	-0.376578
O93	O	-1.262236	0.688389	-0.499879
H94	H	-1.200667	0.713557	-0.443586
O95	O	-1.523596	0.335841	0.236116
H96	H	-1.564715	0.391635	0.182845
O97	O	-1.169681	0.162925	0.276296
H98	H	-1.211323	0.129283	0.345009
H99	H	-1.849737	0.843742	-0.275023
H100	H	-1.663473	0.815516	-0.339361
H101	H	-1.540857	0.692748	-0.239958
O102	O	-1.037708	0.409798	-0.225586
H103	H	-1.105309	0.386322	-0.275278
H104	H	-0.919596	0.636024	-0.627754
H105	H	-1.123920	0.752252	-0.898873
O106	O	-1.302454	0.864067	-0.852319
H107	H	-1.371293	0.897270	-0.810460
H108	H	-1.118524	0.388865	-0.384389
O109	O	-0.735638	0.160799	-0.159833
H110	H	-0.666785	0.127614	-0.201682
H111	H	-0.685670	0.208609	-0.363513
H112	H	-1.471150	0.945715	-0.329036
