data_functionalizedCrystal
_audit_creation_method	'MofGen! by Chris Wilmer'
_symmetry_space_group_name_H-M	'P1'
_symmetry_Int_Tables_number	1
_symmetry_cell_setting	triclinic
loop_
_symmetry_equiv_pos_as_xyz
  x,y,z
_cell_length_a	19.805407
_cell_length_b	19.121063
_cell_length_c	19.805398
_cell_angle_alpha	92.412609
_cell_angle_beta	89.984135
_cell_angle_gamma	92.469032
loop_
_atom_site_label
_atom_site_type_symbol
_atom_site_fract_x
_atom_site_fract_y
_atom_site_fract_z
Zn1	Zn	1.023208	-0.279643	-0.394203
Zn2	Zn	1.273208	-0.029643	-0.144203
Zn3	Zn	1.523208	0.220357	0.105797
Zn4	Zn	1.773208	0.470357	0.355797
Zn5	Zn	1.018299	-0.397092	-0.285838
Zn6	Zn	1.268299	-0.147092	-0.035838
Zn7	Zn	1.518299	0.102908	0.214162
Zn8	Zn	1.768299	0.352908	0.464162
Zn9	Zn	0.910029	-0.279658	-0.281029
Zn10	Zn	1.160029	-0.029658	-0.031029
Zn11	Zn	1.410029	0.220342	0.218971
Zn12	Zn	1.660029	0.470342	0.468971
Zn13	Zn	0.905156	-0.397058	-0.398984
Zn14	Zn	1.155156	-0.147058	-0.148984
Zn15	Zn	1.405156	0.102942	0.101016
Zn16	Zn	1.655156	0.352942	0.351016
O17	O	0.964173	-0.338363	-0.340013
O18	O	1.214173	-0.088363	-0.090013
O19	O	1.464173	0.161637	0.159987
O20	O	1.714173	0.411637	0.409987
O21	O	1.117273	-0.295230	-0.379841
O22	O	1.367273	-0.045230	-0.129841
O23	O	1.617273	0.204770	0.120159
O24	O	1.867273	0.454770	0.370159
O25	O	1.003921	-0.381535	-0.190484
O26	O	1.253921	-0.131535	0.059516
O27	O	1.503921	0.118465	0.309516
O28	O	1.753921	0.368465	0.559516
O29	O	0.929136	-0.181372	-0.292028
O30	O	1.179136	0.068628	-0.042028
O31	O	1.429136	0.318628	0.207972
O32	O	1.679136	0.568628	0.457972
O33	O	1.113666	-0.381519	-0.300225
O34	O	1.363666	-0.131519	-0.050225
O35	O	1.613666	0.118481	0.199775
O36	O	1.863666	0.368481	0.449775
O37	O	1.012288	-0.181360	-0.375177
O38	O	1.262288	0.068640	-0.125177
O39	O	1.512288	0.318640	0.124823
O40	O	1.762288	0.568640	0.374823
O41	O	0.924376	-0.295257	-0.186951
O42	O	1.174376	-0.045257	0.063049
O43	O	1.424376	0.204743	0.313049
O44	O	1.674376	0.454743	0.563049
O45	O	0.814666	-0.295224	-0.296663
O46	O	1.064666	-0.045224	-0.046663
O47	O	1.314666	0.204776	0.203337
O48	O	1.564666	0.454776	0.453337
O49	O	0.920831	-0.381461	-0.493065
O50	O	1.170831	-0.131461	-0.243065
O51	O	1.420831	0.118539	0.006935
O52	O	1.670831	0.368539	0.256935
O53	O	0.811086	-0.381477	-0.383324
O54	O	1.061086	-0.131477	-0.133324
O55	O	1.311086	0.118523	0.116676
O56	O	1.561086	0.368523	0.366676
O57	O	1.007563	-0.295197	-0.489553
O58	O	1.257563	-0.045197	-0.239553
O59	O	1.507563	0.204803	0.010447
O60	O	1.757563	0.454803	0.260447
O61	O	0.999196	-0.495372	-0.304861
O62	O	1.249196	-0.245372	-0.054861
O63	O	1.499196	0.004628	0.195139
O64	O	1.749196	0.254628	0.445139
O65	O	0.916071	-0.495347	-0.387988
O66	O	1.166071	-0.245347	-0.137988
O67	O	1.416071	0.004653	0.112012
O68	O	1.666071	0.254653	0.362012
C69	C	0.788317	-0.338349	-0.339991
C70	C	1.038317	-0.088349	-0.089991
C71	C	1.288317	0.161651	0.160009
C72	C	1.538317	0.411651	0.410009
C73	C	0.713085	-0.338360	-0.339998
C74	C	0.963085	-0.088360	-0.089998
C75	C	1.213085	0.161640	0.160002
C76	C	1.463085	0.411640	0.410002
C77	C	0.675891	-0.383340	-0.385055
C78	C	0.925891	-0.133340	-0.135055
C79	C	1.175891	0.116660	0.114945
C80	C	1.425891	0.366660	0.364945
C81	C	0.605203	-0.383341	-0.385065
C82	C	0.855203	-0.133341	-0.135065
C83	C	1.105203	0.116659	0.114935
C84	C	1.355203	0.366659	0.364935
C85	C	0.571709	-0.338366	-0.340013
C86	C	0.821709	-0.088366	-0.090013
C87	C	1.071709	0.161634	0.159987
C88	C	1.321709	0.411634	0.409987
C89	C	0.608908	-0.293381	-0.294954
C90	C	0.858908	-0.043381	-0.044954
C91	C	1.108908	0.206619	0.205046
C92	C	1.358908	0.456619	0.455046
C93	C	0.679595	-0.293377	-0.294949
C94	C	0.929595	-0.043377	-0.044949
C95	C	1.179595	0.206623	0.205051
C96	C	1.429595	0.456623	0.455051
C97	C	0.323834	-0.293397	-0.294977
C98	C	0.573834	-0.043397	-0.044977
C99	C	0.823834	0.206603	0.205023
C100	C	1.073834	0.456603	0.455023
C101	C	0.253141	-0.293406	-0.294985
C102	C	0.503141	-0.043406	-0.044985
C103	C	0.753141	0.206594	0.205015
C104	C	1.003141	0.456594	0.455015
C105	C	0.249442	-0.383361	-0.385094
C106	C	0.499442	-0.133361	-0.135094
C107	C	0.749442	0.116639	0.114906
C108	C	0.999442	0.366639	0.364906
C109	C	0.320129	-0.383356	-0.385088
C110	C	0.570129	-0.133356	-0.135088
C111	C	0.820129	0.116644	0.114912
C112	C	1.070129	0.366644	0.364912
C113	C	0.357322	-0.338370	-0.340031
C114	C	0.607322	-0.088370	-0.090031
C115	C	0.857322	0.161630	0.159969
C116	C	1.107322	0.411630	0.409969
C117	C	0.433970	-0.338368	-0.340022
C118	C	0.683970	-0.088368	-0.090022
C119	C	0.933970	0.161632	0.159978
C120	C	1.183970	0.411632	0.409978
C121	C	0.495062	-0.338371	-0.340019
C122	C	0.745062	-0.088371	-0.090019
C123	C	0.995062	0.161629	0.159981
C124	C	1.245062	0.411629	0.409981
C125	C	0.956590	-0.520844	-0.347480
C126	C	1.206590	-0.270844	-0.097480
C127	C	1.456590	-0.020844	0.152520
C128	C	1.706590	0.229156	0.402520
C129	C	0.953408	-0.598910	-0.350696
C130	C	1.203408	-0.348910	-0.100696
C131	C	1.453408	-0.098910	0.149304
C132	C	1.703408	0.151090	0.399304
C133	C	0.995226	-0.635575	-0.308963
C134	C	1.245226	-0.385575	-0.058963
C135	C	1.495226	-0.135575	0.191037
C136	C	1.745226	0.114425	0.441037
C137	C	0.992237	-0.708927	-0.311993
C138	C	1.242237	-0.458927	-0.061993
C139	C	1.492237	-0.208927	0.188007
C140	C	1.742237	0.041073	0.438007
C141	C	0.947427	-0.745612	-0.356752
C142	C	1.197427	-0.495612	-0.106752
C143	C	1.447427	-0.245612	0.143248
C144	C	1.697427	0.004388	0.393248
C145	C	0.905608	-0.708941	-0.398489
C146	C	1.155608	-0.458941	-0.148489
C147	C	1.405608	-0.208941	0.101511
C148	C	1.655608	0.041059	0.351511
C149	C	0.908600	-0.635591	-0.395463
C150	C	1.158600	-0.385591	-0.145463
C151	C	1.408600	-0.135591	0.104537
C152	C	1.658600	0.114409	0.354537
C153	C	0.936228	-0.967082	-0.368056
C154	C	1.186228	-0.717082	-0.118056
C155	C	1.436228	-0.467082	0.131944
C156	C	1.686228	-0.217082	0.381944
C157	C	0.933237	-1.040437	-0.371078
C158	C	1.183237	-0.790437	-0.121078
C159	C	1.433237	-0.540437	0.128922
C160	C	1.683237	-0.290437	0.378922
C161	C	1.019868	-1.040418	-0.284582
C162	C	1.269868	-0.790418	-0.034582
C163	C	1.519868	-0.540418	0.215418
C164	C	1.769868	-0.290418	0.465418
C165	C	1.022854	-0.967066	-0.281557
C166	C	1.272854	-0.717066	-0.031557
C167	C	1.522854	-0.467066	0.218443
C168	C	1.772854	-0.217066	0.468443
C169	C	0.981037	-0.930402	-0.323296
C170	C	1.231037	-0.680402	-0.073296
C171	C	1.481037	-0.430402	0.176704
C172	C	1.731037	-0.180402	0.426704
C173	C	0.944370	-0.820589	-0.359848
C174	C	1.194370	-0.570589	-0.109848
C175	C	1.444370	-0.320589	0.140152
C176	C	1.694370	-0.070589	0.390152
C177	C	0.984098	-0.855427	-0.320203
C178	C	1.234098	-0.605427	-0.070203
C179	C	1.484098	-0.355427	0.179797
C180	C	1.734098	-0.105427	0.429797
C181	C	1.140715	-0.338377	-0.340036
C182	C	1.390715	-0.088377	-0.090036
C183	C	1.640715	0.161623	0.159964
C184	C	1.890715	0.411623	0.409964
C185	C	1.215947	-0.338383	-0.340046
C186	C	1.465947	-0.088383	-0.090046
C187	C	1.715947	0.161617	0.159954
C188	C	1.965947	0.411617	0.409954
C189	C	0.964201	-0.338324	-0.516555
C190	C	1.214201	-0.088324	-0.266555
C191	C	1.464201	0.161676	-0.016555
C192	C	1.714201	0.411676	0.233445
C193	C	0.964213	-0.338307	-0.591786
C194	C	1.214213	-0.088307	-0.341786
C195	C	1.464213	0.161693	-0.091786
C196	C	1.714213	0.411693	0.158214
C197	C	0.971803	-0.155169	-0.332533
C198	C	1.221803	0.094831	-0.082533
C199	C	1.471803	0.344831	0.167467
C200	C	1.721803	0.594831	0.417467
C201	C	0.975055	-0.077103	-0.329345
C202	C	1.225055	0.172897	-0.079345
C203	C	1.475055	0.422897	0.170655
C204	C	1.725055	0.672897	0.420655
C205	C	1.009461	-0.293265	-1.051744
C206	C	1.259461	-0.043265	-0.801744
C207	C	1.509461	0.206735	-0.551744
C208	C	1.759461	0.456735	-0.301744
C209	C	1.009450	-0.293286	-0.981057
C210	C	1.259450	-0.043286	-0.731057
C211	C	1.509450	0.206714	-0.481057
C212	C	1.759450	0.456714	-0.231057
C213	C	0.964286	-0.338209	-0.947544
C214	C	1.214286	-0.088209	-0.697544
C215	C	1.464286	0.161791	-0.447544
C216	C	1.714286	0.411791	-0.197544
C217	C	0.919136	-0.383119	-0.984722
C218	C	1.169136	-0.133119	-0.734722
C219	C	1.419136	0.116881	-0.484722
C220	C	1.669136	0.366881	-0.234722
C221	C	0.919152	-0.383100	-1.055409
C222	C	1.169152	-0.133100	-0.805409
C223	C	1.419152	0.116900	-0.555409
C224	C	1.669152	0.366900	-0.305409
C225	C	0.919074	-0.383195	-0.699652
C226	C	1.169074	-0.133195	-0.449652
C227	C	1.419074	0.116805	-0.199652
C228	C	1.669074	0.366805	0.050348
C229	C	0.919061	-0.383209	-0.628961
C230	C	1.169061	-0.133209	-0.378961
C231	C	1.419061	0.116791	-0.128961
C232	C	1.669061	0.366791	0.121039
C233	C	1.009372	-0.293381	-0.625300
C234	C	1.259372	-0.043381	-0.375300
C235	C	1.509372	0.206619	-0.125300
C236	C	1.759372	0.456619	0.124700
C237	C	1.009388	-0.293363	-0.695987
C238	C	1.259388	-0.043363	-0.445987
C239	C	1.509388	0.206637	-0.195987
C240	C	1.759388	0.456637	0.054013
C241	C	0.964240	-0.338274	-0.733159
C242	C	1.214240	-0.088274	-0.483159
C243	C	1.464240	0.161726	-0.233159
C244	C	1.714240	0.411726	0.016841
C245	C	0.964254	-0.338251	-0.809807
C246	C	1.214254	-0.088251	-0.559807
C247	C	1.464254	0.161749	-0.309807
C248	C	1.714254	0.411749	-0.059807
C249	C	0.964269	-0.338229	-0.870897
C250	C	1.214269	-0.088229	-0.620897
C251	C	1.464269	0.161771	-0.370897
C252	C	1.714269	0.411771	-0.120897
C253	C	0.964186	-0.338351	-0.164157
C254	C	1.214186	-0.088351	0.085843
C255	C	1.464186	0.161649	0.335843
C256	C	1.714186	0.411649	0.585843
C257	C	0.964313	-0.338169	-0.088918
C258	C	1.214313	-0.088169	0.161082
C259	C	1.464313	0.161831	0.411082
C260	C	1.714313	0.411831	0.661082
H261	H	0.581632	-0.256759	-0.258276
H262	H	0.831632	-0.006759	-0.008276
H263	H	1.081632	0.243241	0.241724
H264	H	1.331632	0.493241	0.491724
Cl265	Cl	1.079199	-0.920954	-0.225295
Cl266	Cl	1.329199	-0.670954	0.024705
Cl267	Cl	1.579199	-0.420954	0.274705
Cl268	Cl	1.829199	-0.170954	0.524705
Cl269	Cl	0.862393	-0.439556	-1.102142
Cl270	Cl	1.112393	-0.189556	-0.852142
Cl271	Cl	1.362393	0.060444	-0.602142
Cl272	Cl	1.612393	0.310444	-0.352142
Cl273	Cl	0.717991	-0.439887	-0.441692
Cl274	Cl	0.967991	-0.189887	-0.191692
Cl275	Cl	1.217991	0.060113	0.058308
Cl276	Cl	1.467991	0.310113	0.308308
Cl277	Cl	1.066234	-0.236779	-1.093868
Cl278	Cl	1.316234	0.013221	-0.843868
Cl279	Cl	1.566234	0.263221	-0.593868
Cl280	Cl	1.816234	0.513221	-0.343868
Cl281	Cl	0.849279	-0.755059	-0.454763
Cl282	Cl	1.099279	-0.505059	-0.204763
Cl283	Cl	1.349279	-0.255059	0.045237
Cl284	Cl	1.599279	-0.005059	0.295237
H285	H	1.046215	-0.256722	-0.950793
H286	H	1.296215	-0.006722	-0.700793
H287	H	1.546215	0.243278	-0.450793
H288	H	1.796215	0.493278	-0.200793
Cl289	Cl	0.888038	-0.866713	-0.416114
Cl290	Cl	1.138038	-0.616713	-0.166114
Cl291	Cl	1.388038	-0.366713	0.083886
Cl292	Cl	1.638038	-0.116713	0.333886
Cl293	Cl	1.066173	-0.236893	-0.738114
Cl294	Cl	1.316173	0.013107	-0.488114
Cl295	Cl	1.566173	0.263107	-0.238114
Cl296	Cl	1.816173	0.513107	0.011886
Cl297	Cl	0.862281	-0.439689	-0.586831
Cl298	Cl	1.112281	-0.189689	-0.336831
Cl299	Cl	1.362281	0.060311	-0.086831
Cl300	Cl	1.612281	0.310311	0.163169
H301	H	0.709877	-0.256747	-0.258262
H302	H	0.959877	-0.006747	-0.008262
H303	H	1.209877	0.243253	0.241738
H304	H	1.459877	0.493253	0.491738
Cl305	Cl	1.066129	-0.236918	-0.578565
Cl306	Cl	1.316129	0.013082	-0.328565
Cl307	Cl	1.566129	0.263082	-0.078565
Cl308	Cl	1.816129	0.513082	0.171435
Cl309	Cl	0.862320	-0.439659	-0.746374
Cl310	Cl	1.112320	-0.189659	-0.496374
Cl311	Cl	1.362320	0.060341	-0.246374
Cl312	Cl	1.612320	0.310341	0.003626
H313	H	0.882367	-0.419699	-0.957431
H314	H	1.132367	-0.169699	-0.707431
H315	H	1.382367	0.080301	-0.457431
H316	H	1.632367	0.330301	-0.207431
H317	H	1.053914	-1.070278	-0.250600
H318	H	1.303914	-0.820278	-0.000600
H319	H	1.553914	-0.570278	0.249400
H320	H	1.803914	-0.320278	0.499400
Cl321	Cl	1.044813	-0.755017	-0.259528
Cl322	Cl	1.294813	-0.505017	-0.009528
Cl323	Cl	1.544813	-0.255017	0.240472
Cl324	Cl	1.794813	-0.005017	0.490472
H325	H	1.031712	-0.605711	-0.272513
H326	H	1.281712	-0.355711	-0.022513
H327	H	1.531712	-0.105711	0.227487
H328	H	1.781712	0.144289	0.477487
H329	H	0.874549	-0.605739	-0.429447
H330	H	1.124549	-0.355739	-0.179447
H331	H	1.374549	-0.105739	0.070553
H332	H	1.624549	0.144261	0.320553
Cl333	Cl	0.876892	-1.086555	-0.427342
Cl334	Cl	1.126892	-0.836555	-0.177342
Cl335	Cl	1.376892	-0.586555	0.072658
Cl336	Cl	1.626892	-0.336555	0.322658
H337	H	0.902178	-0.937236	-0.402041
H338	H	1.152178	-0.687236	-0.152041
H339	H	1.402178	-0.437236	0.097959
H340	H	1.652178	-0.187236	0.347959
H341	H	0.574923	-0.419968	-0.421754
H342	H	0.824923	-0.169968	-0.171754
H343	H	1.074923	0.080032	0.078246
H344	H	1.324923	0.330032	0.328246
Cl345	Cl	0.362232	-0.439901	-0.441724
Cl346	Cl	0.612232	-0.189901	-0.191724
Cl347	Cl	0.862232	0.060099	0.058276
Cl348	Cl	1.112232	0.310099	0.308276
H349	H	0.225873	-0.256778	-0.258299
H350	H	0.475873	-0.006778	-0.008299
H351	H	0.725873	0.243222	0.241701
H352	H	0.975873	0.493222	0.491701
Cl353	Cl	0.202681	-0.439916	-0.441738
Cl354	Cl	0.452681	-0.189916	-0.191738
Cl355	Cl	0.702681	0.060084	0.058262
Cl356	Cl	0.952681	0.310084	0.308262
Cl357	Cl	0.370581	-0.236840	-0.238336
Cl358	Cl	0.620581	0.013160	0.011664
Cl359	Cl	0.870581	0.263160	0.261664
Cl360	Cl	1.120581	0.513160	0.511664
Cl361	Cl	1.040432	-0.809308	-0.263939
Cl362	Cl	1.290432	-0.559308	-0.013939
Cl363	Cl	1.540432	-0.309308	0.236061
Cl364	Cl	1.790432	-0.059308	0.486061
