data_functionalizedCrystal
_audit_creation_method	'MofGen! by Chris Wilmer'
_symmetry_space_group_name_H-M	'P1'
_symmetry_Int_Tables_number	1
_symmetry_cell_setting	triclinic
loop_
_symmetry_equiv_pos_as_xyz
  x,y,z
_cell_length_a	12.594517
_cell_length_b	12.594516
_cell_length_c	19.076919
_cell_angle_alpha	92.275735
_cell_angle_beta	92.279789
_cell_angle_gamma	90.011248
loop_
_atom_site_label
_atom_site_type_symbol
_atom_site_fract_x
_atom_site_fract_y
_atom_site_fract_z
Zn1	Zn	1.603080	-0.447962	-0.397993
Zn2	Zn	1.610145	-0.618805	-0.280307
Zn3	Zn	1.432245	-0.440840	-0.280310
Zn4	Zn	1.425081	-0.625895	-0.397960
O5	O	1.517638	-0.533375	-0.339143
O6	O	1.752962	-0.470638	-0.382395
O7	O	1.592501	-0.589251	-0.181818
O8	O	1.454948	-0.292840	-0.295935
O9	O	1.758153	-0.596156	-0.295931
O10	O	1.580459	-0.298072	-0.382397
O11	O	1.461799	-0.458500	-0.181820
O12	O	1.282349	-0.465374	-0.295903
O13	O	1.442738	-0.608239	-0.496454
O14	O	1.277086	-0.601333	-0.382341
O15	O	1.573513	-0.477512	-0.496478
O16	O	1.585555	-0.768691	-0.295899
O17	O	1.449589	-0.773899	-0.382338
C18	C	1.241098	-0.533351	-0.339119
C19	C	1.122792	-0.533367	-0.339126
C20	C	0.985601	-0.459347	-0.292220
C21	C	1.052549	-0.437325	-0.356443
C22	C	1.057415	-0.555342	-0.274909
C23	C	0.978950	-0.511341	-0.403435
C24	C	0.983812	-0.629401	-0.321857
C25	C	1.050726	-0.607418	-0.386125
C26	C	1.517589	-0.809916	-0.339130
C27	C	1.517664	-0.928222	-0.339149
C28	C	1.591695	-0.994607	-0.292185
C29	C	1.613797	-1.069215	-0.356424
C30	C	1.495693	-1.064415	-0.274950
C31	C	1.539813	-1.001274	-0.403422
C32	C	1.421667	-0.996465	-0.321904
C33	C	1.443729	-1.071045	-0.386188
C34	C	1.795257	-0.533401	-0.339167
C35	C	1.913562	-0.533412	-0.339177
C36	C	1.506538	-0.544461	-0.522717
C37	C	1.501808	-0.549185	-0.600946
C38	C	1.517714	-0.255756	-0.339170
C39	C	1.517747	-0.137452	-0.339182
C40	C	1.567670	-0.483345	-0.637711
C41	C	1.563212	-0.487779	-0.711215
C42	C	1.492898	-0.558060	-0.747952
C43	C	1.427029	-0.623903	-0.711181
C44	C	1.431482	-0.619462	-0.637679
C45	C	1.472275	-0.578634	-0.967780
C46	C	1.467830	-0.583072	-1.041288
C47	C	1.604012	-0.446947	-1.041317
C48	C	1.608463	-0.442517	-0.967813
C49	C	1.542590	-0.508356	-0.931049
N50	N	1.488343	-0.562597	-0.823085
N51	N	1.547141	-0.503813	-0.855917
C52	C	1.528755	-0.522256	-0.156282
C53	C	1.533691	-0.517233	-0.078054
H54	H	0.944740	-0.492679	-0.457780
C55	C	1.723509	-1.112351	-0.376153
H56	H	1.776004	-1.086111	-0.342728
H57	H	1.739656	-1.089768	-0.421448
H58	H	1.722557	-1.187791	-0.376438
C59	C	1.676462	-0.374523	-1.081756
H60	H	1.718980	-0.332037	-1.049349
H61	H	1.634025	-0.329876	-1.110430
H62	H	1.721095	-0.416981	-1.110429
C63	C	1.645011	-0.406030	-0.597307
H64	H	1.683589	-0.367446	-0.629734
H65	H	1.693116	-0.445010	-0.568633
H66	H	1.606034	-0.357916	-0.568637
H67	H	0.956912	-0.396690	-0.252581
H68	H	1.616847	-0.434168	-0.741147
H69	H	0.953563	-0.710571	-0.307206
H70	H	1.558347	-0.973546	-0.457774
H71	H	1.082757	-0.356127	-0.371084
H72	H	1.381156	-1.104320	-0.425964
C73	C	1.089224	-0.692005	-0.439798
H74	H	1.062131	-0.676233	-0.485392
H75	H	1.064620	-0.760025	-0.427902
H76	H	1.164684	-0.691920	-0.439221
C77	C	1.103796	-0.580437	-0.201517
H78	H	1.081550	-0.527763	-0.168232
H79	H	1.179177	-0.580886	-0.202122
H80	H	1.079251	-0.648137	-0.188911
C81	C	1.311987	-0.953293	-0.302150
H82	H	1.296453	-0.974768	-0.256485
H83	H	1.259277	-0.980561	-0.335056
H84	H	1.312578	-0.877903	-0.302702
C85	C	1.470533	-1.102049	-0.201590
H86	H	1.523171	-1.075794	-0.168270
H87	H	1.470099	-1.177504	-0.202228
H88	H	1.402813	-1.076042	-0.189006
H89	H	1.410568	-0.640306	-1.071197
H90	H	1.654309	-0.961140	-0.252504
H91	H	1.369773	-0.681123	-0.741099
H92	H	1.665724	-0.385290	-0.937907
C93	C	1.399796	-0.651032	-0.927349
H94	H	1.357284	-0.693522	-0.959757
H95	H	1.355174	-0.608557	-0.898684
H96	H	1.442213	-0.695694	-0.898666
H97	H	1.377839	-0.673065	-0.607745
