data_functionalizedCrystal
_audit_creation_method	'MofGen! by Chris Wilmer'
_symmetry_space_group_name_H-M	'P1'
_symmetry_Int_Tables_number	1
_symmetry_cell_setting	triclinic
loop_
_symmetry_equiv_pos_as_xyz
  x,y,z
_cell_length_a	19.377625
_cell_length_b	14.560438
_cell_length_c	14.560438
_cell_angle_alpha	59.996693
_cell_angle_beta	75.510751
_cell_angle_gamma	52.466842
loop_
_atom_site_label
_atom_site_type_symbol
_atom_site_fract_x
_atom_site_fract_y
_atom_site_fract_z
Zr1	Zr	0.686673	1.005272	-0.349228
O2	O	0.572857	1.196890	-0.457992
O3	O	0.721563	0.813660	-0.315877
O4	O	0.721560	1.005272	-0.507493
O5	O	0.572862	1.005276	-0.115237
O6	O	0.838861	1.005264	-0.546550
O7	O	0.572859	1.005278	-0.266376
O8	O	0.838865	0.662507	-0.203784
O9	O	0.572858	1.348033	-0.458002
O10	O	0.823984	0.892465	-0.330812
O11	O	0.736446	0.892468	-0.188870
O12	O	0.736443	1.118066	-0.414473
O13	O	0.648905	1.118070	-0.272531
Zr14	Zr	0.873758	1.005255	-0.170468
Zr15	Zr	0.873754	1.005260	-0.411519
Zr16	Zr	0.686677	1.005268	-0.108177
Zr17	Zr	0.686674	1.246329	-0.349244
Zr18	Zr	0.873757	0.764199	-0.170453
O19	O	0.838868	1.196867	-0.203819
O20	O	0.838862	1.196872	-0.546562
O21	O	0.572864	1.196884	-0.115249
O22	O	0.987574	0.813638	-0.061704
O23	O	0.987568	0.813643	-0.404447
O24	O	0.721569	0.813655	0.026866
O25	O	0.987569	1.005251	-0.404460
O26	O	0.838871	1.005255	-0.012204
O27	O	0.721571	1.005263	0.026853
O28	O	0.987572	1.005249	-0.253320
O29	O	0.721562	1.348024	-0.507515
O30	O	0.838869	0.662503	-0.012181
O31	O	0.987573	0.662494	-0.061694
O32	O	0.987570	0.662497	-0.253297
O33	O	0.572861	1.348030	-0.266399
O34	O	0.721566	1.348021	-0.315912
O35	O	0.823988	0.892461	-0.105224
O36	O	0.911526	0.892457	-0.247165
O37	O	0.823985	1.118059	-0.330826
O38	O	0.736447	1.118062	-0.188885
C39	C	0.780214	0.703738	-0.259828
C40	C	0.780213	0.601403	-0.259821
C41	C	0.715588	0.636623	-0.321586
C42	C	0.715592	0.540483	-0.321616
C43	C	0.844849	0.373905	-0.198108
C44	C	0.844849	0.470044	-0.198085
C45	C	0.546206	1.005279	-0.181931
C46	C	0.466785	1.005284	-0.155487
C47	C	0.205564	1.005256	-0.484774
C48	C	0.130940	1.005251	-0.459891
C49	C	0.130964	1.005248	-0.293374
C50	C	0.205587	1.005260	-0.318244
C51	C	0.242882	1.005262	-0.413945
C52	C	0.242905	1.005266	-0.247416
C53	C	0.317524	1.005271	-0.272283
C54	C	0.354825	1.005269	-0.367978
C55	C	0.317501	1.005267	-0.438812
C56	C	0.205612	1.005254	-0.151712
C57	C	0.242930	1.005260	-0.080884
C58	C	0.317547	1.005274	-0.105754
C59	C	0.354848	1.005273	-0.201449
C60	C	0.354871	1.005276	-0.034920
C61	C	0.429490	1.005281	-0.059786
C62	C	0.429468	1.005278	-0.226315
C63	C	1.014225	1.005248	-0.337765
C64	C	1.093646	1.005243	-0.364209
C65	C	0.780210	1.005269	-0.561366
C66	C	0.780208	1.005270	-0.663698
C67	C	0.780217	1.306789	-0.259868
C68	C	0.780218	1.409124	-0.259875
C69	C	0.734513	1.123030	-0.755445
C70	C	0.734523	1.123024	-0.851597
C71	C	0.825924	0.887488	-0.764242
C72	C	0.825918	0.887496	-0.668094
C73	C	0.780222	1.005258	0.041669
C74	C	0.780224	1.005257	0.144002
C75	C	1.014223	0.703723	-0.337745
C76	C	1.093644	0.601383	-0.364182
C77	C	0.780220	0.703733	0.041689
C78	C	0.780221	0.601396	0.144028
C79	C	1.014229	0.703718	-0.036227
C80	C	1.093652	0.601376	0.039667
C81	C	0.546202	1.306809	-0.483469
C82	C	0.466780	1.409151	-0.559364
C83	C	0.546208	1.306804	-0.181951
C84	C	0.466787	1.409144	-0.155514
C85	C	0.780211	1.306794	-0.561386
C86	C	0.780210	1.409131	-0.663725
C87	C	1.085244	0.553327	-0.420270
C88	C	1.159861	0.457181	-0.445131
C89	C	1.242876	0.409086	-0.413897
C90	C	1.251274	0.457151	-0.357807
C91	C	1.176658	0.553302	-0.332953
C92	C	1.176651	0.553313	0.001214
C93	C	1.251284	0.457166	0.072513
C94	C	1.242915	0.409076	0.182266
C95	C	1.159907	0.457148	0.220721
C96	C	1.085276	0.553301	0.149421
C97	C	0.383780	1.457225	-0.520910
C98	C	0.309148	1.553403	-0.592210
C99	C	0.317516	1.601498	-0.701963
C100	C	0.400524	1.553419	-0.740417
C101	C	0.475155	1.457250	-0.669118
C102	C	0.475187	1.457210	-0.099436
C103	C	0.400571	1.553383	-0.074602
C104	C	0.317555	1.601481	-0.105840
C105	C	0.309157	1.553411	-0.161925
C106	C	0.383773	1.457247	-0.186765
C107	C	0.825917	0.553312	0.235770
C108	C	0.825909	0.457165	0.331928
C109	C	0.734507	0.457190	0.244589
C110	C	0.734511	0.553342	0.148435
H111	H	0.662969	0.569171	-0.371913
H112	H	0.100592	1.005241	-0.215452
H113	H	0.697293	1.218930	-0.751871
H114	H	0.697292	0.418051	0.248190
H115	H	1.303691	0.330782	0.240311
H116	H	0.212558	1.005253	-0.002963
H117	H	1.017697	0.592421	0.180747
H118	H	0.144855	1.005244	-0.131468
H119	H	0.241566	1.592532	-0.560879
H120	H	0.863134	0.592439	0.232189
H121	H	0.347863	1.005283	-0.516747
H122	H	0.863118	0.418021	0.406625
H123	H	1.183509	0.592417	-0.287277
H124	H	0.662953	0.743578	-0.371849
H125	H	1.017655	0.592485	-0.445723
H126	H	0.697295	0.592496	0.073731
H127	H	0.897473	0.266943	-0.147843
H128	H	0.376950	1.418072	-0.431547
H129	H	1.318865	0.418035	0.041185
H130	H	0.697315	1.218915	-0.926298
H131	H	0.863139	0.791600	-0.767834
H132	H	0.897479	0.441355	-0.147788
H133	H	1.183481	0.592454	-0.088150
H134	H	0.459829	1.005293	-0.304250
H135	H	0.256740	1.679804	-0.760007
H136	H	0.863132	0.791596	-0.593386
H137	H	0.415588	1.005267	-0.388220
H138	H	1.153006	0.418057	-0.490801
H139	H	0.542734	1.418109	-0.700441
H140	H	1.303626	0.330793	-0.434140
H141	H	1.153106	0.417979	0.310090
H142	H	0.100561	1.005244	-0.517575
H143	H	0.235926	1.005272	-0.562708
H144	H	0.324501	1.005261	0.043005
H145	H	0.407327	1.592591	-0.829786
H146	H	1.318875	0.417979	-0.332381
H147	H	0.542776	1.418056	-0.073987
H148	H	0.407425	1.592505	-0.028931
H149	H	0.256805	1.679784	-0.085606
H150	H	0.459875	1.005284	-0.002110
H151	H	0.376922	1.418114	-0.232424
H152	H	0.241556	1.592587	-0.187354
