data_functionalizedCrystal
_audit_creation_method	'MofGen! by Chris Wilmer'
_symmetry_space_group_name_H-M	'P1'
_symmetry_Int_Tables_number	1
_symmetry_cell_setting	triclinic
loop_
_symmetry_equiv_pos_as_xyz
  x,y,z
_cell_length_a	10.489741
_cell_length_b	10.868271
_cell_length_c	11.792241
_cell_angle_alpha	90.005281
_cell_angle_beta	84.366295
_cell_angle_gamma	90.001615
loop_
_atom_site_label
_atom_site_type_symbol
_atom_site_fract_x
_atom_site_fract_y
_atom_site_fract_z
O1	O	1.693508	0.102247	0.160137
O2	O	1.322261	0.102266	0.175169
O3	O	1.516893	0.102247	0.002507
O4	O	1.498875	0.102265	0.332799
O5	O	1.516877	-0.102397	0.002500
O6	O	1.322245	-0.102379	0.175162
O7	O	1.693492	-0.102398	0.160130
Zn8	Zn	1.507866	-0.134880	0.167645
Zn9	Zn	1.507887	0.134748	0.167654
O10	O	1.498859	-0.102379	0.332792
C11	C	1.274725	-0.000054	0.174030
C12	C	1.133107	-0.000047	0.170633
N13	N	1.507860	-0.318894	0.167638
C14	C	1.507880	-0.569900	0.167652
C15	C	1.507865	-0.430223	0.167648
C16	C	1.065341	-0.000065	0.060774
C17	C	0.973046	0.100836	0.112674
C18	C	0.973064	-0.100927	0.112693
C19	C	1.042676	0.100937	0.222579
C20	C	1.042704	-0.100917	0.222583
C21	C	0.950436	0.000008	0.274563
C22	C	1.741027	-0.000075	0.161269
C23	C	1.882645	-0.000074	0.164666
C24	C	1.515753	-0.000075	-0.039791
C25	C	1.512366	-0.000073	-0.165813
N26	N	1.507902	0.318762	0.167652
C27	C	1.506136	-0.000052	-0.396542
C28	C	1.509598	-0.000064	-0.268148
C29	C	1.499999	-0.000055	0.375090
C30	C	1.503387	-0.000048	0.501113
H31	H	1.115339	0.000057	-0.029538
H32	H	0.942196	0.186137	0.066193
O33	O	1.083298	0.214092	0.284066
H34	H	1.188864	0.213247	0.286053
O35	O	1.083626	-0.213905	0.284107
H36	H	1.189089	-0.212363	0.286775
O37	O	0.932242	-0.213935	0.051103
H38	H	0.883032	-0.185522	-0.023818
O39	O	0.884566	0.000063	0.394319
H40	H	0.912456	0.083898	0.439639
