data_functionalizedCrystal
_audit_creation_method	'MofGen! by Chris Wilmer'
_symmetry_space_group_name_H-M	'P1'
_symmetry_Int_Tables_number	1
_symmetry_cell_setting	triclinic
loop_
_symmetry_equiv_pos_as_xyz
  x,y,z
_cell_length_a	9.065218
_cell_length_b	14.971486
_cell_length_c	14.048226
_cell_angle_alpha	90.003623
_cell_angle_beta	90.005267
_cell_angle_gamma	95.684993
loop_
_atom_site_label
_atom_site_type_symbol
_atom_site_fract_x
_atom_site_fract_y
_atom_site_fract_z
O1	O	0.192264	-1.188373	0.079047
O2	O	0.215287	-0.928145	0.079073
O3	O	-0.010976	-1.063638	0.079057
O4	O	0.418527	-1.052880	0.079062
O5	O	-0.010995	-1.063635	-0.079264
O6	O	0.215269	-0.928142	-0.079249
O7	O	0.192245	-1.188370	-0.079274
Zn8	Zn	0.203754	-1.058255	-0.104398
Zn9	Zn	0.203779	-1.058259	0.104197
O10	O	0.418508	-1.052877	-0.079259
C11	C	-0.065951	-1.062602	-0.000102
C12	C	-0.229731	-1.059511	-0.000097
C13	C	0.214248	-0.894811	-0.000085
C14	C	0.211163	-0.795491	-0.000075
C15	C	0.193284	-1.221704	-0.000115
C16	C	0.196370	-1.321024	-0.000118
C17	C	0.473483	-1.053912	-0.000098
C18	C	0.637264	-1.057004	-0.000097
C19	C	0.344086	-0.739256	-0.000075
C20	C	0.341178	-0.645935	-0.000089
C21	C	0.205345	-0.608850	-0.000097
C22	C	0.072412	-0.665092	-0.000100
C23	C	0.075321	-0.758411	-0.000092
C24	C	0.066357	-0.470584	-0.000113
C25	C	0.063446	-0.377259	-0.000118
C26	C	0.332214	-0.358108	-0.000110
C27	C	0.335123	-0.451427	-0.000102
C28	C	0.202189	-0.507663	-0.000103
N29	N	0.203785	-1.058263	0.246557
N30	N	0.203736	-1.058259	-0.246759
C31	C	0.103793	-1.118374	0.296369
C32	C	0.103788	-1.118377	0.396026
C33	C	0.203769	-1.058265	0.445871
C34	C	0.303772	-0.998151	0.396053
C35	C	0.303783	-0.998152	0.296397
C36	C	0.303740	-0.998151	0.603767
C37	C	0.303728	-0.998148	0.703430
C38	C	0.103746	-1.118376	0.703397
C39	C	0.103756	-1.118377	0.603741
C40	C	0.203758	-1.058262	0.553929
H41	H	0.454697	-0.769442	-0.000068
C42	C	-0.070905	-0.820270	-0.000090
N43	N	-0.181048	-0.866861	-0.000090
H44	H	0.022370	-1.167320	0.255792
C45	C	-0.079879	-0.532442	-0.000111
N46	N	-0.190022	-0.579033	-0.000103
H47	H	0.440454	-0.312316	-0.000113
C48	C	0.484546	-0.492218	-0.000098
N49	N	0.597094	-0.522942	-0.000100
H50	H	-0.047161	-0.347068	-0.000126
C51	C	-0.006219	-1.184500	0.450814
N52	N	-0.089082	-1.234306	0.492080
H53	H	0.022337	-1.167321	0.563157
H54	H	0.449418	-0.600152	-0.000088
C55	C	-0.006236	-1.184516	0.758191
N56	N	-0.089068	-1.234333	0.799466
C57	C	0.413752	-0.932026	0.450885
N58	N	0.496587	-0.882216	0.492184
C59	C	0.413594	-0.931949	0.758257
N60	N	0.496303	-0.882060	0.799552
H61	H	-0.038186	-0.634890	-0.000119
H62	H	0.385177	-0.949201	0.563214
C63	C	0.413778	-0.932023	0.241605
N64	N	0.496633	-0.882214	0.200337
