data_functionalizedCrystal
_audit_creation_method	'MofGen! by Chris Wilmer'
_symmetry_space_group_name_H-M	'P1'
_symmetry_Int_Tables_number	1
_symmetry_cell_setting	triclinic
loop_
_symmetry_equiv_pos_as_xyz
  x,y,z
_cell_length_a	18.215407
_cell_length_b	12.594516
_cell_length_c	18.215399
_cell_angle_alpha	90.022106
_cell_angle_beta	90.019833
_cell_angle_gamma	90.016501
loop_
_atom_site_label
_atom_site_type_symbol
_atom_site_fract_x
_atom_site_fract_y
_atom_site_fract_z
Zn1	Zn	1.125117	-0.423740	0.416146
Zn2	Zn	1.458450	-0.090407	0.749479
Zn3	Zn	1.791784	0.242926	1.082812
Zn4	Zn	1.125045	-0.601738	0.293092
Zn5	Zn	1.458378	-0.268404	0.626425
Zn6	Zn	1.791711	0.064929	0.959759
Zn7	Zn	1.002050	-0.423775	0.293093
Zn8	Zn	1.335383	-0.090442	0.626426
Zn9	Zn	1.668716	0.242892	0.959760
Zn10	Zn	1.002035	-0.601679	0.416117
Zn11	Zn	1.335368	-0.268345	0.749450
Zn12	Zn	1.668701	0.064988	1.082784
O13	O	1.063561	-0.512733	0.354612
O14	O	1.396895	-0.179400	0.687945
O15	O	1.730228	0.153934	1.021279
O16	O	1.228092	-0.447362	0.399834
O17	O	1.561425	-0.114029	0.733167
O18	O	1.894758	0.219304	1.066501
O19	O	1.108705	-0.578170	0.190108
O20	O	1.442038	-0.244837	0.523441
O21	O	1.775372	0.088497	0.856775
O22	O	1.018412	-0.274825	0.309429
O23	O	1.351745	0.058509	0.642762
O24	O	1.685078	0.391842	0.976096
O25	O	1.228038	-0.578136	0.309427
O26	O	1.561372	-0.244803	0.642760
O27	O	1.894705	0.088530	0.976094
O28	O	1.108829	-0.274799	0.399835
O29	O	1.442162	0.058534	0.733168
O30	O	1.775495	0.391868	1.066502
O31	O	1.018341	-0.447422	0.190109
O32	O	1.351675	-0.114088	0.523442
O33	O	1.685008	0.219245	0.856775
O34	O	0.899063	-0.447364	0.309401
O35	O	1.232397	-0.114031	0.642734
O36	O	1.565730	0.219302	0.976068
O37	O	1.018386	-0.578035	0.519105
O38	O	1.351719	-0.244702	0.852438
O39	O	1.685052	0.088631	1.185772
O40	O	0.899052	-0.578069	0.399786
O41	O	1.232386	-0.244736	0.733119
O42	O	1.565719	0.088598	1.066453
O43	O	1.108814	-0.447305	0.519126
O44	O	1.442147	-0.113971	0.852460
O45	O	1.775481	0.219362	1.185793
O46	O	1.108690	-0.750676	0.309399
O47	O	1.442024	-0.417342	0.642732
O48	O	1.775357	-0.084009	0.976066
O49	O	1.018315	-0.750632	0.399785
O50	O	1.351649	-0.417299	0.733118
O51	O	1.684982	-0.083966	1.066452
C52	C	0.872355	-0.512715	0.354591
C53	C	1.205689	-0.179381	0.687924
C54	C	1.539022	0.153952	1.021258
C55	C	0.790556	-0.512733	0.354599
C56	C	1.123890	-0.179399	0.687933
C57	C	1.457223	0.153934	1.021266
C58	C	1.063513	-0.789274	0.354605
C59	C	1.396847	-0.455941	0.687938
C60	C	1.730180	-0.122607	1.021271
C61	C	1.063560	-0.907579	0.354626
C62	C	1.396893	-0.574246	0.687960
C63	C	1.730227	-0.240913	1.021293
C64	C	0.602376	-0.580898	0.401604
C65	C	0.935709	-0.247564	0.734937
C66	C	1.269043	0.085769	1.068270
C67	C	0.525517	-0.580901	0.401613
C68	C	0.858850	-0.247568	0.734946
C69	C	1.192184	0.085766	1.068280
C70	C	0.525499	-0.444588	0.307636
C71	C	0.858832	-0.111254	0.640970
C72	C	1.192166	0.222079	0.974303
C73	C	0.602356	-0.444580	0.307631
C74	C	0.935690	-0.111246	0.640965
C75	C	1.269023	0.222087	0.974298
C76	C	0.640793	-0.512741	0.354614
C77	C	0.974126	-0.179407	0.687947
C78	C	1.307459	0.153926	1.021281
C79	C	0.487077	-0.512752	0.354628
C80	C	0.820410	-0.179419	0.687961
C81	C	1.153743	0.153915	1.021295
C82	C	0.403743	-0.512755	0.354638
C83	C	0.737076	-0.179422	0.687971
C84	C	1.070410	0.153912	1.021304
C85	C	0.724132	-0.512737	0.354606
C86	C	1.057465	-0.179403	0.687939
C87	C	1.390798	0.153930	1.021272
C88	C	1.014400	-0.976847	0.403753
C89	C	1.347734	-0.643514	0.737086
C90	C	1.681067	-0.310181	1.070419
C91	C	0.996471	-1.047706	0.336600
C92	C	1.329804	-0.714373	0.669933
C93	C	1.663138	-0.381039	1.003266
C94	C	1.081556	-1.047520	0.421791
C95	C	1.414890	-0.714186	0.755124
C96	C	1.748223	-0.380853	1.088457
C97	C	1.045595	-0.976880	0.287438
C98	C	1.378928	-0.643546	0.620771
C99	C	1.712262	-0.310213	0.954104
C100	C	1.130712	-0.976687	0.372674
C101	C	1.464045	-0.643354	0.706007
C102	C	1.797378	-0.310020	1.039341
C103	C	1.112808	-1.047514	0.305475
C104	C	1.446141	-0.714180	0.638808
C105	C	1.779475	-0.380847	0.972142
C106	C	1.255514	-0.512752	0.354634
C107	C	1.588848	-0.179419	0.687967
C108	C	1.922181	0.153915	1.021300
C109	C	1.337313	-0.512760	0.354643
C110	C	1.670647	-0.179427	0.687976
C111	C	2.003980	0.153907	1.021309
C112	C	1.063606	-0.512660	0.546565
C113	C	1.396940	-0.179326	0.879898
C114	C	1.730273	0.154007	1.213232
C115	C	1.063625	-0.512628	0.628364
C116	C	1.396959	-0.179295	0.961697
C117	C	1.730292	0.154038	1.295031
C118	C	1.063630	-0.235112	0.354635
C119	C	1.396963	0.098221	0.687969
C120	C	1.730297	0.431555	1.021302
C121	C	1.063659	-0.116807	0.354645
C122	C	1.396992	0.216527	0.687979
C123	C	1.730326	0.549860	1.021312
C124	C	1.063559	-0.512729	0.163406
C125	C	1.396892	-0.179396	0.496739
C126	C	1.730226	0.153937	0.830072
C127	C	1.063683	-0.512461	0.081607
C128	C	1.397016	-0.179127	0.414941
C129	C	1.730349	0.154206	0.748274
C130	C	1.110728	-0.444493	0.816570
C131	C	1.444062	-0.111160	1.149903
C132	C	1.777395	0.222173	1.483237
C133	C	1.110737	-0.444462	0.893429
C134	C	1.444070	-0.111129	1.226762
C135	C	1.777404	0.222204	1.560096
C136	C	1.016575	-0.580599	0.893396
C137	C	1.349908	-0.247265	1.226729
C138	C	1.683241	0.086068	1.560062
C139	C	1.016563	-0.580624	0.816538
C140	C	1.349896	-0.247290	1.149872
C141	C	1.683229	0.086043	1.483205
C142	C	1.063644	-0.512572	0.778127
C143	C	1.396977	-0.179239	1.111461
C144	C	1.730310	0.154094	1.444794
C145	C	1.063664	-0.512517	0.931844
C146	C	1.396998	-0.179183	1.265177
C147	C	1.730331	0.154150	1.598510
C148	C	1.063674	-0.512483	1.015177
C149	C	1.397007	-0.179150	1.348511
C150	C	1.730340	0.154183	1.681844
C151	C	1.063634	-0.512604	0.694788
C152	C	1.396967	-0.179271	1.028122
C153	C	1.730300	0.154063	1.361455
H154	H	0.494241	-0.636400	0.439878
H155	H	0.827575	-0.303066	0.773211
H156	H	1.160908	0.030267	1.106544
N157	N	0.643830	-0.654411	0.452278
N158	N	0.977163	-0.321078	0.785611
N159	N	1.310497	0.012256	1.118945
H160	H	0.630480	-0.637975	0.504879
H161	H	0.963813	-0.304641	0.838213
H162	H	1.297146	0.028692	1.171546
H163	H	0.698336	-0.644036	0.445082
H164	H	1.031669	-0.310703	0.778416
H165	H	1.365002	0.022631	1.111749
H166	H	0.494195	-0.389095	0.269384
H167	H	0.827528	-0.055762	0.602717
H168	H	1.160861	0.277572	0.936050
H169	H	0.633636	-0.389071	0.269367
H170	H	0.966970	-0.055738	0.602700
H171	H	1.300303	0.277595	0.936033
H172	H	1.149077	-0.389024	0.924726
H173	H	1.482410	-0.055690	1.258059
H174	H	1.815744	0.277643	1.591392
H175	H	1.187442	-0.945472	0.387956
H176	H	1.520775	-0.612138	0.721289
H177	H	1.854108	-0.278805	1.054622
N178	N	0.965799	-0.654008	0.934815
N179	N	1.299132	-0.320675	1.268148
N180	N	1.632465	0.012659	1.601482
H181	H	0.913220	-0.637474	0.921427
H182	H	1.246553	-0.304141	1.254761
H183	H	1.579887	0.029193	1.588094
H184	H	0.973007	-0.643642	0.989326
H185	H	1.306340	-0.310308	1.322659
H186	H	1.639674	0.023025	1.655993
H187	H	0.972753	-0.945818	0.445237
H188	H	1.306087	-0.612484	0.778570
H189	H	1.639420	-0.279151	1.111903
N190	N	1.167928	-1.088365	0.250392
N191	N	1.501261	-0.755032	0.583726
N192	N	1.834594	-0.421698	0.917059
H193	H	1.167969	-1.168553	0.251000
H194	H	1.501302	-0.835220	0.584334
H195	H	1.834636	-0.501886	0.917667
H196	H	1.218437	-1.061311	0.263593
H197	H	1.551771	-0.727978	0.596927
H198	H	1.885104	-0.394644	0.930260
N199	N	1.161508	-0.371098	0.775144
N200	N	1.494842	-0.037765	1.108477
N201	N	1.828175	0.295568	1.441810
H202	H	1.195600	-0.414373	0.743264
H203	H	1.528933	-0.081039	1.076597
H204	H	1.862267	0.252294	1.409930
H205	H	1.191287	-0.327987	0.811213
H206	H	1.524620	0.005347	1.144546
H207	H	1.857954	0.338680	1.477879
N208	N	0.921307	-1.089018	0.316373
N209	N	1.254640	-0.755684	0.649706
N210	N	1.587973	-0.422351	0.983040
H211	H	0.884168	-1.063317	0.353501
H212	H	1.217501	-0.729984	0.686835
H213	H	1.550834	-0.396651	1.020168
H214	H	0.922084	-1.169199	0.316047
H215	H	1.255418	-0.835865	0.649380
H216	H	1.588751	-0.502532	0.982714
H217	H	0.978215	-0.636061	0.785237
H218	H	1.311549	-0.302728	1.118571
H219	H	1.644882	0.030606	1.451904
H220	H	1.096738	-1.078549	0.478583
H221	H	1.430071	-0.745216	0.811917
H222	H	1.763404	-0.411883	1.145250
N223	N	1.025402	-0.935961	0.212186
N224	N	1.358735	-0.602628	0.545519
N225	N	1.692069	-0.269294	0.878853
H226	H	1.025467	-0.855770	0.212648
H227	H	1.358801	-0.522437	0.545982
H228	H	1.692134	-0.189103	0.879315
H229	H	0.974892	-0.962500	0.198494
H230	H	1.308226	-0.629167	0.531827
H231	H	1.641559	-0.295833	0.865161
