data_functionalizedCrystal
_audit_creation_method	'MofGen! by Chris Wilmer'
_symmetry_space_group_name_H-M	'P1'
_symmetry_Int_Tables_number	1
_symmetry_cell_setting	triclinic
loop_
_symmetry_equiv_pos_as_xyz
  x,y,z
_cell_length_a	12.759401
_cell_length_b	12.827892
_cell_length_c	12.759393
_cell_angle_alpha	90.029972
_cell_angle_beta	90.020938
_cell_angle_gamma	90.016917
loop_
_atom_site_label
_atom_site_type_symbol
_atom_site_fract_x
_atom_site_fract_y
_atom_site_fract_z
Zn1	Zn	1.606261	-0.415940	0.594024
Zn2	Zn	2.106261	0.084060	1.094024
Zn3	Zn	1.606150	-0.590717	0.418346
Zn4	Zn	2.106150	-0.090717	0.918346
Zn5	Zn	1.430560	-0.415996	0.418359
Zn6	Zn	1.930560	0.084004	0.918359
Zn7	Zn	1.430550	-0.590644	0.593983
Zn8	Zn	1.930550	-0.090644	1.093983
O9	O	1.518380	-0.503324	0.506178
O10	O	2.018380	-0.003324	1.006178
O11	O	1.753268	-0.439132	0.570731
O12	O	2.253268	0.060868	1.070731
O13	O	1.582816	-0.567594	0.271326
O14	O	2.082816	-0.067594	0.771326
O15	O	1.453918	-0.269752	0.441684
O16	O	1.953918	0.230248	0.941684
O17	O	1.753186	-0.567540	0.441661
O18	O	2.253186	-0.067540	0.941661
O19	O	1.583005	-0.269711	0.570744
O20	O	2.083005	0.230289	1.070744
O21	O	1.453810	-0.439227	0.271336
O22	O	1.953810	0.060773	0.771336
O23	O	1.283538	-0.439156	0.441644
O24	O	1.783538	0.060844	0.941644
O25	O	1.453900	-0.567416	0.741009
O26	O	1.953900	-0.067416	1.241009
O27	O	1.283530	-0.567469	0.570674
O28	O	1.783530	-0.067469	1.070674
O29	O	1.582995	-0.439061	0.741040
O30	O	2.082995	0.060939	1.241040
O31	O	1.582806	-0.736944	0.441622
O32	O	2.082806	-0.236944	0.941622
O33	O	1.453793	-0.736890	0.570661
O34	O	1.953793	-0.236890	1.070661
C35	C	1.245413	-0.503312	0.506157
C36	C	1.745413	-0.003312	1.006157
C37	C	1.128636	-0.503331	0.506173
C38	C	1.628636	-0.003331	1.006173
C39	C	1.073798	-0.570246	0.573253
C40	C	1.573798	-0.070246	1.073253
C41	C	0.964074	-0.570250	0.573274
C42	C	1.464074	-0.070250	1.073274
C43	C	0.964036	-0.436422	0.439125
C44	C	1.464036	0.063578	0.939125
C45	C	1.073758	-0.436413	0.439111
C46	C	1.573758	0.063587	0.939111
C47	C	1.518315	-0.774834	0.506158
C48	C	2.018315	-0.274834	1.006158
C49	C	1.518383	-0.890987	0.506185
C50	C	2.018383	-0.390987	1.006185
C51	C	1.582231	-0.942668	0.570106
C52	C	2.082231	-0.442668	1.070106
C53	C	1.582302	-1.062719	0.570135
C54	C	2.082302	-0.562719	1.070135
C55	C	1.792414	-0.503338	0.506199
C56	C	2.292414	-0.003338	1.006199
C57	C	1.909190	-0.503344	0.506209
C58	C	2.409190	-0.003344	1.006209
C59	C	1.518459	-0.503224	0.780211
C60	C	2.018459	-0.003224	1.280211
C61	C	1.518492	-0.503181	0.896988
C62	C	2.018492	-0.003181	1.396988
C63	C	1.518475	-0.230754	0.506220
C64	C	2.018475	0.269246	1.006220
C65	C	1.518515	-0.114601	0.506239
C66	C	2.018515	0.385399	1.006239
C67	C	1.518363	-0.503349	0.233211
C68	C	2.018363	-0.003349	0.733211
C69	C	1.518533	-0.503097	0.116434
C70	C	2.018533	-0.003097	0.616434
C71	C	1.585717	-0.436336	0.951867
C72	C	2.085717	0.063664	1.451867
C73	C	1.585735	-0.436291	1.061592
C74	C	2.085735	0.063709	1.561592
C75	C	1.451301	-0.569945	1.061547
C76	C	1.951301	-0.069945	1.561547
C77	C	1.451278	-0.569984	0.951825
C78	C	1.951278	-0.069984	1.451825
H79	H	1.118476	-0.624732	0.627862
H80	H	1.618476	-0.124732	1.127862
H81	H	1.463853	-1.070164	0.451507
H82	H	1.963853	-0.570164	0.951507
H83	H	0.919341	-0.381941	0.384524
H84	H	1.419341	0.118059	0.884524
H85	H	1.636969	-1.107164	0.624856
H86	H	2.136969	-0.607164	1.124856
H87	H	1.640444	-0.381938	0.907222
H88	H	2.140444	0.118062	1.407222
Cl89	Cl	1.434060	-0.959885	0.421729
Cl90	Cl	1.934060	-0.459885	0.921729
Cl91	Cl	1.142703	-0.352278	0.354781
Cl92	Cl	1.642703	0.147722	0.854781
H93	H	1.636837	-0.898040	0.624814
H94	H	2.136837	-0.398040	1.124814
H95	H	1.640474	-0.381858	1.106270
H96	H	2.140474	0.118142	1.606270
Cl97	Cl	1.366813	-0.653927	1.130493
Cl98	Cl	1.866813	-0.153927	1.630493
H99	H	0.919429	-0.624737	0.627899
H100	H	1.419429	-0.124737	1.127899
Cl101	Cl	1.366754	-0.654019	0.882829
Cl102	Cl	1.866754	-0.154019	1.382829
