data_functionalizedCrystal
_audit_creation_method	'MofGen! by Chris Wilmer'
_symmetry_space_group_name_H-M	'P1'
_symmetry_Int_Tables_number	1
_symmetry_cell_setting	triclinic
loop_
_symmetry_equiv_pos_as_xyz
  x,y,z
_cell_length_a	11.792241
_cell_length_b	10.268362
_cell_length_c	11.792254
_cell_angle_alpha	89.999366
_cell_angle_beta	84.196006
_cell_angle_gamma	89.998946
loop_
_atom_site_label
_atom_site_type_symbol
_atom_site_fract_x
_atom_site_fract_y
_atom_site_fract_z
O1	O	1.506917	-0.108160	0.155567
O2	O	1.176577	-0.108189	0.171600
O3	O	1.349756	-0.108180	-0.001586
O4	O	1.333738	-0.108169	0.328753
O5	O	1.349738	0.108421	-0.001592
O6	O	1.176559	0.108412	0.171594
O7	O	1.506900	0.108441	0.155561
Cu8	Cu	1.341728	0.128204	0.163577
Cu9	Cu	1.341748	-0.127952	0.163584
O10	O	1.333720	0.108431	0.328747
C11	C	1.134277	0.000107	0.170590
C12	C	1.008263	0.000096	0.167576
N13	N	1.341721	0.308369	0.163571
C14	C	1.348738	0.000116	-0.043880
C15	C	1.345718	0.000103	-0.169893
C16	C	0.777551	0.000133	0.162033
C17	C	0.905936	0.000113	0.165112
C18	C	1.549199	0.000141	0.156571
C19	C	1.675213	0.000144	0.159586
C20	C	1.341735	0.574040	0.163585
C21	C	1.341724	0.426202	0.163581
N22	N	1.341753	0.691882	0.163586
C23	C	1.334738	0.000133	0.371041
C24	C	1.337758	0.000137	0.497054
C25	C	1.340212	0.000130	0.599390
C26	C	1.343281	0.000115	0.727777
