data_functionalizedCrystal
_audit_creation_method	'MofGen! by Chris Wilmer'
_symmetry_space_group_name_H-M	'P1'
_symmetry_Int_Tables_number	1
_symmetry_cell_setting	triclinic
loop_
_symmetry_equiv_pos_as_xyz
  x,y,z
_cell_length_a	18.215407
_cell_length_b	19.805405
_cell_length_c	18.215399
_cell_angle_alpha	89.969390
_cell_angle_beta	89.980167
_cell_angle_gamma	90.026858
loop_
_atom_site_label
_atom_site_type_symbol
_atom_site_fract_x
_atom_site_fract_y
_atom_site_fract_z
Zn1	Zn	1.125064	-0.269462	-0.416102
Zn2	Zn	1.124969	-0.382653	-0.293030
Zn3	Zn	1.001997	-0.269484	-0.293050
Zn4	Zn	1.001959	-0.382615	-0.416055
O5	O	1.063497	-0.326054	-0.354559
O6	O	1.228036	-0.284484	-0.399788
O7	O	1.108633	-0.367666	-0.190049
O8	O	1.018377	-0.174765	-0.309401
O9	O	1.227966	-0.367644	-0.309368
O10	O	1.108794	-0.174748	-0.399807
O11	O	1.018285	-0.284521	-0.190063
O12	O	0.899008	-0.284485	-0.309355
O13	O	1.018313	-0.367580	-0.519046
O14	O	0.898980	-0.367602	-0.399727
O15	O	1.108758	-0.284447	-0.519080
O16	O	1.108596	-0.477365	-0.309322
O17	O	1.018221	-0.477337	-0.399708
C18	C	0.872291	-0.326042	-0.354538
C19	C	0.790492	-0.326053	-0.354547
C20	C	0.602303	-0.369400	-0.401544
C21	C	0.525444	-0.369403	-0.401553
C22	C	0.525444	-0.282719	-0.307591
C23	C	0.602301	-0.282714	-0.307586
C24	C	0.640729	-0.326059	-0.354561
C25	C	0.487013	-0.326066	-0.354575
C26	C	0.403679	-0.326068	-0.354585
C27	C	0.724068	-0.326056	-0.354553
C28	C	1.063415	-0.501910	-0.354524
C29	C	1.063446	-0.577142	-0.354533
C30	C	1.110550	-0.612478	-0.307518
C31	C	1.110582	-0.683166	-0.307535
C32	C	1.063505	-0.718517	-0.354562
C33	C	1.016399	-0.683176	-0.401582
C34	C	1.016372	-0.612489	-0.401569
C35	C	1.016507	-0.968249	-0.401637
C36	C	1.016536	-1.038941	-0.401645
C37	C	1.110717	-1.038927	-0.307602
C38	C	1.110690	-0.968239	-0.307589
C39	C	1.063587	-0.932905	-0.354611
C40	C	1.063555	-0.856256	-0.354594
C41	C	1.063533	-0.795164	-0.354577
C42	C	1.255450	-0.326066	-0.354581
C43	C	1.337249	-0.326071	-0.354590
C44	C	1.063542	-0.326007	-0.546512
C45	C	1.063561	-0.325987	-0.628311
C46	C	1.063601	-0.149511	-0.354611
C47	C	1.063645	-0.074279	-0.354633
C48	C	1.110673	-0.282659	-0.816524
C49	C	1.110682	-0.282639	-0.893383
C50	C	1.016502	-0.369210	-0.893336
C51	C	1.016490	-0.369226	-0.816479
C52	C	1.063580	-0.325952	-0.778075
C53	C	1.063600	-0.325916	-0.931791
C54	C	1.063609	-0.325895	-1.015125
C55	C	1.063570	-0.325972	-0.694736
C56	C	1.063495	-0.326051	-0.163353
C57	C	1.063619	-0.325880	-0.081555
H58	H	0.494146	-0.247431	-0.269344
H59	H	0.633588	-0.247416	-0.269327
C60	C	0.483176	-0.417082	-0.453232
C61	C	0.430378	-0.387825	-0.511075
C62	C	0.388109	-0.435506	-0.562757
C63	C	0.398638	-0.512443	-0.556596
C64	C	0.451437	-0.541704	-0.498750
C65	C	0.493706	-0.494023	-0.447068
H66	H	0.422582	-0.330868	-0.515638
H67	H	0.349023	-0.413844	-0.605578
H68	H	0.367348	-0.547739	-0.594853
H69	H	0.459233	-0.598662	-0.494187
H70	H	0.532792	-0.515685	-0.404248
C71	C	0.964682	-0.416852	-0.774181
C72	C	0.881025	-0.411322	-0.784739
C73	C	0.829216	-0.458942	-0.742442
C74	C	0.861063	-0.512093	-0.689589
C75	C	0.944724	-0.517625	-0.679030
C76	C	0.996533	-0.470004	-0.721326
H77	H	0.857446	-0.371974	-0.823866
H78	H	0.767285	-0.454846	-0.750260
H79	H	0.822711	-0.547344	-0.658279
H80	H	0.968303	-0.556972	-0.639902
H81	H	1.058465	-0.474100	-0.713508
H82	H	0.978202	-1.067722	-0.439946
C83	C	1.162337	-0.573594	-0.255787
C84	C	1.156387	-0.583374	-0.172121
C85	C	1.208177	-0.544492	-0.120390
C86	C	1.265916	-0.495832	-0.152324
C87	C	1.271869	-0.486050	-0.235994
C88	C	1.220079	-0.524931	-0.287725
H89	H	1.113643	-0.619398	-0.148478
H90	H	1.203770	-0.551734	-0.058452
H91	H	1.304254	-0.467049	-0.114029
H92	H	1.314613	-0.450026	-0.259637
H93	H	1.224485	-0.517690	-0.349663
C94	C	1.162397	-0.722032	-0.255814
C95	C	1.130563	-0.770691	-0.198015
C96	C	1.182382	-0.809554	-0.146292
C97	C	1.266036	-0.799758	-0.152367
C98	C	1.297874	-0.751097	-0.210168
C99	C	1.246055	-0.712234	-0.261891
H100	H	1.068633	-0.777944	-0.193516
H101	H	1.158812	-0.845576	-0.103504
H102	H	1.304395	-0.828527	-0.114078
H103	H	1.359803	-0.743843	-0.214667
H104	H	1.269624	-0.676211	-0.304679
C105	C	1.162539	-1.077797	-0.255882
C106	C	1.130702	-1.126457	-0.198086
C107	C	1.182520	-1.165325	-0.146365
C108	C	1.266174	-1.155533	-0.152441
C109	C	1.298015	-1.106872	-0.210240
C110	C	1.246197	-1.068003	-0.261960
H111	H	1.068772	-1.133707	-0.193586
H112	H	1.158949	-1.201348	-0.103579
H113	H	1.304532	-1.184306	-0.114154
H114	H	1.359945	-1.099621	-0.214739
H115	H	1.269768	-1.031981	-0.304747
C116	C	0.644575	-0.417073	-0.453221
C117	C	0.602304	-0.464745	-0.504905
C118	C	0.644573	-0.512417	-0.556585
C119	C	0.729113	-0.512417	-0.556582
C120	C	0.771389	-0.464743	-0.504897
C121	C	0.729120	-0.417071	-0.453217
H122	H	0.539718	-0.464747	-0.504908
H123	H	0.613277	-0.547709	-0.594846
H124	H	0.760403	-0.547707	-0.594840
H125	H	0.833974	-0.464741	-0.504894
H126	H	0.760415	-0.381779	-0.414956
C127	C	1.162487	-0.235018	-0.935677
C128	C	1.246144	-0.240549	-0.925126
C129	C	1.297951	-0.192924	-0.967419
C130	C	1.266100	-0.139768	-1.020263
C131	C	1.182439	-0.134234	-1.030817
C132	C	1.130632	-0.181859	-0.988524
H133	H	1.269725	-0.279901	-0.886006
H134	H	1.359882	-0.197021	-0.959606
H135	H	1.304451	-0.104513	-1.051571
H136	H	1.158857	-0.094882	-1.069937
H137	H	1.068700	-0.177762	-0.996336
C138	C	0.964697	-0.929387	-0.453362
C139	C	0.912916	-0.968274	-0.505091
C140	C	0.861107	-0.929408	-0.556821
C141	C	0.861077	-0.851655	-0.556823
C142	C	0.912860	-0.812764	-0.505092
C143	C	0.964670	-0.851630	-0.453361
H144	H	0.912936	-1.025836	-0.505092
H145	H	0.822773	-0.958199	-0.595116
H146	H	0.822725	-0.822884	-0.595117
H147	H	0.912840	-0.755202	-0.505091
H148	H	1.003003	-0.822839	-0.415067
C149	C	0.964554	-0.573616	-0.453283
C150	C	0.880899	-0.583398	-0.447202
C151	C	0.829083	-0.544525	-0.498920
C152	C	0.860922	-0.495870	-0.556719
C153	C	0.944581	-0.486085	-0.562803
C154	C	0.996397	-0.524958	-0.511085
H155	H	0.857327	-0.619418	-0.404413
H156	H	0.767153	-0.551769	-0.494416
H157	H	0.822564	-0.467094	-0.595004
H158	H	0.968154	-0.450065	-0.605591
H159	H	1.058328	-0.517714	-0.515589
C160	C	1.162464	-0.235053	-0.774279
C161	C	1.156497	-0.158106	-0.784871
C162	C	1.208287	-0.110497	-0.742628
C163	C	1.266044	-0.139835	-0.689793
C164	C	1.272014	-0.216786	-0.679199
C165	C	1.220223	-0.264395	-0.721442
H166	H	1.113739	-0.136384	-0.823984
H167	H	1.203868	-0.053532	-0.750470
H168	H	1.304383	-0.104592	-0.658522
H169	H	1.314771	-0.238508	-0.640085
H170	H	1.224643	-0.321360	-0.713599
C171	C	0.964711	-0.416816	-0.935582
C172	C	0.964725	-0.416804	-1.020122
C173	C	0.912934	-0.464413	-1.062366
C174	C	0.861131	-0.512033	-1.020070
C175	C	0.861116	-0.512046	-0.935525
C176	C	0.912906	-0.464438	-0.893281
H177	H	1.003074	-0.381551	-1.051436
H178	H	0.912946	-0.464403	-1.124952
H179	H	0.822793	-0.547276	-1.051342
H180	H	0.822766	-0.547299	-0.904211
H181	H	0.912894	-0.464448	-0.830695
H182	H	1.149022	-0.939459	-0.269292
H183	H	0.978071	-0.711965	-0.439876
