data_functionalizedCrystal
_audit_creation_method	'MofGen! by Chris Wilmer'
_symmetry_space_group_name_H-M	'P1'
_symmetry_Int_Tables_number	1
_symmetry_cell_setting	triclinic
loop_
_symmetry_equiv_pos_as_xyz
  x,y,z
_cell_length_a	17.038272
_cell_length_b	17.019294
_cell_length_c	9.482900
_cell_angle_alpha	95.509088
_cell_angle_beta	80.035009
_cell_angle_gamma	87.244363
loop_
_atom_site_label
_atom_site_type_symbol
_atom_site_fract_x
_atom_site_fract_y
_atom_site_fract_z
O1	O	1.051395	0.157886	-0.140473
O2	O	0.823737	0.155195	-0.140179
O3	O	0.942487	0.043485	-0.126165
O4	O	0.932645	0.269596	-0.154487
O5	O	0.918367	0.066273	0.112769
O6	O	0.799617	0.177983	0.098755
O7	O	1.027275	0.180675	0.098461
Cu8	Cu	0.911244	0.181410	0.120424
Cu9	Cu	0.939768	0.154460	-0.162142
O10	O	0.908525	0.292385	0.084447
C11	C	0.782520	0.164144	-0.020411
C12	C	0.695643	0.156849	-0.019514
C13	C	0.646317	0.223809	-0.027900
C14	C	0.564684	0.216954	-0.027022
C15	C	0.532379	0.143136	-0.017767
C16	C	0.581711	0.076171	-0.009376
C17	C	0.663342	0.083029	-0.010245
C18	C	0.286332	0.118912	-0.014694
C19	C	0.204696	0.112059	-0.013830
C20	C	0.187674	0.252842	-0.031473
C21	C	0.269308	0.259692	-0.032350
C22	C	0.318632	0.192728	-0.023951
C23	C	0.448938	0.136127	-0.016873
C24	C	0.402071	0.199739	-0.024835
C25	C	0.929578	0.025805	-0.003060
C26	C	0.927039	-0.060829	0.007781
C27	C	0.938996	-0.113946	-0.117367
C28	C	0.936605	-0.195347	-0.107177
C29	C	0.922263	-0.223628	0.028164
C30	C	0.910304	-0.170504	0.153322
C31	C	0.912689	-0.089105	0.143130
C32	C	0.914399	-0.468779	0.065454
C33	C	0.912017	-0.550185	0.075637
C34	C	0.938317	-0.575023	-0.184863
C35	C	0.940706	-0.493621	-0.195044
C36	C	0.928742	-0.440504	-0.069886
C37	C	0.919822	-0.306832	0.038584
C38	C	0.931178	-0.357301	-0.080307
C39	C	1.068492	0.171725	-0.021310
C40	C	1.155370	0.179019	-0.022216
C41	C	0.921434	0.310065	-0.038662
C42	C	0.923973	0.396697	-0.049512
N43	N	0.891187	0.200365	0.319167
N44	N	0.959831	0.135499	-0.360884
C45	C	0.933847	0.160046	0.396424
C46	C	0.917165	0.175823	0.561862
H47	H	0.524526	0.271480	-0.033852
H48	H	0.946345	-0.238593	-0.209086
H49	H	0.908147	-0.329868	0.148779
C50	C	0.825158	0.262775	0.395267
N51	N	0.775423	0.309784	0.452584
H52	H	0.555400	0.016069	-0.001820
C53	C	0.956483	-0.462519	-0.343929
N54	N	0.968370	-0.439093	-0.456072
C55	C	0.717601	0.009366	-0.001023
N56	N	0.758468	-0.046118	0.005926
C57	C	0.304834	0.340899	-0.042508
N58	N	0.331592	0.402066	-0.050156
C59	C	0.681844	0.305015	-0.038079
N60	N	0.708599	0.366182	-0.045739
C61	C	1.025864	0.073086	0.563025
N62	N	1.075602	0.026079	0.505711
H63	H	0.948056	-0.618279	-0.286760
C64	C	0.894522	-0.201616	0.302199
N65	N	0.882636	-0.225048	0.414336
C66	C	0.899538	-0.030675	0.280804
N67	N	0.889630	0.013334	0.384505
C68	C	0.896236	-0.581291	0.224529
N69	N	0.884351	-0.604721	0.336668
H70	H	0.868286	0.222022	0.618191
C71	C	0.437609	0.280936	-0.035015
N72	N	0.464384	0.342094	-0.042689
C73	C	0.133410	0.326499	-0.040693
N74	N	0.092537	0.381982	-0.047630
H75	H	0.326482	0.064384	-0.007854
C76	C	0.901241	-0.410360	0.203133
N77	N	0.891331	-0.366356	0.306840
C78	C	0.413395	0.054928	-0.006703
N79	N	0.386621	-0.006231	0.000958
C80	C	0.169163	0.030850	-0.003650
N81	N	0.142400	-0.030313	0.004013
C82	C	0.946958	-0.326189	-0.229178
N83	N	0.958849	-0.302748	-0.341308
H84	H	0.950679	-0.090927	-0.227577
H85	H	0.982717	0.113844	0.340092
