data_functionalizedCrystal
_audit_creation_method	'MofGen! by Chris Wilmer'
_symmetry_space_group_name_H-M	'P1'
_symmetry_Int_Tables_number	1
_symmetry_cell_setting	triclinic
loop_
_symmetry_equiv_pos_as_xyz
  x,y,z
_cell_length_a	18.101398
_cell_length_b	19.120786
_cell_length_c	18.101389
_cell_angle_alpha	92.460644
_cell_angle_beta	90.024327
_cell_angle_gamma	92.460164
loop_
_atom_site_label
_atom_site_type_symbol
_atom_site_fract_x
_atom_site_fract_y
_atom_site_fract_z
Zn1	Zn	1.119565	-0.279790	0.406239
Zn2	Zn	1.114191	-0.397230	0.277109
Zn3	Zn	0.995724	-0.279782	0.282401
Zn4	Zn	0.990406	-0.397200	0.400899
O5	O	1.054972	-0.338501	0.341662
O6	O	1.222484	-0.295384	0.389130
O7	O	1.098453	-0.381660	0.174178
O8	O	1.016627	-0.181494	0.303278
O9	O	1.218536	-0.381667	0.294259
O10	O	1.107612	-0.181499	0.394261
O11	O	1.011416	-0.295372	0.178066
O12	O	0.891387	-0.295342	0.298100
O13	O	1.007563	-0.381616	0.505241
O14	O	0.887479	-0.381609	0.385160
O15	O	1.102455	-0.295355	0.509164
O16	O	1.093295	-0.495516	0.289081
O17	O	1.002351	-0.495494	0.380029
C18	C	0.862562	-0.338472	0.341625
C19	C	0.780248	-0.338477	0.341626
C20	C	0.481155	-0.338521	0.341686
C21	C	0.514926	-0.283973	0.287201
C22	C	0.600538	-0.284119	0.286952
C23	C	0.629539	-0.338498	0.341656
C24	C	0.595100	-0.412484	0.317000
C25	C	0.509469	-0.412181	0.316618
C26	C	0.513613	-0.319726	0.420932
C27	C	0.599338	-0.318078	0.420578
C28	C	0.713398	-0.338490	0.341640
C29	C	0.397295	-0.338534	0.341700
C30	C	1.046683	-0.520990	0.333418
C31	C	1.043205	-0.599060	0.329915
C32	C	1.088907	-0.635679	0.375679
C33	C	1.085636	-0.709034	0.372389
C34	C	1.036666	-0.745768	0.323332
C35	C	0.990959	-0.709143	0.277567
C36	C	0.994227	-0.635790	0.280860
C37	C	1.024428	-0.967251	0.311018
C38	C	1.021165	-1.040609	0.307726
C39	C	1.115841	-1.040495	0.402550
C40	C	1.119108	-0.967141	0.405836
C41	C	1.073398	-0.930522	0.360074
C42	C	1.033323	-0.820748	0.319966
C43	C	1.076738	-0.855543	0.363443
C44	C	1.248132	-0.338530	0.341700
C45	C	1.330446	-0.338542	0.341716
C46	C	1.055015	-0.338483	0.534825
C47	C	1.055034	-0.338475	0.617140
C48	C	1.063313	-0.155299	0.349956
C49	C	1.066867	-0.077229	0.353490
C50	C	1.054973	-0.338468	0.149253
C51	C	1.055107	-0.338277	0.066948
C52	C	1.055083	-0.338344	0.916237
C53	C	0.995189	-0.392444	0.882451
C54	C	0.995333	-0.392695	0.796821
C55	C	1.055058	-0.338409	0.767851
C56	C	1.132181	-0.358507	0.798052
C57	C	1.131845	-0.358862	0.883681
C58	C	1.038537	-0.264025	0.888008
C59	C	1.036781	-0.264454	0.802337
C60	C	1.055049	-0.338445	0.683990
C61	C	1.055097	-0.338310	1.000098
H62	H	0.619090	-0.354914	0.463618
H63	H	1.077487	-0.222006	0.782865
O64	O	0.482009	-0.433288	0.239748
H65	H	0.450302	-0.390306	0.217738
O66	O	1.134929	-0.748529	0.421751
H67	H	1.171132	-0.781943	0.387144
O68	O	1.171949	-0.927520	0.458724
H69	H	1.203185	-0.965308	0.489989
O70	O	0.488199	-0.249504	0.449773
H71	H	0.511827	-0.237457	0.505699
O72	O	0.622504	-0.433970	0.240936
H73	H	0.597775	-0.486366	0.224116
H74	H	1.005728	-0.447195	0.901511
O75	O	1.096367	-0.210626	0.917270
H76	H	1.136703	-0.236845	0.951754
O77	O	1.192698	-0.307966	0.773370
H78	H	1.168389	-0.267892	0.739233
O79	O	0.938150	-0.748758	0.224643
H80	H	0.943563	-0.805918	0.230031
O81	O	0.919441	-0.376025	0.769716
H82	H	0.896837	-0.420353	0.733764
H83	H	0.993454	-0.850665	0.280022
O84	O	0.919051	-0.375957	0.910448
H85	H	0.923081	-0.329031	0.948748
H86	H	0.613592	-0.454215	0.355296
H87	H	0.980042	-0.249298	0.782688
O88	O	0.479513	-0.467831	0.366654
H89	H	0.526196	-0.494845	0.391010
H90	H	0.983451	-0.245715	0.910418
O91	O	1.151703	-0.429708	0.766455
H92	H	1.106602	-0.450896	0.729246
H93	H	1.005987	-0.447783	0.773858
O94	O	1.150927	-0.430828	0.906916
H95	H	1.206578	-0.443243	0.885674
O96	O	0.631680	-0.211443	0.307905
H97	H	0.585586	-0.175875	0.318307
H98	H	0.496825	-0.228942	0.302899
O99	O	0.485663	-0.300258	0.209964
H100	H	0.424532	-0.297575	0.210024
H101	H	0.622125	-0.263633	0.439109
H102	H	0.981285	-1.070516	0.267777
O103	O	0.626905	-0.300543	0.209256
H104	H	0.578486	-0.308423	0.171717
H105	H	1.116606	-0.825632	0.403389
O106	O	0.484417	-0.372344	0.474769
H107	H	0.446971	-0.411694	0.445276
H108	H	1.153054	-1.070318	0.439808
O109	O	0.975145	-0.927758	0.261648
H110	H	0.940556	-0.965628	0.226974
O111	O	1.141731	-0.596060	0.428584
H112	H	1.172958	-0.633851	0.459855
H113	H	1.177804	-0.321168	0.906119
H114	H	0.957011	-0.605975	0.243596
