data_functionalizedCrystal
_audit_creation_method	'MofGen! by Chris Wilmer'
_symmetry_space_group_name_H-M	'P1'
_symmetry_Int_Tables_number	1
_symmetry_cell_setting	triclinic
loop_
_symmetry_equiv_pos_as_xyz
  x,y,z
_cell_length_a	17.019372
_cell_length_b	12.837942
_cell_length_c	15.500235
_cell_angle_alpha	86.858894
_cell_angle_beta	91.043238
_cell_angle_gamma	90.902748
loop_
_atom_site_label
_atom_site_type_symbol
_atom_site_fract_x
_atom_site_fract_y
_atom_site_fract_z
O1	O	1.056284	-0.132463	0.006682
O2	O	1.389617	0.200870	0.340016
O3	O	1.722950	0.534203	0.673349
O4	O	0.828663	-0.148172	-0.010263
O5	O	1.161996	0.185162	0.323071
O6	O	1.495330	0.518495	0.656404
O7	O	0.937426	0.010602	-0.002161
O8	O	1.270759	0.343936	0.331173
O9	O	1.604093	0.677269	0.664506
O10	O	0.947521	-0.291238	-0.001420
O11	O	1.280854	0.042096	0.331914
O12	O	1.614187	0.375429	0.665247
O13	O	0.930854	0.000971	0.141238
O14	O	1.264187	0.334304	0.474572
O15	O	1.597521	0.667637	0.807905
O16	O	0.822091	-0.157803	0.133136
O17	O	1.155424	0.175530	0.466470
O18	O	1.488758	0.508863	0.799803
O19	O	1.049712	-0.142095	0.150081
O20	O	1.383045	0.191238	0.483415
O21	O	1.716378	0.524572	0.816748
Cu22	Cu	0.935301	-0.150829	0.154702
Cu23	Cu	1.268635	0.182505	0.488036
Cu24	Cu	1.601968	0.515838	0.821369
Cu25	Cu	0.943073	-0.139438	-0.014884
Cu26	Cu	1.276407	0.193895	0.318450
Cu27	Cu	1.609740	0.527229	0.651783
O28	O	0.940949	-0.300869	0.141979
O29	O	1.274282	0.032464	0.475313
O30	O	1.607615	0.365797	0.808646
C31	C	0.796040	-0.152203	0.059253
C32	C	1.129374	0.181130	0.392586
C33	C	1.462707	0.514463	0.725920
C34	C	0.708625	-0.149854	0.052746
C35	C	1.041959	0.183479	0.386079
C36	C	1.375292	0.516813	0.719412
C37	C	0.930730	0.044419	0.069285
C38	C	1.264063	0.377752	0.402618
C39	C	1.597396	0.711086	0.735951
C40	C	0.920559	0.159532	0.068526
C41	C	1.253893	0.492865	0.401859
C42	C	1.587226	0.826198	0.735193
C43	C	0.214406	-0.136266	0.011962
C44	C	0.547740	0.197068	0.345295
C45	C	0.881073	0.530401	0.678629
C46	C	0.296542	-0.138474	0.018088
C47	C	0.629875	0.194859	0.351421
C48	C	0.963208	0.528193	0.684755
C49	C	0.334019	-0.144836	0.099318
C50	C	0.667352	0.188497	0.432652
C51	C	1.000685	0.521831	0.765985
C52	C	0.289356	-0.148980	0.174428
C53	C	0.622689	0.184354	0.507761
C54	C	0.956023	0.517687	0.841094
C55	C	0.207223	-0.146764	0.168301
C56	C	0.540556	0.186569	0.501634
C57	C	0.873889	0.519903	0.834968
C58	C	0.581829	-0.151782	0.121728
C59	C	0.915163	0.181551	0.455061
C60	C	1.248496	0.514885	0.788395
C61	C	0.663969	-0.154000	0.127849
C62	C	0.997302	0.179333	0.461183
C63	C	1.330635	0.512666	0.794516
C64	C	0.671149	-0.143493	-0.028491
C65	C	1.004482	0.189841	0.304842
C66	C	1.337815	0.523174	0.638175
C67	C	0.589013	-0.141284	-0.034611
C68	C	0.922346	0.192050	0.298722
C69	C	1.255680	0.525383	0.632056
C70	C	0.544358	-0.145422	0.040498
C71	C	0.877691	0.187911	0.373832
C72	C	1.211025	0.521245	0.707165
C73	C	0.417974	-0.147097	0.105582
C74	C	0.751307	0.186237	0.438916
C75	C	1.084640	0.519570	0.772249
C76	C	0.460404	-0.143154	0.034234
C77	C	0.793738	0.190179	0.367567
C78	C	1.127071	0.523513	0.700900
C79	C	1.082334	-0.138063	0.080564
C80	C	1.415668	0.195270	0.413897
C81	C	1.749001	0.528603	0.747231
C82	C	1.169750	-0.140412	0.087066
C83	C	1.503083	0.192921	0.420399
C84	C	1.836416	0.526254	0.753732
N85	N	0.929840	-0.158840	0.273980
N86	N	1.263174	0.174494	0.607314
N87	N	1.596507	0.507827	0.940647
C88	C	0.947645	-0.334686	0.070532
C89	C	1.280978	-0.001352	0.403866
C90	C	1.614312	0.331981	0.737199
C91	C	0.957816	-0.449798	0.071285
C92	C	1.291149	-0.116465	0.404618
C93	C	1.624482	0.216869	0.737952
C94	C	1.042828	0.400066	0.077610
C95	C	1.376161	0.733399	0.410943
C96	C	1.709494	1.066732	0.744277
C97	C	1.033275	0.508225	0.076898
C98	C	1.366609	0.841558	0.410231
C99	C	1.699942	1.174892	0.743564
C100	C	0.891904	0.484012	0.066382
C101	C	1.225237	0.817345	0.399716
C102	C	1.558570	1.150678	0.733049
C103	C	0.901456	0.375853	0.067095
C104	C	1.234789	0.709186	0.400428
C105	C	1.568123	1.042519	0.733762
C106	C	0.976920	0.333884	0.072710
C107	C	1.310253	0.667217	0.406044
C108	C	1.643587	1.000550	0.739377
C109	C	0.986472	0.225722	0.073429
C110	C	1.319805	0.559055	0.406762
C111	C	1.653138	0.892389	0.740096
C112	C	0.845101	0.201511	0.062908
C113	C	1.178434	0.534845	0.396241
C114	C	1.511767	0.868178	0.729574
C115	C	0.835548	0.309671	0.062195
C116	C	1.168882	0.643004	0.395528
C117	C	1.502215	0.976337	0.728862
N118	N	0.948540	-0.131419	-0.134161
N119	N	1.281873	0.201914	0.199172
N120	N	1.615207	0.535248	0.532506
C121	C	0.902440	-0.198680	0.817127
C122	C	1.235774	0.134654	1.150460
C123	C	1.569107	0.467987	1.483794
C124	C	0.906589	-0.192641	0.726863
C125	C	1.239922	0.140692	1.060197
C126	C	1.573256	0.474026	1.393530
C127	C	0.956842	-0.119346	0.685314
C128	C	1.290175	0.213987	1.018647
C129	C	1.623508	0.547320	1.351980
C130	C	1.002943	-0.052079	0.734032
C131	C	1.336276	0.281255	1.067365
C132	C	1.669610	0.614588	1.400699
C133	C	0.998790	-0.058113	0.824294
C134	C	1.332123	0.275220	1.157627
C135	C	1.665457	0.608554	1.490960
C136	C	0.971788	-0.097606	0.412960
C137	C	1.305122	0.235727	0.746294
C138	C	1.638455	0.569061	1.079627
C139	C	0.975940	-0.091579	0.322692
C140	C	1.309273	0.241754	0.656026
C141	C	1.642607	0.575088	0.989359
C142	C	0.879584	-0.232141	0.315530
C143	C	1.212918	0.101193	0.648863
C144	C	1.546251	0.434526	0.982196
C145	C	0.875439	-0.238173	0.405794
C146	C	1.208772	0.095161	0.739127
C147	C	1.542106	0.428494	1.072460
C148	C	0.921537	-0.170902	0.454504
C149	C	1.254870	0.162432	0.787837
C150	C	1.588204	0.495765	1.121171
C151	C	0.961085	-0.113174	0.593050
C152	C	1.294419	0.220159	0.926383
C153	C	1.627752	0.553492	1.259716
C154	C	0.917289	-0.177069	0.546766
C155	C	1.250622	0.156264	0.880099
C156	C	1.583956	0.489597	1.213432
H157	H	0.183899	-0.131093	-0.054185
H158	H	0.517232	0.202241	0.279148
H159	H	0.850565	0.535574	0.612482
H160	H	0.332898	-0.135091	-0.043070
H161	H	0.666231	0.198242	0.290264
H162	H	0.999564	0.531576	0.623597
H163	H	1.104273	0.365894	0.082191
H164	H	1.437606	0.699227	0.415524
H165	H	1.770940	1.032561	0.748857
H166	H	0.876370	-0.236742	0.580598
H167	H	1.209703	0.096591	0.913931
H168	H	1.543036	0.429924	1.247264
H169	H	1.047918	0.191553	0.078004
H170	H	1.381252	0.524886	0.411338
H171	H	1.714585	0.858220	0.744671
H172	H	0.842052	-0.286909	0.275862
H173	H	1.175386	0.046425	0.609195
H174	H	1.508719	0.379758	0.942528
H175	H	1.086944	0.562108	0.080885
H176	H	1.420278	0.895441	0.414218
H177	H	1.753611	1.228774	0.747552
H178	H	0.774107	0.343857	0.057620
H179	H	1.107441	0.677190	0.390953
H180	H	1.440774	1.010524	0.724286
H181	H	0.830464	0.518203	0.061801
H182	H	1.163798	0.851536	0.395135
H183	H	1.497131	1.184870	0.728468
H184	H	0.791434	0.147613	0.058925
H185	H	1.124767	0.480946	0.392258
H186	H	1.458101	0.814280	0.725591
H187	H	0.448497	-0.152278	0.171720
H188	H	0.781830	0.181055	0.505054
H189	H	1.115163	0.514388	0.838387
H190	H	1.016865	-0.031890	0.288867
H191	H	1.350198	0.301443	0.622201
H192	H	1.683532	0.634776	0.955534
H193	H	0.861523	-0.258368	0.850951
H194	H	1.194856	0.074965	1.184284
H195	H	1.528189	0.408299	1.517617
H196	H	0.869050	-0.247409	0.687202
H197	H	1.202384	0.085924	1.020535
H198	H	1.535717	0.419258	1.353869
H199	H	0.834519	-0.297855	0.439621
H200	H	1.167852	0.035478	0.772955
H201	H	1.501186	0.368811	1.106288
H202	H	1.009325	-0.042833	0.452614
H203	H	1.342659	0.290500	0.785947
H204	H	1.675992	0.623834	1.119280
H205	H	0.707515	-0.140122	-0.089641
H206	H	1.040849	0.193211	0.243692
H207	H	1.374182	0.526544	0.577026
H208	H	1.002004	-0.053498	0.559213
H209	H	1.335337	0.279835	0.892546
H210	H	1.668671	0.613169	1.225879
H211	H	1.043857	0.007605	0.700197
H212	H	1.377191	0.340938	1.033530
H213	H	1.710524	0.674272	1.366864
H214	H	1.036328	-0.003341	0.863954
H215	H	1.369661	0.329992	1.197288
H216	H	1.702995	0.663326	1.530621
H217	H	0.558505	-0.136102	-0.100758
H218	H	0.891839	0.197231	0.232576
H219	H	1.225172	0.530565	0.565909
H220	H	0.545481	-0.155136	0.182888
H221	H	0.878814	0.178197	0.516221
H222	H	1.212148	0.511530	0.849554
H223	H	0.694480	-0.159188	0.194000
H224	H	1.027813	0.174145	0.527334
H225	H	1.361146	0.507478	0.860667
H226	H	0.170864	-0.150151	0.229459
H227	H	0.504197	0.183182	0.562792
H228	H	0.837530	0.516516	0.896125
H229	H	0.319877	-0.154153	0.240568
H230	H	0.653210	0.179180	0.573901
H231	H	0.986543	0.512514	0.907234
H232	H	0.429887	-0.137970	-0.031904
H233	H	0.763220	0.195363	0.301430
H234	H	1.096554	0.528697	0.634763
