data_functionalizedCrystal
_audit_creation_method	'MofGen! by Chris Wilmer'
_symmetry_space_group_name_H-M	'P1'
_symmetry_Int_Tables_number	1
_symmetry_cell_setting	triclinic
loop_
_symmetry_equiv_pos_as_xyz
  x,y,z
_cell_length_a	16.974755
_cell_length_b	14.971482
_cell_length_c	13.448316
_cell_angle_alpha	90.007954
_cell_angle_beta	93.659118
_cell_angle_gamma	83.499692
loop_
_atom_site_label
_atom_site_type_symbol
_atom_site_fract_x
_atom_site_fract_y
_atom_site_fract_z
O1	O	0.103025	1.186693	0.090973
O2	O	0.603025	1.686693	0.590973
O3	O	0.115368	0.926262	0.091972
O4	O	0.615368	1.426262	0.591972
O5	O	-0.005902	1.063746	0.082200
O6	O	0.494098	1.563746	0.582200
O7	O	0.224294	1.049209	0.100745
O8	O	0.724294	1.549209	0.600745
O9	O	-0.005899	1.063723	-0.083184
O10	O	0.494101	1.563723	0.416816
O11	O	0.115371	0.926239	-0.073412
O12	O	0.615371	1.426239	0.426588
O13	O	0.103028	1.186670	-0.074410
O14	O	0.603028	1.686670	0.425590
Cu15	Cu	0.109200	1.056452	-0.089012
Cu16	Cu	0.609200	1.556452	0.410988
Cu17	Cu	0.109196	1.056480	0.106573
Cu18	Cu	0.609196	1.556480	0.606573
O19	O	0.224297	1.049186	-0.064638
O20	O	0.724297	1.549186	0.435362
C21	C	0.114818	0.892927	0.009236
C22	C	0.614818	1.392927	0.509236
C23	C	0.113165	0.793634	0.009105
C24	C	0.613165	1.293634	0.509105
C25	C	0.112389	0.746978	-0.081110
C26	C	0.612389	1.246978	0.418890
C27	C	0.110823	0.653684	-0.081237
C28	C	0.610823	1.153684	0.418763
C29	C	0.110040	0.607046	0.008852
C30	C	0.610040	1.107046	0.508852
C31	C	0.110814	0.653708	0.099073
C32	C	0.610814	1.153708	0.599073
C33	C	0.112374	0.747001	0.099199
C34	C	0.612374	1.247001	0.599199
C35	C	0.107565	0.459254	0.098805
C36	C	0.607565	0.959254	0.598805
C37	C	0.106007	0.365954	0.098680
C38	C	0.606007	0.865954	0.598680
C39	C	0.106014	0.365936	-0.081631
C40	C	0.606014	0.865936	0.418369
C41	C	0.107574	0.459230	-0.081505
C42	C	0.607574	0.959230	0.418495
C43	C	0.108350	0.505886	0.008717
C44	C	0.608350	1.005886	0.508717
C45	C	-0.035359	1.063185	-0.002863
C46	C	0.464641	1.563185	0.497137
C47	C	-0.123139	1.061534	-0.009929
C48	C	0.376861	1.561534	0.490071
C49	C	-0.617236	1.052164	-0.059336
C50	C	-0.117236	1.552164	0.440664
C51	C	-0.534758	1.053723	-0.052702
C52	C	-0.034758	1.553723	0.447298
C53	C	-0.493514	1.054522	0.040767
C54	C	0.006486	1.554522	0.540767
C55	C	-0.534749	1.053753	0.127609
C56	C	-0.034749	1.553753	0.627609
C57	C	-0.617224	1.052187	0.120974
C58	C	-0.117224	1.552187	0.620974
C59	C	-0.246849	1.059200	0.070278
C60	C	0.253151	1.559200	0.570278
C61	C	-0.164369	1.060768	0.076906
C62	C	0.335631	1.560768	0.576906
C63	C	-0.164384	1.060736	-0.103406
C64	C	0.335616	1.560736	0.396594
C65	C	-0.246861	1.059176	-0.110033
C66	C	0.253139	1.559176	0.389967
C67	C	-0.288088	1.058403	-0.023191
C68	C	0.211912	1.558403	0.476809
N69	N	-0.409209	1.056119	0.047551
N70	N	0.090791	1.556119	0.547551
N71	N	-0.372391	1.056800	-0.029975
N72	N	0.127609	1.556800	0.470025
C73	C	0.253755	1.049747	0.020427
C74	C	0.753755	1.549747	0.520427
C75	C	0.341534	1.051398	0.027499
C76	C	0.841534	1.551398	0.527499
C77	C	0.103578	1.220005	0.008327
C78	C	0.603578	1.720005	0.508327
C79	C	0.105230	1.319298	0.008465
C80	C	0.605230	1.819298	0.508465
N81	N	0.109202	1.056440	-0.226576
N82	N	0.609202	1.556440	0.273424
C83	C	0.055511	1.117386	-0.708121
C84	C	0.555511	1.617386	-0.208121
C85	C	0.055517	1.117379	-0.604017
C86	C	0.555517	1.617379	-0.104017
C87	C	0.109195	1.056480	-0.547658
C88	C	0.609195	1.556480	-0.047658
C89	C	0.162877	0.995590	-0.595407
C90	C	0.662877	1.495590	-0.095407
C91	C	0.162875	0.995602	-0.699509
C92	C	0.662875	1.495602	-0.199509
C93	C	0.162876	0.995567	-0.378427
C94	C	0.662876	1.495567	0.121573
C95	C	0.162878	0.995553	-0.274318
C96	C	0.662878	1.495553	0.225682
C97	C	0.055518	1.117343	-0.282936
C98	C	0.555518	1.617343	0.217064
C99	C	0.055516	1.117356	-0.387037
C100	C	0.555516	1.617356	0.112963
C101	C	0.109197	1.056465	-0.434779
C102	C	0.609197	1.556465	0.065221
N103	N	0.109188	1.056500	0.244137
N104	N	0.609188	1.556500	0.744137
H105	H	0.113033	0.784944	-0.154470
H106	H	0.613033	1.284944	0.345530
H107	H	0.108217	0.497200	-0.154863
H108	H	0.608217	0.997200	0.345137
H109	H	0.206589	0.945963	-0.228435
H110	H	0.706589	1.445963	0.271565
Br111	Br	0.109717	0.590419	0.221335
Br112	Br	0.609717	1.090419	0.721335
Br113	Br	-0.108427	1.061784	-0.221256
Br114	Br	0.391573	1.561784	0.278744
H115	H	-0.650811	1.051517	-0.135450
H116	H	-0.150811	1.551517	0.364550
H117	H	-0.650792	1.051558	0.191685
H118	H	-0.150792	1.551558	0.691685
H119	H	0.206592	0.945985	-0.417294
H120	H	0.706592	1.445985	0.082706
Br121	Br	0.108614	0.522572	0.221249
Br122	Br	0.608614	1.022572	0.721249
Br123	Br	0.104965	0.302619	-0.204074
Br124	Br	0.604965	0.802619	0.295926
Br125	Br	-0.302830	1.058092	-0.236889
Br126	Br	0.197170	1.558092	0.263111
H127	H	-0.130790	1.061418	0.153024
H128	H	0.369210	1.561418	0.653024
Br129	Br	-0.302792	1.058156	0.188135
Br130	Br	0.197208	1.558156	0.688135
H131	H	-0.501161	1.054399	0.203714
H132	H	-0.001161	1.554399	0.703714
H133	H	0.206587	0.946007	-0.549513
H134	H	0.706587	1.446007	-0.049513
H135	H	0.110178	0.615703	-0.154700
H136	H	0.610178	1.115703	0.345300
H137	H	0.011797	1.166974	-0.754003
H138	H	0.511797	1.666974	-0.254003
H139	H	0.011810	1.166958	-0.565146
H140	H	0.511810	1.666958	-0.065146
Br141	Br	0.235729	0.912972	-0.764301
Br142	Br	0.735729	1.412972	-0.264301
H143	H	0.105370	0.327983	0.172038
H144	H	0.605370	0.827983	0.672038
Br145	Br	-0.017339	1.199997	-0.463529
Br146	Br	0.482661	1.699997	0.036471
Br147	Br	-0.478803	1.054739	-0.170555
Br148	Br	0.021197	1.554739	0.329445
Br149	Br	-0.017336	1.199976	-0.218141
Br150	Br	0.482664	1.699976	0.281859
Br151	Br	0.113421	0.810322	0.221637
Br152	Br	0.613421	1.310322	0.721637
