data_functionalizedCrystal
_audit_creation_method	'MofGen! by Chris Wilmer'
_symmetry_space_group_name_H-M	'P1'
_symmetry_Int_Tables_number	1
_symmetry_cell_setting	triclinic
loop_
_symmetry_equiv_pos_as_xyz
  x,y,z
_cell_length_a	13.033293
_cell_length_b	21.295417
_cell_length_c	13.032268
_cell_angle_alpha	97.141788
_cell_angle_beta	89.079182
_cell_angle_gamma	97.198682
loop_
_atom_site_label
_atom_site_type_symbol
_atom_site_fract_x
_atom_site_fract_y
_atom_site_fract_z
Zn1	Zn	1.498398	-0.195847	-0.781445
Zn2	Zn	1.520112	-0.286310	-0.609455
Zn3	Zn	1.348260	-0.192522	-0.587621
Zn4	Zn	1.326354	-0.312551	-0.759490
O5	O	1.423281	-0.246808	-0.684503
O6	O	1.645201	-0.198256	-0.776956
O7	O	1.515570	-0.261495	-0.462652
O8	O	1.368256	-0.104872	-0.613383
O9	O	1.661153	-0.264718	-0.650595
O10	O	1.478563	-0.107314	-0.755785
O11	O	1.389311	-0.192590	-0.446611
O12	O	1.201432	-0.218036	-0.592094
O13	O	1.330921	-0.309444	-0.906308
O14	O	1.185338	-0.306220	-0.718365
O15	O	1.457322	-0.223701	-0.922439
O16	O	1.494329	-0.377882	-0.629306
O17	O	1.351976	-0.397162	-0.739536
C18	C	1.156068	-0.264615	-0.650479
C19	C	1.041749	-0.272251	-0.635948
C20	C	0.982877	-0.242838	-0.692086
C21	C	0.864723	-0.250729	-0.677069
C22	C	1.423156	-0.410363	-0.684434
C23	C	1.423193	-0.480330	-0.684451
C24	C	1.480586	-0.514418	-0.758642
C25	C	1.480619	-0.580160	-0.758672
C26	C	1.423272	-0.611810	-0.684494
C27	C	1.365867	-0.577715	-0.610297
C28	C	1.365828	-0.511975	-0.610276
N29	N	1.426941	-0.707836	-0.593510
N30	N	1.426984	-0.770286	-0.593534
C31	C	1.423386	-0.809880	-0.684556
N32	N	1.419763	-0.784665	-0.775557
N33	N	1.419726	-0.722208	-0.775532
C34	C	1.423308	-0.683094	-0.684509
C35	C	1.480818	-0.915254	-0.758785
C36	C	1.480844	-0.980998	-0.758816
C37	C	1.366099	-0.978550	-0.610433
C38	C	1.366066	-0.912808	-0.610410
C39	C	1.423432	-0.881164	-0.684586
C40	C	1.691538	-0.228931	-0.718660
C41	C	1.805853	-0.221313	-0.733216
C42	C	1.389256	-0.269871	-0.952730
C43	C	1.374756	-0.279699	-1.067032
C44	C	1.423431	-0.082613	-0.684598
C45	C	1.423495	-0.012643	-0.684638
C46	C	1.430832	-0.241657	-1.125973
C47	C	1.415848	-0.251814	-1.244111
C48	C	1.457233	-0.223785	-0.417326
C49	C	1.471932	-0.213766	-0.303050
H50	H	0.842917	-0.190283	-0.792396
O51	O	1.296465	-0.332801	-1.116034
H52	H	1.218345	-0.325624	-1.085209
H53	H	1.004680	-0.303273	-0.576765
O54	O	1.304169	-0.876039	-0.530380
H55	H	1.313769	-0.825010	-0.542831
H56	H	1.356735	-0.291901	-1.281105
H57	H	1.019948	-0.211813	-0.751263
O58	O	0.815637	-0.291822	-0.598663
H59	H	0.833957	-0.341386	-0.618734
O60	O	1.542475	-0.480282	-0.838625
H61	H	1.582394	-0.515034	-0.890217
H62	H	1.527345	-0.607921	-0.819097
H63	H	1.319173	-0.603488	-0.549903
H64	H	1.489931	-0.201566	-1.088973
O65	O	1.303939	-0.475200	-0.530241
H66	H	1.264072	-0.508249	-0.478658
O67	O	1.550233	-0.160660	-1.254063
H68	H	1.549725	-0.161018	-1.168962
H69	H	1.527579	-1.008751	-0.819235
O70	O	1.542681	-0.881116	-0.838786
H71	H	1.514741	-0.901833	-0.917233
O72	O	1.304249	-1.012675	-0.530418
H73	H	1.313923	-1.064114	-0.542891
