data_functionalizedCrystal
_audit_creation_method	'MofGen! by Chris Wilmer'
_symmetry_space_group_name_H-M	'P1'
_symmetry_Int_Tables_number	1
_symmetry_cell_setting	triclinic
loop_
_symmetry_equiv_pos_as_xyz
  x,y,z
_cell_length_a	11.026607
_cell_length_b	19.288865
_cell_length_c	17.766277
_cell_angle_alpha	90.011603
_cell_angle_beta	89.992612
_cell_angle_gamma	84.138868
loop_
_atom_site_label
_atom_site_type_symbol
_atom_site_fract_x
_atom_site_fract_y
_atom_site_fract_z
O1	O	1.608583	-0.290662	-0.062613
O2	O	1.255458	-0.257564	-0.062613
O3	O	1.442224	-0.174277	-0.062598
O4	O	1.421817	-0.373949	-0.062628
O5	O	1.442191	-0.174267	0.062591
O6	O	1.255425	-0.257555	0.062575
O7	O	1.608550	-0.290652	0.062576
Cu8	Cu	1.431984	-0.274102	0.074006
Cu9	Cu	1.432023	-0.274114	-0.074044
O10	O	1.421784	-0.373940	0.062561
C11	C	1.210264	-0.251454	-0.000019
C12	C	1.075649	-0.233252	-0.000018
C13	C	1.441551	-0.148312	-0.000001
C14	C	1.439580	-0.070959	0.000005
C15	C	1.653744	-0.296763	-0.000020
C16	C	1.788358	-0.314964	-0.000026
C17	C	1.862439	-0.264706	-0.000019
C18	C	2.001570	-0.283517	-0.000025
C19	C	1.422457	-0.399904	-0.000037
C20	C	1.424428	-0.477258	-0.000049
N21	N	1.431966	-0.274095	0.178137
C22	C	1.549166	-0.040161	0.000009
C23	C	1.547314	0.032521	-0.000003
C24	C	1.435870	0.074403	-0.000003
C25	C	1.326269	0.043597	-0.000012
C26	C	1.328124	-0.029084	-0.000007
C27	C	1.348250	0.193805	0.043847
C28	C	1.346400	0.266484	0.043847
C29	C	1.430144	0.298575	-0.000020
C30	C	1.515759	0.257976	-0.043879
C31	C	1.517614	0.185296	-0.043874
C32	C	1.433846	0.153213	-0.000009
C33	C	1.537729	0.408182	-0.000030
C34	C	1.535873	0.480866	-0.000047
C35	C	1.314825	0.491940	-0.000048
C36	C	1.316685	0.419258	-0.000039
C37	C	1.428140	0.377383	-0.000027
N38	N	1.432051	-0.274117	-0.178174
C39	C	1.514693	-0.237242	0.217530
C40	C	1.514700	-0.237240	0.296332
C41	C	1.431992	-0.274104	0.335737
C42	C	1.349249	-0.310959	0.296334
C43	C	1.349237	-0.310954	0.217534
C44	C	1.415757	-0.335333	0.460566
C45	C	1.415778	-0.335339	0.539365
C46	C	1.432024	-0.274116	0.578784
C47	C	1.448274	-0.212888	0.539394
C48	C	1.448262	-0.212884	0.460594
C49	C	1.431996	-0.274112	0.421183
C50	C	1.514763	-0.237257	0.703623
C51	C	1.514762	-0.237253	0.782426
C52	C	1.349317	-0.310979	0.782427
C53	C	1.349313	-0.310977	0.703625
C54	C	1.432042	-0.274117	0.664228
H55	H	1.822859	-0.207752	0.000002
H56	H	2.041145	-0.340476	-0.000030
H57	H	1.281970	-0.340991	0.814510
H58	H	1.280053	0.167683	0.079574
H59	H	1.235531	0.077702	-0.000014
H60	H	1.238883	-0.054158	-0.000010
H61	H	1.636555	0.057602	-0.000003
H62	H	1.827939	-0.371919	-0.000031
H63	H	1.281953	-0.340989	0.671549
C64	C	1.196137	0.385376	-0.000030
C65	C	1.073547	0.431440	-0.000028
C66	C	0.952993	0.397558	-0.000020
C67	C	0.955028	0.317612	-0.000013
C68	C	1.077622	0.271544	-0.000015
C69	C	1.198177	0.305425	-0.000023
H70	H	1.072036	0.490624	-0.000033
H71	H	0.862241	0.431661	-0.000019
H72	H	0.865787	0.292531	-0.000007
H73	H	1.079133	0.212359	-0.000009
H74	H	1.288929	0.271322	-0.000024
H75	H	1.587322	0.152243	-0.079587
C76	C	1.605680	-0.196691	0.174192
C77	C	1.605666	-0.196684	0.087514
C78	C	1.696650	-0.156132	0.044172
C79	C	1.787648	-0.115587	0.087507
C80	C	1.787665	-0.115593	0.174189
C81	C	1.696682	-0.156145	0.217531
H82	H	1.538301	-0.226699	0.055431
H83	H	1.696637	-0.156127	-0.019996
H84	H	1.855000	-0.085568	0.055423
H85	H	1.855031	-0.085579	0.206273
H86	H	1.696695	-0.156150	0.281699
H87	H	1.582124	-0.207239	0.814501
C88	C	1.607890	0.293265	-0.092136
C89	C	1.605853	0.373211	-0.092148
C90	C	1.697985	0.408503	-0.140399
C91	C	1.792155	0.363849	-0.188638
C92	C	1.794196	0.283898	-0.188628
C93	C	1.702063	0.248606	-0.140376
H94	H	1.536139	0.406270	-0.056438
H95	H	1.696474	0.467687	-0.140407
H96	H	1.860357	0.389974	-0.224357
H97	H	1.863909	0.250839	-0.224338
H98	H	1.703574	0.189422	-0.140369
H99	H	2.036077	-0.176293	-0.000058
H100	H	1.461490	-0.163029	0.428526
H101	H	1.639921	-0.074251	0.000017
C102	C	1.258270	-0.351512	0.339675
C103	C	1.258337	-0.351560	0.426353
C104	C	1.167350	-0.392112	0.469692
C105	C	1.076295	-0.432615	0.426355
C106	C	1.076225	-0.432568	0.339673
C107	C	1.167213	-0.392016	0.296333
H108	H	1.325744	-0.321576	0.458438
H109	H	1.167402	-0.392146	0.533860
H110	H	1.008941	-0.462633	0.458438
H111	H	1.008818	-0.462552	0.307588
H112	H	1.167160	-0.391982	0.232165
C113	C	1.466238	-0.145549	0.582743
C114	C	1.466310	-0.145557	0.669420
C115	C	1.484322	-0.078228	0.712773
C116	C	1.502262	-0.010892	0.669449
C117	C	1.502191	-0.010883	0.582767
C118	C	1.484178	-0.078211	0.539414
H119	H	1.453029	-0.195405	0.701496
H120	H	1.484375	-0.078236	0.776941
H121	H	1.515596	0.038948	0.701541
H122	H	1.515472	0.038966	0.550691
H123	H	1.484126	-0.078204	0.475246
H124	H	1.402554	-0.385196	0.571430
H125	H	1.628483	0.374086	-0.000024
H126	H	1.402507	-0.385188	0.428478
H127	H	1.625115	0.505939	-0.000048
H128	H	1.224086	0.526040	-0.000052
H129	H	1.582123	-0.207242	0.671545
H130	H	1.276682	0.299534	0.079555
H131	H	1.582068	-0.207228	0.328412
H132	H	1.281869	-0.340965	0.185459
