data_functionalizedCrystal
_audit_creation_method	'MofGen! by Chris Wilmer'
_symmetry_space_group_name_H-M	'P1'
_symmetry_Int_Tables_number	1
_symmetry_cell_setting	triclinic
loop_
_symmetry_equiv_pos_as_xyz
  x,y,z
_cell_length_a	19.805407
_cell_length_b	29.839131
_cell_length_c	19.805399
_cell_angle_alpha	90.029565
_cell_angle_beta	90.019573
_cell_angle_gamma	90.041420
loop_
_atom_site_label
_atom_site_type_symbol
_atom_site_fract_x
_atom_site_fract_y
_atom_site_fract_z
Zn1	Zn	1.034665	-0.178864	0.382710
Zn2	Zn	1.367998	0.154470	0.716044
Zn3	Zn	1.701332	0.487803	1.049377
Zn4	Zn	1.034550	-0.253991	0.269518
Zn5	Zn	1.367884	0.079342	0.602851
Zn6	Zn	1.701217	0.412675	0.936185
Zn7	Zn	0.921480	-0.178876	0.269535
Zn8	Zn	1.254813	0.154457	0.602868
Zn9	Zn	1.588146	0.487791	0.936202
Zn10	Zn	0.921414	-0.253967	0.382665
Zn11	Zn	1.254747	0.079366	0.715998
Zn12	Zn	1.588080	0.412699	1.049332
O13	O	0.978027	-0.216425	0.326107
O14	O	1.311360	0.116909	0.659440
O15	O	1.644694	0.450242	0.992774
O16	O	1.129366	-0.188834	0.367707
O17	O	1.462700	0.144499	0.701040
O18	O	1.796033	0.477832	1.034374
O19	O	1.019531	-0.244042	0.174804
O20	O	1.352864	0.089291	0.508137
O21	O	1.686197	0.422624	0.841470
O22	O	0.936570	-0.116007	0.284574
O23	O	1.269903	0.217326	0.617907
O24	O	1.603236	0.550659	0.951241
O25	O	1.129282	-0.244030	0.284545
O26	O	1.462615	0.089303	0.617879
O27	O	1.795949	0.422636	0.951212
O28	O	1.019727	-0.115998	0.367723
O29	O	1.353060	0.217335	0.701057
O30	O	1.686393	0.550668	1.034390
O31	O	0.936458	-0.188856	0.174816
O32	O	1.269792	0.144478	0.508149
O33	O	1.603125	0.477811	0.841483
O34	O	0.826754	-0.188832	0.284530
O35	O	1.160088	0.144501	0.617863
O36	O	1.493421	0.477834	0.951196
O37	O	0.936457	-0.243990	0.477388
O38	O	1.269790	0.089344	0.810721
O39	O	1.603124	0.422677	1.144054
O40	O	0.826706	-0.244002	0.367646
O41	O	1.160039	0.089332	0.700979
O42	O	1.493372	0.422665	1.034313
O43	O	1.019662	-0.188811	0.477421
O44	O	1.352996	0.144522	0.810754
O45	O	1.686329	0.477855	1.144088
O46	O	1.019467	-0.316855	0.284501
O47	O	1.352800	0.016478	0.617835
O48	O	1.686133	0.349811	0.951168
O49	O	0.936346	-0.316838	0.367630
O50	O	1.269679	0.016496	0.700963
O51	O	1.603012	0.349829	1.034296
C52	C	0.802171	-0.216416	0.326085
C53	C	1.135504	0.116917	0.659418
C54	C	1.468838	0.450251	0.992752
C55	C	0.726939	-0.216423	0.326092
C56	C	1.060272	0.116910	0.659425
C57	C	1.393606	0.450243	0.992759
C58	C	0.691587	-0.245193	0.369300
C59	C	1.024921	0.088140	0.702634
C60	C	1.358254	0.421474	1.035967
C61	C	0.620899	-0.245194	0.369310
C62	C	0.954232	0.088139	0.702643
C63	C	1.287566	0.421473	1.035977
C64	C	0.585564	-0.216427	0.326107
C65	C	0.918897	0.116907	0.659440
C66	C	1.252230	0.450240	0.992774
C67	C	0.620920	-0.187654	0.282897
C68	C	0.954254	0.145680	0.616230
C69	C	1.287587	0.479013	0.949563
C70	C	0.691607	-0.187651	0.282891
C71	C	1.024941	0.145682	0.616224
C72	C	1.358274	0.479016	0.949558
C73	C	0.335847	-0.187664	0.282919
C74	C	0.669180	0.145670	0.616252
C75	C	1.002514	0.479003	0.949586
C76	C	0.265155	-0.187669	0.282927
C77	C	0.598488	0.145664	0.616260
C78	C	0.931822	0.478997	0.949593
C79	C	0.265139	-0.245207	0.369338
C80	C	0.598472	0.088127	0.702671
C81	C	0.931805	0.421460	1.036005
C82	C	0.335826	-0.245204	0.369332
C83	C	0.669159	0.088130	0.702666
C84	C	1.002492	0.421463	1.035999
C85	C	0.371176	-0.216429	0.326125
C86	C	0.704510	0.116904	0.659458
C87	C	1.037843	0.450237	0.992791
C88	C	0.447825	-0.216428	0.326116
C89	C	0.781158	0.116905	0.659449
C90	C	1.114491	0.450238	0.992782
C91	C	0.508916	-0.216430	0.326112
C92	C	0.842250	0.116904	0.659445
C93	C	1.175583	0.450237	0.992779
C94	C	0.977905	-0.333147	0.326073
C95	C	1.311238	0.000186	0.659407
C96	C	1.644572	0.333519	0.992740
C97	C	0.977915	-0.383082	0.326082
C98	C	1.311248	-0.049748	0.659415
C99	C	1.644581	0.283585	0.992748
C100	C	1.021387	-0.692722	0.282885
C101	C	1.354720	-0.359388	0.616219
C102	C	1.688054	-0.026055	0.949552
C103	C	1.021471	-0.880395	0.282912
C104	C	1.354804	-0.547061	0.616245
C105	C	1.688137	-0.213728	0.949578
O106	O	1.058335	-0.904656	0.246159
O107	O	1.391669	-0.571323	0.579492
O108	O	1.725002	-0.237990	0.912825
N109	N	0.978168	-0.903867	0.326158
N110	N	1.311501	-0.570533	0.659491
N111	N	1.644834	-0.237200	0.992825
C112	C	0.934844	-0.880418	0.369404
C113	C	1.268177	-0.547084	0.702738
C114	C	1.601510	-0.213751	1.036071
O115	O	0.898019	-0.904688	0.406194
O116	O	1.231352	-0.571355	0.739527
O117	O	1.564685	-0.238022	1.072860
C118	C	0.934764	-0.692746	0.369381
C119	C	1.268097	-0.359412	0.702714
C120	C	1.601431	-0.026079	1.036048
C121	C	0.978065	-0.669276	0.326127
C122	C	1.311398	-0.335942	0.659460
C123	C	1.644732	-0.002609	0.992793
C124	C	1.064685	-0.669252	0.239635
C125	C	1.398018	-0.335918	0.572969
C126	C	1.731352	-0.002585	0.906302
C127	C	1.064661	-0.622336	0.239626
C128	C	1.397994	-0.289003	0.572960
C129	C	1.731328	0.044330	0.906293
C130	C	1.021339	-0.598891	0.282868
C131	C	1.354672	-0.265557	0.616201
C132	C	1.688006	0.067776	0.949535
C133	C	0.978041	-0.622360	0.326118
C134	C	1.311374	-0.289027	0.659451
C135	C	1.644708	0.044306	0.992785
C136	C	0.891444	-0.669297	0.412630
C137	C	1.224777	-0.335964	0.745963
C138	C	1.558111	-0.002631	1.079297
C139	C	0.891429	-0.622376	0.412621
C140	C	1.224763	-0.289043	0.745955
C141	C	1.558096	0.044290	1.079288
C142	C	0.934730	-0.598907	0.369367
C143	C	1.268064	-0.265573	0.702701
C144	C	1.601397	0.067760	1.036034
C145	C	0.934695	-0.551999	0.369351
C146	C	1.268029	-0.218666	0.702684
C147	C	1.601362	0.114667	1.036017
N148	N	0.977998	-0.528527	0.326104
N149	N	1.311332	-0.195194	0.659437
N150	N	1.644665	0.138140	0.992771
C151	C	1.021320	-0.551973	0.282863
C152	C	1.354654	-0.218639	0.616196
C153	C	1.687987	0.114694	0.949529
C154	C	0.934888	-0.978948	0.369412
C155	C	1.268221	-0.645615	0.702746
C156	C	1.601554	-0.312282	1.036079
C157	C	0.934907	-1.025866	0.369418
C158	C	1.268240	-0.692533	0.702751
C159	C	1.601573	-0.359199	1.036084
C160	C	1.021534	-1.025840	0.282926
C161	C	1.354868	-0.692506	0.616259
C162	C	1.688201	-0.359173	0.949592
C163	C	1.021512	-0.978921	0.282918
C164	C	1.354845	-0.645588	0.616251
C165	C	1.688178	-0.312254	0.949584
C166	C	0.978191	-0.955476	0.326166
C167	C	1.311524	-0.622143	0.659499
C168	C	1.644857	-0.288810	0.992833
C169	C	1.021266	-0.453447	0.282847
C170	C	1.354600	-0.120114	0.616181
C171	C	1.687933	0.213220	0.949514
C172	C	1.021237	-0.406527	0.282840
C173	C	1.354570	-0.073194	0.616174
C174	C	1.687903	0.260139	0.949507
C175	C	0.934611	-0.406558	0.369334
C176	C	1.267945	-0.073225	0.702668
C177	C	1.601278	0.260109	1.036001
C178	C	0.934638	-0.453473	0.369339
C179	C	1.267972	-0.120140	0.702672
C180	C	1.601305	0.213193	1.036006
C181	C	0.977971	-0.476917	0.326093
C182	C	1.311305	-0.143583	0.659427
C183	C	1.644638	0.189750	0.992760
O184	O	0.897855	-0.527708	0.406090
O185	O	1.231188	-0.194375	0.739423
O186	O	1.564522	0.138958	1.072756
O187	O	1.058150	-0.527694	0.246090
O188	O	1.391484	-0.194361	0.579423
O189	O	1.724817	0.138973	0.912756
C190	C	1.021411	-0.739637	0.282894
C191	C	1.354744	-0.406304	0.616227
C192	C	1.688078	-0.072970	0.949561
C193	C	0.978113	-0.763107	0.326144
C194	C	1.311446	-0.429773	0.659478
C195	C	1.644780	-0.096440	0.992811
C196	C	0.934791	-0.739661	0.369386
C197	C	1.268124	-0.406328	0.702719
C198	C	1.601458	-0.072994	1.036052
C199	C	0.978132	-0.810025	0.326149
C200	C	1.311465	-0.476691	0.659483
C201	C	1.644798	-0.143358	0.992816
C202	C	1.021454	-0.833470	0.282908
C203	C	1.354787	-0.500137	0.616241
C204	C	1.688120	-0.166804	0.949575
C205	C	1.064757	-0.809998	0.239661
C206	C	1.398090	-0.476665	0.572995
C207	C	1.731423	-0.143331	0.906328
C208	C	1.064733	-0.763083	0.239653
C209	C	1.398066	-0.429749	0.572986
C210	C	1.731399	-0.096416	0.906319
C211	C	0.891488	-0.763133	0.412632
C212	C	1.224821	-0.429800	0.745965
C213	C	1.558155	-0.096466	1.079299
C214	C	0.891515	-0.810049	0.412637
C215	C	1.224848	-0.476715	0.745970
C216	C	1.558182	-0.143382	1.079303
C217	C	0.934837	-0.833494	0.369395
C218	C	1.268170	-0.500161	0.702729
C219	C	1.601503	-0.166828	1.036062
C220	C	1.154570	-0.216434	0.326129
C221	C	1.487903	0.116900	0.659463
C222	C	1.821237	0.450233	0.992796
C223	C	1.229802	-0.216437	0.326139
C224	C	1.563135	0.116896	0.659472
C225	C	1.896468	0.450229	0.992806
C226	C	0.978065	-0.216396	0.502650
C227	C	1.311398	0.116937	0.835983
C228	C	1.644732	0.450270	1.169317
C229	C	0.978081	-0.216384	0.577882
C230	C	1.311415	0.116949	0.911215
C231	C	1.644748	0.450282	1.244549
C232	C	0.978168	-0.099246	0.326156
C233	C	1.311502	0.234087	0.659489
C234	C	1.644835	0.567420	0.992822
C235	C	0.978228	-0.049312	0.326176
C236	C	1.311562	0.284022	0.659510
C237	C	1.644895	0.617355	0.992843
C238	C	0.978028	-0.216420	0.150251
C239	C	1.311362	0.116913	0.483584
C240	C	1.644695	0.450246	0.816918
C241	C	0.978143	-0.216306	0.075019
C242	C	1.311477	0.117027	0.408353
C243	C	1.644810	0.450361	0.741686
C244	C	1.021407	-0.187652	0.613244
C245	C	1.354741	0.145682	0.946578
C246	C	1.688074	0.479015	1.279911
C247	C	1.021414	-0.187638	0.683933
C248	C	1.354748	0.145695	1.017266
C249	C	1.688081	0.479028	1.350600
C250	C	0.978098	-0.216361	0.719258
C251	C	1.311431	0.116972	1.052591
C252	C	1.644765	0.450306	1.385924
C253	C	0.934767	-0.245095	0.683890
C254	C	1.268101	0.088238	1.017223
C255	C	1.601434	0.421572	1.350557
C256	C	0.934757	-0.245105	0.613203
C257	C	1.268091	0.088228	0.946536
C258	C	1.601424	0.421561	1.279869
C259	C	0.934806	-0.245053	0.968963
C260	C	1.268139	0.088280	1.302297
C261	C	1.601472	0.421614	1.635630
C262	C	0.934820	-0.245041	1.039656
C263	C	1.268154	0.088292	1.372989
C264	C	1.601487	0.421625	1.706322
C265	C	1.021462	-0.187586	1.039694
C266	C	1.354796	0.145747	1.373027
C267	C	1.688129	0.479081	1.706360
C268	C	1.021453	-0.187597	0.969006
C269	C	1.354786	0.145737	1.302340
C270	C	1.688119	0.479070	1.635673
C271	C	0.978120	-0.216329	0.933645
C272	C	1.311453	0.117005	1.266978
C273	C	1.644786	0.450338	1.600312
C274	C	0.978112	-0.216342	0.856997
C275	C	1.311445	0.116991	1.190330
C276	C	1.644778	0.450325	1.523663
C277	C	0.978109	-0.216350	0.795905
C278	C	1.311442	0.116983	1.129238
C279	C	1.644776	0.450316	1.462571
H280	H	0.720390	-0.164221	0.247710
H281	H	1.053723	0.169112	0.581043
H282	H	1.387057	0.502445	0.914376
H283	H	1.099922	-0.603230	0.204407
H284	H	1.433256	-0.269897	0.537741
H285	H	1.766589	0.063437	0.871074
H286	H	0.364592	-0.268631	0.404510
H287	H	0.697926	0.064703	0.737844
H288	H	1.031259	0.398036	1.071177
O289	O	1.063366	-0.383799	0.240801
O290	O	1.396700	-0.050466	0.574134
O291	O	1.730033	0.282868	0.907467
C292	C	1.101596	-0.414557	0.202628
C293	C	1.434929	-0.081224	0.535961
C294	C	1.768263	0.252109	0.869294
H295	H	1.103937	-0.447988	0.230362
H296	H	1.437271	-0.114655	0.563696
H297	H	1.770604	0.218679	0.897029
H298	H	1.154923	-0.400969	0.195454
H299	H	1.488256	-0.067636	0.528788
H300	H	1.821590	0.265698	0.862121
H301	H	1.076843	-0.419588	0.151200
H302	H	1.410176	-0.086254	0.484534
H303	H	1.743510	0.247079	0.817867
H304	H	1.099967	-0.688336	0.204423
H305	H	1.433300	-0.355003	0.537756
H306	H	1.766633	-0.021670	0.871089
H307	H	1.056554	-0.472529	0.247634
H308	H	1.389887	-0.139196	0.580967
H309	H	1.723220	0.194138	0.914301
H310	H	1.056809	-1.044937	0.247717
H311	H	1.390142	-0.711604	0.581050
H312	H	1.723476	-0.378271	0.914384
H313	H	0.856180	-0.688398	0.447849
H314	H	1.189514	-0.355065	0.781182
H315	H	1.522847	-0.021732	1.114516
O316	O	0.230724	-0.159769	0.240974
O317	O	0.564058	0.173565	0.574307
O318	O	0.897391	0.506898	0.907641
C319	C	0.160754	-0.165939	0.250252
C320	C	0.494087	0.167394	0.583586
C321	C	0.827421	0.500728	0.916919
H322	H	0.151082	-0.200628	0.272331
H323	H	0.484415	0.132705	0.605664
H324	H	0.817749	0.466038	0.938997
H325	H	0.133873	-0.162856	0.199562
H326	H	0.467206	0.170477	0.532895
H327	H	0.800539	0.503811	0.866229
H328	H	0.140727	-0.139323	0.286366
H329	H	0.474060	0.194010	0.619699
H330	H	0.807394	0.527343	0.953032
H331	H	1.056696	-0.164242	0.712722
H332	H	1.390030	0.169091	1.046055
H333	H	1.723363	0.502424	1.379389
H334	H	0.899531	-0.268455	0.940181
H335	H	1.232864	0.064878	1.273514
H336	H	1.566198	0.398212	1.606847
O337	O	0.370076	-0.159699	0.240886
O338	O	0.703409	0.173635	0.574219
O339	O	1.036743	0.506968	0.907552
C340	C	0.323727	-0.134302	0.202769
C341	C	0.657061	0.199031	0.536102
C342	C	0.990394	0.532364	0.869436
H343	H	0.273323	-0.152707	0.200375
H344	H	0.606657	0.180626	0.533708
H345	H	0.939990	0.513959	0.867042
H346	H	0.344133	-0.129457	0.149453
H347	H	0.677467	0.203876	0.482786
H348	H	1.010800	0.537209	0.816120
H349	H	0.316248	-0.100207	0.227655
H350	H	0.649581	0.233127	0.560988
H351	H	0.982914	0.566460	0.894322
O352	O	1.063543	-0.956174	0.240810
O353	O	1.396876	-0.622840	0.574143
O354	O	1.730210	-0.289507	0.907477
C355	C	1.048782	-0.967667	0.173338
C356	C	1.382115	-0.634334	0.506672
C357	C	1.715448	-0.301001	0.840005
H358	H	1.022772	-1.001749	0.171918
H359	H	1.356105	-0.668415	0.505251
H360	H	1.689439	-0.335082	0.838584
H361	H	1.097649	-0.969256	0.143034
H362	H	1.430982	-0.635923	0.476367
H363	H	1.764315	-0.302590	0.809700
H364	H	1.013989	-0.941292	0.150504
H365	H	1.347323	-0.607958	0.483837
H366	H	1.680656	-0.274625	0.817171
H367	H	0.236348	-0.268634	0.404522
H368	H	0.569681	0.064699	0.737855
H369	H	0.903014	0.398032	1.071189
O370	O	0.586493	-0.159749	0.240954
O371	O	0.919826	0.173584	0.574287
O372	O	1.253160	0.506918	0.907621
C373	C	0.516522	-0.165911	0.250235
C374	C	0.849855	0.167422	0.583569
C375	C	1.183188	0.500755	0.916902
H376	H	0.506841	-0.200603	0.272303
H377	H	0.840174	0.132731	0.605637
H378	H	1.173508	0.466064	0.938970
H379	H	0.489638	-0.162818	0.199548
H380	H	0.822971	0.170516	0.532881
H381	H	1.156305	0.503849	0.866214
H382	H	0.496505	-0.139298	0.286359
H383	H	0.829838	0.194035	0.619692
H384	H	1.163172	0.527369	0.953025
O385	O	0.892817	-1.048592	0.411493
O386	O	1.226150	-0.715259	0.744827
O387	O	1.559484	-0.381926	1.078160
C388	C	0.854568	-1.017832	0.449644
C389	C	1.187902	-0.684498	0.782977
C390	C	1.521235	-0.351165	1.116310
H391	H	0.882280	-0.984369	0.452004
H392	H	1.215614	-0.651036	0.785337
H393	H	1.548947	-0.317702	1.118671
H394	H	0.847322	-1.031368	0.502969
H395	H	1.180655	-0.698035	0.836302
H396	H	1.513988	-0.364701	1.169636
H397	H	0.803176	-1.012885	0.424809
H398	H	1.136509	-0.679552	0.758142
H399	H	1.469842	-0.346218	1.091476
H400	H	0.899609	-0.959863	0.404631
H401	H	1.232942	-0.626529	0.737965
H402	H	1.566275	-0.293196	1.071298
O403	O	0.849284	-0.599672	0.454658
O404	O	1.182617	-0.266339	0.787991
O405	O	1.515950	0.066994	1.121324
C406	C	0.811088	-0.630452	0.492846
C407	C	1.144422	-0.297119	0.826179
C408	C	1.477755	0.036215	1.159512
H409	H	0.808775	-0.663909	0.465122
H410	H	1.142108	-0.330575	0.798455
H411	H	1.475442	0.002758	1.131788
H412	H	0.757750	-0.616931	0.500022
H413	H	1.091083	-0.283598	0.833356
H414	H	1.424416	0.049735	1.166689
H415	H	0.835853	-0.635406	0.544271
H416	H	1.169187	-0.302072	0.877605
H417	H	1.502520	0.031261	1.210938
O418	O	0.892553	-0.476205	0.411417
O419	O	1.225886	-0.142872	0.744750
O420	O	1.559220	0.190462	1.078083
C421	C	0.854297	-0.445448	0.449566
C422	C	1.187631	-0.112114	0.782899
C423	C	1.520964	0.221219	1.116233
H424	H	0.882000	-0.411981	0.451922
H425	H	1.215333	-0.078648	0.785255
H426	H	1.548666	0.254685	1.118588
H427	H	0.847057	-0.458983	0.502893
H428	H	1.180390	-0.125649	0.836226
H429	H	1.513724	0.207684	1.169560
H430	H	0.802902	-0.440509	0.424733
H431	H	1.136235	-0.107175	0.758066
H432	H	1.469569	0.226158	1.091400
H433	H	0.899337	-0.387461	0.404539
H434	H	1.232670	-0.054128	0.737873
H435	H	1.566004	0.279206	1.071206
H436	H	1.099993	-0.743977	0.204431
H437	H	1.433326	-0.410644	0.537765
H438	H	1.766659	-0.077310	0.871098
H439	H	1.100029	-0.829096	0.204451
H440	H	1.433362	-0.495762	0.537784
H441	H	1.766696	-0.162429	0.871117
O442	O	1.063551	-0.159653	0.934798
O443	O	1.396884	0.173680	1.268131
O444	O	1.730218	0.507014	1.601464
C445	C	1.101806	-0.134296	0.981168
C446	C	1.435139	0.199037	1.314502
C447	C	1.768472	0.532370	1.647835
H448	H	1.074093	-0.132732	1.031553
H449	H	1.407426	0.200601	1.364886
H450	H	1.740759	0.533934	1.698219
H451	H	1.109063	-0.098904	0.960761
H452	H	1.442397	0.234430	1.294094
H453	H	1.775730	0.567763	1.627428
H454	H	1.153193	-0.150748	0.988688
H455	H	1.486527	0.182585	1.322021
H456	H	1.819860	0.515918	1.655354
H457	H	0.856248	-0.829154	0.447859
H458	H	1.189581	-0.495820	0.781192
H459	H	1.522915	-0.162487	1.114526
H460	H	0.592119	-0.268622	0.404494
H461	H	0.925452	0.064712	0.737827
H462	H	1.258785	0.398045	1.071161
H463	H	0.856211	-0.744047	0.447845
H464	H	1.189544	-0.410714	0.781179
H465	H	1.522877	-0.077381	1.114512
H466	H	1.056683	-0.164264	0.584488
H467	H	1.390016	0.169070	0.917822
H468	H	1.723349	0.502403	1.251155
H469	H	1.056744	-0.164189	1.068493
H470	H	1.390077	0.169144	1.401827
H471	H	1.723411	0.502477	1.735160
O472	O	0.892673	-0.272956	1.073866
O473	O	1.226006	0.060377	1.407200
O474	O	1.559340	0.393711	1.740533
C475	C	0.854434	-0.298326	1.027499
C476	C	1.187768	0.035008	1.360832
C477	C	1.521101	0.368341	1.694165
H478	H	0.852104	-0.279933	0.977117
H479	H	1.185438	0.053401	1.310451
H480	H	1.518771	0.386734	1.643784
H481	H	0.801104	-0.303108	1.047915
H482	H	1.134437	0.030225	1.381248
H483	H	1.467771	0.363558	1.714581
H484	H	0.879172	-0.332450	1.019970
H485	H	1.212506	0.000884	1.353304
H486	H	1.545839	0.334217	1.686637
H487	H	0.899496	-0.268480	0.712657
H488	H	1.232829	0.064854	1.045990
H489	H	1.566163	0.398187	1.379323
H490	H	0.720352	-0.268620	0.404479
H491	H	1.053686	0.064713	0.737812
H492	H	1.387019	0.398046	1.071146
O493	O	0.892658	-0.273065	0.578954
O494	O	1.225991	0.060269	0.912287
O495	O	1.559324	0.393602	1.245621
C496	C	0.854420	-0.298409	0.625288
C497	C	1.187753	0.034924	0.958621
C498	C	1.521086	0.368258	1.291955
H499	H	0.882145	-0.299953	0.675683
H500	H	1.215479	0.033380	1.009017
H501	H	1.548812	0.366713	1.342350
H502	H	0.847165	-0.333809	0.604850
H503	H	1.180498	-0.000476	0.938183
H504	H	1.513831	0.332857	1.271517
H505	H	0.803030	-0.281959	0.632798
H506	H	1.136364	0.051374	0.966131
H507	H	1.469697	0.384708	1.299464
