data_functionalizedCrystal
_audit_creation_method	'MofGen! by Chris Wilmer'
_symmetry_space_group_name_H-M	'P1'
_symmetry_Int_Tables_number	1
_symmetry_cell_setting	triclinic
loop_
_symmetry_equiv_pos_as_xyz
  x,y,z
_cell_length_a	23.532407
_cell_length_b	23.532407
_cell_length_c	9.616153
_cell_angle_alpha	89.993077
_cell_angle_beta	89.995831
_cell_angle_gamma	82.848712
loop_
_atom_site_label
_atom_site_type_symbol
_atom_site_fract_x
_atom_site_fract_y
_atom_site_fract_z
O1	O	0.755262	0.069133	-0.115572
O2	O	1.255262	0.569133	0.384428
O3	O	0.589398	0.079136	-0.115596
O4	O	1.089398	0.579136	0.384404
O5	O	0.677332	-0.008797	-0.115558
O6	O	1.177332	0.491203	0.384442
O7	O	0.667328	0.157066	-0.115610
O8	O	1.167328	0.657066	0.384390
O9	O	0.677320	-0.008795	0.115734
O10	O	1.177320	0.491205	0.615734
O11	O	0.589386	0.079138	0.115696
O12	O	1.089386	0.579138	0.615696
O13	O	0.755250	0.069135	0.115720
O14	O	1.255250	0.569135	0.615720
Zn15	Zn	0.672316	0.074137	0.152430
Zn16	Zn	1.172316	0.574137	0.652430
Zn17	Zn	0.672332	0.074134	-0.152306
Zn18	Zn	1.172332	0.574134	0.347694
O19	O	0.667316	0.157068	0.115681
O20	O	1.167316	0.657068	0.615681
C21	C	0.568176	0.078882	0.000047
C22	C	1.068176	0.578882	0.500047
C23	C	0.504959	0.078116	0.000039
C24	C	1.004959	0.578116	0.500039
C25	C	0.238792	0.022921	0.000094
C26	C	0.738792	0.522921	0.500094
C27	C	0.298192	0.023632	0.000094
C28	C	0.798192	0.523632	0.500094
O29	O	0.334937	-0.020153	0.000156
O30	O	0.834937	0.479847	0.500156
N31	N	0.320818	0.075909	0.000068
N32	N	0.820818	0.575909	0.500068
C33	C	0.284041	0.127477	0.000057
C34	C	0.784041	0.627477	0.500057
O35	O	0.308740	0.172007	0.000036
O36	O	0.808740	0.672007	0.500036
C37	C	0.224642	0.126765	0.000067
C38	C	0.724642	0.626765	0.500067
C39	C	0.202019	0.074485	0.000079
C40	C	0.702019	0.574485	0.500079
C41	C	0.216168	-0.029354	0.000108
C42	C	0.716168	0.470646	0.500108
C43	C	0.156772	-0.030066	0.000106
C44	C	0.656772	0.469934	0.500106
C45	C	0.119999	0.021499	0.000090
C46	C	0.619999	0.521499	0.500090
C47	C	0.142623	0.073774	0.000077
C48	C	0.642623	0.573774	0.500077
C49	C	0.187865	0.178333	0.000066
C50	C	0.687865	0.678333	0.500066
C51	C	0.128463	0.177616	0.000077
C52	C	0.628463	0.677616	0.500077
C53	C	0.105840	0.125336	0.000089
C54	C	0.605840	0.625336	0.500089
C55	C	0.046454	0.124627	0.000060
C56	C	0.546454	0.624627	0.500060
N57	N	0.023828	0.072351	0.000086
N58	N	0.523828	0.572351	0.500086
C59	C	0.060600	0.020787	0.000101
C60	C	0.560600	0.520787	0.500101
C61	C	0.408783	0.128968	0.000037
C62	C	0.908783	0.628968	0.500037
C63	C	0.468181	0.129681	0.000016
C64	C	0.968181	0.629681	0.500016
C65	C	0.482328	0.025836	0.000056
C66	C	0.982328	0.525836	0.500056
C67	C	0.422929	0.025124	0.000067
C68	C	0.922929	0.525124	0.500067
C69	C	0.386157	0.076692	0.000063
C70	C	0.886157	0.576692	0.500063
C71	C	-0.064136	0.019297	0.000096
C72	C	0.435864	0.519297	0.500096
C73	C	-0.123538	0.018590	0.000088
C74	C	0.376462	0.518590	0.500088
C75	C	-0.137680	0.122435	0.000055
C76	C	0.362320	0.622435	0.500055
C77	C	-0.078284	0.123142	0.000056
C78	C	0.421716	0.623142	0.500056
C79	C	-0.041512	0.071568	0.000081
C80	C	0.458488	0.571568	0.500081
O81	O	0.009675	0.168390	0.000003
O82	O	0.509675	0.668390	0.500003
O83	O	0.035892	-0.023737	0.000140
O84	O	0.535892	0.476263	0.500140
C85	C	0.677071	-0.030012	0.000092
C86	C	1.177071	0.469988	0.500092
C87	C	0.676305	-0.093229	0.000102
C88	C	1.176305	0.406771	0.500102
C89	C	0.723538	-0.492332	0.000033
C90	C	1.223538	0.007668	0.500033
C91	C	0.722827	-0.551733	0.000022
C92	C	1.222827	-0.051733	0.500022
O93	O	0.766613	-0.588477	-0.000023
O94	O	1.266613	-0.088477	0.499977
N95	N	0.670551	-0.574359	0.000016
N96	N	1.170551	-0.074359	0.500016
C97	C	0.618982	-0.537581	0.000006
C98	C	1.118982	-0.037581	0.500006
O99	O	0.574452	-0.562281	-0.000002
O100	O	1.074452	-0.062281	0.499998
C101	C	0.619695	-0.478182	0.000006
C102	C	1.119695	0.021818	0.500006
C103	C	0.671974	-0.455559	0.000027
C104	C	1.171974	0.044441	0.500027
C105	C	0.775814	-0.469709	0.000052
C106	C	1.275814	0.030291	0.500052
C107	C	0.776525	-0.410313	0.000065
C108	C	1.276525	0.089687	0.500065
C109	C	0.724961	-0.373540	0.000059
C110	C	1.224961	0.126460	0.500059
C111	C	0.672685	-0.396163	0.000040
C112	C	1.172685	0.103837	0.500040
C113	C	0.568127	-0.441406	-0.000014
C114	C	1.068127	0.058594	0.499986
C115	C	0.568843	-0.382003	-0.000014
C116	C	1.068843	0.117997	0.499986
C117	C	0.621123	-0.359381	0.000007
C118	C	1.121123	0.140619	0.500007
C119	C	0.621832	-0.299994	0.000048
C120	C	1.121832	0.200006	0.500048
N121	N	0.674109	-0.277368	0.000054
N122	N	1.174109	0.222632	0.500054
C123	C	0.725673	-0.314141	0.000060
C124	C	1.225673	0.185859	0.500060
C125	C	0.617491	-0.662324	0.000002
C126	C	1.117491	-0.162324	0.500002
C127	C	0.616778	-0.721722	0.000011
C128	C	1.116778	-0.221722	0.500011
C129	C	0.720623	-0.735869	0.000025
C130	C	1.220623	-0.235869	0.500025
C131	C	0.721335	-0.676470	0.000025
C132	C	1.221335	-0.176470	0.500025
C133	C	0.669767	-0.639698	0.000008
C134	C	1.169767	-0.139698	0.500008
C135	C	0.727163	-0.189404	0.000089
C136	C	1.227163	0.310596	0.500089
C137	C	0.727869	-0.130002	0.000108
C138	C	1.227869	0.369998	0.500108
C139	C	0.624025	-0.115860	0.000087
C140	C	1.124025	0.384140	0.500087
C141	C	0.623318	-0.175257	0.000075
C142	C	1.123318	0.324743	0.500075
C143	C	0.674891	-0.212028	0.000071
C144	C	1.174891	0.287972	0.500071
O145	O	0.578069	-0.263215	0.000087
O146	O	1.078069	0.236785	0.500087
O147	O	0.770196	-0.289433	0.000050
O148	O	1.270196	0.210567	0.500050
C149	C	0.776472	0.069389	0.000073
C150	C	1.276472	0.569389	0.500073
C151	C	0.839689	0.070155	0.000072
C152	C	1.339689	0.570155	0.500072
C153	C	0.667577	0.178283	0.000029
C154	C	1.167577	0.678283	0.500029
C155	C	0.668343	0.241500	0.000009
C156	C	1.168343	0.741500	0.500009
N157	N	0.672309	0.074138	0.360405
N158	N	1.172309	0.574138	0.860405
N159	N	0.672343	0.074128	-0.360281
N160	N	1.172343	0.574128	0.139719
C161	C	0.625132	0.121023	0.580754
C162	C	1.125132	0.621023	1.080754
C163	C	0.625232	0.121195	0.419587
C164	C	1.125232	0.621195	0.919587
C165	C	0.731662	0.086782	0.418858
C166	C	1.231662	0.586782	0.918858
C167	C	0.731404	0.087113	0.580075
C168	C	1.231404	0.587113	1.080075
C169	C	0.660730	0.014449	0.580333
C170	C	1.160730	0.514449	1.080333
C171	C	0.659357	0.014857	0.419106
C172	C	1.159357	0.514857	0.919106
H173	H	0.138359	-0.072637	0.000121
H174	H	0.638359	0.427363	0.500121
H175	H	0.741689	0.130626	0.617651
H176	H	1.241689	0.630626	1.117651
H177	H	0.525555	-0.459814	-0.000039
H178	H	1.025555	0.040186	0.499961
O179	O	-0.147938	-0.037800	0.000103
O180	O	0.352062	0.462200	0.500103
H181	H	-0.174669	-0.040604	0.094370
H182	H	0.325331	0.459396	0.594370
H183	H	0.632409	0.165068	0.621240
H184	H	1.132409	0.665068	1.121240
O185	O	0.369126	0.184594	0.000012
O186	O	0.869126	0.684594	0.500012
H187	H	0.341728	0.186763	0.094292
H188	H	0.841728	0.686763	0.594292
H189	H	-0.034204	-0.022699	0.000115
H190	H	0.465796	0.477301	0.500115
H191	H	0.819097	-0.391900	0.000076
H192	H	1.319097	0.108100	0.500076
H193	H	0.098525	0.219610	0.000081
H194	H	0.598525	0.719610	0.500081
O195	O	0.566488	0.111286	0.632153
O196	O	1.066488	0.611286	1.132153
H197	H	0.547419	0.149305	0.691894
H198	H	1.047419	0.649305	1.191894
H199	H	0.695163	-0.020445	0.618464
H200	H	1.195163	0.479555	1.118464
O201	O	-0.177351	0.178047	0.000062
O202	O	0.322649	0.678047	0.500062
H203	H	-0.204757	0.180206	-0.094195
H204	H	0.295243	0.680206	0.405805
H205	H	0.769159	-0.219337	0.000081
H206	H	1.269159	0.280663	0.500081
O207	O	0.779289	0.042729	0.368075
O208	O	1.279289	0.542729	0.868075
H209	H	0.801024	0.020225	0.458578
H210	H	1.301024	0.520225	0.958578
O211	O	0.212257	0.234720	0.000088
O212	O	0.712257	0.734720	0.500088
H213	H	0.176699	0.270450	0.000108
H214	H	0.676699	0.770450	0.500108
O215	O	0.492575	0.186070	-0.000016
O216	O	0.992575	0.686070	0.499984
H217	H	0.540057	0.177909	-0.000024
H218	H	1.040057	0.677909	0.499976
O219	O	-0.053877	0.179527	0.000038
O220	O	0.446123	0.679527	0.500038
H221	H	-0.089430	0.215262	0.000033
H222	H	0.410570	0.715262	0.500033
H223	H	0.246104	-0.071347	0.000125
H224	H	0.746104	0.428653	0.500125
H225	H	0.817806	-0.499644	0.000051
H226	H	1.317806	0.000356	0.500051
O227	O	0.398529	-0.031262	0.000103
O228	O	0.898529	0.468738	0.500103
H229	H	0.434085	-0.066995	0.000123
H230	H	0.934085	0.433005	0.500123
H231	H	0.615699	0.005254	0.380903
H232	H	1.115699	0.505254	0.880903
O233	O	0.784258	-0.105601	0.000109
O234	O	1.284258	0.394399	0.500109
H235	H	0.819993	-0.141154	0.000090
H236	H	1.319993	0.358846	0.500090
H237	H	0.742198	0.129799	0.378455
H238	H	1.242198	0.629799	0.878455
O239	O	0.777721	-0.652070	0.000022
O240	O	1.277721	-0.152070	0.500022
H241	H	0.813454	-0.687625	0.000014
H242	H	1.313454	-0.187625	0.500014
H243	H	0.512280	-0.016150	0.000069
H244	H	1.012280	0.483850	0.500069
H245	H	0.581103	0.113711	0.380068
H246	H	1.081103	0.613711	0.880068
H247	H	0.618412	0.002207	0.621068
H248	H	1.118412	0.502207	1.121068
O249	O	0.568413	-0.076189	0.000083
O250	O	1.068413	0.423811	0.500083
H251	H	0.531937	-0.101895	0.000079
H252	H	1.031937	0.398105	0.500079
O253	O	0.560389	-0.746115	0.000007
O254	O	1.060389	-0.246115	0.500007
H255	H	0.557572	-0.772840	0.094280
H256	H	1.057572	-0.272840	0.594280
H257	H	0.762610	-0.765821	0.000024
H258	H	1.262610	-0.265821	0.500024
O259	O	0.561868	-0.622662	0.000020
O260	O	1.061868	-0.122662	0.500020
H261	H	0.525402	-0.648380	0.000033
H262	H	1.025402	-0.148380	0.500033
O263	O	0.635007	0.179866	0.368445
O264	O	1.135007	0.679866	0.868445
H265	H	0.639687	0.208225	0.458866
H266	H	1.139687	0.708225	0.958866
O267	O	0.779317	0.043575	0.631754
O268	O	1.279317	0.543575	1.131754
H269	H	0.772717	0.000440	0.593105
H270	H	1.272717	0.500440	1.093105
H271	H	0.526850	-0.352065	-0.000030
H272	H	1.026850	0.147935	0.499970
H273	H	0.580747	-0.193677	0.000097
H274	H	1.080747	0.306323	0.500097
O275	O	0.701983	-0.033502	0.365792
O276	O	1.201983	0.466498	0.865792
H277	H	0.733207	-0.015961	0.296317
H278	H	1.233207	0.484039	0.796317
