data_functionalizedCrystal
_audit_creation_method	'MofGen! by Chris Wilmer'
_symmetry_space_group_name_H-M	'P1'
_symmetry_Int_Tables_number	1
_symmetry_cell_setting	triclinic
loop_
_symmetry_equiv_pos_as_xyz
  x,y,z
_cell_length_a	16.120484
_cell_length_b	18.215407
_cell_length_c	18.215399
_cell_angle_alpha	90.018561
_cell_angle_beta	92.869789
_cell_angle_gamma	87.082750
loop_
_atom_site_label
_atom_site_type_symbol
_atom_site_fract_x
_atom_site_fract_y
_atom_site_fract_z
Zn1	Zn	-0.332098	-1.110204	-0.430944
Zn2	Zn	-0.471518	-1.103870	-0.314113
Zn3	Zn	-0.332104	-0.987136	-0.307894
Zn4	Zn	-0.471451	-0.980864	-0.437138
O5	O	-0.401793	-1.045519	-0.372522
O6	O	-0.350618	-1.212347	-0.415456
O7	O	-0.453055	-1.088360	-0.210305
O8	O	-0.215438	-1.008737	-0.319022
O9	O	-0.453049	-1.207694	-0.329621
O10	O	-0.215433	-1.099154	-0.409426
O11	O	-0.350628	-1.002596	-0.205736
O12	O	-0.350563	-0.883321	-0.325028
O13	O	-0.452934	-0.998046	-0.539299
O14	O	-0.452940	-0.878713	-0.419983
O15	O	-0.350552	-1.093072	-0.534748
O16	O	-0.588174	-1.082278	-0.335627
O17	O	-0.588125	-0.991905	-0.426013
C18	C	-0.401745	-0.854314	-0.372503
C19	C	-0.401745	-0.772516	-0.372513
C20	C	-0.348530	-0.509870	-0.417288
C21	C	-0.348520	-0.586729	-0.417286
C22	C	-0.455028	-0.581910	-0.327758
C23	C	-0.455040	-0.505052	-0.327764
C24	C	-0.401787	-0.469034	-0.372528
C25	C	-0.401765	-0.622751	-0.372520
C26	C	-0.401755	-0.706085	-0.372518
C27	C	-0.401797	-0.385695	-0.372531
C28	C	-0.618399	-1.035743	-0.382183
C29	C	-0.711065	-1.031629	-0.386341
C30	C	-0.880725	-1.024121	-0.393946
C31	C	-0.922019	-1.067048	-0.351110
C32	C	-1.016424	-1.062871	-0.355342
C33	C	-0.786312	-1.028297	-0.389715
C34	C	-0.184340	-1.055352	-0.362840
C35	C	-0.091675	-1.059542	-0.358713
C36	C	-0.401735	-1.045566	-0.564472
C37	C	-0.401711	-1.045586	-0.646270
C38	C	-0.401827	-0.237470	-0.372538
C39	C	-0.401806	-0.319270	-0.372534
C40	C	-0.348350	-1.095085	-0.832094
C41	C	-0.348326	-1.095095	-0.908952
C42	C	-0.454942	-0.996145	-0.913679
C43	C	-0.454961	-0.996132	-0.836822
C44	C	-0.401667	-1.045606	-0.796032
C45	C	-0.401623	-1.045629	-0.949746
C46	C	-0.401597	-1.045639	-1.033079
C47	C	-0.401691	-1.045595	-0.712694
C48	C	-0.401790	-1.045516	-0.181316
C49	C	-0.401579	-1.045649	-0.099508
H50	H	-0.498383	-0.611245	-0.291312
O51	O	-0.296533	-1.143036	-0.792388
C52	C	-0.242677	-1.103559	-0.745543
H53	H	-0.272077	-1.046460	-0.735324
H54	H	-0.231517	-1.134032	-0.691006
H55	H	-0.180888	-1.098264	-0.772416
O56	O	-0.923033	-0.976435	-0.441444
C57	C	-0.901923	-0.904012	-0.424348
H58	H	-0.838695	-0.905246	-0.393282
H59	H	-0.899043	-0.871101	-0.477302
H60	H	-0.950959	-0.877125	-0.388639
O61	O	-0.506868	-0.465343	-0.284391
C62	C	-0.560763	-0.418471	-0.328626
H63	H	-0.565987	-0.441424	-0.386811
H64	H	-0.624888	-0.414707	-0.304783
H65	H	-0.534999	-0.361380	-0.330054
H66	H	-0.886472	-1.106935	-0.311258
O67	O	-0.296650	-1.143188	-0.944070
C68	C	-0.344111	-1.188593	-0.990639
H69	H	-0.407283	-1.159786	-1.004959
H70	H	-0.310137	-1.199994	-1.043174
H71	H	-0.353289	-1.242714	-0.961440
H72	H	-0.305154	-0.619974	-0.453735
O73	O	-0.506686	-0.948162	-0.953417
C74	C	-0.495224	-0.958770	-1.028986
H75	H	-0.467930	-1.016800	-1.038278
H76	H	-0.557664	-0.950961	-1.060972
H77	H	-0.450813	-0.917129	-1.048814
O78	O	-0.506877	-0.948140	-0.801825
C79	C	-0.589968	-0.960458	-0.824315
H80	H	-0.594185	-1.019062	-0.845643
H81	H	-0.631164	-0.952251	-0.775600
H82	H	-0.611743	-0.920023	-0.869887
O83	O	-0.296781	-0.474996	-0.460843
C84	C	-0.249761	-0.527525	-0.500336
H85	H	-0.283904	-0.580779	-0.504353
H86	H	-0.240955	-0.505738	-0.557942
H87	H	-0.186403	-0.538532	-0.470651
