data_functionalizedCrystal
_audit_creation_method	'MofGen! by Chris Wilmer'
_symmetry_space_group_name_H-M	'P1'
_symmetry_Int_Tables_number	1
_symmetry_cell_setting	triclinic
loop_
_symmetry_equiv_pos_as_xyz
  x,y,z
_cell_length_a	14.628931
_cell_length_b	14.560438
_cell_length_c	14.560438
_cell_angle_alpha	60.000095
_cell_angle_beta	90.000856
_cell_angle_gamma	59.997216
loop_
_atom_site_label
_atom_site_type_symbol
_atom_site_fract_x
_atom_site_fract_y
_atom_site_fract_z
Zr1	Zr	0.880554	1.005327	-0.120546
O2	O	0.734578	1.196940	-0.267198
O3	O	0.925311	0.813716	-0.075587
O4	O	0.925295	1.005330	-0.267195
O5	O	0.734598	1.005324	0.075550
O6	O	1.075727	1.005330	-0.267196
O7	O	0.734594	1.005326	-0.075591
O8	O	1.075756	0.662568	0.075556
O9	O	0.734568	1.348085	-0.267201
O10	O	1.056656	0.892528	-0.056416
O11	O	0.944393	0.892526	0.056379
O12	O	0.944374	1.118126	-0.169215
O13	O	0.832111	1.118124	-0.056420
Zr14	Zr	1.120481	1.005323	0.120505
Zr15	Zr	1.120475	1.005327	-0.120547
Zr16	Zr	0.880560	1.005323	0.120506
Zr17	Zr	0.880539	1.246387	-0.120551
Zr18	Zr	1.120496	0.764263	0.120510
O19	O	1.075724	1.196934	0.075546
O20	O	1.075715	1.196940	-0.267199
O21	O	0.734586	1.196934	0.075547
O22	O	1.266457	0.813710	0.267157
O23	O	1.266449	0.813716	-0.075588
O24	O	0.925320	0.813710	0.267158
O25	O	1.266437	1.005326	-0.075592
O26	O	1.075740	1.005321	0.267154
O27	O	0.925308	1.005321	0.267154
O28	O	1.266441	1.005324	0.075549
O29	O	0.925274	1.348085	-0.267202
O30	O	1.075761	0.662565	0.267160
O31	O	1.266467	0.662565	0.267160
O32	O	1.266462	0.662568	0.075556
O33	O	0.734573	1.348082	-0.075597
O34	O	0.925279	1.348082	-0.075597
O35	O	1.056661	0.892524	0.169173
O36	O	1.168924	0.892526	0.056378
O37	O	1.056642	1.118124	-0.056420
O38	O	0.944379	1.118122	0.056375
C39	C	1.000536	0.703796	-0.000015
C40	C	1.000542	0.601460	-0.000013
C41	C	0.700412	1.005325	-0.000020
C42	C	0.598559	1.005325	-0.000020
C43	C	1.083388	0.373967	0.083244
C44	C	1.083415	0.470102	0.083249
C45	C	0.917643	0.636683	-0.083294
C46	C	0.917621	0.540549	-0.083303
C47	C	0.553148	1.005326	-0.079150
C48	C	0.447878	1.005326	-0.079152
C49	C	1.300623	1.005325	-0.000021
C50	C	1.402476	1.005325	-0.000021
C51	C	1.000510	1.005330	-0.301540
C52	C	1.000507	1.005332	-0.403873
C53	C	1.000499	1.306854	-0.000026
C54	C	1.000493	1.409190	-0.000028
C55	C	0.941898	1.123090	-0.510829
C56	C	0.941912	1.123084	-0.606978
C57	C	1.059144	0.887551	-0.489201
C58	C	1.059137	0.887559	-0.393055
C59	C	1.000525	1.005320	0.301499
C60	C	1.000528	1.005318	0.403832
C61	C	1.300641	0.703796	-0.000016
C62	C	1.402500	0.601460	-0.000014
C63	C	1.000543	0.703791	0.301504
C64	C	1.000552	0.601453	0.403839
C65	C	1.300649	0.703791	0.301504
C66	C	1.402510	0.601453	0.403838
C67	C	0.700386	1.306859	-0.301545
C68	C	0.598525	1.409197	-0.403880
C69	C	0.700394	1.306854	-0.000026
C70	C	0.598535	1.409190	-0.000027
C71	C	1.000492	1.306859	-0.301546
C72	C	1.000483	1.409197	-0.403881
C73	C	1.391754	0.553381	-0.058888
C74	C	1.487465	0.457233	-0.058891
C75	C	1.604666	0.457248	0.058865
C76	C	1.508956	0.553401	0.058860
C77	C	1.059158	0.553372	0.510794
C78	C	1.059154	0.457224	0.606944
C79	C	0.941936	0.457243	0.489172
C80	C	0.941934	0.553396	0.393024
C81	C	1.508965	0.553373	0.393041
C82	C	1.604671	0.457225	0.489199
C83	C	1.487454	0.457240	0.606949
C84	C	1.391750	0.553394	0.510792
H85	H	1.150869	0.267012	0.151051
Br86	Br	1.749143	0.392016	0.138764
H87	H	0.894159	1.218988	-0.519644
H88	H	0.441518	1.005331	0.067726
Br89	Br	0.805175	0.814956	-0.196300
Br90	Br	1.195924	0.422290	0.196263
H91	H	1.478705	0.418093	-0.106834
Br92	Br	0.805119	0.588354	-0.196330
Br93	Br	0.533480	1.005308	0.112909
H94	H	1.517714	0.592551	0.106802
Br95	Br	1.247282	0.618606	-0.138792
H96	H	0.592206	1.005321	-0.146893
Br97	Br	1.138710	0.618591	0.525474
H98	H	1.106875	0.418082	0.694029
H99	H	0.894213	0.418101	0.480380
Br100	Br	0.382786	1.005344	-0.192082
H101	H	0.894188	1.218974	-0.694063
Br102	Br	0.862380	0.618667	0.247859
H103	H	1.106876	0.791665	-0.480406
H104	H	1.106869	0.791660	-0.305960
Br105	Br	1.523570	0.618601	0.247892
Br106	Br	1.749146	0.391982	0.474538
Br107	Br	1.472861	0.392010	0.752102
Br108	Br	1.247264	0.618662	0.525446
