data_functionalizedCrystal
_audit_creation_method	'MofGen! by Chris Wilmer'
_symmetry_space_group_name_H-M	'P1'
_symmetry_Int_Tables_number	1
_symmetry_cell_setting	triclinic
loop_
_symmetry_equiv_pos_as_xyz
  x,y,z
_cell_length_a	11.026607
_cell_length_b	10.654550
_cell_length_c	9.482900
_cell_angle_alpha	99.426343
_cell_angle_beta	78.636152
_cell_angle_gamma	96.535460
loop_
_atom_site_label
_atom_site_type_symbol
_atom_site_fract_x
_atom_site_fract_y
_atom_site_fract_z
O1	O	1.633381	0.511463	-0.120893
O2	O	1.279571	0.451467	-0.120895
O3	O	1.464610	0.300492	-0.120889
O4	O	1.448342	0.662438	-0.120899
O5	O	1.427025	0.331316	0.120903
O6	O	1.241986	0.482291	0.120896
O7	O	1.595797	0.542287	0.120898
Cu8	Cu	1.415460	0.515103	0.142975
Cu9	Cu	1.459908	0.478650	-0.142971
O10	O	1.410758	0.693262	0.120892
C11	C	1.215474	0.455811	0.000000
C12	C	1.080483	0.422816	-0.000001
C13	C	1.007444	0.513919	-0.000004
C14	C	0.867923	0.479820	-0.000005
C15	C	1.444623	0.268847	0.000005
C16	C	1.441050	0.128627	0.000000
C17	C	1.549998	0.072791	0.000005
C18	C	1.546634	-0.058961	-0.000005
C19	C	1.325364	-0.079031	-0.000019
C20	C	1.328730	0.052718	-0.000019
C21	C	1.662318	0.148701	0.000025
C22	C	1.771274	0.092866	0.000031
C23	C	1.767910	-0.038887	0.000021
C24	C	1.655590	-0.114805	0.000004
C25	C	1.659894	0.537943	-0.000000
C26	C	1.794887	0.570936	-0.000009
C27	C	1.430745	0.724907	-0.000005
C28	C	1.434319	0.865125	-0.000010
N29	N	1.384206	0.540743	0.344094
N30	N	1.491171	0.453003	-0.344091
C31	C	1.450681	0.486205	0.416295
C32	C	1.424686	0.507549	0.583712
H33	H	1.665069	0.255982	0.000038
C34	C	1.026169	0.285166	0.000300
C35	C	1.045738	0.241335	0.124714
C36	C	0.995711	0.114541	0.125049
H37	H	1.065514	0.233561	-0.083919
H38	H	0.939599	0.280501	0.000377
H39	H	1.132291	0.245991	0.124623
H40	H	1.006391	0.292905	0.208953
H41	H	0.909141	0.109876	0.125127
H42	H	1.035061	0.062947	0.040824
H43	H	1.008971	0.084789	0.209469
H44	H	1.240015	0.098180	-0.000022
C45	C	1.282752	0.624083	0.427182
C46	C	1.277167	0.628719	0.576717
C47	C	1.183732	0.705494	0.653298
H48	H	1.205196	0.589194	0.402503
H49	H	1.300731	0.707922	0.402390
H50	H	1.259180	0.544897	0.601499
H51	H	1.354700	0.663620	0.601439
H52	H	1.201711	0.789333	0.628506
H53	H	1.106183	0.670598	0.628607
H54	H	1.179938	0.708659	0.754764
H55	H	1.862727	0.154682	0.000009
H56	H	1.526832	0.423704	0.354170
C57	C	1.592737	0.369570	0.573355
C58	C	1.649004	0.323368	0.672414
C59	C	1.742558	0.246494	0.596419
H60	H	1.653151	0.418516	0.513955
H61	H	1.557606	0.299797	0.514021
H62	H	1.684136	0.393130	0.731723
H63	H	1.588622	0.274403	0.731817
H64	H	1.707427	0.176722	0.537086
H65	H	1.802964	0.295449	0.537022
H66	H	1.780739	0.215128	0.663619
H67	H	1.048204	0.617161	0.000001
H68	H	0.827174	0.376567	-0.000039
H69	H	1.348521	0.570043	0.645833
H70	H	1.856630	-0.084345	0.000012
C71	C	0.849464	0.708521	-0.000116
C72	C	0.977008	0.714986	-0.000163
C73	C	1.027331	0.841701	-0.000295
H74	H	0.810214	0.760123	0.084167
H75	H	0.836350	0.738484	-0.084480
H76	H	0.990113	0.685040	0.084193
H77	H	1.016291	0.663412	-0.084439
H78	H	1.014217	0.871663	-0.084659
H79	H	0.988072	0.893292	0.083989
H80	H	1.113876	0.846103	-0.000340
H81	H	1.652862	-0.222088	-0.000019
H82	H	1.233917	-0.140853	-0.000031
