data_functionalizedCrystal
_audit_creation_method	'MofGen! by Chris Wilmer'
_symmetry_space_group_name_H-M	'P1'
_symmetry_Int_Tables_number	1
_symmetry_cell_setting	triclinic
loop_
_symmetry_equiv_pos_as_xyz
  x,y,z
_cell_length_a	14.044191
_cell_length_b	16.109301
_cell_length_c	15.186229
_cell_angle_alpha	89.994299
_cell_angle_beta	90.001526
_cell_angle_gamma	91.673371
loop_
_atom_site_label
_atom_site_type_symbol
_atom_site_fract_x
_atom_site_fract_y
_atom_site_fract_z
O1	O	1.257646	-0.200464	0.073191
O2	O	1.590979	0.132869	0.406524
O3	O	1.924312	0.466203	0.739858
O4	O	0.981678	-0.193225	0.073202
O5	O	1.315012	0.140108	0.406535
O6	O	1.648345	0.473442	0.739869
O7	O	1.127243	-0.076378	0.073187
O8	O	1.460577	0.256956	0.406521
O9	O	1.793910	0.590289	0.739854
O10	O	1.112081	-0.317311	0.073206
O11	O	1.445414	0.016022	0.406539
O12	O	1.778748	0.349355	0.739873
O13	O	1.127232	-0.076374	-0.073270
O14	O	1.460565	0.256959	0.260063
O15	O	1.793899	0.590293	0.593397
O16	O	0.981667	-0.193221	-0.073255
O17	O	1.315001	0.140112	0.260078
O18	O	1.648334	0.473445	0.593412
O19	O	1.257635	-0.200460	-0.073266
O20	O	1.590968	0.132873	0.260067
O21	O	1.924301	0.466206	0.593401
Zn22	Zn	1.119649	-0.196840	-0.096514
Zn23	Zn	1.452982	0.136493	0.236819
Zn24	Zn	1.786316	0.469826	0.570153
Zn25	Zn	1.119664	-0.196845	0.096450
Zn26	Zn	1.452997	0.136488	0.429783
Zn27	Zn	1.786331	0.469821	0.763117
O28	O	1.112070	-0.317308	-0.073251
O29	O	1.445403	0.016026	0.260082
O30	O	1.778736	0.349359	0.593415
C31	C	0.946359	-0.190056	-0.000025
C32	C	1.279693	0.143277	0.333308
C33	C	1.613026	0.476610	0.666641
C34	C	0.841136	-0.180610	-0.000021
C35	C	1.174470	0.152723	0.333312
C36	C	1.507803	0.486056	0.666645
C37	C	0.590834	-0.230335	-0.000026
C38	C	0.924168	0.102998	0.333307
C39	C	1.257501	0.436332	0.666640
C40	C	0.648484	-0.163354	-0.000030
C41	C	0.981817	0.169979	0.333303
C42	C	1.315151	0.503313	0.666637
C43	C	0.755686	-0.172958	-0.000025
C44	C	1.089019	0.160376	0.333308
C45	C	1.422352	0.493709	0.666641
C46	C	0.483623	-0.220733	-0.000031
C47	C	0.816956	0.112601	0.333302
C48	C	1.150290	0.445934	0.666636
C49	C	1.126623	-0.045355	-0.000042
C50	C	1.459957	0.287978	0.333292
C51	C	1.793290	0.621311	0.666625
C52	C	1.124782	0.047077	-0.000043
C53	C	1.458115	0.380410	0.333290
C54	C	1.791449	0.713744	0.666624
C55	C	1.292954	-0.203629	-0.000037
C56	C	1.626287	0.129704	0.333296
C57	C	1.959620	0.463038	0.666630
C58	C	1.398177	-0.213075	-0.000035
C59	C	1.731510	0.120258	0.333298
C60	C	2.064843	0.453592	0.666632
C61	C	1.112690	-0.348330	-0.000020
C62	C	1.446023	-0.014997	0.333313
C63	C	1.779356	0.318337	0.666646
C64	C	1.114531	-0.440762	-0.000013
C65	C	1.447864	-0.107429	0.333320
C66	C	1.781198	0.225904	0.666653
C67	C	1.206876	0.263240	-0.000032
C68	C	1.540209	0.596573	0.333301
C69	C	1.873542	0.929906	0.666634
C70	C	1.205138	0.350089	-0.000025
C71	C	1.538472	0.683423	0.333308
C72	C	1.871805	1.016756	0.666642
C73	C	1.032431	0.343068	-0.000021
C74	C	1.365764	0.676402	0.333312
C75	C	1.699097	1.009735	0.666645
C76	C	1.034169	0.256220	-0.000022
C77	C	1.367503	0.589554	0.333311
C78	C	1.700836	0.922887	0.666644
C79	C	1.121395	0.216308	-0.000032
C80	C	1.454728	0.549642	0.333301
C81	C	1.788061	0.882975	0.666634
C82	C	1.117918	0.390006	-0.000024
C83	C	1.451252	0.723340	0.333309
C84	C	1.784585	1.056673	0.666643
C85	C	1.116034	0.484173	-0.000016
C86	C	1.449367	0.817506	0.333317
C87	C	1.782701	1.150839	0.666651
C88	C	1.123280	0.122136	-0.000039
C89	C	1.456613	0.455469	0.333295
C90	C	1.789946	0.788803	0.666628
N91	N	1.119646	-0.196837	-0.228207
N92	N	1.452979	0.136497	0.105127
N93	N	1.786313	0.469830	0.438460
C94	C	1.184128	-0.145118	-0.546131
C95	C	1.517461	0.188216	-0.212798
C96	C	1.850795	0.521549	0.120535
C97	C	1.184126	-0.145118	-0.453942
C98	C	1.517459	0.188216	-0.120608
C99	C	1.850792	0.521549	0.212725
C100	C	1.055189	-0.248568	-0.453939
C101	C	1.388523	0.084766	-0.120606
C102	C	1.721856	0.418099	0.212728
C103	C	1.055197	-0.248571	-0.546127
C104	C	1.388531	0.084762	-0.212794
C105	C	1.721864	0.418095	0.120540
C106	C	1.119666	-0.196841	-0.592221
C107	C	1.452999	0.136492	-0.258887
C108	C	1.786332	0.469825	0.074446
C109	C	1.119655	-0.196838	-0.407843
C110	C	1.452988	0.136495	-0.074510
C111	C	1.786322	0.469829	0.258823
C112	C	1.119652	-0.196838	-0.307887
C113	C	1.452985	0.136495	0.025446
C114	C	1.786318	0.469828	0.358780
C115	C	1.119670	-0.196842	-0.692183
C116	C	1.453004	0.136492	-0.358850
C117	C	1.786337	0.469825	-0.025517
N118	N	1.119675	-0.196843	0.228143
N119	N	1.453008	0.136491	0.561476
N120	N	1.786341	0.469824	0.894809
H121	H	1.277900	0.230746	-0.000038
H122	H	1.611234	0.564080	0.333295
H123	H	1.944567	0.897413	0.666628
N124	N	0.607229	-0.077838	-0.000026
N125	N	0.940562	0.255496	0.333307
N126	N	1.273895	0.588829	0.666640
H127	H	0.629326	-0.046600	-0.054317
H128	H	0.962659	0.286733	0.279016
H129	H	1.295993	0.620066	0.612350
H130	H	0.535392	-0.083075	0.000007
H131	H	0.868725	0.250258	0.333341
H132	H	1.202058	0.583591	0.666674
H133	H	1.002704	-0.290695	-0.583655
H134	H	1.336037	0.042638	-0.250322
H135	H	1.669370	0.375972	0.083011
N136	N	0.938360	0.386124	-0.000024
N137	N	1.271694	0.719457	0.333310
N138	N	1.605027	1.052791	0.666643
H139	H	0.900911	0.369478	-0.054315
H140	H	1.234244	0.702811	0.279018
H141	H	1.567578	1.036145	0.612351
H142	H	0.900986	0.369458	0.054304
H143	H	1.234320	0.702791	0.387637
H144	H	1.567653	1.036125	0.720971
H145	H	0.621988	-0.294886	-0.000019
H146	H	0.955321	0.038447	0.333315
H147	H	1.288655	0.371780	0.666648
N148	N	1.297334	0.400712	-0.000036
N149	N	1.630667	0.734045	0.333298
N150	N	1.964001	1.067378	0.666631
H151	H	1.300470	0.436894	0.054257
H152	H	1.633804	0.770227	0.387591
H153	H	1.967137	1.103561	0.720924
H154	H	1.352798	0.362193	-0.000077
H155	H	1.686131	0.695527	0.333257
H156	H	2.019465	1.028860	0.666590
H157	H	0.964556	0.218007	-0.000020
H158	H	1.297889	0.551341	0.333313
H159	H	1.631222	0.884674	0.666647
H160	H	1.236623	-0.102997	-0.583659
H161	H	1.569957	0.230336	-0.250326
H162	H	1.903290	0.563669	0.083008
H163	H	1.236618	-0.103001	-0.416418
H164	H	1.569951	0.230333	-0.083085
H165	H	1.903285	0.563666	0.250248
H166	H	1.002699	-0.290684	-0.416400
H167	H	1.336033	0.042650	-0.083067
H168	H	1.669366	0.375983	0.250267
