data_functionalizedCrystal
_audit_creation_method	'MofGen! by Chris Wilmer'
_symmetry_space_group_name_H-M	'P1'
_symmetry_Int_Tables_number	1
_symmetry_cell_setting	triclinic
loop_
_symmetry_equiv_pos_as_xyz
  x,y,z
_cell_length_a	23.532407
_cell_length_b	19.188930
_cell_length_c	17.666332
_cell_angle_alpha	90.023234
_cell_angle_beta	89.988854
_cell_angle_gamma	97.003272
loop_
_atom_site_label
_atom_site_type_symbol
_atom_site_fract_x
_atom_site_fract_y
_atom_site_fract_z
O1	O	0.071102	-0.925923	-0.063199
O2	O	0.080673	-0.722581	-0.063148
O3	O	-0.007031	-0.830384	-0.063161
O4	O	0.158806	-0.818120	-0.063186
O5	O	-0.007036	-0.830365	0.062735
O6	O	0.080669	-0.722562	0.062748
O7	O	0.071097	-0.925904	0.062697
Cu8	Cu	0.075883	-0.824231	0.074218
Cu9	Cu	0.075888	-0.824253	-0.074669
O10	O	0.158802	-0.818101	0.062711
C11	C	0.080361	-0.696561	-0.000193
C12	C	0.079431	-0.619060	-0.000173
C13	C	-0.028250	-0.830062	-0.000211
C14	C	-0.091469	-0.829123	-0.000205
N15	N	0.075878	-0.824221	0.178938
C16	C	-0.490449	-0.887029	-0.000261
C17	C	-0.549851	-0.886157	-0.000267
O18	O	-0.586482	-0.939837	-0.000308
N19	N	-0.572613	-0.822068	-0.000250
C20	C	-0.535970	-0.758848	-0.000236
O21	O	-0.560786	-0.704255	-0.000223
C22	C	-0.476569	-0.759721	-0.000235
C23	C	-0.453810	-0.823814	-0.000244
C24	C	-0.467690	-0.951117	-0.000271
C25	C	-0.408292	-0.951989	-0.000264
C26	C	-0.371653	-0.888773	-0.000247
C27	C	-0.394412	-0.824685	-0.000237
C28	C	-0.439927	-0.696501	-0.000226
C29	C	-0.380523	-0.697379	-0.000227
C30	C	-0.357764	-0.761472	-0.000236
C31	C	-0.298376	-0.762342	-0.000214
N32	N	-0.275614	-0.826430	-0.000230
C33	C	-0.312252	-0.889646	-0.000247
C34	C	-0.660717	-0.757019	-0.000237
C35	C	-0.720116	-0.756146	-0.000232
C36	C	-0.733993	-0.883455	-0.000264
C37	C	-0.674592	-0.884328	-0.000264
C38	C	-0.637954	-0.821108	-0.000254
C39	C	-0.187512	-0.891472	-0.000232
C40	C	-0.128108	-0.892339	-0.000222
C41	C	-0.114236	-0.765029	-0.000193
C42	C	-0.173634	-0.764163	-0.000199
C43	C	-0.210272	-0.827390	-0.000221
O44	O	-0.261710	-0.708690	-0.000176
O45	O	-0.287428	-0.944230	-0.000270
C46	C	0.180021	-0.818423	-0.000241
C47	C	0.243240	-0.819362	-0.000252
C48	C	0.071410	-0.951923	-0.000259
C49	C	0.072340	-1.029425	-0.000284
C50	C	0.130893	-0.573972	-0.000193
C51	C	0.130019	-0.501151	-0.000201
C52	C	0.077680	-0.473421	-0.000205
C53	C	0.026211	-0.518519	-0.000181
C54	C	0.027086	-0.591339	-0.000165
N55	N	0.037674	-0.365575	-0.043078
N56	N	0.036846	-0.296399	-0.043094
C57	C	0.075038	-0.254021	-0.000251
N58	N	0.114099	-0.283431	0.042600
N59	N	0.114929	-0.352613	0.042614
C60	C	0.076724	-0.394462	-0.000222
C61	C	0.125556	-0.129971	-0.000278
C62	C	0.124680	-0.057149	-0.000282
C63	C	0.020870	-0.074520	-0.000269
C64	C	0.021748	-0.147340	-0.000258
C65	C	0.074092	-0.175061	-0.000266
N66	N	0.075888	-0.824270	-0.179389
C67	C	0.037062	-0.871971	0.218542
C68	C	0.037059	-0.871975	0.297789
C69	C	0.075883	-0.824236	0.337430
C70	C	0.114702	-0.776476	0.297816
C71	C	0.114700	-0.776469	0.218570
N72	N	0.126298	-0.814998	0.461842
N73	N	0.126298	-0.815010	0.537123
C74	C	0.075891	-0.824254	0.576194
N75	N	0.025481	-0.833500	0.537141
N76	N	0.025482	-0.833493	0.461853
C77	C	0.075889	-0.824238	0.423359
C78	C	0.037068	-0.872011	0.701727
C79	C	0.037064	-0.872010	0.780976
C80	C	0.114713	-0.776515	0.781002
C81	C	0.114711	-0.776512	0.701754
C82	C	0.075889	-0.824264	0.662122
H83	H	-0.109581	-0.944533	-0.000227
H84	H	-0.497516	-1.002598	-0.000287
O85	O	0.182010	-0.159877	-0.000269
H86	H	0.206739	-0.141758	-0.051582
O87	O	-0.074711	-0.696850	-0.000171
H88	H	-0.082776	-0.666166	-0.051477
H89	H	0.146310	-0.737584	0.186324
O90	O	-0.464462	-0.627369	-0.000223
H91	H	-0.491197	-0.623904	0.051091
O92	O	-0.004808	-0.923502	0.658971
H93	H	-0.031808	-0.956700	0.699828
O94	O	-0.650046	-0.953455	-0.000288
H95	H	-0.685508	-0.997262	-0.000306
O96	O	-0.004798	-0.923522	0.823698
H97	H	-0.031785	-0.956730	0.782822
H98	H	0.173516	-0.596537	-0.000201
O99	O	0.156578	-0.725011	0.659031
H100	H	0.184195	-0.754201	0.622894
O101	O	0.156599	-0.725026	0.823734
H102	H	0.132706	-0.691258	0.859872
H103	H	-0.014822	-0.628050	-0.000150
O104	O	0.185524	-0.452503	-0.000224
H105	H	0.210577	-0.462338	-0.051545
O106	O	-0.227023	-0.959665	-0.000244
H107	H	-0.201209	-1.004370	-0.000241
H108	H	-0.020158	-0.184052	-0.000246
O109	O	-0.030243	-0.488618	-0.000185
H110	H	-0.022207	-0.430406	-0.000207
O111	O	-0.004815	-0.923463	0.175793
H112	H	-0.031812	-0.956663	0.216651
H113	H	-0.389768	-1.004180	-0.000274
O114	O	0.180188	-0.008512	-0.000300
H115	H	0.216730	-0.040026	-0.000309
O116	O	-0.035584	-0.044624	-0.000274
H117	H	-0.027548	0.013588	-0.000292
O118	O	-0.773516	-0.951642	-0.000290
H119	H	-0.818643	-0.940262	-0.000298
H120	H	-0.630888	-0.705535	-0.000222
H121	H	0.146312	-0.737605	0.330096
O122	O	-0.744662	-0.687018	-0.000212
H123	H	-0.709199	-0.643211	-0.000204
O124	O	-0.341004	-0.629191	-0.000207
H125	H	-0.366814	-0.584482	-0.000193
O126	O	-0.004803	-0.923486	0.340520
H127	H	-0.031794	-0.956693	0.299647
H128	H	-0.192165	-0.711973	-0.000171
