data_functionalizedCrystal
_audit_creation_method	'MofGen! by Chris Wilmer'
_symmetry_space_group_name_H-M	'P1'
_symmetry_Int_Tables_number	1
_symmetry_cell_setting	triclinic
loop_
_symmetry_equiv_pos_as_xyz
  x,y,z
_cell_length_a	12.811487
_cell_length_b	19.288864
_cell_length_c	17.766277
_cell_angle_alpha	90.023209
_cell_angle_beta	95.426172
_cell_angle_gamma	96.405576
loop_
_atom_site_label
_atom_site_type_symbol
_atom_site_fract_x
_atom_site_fract_y
_atom_site_fract_z
O1	O	0.130931	-0.922003	-0.053897
O2	O	0.630931	-0.422003	0.446103
O3	O	0.148593	-0.719830	-0.052640
O4	O	0.648593	-0.219830	0.447360
O5	O	-0.013051	-0.826002	-0.063697
O6	O	0.486949	-0.326002	0.436303
O7	O	0.292576	-0.815831	-0.042840
O8	O	0.792576	-0.315831	0.457160
O9	O	-0.013059	-0.825984	0.061491
O10	O	0.486941	-0.325984	0.561491
O11	O	0.148585	-0.719811	0.072548
O12	O	0.648585	-0.219811	0.572548
O13	O	0.130923	-0.921984	0.071291
O14	O	0.630923	-0.421984	0.571291
Cu15	Cu	0.139753	-0.820896	0.083350
Cu16	Cu	0.639753	-0.320896	0.583350
Cu17	Cu	0.139763	-0.820918	-0.064699
Cu18	Cu	0.639763	-0.320918	0.435301
O19	O	0.292567	-0.815812	0.082348
O20	O	0.792567	-0.315812	0.582348
C21	C	0.148021	-0.693941	0.009922
C22	C	0.648021	-0.193941	0.509922
C23	C	0.146315	-0.616829	0.009825
C24	C	0.646315	-0.116829	0.509825
C25	C	-0.052156	-0.825423	-0.003773
C26	C	0.447844	-0.325423	0.496227
C27	C	-0.168664	-0.823716	-0.011728
C28	C	0.331336	-0.323716	0.488272
C29	C	0.131495	-0.947873	0.008727
C30	C	0.631495	-0.447873	0.508727
C31	C	0.133201	-1.024985	0.008819
C32	C	0.633201	-0.524985	0.508819
C33	C	-0.387619	-0.820499	0.109819
C34	C	0.112381	-0.320499	0.609819
C35	C	-0.497088	-0.818895	0.102348
C36	C	0.002912	-0.318895	0.602348
C37	C	-0.497075	-0.818908	-0.034139
C38	C	0.002925	-0.318908	0.465861
C39	C	-0.387606	-0.820512	-0.026668
C40	C	0.112394	-0.320512	0.473332
C41	C	-0.332881	-0.821307	0.045313
C42	C	0.167119	-0.321307	0.545313
C43	C	-0.223409	-0.822906	0.052783
C44	C	0.276591	-0.322906	0.552783
C45	C	-0.223399	-0.822924	-0.083703
C46	C	0.276601	-0.322924	0.416297
C47	C	-0.332868	-0.821320	-0.091174
C48	C	0.167132	-0.321320	0.408826
C49	C	0.331672	-0.816391	0.022422
C50	C	0.831672	-0.316391	0.522422
C51	C	0.448180	-0.818099	0.030372
C52	C	0.948180	-0.318099	0.530372
N53	N	0.139746	-0.820885	0.187480
N54	N	0.639746	-0.320885	0.687480
C55	C	0.241161	-0.572604	0.016286
C56	C	0.741161	-0.072604	0.516286
C57	C	0.239558	-0.500149	0.016169
C58	C	0.739558	-0.000149	0.516169
C59	C	0.143104	-0.471922	0.009574
C60	C	0.643104	0.028078	0.509574
C61	C	0.048246	-0.516158	0.003117
C62	C	0.548246	-0.016158	0.503117
C63	C	0.049851	-0.588611	0.003242
C64	C	0.549851	-0.088611	0.503242
C65	C	0.067283	-0.363291	-0.039484
C66	C	0.567283	0.136709	0.460516
C67	C	0.065682	-0.290838	-0.039614
C68	C	0.565682	0.209162	0.460386
C69	C	0.138148	-0.248452	0.009191
C70	C	0.638148	0.251548	0.509191
C71	C	0.212234	-0.278526	0.058117
C72	C	0.712234	0.221474	0.558117
C73	C	0.213840	-0.350980	0.058242
C74	C	0.713840	0.149020	0.558242
C75	C	0.141353	-0.393360	0.009438
C76	C	0.641353	0.106640	0.509438
C77	C	0.231263	-0.125662	0.015525
C78	C	0.731263	0.374338	0.515525
C79	C	0.229656	-0.053206	0.015412
C80	C	0.729656	0.446794	0.515412
C81	C	0.038341	-0.069217	0.002353
C82	C	0.538341	0.430783	0.502353
C83	C	0.039951	-0.141671	0.002474
C84	C	0.539951	0.358329	0.502474
C85	C	0.136414	-0.169889	0.009057
C86	C	0.636414	0.330111	0.509057
N87	N	0.139762	-0.820934	-0.168830
N88	N	0.639762	-0.320934	0.331170
C89	C	0.068205	-0.867914	0.221973
C90	C	0.568205	-0.367914	0.721973
C91	C	0.068200	-0.867918	0.300774
C92	C	0.568200	-0.367918	0.800774
C93	C	0.139754	-0.820900	0.345081
C94	C	0.639754	-0.320900	0.845081
C95	C	0.211301	-0.773863	0.310579
C96	C	0.711301	-0.273863	0.810579
C97	C	0.211297	-0.773855	0.231778
C98	C	0.711297	-0.273855	0.731778
C99	C	0.235385	-0.812076	0.476447
C100	C	0.735385	-0.312076	0.976447
C101	C	0.235391	-0.812088	0.555246
C102	C	0.735391	-0.312088	1.055246
C103	C	0.139767	-0.820919	0.588128
C104	C	0.639767	-0.320919	1.088128
C105	C	0.044133	-0.829752	0.542201
C106	C	0.544133	-0.329752	1.042201
C107	C	0.044129	-0.829744	0.463401
C108	C	0.544129	-0.329744	0.963401
C109	C	0.139766	-0.820903	0.430528
C110	C	0.639766	-0.320903	0.930528
C111	C	0.068214	-0.867954	0.708066
C112	C	0.568214	-0.367954	1.208066
C113	C	0.068208	-0.867953	0.786869
C114	C	0.568208	-0.367953	1.286869
C115	C	0.211318	-0.773901	0.796673
C116	C	0.711318	-0.273901	1.296673
C117	C	0.211315	-0.773899	0.717871
C118	C	0.711315	-0.273899	1.217871
C119	C	0.139765	-0.820929	0.673573
C120	C	0.639765	-0.320929	1.173573
H121	H	-0.343058	-0.821128	0.168428
H122	H	0.156942	-0.321128	0.668428
H123	H	0.269560	-0.735579	0.346657
H124	H	0.769560	-0.235579	0.846657
H125	H	0.008270	-0.397796	-0.079232
H126	H	0.508270	0.102204	0.420768
N127	N	0.345199	-0.603039	0.023381
N128	N	0.845199	-0.103039	0.523381
H129	H	0.405041	-0.564024	0.027454
H130	H	0.905041	-0.064024	0.527454
H131	H	0.350040	-0.632727	0.070125
H132	H	0.850040	-0.132727	0.570125
H133	H	0.269555	-0.735558	0.203694
H134	H	0.769555	-0.235558	0.703694
N135	N	0.288487	-0.723183	0.844451
N136	N	0.788487	-0.223183	1.344451
H137	H	0.362952	-0.731387	0.835810
H138	H	0.862952	-0.231387	1.335810
H139	H	0.276485	-0.673879	0.829924
H140	H	0.776485	-0.173879	1.329924
H141	H	-0.030288	-0.493171	-0.002263
H142	H	0.469712	0.006829	0.497737
H143	H	-0.178818	-0.823573	-0.136228
H144	H	0.321182	-0.323573	0.363772
N145	N	-0.556130	-0.818028	0.171921
N146	N	-0.056130	-0.318028	0.671921
H147	H	-0.504847	-0.818776	0.218651
H148	H	-0.004847	-0.318776	0.718651
H149	H	-0.592839	-0.774357	0.172404
H150	H	-0.092839	-0.274357	0.672404
N151	N	0.338534	-0.802556	0.604776
N152	N	0.838534	-0.302556	1.104776
H153	H	0.324029	-0.803904	0.659685
H154	H	0.824029	-0.303904	1.159685
H155	H	0.382103	-0.841290	0.593948
H156	H	0.882103	-0.341290	1.093948
N157	N	-0.008968	-0.918641	0.337990
N158	N	0.491032	-0.418641	0.837990
H159	H	-0.054296	-0.948432	0.297970
H160	H	0.445704	-0.448432	0.797970
H161	H	0.031106	-0.949460	0.373399
H162	H	0.531106	-0.449460	0.873399
H163	H	0.274159	-0.375463	0.098082
H164	H	0.774159	0.124537	0.598082
H165	H	-0.541652	-0.818269	-0.092742
H166	H	-0.041652	-0.318269	0.407258
H167	H	0.309809	-0.148638	0.020897
H168	H	0.809809	0.351362	0.520897
N169	N	-0.391895	-0.820467	-0.168806
N170	N	0.108105	-0.320467	0.331194
H171	H	-0.469551	-0.819329	-0.163752
H172	H	0.030449	-0.319329	0.336248
H173	H	-0.364048	-0.777742	-0.196691
H174	H	0.135952	-0.277742	0.303309
H175	H	0.306894	-0.017198	0.020678
H176	H	0.806894	0.482802	0.520678
H177	H	-0.027386	-0.624620	-0.002020
H178	H	0.472614	-0.124620	0.497980
N179	N	0.341859	-0.452436	0.023136
N180	N	0.841859	0.047564	0.523136
H181	H	0.403210	-0.481307	0.027325
H182	H	0.903210	0.018693	0.527325
H183	H	0.345350	-0.422055	-0.023044
H184	H	0.845350	0.077945	0.476956
N185	N	0.290408	-0.232821	0.110757
N186	N	0.790408	0.267179	0.610757
H187	H	0.278150	-0.182359	0.103259
H188	H	0.778150	0.317641	0.603259
H189	H	0.280875	-0.246279	0.164816
H190	H	0.780875	0.253721	0.664816
H191	H	-0.040193	-0.046236	-0.003063
H192	H	0.459807	0.453764	0.496937
N193	N	0.288485	-0.723173	0.680670
N194	N	0.788485	-0.223173	1.180670
H195	H	0.362948	-0.731385	0.699454
H196	H	0.862948	-0.231385	1.199454
H197	H	0.277537	-0.730324	0.624034
H198	H	0.777537	-0.230324	1.124034
N199	N	-0.062348	-0.189377	-0.004495
N200	N	0.437652	0.310623	0.495505
H201	H	-0.123696	-0.160504	-0.008689
H202	H	0.376304	0.339496	0.491311
H203	H	-0.065849	-0.219815	-0.051135
H204	H	0.434151	0.280185	0.448865
N205	N	-0.014219	-0.258402	-0.092380
N206	N	0.485781	0.241598	0.407620
H207	H	-0.004172	-0.270226	-0.146420
H208	H	0.495828	0.229774	0.353580
H209	H	-0.087747	-0.277192	-0.080951
H210	H	0.412253	0.222808	0.419049
H211	H	0.313259	-0.804873	0.449682
H212	H	0.813259	-0.304873	0.949682
H213	H	0.009941	-0.906207	0.185907
H214	H	0.509941	-0.406207	0.685907
H215	H	-0.033739	-0.836935	0.426010
H216	H	0.466261	-0.336935	0.926010
H217	H	0.009950	-0.906247	0.671997
H218	H	0.509950	-0.406247	1.171997
N219	N	-0.164379	-0.823760	0.130415
N220	N	0.335621	-0.323760	0.630415
H221	H	-0.215671	-0.823008	0.170145
H222	H	0.284329	-0.323008	0.670145
H223	H	-0.127671	-0.867432	0.135878
H224	H	0.372329	-0.367432	0.635878
N225	N	-0.059015	-0.839281	0.577653
N226	N	0.440985	-0.339281	1.077653
H227	H	-0.044505	-0.837942	0.634541
H228	H	0.455495	-0.337942	1.134541
H229	H	-0.102578	-0.800542	0.560927
H230	H	0.397422	-0.300542	1.060927
N231	N	-0.008941	-0.918691	0.824078
N232	N	0.491059	-0.418691	1.324078
H233	H	-0.054256	-0.948487	0.784055
H234	H	0.445744	-0.448487	1.284055
H235	H	0.031155	-0.949502	0.859481
H236	H	0.531155	-0.449502	1.359481
