data_functionalizedCrystal
_audit_creation_method	'MofGen! by Chris Wilmer'
_symmetry_space_group_name_H-M	'P1'
_symmetry_Int_Tables_number	1
_symmetry_cell_setting	triclinic
loop_
_symmetry_equiv_pos_as_xyz
  x,y,z
_cell_length_a	18.050590
_cell_length_b	29.839131
_cell_length_c	18.050591
_cell_angle_alpha	90.020980
_cell_angle_beta	89.993166
_cell_angle_gamma	90.030587
loop_
_atom_site_label
_atom_site_type_symbol
_atom_site_fract_x
_atom_site_fract_y
_atom_site_fract_z
Zn1	Zn	1.135180	-0.179032	0.419586
Zn2	Zn	1.135075	-0.254148	0.295390
Zn3	Zn	1.011012	-0.179019	0.295445
Zn4	Zn	1.010918	-0.254121	0.419573
O5	O	1.073046	-0.216580	0.357498
O6	O	1.239090	-0.189013	0.403094
O7	O	1.118613	-0.244188	0.191473
O8	O	1.027566	-0.116153	0.311941
O9	O	1.239013	-0.244200	0.311848
O10	O	1.118792	-0.116163	0.403147
O11	O	1.027465	-0.188990	0.191513
O12	O	0.907075	-0.188964	0.311927
O13	O	1.027407	-0.244155	0.523499
O14	O	0.907006	-0.244142	0.403124
O15	O	1.118701	-0.188987	0.523509
O16	O	1.118522	-0.317012	0.311835
O17	O	1.027305	-0.316992	0.403071
C18	C	0.880094	-0.216549	0.357530
C19	C	0.797548	-0.216547	0.357562
C20	C	0.598082	-0.246638	0.407036
C21	C	0.548702	-0.205676	0.425315
C22	C	0.646418	-0.216572	0.357525
C23	C	0.548716	-0.257557	0.339246
C24	C	0.500433	-0.216600	0.357492
C25	C	0.598126	-0.175588	0.375839
C26	C	0.598144	-0.227497	0.289739
C27	C	0.548787	-0.186507	0.307992
C28	C	0.730516	-0.216557	0.357547
C29	C	0.416336	-0.216611	0.357470
C30	C	1.072912	-0.333303	0.357462
C31	C	1.072923	-0.383237	0.357471
C32	C	1.120630	-0.692878	0.310061
C33	C	1.120721	-0.880551	0.310090
O34	O	1.161177	-0.904814	0.269752
N35	N	1.073200	-0.904022	0.357554
C36	C	1.025657	-0.880572	0.405019
O37	O	0.985245	-0.904842	0.445396
C38	C	1.025569	-0.692900	0.404993
C39	C	1.073088	-0.669431	0.357520
C40	C	1.168145	-0.669409	0.262593
C41	C	1.168119	-0.622494	0.262583
C42	C	1.120577	-0.599047	0.310042
C43	C	1.073062	-0.622516	0.357510
C44	C	0.978030	-0.669450	0.452460
C45	C	0.978013	-0.622529	0.452451
C46	C	1.025532	-0.599061	0.404978
C47	C	1.025494	-0.552153	0.404960
N48	N	1.073015	-0.528682	0.357495
C49	C	1.120556	-0.552129	0.310036
C50	C	1.025705	-0.979102	0.405028
C51	C	1.025726	-1.026020	0.405033
C52	C	1.120791	-1.025996	0.310105
C53	C	1.120766	-0.979077	0.310096
C54	C	1.073226	-0.955631	0.357563
C55	C	1.120497	-0.453603	0.310019
C56	C	1.120464	-0.406684	0.310012
C57	C	1.025402	-0.406712	0.404942
C58	C	1.025431	-0.453627	0.404947
C59	C	1.072985	-0.477072	0.357483
O60	O	0.985065	-0.527862	0.445282
O61	O	1.160974	-0.527851	0.269676
C62	C	1.120656	-0.739793	0.310071
C63	C	1.073140	-0.763262	0.357539
C64	C	1.025599	-0.739815	0.404998
C65	C	1.073161	-0.810180	0.357545
C66	C	1.120703	-0.833627	0.310086
C67	C	1.168224	-0.810156	0.262621
C68	C	1.168197	-0.763240	0.262612
C69	C	0.978078	-0.763286	0.452463
C70	C	0.978107	-0.810202	0.452468
C71	C	1.025649	-0.833648	0.405009
C72	C	1.266752	-0.216611	0.357467
C73	C	1.349298	-0.216624	0.357453
C74	C	1.073055	-0.216569	0.551204
C75	C	1.073059	-0.216565	0.633750
C76	C	1.073201	-0.099402	0.357552
C77	C	1.073267	-0.049467	0.357574
C78	C	1.122710	-0.186572	0.882581
C79	C	1.140824	-0.227558	0.833158
C80	C	1.073058	-0.216581	0.930870
C81	C	1.054979	-0.175589	0.833211
C82	C	1.073060	-0.216571	0.784885
C83	C	1.091207	-0.257590	0.882535
C84	C	1.005330	-0.205592	0.882592
C85	C	1.023419	-0.246607	0.833192
C86	C	1.073058	-0.216587	1.014968
C87	C	1.073059	-0.216570	0.700789
C88	C	1.073039	-0.216596	1.164546
C89	C	1.073057	-0.216588	1.082001
H90	H	1.159160	-0.387577	0.271351
H91	H	0.619738	-0.140929	0.391351
C92	C	0.927976	-0.193020	0.911955
N93	N	0.869713	-0.183545	0.934073
C94	C	1.034317	-0.128761	0.803943
N95	N	1.018759	-0.093490	0.781901
H96	H	0.619730	-0.272020	0.448953
C97	C	1.179476	-0.152337	0.911882
N98	N	1.222234	-0.126554	0.933952
H99	H	1.159502	-1.045095	0.271463
H100	H	0.986990	-0.960016	0.443682
C101	C	1.173042	-0.953266	0.257875
N102	N	1.212420	-0.933828	0.218541
C103	C	0.519721	-0.152134	0.251411
N104	N	0.497827	-0.126243	0.208799
C105	C	0.973111	-0.380911	0.457147
N106	N	0.933731	-0.361477	0.496473
C107	C	0.973444	-1.051830	0.457250
N108	N	0.934067	-1.071269	0.496585
C109	C	1.218201	-0.240111	0.803817
N110	N	1.276482	-0.249561	0.781717
C111	C	1.220470	-0.737431	0.210385
N112	N	1.259843	-0.717994	0.171044
H113	H	0.527009	-0.292206	0.323801
H114	H	0.526986	-0.196445	0.482626
H115	H	1.159221	-0.472686	0.271371
C116	C	0.627508	-0.239985	0.212336
N117	N	0.649626	-0.249396	0.154036
C118	C	1.220388	-0.596685	0.210352
N119	N	1.259757	-0.577248	0.171008
H120	H	1.206863	-0.688495	0.223946
C121	C	0.925757	-0.695255	0.504688
N122	N	0.886382	-0.714691	0.544030
C123	C	0.925714	-0.596742	0.504670
N124	N	0.886321	-0.577319	0.544000
H125	H	1.106582	-0.292259	0.904111
C126	C	0.973156	-0.479444	0.457167
N127	N	0.933787	-0.498885	0.496506
C128	C	1.220519	-0.835956	0.210415
N129	N	1.259908	-0.855392	0.171099
C130	C	0.925828	-0.836012	0.504694
N131	N	0.886457	-0.855450	0.544035
C132	C	0.966712	-0.280927	0.804051
N133	N	0.924010	-0.306779	0.782093
H134	H	0.939365	-0.744199	0.491110
