data_functionalizedCrystal
_audit_creation_method	'MofGen! by Chris Wilmer'
_symmetry_space_group_name_H-M	'P1'
_symmetry_Int_Tables_number	1
_symmetry_cell_setting	triclinic
loop_
_symmetry_equiv_pos_as_xyz
  x,y,z
_cell_length_a	17.077404
_cell_length_b	18.101395
_cell_length_c	17.077396
_cell_angle_alpha	89.970929
_cell_angle_beta	89.982940
_cell_angle_gamma	90.031329
loop_
_atom_site_label
_atom_site_type_symbol
_atom_site_fract_x
_atom_site_fract_y
_atom_site_fract_z
Zn1	Zn	1.199991	-0.294813	-0.443848
Zn2	Zn	1.699991	0.205187	0.056152
Zn3	Zn	1.199885	-0.418666	-0.312585
Zn4	Zn	1.699885	0.081334	0.187415
Zn5	Zn	1.068728	-0.294843	-0.312596
Zn6	Zn	1.568728	0.205157	0.187404
Zn7	Zn	1.068672	-0.418618	-0.443808
Zn8	Zn	1.568672	0.081382	0.056192
O9	O	1.134319	-0.356735	-0.378209
O10	O	1.634319	0.143265	0.121791
O11	O	1.309824	-0.311250	-0.426448
O12	O	1.809824	0.188750	0.073552
O13	O	1.182466	-0.402272	-0.202739
O14	O	1.682466	0.097728	0.297261
O15	O	1.086209	-0.191206	-0.330029
O16	O	1.586209	0.308794	0.169971
O17	O	1.309746	-0.402244	-0.330009
O18	O	1.809746	0.097756	0.169991
O19	O	1.182647	-0.191184	-0.426459
O20	O	1.682647	0.308816	0.073541
O21	O	1.086106	-0.311300	-0.202748
O22	O	1.586106	0.188700	0.297252
O23	O	0.958874	-0.311254	-0.329990
O24	O	1.458874	0.188746	0.170010
O25	O	1.086112	-0.402163	-0.553660
O26	O	1.586112	0.097837	-0.053660
O27	O	0.958832	-0.402192	-0.426391
O28	O	1.458832	0.097808	0.073609
O29	O	1.182592	-0.311204	-0.553690
O30	O	1.682592	0.188796	-0.053690
O31	O	1.182411	-0.522292	-0.329970
O32	O	1.682411	-0.022292	0.170030
O33	O	1.086010	-0.522257	-0.426379
O34	O	1.586010	-0.022257	0.073621
C35	C	0.930371	-0.356722	-0.378188
C36	C	1.430371	0.143278	0.121812
C37	C	0.843121	-0.356734	-0.378197
C38	C	1.343121	0.143266	0.121803
C39	C	0.802130	-0.404156	-0.428312
C40	C	1.302130	0.095844	0.071688
C41	C	0.720150	-0.404158	-0.428325
C42	C	1.220150	0.095842	0.071675
C43	C	0.679162	-0.356740	-0.378218
C44	C	1.179162	0.143260	0.121782
C45	C	0.720159	-0.309312	-0.328100
C46	C	1.220159	0.190688	0.171900
C47	C	0.802138	-0.309308	-0.328092
C48	C	1.302138	0.190692	0.171908
C49	C	0.549289	-0.309327	-0.328119
C50	C	1.049289	0.190673	0.171881
C51	C	0.467304	-0.309333	-0.328126
C52	C	0.967304	0.190667	0.171874
C53	C	0.467301	-0.404177	-0.428352
C54	C	0.967301	0.095823	0.071648
C55	C	0.549280	-0.404172	-0.428344
C56	C	1.049280	0.095828	0.071656
C57	C	0.590271	-0.356745	-0.378225
C58	C	1.090271	0.143255	0.121775
C59	C	1.134214	-0.549146	-0.378186
C60	C	1.634214	-0.049146	0.121814
C61	C	1.134241	-0.631460	-0.378203
C62	C	1.634241	-0.131460	0.121797
C63	C	1.134413	-0.930551	-0.378245
C64	C	1.634413	-0.430551	0.121755
C65	C	1.073900	-0.899234	-0.439054
C66	C	1.573900	-0.399234	0.060946
C67	C	1.073613	-0.813616	-0.438863
C68	C	1.573613	-0.313616	0.061137
C69	C	1.134328	-0.782168	-0.378225
C70	C	1.634328	-0.282168	0.121775
C71	C	1.111934	-0.813322	-0.295495
C72	C	1.611934	-0.313322	0.204505
C73	C	1.111544	-0.898967	-0.295859
C74	C	1.611544	-0.398967	0.204141
C75	C	1.217452	-0.898893	-0.399437
C76	C	1.717452	-0.398893	0.100563
C77	C	1.216963	-0.813242	-0.401252
C78	C	1.716963	-0.313242	0.098748
C79	C	1.134281	-0.698309	-0.378208
C80	C	1.634281	-0.198309	0.121792
C81	C	1.134458	-1.014410	-0.378256
C82	C	1.634458	-0.514410	0.121744
C83	C	1.339063	-0.356749	-0.378231
C84	C	1.839063	0.143251	0.121769
C85	C	1.426313	-0.356755	-0.378241
C86	C	1.926313	0.143245	0.121759
C87	C	1.134358	-0.356675	-0.582954
C88	C	1.634358	0.143325	-0.082954
C89	C	1.134374	-0.356650	-0.670203
C90	C	1.634374	0.143350	-0.170203
C91	C	1.134446	-0.163573	-0.378250
C92	C	1.634446	0.336427	0.121750
C93	C	1.134500	-0.081259	-0.378267
C94	C	1.634500	0.418741	0.121733
C95	C	1.184620	-0.403932	-1.046016
C96	C	1.684620	0.096068	-0.546016
C97	C	1.184600	-0.403954	-0.964036
C98	C	1.684600	0.096046	-0.464036
C99	C	1.134425	-0.356597	-0.923053
C100	C	1.634425	0.143403	-0.423053
C101	C	1.084260	-0.309221	-0.964054
C102	C	1.584260	0.190779	-0.464054
C103	C	1.084277	-0.309204	-1.046033
C104	C	1.584277	0.190796	-0.546033
C105	C	1.084231	-0.309259	-0.793184
C106	C	1.584231	0.190741	-0.293184
C107	C	1.084215	-0.309275	-0.711200
C108	C	1.584215	0.190725	-0.211200
C109	C	1.184555	-0.404010	-0.711186
C110	C	1.684555	0.095990	-0.211186
C111	C	1.184571	-0.403992	-0.793165
C112	C	1.684571	0.096008	-0.293165
C113	C	1.134407	-0.356615	-0.834161
C114	C	1.634407	0.143385	-0.334161
C115	C	1.134326	-0.356741	-0.174261
C116	C	1.634326	0.143259	0.325739
C117	C	1.134461	-0.356558	-0.087012
C118	C	1.634461	0.143442	0.412988
H119	H	0.582650	-0.442788	-0.469141
H120	H	1.082650	0.057212	0.030859
H121	H	1.043360	-0.270711	-0.677833
H122	H	1.543360	0.229289	-0.177833
N123	N	0.423095	-0.455333	-0.482408
N124	N	0.923095	0.044667	0.017592
H125	H	0.364942	-0.448141	-0.474815
H126	H	0.864942	0.051859	0.025185
H127	H	0.437455	-0.443876	-0.538490
H128	H	0.937455	0.056124	-0.038490
N129	N	1.167363	-0.926416	-0.233776
N130	N	1.667363	-0.426416	0.266224
H131	H	1.167539	-0.982212	-0.233523
H132	H	1.667539	-0.482212	0.266477
H133	H	1.221845	-0.907657	-0.245428
H134	H	1.721845	-0.407657	0.254572
H135	H	1.043433	-0.270626	-1.079411
H136	H	1.543433	0.229374	-0.579411
N137	N	1.244518	-0.927441	-0.477973
N138	N	1.744518	-0.427441	0.022027
H139	H	1.253457	-0.884500	-0.514696
H140	H	1.753457	-0.384500	-0.014696
H141	H	1.294991	-0.955772	-0.471147
H142	H	1.794991	-0.455772	0.028853
H143	H	0.835496	-0.442772	-0.469113
H144	H	1.335496	0.057228	0.030887
N145	N	1.168474	-0.786346	-0.233838
N146	N	1.668474	-0.286346	0.266162
H147	H	1.209246	-0.753592	-0.259000
H148	H	1.709246	-0.253592	0.241000
H149	H	1.138974	-0.757363	-0.192826
H150	H	1.638974	-0.257363	0.307174
H151	H	1.225436	-0.442540	-0.930660
H152	H	1.725436	0.057460	-0.430660
N153	N	0.675937	-0.455316	-0.482366
N154	N	1.175937	0.044684	0.017634
H155	H	0.714342	-0.485361	-0.514100
H156	H	1.214342	0.014639	-0.014100
H157	H	0.641898	-0.489546	-0.450340
H158	H	1.141898	0.010454	0.049660
N159	N	1.238687	-0.455066	-0.837375
N160	N	1.738687	0.044934	-0.337375
H161	H	1.294779	-0.443576	-0.823120
H162	H	1.794779	0.056424	-0.323120
H163	H	1.226389	-0.507961	-0.823077
H164	H	1.726389	-0.007961	-0.323077
N165	N	1.238662	-0.455107	-0.666971
N166	N	1.738662	0.044893	-0.166971
H167	H	1.230956	-0.448006	-0.608820
H168	H	1.730956	0.051994	-0.108820
H169	H	1.226487	-0.507989	-0.681365
H170	H	1.726487	-0.007989	-0.181365
N171	N	1.032377	-0.785004	-0.271295
N172	N	1.532377	-0.285004	0.228705
H173	H	0.995750	-0.828100	-0.262809
H174	H	1.495750	-0.328100	0.237191
H175	H	1.037414	-0.755925	-0.221089
H176	H	1.537414	-0.255925	0.278911
N177	N	1.030123	-0.258164	-0.837404
N178	N	1.530123	0.241836	-0.337404
H179	H	0.998336	-0.228164	-0.799004
H180	H	1.498336	0.271836	-0.299004
H181	H	1.062108	-0.223890	-0.871431
H182	H	1.562108	0.276110	-0.371431
H183	H	1.043403	-0.270666	-0.930679
H184	H	1.543403	0.229334	-0.430679
N185	N	1.092162	-0.785709	-0.520120
N186	N	1.592162	-0.285709	-0.020120
H187	H	1.047096	-0.754836	-0.539982
H188	H	1.547096	-0.254836	-0.039982
H189	H	1.141233	-0.754586	-0.518375
H190	H	1.641233	-0.254586	-0.018375
H191	H	0.686780	-0.270701	-0.287305
H192	H	1.186780	0.229299	0.212695
H193	H	0.433934	-0.270712	-0.287333
H194	H	0.933934	0.229288	0.212667
H195	H	0.582661	-0.270700	-0.287314
H196	H	1.082661	0.229300	0.212686
H197	H	0.835512	-0.270688	-0.287287
H198	H	1.335512	0.229312	0.212713
N199	N	1.092262	-0.926451	-0.520575
N200	N	1.592262	-0.426451	-0.020575
H201	H	1.139984	-0.959347	-0.518884
H202	H	1.639984	-0.459347	-0.018884
H203	H	1.046167	-0.955343	-0.541437
H204	H	1.546167	-0.455343	-0.041437
N205	N	0.992088	-0.786554	-0.420260
N206	N	1.492088	-0.286554	0.079740
H207	H	0.954331	-0.805309	-0.461200
H208	H	1.454331	-0.305309	0.038800
H209	H	0.975819	-0.805469	-0.367036
H210	H	1.475819	-0.305469	0.132964
H211	H	1.233850	-0.792877	-0.462136
H212	H	1.733850	-0.292877	0.037864
N213	N	0.992863	-0.927823	-0.420700
N214	N	1.492863	-0.427823	0.079300
H215	H	0.995178	-0.960972	-0.373166
H216	H	1.495178	-0.460972	0.126834
H217	H	0.956826	-0.884817	-0.409796
H218	H	1.456826	-0.384817	0.090204
H219	H	1.050843	-0.919011	-0.277907
H220	H	1.550843	-0.419011	0.222093
H221	H	1.264433	-0.791831	-0.360190
H222	H	1.764433	-0.291831	0.139810
H223	H	1.262536	-0.919144	-0.355148
H224	H	1.762536	-0.419144	0.144852
N225	N	1.238743	-0.455006	-1.090216
N226	N	1.738743	0.044994	-0.590216
H227	H	1.270514	-0.485022	-1.051803
H228	H	1.770514	0.014978	-0.551803
H229	H	1.206774	-0.489267	-1.124217
H230	H	1.706774	0.010733	-0.624217
