data_functionalizedCrystal
_audit_creation_method	'MofGen! by Chris Wilmer'
_symmetry_space_group_name_H-M	'P1'
_symmetry_Int_Tables_number	1
_symmetry_cell_setting	triclinic
loop_
_symmetry_equiv_pos_as_xyz
  x,y,z
_cell_length_a	10.686220
_cell_length_b	18.101397
_cell_length_c	10.686551
_cell_angle_alpha	85.588535
_cell_angle_beta	90.308082
_cell_angle_gamma	94.402554
loop_
_atom_site_label
_atom_site_type_symbol
_atom_site_fract_x
_atom_site_fract_y
_atom_site_fract_z
Zn1	Zn	1.972256	-0.180551	-0.562355
Zn2	Zn	1.956003	-0.314594	-0.352573
Zn3	Zn	1.746371	-0.199496	-0.368669
Zn4	Zn	1.762433	-0.313093	-0.578351
O5	O	1.859266	-0.251933	-0.465487
O6	O	2.145643	-0.191032	-0.521096
O7	O	1.914670	-0.307882	-0.179162
O8	O	1.776415	-0.093344	-0.394404
O9	O	2.133702	-0.289512	-0.366971
O10	O	1.942371	-0.079425	-0.536704
O11	O	1.760655	-0.223320	-0.190987
O12	O	1.572958	-0.221865	-0.409915
O13	O	1.803791	-0.286954	-0.751776
O14	O	1.584759	-0.305324	-0.563967
O15	O	1.957946	-0.189576	-0.740024
O16	O	1.930245	-0.418033	-0.382482
O17	O	1.788031	-0.416930	-0.548360
C18	C	1.533342	-0.265488	-0.490424
C19	C	1.393913	-0.271303	-0.501122
C20	C	1.859154	-0.444351	-0.465435
C21	C	1.859224	-0.526662	-0.465445
C22	C	1.859393	-0.825740	-0.465548
C23	C	1.948580	-0.795102	-0.360943
C24	C	1.948934	-0.709457	-0.361169
C25	C	1.859309	-0.677364	-0.465496
C26	C	1.905302	-0.700456	-0.594982
C27	C	1.906009	-0.786096	-0.594395
C28	C	1.724042	-0.801421	-0.441831
C29	C	1.724471	-0.715888	-0.438829
C30	C	1.859260	-0.593508	-0.465475
C31	C	1.859445	-0.909596	-0.465577
C32	C	2.186461	-0.238326	-0.440454
C33	C	2.325893	-0.232528	-0.429786
C34	C	1.884473	-0.235985	-0.792690
C35	C	1.895215	-0.229188	-0.932125
C36	C	1.859414	-0.058761	-0.465565
C37	C	1.859478	0.023557	-0.465598
C38	C	1.834228	-0.267763	-0.139552
C39	C	1.823729	-0.274341	-0.000100
H40	H	1.374325	-0.194882	-0.360527
N41	N	1.333181	-0.318535	-0.588026
N42	N	1.397069	-0.354988	-0.655098
H43	H	1.354178	-0.388345	-0.716475
N44	N	1.826846	-0.673949	-0.694828
N45	N	1.735944	-0.637654	-0.671612
H46	H	1.680530	-0.618933	-0.742127
N47	N	1.911353	-0.690313	-0.240322
N48	N	1.884681	-0.740261	-0.155224
H49	H	1.858142	-0.726745	-0.069868
H50	H	2.048077	-0.811422	-0.375613
H51	H	1.964645	-0.185332	-0.980606
H52	H	2.048988	-0.683731	-0.376056
N53	N	1.911319	-0.828158	-0.239708
N54	N	1.818602	-0.874687	-0.228980
H55	H	1.792283	-0.898039	-0.143355
N56	N	2.030504	-0.804261	-0.621081
N57	N	2.116264	-0.753724	-0.640006
H58	H	2.204193	-0.766549	-0.658852
N59	N	1.736620	-0.329358	-0.939319
N60	N	1.669406	-0.371808	-1.003160
H61	H	1.607881	-0.410665	-0.960229
N62	N	1.828737	-0.811045	-0.694814
N63	N	1.774466	-0.765207	-0.765112
H64	H	1.719897	-0.782824	-0.836036
H65	H	2.003490	-0.673537	-0.616821
N66	N	1.674021	-0.836050	-0.326083
N67	N	1.644164	-0.797048	-0.241046
H68	H	1.608848	-0.821503	-0.159292
H69	H	1.689975	-0.701481	-0.343588
H70	H	1.657466	-0.821246	-0.518143
N71	N	1.635584	-0.689019	-0.528417
N72	N	1.616619	-0.621537	-0.538809
H73	H	1.553846	-0.602560	-0.602092
