data_functionalizedCrystal
_audit_creation_method	'MofGen! by Chris Wilmer'
_symmetry_space_group_name_H-M	'P1'
_symmetry_Int_Tables_number	1
_symmetry_cell_setting	triclinic
loop_
_symmetry_equiv_pos_as_xyz
  x,y,z
_cell_length_a	9.065218
_cell_length_b	16.992695
_cell_length_c	8.140239
_cell_angle_alpha	89.996131
_cell_angle_beta	89.997198
_cell_angle_gamma	87.842054
loop_
_atom_site_label
_atom_site_type_symbol
_atom_site_fract_x
_atom_site_fract_y
_atom_site_fract_z
O1	O	1.971073	0.115065	-0.136620
O2	O	1.542664	0.124504	-0.136623
O3	O	1.755151	0.005630	-0.136608
O4	O	1.758586	0.233939	-0.136634
O5	O	1.755138	0.005628	0.136619
O6	O	1.542651	0.124502	0.136605
O7	O	1.971060	0.115064	0.136607
Zn8	Zn	1.756854	0.119783	0.179986
Zn9	Zn	1.756871	0.119785	-0.180002
O10	O	1.758573	0.233938	0.136593
C11	C	1.487587	0.123596	-0.000009
C12	C	1.323492	0.120884	-0.000010
C13	C	1.750726	-0.023615	0.000005
C14	C	1.737542	-0.110753	0.000005
C15	C	1.864748	-0.160090	0.000007
C16	C	1.852352	-0.241964	-0.000009
C17	C	1.712748	-0.274500	-0.000015
C18	C	1.585533	-0.225157	-0.000022
C19	C	1.597931	-0.143284	-0.000019
C20	C	1.661364	-0.518463	-0.000038
C21	C	1.648976	-0.600343	-0.000037
C22	C	1.915797	-0.617144	-0.000026
C23	C	1.928182	-0.535269	-0.000012
C24	C	1.800967	-0.485933	-0.000029
N25	N	1.700074	-0.358189	-0.000026
N26	N	1.813642	-0.402245	-0.000029
C27	C	2.026138	0.115972	-0.000010
C28	C	2.190232	0.118684	-0.000020
C29	C	1.762998	0.263183	-0.000024
C30	C	1.776182	0.350320	-0.000034
N31	N	1.756853	0.119781	0.425669
N32	N	1.756882	0.119780	-0.425685
H33	H	1.978428	-0.133606	0.000022
H34	H	1.955937	-0.282132	-0.000003
H35	H	1.557776	-0.478303	-0.000051
C36	C	2.081749	-0.499482	-0.000037
C37	C	2.221678	-0.553752	-0.000058
C38	C	2.375247	-0.517964	-0.000087
C39	C	2.388886	-0.427907	-0.000095
C40	C	2.248953	-0.373632	-0.000074
C41	C	2.095384	-0.409419	-0.000045
H42	H	2.211585	-0.620422	-0.000053
H43	H	2.478834	-0.558143	-0.000103
H44	H	2.502567	-0.401415	-0.000116
H45	H	2.259045	-0.306962	-0.000080
H46	H	1.991796	-0.369241	-0.000030
C47	C	2.055726	-0.671415	-0.000028
C48	C	2.083894	-0.730021	0.141843
C49	C	2.223830	-0.784292	0.141833
C50	C	2.335598	-0.779958	-0.000048
C51	C	2.307433	-0.721350	-0.141930
C52	C	2.167497	-0.667079	-0.141920
H53	H	2.001154	-0.733232	0.246881
H54	H	2.244679	-0.827678	0.246864
H55	H	2.439187	-0.820133	-0.000055
H56	H	2.390173	-0.718139	-0.246968
H57	H	2.146648	-0.623693	-0.246951
H58	H	1.535289	-0.626830	-0.000016
C59	C	1.458003	-0.089009	-0.000019
C60	C	1.346249	-0.093330	-0.141902
C61	C	1.206317	-0.039055	-0.141912
C62	C	1.178140	0.019540	-0.000039
C63	C	1.289897	0.023863	0.141856
C64	C	1.429829	-0.030411	0.141866
H65	H	1.367105	-0.136708	-0.246935
H66	H	1.123587	-0.042256	-0.246953
H67	H	1.074554	0.059718	-0.000046
H68	H	1.269041	0.067241	0.246889
H69	H	1.512558	-0.027211	0.246906
H70	H	1.471864	-0.251654	-0.000038
