data_functionalizedCrystal
_audit_creation_method	'MofGen! by Chris Wilmer'
_symmetry_space_group_name_H-M	'P1'
_symmetry_Int_Tables_number	1
_symmetry_cell_setting	triclinic
loop_
_symmetry_equiv_pos_as_xyz
  x,y,z
_cell_length_a	14.853566
_cell_length_b	10.540539
_cell_length_c	13.330367
_cell_angle_alpha	89.997527
_cell_angle_beta	89.995295
_cell_angle_gamma	84.079953
loop_
_atom_site_label
_atom_site_type_symbol
_atom_site_fract_x
_atom_site_fract_y
_atom_site_fract_z
O1	O	1.197289	0.165720	-0.083352
O2	O	0.934939	0.185464	-0.083368
O3	O	1.072099	-0.009181	-0.083359
O4	O	1.060129	0.360364	-0.083362
O5	O	1.072079	-0.009185	0.083488
O6	O	0.934919	0.185459	0.083479
O7	O	1.197269	0.165715	0.083495
Cu8	Cu	1.066092	0.175587	0.098721
Cu9	Cu	1.066116	0.175592	-0.098595
O10	O	1.060109	0.360360	0.083485
C11	C	0.901335	0.184567	0.000053
C12	C	0.801237	0.181887	0.000047
C13	C	0.378000	0.170554	-0.090884
C14	C	0.377999	0.170550	0.091019
C15	C	0.472047	0.173067	0.091016
C16	C	0.519076	0.174329	0.000062
C17	C	0.472056	0.173075	-0.090890
C18	C	0.519073	0.174334	0.181966
C19	C	0.613126	0.176853	0.181967
C20	C	0.660157	0.178106	0.091011
C21	C	0.613132	0.176850	0.000056
C22	C	0.660161	0.178112	-0.090899
C23	C	0.613138	0.176847	-0.181855
C24	C	0.519087	0.174328	-0.181845
C25	C	0.754208	0.180625	0.091001
C26	C	0.754217	0.180633	-0.090905
C27	C	1.071192	-0.056476	0.000063
C28	C	1.068506	-0.197394	0.000057
C29	C	0.965588	-0.379688	-0.000323
C30	C	0.968311	-0.233100	0.000052
C31	C	1.116713	-0.259585	0.095338
C32	C	1.113293	-0.406092	0.095418
C33	C	1.115354	-0.406628	-0.094318
C34	C	1.116277	-0.259656	-0.095578
C35	C	1.230873	0.166612	0.000071
C36	C	1.330971	0.169292	0.000071
C37	C	1.061016	0.407655	0.000061
C38	C	1.063702	0.548574	0.000060
N39	N	1.066082	0.175583	0.237503
N40	N	1.066133	0.175587	-0.237376
C41	C	1.005378	0.261747	0.710121
C42	C	1.126878	0.089428	0.710098
C43	C	1.126867	0.089424	0.605080
C44	C	1.066113	0.175584	0.552577
C45	C	1.005368	0.261748	0.605093
C46	C	1.187617	0.003270	0.552556
C47	C	1.187610	0.003263	0.447531
C48	C	1.126850	0.089419	0.395027
C49	C	1.066102	0.175585	0.447549
C50	C	1.005348	0.261745	0.395047
C51	C	0.944595	0.347907	0.447568
C52	C	0.944608	0.347903	0.552589
C53	C	1.126837	0.089422	0.290005
C54	C	1.005337	0.261747	0.290019
H55	H	0.651440	0.177884	-0.255910
H56	H	0.792489	0.181667	0.165057
N57	N	0.468376	0.172985	-0.279944
H58	H	0.491541	0.094800	-0.319710
H59	H	0.401670	0.171255	-0.266059
N60	N	0.804930	0.181995	-0.189013
H61	H	0.837147	0.261668	-0.193076
H62	H	0.850709	0.104363	-0.193010
N63	N	1.208732	-0.470708	0.101166
H64	H	1.244429	-0.445182	0.041283
H65	H	1.238383	-0.443916	0.164843
H66	H	0.339710	0.169519	-0.164938
N67	N	0.327283	0.169179	0.189117
H68	H	0.371487	0.168620	0.246722
H69	H	0.282307	0.247642	0.193680
N70	N	1.192360	-0.003487	0.233357
H71	H	1.230853	-0.058063	0.282553
H72	H	1.157487	-0.059701	0.189793
N73	N	1.072419	-0.447947	-0.189981
H74	H	1.019046	-0.496132	-0.173106
H75	H	1.051209	-0.370280	-0.231327
H76	H	0.930379	-0.190077	-0.068249
H77	H	0.480775	0.173315	0.256016
H78	H	1.189327	-0.236239	-0.101327
H79	H	0.926017	-0.407851	-0.068651
N80	N	0.913356	-0.419116	0.089669
H81	H	0.952972	-0.483245	0.130684
H82	H	0.894191	-0.341667	0.132136
N83	N	0.917703	-0.177217	0.090672
H84	H	0.852783	-0.197571	0.087738
H85	H	0.947228	-0.215014	0.153658
N86	N	1.066080	-0.442942	0.189753
H87	H	1.047680	-0.364050	0.230894
H88	H	1.010476	-0.485416	0.171207
H89	H	0.651405	0.177880	0.256029
H90	H	1.190292	-0.238041	0.098885
H91	H	1.083209	-0.216619	0.166239
H92	H	1.081004	-0.218408	-0.166064
N93	N	1.211217	-0.470231	-0.095168
H94	H	1.221179	-0.527788	-0.034750
H95	H	1.221657	-0.522427	-0.158416
H96	H	1.237077	-0.066894	0.404775
N97	N	0.939801	0.354668	0.233394
H98	H	0.901319	0.409243	0.282603
H99	H	0.974665	0.410883	0.189811
N100	N	0.939860	0.354672	0.766768
H101	H	0.950816	0.444793	0.748487
H102	H	0.875811	0.339776	0.748480
H103	H	0.895146	0.418054	0.595358
N104	N	0.879067	0.440840	0.390942
H105	H	0.913875	0.497134	0.347362
H106	H	0.838857	0.392134	0.347432
H107	H	1.176347	0.019284	0.752849
H108	H	1.237086	-0.066873	0.595306
