data_functionalizedCrystal
_audit_creation_method	'MofGen! by Chris Wilmer'
_symmetry_space_group_name_H-M	'P1'
_symmetry_Int_Tables_number	1
_symmetry_cell_setting	triclinic
loop_
_symmetry_equiv_pos_as_xyz
  x,y,z
_cell_length_a	13.262390
_cell_length_b	15.625429
_cell_length_c	12.376457
_cell_angle_alpha	83.658771
_cell_angle_beta	63.168449
_cell_angle_gamma	79.415801
loop_
_atom_site_label
_atom_site_type_symbol
_atom_site_fract_x
_atom_site_fract_y
_atom_site_fract_z
O1	O	1.514092	0.017703	-0.566783
O2	O	1.189760	0.046961	-0.479057
O3	O	1.349225	-0.089576	-0.472117
O4	O	1.354627	0.154241	-0.573723
O5	O	1.309370	-0.055486	-0.285825
O6	O	1.149905	0.081051	-0.292766
O7	O	1.474237	0.051794	-0.380491
Zn8	Zn	1.305743	0.071835	-0.307050
Zn9	Zn	1.358254	0.026920	-0.552498
O10	O	1.314772	0.188331	-0.387431
C11	C	1.128114	0.065502	-0.373698
C12	C	1.003807	0.069947	-0.337301
C13	C	1.325593	-0.103584	-0.365106
C14	C	1.314540	-0.196110	-0.323787
C15	C	0.740316	0.008133	-0.640908
C16	C	0.857110	0.003952	-0.675104
C17	C	0.893790	0.020451	-0.590657
C18	C	0.813665	0.041130	-0.472006
C19	C	0.696860	0.045305	-0.437803
C20	C	0.850334	0.057623	-0.387552
C21	C	0.770209	0.078303	-0.268901
C22	C	0.653416	0.082477	-0.234705
C23	C	0.616736	0.065978	-0.319153
C24	C	0.967139	0.053448	-0.421755
C25	C	0.923683	0.090620	-0.218651
C26	C	0.806889	0.094801	-0.184454
C27	C	1.386776	-0.593323	-0.695582
C28	C	1.376378	-0.680258	-0.656720
C29	C	1.332932	-0.643082	-0.453638
C30	C	1.343331	-0.556142	-0.492484
C31	C	1.370252	-0.531270	-0.613457
C32	C	1.326807	-0.494090	-0.410359
C33	C	1.337200	-0.407157	-0.449201
C34	C	1.364117	-0.382276	-0.570168
C35	C	1.380645	-0.444337	-0.652299
C36	C	1.299878	-0.518962	-0.289385
C37	C	1.283354	-0.456910	-0.207260
C38	C	1.293755	-0.369976	-0.246103
C39	C	1.320672	-0.345096	-0.367070
C40	C	1.277226	-0.307916	-0.163972
C41	C	1.287619	-0.220983	-0.202814
C42	C	1.331064	-0.258163	-0.405912
C43	C	1.535883	0.033253	-0.485853
C44	C	1.660192	0.028806	-0.522257
C45	C	1.338405	0.202338	-0.494445
C46	C	1.349459	0.294863	-0.535771
N47	N	1.269914	0.102487	-0.139541
N48	N	1.394091	-0.003740	-0.720007
C49	C	1.477261	-0.074910	0.224412
C50	C	1.502331	-0.096364	0.107158
C51	C	1.444229	-0.046653	0.045478
C52	C	1.361052	0.024515	0.101062
C53	C	1.335985	0.045975	0.218324
C54	C	1.302953	0.074232	0.039390
C55	C	1.219776	0.145401	0.094974
C56	C	1.194713	0.166856	0.212225
C57	C	1.252816	0.117146	0.273905
C58	C	1.328020	0.052773	-0.077872
C59	C	1.186744	0.173658	-0.083960
C60	C	1.161674	0.195111	0.033294
H61	H	1.032366	0.036612	-0.518362
Cl62	Cl	0.706149	0.120797	-0.035297
H63	H	1.402577	-0.424087	-0.750809
H64	H	1.464645	-0.064124	-0.049996
Cl65	Cl	0.552690	0.108471	-0.085542
Cl66	Cl	1.432580	-0.036693	-0.147734
Cl67	Cl	1.606890	-0.185827	0.037282
H68	H	1.126995	0.224812	0.257477
H69	H	1.352996	-0.237913	-0.504422
Cl70	Cl	1.377188	-0.272989	-0.619002
H71	H	0.521634	0.069384	-0.291316
H72	H	1.274140	-0.170453	-0.135933
Cl73	Cl	1.550305	-0.137390	0.301947
H74	H	1.232401	0.134610	0.369385
H75	H	0.922341	-0.012890	-0.771708
H76	H	0.953546	0.104054	-0.149885
H77	H	1.389826	-0.730780	-0.723603
Cl78	Cl	1.299080	-0.674358	-0.301561
H79	H	1.255296	-0.328179	-0.065473
H80	H	1.291405	-0.589748	-0.257760
Cl81	Cl	1.420637	-0.562051	-0.847669
H82	H	1.093950	0.253059	0.078566
H83	H	1.261430	-0.477173	-0.108762
H84	H	0.988890	0.017046	-0.618507
Cl85	Cl	0.694200	-0.012649	-0.747038
Cl86	Cl	1.113702	0.236158	-0.161496
