data_functionalizedCrystal
_audit_creation_method	'MofGen! by Chris Wilmer'
_symmetry_space_group_name_H-M	'P1'
_symmetry_Int_Tables_number	1
_symmetry_cell_setting	triclinic
loop_
_symmetry_equiv_pos_as_xyz
  x,y,z
_cell_length_a	14.519709
_cell_length_b	13.596369
_cell_length_c	8.597275
_cell_angle_alpha	97.698824
_cell_angle_beta	84.510331
_cell_angle_gamma	90.012081
loop_
_atom_site_label
_atom_site_type_symbol
_atom_site_fract_x
_atom_site_fract_y
_atom_site_fract_z
O1	O	1.225510	-0.064224	0.205738
O2	O	1.558843	0.269109	0.539072
O3	O	1.892176	0.602442	0.872405
O4	O	0.957228	-0.062201	0.229966
O5	O	1.290561	0.271133	0.563300
O6	O	1.623895	0.604466	0.896633
O7	O	1.096647	-0.082569	-0.010598
O8	O	1.429980	0.250764	0.322736
O9	O	1.763314	0.584097	0.656069
O10	O	1.086091	-0.043855	0.446302
O11	O	1.419424	0.289478	0.779636
O12	O	1.752757	0.622811	1.112969
O13	O	1.096664	0.081012	-0.010611
O14	O	1.429998	0.414346	0.322722
O15	O	1.763331	0.747679	0.656056
O16	O	0.957245	0.101381	0.229953
O17	O	1.290579	0.434714	0.563286
O18	O	1.623912	0.768048	0.896620
O19	O	1.225527	0.099358	0.205725
O20	O	1.558860	0.432691	0.539058
O21	O	1.892194	0.766024	0.872392
Zn22	Zn	1.091389	0.126341	0.217837
Zn23	Zn	1.424722	0.459675	0.551170
Zn24	Zn	1.758056	0.793008	0.884504
Zn25	Zn	1.091366	-0.089185	0.217854
Zn26	Zn	1.424700	0.244149	0.551188
Zn27	Zn	1.758033	0.577482	0.884521
O28	O	1.086108	0.119726	0.446289
O29	O	1.419441	0.453060	0.779622
O30	O	1.752775	0.786393	1.112956
C31	C	0.922868	0.019491	0.228831
C32	C	1.256201	0.352824	0.562164
C33	C	1.589535	0.686157	0.895497
C34	C	0.820459	0.019193	0.225447
C35	C	1.153793	0.352526	0.558780
C36	C	1.487126	0.685859	0.892114
C37	C	0.445463	0.018182	0.212991
C38	C	0.778797	0.351515	0.546324
C39	C	1.112130	0.684849	0.879657
C40	C	0.549799	0.018462	0.216450
C41	C	0.883132	0.351796	0.549783
C42	C	1.216466	0.685129	0.883116
C43	C	0.632958	0.018686	0.219218
C44	C	0.966291	0.352020	0.552552
C45	C	1.299625	0.685353	0.885885
C46	C	0.737300	0.018969	0.222678
C47	C	1.070634	0.352302	0.556012
C48	C	1.403967	0.685635	0.889345
N49	N	1.091351	-0.236276	0.217855
N50	N	1.424684	0.097057	0.551188
N51	N	1.758018	0.430390	0.884521
C52	C	1.091354	-0.325274	0.217856
C53	C	1.424688	0.008059	0.551189
C54	C	1.758021	0.341393	0.884523
C55	C	1.091368	-0.436926	0.217852
C56	C	1.424701	-0.103592	0.551186
C57	C	1.758034	0.229741	0.884519
C58	C	1.091383	-0.525917	0.217841
C59	C	1.424717	-0.192584	0.551175
C60	C	1.758050	0.140749	0.884508
C61	C	1.091396	-0.637576	0.217835
C62	C	1.424729	-0.304243	0.551169
C63	C	1.758062	0.029090	0.884502
C64	C	1.259887	0.017664	0.206861
C65	C	1.593221	0.350997	0.540194
C66	C	1.926554	0.684331	0.873527
C67	C	1.362296	0.017956	0.210244
C68	C	1.695629	0.351289	0.543578
C69	C	2.028963	0.684622	0.876911
C70	C	1.095521	-0.005735	-0.069079
C71	C	1.428855	0.327598	0.264255
C72	C	1.762188	0.660931	0.597588
C73	C	1.092130	-0.020506	-0.243313
C74	C	1.425463	0.312828	0.090020
C75	C	1.758796	0.646161	0.423353
N76	N	1.091411	0.273432	0.217824
N77	N	1.424745	0.606766	0.551158
N78	N	1.758078	0.940099	0.884491
C79	C	1.087234	0.042890	0.504770
C80	C	1.420567	0.376224	0.838103
C81	C	1.753901	0.709557	1.171437
C82	C	1.090625	0.057654	0.679005
C83	C	1.423959	0.390987	1.012338
C84	C	1.757292	0.724321	1.345671
H85	H	1.090825	-0.098718	-0.310102
H86	H	1.424159	0.234616	0.023232
H87	H	1.757492	0.567949	0.356565
Br88	Br	1.092818	0.188024	-0.209682
Br89	Br	1.426152	0.521357	0.123651
Br90	Br	1.759485	0.854691	0.456985
