data_functionalizedCrystal
_audit_creation_method	'MofGen! by Chris Wilmer'
_symmetry_space_group_name_H-M	'P1'
_symmetry_Int_Tables_number	1
_symmetry_cell_setting	triclinic
loop_
_symmetry_equiv_pos_as_xyz
  x,y,z
_cell_length_a	12.594517
_cell_length_b	12.594516
_cell_length_c	18.101389
_cell_angle_alpha	89.985805
_cell_angle_beta	89.987706
_cell_angle_gamma	90.011773
loop_
_atom_site_label
_atom_site_type_symbol
_atom_site_fract_x
_atom_site_fract_y
_atom_site_fract_z
Zn1	Zn	1.627277	-0.423855	-0.418623
Zn2	Zn	1.627187	-0.601823	-0.294790
Zn3	Zn	1.449287	-0.423858	-0.294810
Zn4	Zn	1.449276	-0.601792	-0.418605
O5	O	1.538257	-0.512832	-0.356707
O6	O	1.776211	-0.447474	-0.402195
O7	O	1.603556	-0.578230	-0.191160
O8	O	1.472940	-0.274912	-0.311250
O9	O	1.776145	-0.578226	-0.311216
O10	O	1.603708	-0.274910	-0.402214
O11	O	1.472853	-0.447480	-0.191174
O12	O	1.300340	-0.447450	-0.311232
O13	O	1.472921	-0.578174	-0.522240
O14	O	1.300332	-0.578177	-0.402184
O15	O	1.603698	-0.447444	-0.522253
O16	O	1.603545	-0.750764	-0.311199
O17	O	1.472834	-0.750742	-0.402165
C18	C	1.261716	-0.512811	-0.356709
C19	C	1.143411	-0.512828	-0.356727
C20	C	1.003420	-0.584059	-0.406104
C21	C	1.074196	-0.609944	-0.338515
C22	C	1.074206	-0.486991	-0.424308
C23	C	1.003401	-0.538797	-0.289081
C24	C	1.003405	-0.415800	-0.374919
C25	C	1.074149	-0.441647	-0.307284
C26	C	1.538208	-0.789373	-0.356694
C27	C	1.538284	-0.907678	-0.356713
C28	C	1.609460	-0.976905	-0.307290
C29	C	1.635467	-1.047625	-0.374882
C30	C	1.512410	-1.047758	-0.289164
C31	C	1.564341	-0.976840	-0.424341
C32	C	1.441238	-0.976966	-0.338578
C33	C	1.467209	-1.047654	-0.406217
C34	C	1.815878	-0.512853	-0.356706
C35	C	1.934183	-0.512863	-0.356705
C36	C	1.538318	-0.512805	-0.549869
C37	C	1.538345	-0.512794	-0.632183
C38	C	1.538335	-0.235211	-0.356736
C39	C	1.538369	-0.116906	-0.356749
C40	C	1.538407	-0.512594	-0.931274
C41	C	1.455842	-0.594584	-0.899941
C42	C	1.456066	-0.594964	-0.814322
C43	C	1.538375	-0.512693	-0.782892
C44	C	1.650527	-0.543140	-0.813983
C45	C	1.650067	-0.543678	-0.899628
C46	C	1.509794	-0.399975	-0.899697
C47	C	1.507299	-0.400626	-0.814046
C48	C	1.538364	-0.512747	-0.699032
C49	C	1.538425	-0.512543	-1.015134
C50	C	1.538257	-0.512782	-0.164296
C51	C	1.538437	-0.512494	-0.081983
H52	H	1.669661	-0.945840	-0.265531
Cl53	Cl	1.688620	-0.668894	-0.780882
H54	H	1.717573	-1.078665	-0.390241
H55	H	1.429433	-0.372236	-0.921293
H56	H	1.372428	-0.575726	-0.920538
Cl57	Cl	1.121787	-0.348657	-0.242731
Cl58	Cl	0.955353	-0.289127	-0.398728
Cl59	Cl	1.602638	-0.305662	-0.930982
Cl60	Cl	1.598347	-0.928956	-0.512584
Cl61	Cl	1.374334	-1.095320	-0.470841
Cl62	Cl	1.478567	-1.095853	-0.200946
H63	H	0.972430	-0.560765	-0.231903
H64	H	1.105308	-0.465123	-0.481470
Cl65	Cl	1.314504	-0.929011	-0.314837
H66	H	1.372902	-0.575911	-0.793301
Cl67	Cl	1.484657	-0.722665	-0.933230
Cl68	Cl	1.485296	-0.723833	-0.782696
H69	H	1.105291	-0.692013	-0.323114
Cl70	Cl	1.687506	-0.670782	-0.930485
H71	H	0.972365	-0.644329	-0.447817
Cl72	Cl	1.748209	-0.455423	-0.931634
H73	H	1.563044	-0.336296	-0.792651
H74	H	1.713697	-0.485299	-0.793624
Cl75	Cl	1.379866	-0.365179	-0.782682
