data_functionalizedCrystal
_audit_creation_method	'MofGen! by Chris Wilmer'
_symmetry_space_group_name_H-M	'P1'
_symmetry_Int_Tables_number	1
_symmetry_cell_setting	triclinic
loop_
_symmetry_equiv_pos_as_xyz
  x,y,z
_cell_length_a	21.295418
_cell_length_b	25.639240
_cell_length_c	21.295411
_cell_angle_alpha	90.026709
_cell_angle_beta	90.043738
_cell_angle_gamma	90.048568
loop_
_atom_site_label
_atom_site_type_symbol
_atom_site_fract_x
_atom_site_fract_y
_atom_site_fract_z
Zn1	Zn	0.962346	-0.207990	0.356211
Zn2	Zn	1.462346	0.292010	0.856211
Zn3	Zn	0.962244	-0.295410	0.250928
Zn4	Zn	1.462244	0.204590	0.750928
Zn5	Zn	0.857069	-0.208014	0.250921
Zn6	Zn	1.357069	0.291986	0.750921
Zn7	Zn	0.857034	-0.295420	0.356124
Zn8	Zn	1.357034	0.204580	0.856124
O9	O	0.909673	-0.251708	0.303546
O10	O	1.409673	0.248292	0.803546
O11	O	1.050422	-0.219572	0.342285
O12	O	1.550422	0.280428	0.842285
O13	O	0.948264	-0.283822	0.162837
O14	O	1.448264	0.216178	0.662837
O15	O	0.871091	-0.134846	0.264922
O16	O	1.371091	0.365154	0.764922
O17	O	1.050347	-0.283799	0.264933
O18	O	1.550347	0.216201	0.764933
O19	O	0.948438	-0.134828	0.342278
O20	O	1.448438	0.365172	0.842278
O21	O	0.870993	-0.219613	0.162833
O22	O	1.370993	0.280387	0.662833
O23	O	0.768975	-0.219623	0.264837
O24	O	1.268975	0.280377	0.764837
O25	O	0.871032	-0.283816	0.444225
O26	O	1.371032	0.216184	0.944225
O27	O	0.768950	-0.283840	0.342129
O28	O	1.268950	0.216160	0.842129
O29	O	0.948404	-0.219582	0.444289
O30	O	1.448404	0.280418	0.944289
O31	O	0.948231	-0.368576	0.264848
O32	O	1.448231	0.131424	0.764848
O33	O	0.870934	-0.368584	0.342136
O34	O	1.370934	0.131416	0.842136
C35	C	0.746122	-0.251736	0.303474
C36	C	1.246122	0.248264	0.803474
C37	C	0.676154	-0.251760	0.303458
C38	C	1.176154	0.248240	0.803458
C39	C	0.909584	-0.387551	0.303497
C40	C	1.409584	0.112449	0.803497
C41	C	0.909604	-0.445665	0.303497
C42	C	1.409604	0.054335	0.803497
C43	C	0.643290	-0.285242	0.343643
C44	C	1.143290	0.214758	0.843643
C45	C	0.577548	-0.285229	0.343672
C46	C	1.077548	0.214771	0.843672
C47	C	0.544671	-0.251740	0.303503
C48	C	1.044671	0.248260	0.803503
C49	C	0.577543	-0.218252	0.263314
C50	C	1.077543	0.281748	0.763314
C51	C	0.643284	-0.218262	0.263292
C52	C	1.143284	0.281738	0.763292
N53	N	0.441395	-0.247648	0.248446
N54	N	0.941395	0.252352	0.748446
N55	N	0.378944	-0.247641	0.248469
N56	N	0.878944	0.252359	0.748469
C57	C	0.346596	-0.251707	0.303570
C58	C	0.846596	0.248293	0.803570
N59	N	0.379060	-0.255789	0.358647
N60	N	0.879060	0.244211	0.858647
N61	N	0.441517	-0.255798	0.358623
N62	N	0.941517	0.244202	0.858623
C63	C	0.473386	-0.251725	0.303523
C64	C	0.973386	0.248275	0.803523
C65	C	0.242448	-0.285176	0.343789
C66	C	0.742448	0.214824	0.843789
C67	C	0.176704	-0.285160	0.343819
C68	C	0.676704	0.214840	0.843819
C69	C	0.176700	-0.218185	0.263456
C70	C	0.676700	0.281815	0.763456
C71	C	0.242442	-0.218199	0.263432
C72	C	0.742442	0.281801	0.763432
C73	C	0.275312	-0.251697	0.303598
C74	C	0.775312	0.248303	0.803598
C75	C	0.949968	-0.805980	0.343898
C76	C	1.449968	-0.305980	0.843898
C77	C	0.949986	-0.860584	0.343911
C78	C	1.449986	-0.360584	0.843911
O79	O	0.984199	-0.888781	0.378211
O80	O	1.484199	-0.388781	0.878211
N81	N	0.909761	-0.887947	0.303607
N82	N	1.409761	-0.387947	0.803607
C83	C	0.869510	-0.860703	0.263292
C84	C	1.369510	-0.360703	0.763292
O85	O	0.835296	-0.888991	0.229012
O86	O	1.335296	-0.388991	0.729012
C87	C	0.869488	-0.806100	0.263283
C88	C	1.369488	-0.306100	0.763283
C89	C	0.909721	-0.778740	0.303585
C90	C	1.409721	-0.278740	0.803585
C91	C	0.990197	-0.778620	0.384197
C92	C	1.490197	-0.278620	0.884197
C93	C	0.990179	-0.724019	0.384184
C94	C	1.490179	-0.224019	0.884184
C95	C	0.949932	-0.696779	0.343871
C96	C	1.449932	-0.196779	0.843871
C97	C	0.909703	-0.724139	0.303571
C98	C	1.409703	-0.224139	0.803571
C99	C	0.829234	-0.778857	0.222972
C100	C	1.329234	-0.278857	0.722972
C101	C	0.829216	-0.724250	0.222966
C102	C	1.329216	-0.224250	0.722966
C103	C	0.869449	-0.696890	0.263268
C104	C	1.369449	-0.196890	0.763268
C105	C	0.869438	-0.642298	0.263244
C106	C	1.369438	-0.142298	0.763244
N107	N	0.909664	-0.614935	0.303548
N108	N	1.409664	-0.114935	0.803548
C109	C	0.949911	-0.642176	0.343861
C110	C	1.449911	-0.142176	0.843861
C111	C	0.869557	-0.975374	0.263315
C112	C	1.369557	-0.475374	0.763315
C113	C	0.869581	-1.029976	0.263321
C114	C	1.369581	-0.529976	0.763321
C115	C	0.950057	-1.029854	0.343941
C116	C	1.450057	-0.529854	0.843941
C117	C	0.950035	-0.975250	0.343931
C118	C	1.450035	-0.475250	0.843931
C119	C	0.909782	-0.948011	0.303619
C120	C	1.409782	-0.448011	0.803619
C121	C	0.949870	-0.527511	0.343829
C122	C	1.449870	-0.027511	0.843829
C123	C	0.949851	-0.472905	0.343810
C124	C	1.449851	0.027095	0.843810
C125	C	0.869373	-0.473033	0.263193
C126	C	1.369373	0.026967	0.763193
C127	C	0.869394	-0.527633	0.263209
C128	C	1.369394	-0.027633	0.763209
C129	C	0.909645	-0.554871	0.303532
C130	C	1.409645	-0.054871	0.803532
O131	O	0.835241	-0.614068	0.228964
O132	O	1.335241	-0.114068	0.728964
O133	O	0.984113	-0.613881	0.378142
O134	O	1.484113	-0.113881	0.878142
C135	C	1.073864	-0.251681	0.303619
C136	C	1.573864	0.248319	0.803619
C137	C	1.143832	-0.251670	0.303650
C138	C	1.643832	0.248330	0.803650
C139	C	0.909726	-0.251697	0.467736
C140	C	1.409726	0.248303	0.967736
C141	C	0.909748	-0.251693	0.537705
C142	C	1.409748	0.248307	1.037705
C143	C	0.909780	-0.115335	0.303609
C144	C	1.409780	0.384665	0.803609
C145	C	0.909825	-0.057221	0.303636
C146	C	1.409825	0.442779	0.803636
C147	C	0.909658	-0.251682	0.139995
C148	C	1.409658	0.248318	0.639995
C149	C	0.909757	-0.251539	0.070027
C150	C	1.409757	0.248461	0.570027
C151	C	0.950034	-0.218244	0.570606
C152	C	1.450034	0.281756	1.070606
C153	C	0.950033	-0.218221	0.636348
C154	C	1.450033	0.281779	1.136348
C155	C	0.909753	-0.251657	0.669187
C156	C	1.409753	0.248343	1.169187
C157	C	0.869459	-0.285108	0.636278
C158	C	1.369459	0.214892	1.136278
C159	C	0.869457	-0.285126	0.570537
C160	C	1.369457	0.214874	1.070537
N161	N	0.904894	-0.297396	0.772396
N162	N	1.404894	0.202604	1.272396
N163	N	0.904900	-0.297377	0.834848
N164	N	1.404900	0.202623	1.334848
C165	C	0.909757	-0.251604	0.867262
C166	C	1.409757	0.248396	1.367262
N167	N	0.914620	-0.205848	0.834866
N168	N	1.414620	0.294152	1.334866
N169	N	0.914617	-0.205867	0.772408
N170	N	1.414617	0.294133	1.272408
C171	C	0.909751	-0.251641	0.740473
C172	C	1.409751	0.248359	1.240473
C173	C	0.950044	-0.218128	0.971449
C174	C	1.450044	0.281872	1.471449
C175	C	0.950039	-0.218104	1.037192
C176	C	1.450039	0.281896	1.537192
C177	C	0.869468	-0.284995	1.037121
C178	C	1.369468	0.215005	1.537121
C179	C	0.869470	-0.285014	0.971379
C180	C	1.369470	0.214986	1.471379
C181	C	0.909761	-0.251581	0.938546
C182	C	1.409761	0.248419	1.438546
H183	H	0.670049	-0.312519	0.376350
H184	H	1.170049	0.187481	0.876350
C185	C	0.994106	-0.442810	0.388144
C186	C	1.494106	0.057190	0.888144
H187	H	0.988338	-0.406388	0.382361
H188	H	1.488338	0.093612	0.882361
H189	H	0.984876	-0.451745	0.430429
H190	H	1.484876	0.048255	0.930429
H191	H	1.036410	-0.451726	0.378982
H192	H	1.536410	0.048274	0.878982
C193	C	0.825149	-0.321928	0.534344
C194	C	1.325149	0.178072	1.034344
H195	H	0.801162	-0.341841	0.563315
H196	H	1.301162	0.158159	1.063315
H197	H	0.797737	-0.301944	0.508676
H198	H	1.297737	0.198056	1.008676
H199	H	0.849221	-0.344713	0.508719
H200	H	1.349221	0.155287	1.008719
H201	H	1.022938	-0.701746	0.417003
H202	H	1.522938	-0.201746	0.917003
H203	H	0.836779	-0.953198	0.230483
H204	H	1.336779	-0.453198	0.730483
H205	H	0.550770	-0.190983	0.230610
H206	H	1.050770	0.309017	0.730610
C207	C	0.541390	-0.322030	0.387914
C208	C	1.041390	0.177970	0.887914
H209	H	0.570382	-0.341974	0.411841
H210	H	1.070382	0.158026	0.911841
H211	H	0.515818	-0.302032	0.415385
H212	H	1.015818	0.197968	0.915385
H213	H	0.515671	-0.344788	0.363817
H214	H	1.015671	0.155212	0.863817
H215	H	0.836639	-0.549911	0.230387
H216	H	1.336639	-0.049911	0.730387
C217	C	1.034476	-0.808576	0.428542
C218	C	1.534476	-0.308576	0.928542
H219	H	1.058431	-0.784454	0.452534
H220	H	1.558431	-0.284454	0.952534
H221	H	1.010400	-0.829889	0.455949
H222	H	1.510400	-0.329889	0.955949
H223	H	1.061929	-0.829859	0.404495
H224	H	1.561929	-0.329859	0.904495
H225	H	0.670041	-0.190995	0.230567
H226	H	1.170041	0.309005	0.730567
C227	C	0.994351	-0.181345	0.935331
C228	C	1.494351	0.318655	1.435331
H229	H	1.018336	-0.161414	0.964344
H230	H	1.518336	0.338586	1.464344
H231	H	1.021765	-0.201344	0.909700
H232	H	1.521765	0.298656	1.409700
H233	H	0.970279	-0.158576	0.909673
H234	H	1.470279	0.341424	1.409673
C235	C	0.140544	-0.181341	0.219279
C236	C	0.640544	0.318659	0.719279
H237	H	0.096683	-0.186129	0.225047
H238	H	0.596683	0.313871	0.725047
H239	H	0.151377	-0.146226	0.228575
H240	H	0.651377	0.353774	0.728575
H241	H	0.151257	-0.188941	0.176957
H242	H	0.651257	0.311059	0.676957
C243	C	0.278607	-0.322017	0.387976
C244	C	0.778607	0.177983	0.887976
H245	H	0.249616	-0.341950	0.411921
H246	H	0.749616	0.158050	0.911921
H247	H	0.304197	-0.344774	0.363835
H248	H	0.804197	0.155226	0.863835
H249	H	0.304308	-0.302050	0.415442
H250	H	0.804308	0.197950	0.915442
H251	H	0.836606	-0.450845	0.230368
H252	H	1.336606	0.049155	0.730368
H253	H	0.269200	-0.190937	0.230705
H254	H	0.769200	0.309063	0.730705
C255	C	0.994347	-0.181465	0.534494
C256	C	1.494347	0.318535	1.034494
H257	H	1.018336	-0.161538	0.563508
H258	H	1.518336	0.338462	1.063508
H259	H	1.021758	-0.201467	0.508863
H260	H	1.521758	0.298533	1.008863
H261	H	0.970280	-0.158692	0.508837
H262	H	1.470280	0.341308	1.008837
H263	H	0.982843	-0.190863	1.063979
H264	H	1.482843	0.309137	1.563979
C265	C	0.994349	-0.181428	0.672550
C266	C	1.494349	0.318572	1.172550
H267	H	0.988576	-0.186205	0.716405
H268	H	1.488576	0.313795	1.216405
H269	H	1.036637	-0.189077	0.661807
H270	H	1.536637	0.310923	1.161807
H271	H	0.985162	-0.146300	0.661777
H272	H	1.485162	0.353700	1.161777
H273	H	0.836665	-0.312213	1.063858
H274	H	1.336665	0.187787	1.563858
C275	C	0.994151	-0.557465	0.388178
C276	C	1.494151	-0.057465	0.888178
H277	H	1.018109	-0.533343	0.412169
H278	H	1.518109	-0.033343	0.912169
H279	H	0.970073	-0.578775	0.415585
H280	H	1.470073	-0.078775	0.915585
H281	H	1.021601	-0.578750	0.364132
H282	H	1.521601	-0.078750	0.864132
C283	C	0.825152	-0.321887	0.672395
C284	C	1.325152	0.178113	1.172395
H285	H	0.801154	-0.341808	0.643382
H286	H	1.301154	0.158192	1.143382
H287	H	0.849214	-0.344657	0.698054
H288	H	1.349214	0.155343	1.198054
H289	H	0.797739	-0.301880	0.698024
H290	H	1.297739	0.198120	1.198024
H291	H	0.982796	-0.952977	0.376749
H292	H	1.482796	-0.452977	0.876749
H293	H	0.149947	-0.312424	0.376547
H294	H	0.649947	0.187576	0.876547
C295	C	0.994324	-1.059825	0.388288
C296	C	1.494324	-0.559825	0.888288
H297	H	0.988567	-1.096263	0.382523
H298	H	1.488567	-0.596263	0.882523
H299	H	1.036623	-1.050844	0.379131
H300	H	1.536623	-0.550844	0.879131
H301	H	0.985082	-1.050865	0.430573
H302	H	1.485082	-0.550865	0.930573
H303	H	0.836669	-0.312254	0.944590
H304	H	1.336669	0.187746	1.444590
H305	H	0.836826	-1.052248	0.230496
H306	H	1.336826	-0.552248	0.730496
C307	C	0.784973	-0.808941	0.178643
C308	C	1.284973	-0.308941	0.678643
H309	H	0.760998	-0.784890	0.154643
H310	H	1.260998	-0.284890	0.654643
H311	H	0.809064	-0.830236	0.151244
H312	H	1.309064	-0.330236	0.651244
H313	H	0.757537	-0.830252	0.202699
H314	H	1.257537	-0.330252	0.702699
H315	H	0.796435	-0.702074	0.190140
H316	H	1.296435	-0.202074	0.690140
