data_functionalizedCrystal
_audit_creation_method	'MofGen! by Chris Wilmer'
_symmetry_space_group_name_H-M	'P1'
_symmetry_Int_Tables_number	1
_symmetry_cell_setting	triclinic
loop_
_symmetry_equiv_pos_as_xyz
  x,y,z
_cell_length_a	10.723024
_cell_length_b	8.559649
_cell_length_c	7.681481
_cell_angle_alpha	85.086760
_cell_angle_beta	84.204337
_cell_angle_gamma	102.876733
loop_
_atom_site_label
_atom_site_type_symbol
_atom_site_fract_x
_atom_site_fract_y
_atom_site_fract_z
O1	O	-0.029042	-2.104705	-0.146401
O2	O	0.035334	-1.640206	-0.146409
O3	O	-0.179530	-1.883170	-0.146398
O4	O	0.185821	-1.861740	-0.146412
O5	O	-0.206029	-1.913074	0.146461
O6	O	0.008834	-1.670110	0.146450
O7	O	-0.055542	-2.134609	0.146458
Zn8	Zn	-0.027561	-1.907107	0.192952
Zn9	Zn	0.007353	-1.867707	-0.192903
O10	O	0.159322	-1.891644	0.146447
C11	C	-0.239119	-1.896563	0.000029
C12	C	-0.377194	-1.891896	0.000023
C13	C	0.026963	-1.595681	0.000019
C14	C	0.041484	-1.418460	0.000016
C15	C	-0.047170	-2.179133	0.000026
C16	C	-0.061691	-2.356353	0.000018
C17	C	-0.466115	-2.027846	0.000023
C18	C	-0.608823	-2.023026	0.000016
C19	C	0.218911	-1.878251	0.000016
C20	C	0.356988	-1.882917	0.000011
N21	N	-0.051391	-1.934009	0.456287
N22	N	0.031172	-1.840818	-0.456238
H23	H	-0.436592	-2.147806	0.000036
H24	H	-0.685189	-2.139410	0.000024
H25	H	-0.161133	-1.438759	0.000012
H26	H	-0.566656	-1.766528	0.000023
Cl27	Cl	-0.181499	-2.080908	0.572396
Cl28	Cl	-0.422762	-1.706677	0.000002
Cl29	Cl	0.195031	-1.291225	-0.000007
Cl30	Cl	0.161286	-1.693942	0.427660
