data_functionalizedCrystal
_audit_creation_method	'MofGen! by Chris Wilmer'
_symmetry_space_group_name_H-M	'P1'
_symmetry_Int_Tables_number	1
_symmetry_cell_setting	triclinic
loop_
_symmetry_equiv_pos_as_xyz
  x,y,z
_cell_length_a	12.837942
_cell_length_b	12.811445
_cell_length_c	15.186229
_cell_angle_alpha	95.435588
_cell_angle_beta	89.996406
_cell_angle_gamma	90.587018
loop_
_atom_site_label
_atom_site_type_symbol
_atom_site_fract_x
_atom_site_fract_y
_atom_site_fract_z
O1	O	0.139716	-1.406647	-0.185553
O2	O	0.639716	-0.906647	0.314447
O3	O	0.154898	-1.102581	-0.161274
O4	O	0.654898	-0.602581	0.338726
O5	O	-0.003625	-1.247872	-0.172869
O6	O	0.496375	-0.747872	0.327131
O7	O	0.298239	-1.261357	-0.173957
O8	O	0.798239	-0.761357	0.326043
O9	O	-0.003629	-1.247859	-0.026411
O10	O	0.496371	-0.747859	0.473589
O11	O	0.154894	-1.102568	-0.014816
O12	O	0.654894	-0.602568	0.485184
O13	O	0.139713	-1.406634	-0.039094
O14	O	0.639713	-0.906634	0.460906
Zn15	Zn	0.147303	-1.254599	-0.003701
Zn16	Zn	0.647303	-0.754599	0.496299
Zn17	Zn	0.147307	-1.254616	-0.196667
Zn18	Zn	0.647307	-0.754616	0.303333
O19	O	0.298236	-1.261343	-0.027499
O20	O	0.798236	-0.761343	0.472501
C21	C	-0.042267	-1.243310	-0.099277
C22	C	0.457733	-0.743310	0.400723
C23	C	-0.157403	-1.229724	-0.098194
C24	C	0.342597	-0.729724	0.401806
C25	C	0.154044	-1.063385	-0.084916
C26	C	0.654044	-0.563385	0.415084
C27	C	0.151493	-0.946613	-0.075591
C28	C	0.651493	-0.446613	0.424409
C29	C	0.140566	-1.445830	-0.115455
C30	C	0.640566	-0.945830	0.384545
C31	C	0.143118	-1.562603	-0.124784
C32	C	0.643118	-1.062603	0.375216
C33	C	-0.397653	-1.393054	-0.111253
C34	C	0.102347	-0.893054	0.388747
C35	C	-0.505835	-1.380293	-0.110236
C36	C	-0.005835	-0.880293	0.389764
C37	C	-0.481949	-1.191443	-0.095148
C38	C	0.018051	-0.691443	0.404852
C39	C	-0.373768	-1.204204	-0.096165
C40	C	0.126232	-0.704204	0.403835
C41	C	-0.331624	-1.305012	-0.104217
C42	C	0.168376	-0.805012	0.395783
C43	C	-0.223441	-1.317772	-0.105228
C44	C	0.276559	-0.817772	0.394772
C45	C	-0.199557	-1.128923	-0.090146
C46	C	0.300443	-0.628923	0.409854
C47	C	-0.307738	-1.116162	-0.089129
C48	C	0.192262	-0.616162	0.410871
C49	C	0.336878	-1.265905	-0.101093
C50	C	0.836878	-0.765905	0.398907
C51	C	0.452014	-1.279491	-0.102182
C52	C	0.952014	-0.779491	0.397818
C53	C	0.146722	-0.727195	-0.217756
C54	C	0.646722	-0.227195	0.282244
C55	C	0.144325	-0.617477	-0.208999
C56	C	0.644325	-0.117477	0.291001
C57	C	0.144310	-0.617454	-0.049321
C58	C	0.644310	-0.117454	0.450679
C59	C	0.146707	-0.727173	-0.058078
C60	C	0.646707	-0.227173	0.441922
C61	C	0.147911	-0.782040	-0.142298
C62	C	0.647911	-0.282040	0.357702
C63	C	0.150300	-0.891761	-0.151055
C64	C	0.650300	-0.391761	0.348945
C65	C	0.150293	-0.891736	0.008622
C66	C	0.650293	-0.391736	0.508622
C67	C	0.147896	-0.782017	0.017379
C68	C	0.647896	-0.282017	0.517379
N69	N	0.147299	-1.254594	0.127992
N70	N	0.647299	-0.754594	0.627992
C71	C	0.077130	-1.318959	0.440773
C72	C	0.577130	-0.818959	0.940773
C73	C	0.077130	-1.318956	0.348584
C74	C	0.577130	-0.818956	0.848584
C75	C	0.217482	-1.190257	0.358865
C76	C	0.717482	-0.690257	0.858865
C77	C	0.217486	-1.190266	0.451053
C78	C	0.717486	-0.690266	0.951053
C79	C	0.147304	-1.254615	0.492004
C80	C	0.647304	-0.754615	0.992004
C81	C	0.147300	-1.254604	0.307627
C82	C	0.647300	-0.754604	0.807627
C83	C	0.147301	-1.254600	0.207672
C84	C	0.647301	-0.754600	0.707672
C85	C	0.147304	-1.254620	0.591966
C86	C	0.647304	-0.754620	1.091966
N87	N	0.147305	-1.254624	0.671640
N88	N	0.647305	-0.754624	1.171640
H89	H	-0.189130	-1.399855	-0.111781
H90	H	0.310870	-0.899855	0.388219
H91	H	0.019989	-1.371352	0.306873
H92	H	0.519989	-0.871352	0.806873
H93	H	-0.559593	-1.451986	-0.115969
H94	H	-0.059593	-0.951986	0.384031
H95	H	0.274636	-1.137869	0.492768
H96	H	0.774636	-0.637869	0.992768
H97	H	0.274622	-1.137864	0.325513
H98	H	0.774622	-0.637864	0.825513
Br99	Br	-0.109940	-1.009430	-0.080580
Br100	Br	0.390060	-0.509430	0.419420
H101	H	-0.363340	-1.475136	-0.117801
H102	H	0.136660	-0.975136	0.382199
H103	H	0.019985	-1.371357	0.474113
H104	H	0.519985	-0.871357	0.974113
H105	H	-0.342067	-1.034087	-0.082577
H106	H	0.157933	-0.534087	0.417423
Br107	Br	-0.539163	-1.054643	-0.084253
Br108	Br	-0.039163	-0.554643	0.415747
Br109	Br	0.151884	-0.966174	0.111036
Br110	Br	0.651884	-0.466174	0.611036
H111	H	0.147698	-0.771869	-0.286331
H112	H	0.647698	-0.271869	0.213669
H113	H	0.151280	-0.936432	-0.219631
H114	H	0.651280	-0.436432	0.280369
H115	H	0.143360	-0.572827	-0.270444
H116	H	0.643360	-0.072827	0.229556
H117	H	0.146919	-0.737330	0.085949
H118	H	0.646919	-0.237330	0.585949
Br119	Br	0.142699	-0.542974	0.064968
Br120	Br	0.642699	-0.042974	0.564968
