data_functionalizedCrystal
_audit_creation_method	'MofGen! by Chris Wilmer'
_symmetry_space_group_name_H-M	'P1'
_symmetry_Int_Tables_number	1
_symmetry_cell_setting	triclinic
loop_
_symmetry_equiv_pos_as_xyz
  x,y,z
_cell_length_a	17.019372
_cell_length_b	17.019294
_cell_length_c	14.750779
_cell_angle_alpha	73.621426
_cell_angle_beta	106.375285
_cell_angle_gamma	83.656821
loop_
_atom_site_label
_atom_site_type_symbol
_atom_site_fract_x
_atom_site_fract_y
_atom_site_fract_z
O1	O	1.046176	0.100848	-0.001755
O2	O	0.812040	0.118127	-0.022523
O3	O	0.937748	-0.007584	-0.001744
O4	O	0.920468	0.226559	-0.022534
O5	O	0.973284	-0.043118	0.163780
O6	O	0.847576	0.082594	0.143001
O7	O	1.081712	0.065314	0.163769
Zn8	Zn	0.970286	0.068312	0.179665
Zn9	Zn	0.923466	0.115129	-0.038420
O10	O	0.956004	0.191026	0.142990
C11	C	0.799888	0.100406	0.057764
C12	C	0.710737	0.100534	0.050390
C13	C	0.955561	-0.055271	0.083494
C14	C	0.955688	-0.144423	0.090871
C15	C	0.205534	0.102216	0.004091
C16	C	0.289304	0.102094	0.011034
C17	C	0.350551	0.082669	0.104732
C18	C	0.328026	0.063357	0.191495
C19	C	0.244258	0.063475	0.184552
C20	C	0.604444	0.081340	0.130209
C21	C	0.688216	0.081227	0.137146
C22	C	0.649488	0.119962	-0.043317
C23	C	0.565720	0.120082	-0.050251
C24	C	0.543203	0.100766	0.036512
C25	C	0.436177	0.082545	0.111831
C26	C	0.457579	0.100884	0.029413
C27	C	0.936379	-0.166934	0.004111
C28	C	0.936493	-0.250702	0.011045
C29	C	0.955923	-0.311959	0.104742
C30	C	0.975231	-0.289444	0.191508
C31	C	0.975110	-0.205676	0.184573
C32	C	0.957250	-0.565851	0.130197
C33	C	0.957371	-0.649623	0.137126
C34	C	0.918632	-0.610875	-0.043338
C35	C	0.918518	-0.527109	-0.050265
C36	C	0.937822	-0.504600	0.036501
C37	C	0.956043	-0.397584	0.111832
C38	C	0.937696	-0.418975	0.029409
C39	C	1.093863	0.083035	0.083480
C40	C	1.183013	0.082909	0.090847
C41	C	0.938190	0.238713	0.057749
C42	C	0.938062	0.327866	0.050366
N43	N	1.002245	0.036361	0.328503
N44	N	0.891513	0.147074	-0.187256
C45	C	0.802255	0.236275	0.647270
C46	C	0.824656	0.213890	0.751471
C47	C	0.935992	0.102613	0.769832
C48	C	0.913598	0.124986	0.665631
C49	C	0.846730	0.191818	0.604358
C50	C	0.958072	0.080528	0.622718
C51	C	0.935683	0.102902	0.518527
C52	C	0.868818	0.169733	0.457247
C53	C	0.824340	0.214192	0.500166
C54	C	1.024944	0.013700	0.683993
C55	C	1.069419	-0.030757	0.641081
C56	C	1.047025	-0.008387	0.536887
C57	C	0.980161	0.058444	0.475608
C58	C	1.091504	-0.052845	0.493968
C59	C	1.069114	-0.030471	0.389776
C60	C	0.957771	0.080818	0.371416
H61	H	0.155670	0.118040	-0.072209
H62	H	0.971865	-0.447469	0.188120
Cl63	Cl	0.405023	0.038936	0.309289
Cl64	Cl	1.020055	0.018600	0.846867
Cl65	Cl	0.740266	0.298203	0.423133
H66	H	0.515857	0.135899	-0.126551
Cl67	Cl	0.840674	0.197864	0.326261
H68	H	0.307635	0.117811	-0.059612
H69	H	0.667832	0.135686	-0.113954
Cl70	Cl	0.765213	0.056804	0.254947
H71	H	1.105331	-0.066673	0.354837
Cl72	Cl	0.215948	0.039194	0.293623
H73	H	0.903315	0.135234	0.321524
H74	H	0.788435	0.250100	0.786403
Cl75	Cl	0.981804	-0.726634	0.254925
H76	H	1.123866	-0.085170	0.690981
Cl77	Cl	0.513178	0.058135	0.229619
Cl78	Cl	0.576145	0.057079	0.239282
H79	H	1.043174	-0.004511	0.768832
H80	H	0.407709	0.116697	-0.046876
Cl81	Cl	0.718182	0.320287	0.570237
H82	H	0.920561	-0.117063	-0.072186
Cl83	Cl	1.175572	-0.136852	0.571006
H84	H	0.920773	-0.269025	-0.059604
H85	H	0.902698	-0.477237	-0.126562
H86	H	0.902914	-0.629211	-0.113978
H87	H	0.972985	-0.547538	0.200850
H88	H	0.990823	-0.187349	0.255221
Cl89	Cl	0.999647	-0.366451	0.309298
H90	H	0.921871	-0.369096	-0.046878
