data_functionalizedCrystal
_audit_creation_method	'MofGen! by Chris Wilmer'
_symmetry_space_group_name_H-M	'P1'
_symmetry_Int_Tables_number	1
_symmetry_cell_setting	triclinic
loop_
_symmetry_equiv_pos_as_xyz
  x,y,z
_cell_length_a	17.019311
_cell_length_b	17.038272
_cell_length_c	8.965430
_cell_angle_alpha	90.000179
_cell_angle_beta	86.116475
_cell_angle_gamma	87.245400
loop_
_atom_site_label
_atom_site_type_symbol
_atom_site_fract_x
_atom_site_fract_y
_atom_site_fract_z
O1	O	1.053364	0.099619	-0.259340
O2	O	0.824551	0.112315	-0.229953
O3	O	0.937597	-0.007847	-0.244460
O4	O	0.940317	0.219781	-0.244833
O5	O	0.937588	-0.007839	0.003620
O6	O	0.824541	0.112323	0.018127
O7	O	1.053354	0.099627	-0.011260
Cu8	Cu	0.938947	0.105976	0.026085
Cu9	Cu	0.938958	0.105966	-0.267298
O10	O	0.940307	0.219789	0.003247
C11	C	0.795124	0.111837	-0.102134
C12	C	0.707457	0.110390	-0.090875
C13	C	0.211627	0.102236	-0.020413
C14	C	0.293999	0.103595	-0.030995
C15	C	0.335192	0.104264	-0.171517
C16	C	0.294006	0.103582	-0.301465
C17	C	0.211635	0.102229	-0.290881
C18	C	0.583900	0.108355	-0.210239
C19	C	0.666278	0.109706	-0.220813
C20	C	0.666265	0.109720	0.049658
C21	C	0.583892	0.108362	0.060230
C22	C	0.542714	0.107684	-0.069718
C23	C	0.419390	0.105651	-0.182338
C24	C	0.458517	0.106304	-0.058897
C25	C	0.935119	-0.036969	-0.120102
C26	C	0.927738	-0.123756	-0.119155
C27	C	0.995499	-0.173927	-0.127856
C28	C	0.988559	-0.255472	-0.126979
C29	C	0.913859	-0.286844	-0.117390
C30	C	0.846094	-0.236667	-0.108693
C31	C	0.853034	-0.155124	-0.109581
C32	C	0.889341	-0.532581	-0.114262
C33	C	0.882406	-0.614131	-0.113370
C34	C	1.024872	-0.632930	-0.131659
C35	C	1.031806	-0.551385	-0.132537
C36	C	0.964041	-0.501215	-0.123848
C37	C	0.906764	-0.370196	-0.116489
C38	C	0.971136	-0.417865	-0.124760
C39	C	1.082780	0.100105	-0.139082
C40	C	1.170447	0.101552	-0.150351
C41	C	0.942786	0.248911	-0.121114
C42	C	0.950166	0.335698	-0.122071
N43	N	0.938944	0.105982	0.232435
N44	N	0.938966	0.105954	-0.473648
C45	C	0.886646	0.161535	0.336452
C46	C	0.958942	0.176627	0.426579
C47	C	0.866679	0.090896	0.438431
C48	C	1.011278	0.121109	0.320368
C49	C	0.918967	0.035348	0.332218
C50	C	0.991312	0.050410	0.422294
H51	H	0.424974	0.105763	0.055516
O52	O	1.068046	-0.143419	-0.136906
C53	C	1.076316	-0.096799	-0.009504
H54	H	1.033800	-0.116036	0.085761
H55	H	1.139394	-0.104193	0.025517
H56	H	1.062442	-0.032472	-0.036768
H57	H	0.785271	-0.262216	-0.100895
H58	H	0.842465	0.208557	0.298533
O59	O	0.459489	0.106401	-0.318751
C60	C	0.502732	0.174870	-0.332422
H61	H	0.513594	0.197647	-0.216407
H62	H	0.561650	0.160598	-0.397201
H63	H	0.467921	0.221730	-0.394712
O64	O	1.054462	-0.304096	-0.135365
C65	C	1.121882	-0.258920	-0.144043
H66	H	1.105940	-0.198038	-0.095029
H67	H	1.169689	-0.289056	-0.078149
H68	H	1.144534	-0.253137	-0.265962
O69	O	0.706172	0.110487	0.175989
C70	C	0.681667	0.177848	0.261372
H71	H	0.620399	0.199426	0.230781
H72	H	0.679828	0.162590	0.385325
H73	H	0.724956	0.225998	0.237056
O74	O	1.084169	0.136578	0.259071
C75	C	1.079216	0.205413	0.172247
H76	H	1.024442	0.242697	0.212358
H77	H	1.133914	0.240351	0.184313
H78	H	1.075286	0.188852	0.049865
O79	O	0.706252	0.110505	-0.357354
C80	C	0.681732	0.177842	-0.436488
H81	H	0.656013	0.224770	-0.354060
H82	H	0.734437	0.201451	-0.504581
H83	H	0.634920	0.161759	-0.514812
O84	O	0.898631	-0.035844	0.282708
C85	C	0.822359	-0.051512	0.343138
H86	H	0.788788	0.006165	0.375413
H87	H	0.789616	-0.083413	0.256324
H88	H	0.826995	-0.089960	0.446540
H89	H	1.092634	-0.525848	-0.140345
O90	O	0.787155	-0.106464	-0.101318
C91	C	0.742143	-0.120657	-0.224042
H92	H	0.757360	-0.182537	-0.268827
H93	H	0.676740	-0.114844	-0.186753
H94	H	0.755931	-0.076069	-0.315781
O95	O	1.090671	-0.681698	-0.140374
C96	C	1.090914	-0.729440	-0.268873
H97	H	1.052585	-0.699530	-0.353747
H98	H	1.153837	-0.738678	-0.320085
H99	H	1.066519	-0.788715	-0.236694
H100	H	1.035600	0.003416	0.459925
O101	O	0.809882	-0.644702	-0.104266
C102	C	0.801614	-0.691297	-0.231702
H103	H	0.862426	-0.711669	-0.282338
H104	H	0.766593	-0.744664	-0.198307
H105	H	0.769138	-0.655238	-0.317506
H106	H	1.031957	-0.392318	-0.132600
H107	H	0.975854	0.236348	0.468109
H108	H	0.845943	-0.395748	-0.108678
O109	O	0.793821	0.075584	0.500101
C110	C	0.798615	0.006380	0.585900
H111	H	0.861439	-0.004197	0.620676
H112	H	0.756406	0.012937	0.689909
H113	H	0.781875	-0.045558	0.516497
O114	O	0.823436	-0.483965	-0.105725
C115	C	0.756019	-0.529144	-0.097097
H116	H	0.771959	-0.590028	-0.052185
H117	H	0.708203	-0.499013	-0.018924
H118	H	0.733379	-0.534925	-0.213203
H119	H	0.550360	0.107800	0.174657
H120	H	0.178094	0.101694	0.094016
O121	O	0.543824	0.107584	-0.336357
C122	C	0.500578	0.039116	-0.338892
H123	H	0.489696	0.016360	-0.220075
H124	H	0.441669	0.053383	-0.388563
H125	H	0.535396	-0.007758	-0.410088
O126	O	0.334100	0.104340	-0.437883
C127	C	0.377347	0.172806	-0.451559
H128	H	0.388219	0.195578	-0.335546
H129	H	0.436259	0.158532	-0.516356
H130	H	0.342534	0.219671	-0.513833
H131	H	0.327524	0.104150	0.074815
H132	H	0.178107	0.101674	-0.396691
