data_functionalizedCrystal
_audit_creation_method	'MofGen! by Chris Wilmer'
_symmetry_space_group_name_H-M	'P1'
_symmetry_Int_Tables_number	1
_symmetry_cell_setting	triclinic
loop_
_symmetry_equiv_pos_as_xyz
  x,y,z
_cell_length_a	18.050589
_cell_length_b	12.759393
_cell_length_c	12.759401
_cell_angle_alpha	90.018496
_cell_angle_beta	90.020695
_cell_angle_gamma	90.036134
loop_
_atom_site_label
_atom_site_type_symbol
_atom_site_fract_x
_atom_site_fract_y
_atom_site_fract_z
Zn1	Zn	-0.295612	0.593948	1.606213
Zn2	Zn	-0.419823	0.418254	1.606089
Zn3	Zn	-0.295651	0.418287	1.430515
Zn4	Zn	-0.419765	0.593896	1.430486
O5	O	-0.357713	0.506096	1.518326
O6	O	-0.312097	0.570650	1.753217
O7	O	-0.403391	0.271237	1.582759
O8	O	-0.191722	0.441625	1.453885
O9	O	-0.403354	0.441568	1.753127
O10	O	-0.191693	0.570682	1.582970
O11	O	-0.312163	0.271262	1.453766
O12	O	-0.312108	0.441574	1.283490
O13	O	-0.403256	0.740924	1.453836
O14	O	-0.403294	0.570593	1.283468
O15	O	-0.312041	0.740962	1.582942
O16	O	-0.523740	0.441517	1.582731
O17	O	-0.523698	0.570560	1.453716
C18	C	-0.357699	0.506082	1.245358
C19	C	-0.357711	0.506101	1.128582
C20	C	-0.550665	0.506053	1.518235
C21	C	-0.633211	0.506069	1.518293
C22	C	-0.357638	0.780130	1.518399
C23	C	-0.357606	0.896906	1.518430
C24	C	-0.882032	0.436012	1.588634
C25	C	-0.832704	0.410212	1.492775
C26	C	-0.930331	0.506150	1.518425
C27	C	-0.832578	0.531860	1.614213
C28	C	-0.784346	0.506108	1.518365
C29	C	-0.882090	0.480301	1.422516
C30	C	-0.881969	0.601993	1.544018
C31	C	-0.832662	0.576230	1.448093
C32	C	-1.014430	0.506172	1.518461
C33	C	-0.700250	0.506086	1.518318
C34	C	-0.164007	0.506163	1.518445
C35	C	-0.081462	0.506192	1.518496
C36	C	-0.357734	0.233129	1.518313
C37	C	-0.357557	0.116353	1.518485
C38	C	-0.310106	0.951790	1.585665
C39	C	-0.310079	1.061514	1.585690
C40	C	-0.405059	1.061461	1.451243
C41	C	-0.405081	0.951739	1.451213
C42	C	-0.255273	0.951822	1.663291
C43	C	-0.255246	1.061546	1.663316
C44	C	-0.405268	0.573170	1.073736
C45	C	-0.405277	0.573181	0.964012
C46	C	-0.310171	0.439046	0.963989
C47	C	-0.310159	0.439040	1.073711
C48	C	-0.460179	0.650609	1.073748
C49	C	-0.460188	0.650620	0.964024
C50	C	-0.357727	0.506111	1.792359
C51	C	-0.357733	0.506118	1.909135
H52	H	-0.811062	0.329141	1.471096
C53	C	-0.282635	0.906278	1.766320
C54	C	-0.226793	0.844582	1.810915
C55	C	-0.251978	0.802597	1.905816
H56	H	-0.295012	0.961614	1.812941
H57	H	-0.325219	0.864294	1.753819
H58	H	-0.184222	0.886564	1.823421
H59	H	-0.214410	0.789230	1.764324
H60	H	-0.294563	0.760613	1.893315
H61	H	-0.264355	0.857939	1.952428
H62	H	-0.214097	0.760724	1.936081
C63	C	-0.533061	0.611753	1.119042
C64	C	-0.590732	0.676731	1.085031
C65	C	-0.657878	0.640976	1.126745
H66	H	-0.541970	0.542060	1.096053
H67	H	-0.530583	0.613135	1.193408
H68	H	-0.593211	0.675339	1.010681
H69	H	-0.581847	0.746427	1.108018
H70	H	-0.655400	0.642357	1.201111
H71	H	-0.666780	0.571282	1.103753
H72	H	-0.697015	0.685063	1.103682
H73	H	-0.271429	0.384434	1.118362
C74	C	-0.456567	0.891960	1.378248
C75	C	-0.446414	0.784134	1.392585
C76	C	-0.493824	0.729033	1.325374
H77	H	-0.506495	0.909792	1.393521
H78	H	-0.445677	0.909884	1.307648
H79	H	-0.457310	0.766217	1.463169
H80	H	-0.396497	0.766271	1.377304
H81	H	-0.482934	0.746957	1.254775
H82	H	-0.543749	0.746874	1.340653
H83	H	-0.486937	0.655868	1.335086
C84	C	-0.911103	0.451124	1.314522
C85	C	-0.988664	0.451421	1.315832
C86	C	-1.015417	0.424535	1.216374
H87	H	-0.893882	0.500580	1.264503
H88	H	-0.893868	0.383211	1.296193
H89	H	-1.005891	0.519324	1.334148
H90	H	-1.005904	0.401964	1.365830
H91	H	-0.998182	0.356622	1.198045
H92	H	-0.998192	0.473994	1.166364
H93	H	-1.068044	0.424724	1.217252
H94	H	-0.903709	0.376671	1.647959
C95	C	-0.182383	1.107116	1.624685
C96	C	-0.150868	1.168870	1.703737
C97	C	-0.083758	1.210883	1.668176
H98	H	-0.149441	1.051794	1.607172
H99	H	-0.191185	1.149067	1.564456
H100	H	-0.142063	1.126921	1.763947
H101	H	-0.183789	1.224208	1.721259
H102	H	-0.092559	1.252834	1.607947
H103	H	-0.050822	1.155554	1.650664
H104	H	-0.062369	1.252795	1.721803
C105	C	-0.803973	0.655156	1.368639
C106	C	-0.829184	0.627729	1.268525
C107	C	-0.802760	0.700397	1.195302
H108	H	-0.821572	0.723091	1.386119
H109	H	-0.751343	0.655103	1.369387
H110	H	-0.881803	0.627793	1.267780
H111	H	-0.811587	0.559807	1.251012
H112	H	-0.750130	0.700345	1.196050
H113	H	-0.820361	0.768328	1.212793
H114	H	-0.819856	0.681793	1.127366
H115	H	-0.903626	0.683041	1.565725
C116	C	-0.178615	0.912203	1.634054
C117	C	-0.159858	0.948895	1.534114
C118	C	-0.089253	0.912408	1.507140
H119	H	-0.143450	0.937013	1.683612
H120	H	-0.178614	0.837744	1.633971
H121	H	-0.159853	1.023338	1.534204
H122	H	-0.195003	0.924087	1.484533
H123	H	-0.089252	0.837948	1.507057
H124	H	-0.054095	0.937220	1.556705
H125	H	-0.076520	0.937289	1.439325
H126	H	-0.810830	0.553622	1.695244
H127	H	-0.443710	1.106119	1.396515
H128	H	-0.270650	1.091323	1.744684
C129	C	-0.258634	0.366269	0.904223
C130	C	-0.268835	0.380609	0.796393
C131	C	-0.221380	0.313570	0.741307
H132	H	-0.208715	0.381700	0.922097
H133	H	-0.269453	0.295628	0.922115
H134	H	-0.258010	0.451233	0.778508
H135	H	-0.318744	0.365171	0.778487
H136	H	-0.232200	0.242929	0.759200
H137	H	-0.171464	0.329006	0.759190
H138	H	-0.228300	0.323283	0.668139
H139	H	-0.444840	0.732017	1.103559
C140	C	-0.432826	0.753853	0.918886
C141	C	-0.414684	0.822230	1.000828
C142	C	-0.389481	0.917337	0.959285
H143	H	-0.390200	0.741623	0.877009
H144	H	-0.470674	0.784225	0.877010
H145	H	-0.376839	0.791864	1.042686
H146	H	-0.457299	0.834490	1.042712
H147	H	-0.427329	0.947709	0.917409
H148	H	-0.346856	0.905096	0.917408
H149	H	-0.377175	0.963745	1.014875
C150	C	-0.536792	0.621213	0.924129
C151	C	-0.531896	0.530233	0.863151
C152	C	-0.602443	0.503120	0.826372
H153	H	-0.568793	0.608930	0.981924
H154	H	-0.555964	0.676820	0.882730
H155	H	-0.512735	0.474638	0.904548
H156	H	-0.499909	0.542492	0.805341
H157	H	-0.621614	0.558727	0.784973
H158	H	-0.634438	0.490841	0.884173
H159	H	-0.599129	0.441394	0.784987
