data_functionalizedCrystal
_audit_creation_method	'MofGen! by Chris Wilmer'
_symmetry_space_group_name_H-M	'P1'
_symmetry_Int_Tables_number	1
_symmetry_cell_setting	triclinic
loop_
_symmetry_equiv_pos_as_xyz
  x,y,z
_cell_length_a	16.974800
_cell_length_b	22.610064
_cell_length_c	16.992695
_cell_angle_alpha	90.004106
_cell_angle_beta	92.978326
_cell_angle_gamma	86.351406
loop_
_atom_site_label
_atom_site_type_symbol
_atom_site_fract_x
_atom_site_fract_y
_atom_site_fract_z
O1	O	1.055459	-0.001354	-0.099874
O2	O	1.555459	0.498646	0.400126
O3	O	0.826059	0.009632	-0.112612
O4	O	1.326059	0.509632	0.387388
O5	O	0.939839	0.004178	0.007899
O6	O	1.439839	0.504178	0.507899
O7	O	0.941679	0.004099	-0.220384
O8	O	1.441679	0.504099	0.279616
O9	O	0.939819	-0.094190	0.007881
O10	O	1.439819	0.405810	0.507881
O11	O	0.826038	-0.088737	-0.112629
O12	O	1.326038	0.411263	0.387371
O13	O	1.055439	-0.099723	-0.099891
O14	O	1.555439	0.400277	0.400109
Zn15	Zn	0.940735	-0.109848	-0.106263
Zn16	Zn	1.440735	0.390152	0.393737
Zn17	Zn	0.940762	0.019757	-0.106240
Zn18	Zn	1.440762	0.519757	0.393760
O19	O	0.941658	-0.094269	-0.220402
O20	O	1.441658	0.405731	0.279598
C21	C	0.796560	-0.038140	-0.112138
C22	C	1.296560	0.461860	0.387862
C23	C	0.708692	-0.033933	-0.110689
C24	C	1.208692	0.466067	0.389311
N25	N	0.940723	-0.198299	-0.106278
N26	N	1.440723	0.301701	0.393722
C27	C	0.667405	-0.085578	-0.110017
C28	C	1.167405	0.414422	0.389983
C29	C	0.584844	-0.081626	-0.108643
C30	C	1.084844	0.418374	0.391357
C31	C	0.543572	-0.026028	-0.107948
C32	C	1.043572	0.473972	0.392052
C33	C	0.584865	0.025621	-0.108619
C34	C	1.084865	0.525621	0.391381
C35	C	0.667424	0.021668	-0.109986
C36	C	1.167424	0.521668	0.390014
C37	C	0.296658	-0.008457	-0.103852
C38	C	0.796658	0.491543	0.396148
C39	C	0.214093	-0.004508	-0.102486
C40	C	0.714093	0.495492	0.397514
C41	C	0.214078	-0.111755	-0.102509
C42	C	0.714078	0.388245	0.397491
C43	C	0.296638	-0.115703	-0.103882
C44	C	0.796638	0.384297	0.396118
C45	C	0.337924	-0.064054	-0.104548
C46	C	0.837924	0.435946	0.395452
N47	N	0.459182	-0.021987	-0.106547
N48	N	0.959182	0.478013	0.393453
N49	N	0.422313	-0.068095	-0.105944
N50	N	0.922313	0.431905	0.394056
C51	C	0.991147	-0.609358	-0.052886
C52	C	1.491147	-0.109358	0.447114
C53	C	0.991151	-0.671278	-0.052880
C54	C	1.491151	-0.171278	0.447120
O55	O	1.033991	-0.705350	-0.007496
O56	O	1.533991	-0.205350	0.492504
N57	N	0.940760	-0.699838	-0.106224
N58	N	1.440760	-0.199838	0.393776
C59	C	0.890357	-0.666475	-0.159571
C60	C	1.390357	-0.166475	0.340429
O61	O	0.847496	-0.696454	-0.204942
O62	O	1.347496	-0.196454	0.295058
C63	C	0.890350	-0.604556	-0.159572
C64	C	1.390350	-0.104556	0.340428
C65	C	0.940750	-0.575999	-0.106231
C66	C	1.440750	-0.075999	0.393769
C67	C	1.041542	-0.580801	0.000452
C68	C	1.541542	-0.080801	0.500452
C69	C	1.041539	-0.518885	0.000445
C70	C	1.541539	-0.018885	0.500445
C71	C	0.991141	-0.485526	-0.052900
C72	C	1.491141	0.014474	0.447100
C73	C	0.940747	-0.514083	-0.106237
C74	C	1.440747	-0.014083	0.393763
C75	C	0.839944	-0.571194	-0.212915
C76	C	1.339944	-0.071194	0.287085
C77	C	0.839941	-0.509271	-0.212911
C78	C	1.339941	-0.009271	0.287089
C79	C	0.890340	-0.480714	-0.159570
C80	C	1.390340	0.019286	0.340430
C81	C	0.890347	-0.418809	-0.159589
C82	C	1.390347	0.081191	0.340411
N83	N	0.940737	-0.390249	-0.106246
N84	N	1.440737	0.109751	0.393754
C85	C	0.991134	-0.423607	-0.052901
C86	C	1.491134	0.076393	0.447099
C87	C	0.890375	-0.796510	-0.159563
C88	C	1.390375	-0.296510	0.340437
C89	C	0.890386	-0.858428	-0.159566
C90	C	1.390386	-0.358428	0.340434
C91	C	0.991178	-0.863226	-0.052874
C92	C	1.491178	-0.363226	0.447126
C93	C	0.991171	-0.801307	-0.052876
C94	C	1.491171	-0.301307	0.447124
C95	C	0.940766	-0.767949	-0.106220
C96	C	1.440766	-0.267949	0.393780
C97	C	0.991125	-0.293579	-0.052920
C98	C	1.491125	0.206421	0.447080
C99	C	0.991120	-0.231658	-0.052934
C100	C	1.491120	0.268342	0.447066
C101	C	0.890325	-0.226865	-0.159622
C102	C	1.390325	0.273135	0.340378
C103	C	0.890333	-0.288781	-0.159612
C104	C	1.390333	0.211219	0.340388
C105	C	0.940735	-0.322137	-0.106254
C106	C	1.440735	0.177863	0.393746
O107	O	0.847526	-0.384699	-0.204948
O108	O	1.347526	0.115301	0.295052
O109	O	1.033981	-0.393620	-0.007530
O110	O	1.533981	0.106380	0.492470
C111	C	1.084938	-0.051949	-0.100365
C112	C	1.584938	0.448051	0.399635
C113	C	1.172806	-0.056153	-0.101813
C114	C	1.672806	0.443847	0.398187
C115	C	0.937463	-0.044893	0.037100
C116	C	1.437463	0.455107	0.537100
C117	C	0.930403	-0.044554	0.124136
C118	C	1.430403	0.455446	0.624136
N119	N	0.940781	0.108208	-0.106218
N120	N	1.440781	0.608208	0.393782
C121	C	0.944034	-0.045197	-0.249603
C122	C	1.444034	0.454803	0.250397
C123	C	0.951094	-0.045531	-0.336639
C124	C	1.451094	0.454469	0.163361
C125	C	0.998519	-0.047817	0.174453
C126	C	1.498519	0.452183	0.674453
C127	C	0.991881	-0.047494	0.256232
C128	C	1.491881	0.452506	0.756232
C129	C	0.917127	-0.043912	0.287693
C130	C	1.417127	0.456088	0.787693
C131	C	0.849007	-0.040647	0.237370
C132	C	1.349007	0.459353	0.737370
C133	C	0.855645	-0.040966	0.155592
C134	C	1.355645	0.459034	0.655592
C135	C	0.889612	-0.042586	0.531260
C136	C	1.389612	0.457414	1.031260
C137	C	0.882979	-0.042269	0.613044
C138	C	1.382979	0.457731	1.113044
C139	C	1.025853	-0.049114	0.631901
C140	C	1.525853	0.450886	1.131901
C141	C	1.032486	-0.049437	0.550121
C142	C	1.532486	0.450563	1.050121
C143	C	0.964365	-0.046169	0.499805
C144	C	1.464365	0.453831	0.999805
N145	N	0.910340	-0.043583	0.371284
N146	N	1.410340	0.456417	0.871284
N147	N	0.971153	-0.046494	0.416215
N148	N	1.471153	0.453506	0.916215
H149	H	0.551233	-0.123681	-0.108082
H150	H	1.051233	0.376319	0.391918
H151	H	0.822102	-0.039361	0.638655
H152	H	1.322102	0.460639	1.138655
H153	H	0.834144	-0.039925	0.490302
H154	H	1.334144	0.460075	0.990302
O155	O	1.071075	-0.051319	0.143766
O156	O	1.571075	0.448681	0.643766
C157	C	1.062332	-0.050887	0.060797
C158	C	1.562332	0.449113	0.560797
H159	H	1.001843	-0.066615	0.041519
H160	H	1.501843	0.433385	0.541519
H161	H	1.110473	-0.081751	0.035739
H162	H	1.610473	0.418249	0.535739
H163	H	1.067611	-0.003948	0.038041
H164	H	1.567611	0.496052	0.538041
H165	H	1.081313	-0.051773	0.672877
H166	H	1.581313	0.448227	1.172877
H167	H	1.032214	-0.890398	-0.009437
H168	H	1.532214	-0.390398	0.490563
H169	H	0.849294	-0.199695	-0.203057
H170	H	1.349294	0.300305	0.296943
O171	O	0.776347	-0.037242	0.267834
O172	O	1.276347	0.462758	0.767834
C173	C	0.734505	-0.086191	0.242123
C174	C	1.234505	0.413809	0.742123
H175	H	0.759634	-0.104381	0.185428
H176	H	1.259634	0.395619	0.685428
H177	H	0.669384	-0.071612	0.230696
H178	H	1.169384	0.428388	0.730696
H179	H	0.740660	-0.122160	0.289452
H180	H	1.240660	0.377840	0.789452
H181	H	0.849355	-0.881675	-0.203010
H182	H	1.349355	-0.381675	0.296990
O183	O	1.105163	-0.052895	0.519693
O184	O	1.605163	0.447105	1.019693
C185	C	1.163861	-0.055723	0.581641
C186	C	1.663861	0.444277	1.081641
H187	H	1.138196	-0.035864	0.637172
H188	H	1.638196	0.464136	1.137172
H189	H	1.215752	-0.029655	0.564608
H190	H	1.715752	0.470345	1.064608
H191	H	1.185102	-0.103934	0.593238
H192	H	1.685102	0.396066	1.093238
H193	H	0.800179	-0.038309	0.114624
H194	H	1.300179	0.461691	0.614624
H195	H	0.330237	-0.160976	-0.104444
H196	H	0.830237	0.339024	0.395556
H197	H	0.701002	-0.130851	-0.110589
H198	H	1.201002	0.369149	0.389411
O199	O	0.841391	-0.764199	-0.211469
O200	O	1.341391	-0.264199	0.288531
C201	C	0.796909	-0.802690	-0.258533
C202	C	1.296909	-0.302690	0.241467
H203	H	0.829390	-0.848376	-0.259390
H204	H	1.329390	-0.348376	0.240610
H205	H	0.788801	-0.784424	-0.321159
H206	H	1.288801	-0.284424	0.178841
H207	H	0.736569	-0.806396	-0.233109
H208	H	1.236569	-0.306396	0.266891
O209	O	0.707489	0.071853	-0.110784
O210	O	1.207489	0.571853	0.389216
C211	C	0.682637	0.105674	-0.178305
C212	C	1.182637	0.605674	0.321695
H213	H	0.656669	0.075544	-0.225372
H214	H	1.156669	0.575544	0.274628
H215	H	0.735369	0.127472	-0.201982
H216	H	1.235369	0.627472	0.298018
H217	H	0.635779	0.141353	-0.162161
H218	H	1.135779	0.641353	0.337839
H219	H	0.180454	-0.153805	-0.101966
H220	H	0.680454	0.346195	0.398034
H221	H	1.047347	-0.050152	0.297198
H222	H	1.547347	0.449848	0.797198
H223	H	0.180491	0.040768	-0.101923
H224	H	0.680491	0.540768	0.398077
H225	H	1.032164	-0.208409	-0.009497
H226	H	1.532164	0.291591	0.490503
O227	O	0.790909	-0.598829	-0.264760
O228	O	1.290909	-0.098829	0.235240
C229	C	0.746444	-0.556097	-0.311846
C230	C	1.246444	-0.056097	0.188154
H231	H	0.743530	-0.511820	-0.279694
H232	H	1.243530	-0.011820	0.220306
H233	H	0.684056	-0.571002	-0.323837
H234	H	1.184056	-0.071002	0.176163
H235	H	0.775787	-0.550915	-0.370079
H236	H	1.275787	-0.050915	0.129921
H237	H	0.551255	0.070890	-0.108047
H238	H	1.051255	0.570890	0.391953
H239	H	0.330263	0.033599	-0.104392
H240	H	0.830263	0.533599	0.395608
H241	H	1.032167	-0.320731	-0.009470
H242	H	1.532167	0.179269	0.490530
H243	H	1.082576	-0.495637	0.043882
H244	H	1.582576	0.004363	0.543882
H245	H	1.082581	-0.607956	0.043895
H246	H	1.582581	-0.107956	0.543895
H247	H	1.032210	-0.778060	-0.009440
H248	H	1.532210	-0.278060	0.490560
O249	O	0.841265	-0.316496	-0.211348
O250	O	1.341265	0.183504	0.288652
C251	C	0.762199	-0.297571	-0.198653
C252	C	1.262199	0.202429	0.301347
H253	H	0.757857	-0.280329	-0.135883
H254	H	1.257857	0.219671	0.364117
H255	H	0.723086	-0.336423	-0.207678
H256	H	1.223086	0.163577	0.292322
H257	H	0.741718	-0.260659	-0.242132
H258	H	1.241718	0.239341	0.257868
O259	O	0.791087	-0.476808	-0.264766
O260	O	1.291087	0.023192	0.235234
C261	C	0.836477	-0.443176	-0.313136
C262	C	1.336477	0.056824	0.186864
H263	H	0.896373	-0.436753	-0.281879
H264	H	1.396373	0.063247	0.218121
H265	H	0.804255	-0.398099	-0.325563
H266	H	1.304255	0.101901	0.174437
H267	H	0.845508	-0.467479	-0.371076
H268	H	1.345508	0.032521	0.128924
