data_functionalizedCrystal
_audit_creation_method	'MofGen! by Chris Wilmer'
_symmetry_space_group_name_H-M	'P1'
_symmetry_Int_Tables_number	1
_symmetry_cell_setting	triclinic
loop_
_symmetry_equiv_pos_as_xyz
  x,y,z
_cell_length_a	10.723022
_cell_length_b	9.065218
_cell_length_c	7.540329
_cell_angle_alpha	90.003038
_cell_angle_beta	89.997572
_cell_angle_gamma	95.258444
loop_
_atom_site_label
_atom_site_type_symbol
_atom_site_fract_x
_atom_site_fract_y
_atom_site_fract_z
O1	O	0.182984	-1.959358	-0.147482
O2	O	0.682984	-1.459358	0.352518
O3	O	0.197993	-1.529988	-0.147484
O4	O	0.697993	-1.029988	0.352516
O5	O	0.008953	-1.754578	-0.147476
O6	O	0.508953	-1.254578	0.352524
O7	O	0.372025	-1.734768	-0.147490
O8	O	0.872025	-1.234768	0.352510
O9	O	0.008950	-1.754565	0.147489
O10	O	0.508950	-1.254565	0.647489
O11	O	0.197991	-1.529975	0.147481
O12	O	0.697991	-1.029975	0.647481
O13	O	0.182982	-1.959345	0.147483
O14	O	0.682982	-1.459345	0.647483
Cu15	Cu	0.190486	-1.744658	0.174415
Cu16	Cu	0.690486	-1.244658	0.674415
Cu17	Cu	0.190489	-1.744674	-0.174416
Cu18	Cu	0.690489	-1.244674	0.325584
O19	O	0.372022	-1.734754	0.147475
O20	O	0.872022	-1.234754	0.647475
C21	C	0.196550	-1.475003	-0.000002
C22	C	0.696550	-0.975003	0.499998
C23	C	0.192237	-1.311184	-0.000003
C24	C	0.692237	-0.811184	0.499997
C25	C	-0.037554	-1.753130	0.000004
C26	C	0.462446	-1.253130	0.500004
C27	C	-0.176126	-1.748819	-0.000002
C28	C	0.323874	-1.248819	0.499998
C29	C	0.184425	-2.014330	-0.000003
C30	C	0.684425	-1.514330	0.499997
C31	C	0.188739	-2.178148	-0.000014
C32	C	0.688739	-1.678148	0.499986
C33	C	-0.225213	-1.619305	-0.000006
C34	C	0.274787	-1.119305	0.499994
C35	C	-0.368434	-1.614846	-0.000013
C36	C	0.131566	-1.114846	0.499987
C37	C	0.418529	-1.736202	-0.000009
C38	C	0.918529	-1.236202	0.499991
C39	C	0.557101	-1.740514	-0.000014
C40	C	1.057101	-1.240514	0.499986
N41	N	0.190483	-1.744658	0.419763
N42	N	0.690483	-1.244658	0.919763
N43	N	0.190482	-1.744686	-0.419764
N44	N	0.690482	-1.244686	0.080236
H45	H	-0.161208	-1.511725	0.000004
H46	H	0.338792	-1.011725	0.500004
Br47	Br	-0.372478	-1.925353	-0.000030
Br48	Br	0.127522	-1.425353	0.499970
Br49	Br	-0.438864	-1.430012	-0.000039
Br50	Br	0.061136	-0.930012	0.499961
H51	H	-0.240131	-1.856398	0.000004
H52	H	0.259869	-1.356398	0.500004
