data_functionalizedCrystal
_audit_creation_method	'MofGen! by Chris Wilmer'
_symmetry_space_group_name_H-M	'P1'
_symmetry_Int_Tables_number	1
_symmetry_cell_setting	triclinic
loop_
_symmetry_equiv_pos_as_xyz
  x,y,z
_cell_length_a	21.395362
_cell_length_b	21.295417
_cell_length_c	21.395356
_cell_angle_alpha	89.969378
_cell_angle_beta	89.957023
_cell_angle_gamma	90.046383
loop_
_atom_site_label
_atom_site_type_symbol
_atom_site_fract_x
_atom_site_fract_y
_atom_site_fract_z
Zn1	Zn	0.957854	-0.250358	-0.354573
Zn2	Zn	1.457854	0.249642	0.145427
Zn3	Zn	0.957759	-0.355627	-0.249790
Zn4	Zn	1.457759	0.144373	0.250210
Zn5	Zn	0.853071	-0.250404	-0.249774
Zn6	Zn	1.353071	0.249596	0.250226
Zn7	Zn	0.853039	-0.355623	-0.354495
Zn8	Zn	1.353039	0.144377	0.145505
O9	O	0.905431	-0.303003	-0.302158
O10	O	1.405431	0.196997	0.197842
O11	O	1.045520	-0.264305	-0.340713
O12	O	1.545520	0.235695	0.159287
O13	O	0.943846	-0.341690	-0.162110
O14	O	1.443846	0.158310	0.337890
O15	O	0.867024	-0.162309	-0.263702
O16	O	1.367024	0.337691	0.236298
O17	O	1.045450	-0.341645	-0.263729
O18	O	1.545450	0.158355	0.236271
O19	O	0.944008	-0.162275	-0.340697
O20	O	1.444008	0.337725	0.159303
O21	O	0.866932	-0.264383	-0.162098
O22	O	1.366932	0.235617	0.337902
O23	O	0.765389	-0.264380	-0.263626
O24	O	1.265389	0.235620	0.236374
O25	O	0.866969	-0.341638	-0.442183
O26	O	1.366969	0.158362	0.057817
O27	O	0.765365	-0.341683	-0.340564
O28	O	1.265365	0.158317	0.159436
O29	O	0.943977	-0.264301	-0.442240
O30	O	1.443977	0.235699	0.057760
O31	O	0.943814	-0.443716	-0.263653
O32	O	1.443814	0.056284	0.236347
O33	O	0.866877	-0.443713	-0.340579
O34	O	1.366877	0.056287	0.159421
C35	C	0.742643	-0.303036	-0.302085
C36	C	1.242643	0.196964	0.197915
C37	C	0.673002	-0.303066	-0.302069
C38	C	1.173002	0.196934	0.197931
C39	C	0.640293	-0.343371	-0.342070
C40	C	1.140293	0.156629	0.157930
C41	C	0.574858	-0.343356	-0.342098
C42	C	1.074858	0.156644	0.157902
C43	C	0.542134	-0.303042	-0.302114
C44	C	1.042134	0.196958	0.197886
C45	C	0.574851	-0.262728	-0.262109
C46	C	1.074851	0.237272	0.237891
C47	C	0.640285	-0.262741	-0.262087
C48	C	1.140285	0.237259	0.237913
C49	C	0.438410	-0.297979	-0.245709
C50	C	0.938410	0.202021	0.254291
C51	C	0.372977	-0.297972	-0.245730
C52	C	0.872977	0.202028	0.254270
C53	C	0.340313	-0.303000	-0.302183
C54	C	0.840313	0.197000	0.197817
C55	C	0.373090	-0.308050	-0.358616
C56	C	0.873090	0.191950	0.141384
C57	C	0.438524	-0.308062	-0.358594
C58	C	0.938524	0.191938	0.141406
C59	C	0.471181	-0.303024	-0.302134
C60	C	0.971181	0.196976	0.197866
C61	C	0.236651	-0.343291	-0.342218
C62	C	0.736651	0.156709	0.157782
C63	C	0.171215	-0.343271	-0.342247
C64	C	0.671215	0.156729	0.157753
C65	C	0.171209	-0.262647	-0.262252
C66	C	0.671209	0.237353	0.237748
C67	C	0.236645	-0.262664	-0.262229
C68	C	0.736645	0.237336	0.237771
C69	C	0.269362	-0.302989	-0.302211
C70	C	0.769362	0.197011	0.197789
C71	C	0.905349	-0.466555	-0.302123
C72	C	1.405349	0.033445	0.197877
C73	C	0.905371	-0.536523	-0.302129
C74	C	1.405371	-0.036523	0.197871
C75	C	0.945468	-0.569370	-0.262115
C76	C	1.445468	-0.069370	0.237885
C77	C	0.945497	-0.635113	-0.262129
C78	C	1.445497	-0.135113	0.237871
C79	C	0.905418	-0.668005	-0.302151
C80	C	1.405418	-0.168005	0.197849
C81	C	0.865319	-0.635150	-0.342173
C82	C	1.365319	-0.135150	0.157827
C83	C	0.865295	-0.569409	-0.342162
C84	C	1.365295	-0.069409	0.157838
N85	N	0.850609	-0.771286	-0.306903
N86	N	1.350609	-0.271286	0.193097
N87	N	0.850633	-0.833738	-0.306910
N88	N	1.350633	-0.333738	0.193090
C89	C	0.905489	-0.866080	-0.302187
C90	C	1.405489	-0.366080	0.197813
N91	N	0.960320	-0.833611	-0.297445
N92	N	1.460320	-0.333611	0.202555
N93	N	0.960295	-0.771154	-0.297435
N94	N	1.460295	-0.271154	0.202565
C95	C	0.905440	-0.739291	-0.302167
C96	C	1.405440	-0.239291	0.197833
C97	C	0.945621	-0.970213	-0.262186
C98	C	1.445621	-0.470213	0.237814
C99	C	0.945651	-1.035956	-0.262204
C100	C	1.445651	-0.535956	0.237796
C101	C	0.865467	-1.035993	-0.342245
C102	C	1.365467	-0.535993	0.157755
C103	C	0.865442	-0.970250	-0.342230
C104	C	1.365442	-0.470250	0.157770
C105	C	0.905518	-0.937364	-0.302197
C106	C	1.405518	-0.437364	0.197803
C107	C	1.068854	-0.302970	-0.302231
C108	C	1.568854	0.197030	0.197769
C109	C	1.138496	-0.302956	-0.302262
C110	C	1.638496	0.197044	0.197738
C111	C	0.905480	-0.302964	-0.465581
C112	C	1.405480	0.197036	0.034419
C113	C	0.905501	-0.302947	-0.535223
C114	C	1.405501	0.197053	-0.035223
C115	C	0.905530	-0.138813	-0.302206
C116	C	1.405530	0.361187	0.197794
C117	C	0.905573	-0.068845	-0.302227
C118	C	1.405573	0.431155	0.197773
C119	C	0.865463	-0.262689	-0.567920
C120	C	1.365463	0.237311	-0.067920
C121	C	0.865461	-0.262678	-0.633355
C122	C	1.365461	0.237322	-0.133355
C123	C	0.905508	-0.302917	-0.666091
C124	C	1.405508	0.197083	-0.166091
C125	C	0.945549	-0.343183	-0.633386
C126	C	1.445549	0.156817	-0.133386
C127	C	0.945546	-0.343198	-0.567952
C128	C	1.445546	0.156802	-0.067952
C129	C	0.961960	-0.307851	-0.769796
C130	C	1.461960	0.192149	-0.269796
C131	C	0.961965	-0.307831	-0.835229
C132	C	1.461965	0.192169	-0.335229
C133	C	0.905518	-0.302875	-0.867912
C134	C	1.405518	0.197125	-0.367912
C135	C	0.849066	-0.297925	-0.835153
C136	C	1.349066	0.202075	-0.335153
C137	C	0.849063	-0.297940	-0.769719
C138	C	1.349063	0.202060	-0.269719
C139	C	0.905516	-0.302906	-0.737043
C140	C	1.405516	0.197094	-0.237043
C141	C	0.865474	-0.262602	-0.971562
C142	C	1.365474	0.237398	-0.471562
C143	C	0.865471	-0.262595	-1.036998
C144	C	1.365471	0.237405	-0.536998
C145	C	0.945565	-0.343097	-1.037028
C146	C	1.445565	0.156903	-0.537028
C147	C	0.945563	-0.343108	-0.971592
C148	C	1.445563	0.156892	-0.471592
C149	C	0.905518	-0.302857	-0.938863
C150	C	1.405518	0.197143	-0.438863
C151	C	0.905418	-0.302997	-0.139370
C152	C	1.405418	0.197003	0.360630
C153	C	0.905518	-0.302836	-0.069729
C154	C	1.405518	0.197164	0.430271
H155	H	0.666927	-0.376206	-0.374628
H156	H	1.166927	0.123794	0.125372
H157	H	0.832789	-0.943504	-0.374811
H158	H	1.332789	-0.443504	0.125189
C159	C	0.676266	-0.218403	-0.218077
C160	C	1.176266	0.281597	0.281923
N161	N	0.703368	-0.185009	-0.184926
N162	N	1.203368	0.314991	0.315074
C163	C	0.135217	-0.218301	-0.218269
C164	C	0.635217	0.281699	0.281731
N165	N	0.108104	-0.184897	-0.185140
N166	N	0.608104	0.315103	0.314860
H167	H	0.832853	-0.229916	-0.541276
H168	H	1.332853	0.270084	-0.041276
C169	C	0.135235	-0.387618	-0.386249
C170	C	0.635235	0.112382	0.113751
N171	N	0.108135	-0.421024	-0.419389
N172	N	0.608135	0.078976	0.080611
H173	H	0.978102	-0.542596	-0.229519
H174	H	1.478102	-0.042596	0.270481
H175	H	0.548221	-0.376177	-0.374675
H176	H	1.048221	0.123823	0.125325
H177	H	0.832643	-0.542664	-0.374747
H178	H	1.332643	-0.042664	0.125253
H179	H	0.465209	-0.312172	-0.404544
H180	H	0.965209	0.187828	0.095456
C181	C	0.337165	-0.313580	-0.420720
C182	C	0.837165	0.186420	0.079280
N183	N	0.310103	-0.317745	-0.467495
N184	N	0.810103	0.182255	0.032505
C185	C	0.272626	-0.218330	-0.218218
C186	C	0.772626	0.281670	0.281782
N187	N	0.299727	-0.184935	-0.185067
N188	N	0.799727	0.315065	0.314933
H189	H	0.832837	-1.062773	-0.374834
H190	H	1.332837	-0.562773	0.125166
C191	C	0.821419	-0.218333	-0.935557
C192	C	1.321419	0.281667	-0.435557
N193	N	0.788234	-0.184989	-0.908441
N194	N	1.288234	0.315011	-0.408441
H195	H	0.832858	-0.229892	-0.659982
H196	H	1.332858	0.270108	-0.159982
H197	H	0.978168	-0.375889	-0.944970
H198	H	1.478168	0.124111	-0.444970
C199	C	0.786966	-0.292501	-0.733688
C200	C	1.286966	0.207499	-0.233688
N201	N	0.740193	-0.288407	-0.706549
N202	N	1.240193	0.211593	-0.206549
H203	H	0.978152	-0.375980	-0.541330
H204	H	1.478152	0.124020	-0.041330
H205	H	0.548203	-0.229903	-0.229555
H206	H	1.048203	0.270097	0.270445
H207	H	0.832863	-0.229814	-1.063619
H208	H	1.332863	0.270186	-0.563619
C209	C	0.989763	-1.072088	-0.218182
C210	C	1.489763	-0.572088	0.281818
N211	N	1.022988	-1.099303	-0.185023
N212	N	1.522988	-0.599303	0.314977
C213	C	0.474334	-0.292450	-0.183602
C214	C	0.974334	0.207550	0.316398
N215	N	0.501390	-0.288286	-0.136824
N216	N	1.001390	0.211714	0.363176
C217	C	0.336929	-0.292412	-0.183653
C218	C	0.836929	0.207588	0.316347
N219	N	0.309778	-0.288222	-0.136895
N220	N	0.809778	0.211778	0.363105
C221	C	0.786969	-0.292478	-0.871099
C222	C	1.286969	0.207522	-0.371099
N223	N	0.740200	-0.288377	-0.898177
N224	N	1.240200	0.211623	-0.398177
H225	H	0.978255	-0.943436	-0.229590
H226	H	1.478255	-0.443436	0.270410
C227	C	0.989646	-0.387333	-1.073033
C228	C	1.489646	0.112667	-0.573033
N229	N	1.022859	-0.420643	-1.100156
N230	N	1.522859	0.079357	-0.600156
C231	C	0.989605	-0.671252	-0.218105
C232	C	1.489605	-0.171252	0.281895
N233	N	1.022826	-0.698470	-0.184945
N234	N	1.522826	-0.198470	0.315055
H235	H	0.263291	-0.376123	-0.374777
H236	H	0.763291	0.123877	0.125223
C237	C	1.024063	-0.313276	-0.871257
C238	C	1.524063	0.186724	-0.371257
N239	N	1.070837	-0.317378	-0.898392
N240	N	1.570837	0.182622	-0.398392
H241	H	0.978156	-0.375947	-0.660043
H242	H	1.478156	0.124053	-0.160043
C243	C	0.821230	-0.671333	-0.386195
C244	C	1.321230	-0.171333	0.113805
N245	N	0.788021	-0.698587	-0.419354
N246	N	1.288021	-0.198587	0.080646
H247	H	1.007929	-0.311882	-0.743191
H248	H	1.507929	0.188118	-0.243191
