data_functionalizedCrystal
_audit_creation_method	'MofGen! by Chris Wilmer'
_symmetry_space_group_name_H-M	'P1'
_symmetry_Int_Tables_number	1
_symmetry_cell_setting	triclinic
loop_
_symmetry_equiv_pos_as_xyz
  x,y,z
_cell_length_a	16.625547
_cell_length_b	18.101396
_cell_length_c	16.625527
_cell_angle_alpha	89.915529
_cell_angle_beta	90.064128
_cell_angle_gamma	89.963039
loop_
_atom_site_label
_atom_site_type_symbol
_atom_site_fract_x
_atom_site_fract_y
_atom_site_fract_z
Zn1	Zn	1.232912	0.294409	0.456009
Zn2	Zn	1.732912	0.794409	0.956009
Zn3	Zn	1.232688	0.418383	0.321179
Zn4	Zn	1.732688	0.918383	0.821179
Zn5	Zn	1.097981	0.294559	0.321179
Zn6	Zn	1.597981	0.794559	0.821179
Zn7	Zn	1.098010	0.418213	0.455959
Zn8	Zn	1.598010	0.918213	0.955959
O9	O	1.165398	0.356391	0.388582
O10	O	1.665398	0.856391	0.888582
O11	O	1.345715	0.310863	0.438144
O12	O	1.845715	0.810863	0.938144
O13	O	1.214714	0.402091	0.208346
O14	O	1.714714	0.902091	0.708346
O15	O	1.115962	0.190906	0.339086
O16	O	1.615962	0.690906	0.839086
O17	O	1.345551	0.401945	0.339085
O18	O	1.845551	0.901945	0.839085
O19	O	1.215095	0.190796	0.438145
O20	O	1.715095	0.690796	0.938145
O21	O	1.115745	0.311118	0.208347
O22	O	1.615745	0.811118	0.708347
O23	O	0.985153	0.310954	0.339037
O24	O	1.485153	0.810954	0.839037
O25	O	1.116011	0.401657	0.568798
O26	O	1.616011	0.901657	1.068798
O27	O	0.985174	0.401802	0.438060
O28	O	1.485174	0.901802	0.938060
O29	O	1.215123	0.310699	0.568835
O30	O	1.715123	0.810699	1.068835
O31	O	1.214742	0.521993	0.339037
O32	O	1.714742	1.021993	0.839037
O33	O	1.115794	0.521869	0.438059
O34	O	1.615794	1.021869	0.938059
C35	C	0.955907	0.356377	0.388544
C36	C	1.455907	0.856377	0.888544
C37	C	0.866286	0.356389	0.388546
C38	C	1.366286	0.856389	0.888546
C39	C	0.793504	0.356390	0.388556
C40	C	1.293504	0.856390	0.888556
C41	C	0.702195	0.356394	0.388577
C42	C	1.202195	0.856394	0.888577
C43	C	0.629419	0.356401	0.388597
C44	C	1.129419	0.856401	0.888597
C45	C	0.538104	0.356406	0.388616
C46	C	1.038104	0.856406	0.888616
C47	C	1.165268	0.548802	0.388560
C48	C	1.665268	1.048802	0.888560
C49	C	1.165287	0.631116	0.388578
C50	C	1.665287	1.131116	0.888578
C51	C	1.165430	0.930207	0.388625
C52	C	1.665430	1.430207	0.888625
C53	C	1.103323	0.898834	0.451082
C54	C	1.603323	1.398834	0.951082
C55	C	1.103037	0.813216	0.450885
C56	C	1.603037	1.313216	0.950885
C57	C	1.165359	0.781824	0.388602
C58	C	1.665359	1.281824	0.888602
C59	C	1.142290	0.813054	0.303623
C60	C	1.642290	1.313054	0.803623
C61	C	1.141880	0.898699	0.303998
C62	C	1.641880	1.398699	0.803998
C63	C	1.250745	0.898530	0.410400
C64	C	1.750745	1.398530	0.910400
C65	C	1.250255	0.812878	0.412262
C66	C	1.750255	1.312878	0.912262
C67	C	1.165320	0.697965	0.388584
C68	C	1.665320	1.197965	0.888584
C69	C	1.165467	1.014066	0.388637
C70	C	1.665467	1.514066	0.888637
C71	C	1.375707	0.356406	0.388620
C72	C	1.875707	0.856406	0.888620
C73	C	1.465328	0.356412	0.388637
C74	C	1.965328	0.856412	0.888637
C75	C	1.165522	1.163229	0.388624
C76	C	1.665522	1.663229	0.888624
C77	C	1.165502	1.080915	0.388649
C78	C	1.665502	1.580915	0.888649
C79	C	1.165248	0.356586	0.179090
C80	C	1.665248	0.856586	0.679090
C81	C	1.165321	0.356483	0.089469
C82	C	1.665321	0.856483	0.589469
C83	C	1.165620	0.356120	-0.238705
C84	C	1.665620	0.856120	0.261295
C85	C	1.165539	0.356224	-0.147397
C86	C	1.665539	0.856224	0.352603
C87	C	1.165470	0.356302	-0.074621
C88	C	1.665470	0.856302	0.425379
C89	C	1.165390	0.356404	0.016693
C90	C	1.665390	0.856404	0.516693
C91	C	1.165595	0.356142	0.598891
C92	C	1.665595	0.856142	1.098891
C93	C	1.165679	0.356036	0.688512
C94	C	1.665679	0.856036	1.188512
H95	H	1.117477	0.792094	0.513896
H96	H	1.617477	1.292094	1.013896
Cl97	Cl	1.283191	0.931709	0.504444
Cl98	Cl	1.783191	1.431709	1.004444
H99	H	1.267650	0.792457	0.474802
H100	H	1.767650	1.292457	0.974802
Cl101	Cl	1.125384	0.930470	0.548685
Cl102	Cl	1.625384	1.430470	1.048685
Cl103	Cl	1.006287	0.932197	0.429111
Cl104	Cl	1.506287	1.432197	0.929111
Cl105	Cl	1.325497	0.779875	0.347153
Cl106	Cl	1.825497	1.279875	0.847153
H107	H	1.080588	0.791687	0.284847
H108	H	1.580588	1.291687	0.784847
H109	H	1.039806	0.792806	0.436461
H110	H	1.539806	1.292806	0.936461
Cl111	Cl	1.045591	0.929674	0.275522
Cl112	Cl	1.545591	1.429674	0.775522
H113	H	1.185151	0.919461	0.255876
H114	H	1.685151	1.419461	0.755876
H115	H	1.186105	0.792728	0.255818
H116	H	1.686105	1.292728	0.755818
Cl117	Cl	1.322192	0.929875	0.340181
Cl118	Cl	1.822192	1.429875	0.840181
