data_functionalizedCrystal
_audit_creation_method	'MofGen! by Chris Wilmer'
_symmetry_space_group_name_H-M	'P1'
_symmetry_Int_Tables_number	1
_symmetry_cell_setting	triclinic
loop_
_symmetry_equiv_pos_as_xyz
  x,y,z
_cell_length_a	19.121102
_cell_length_b	19.120900
_cell_length_c	21.395364
_cell_angle_alpha	87.554870
_cell_angle_beta	92.454632
_cell_angle_gamma	90.076315
loop_
_atom_site_label
_atom_site_type_symbol
_atom_site_fract_x
_atom_site_fract_y
_atom_site_fract_z
Zn1	Zn	1.059789	0.325113	0.382162
Zn2	Zn	1.393122	0.658447	0.715496
Zn3	Zn	1.726456	0.991780	1.048829
Zn4	Zn	1.054690	0.442303	0.272729
Zn5	Zn	1.388024	0.775636	0.606062
Zn6	Zn	1.721357	1.108970	0.939395
Zn7	Zn	0.942560	0.320072	0.273135
Zn8	Zn	1.275893	0.653405	0.606469
Zn9	Zn	1.609226	0.986739	0.939802
Zn10	Zn	0.937503	0.437305	0.373205
Zn11	Zn	1.270836	0.770638	0.706538
Zn12	Zn	1.604169	1.103972	1.039872
O13	O	0.998635	0.381198	0.325308
O14	O	1.331969	0.714532	0.658641
O15	O	1.665302	1.047865	0.991975
O16	O	1.157217	0.344860	0.371224
O17	O	1.490550	0.678194	0.704558
O18	O	1.823884	1.011527	1.037891
O19	O	1.039798	0.426071	0.185105
O20	O	1.373132	0.759404	0.518438
O21	O	1.706465	1.092737	0.851772
O22	O	0.962360	0.222634	0.291517
O23	O	1.295694	0.555967	0.624850
O24	O	1.629027	0.889301	0.958184
O25	O	1.153471	0.430959	0.290824
O26	O	1.486804	0.764292	0.624157
O27	O	1.820138	1.097626	0.957491
O28	O	1.048488	0.226338	0.371619
O29	O	1.381822	0.559671	0.704952
O30	O	1.715155	0.893004	1.038285
O31	O	0.957416	0.336268	0.185404
O32	O	1.290750	0.669601	0.518737
O33	O	1.624083	1.002935	0.852070
O34	O	0.843784	0.331422	0.282831
O35	O	1.177118	0.664755	0.616165
O36	O	1.510451	0.998088	0.949498
O37	O	0.953742	0.422441	0.462071
O38	O	1.287075	0.755774	0.795404
O39	O	1.620409	1.089108	1.128738
O40	O	0.840069	0.417552	0.356352
O41	O	1.173403	0.750886	0.689686
O42	O	1.506736	1.084219	1.023019
O43	O	1.043585	0.340014	0.468652
O44	O	1.376918	0.673347	0.801985
O45	O	1.710252	1.006681	1.135319
O46	O	1.034895	0.539747	0.282138
O47	O	1.368228	0.873080	0.615472
O48	O	1.701562	1.206413	0.948805
O49	O	0.948798	0.536075	0.355958
O50	O	1.282131	0.869408	0.689291
O51	O	1.615465	1.202742	1.022625
C52	C	0.816489	0.373398	0.318664
C53	C	1.149823	0.706732	0.651998
C54	C	1.483156	1.040065	0.985331
C55	C	0.738566	0.370078	0.315836
C56	C	1.071899	0.703412	0.649170
C57	C	1.405232	1.036745	0.982503
C58	C	0.990763	0.563350	0.318046
C59	C	1.324097	0.896683	0.651380
C60	C	1.657430	1.230016	0.984713
C61	C	0.987460	0.641278	0.314963
C62	C	1.320793	0.974611	0.648296
C63	C	1.654127	1.307944	0.981630
C64	C	0.998668	0.381232	0.488731
C65	C	1.332001	0.714566	0.822064
C66	C	1.665335	1.047899	1.155398
C67	C	0.998682	0.381247	0.558372
C68	C	1.332015	0.714580	0.891706
C69	C	1.665349	1.047913	1.225039
C70	C	0.700038	0.413430	0.352720
C71	C	1.033372	0.746763	0.686054
C72	C	1.366705	1.080096	1.019387
C73	C	0.626821	0.410301	0.350067
C74	C	0.960155	0.743634	0.683400
C75	C	1.293488	1.076968	1.016733
C76	C	0.592133	0.363824	0.310525
C77	C	0.925466	0.697157	0.643858
C78	C	1.258799	1.030490	0.977192
C79	C	0.630666	0.320468	0.273639
C80	C	0.963999	0.653801	0.606973
C81	C	1.297332	0.987134	0.940306
C82	C	0.703882	0.323593	0.276297
C83	C	1.037215	0.656927	0.609630
C84	C	1.370548	0.990260	0.942964
C85	C	0.371164	0.352136	0.300592
C86	C	0.704498	0.685469	0.633926
C87	C	1.037831	1.018803	0.967259
C88	C	0.297943	0.349015	0.297936
C89	C	0.631276	0.682348	0.631269
C90	C	0.964610	1.015682	0.964603
C91	C	0.294104	0.438848	0.374364
C92	C	0.627437	0.772181	0.707698
C93	C	0.960770	1.105515	1.041031
C94	C	0.367321	0.441973	0.377016
C95	C	0.700654	0.775306	0.710349
C96	C	1.033988	1.108639	1.043682
C97	C	0.405848	0.398614	0.340133
C98	C	0.739181	0.731947	0.673466
C99	C	1.072514	1.065280	1.006799
C100	C	0.517293	0.360626	0.307810
C101	C	0.850626	0.693959	0.641143
C102	C	1.183960	1.027293	0.974477
C103	C	0.480686	0.401808	0.342851
C104	C	0.814019	0.735142	0.676185
C105	C	1.147353	1.068475	1.009518
C106	C	1.181493	0.389029	0.331978
C107	C	1.514826	0.722363	0.665311
C108	C	1.848159	1.055696	0.998645
C109	C	1.259416	0.392367	0.334820
C110	C	1.592749	0.725700	0.668154
C111	C	1.926082	1.059033	1.001487
C112	C	0.966510	1.081928	0.295452
C113	C	1.299844	1.415261	0.628785
C114	C	1.633177	1.748594	0.962118
C115	C	0.969616	1.008706	0.298349
C116	C	1.302949	1.342040	0.631682
C117	C	1.636282	1.675373	0.965015
C118	C	1.015980	0.973963	0.341532
C119	C	1.349314	1.307297	0.674866
C120	C	1.682647	1.640630	1.008199
C121	C	1.059237	1.012446	0.381826
C122	C	1.392570	1.345779	0.715159
C123	C	1.725904	1.679112	1.048492
C124	C	1.056128	1.085666	0.378931
C125	C	1.389461	1.418999	0.712265
C126	C	1.722794	1.752332	1.045598
C127	C	1.027607	0.752980	0.352362
C128	C	1.360941	1.086313	0.685696
C129	C	1.694274	1.419646	1.019029
C130	C	1.030715	0.679755	0.355252
C131	C	1.364048	1.013088	0.688586
C132	C	1.697382	1.346421	1.021919
C133	C	0.941092	0.676020	0.271776
C134	C	1.274426	1.009354	0.605109
C135	C	1.607759	1.342687	0.938442
C136	C	0.937990	0.749242	0.268883
C137	C	1.271323	1.082575	0.602216
C138	C	1.604657	1.415909	0.935549
C139	C	0.981244	0.787718	0.309178
C140	C	1.314577	1.121051	0.642512
C141	C	1.647911	1.454384	0.975845
C142	C	1.019157	0.899119	0.344493
C143	C	1.352490	1.232453	0.677826
C144	C	1.685824	1.565786	1.011160
C145	C	0.978063	0.862560	0.306220
C146	C	1.311397	1.195893	0.639553
C147	C	1.644730	1.529227	0.972887
C148	C	1.006515	1.198335	0.332616
C149	C	1.339848	1.531668	0.665950
C150	C	1.673182	1.865001	0.999283
C151	C	1.009765	1.120405	0.335741
C152	C	1.343099	1.453738	0.669074
C153	C	1.676432	1.787071	1.002407
C154	C	1.045456	0.338334	0.594513
C155	C	1.378790	0.671668	0.927846
C156	C	1.712123	1.005001	1.261179
C157	C	1.045446	0.338322	0.659948
C158	C	1.378780	0.671656	0.993281
C159	C	1.712113	1.004989	1.326615
C160	C	0.998669	0.381236	0.689241
C161	C	1.332002	0.714569	1.022574
C162	C	1.665335	1.047902	1.355907
C163	C	0.951886	0.424151	0.653092
C164	C	1.285219	0.757484	0.986425
C165	C	1.618552	1.090818	1.319759
C166	C	0.951892	0.424157	0.587658
C167	C	1.285226	0.757490	0.920991
C168	C	1.618559	1.090823	1.254325
C169	C	0.990388	0.444154	0.790196
C170	C	1.323722	0.777487	1.123529
C171	C	1.657055	1.110821	1.456862
C172	C	0.990387	0.444150	0.855629
C173	C	1.323720	0.777483	1.188962
C174	C	1.657053	1.110817	1.522295
C175	C	0.998644	0.381218	0.891061
C176	C	1.331977	0.714552	1.224394
C177	C	1.665311	1.047885	1.557728
C178	C	1.006918	0.318289	0.861053
C179	C	1.340251	0.651623	1.194386
C180	C	1.673585	0.984956	1.527720
C181	C	1.006925	0.318295	0.795619
C182	C	1.340258	0.651628	1.128952
C183	C	1.673591	0.984962	1.462286
C184	C	0.998656	0.381234	0.760193
C185	C	1.331989	0.714568	1.093526
C186	C	1.665323	1.047901	1.426859
C187	C	1.045410	0.338289	0.998154
C188	C	1.378743	0.671623	1.331487
C189	C	1.712077	1.004956	1.664821
C190	C	1.045395	0.338276	1.063591
C191	C	1.378728	0.671609	1.396924
C192	C	1.712062	1.004943	1.730257
C193	C	0.951838	0.424111	1.056733
C194	C	1.285171	0.757444	1.390067
C195	C	1.618504	1.090778	1.723400
C196	C	0.951849	0.424118	0.991298
C197	C	1.285182	0.757451	1.324631
C198	C	1.618516	1.090785	1.657965
C199	C	0.998639	0.381208	0.962013
C200	C	1.331972	0.714541	1.295346
C201	C	1.665306	1.047875	1.628679
C202	C	0.998605	0.381186	1.162520
C203	C	1.331939	0.714519	1.495853
C204	C	1.665272	1.047853	1.829186
C205	C	0.998616	0.381189	1.092879
C206	C	1.331949	0.714522	1.426212
C207	C	1.665283	1.047856	1.759545
H208	H	0.728276	0.451279	0.384917
H209	H	1.061609	0.784612	0.718251
H210	H	1.394943	1.117946	1.051584
Cl211	Cl	0.893025	0.478054	1.093552
Cl212	Cl	1.226358	0.811387	1.426885
Cl213	Cl	1.559691	1.144720	1.760219
Cl214	Cl	0.410924	0.500405	0.426725
Cl215	Cl	0.744257	0.833739	0.760059
Cl216	Cl	1.077590	1.167072	1.093392
H217	H	0.900236	0.777524	0.233717
H218	H	1.233570	1.110858	0.567050
H219	H	1.566903	1.444191	0.900383
H220	H	0.735250	0.288288	0.246265
H221	H	1.068583	0.621621	0.579599
H222	H	1.401917	0.954955	0.912932
Cl223	Cl	0.915226	0.960338	0.247705
Cl224	Cl	1.248559	1.293671	0.581038
Cl225	Cl	1.581892	1.627004	0.914371
H226	H	0.489042	0.322786	0.275614
H227	H	0.822375	0.656119	0.608947
H228	H	1.155708	0.989452	0.942280
H229	H	1.056909	0.870826	0.379653
H230	H	1.390243	1.204159	0.712986
H231	H	1.723576	1.537492	1.046320
H232	H	0.262728	0.474147	0.404393
H233	H	0.596061	0.807481	0.737727
H234	H	0.929394	1.140814	1.071060
Cl235	Cl	0.524295	0.460235	0.392559
Cl236	Cl	0.857629	0.793568	0.725892
Cl237	Cl	1.190962	1.126901	1.059226
Cl238	Cl	1.104226	0.284343	0.961335
Cl239	Cl	1.437560	0.617676	1.294668
Cl240	Cl	1.770893	0.951010	1.628002
Cl241	Cl	0.886716	0.627647	0.221124
Cl242	Cl	1.220050	0.960980	0.554458
Cl243	Cl	1.553383	1.294313	0.887791
H244	H	1.083534	0.303374	0.689379
H245	H	1.416867	0.636707	1.022712
H246	H	1.750201	0.970041	1.356046
Cl247	Cl	0.919775	0.906238	0.251937
Cl248	Cl	1.253108	1.239571	0.585271
Cl249	Cl	1.586441	1.572904	0.918604
H250	H	0.595455	0.445603	0.380101
H251	H	0.928788	0.778936	0.713434
H252	H	1.262122	1.112270	1.046768
H253	H	1.068473	0.651471	0.390419
H254	H	1.401807	0.984804	0.723753
H255	H	1.735140	1.318137	1.057086
H256	H	0.269702	0.311160	0.265741
H257	H	0.603036	0.644493	0.599074
H258	H	0.936369	0.977826	0.932407
H259	H	0.928758	1.110210	0.260285
H260	H	1.262091	1.443543	0.593618
H261	H	1.595424	1.776877	0.926952
Cl262	Cl	0.893046	0.478071	0.945862
Cl263	Cl	1.226380	0.811405	1.279195
Cl264	Cl	1.559713	1.144738	1.612529
Cl265	Cl	1.104213	0.284335	1.109025
Cl266	Cl	1.437546	0.617668	1.442359
Cl267	Cl	1.770880	0.951002	1.775692
Cl268	Cl	1.081978	0.801339	0.403025
Cl269	Cl	1.415312	1.134673	0.736359
Cl270	Cl	1.748645	1.468006	1.069692
Cl271	Cl	1.117517	0.968768	0.436120
Cl272	Cl	1.450851	1.302102	0.769453
Cl273	Cl	1.784184	1.635435	1.102787
H274	H	1.083556	0.303393	0.570673
H275	H	1.416889	0.636726	0.904006
H276	H	1.750222	0.970060	1.237339
H277	H	0.983654	0.495391	0.880056
H278	H	1.316987	0.828724	1.213389
H279	H	1.650320	1.162057	1.546723
H280	H	0.402524	0.316835	0.270554
H281	H	0.735857	0.650169	0.603888
H282	H	1.069190	0.983502	0.937221
Cl283	Cl	1.017320	0.239188	0.757896
Cl284	Cl	1.350654	0.572521	1.091230
Cl285	Cl	1.683987	0.905855	1.424563
Cl286	Cl	1.110507	1.134037	0.429583
Cl287	Cl	1.443840	1.467370	0.762917
Cl288	Cl	1.777173	1.800704	1.096250
Cl289	Cl	1.017302	0.239170	0.905589
Cl290	Cl	1.350636	0.572503	1.238923
Cl291	Cl	1.683969	0.905837	1.572256
Cl292	Cl	0.587057	0.262034	0.223934
Cl293	Cl	0.920391	0.595367	0.557267
Cl294	Cl	1.253724	0.928701	0.890601
Cl295	Cl	0.980028	0.523279	0.745659
Cl296	Cl	1.313361	0.856612	1.078992
Cl297	Cl	1.646694	1.189946	1.412326
H298	H	0.913797	0.459089	0.676946
H299	H	1.247130	0.792423	1.010279
H300	H	1.580464	1.125756	1.343613
H301	H	0.913800	0.459100	0.558232
H302	H	1.247133	0.792433	0.891566
H303	H	1.580466	1.125767	1.224899
