data_functionalizedCrystal
_audit_creation_method	'MofGen! by Chris Wilmer'
_symmetry_space_group_name_H-M	'P1'
_symmetry_Int_Tables_number	1
_symmetry_cell_setting	triclinic
loop_
_symmetry_equiv_pos_as_xyz
  x,y,z
_cell_length_a	16.120490
_cell_length_b	16.120444
_cell_length_c	17.077396
_cell_angle_alpha	92.869489
_cell_angle_beta	87.084783
_cell_angle_gamma	90.165174
loop_
_atom_site_label
_atom_site_type_symbol
_atom_site_fract_x
_atom_site_fract_y
_atom_site_fract_z
Zn1	Zn	1.254466	-0.395674	-0.522512
Zn2	Zn	1.587800	-0.062341	-0.189179
Zn3	Zn	1.921133	0.270992	0.144154
Zn4	Zn	1.247307	-0.534735	-0.397540
Zn5	Zn	1.580641	-0.201402	-0.064206
Zn6	Zn	1.913974	0.131932	0.269127
Zn7	Zn	1.115406	-0.388634	-0.384296
Zn8	Zn	1.448740	-0.055301	-0.050963
Zn9	Zn	1.782073	0.278032	0.282370
Zn10	Zn	1.108316	-0.527620	-0.521799
Zn11	Zn	1.441649	-0.194286	-0.188465
Zn12	Zn	1.774982	0.139047	0.144868
O13	O	1.181374	-0.461666	-0.456537
O14	O	1.514707	-0.128333	-0.123203
O15	O	1.848041	0.205001	0.210130
O16	O	1.369882	-0.420045	-0.511776
O17	O	1.703215	-0.086712	-0.178442
O18	O	2.036549	0.246622	0.154891
O19	O	1.229782	-0.515386	-0.285936
O20	O	1.563115	-0.182052	0.047397
O21	O	1.896448	0.151281	0.380731
O22	O	1.139816	-0.273205	-0.397387
O23	O	1.473150	0.060128	-0.064054
O24	O	1.806483	0.393462	0.269279
O25	O	1.364622	-0.522212	-0.419958
O26	O	1.697956	-0.188879	-0.086625
O27	O	2.031289	0.144455	0.246708
O28	O	1.241983	-0.278377	-0.498934
O29	O	1.575316	0.054956	-0.165601
O30	O	1.908650	0.388289	0.167732
O31	O	1.132875	-0.408046	-0.276206
O32	O	1.466208	-0.074713	0.057127
O33	O	1.799541	0.258620	0.390460
O34	O	0.998100	-0.401147	-0.396695
O35	O	1.331433	-0.067814	-0.063362
O36	O	1.664767	0.265519	0.269971
O37	O	1.127732	-0.510085	-0.631740
O38	O	1.461065	-0.176752	-0.298407
O39	O	1.794398	0.156581	0.034926
O40	O	0.992891	-0.503259	-0.497718
O41	O	1.326224	-0.169926	-0.164384
O42	O	1.659558	0.163407	0.168949
O43	O	1.235108	-0.413146	-0.632265
O44	O	1.568441	-0.079812	-0.298931
O45	O	1.901774	0.253521	0.034402
O46	O	1.222906	-0.650154	-0.419266
O47	O	1.556240	-0.316821	-0.085933
O48	O	1.889573	0.016512	0.247400
O49	O	1.120790	-0.644927	-0.510559
O50	O	1.454123	-0.311593	-0.177226
O51	O	1.787457	0.021740	0.156108
C52	C	0.965323	-0.450668	-0.445693
C53	C	1.298656	-0.117335	-0.112359
C54	C	1.631990	0.215999	0.220974
C55	C	0.872895	-0.445983	-0.441073
C56	C	1.206228	-0.112650	-0.107740
C57	C	1.539561	0.220684	0.225594
C58	C	0.659924	-0.485961	-0.480501
C59	C	0.993257	-0.152628	-0.147168
C60	C	1.326591	0.180706	0.186166
C61	C	0.703671	-0.437437	-0.432638
C62	C	1.037005	-0.104104	-0.099304
C63	C	1.370338	0.229230	0.234029
C64	C	0.797836	-0.442193	-0.437332
C65	C	1.131169	-0.108860	-0.103999
C66	C	1.464503	0.224473	0.229334
C67	C	0.565751	-0.481206	-0.475807
C68	C	0.899084	-0.147872	-0.142474
C69	C	1.232418	0.185461	0.190859
C70	C	1.170325	-0.677713	-0.466291
C71	C	1.503658	-0.344380	-0.132957
C72	C	1.836991	-0.011047	0.200376
C73	C	1.165674	-0.770143	-0.470493
C74	C	1.499007	-0.436810	-0.137160
C75	C	1.832340	-0.103476	0.196173
C76	C	1.205704	-0.983119	-0.434914
C77	C	1.539037	-0.649786	-0.101581
C78	C	1.872371	-0.316452	0.231753
C79	C	1.157198	-0.939369	-0.478176
C80	C	1.490531	-0.606036	-0.144842
C81	C	1.823864	-0.272703	0.188491
C82	C	1.161915	-0.845203	-0.473900
C83	C	1.495248	-0.511870	-0.140567
C84	C	1.828582	-0.178537	0.192767
C85	C	1.200988	-1.077294	-0.439189
C86	C	1.534321	-0.743960	-0.105855
C87	C	1.867654	-0.410627	0.227478
C88	C	1.398268	-0.472707	-0.467424
C89	C	1.731602	-0.139374	-0.134091
C90	C	2.064935	0.193959	0.199243
C91	C	1.490696	-0.477413	-0.472063
C92	C	1.824029	-0.144079	-0.138730
C93	C	2.157362	0.189254	0.194603
C94	C	1.181427	-0.461607	-0.661281
C95	C	1.514761	-0.128274	-0.327948
C96	C	1.848094	0.205060	0.005386
C97	C	1.181450	-0.461582	-0.748531
C98	C	1.514783	-0.128249	-0.415197
C99	C	1.848117	0.205085	-0.081864
C100	C	1.192489	-0.244776	-0.446763
C101	C	1.525822	0.088557	-0.113430
C102	C	1.859156	0.421891	0.219903
C103	C	1.197226	-0.152350	-0.442598
C104	C	1.530559	0.180983	-0.109265
C105	C	1.863892	0.514316	0.224068
C106	C	1.237363	-0.411101	-0.789795
C107	C	1.570696	-0.077768	-0.456462
C108	C	1.904030	0.255565	-0.123128
C109	C	1.237374	-0.411074	-0.871775
C110	C	1.570708	-0.077741	-0.538441
C111	C	1.904041	0.255593	-0.205108
C112	C	1.181476	-0.461533	-0.912489
C113	C	1.514810	-0.128199	-0.579156
C114	C	1.848143	0.205134	-0.245822
C115	C	1.125557	-0.512016	-0.871219
C116	C	1.458891	-0.178682	-0.537885
C117	C	1.792224	0.154651	-0.204552
C118	C	1.125543	-0.512038	-0.789240
C119	C	1.458876	-0.178705	-0.455907
C120	C	1.792209	0.154629	-0.122573
C121	C	1.125593	-0.511967	-1.042088
C122	C	1.458927	-0.178634	-0.708755
C123	C	1.792260	0.154699	-0.375422
C124	C	1.125609	-0.511947	-1.124073
C125	C	1.458942	-0.178613	-0.790739
C126	C	1.792276	0.154720	-0.457406
C127	C	1.237425	-0.411004	-1.124623
C128	C	1.570758	-0.077670	-0.791290
C129	C	1.904092	0.255663	-0.457956
C130	C	1.237410	-0.411026	-1.042644
C131	C	1.570744	-0.077692	-0.709311
C132	C	1.904077	0.255641	-0.375978
C133	C	1.181492	-0.461510	-1.001380
C134	C	1.514826	-0.128177	-0.668046
C135	C	1.848159	0.205157	-0.334713
C136	C	1.181372	-0.461667	-0.252589
C137	C	1.514705	-0.128333	0.080744
C138	C	1.848038	0.205000	0.414078
C139	C	1.181522	-0.461466	-0.165337
C140	C	1.514855	-0.128132	0.167996
C141	C	1.848188	0.205201	0.501330
H142	H	1.112127	-0.972635	-0.518424
H143	H	1.445460	-0.639302	-0.185091
H144	H	1.778793	-0.305968	0.148243
H145	H	0.670405	-0.392322	-0.388135
H146	H	1.003738	-0.058989	-0.054802
H147	H	1.337072	0.274345	0.278532
H148	H	0.693188	-0.531073	-0.524999
H149	H	1.026522	-0.197740	-0.191666
H150	H	1.359855	0.135594	0.141667
F151	F	1.296862	-0.357400	-0.746471
F152	F	1.630196	-0.024066	-0.413138
F153	F	1.963529	0.309267	-0.079805
H154	H	1.250771	-0.949857	-0.394667
H155	H	1.584105	-0.616524	-0.061334
H156	H	1.917438	-0.283190	0.271999
F157	F	1.296912	-0.357375	-0.915691
F158	F	1.630245	-0.024042	-0.582357
F159	F	1.963578	0.309291	-0.249024
H160	H	1.282932	-0.369943	-1.009497
H161	H	1.616265	-0.036609	-0.676164
H162	H	1.949599	0.296724	-0.342831
F163	F	1.296938	-0.357275	-1.168540
F164	F	1.630272	-0.023941	-0.835207
F165	F	1.963605	0.309392	-0.501874
H166	H	1.080090	-0.553033	-1.157220
H167	H	1.413423	-0.219699	-0.823887
H168	H	1.746757	0.113634	-0.490553
H169	H	1.080047	-0.553063	-1.008492
H170	H	1.413380	-0.219730	-0.675159
H171	H	1.746713	0.113603	-0.341825
H172	H	1.080041	-0.553097	-0.904375
H173	H	1.413375	-0.219764	-0.571041
H174	H	1.746708	0.113570	-0.237708
F175	F	1.066031	-0.565764	-0.745324
F176	F	1.399364	-0.232431	-0.411990
F177	F	1.732697	0.100902	-0.078657
