data_functionalizedCrystal
_audit_creation_method	'MofGen! by Chris Wilmer'
_symmetry_space_group_name_H-M	'P1'
_symmetry_Int_Tables_number	1
_symmetry_cell_setting	triclinic
loop_
_symmetry_equiv_pos_as_xyz
  x,y,z
_cell_length_a	19.188930
_cell_length_b	18.266242
_cell_length_c	19.188930
_cell_angle_alpha	89.988525
_cell_angle_beta	96.855221
_cell_angle_gamma	90.022918
loop_
_atom_site_label
_atom_site_type_symbol
_atom_site_fract_x
_atom_site_fract_y
_atom_site_fract_z
O1	O	0.926149	0.061124	-0.087169
O2	O	0.722838	0.061075	-0.098903
O3	O	0.830361	0.061087	0.008620
O4	O	0.818627	0.061113	-0.194691
O5	O	0.830343	-0.060675	0.008625
O6	O	0.722820	-0.060687	-0.098897
O7	O	0.926131	-0.060638	-0.087163
Zn8	Zn	0.824473	-0.079994	-0.093029
Zn9	Zn	0.824497	0.080432	-0.093037
O10	O	0.818608	-0.060649	-0.194686
C11	C	0.696818	0.000188	-0.098520
C12	C	0.619313	0.000169	-0.097380
N13	N	0.824461	-0.189481	-0.093024
C14	C	0.574389	0.000188	-0.160470
C15	C	0.501566	0.000196	-0.159399
C16	C	0.473669	0.000199	-0.095233
C17	C	0.518603	0.000175	-0.032133
C18	C	0.591425	0.000160	-0.033207
N19	N	0.365695	0.041663	-0.046188
N20	N	0.296516	0.041679	-0.045172
C21	C	0.254260	0.000243	-0.091994
N22	N	0.283795	-0.041200	-0.139881
N23	N	0.352980	-0.041213	-0.140899
C24	C	0.394707	0.000215	-0.094062
C25	C	0.130372	0.000270	-0.153928
C26	C	0.057547	0.000274	-0.152853
C27	C	0.074586	0.000261	-0.025586
C28	C	0.147409	0.000250	-0.026662
C29	C	0.175298	0.000258	-0.090835
C30	C	0.872088	-0.227785	-0.045436
C31	C	0.872092	-0.304430	-0.045433
C32	C	0.824477	-0.342768	-0.093030
C33	C	0.776841	-0.304455	-0.140621
C34	C	0.776834	-0.227812	-0.140618
N35	N	0.815401	-0.463094	-0.154837
N36	N	0.815413	-0.535902	-0.154838
C37	C	0.824496	-0.573691	-0.093040
N38	N	0.833582	-0.535920	-0.031239
N39	N	0.833574	-0.463106	-0.031240
C40	C	0.824480	-0.425875	-0.093038
C41	C	0.872131	-0.695101	-0.045444
C42	C	0.872130	-0.771748	-0.045440
C43	C	0.776882	-0.771772	-0.140634
C44	C	0.776879	-0.695127	-0.140632
C45	C	0.824507	-0.656796	-0.093038
C46	C	0.952151	0.000252	-0.087546
C47	C	1.029656	0.000276	-0.088687
C48	C	0.829972	0.000204	0.034634
C49	C	0.828831	0.000197	0.112138
N50	N	0.824513	0.189919	-0.093037
C51	C	0.818997	0.000236	-0.220700
C52	C	0.820138	0.000247	-0.298204
C53	C	0.891922	0.000209	0.157062
C54	C	0.890850	0.000220	0.229886
C55	C	0.826684	0.000206	0.257782
C56	C	0.763585	0.000198	0.212849
C57	C	0.764658	0.000194	0.140026
N58	N	0.777631	-0.041244	0.365789
N59	N	0.776615	-0.041242	0.434968
C60	C	0.823446	0.000220	0.477191
N61	N	0.871341	0.041669	0.447624
N62	N	0.872359	0.041664	0.378439
C63	C	0.825513	0.000210	0.336745
C64	C	0.885379	0.000245	0.601079
C65	C	0.884305	0.000261	0.673904
C66	C	0.757038	0.000231	0.656865
C67	C	0.758114	0.000222	0.584042
C68	C	0.822287	0.000226	0.556154
H69	H	0.597091	0.000196	-0.212725
H70	H	0.464982	0.000210	-0.210776
C71	C	0.693000	0.000180	0.243530
C72	C	0.640665	0.063398	0.226479
C73	C	0.570077	0.063385	0.257159
C74	C	0.551826	0.000154	0.304890
C75	C	0.604163	-0.063069	0.321943
C76	C	0.674750	-0.063055	0.291264
H77	H	0.654175	0.110210	0.191143
H78	H	0.531334	0.110187	0.244534
H79	H	0.499573	0.000144	0.327601
H80	H	0.590653	-0.109880	0.357279
H81	H	0.713493	-0.109857	0.303888
H82	H	0.020970	0.000285	-0.204232
H83	H	0.910877	-0.335623	-0.006680
C84	C	0.161056	0.000269	-0.224514
C85	C	0.111636	0.000278	-0.293917
C86	C	0.142317	0.000275	-0.364503
C87	C	0.222418	0.000264	-0.365688
C88	C	0.271843	0.000256	-0.296283
C89	C	0.241161	0.000258	-0.225696
H90	H	0.052336	0.000286	-0.293042
H91	H	0.105729	0.000282	-0.415881
H92	H	0.245130	0.000263	-0.417940
H93	H	0.331142	0.000248	-0.297157
H94	H	0.277749	0.000252	-0.174318
C95	C	0.688712	0.000196	0.534621
C96	C	0.618128	0.000177	0.565301
C97	C	0.548723	0.000152	0.515879
C98	C	0.549901	0.000146	0.435777
C99	C	0.620487	0.000164	0.405093
C100	C	0.689892	0.000189	0.454515
H101	H	0.617254	0.000182	0.624601
H102	H	0.496470	0.000139	0.538594
H103	H	0.498523	0.000127	0.399192
H104	H	0.621361	0.000159	0.345793
H105	H	0.742145	0.000203	0.431800
C106	C	0.955967	0.000258	0.570398
C107	C	0.974214	0.063484	0.522659
C108	C	1.044802	0.063499	0.491981
C109	C	1.097143	0.000287	0.509042
C110	C	1.078897	-0.062943	0.556783
C111	C	1.008309	-0.062958	0.587461
H112	H	0.935467	0.110281	0.510027
H113	H	1.058309	0.110306	0.456639
H114	H	1.149397	0.000298	0.486332
H115	H	1.117644	-0.109740	0.569415
H116	H	0.994802	-0.109765	0.622803
C117	C	0.924470	-0.185620	0.006921
C118	C	0.977772	-0.132891	-0.020227
C119	C	1.030152	-0.090722	0.032132
C120	C	1.029230	-0.101282	0.111637
C121	C	0.975925	-0.154013	0.138789
C122	C	0.923545	-0.196182	0.086431
H123	H	0.978457	-0.125072	-0.079085
H124	H	1.069612	-0.051688	0.012032
H125	H	1.068004	-0.070066	0.150396
H126	H	0.975240	-0.161832	0.197647
H127	H	0.884086	-0.235216	0.106530
H128	H	0.628003	0.000145	0.018171
C129	C	0.724464	-0.346623	-0.192979
C130	C	0.724503	-0.430928	-0.193020
C131	C	0.672121	-0.473094	-0.245378
C132	C	0.619700	-0.430956	-0.297696
C133	C	0.619659	-0.346647	-0.297657
C134	C	0.672041	-0.304480	-0.245299
H135	H	0.763310	-0.462125	-0.154289
H136	H	0.672152	-0.535506	-0.245405
H137	H	0.580924	-0.462170	-0.336454
H138	H	0.580853	-0.315449	-0.336388
H139	H	0.672011	-0.242068	-0.245272
H140	H	0.935683	0.000274	0.710481
H141	H	0.704792	0.000222	0.679578
C142	C	0.487920	0.000181	0.038450
C143	C	0.407819	0.000203	0.039635
C144	C	0.377138	0.000204	0.110221
C145	C	0.426558	0.000184	0.179624
C146	C	0.506664	0.000162	0.178442
C147	C	0.537345	0.000160	0.107855
H148	H	0.371231	0.000218	-0.011743
H149	H	0.317838	0.000221	0.111096
H150	H	0.403846	0.000185	0.231876
H151	H	0.543252	0.000147	0.229820
H152	H	0.596645	0.000144	0.106981
C153	C	0.196830	0.000240	0.042740
C154	C	0.193808	-0.062989	0.095389
C155	C	0.243229	-0.063002	0.164796
C156	C	0.295670	0.000215	0.181554
C157	C	0.298693	0.063448	0.128904
C158	C	0.249273	0.063461	0.059497
H159	H	0.154986	-0.109790	0.082985
H160	H	0.240990	-0.109811	0.203771
H161	H	0.332253	0.000206	0.232933
H162	H	0.337515	0.110249	0.141308
H163	H	0.251511	0.110271	0.020522
H164	H	0.738049	-0.196624	-0.179371
C165	C	0.924513	-0.652934	0.006914
C166	C	0.923586	-0.663490	0.086419
C167	C	0.975969	-0.621326	0.138779
C168	C	1.029278	-0.568605	0.111632
C169	C	1.030207	-0.558046	0.032123
C170	C	0.977824	-0.600210	-0.020236
H171	H	0.884121	-0.702520	0.106518
H172	H	0.975281	-0.629143	0.197637
H173	H	1.068055	-0.537392	0.150392
H174	H	1.069672	-0.519016	0.012024
H175	H	0.978512	-0.592394	-0.079095
C176	C	0.924522	-0.813887	0.006910
C177	C	0.976924	-0.771723	0.059244
C178	C	1.029316	-0.813865	0.111595
C179	C	1.029307	-0.898169	0.111610
C180	C	0.976903	-0.940338	0.059274
C181	C	0.924511	-0.898197	0.006924
H182	H	0.976932	-0.709312	0.059235
H183	H	1.068108	-0.782648	0.150338
H184	H	1.068091	-0.929365	0.150363
H185	H	0.976895	-1.002749	0.059284
H186	H	0.885718	-0.929413	-0.031819
C187	C	0.724503	-0.813936	-0.192991
C188	C	0.724555	-0.898240	-0.193040
C189	C	0.672172	-0.940409	-0.245396
C190	C	0.619737	-0.898273	-0.297701
C191	C	0.619683	-0.813963	-0.297654
C192	C	0.672066	-0.771795	-0.245298
H193	H	0.763372	-0.929436	-0.154319
H194	H	0.672213	-1.002821	-0.245430
H195	H	0.580960	-0.929489	-0.336458
H196	H	0.580866	-0.782768	-0.336375
H197	H	0.672026	-0.709383	-0.245263
C198	C	0.960254	0.000226	0.279314
C199	C	1.030840	0.000228	0.248638
C200	C	1.100243	0.000231	0.298064
C201	C	1.099060	0.000232	0.378165
C202	C	1.028472	0.000229	0.408845
C203	C	0.959068	0.000227	0.359420
H204	H	1.031717	0.000228	0.189339
H205	H	1.152497	0.000233	0.275353
H206	H	1.150436	0.000234	0.414753
H207	H	1.027594	0.000230	0.468145
H208	H	0.906814	0.000225	0.382131
H209	H	0.738100	-0.663938	-0.179386
H210	H	0.051874	0.000309	0.026659
H211	H	0.944176	0.000214	0.134360
H212	H	0.713281	0.000184	0.103448
