data_functionalizedCrystal
_audit_creation_method	'MofGen! by Chris Wilmer'
_symmetry_space_group_name_H-M	'P1'
_symmetry_Int_Tables_number	1
_symmetry_cell_setting	triclinic
loop_
_symmetry_equiv_pos_as_xyz
  x,y,z
_cell_length_a	21.395364
_cell_length_b	19.805405
_cell_length_c	21.395355
_cell_angle_alpha	89.980090
_cell_angle_beta	89.975484
_cell_angle_gamma	90.022175
loop_
_atom_site_label
_atom_site_type_symbol
_atom_site_fract_x
_atom_site_fract_y
_atom_site_fract_z
Zn1	Zn	0.957878	-0.269618	-0.354255
Zn2	Zn	0.957788	-0.382788	-0.249475
Zn3	Zn	0.853093	-0.269610	-0.249492
Zn4	Zn	0.853070	-0.382762	-0.354215
O5	O	0.905457	-0.326194	-0.301859
O6	O	1.045544	-0.284645	-0.340365
O7	O	0.943872	-0.367782	-0.161799
O8	O	0.867040	-0.174894	-0.263412
O9	O	1.045478	-0.367790	-0.263384
O10	O	0.944025	-0.174900	-0.340381
O11	O	0.866953	-0.284630	-0.161811
O12	O	0.765412	-0.284605	-0.263374
O13	O	0.867001	-0.367746	-0.441898
O14	O	0.765395	-0.367738	-0.340314
O15	O	0.944003	-0.284620	-0.441927
O16	O	0.943850	-0.477501	-0.263345
O17	O	0.866914	-0.477482	-0.340297
C18	C	0.742669	-0.326169	-0.301841
C19	C	0.673028	-0.326174	-0.301849
C20	C	0.171266	-0.283003	-0.342017
C21	C	0.236701	-0.282998	-0.342017
C22	C	0.269390	-0.326215	-0.301873
C23	C	0.236638	-0.369453	-0.261737
C24	C	0.171204	-0.369462	-0.261743
C25	C	0.373027	-0.331456	-0.245406
C26	C	0.438460	-0.331443	-0.245399
C27	C	0.471211	-0.326193	-0.301856
C28	C	0.438521	-0.320941	-0.358321
C29	C	0.373086	-0.320950	-0.358327
C30	C	0.340342	-0.326211	-0.301863
C31	C	0.574907	-0.282955	-0.341992
C32	C	0.640344	-0.282955	-0.341993
C33	C	0.640279	-0.369407	-0.261707
C34	C	0.574844	-0.369411	-0.261712
C35	C	0.542162	-0.326181	-0.301853
C36	C	0.905387	-0.502051	-0.301829
C37	C	0.905414	-0.577282	-0.301837
C38	C	0.945513	-0.612614	-0.261810
C39	C	0.945540	-0.683302	-0.261823
C40	C	0.905463	-0.718658	-0.301862
C41	C	0.865362	-0.683322	-0.341893
C42	C	0.865339	-0.612634	-0.341882
C43	C	0.865454	-0.968395	-0.341940
C44	C	0.865479	-1.039087	-0.341946
C45	C	0.945655	-1.039063	-0.261881
C46	C	0.945632	-0.968376	-0.261870
C47	C	0.905534	-0.933045	-0.301903
C48	C	0.905506	-0.856397	-0.301889
C49	C	0.905487	-0.795305	-0.301874
C50	C	1.068880	-0.326221	-0.301877
C51	C	1.138522	-0.326232	-0.301885
C52	C	0.905509	-0.326181	-0.465282
C53	C	0.905531	-0.326175	-0.534924
C54	C	0.905545	-0.149652	-0.301903
C55	C	0.905582	-0.074420	-0.301922
C56	C	0.945624	-0.282889	-0.567653
C57	C	0.945624	-0.282860	-0.633088
C58	C	0.905536	-0.326129	-0.665792
C59	C	0.865435	-0.369418	-0.633055
C60	C	0.865433	-0.369441	-0.567621
C61	C	0.900564	-0.387073	-0.769456
C62	C	0.900571	-0.387051	-0.834889
C63	C	0.905540	-0.326057	-0.867613
C64	C	0.910515	-0.265084	-0.834895
C65	C	0.910513	-0.265107	-0.769461
C66	C	0.905534	-0.326108	-0.736744
C67	C	0.945634	-0.282736	-0.971295
C68	C	0.945629	-0.282706	-1.036731
C69	C	0.865444	-0.369270	-1.036697
C70	C	0.865446	-0.369294	-0.971261
C71	C	0.905545	-0.326028	-0.938564
C72	C	0.905441	-0.326159	-0.139071
C73	C	0.905541	-0.325974	-0.069431
H74	H	0.666894	-0.404601	-0.229026
H75	H	0.667003	-0.247754	-0.374678
H76	H	0.896524	-0.436699	-0.861523
H77	H	0.548296	-0.247755	-0.374677
O78	O	0.984385	-0.578168	-0.222936
C79	C	1.019915	-0.469264	-0.187459
C80	C	0.975847	-0.508187	-0.231504
H81	H	1.013036	-0.412677	-0.194380
H82	H	1.008941	-0.483150	-0.136915
H83	H	1.070428	-0.483157	-0.198505
H84	H	0.925319	-0.494314	-0.220514
H85	H	0.986874	-0.494298	-0.282034
O86	O	0.826329	-0.578416	-0.380786
C87	C	0.746840	-0.585895	-0.460239
C88	C	0.790972	-0.624730	-0.416196
H89	H	0.718251	-0.623323	-0.488889
H90	H	0.714038	-0.552858	-0.431474
H91	H	0.775595	-0.552745	-0.492993
H92	H	0.762268	-0.657917	-0.383433
H93	H	0.823776	-0.657725	-0.445000
O94	O	0.543130	-0.411420	-0.222662
C95	C	0.549973	-0.497193	-0.143056
C96	C	0.585967	-0.449637	-0.187238
H97	H	0.584591	-0.528114	-0.114414
H98	H	0.519347	-0.466102	-0.110306
H99	H	0.519327	-0.532604	-0.171775
H100	H	0.616647	-0.414217	-0.158569
H101	H	0.616553	-0.480770	-0.219989
H102	H	0.465071	-0.335715	-0.199421
O103	O	0.984634	-1.073279	-0.222937
C104	C	1.064183	-1.065792	-0.143544
C105	C	1.020065	-1.026961	-0.187606
H106	H	1.092850	-1.028361	-0.114977
H107	H	1.035475	-1.098911	-0.110720
H108	H	1.096917	-1.098860	-0.172354
H109	H	0.987322	-0.993856	-0.158846
H110	H	1.048812	-0.993885	-0.220431
H111	H	0.832801	-0.404546	-0.944613
O112	O	0.984514	-0.240672	-1.068624
C113	C	1.020070	-0.202290	-1.169443
C114	C	0.975994	-0.249920	-1.133403
H115	H	1.013206	-0.209760	-1.221823
H116	H	1.009093	-0.147702	-1.156615
H117	H	1.070580	-0.214181	-1.156565
H118	H	0.925469	-0.238090	-1.146261
H119	H	0.987025	-0.304493	-1.146234
H120	H	0.346473	-0.316676	-0.404303
O121	O	0.341313	-0.336533	-0.190501
C122	C	0.348158	-0.346985	-0.078500
C123	C	0.384151	-0.341222	-0.140629
H124	H	0.382777	-0.350791	-0.038164
H125	H	0.317549	-0.300421	-0.071921
H126	H	0.317496	-0.394061	-0.079429
H127	H	0.414847	-0.294173	-0.139745
H128	H	0.414721	-0.387820	-0.147184
O129	O	0.984511	-0.717519	-0.222880
C130	C	1.064056	-0.710035	-0.143484
C131	C	1.019941	-0.671202	-0.187546
H132	H	1.092723	-0.672605	-0.114914
H133	H	1.035347	-0.743153	-0.110661
H134	H	1.096791	-0.743104	-0.172293
H135	H	0.987198	-0.638097	-0.158788
H136	H	1.048690	-0.638127	-0.220370
H137	H	0.914562	-0.215417	-0.861538
H138	H	0.978264	-0.939591	-0.229265
H139	H	0.832845	-1.067871	-0.374555
O140	O	0.268585	-0.240966	-0.380915
C141	C	0.342459	-0.149557	-0.389473
C142	C	0.306405	-0.197126	-0.345352
H143	H	0.373035	-0.114091	-0.360737
H144	H	0.373147	-0.180637	-0.422173
H145	H	0.307847	-0.118696	-0.418177
H146	H	0.340972	-0.227998	-0.316607
H147	H	0.275708	-0.166008	-0.312693
O148	O	0.826436	-0.934186	-0.380837
C149	C	0.746923	-0.941675	-0.460266
C150	C	0.791075	-0.980505	-0.416238
H151	H	0.718332	-0.979108	-0.488908
H152	H	0.714125	-0.908646	-0.431489
H153	H	0.775663	-0.908519	-0.493027
H154	H	0.762386	-1.013698	-0.383468
H155	H	0.823875	-1.013492	-0.445054
O156	O	0.826421	-0.411398	-0.535797
C157	C	0.741851	-0.420523	-0.461854
C158	C	0.785982	-0.372927	-0.497866
H159	H	0.709154	-0.389440	-0.431168
H160	H	0.713151	-0.451432	-0.496438
H161	H	0.770614	-0.455945	-0.431261
H162	H	0.757267	-0.337465	-0.528460
H163	H	0.814684	-0.342067	-0.463249
H164	H	0.978275	-0.247658	-0.541035
O165	O	0.895699	-0.446383	-0.737769
C166	C	0.885663	-0.567339	-0.744668
C167	C	0.891225	-0.500228	-0.780631
H168	H	0.882030	-0.610888	-0.779307
H169	H	0.928725	-0.574608	-0.714035
H170	H	0.842068	-0.566195	-0.714033
H171	H	0.934794	-0.501323	-0.811301
H172	H	0.848132	-0.492984	-0.811225
H173	H	0.263257	-0.404643	-0.229053
H174	H	0.832734	-0.712114	-0.374496
H175	H	0.144544	-0.404666	-0.229061
H176	H	0.978271	-0.247608	-0.659742
H177	H	0.978282	-0.247503	-0.944671
H178	H	0.914562	-0.215460	-0.742826
H179	H	0.465185	-0.316662	-0.404293
H180	H	0.832798	-0.404493	-1.063323
O181	O	0.826437	-0.411472	-0.664723
C182	C	0.746931	-0.497360	-0.657784
C183	C	0.791058	-0.449758	-0.621843
H184	H	0.718325	-0.528336	-0.623132
H185	H	0.714145	-0.466302	-0.688391
H186	H	0.775691	-0.532717	-0.688444
H187	H	0.762348	-0.414391	-0.591149
H188	H	0.823846	-0.480857	-0.591276
O189	O	0.139616	-0.240994	-0.381072
C190	C	0.146589	-0.155214	-0.460672
C191	C	0.182511	-0.202764	-0.416484
H192	H	0.181254	-0.124283	-0.489305
H193	H	0.115982	-0.186309	-0.493429
H194	H	0.115930	-0.119812	-0.431956
H195	H	0.213204	-0.238176	-0.445149
H196	H	0.213079	-0.171627	-0.383725
