data_functionalizedCrystal
_audit_creation_method	'MofGen! by Chris Wilmer'
_symmetry_space_group_name_H-M	'P1'
_symmetry_Int_Tables_number	1
_symmetry_cell_setting	triclinic
loop_
_symmetry_equiv_pos_as_xyz
  x,y,z
_cell_length_a	14.971487
_cell_length_b	17.766277
_cell_length_c	14.971486
_cell_angle_alpha	89.999154
_cell_angle_beta	83.614265
_cell_angle_gamma	89.996813
loop_
_atom_site_label
_atom_site_type_symbol
_atom_site_fract_x
_atom_site_fract_y
_atom_site_fract_z
O1	O	-1.186950	0.062477	-0.116567
O2	O	-0.686950	0.562477	0.383433
O3	O	-0.926550	0.062501	-0.130525
O4	O	-0.426550	0.562501	0.369475
O5	O	-1.063730	0.062494	0.006654
O6	O	-0.563730	0.562494	0.506654
O7	O	-1.049771	0.062484	-0.253746
O8	O	-0.549771	0.562484	0.246254
O9	O	-1.063706	-0.062695	0.006661
O10	O	-0.563706	0.437305	0.506661
O11	O	-0.926526	-0.062687	-0.130518
O12	O	-0.426526	0.437313	0.369482
O13	O	-1.186926	-0.062712	-0.116560
O14	O	-0.686926	0.437288	0.383440
Cu15	Cu	-1.056724	-0.074130	-0.123538
Cu16	Cu	-0.556724	0.425870	0.376462
Cu17	Cu	-1.056753	0.073920	-0.123547
Cu18	Cu	-0.556753	0.573920	0.376453
O19	O	-1.049747	-0.062704	-0.253739
O20	O	-0.549747	0.437296	0.246261
C21	C	-0.893214	-0.000090	-0.129897
C22	C	-0.393214	0.499910	0.370103
C23	C	-0.793917	-0.000080	-0.128026
C24	C	-0.293917	0.499920	0.371974
N25	N	-1.056710	-0.178261	-0.123532
N26	N	-0.556710	0.321739	0.376468
C27	C	-0.736691	-0.000084	-0.208615
C28	C	-0.236691	0.499916	0.291385
C29	C	-0.643392	-0.000093	-0.206852
C30	C	-0.143392	0.499907	0.293148
C31	C	-0.607320	-0.000094	-0.124499
C32	C	-0.107320	0.499906	0.375501
C33	C	-0.664552	-0.000093	-0.043903
C34	C	-0.164552	0.499907	0.456097
C35	C	-0.757850	-0.000089	-0.045668
C36	C	-0.257850	0.499911	0.454332
C37	C	-0.470090	-0.000100	-0.040232
C38	C	0.029910	0.499900	0.459768
C39	C	-0.376786	-0.000102	-0.038467
C40	C	0.123214	0.499898	0.461533
C41	C	-0.355632	-0.000104	-0.201416
C42	C	0.144368	0.499896	0.298584
C43	C	-0.448929	-0.000100	-0.203181
C44	C	0.051071	0.499900	0.296819
C45	C	-0.506156	-0.000097	-0.122585
C46	C	-0.006156	0.499903	0.377415
C47	C	-1.117473	-0.217651	-0.062819
C48	C	-0.617473	0.282349	0.437181
C49	C	-1.117478	-0.296452	-0.062815
C50	C	-0.617478	0.203548	0.437185
C51	C	-1.056729	-0.335861	-0.123539
C52	C	-0.556729	0.164139	0.376461
C53	C	-0.995955	-0.296462	-0.184257
C54	C	-0.495955	0.203538	0.315743
C55	C	-0.995946	-0.217661	-0.184253
C56	C	-0.495946	0.282339	0.315747
C57	C	-1.045097	-0.460701	-0.204988
C58	C	-0.545097	0.039299	0.295012
C59	C	-1.045113	-0.539500	-0.204993
C60	C	-0.545113	-0.039500	0.295007
C61	C	-1.056753	-0.578907	-0.123550
C62	C	-0.556753	-0.078907	0.376450
C63	C	-1.068397	-0.539506	-0.042099
C64	C	-0.568397	-0.039506	0.457901
C65	C	-1.068388	-0.460706	-0.042095
C66	C	-0.568388	0.039294	0.457905
C67	C	-1.056732	-0.421307	-0.123549
C68	C	-0.556732	0.078693	0.376451
C69	C	-1.117525	-0.703743	-0.062827
C70	C	-0.617525	-0.203743	0.437173
C71	C	-1.117524	-0.782547	-0.062822
C72	C	-0.617524	-0.282547	0.437178
C73	C	-0.996005	-0.782554	-0.184272
C74	C	-0.496005	-0.282554	0.315728
C75	C	-0.996002	-0.703753	-0.184269
C76	C	-0.496002	-0.203753	0.315731
C77	C	-1.056767	-0.664352	-0.123548
C78	C	-0.556767	-0.164352	0.376452
C79	C	-0.220263	-0.000114	-0.117187
C80	C	0.279737	0.499886	0.382813
C81	C	-0.319560	-0.000106	-0.119056
C82	C	0.180440	0.499894	0.380944
C83	C	-1.050383	-0.000112	-0.287067
C84	C	-0.550383	0.499888	0.212933
C85	C	-1.052254	-0.000116	-0.386364
C86	C	-0.552254	0.499884	0.113636
N87	N	-1.056773	0.178050	-0.123546
N88	N	-0.556773	0.678050	0.376454
C89	C	-0.971665	-0.000108	-0.443589
C90	C	-0.471665	0.499892	0.056411
C91	C	-0.973428	-0.000098	-0.536889
C92	C	-0.473428	0.499902	-0.036889
C93	C	-1.055781	-0.000101	-0.572961
C94	C	-0.555781	0.499899	-0.072961
C95	C	-1.136376	-0.000107	-0.515729
C96	C	-0.636376	0.499893	-0.015729
C97	C	-1.134612	-0.000112	-0.422431
C98	C	-0.634612	0.499888	0.077569
C99	C	-1.140047	-0.000099	-0.710191
C100	C	-0.640047	0.499901	-0.210191
C101	C	-1.141812	-0.000096	-0.803496
C102	C	-0.641812	0.499904	-0.303496
C103	C	-0.978863	-0.000085	-0.824649
C104	C	-0.478863	0.499915	-0.324649
C105	C	-0.977099	-0.000090	-0.731351
C106	C	-0.477099	0.499910	-0.231351
C107	C	-1.057695	-0.000097	-0.674125
C108	C	-0.557695	0.499903	-0.174125
C109	C	-1.063094	-0.000097	0.039982
C110	C	-0.563094	0.499903	0.539982
C111	C	-1.061223	-0.000088	0.139279
C112	C	-0.561223	0.499912	0.639279
H113	H	-0.766053	-0.000082	-0.275677
H114	H	-0.266053	0.499918	0.224323
Cl115	Cl	-1.030545	-0.411169	-0.307387
Cl116	Cl	-0.530545	0.088831	0.192613
H117	H	-1.208871	-0.000098	-0.832862
H118	H	-0.708871	0.499902	-0.332862
Cl119	Cl	-0.872111	-0.000080	-0.608826
Cl120	Cl	-0.372111	0.499920	-0.108826
H121	H	-1.167002	-0.814619	-0.013377
H122	H	-0.667002	-0.314619	0.486623
H123	H	-0.910040	-0.000091	-0.701985
H124	H	-0.410040	0.499909	-0.201985
H125	H	-0.946491	-0.328552	-0.233698
H126	H	-0.446491	0.171448	0.266302
Cl127	Cl	-0.331439	-0.000129	0.065064
Cl128	Cl	0.168561	0.499871	0.565064
H129	H	-1.166960	-0.328530	-0.013373
H130	H	-0.666960	0.171470	0.486627
H131	H	-0.635175	-0.000105	0.023150
H132	H	-0.135175	0.499895	0.523150
Cl133	Cl	-0.571455	-0.000092	-0.308169
Cl134	Cl	-0.071455	0.499908	0.191831
Cl135	Cl	-0.494276	-0.000090	-0.306712
Cl136	Cl	0.005724	0.499910	0.193288
Cl137	Cl	-0.283691	-0.000108	-0.302737
Cl138	Cl	0.216309	0.499892	0.197263
Cl139	Cl	-1.241370	-0.000105	-0.638251
Cl140	Cl	-0.741370	0.499895	-0.138251
H141	H	-1.166949	-0.185573	-0.013374
H142	H	-0.666949	0.314427	0.486626
Cl143	Cl	-0.877542	-0.000081	-0.896590
Cl144	Cl	-0.377542	0.499919	-0.396590
H145	H	-1.077866	-0.428628	0.024225
H146	H	-0.577866	0.071372	0.524225
H147	H	-0.516682	-0.000099	0.025398
H148	H	-0.016682	0.499901	0.525398
H149	H	-0.804443	-0.000086	0.019956
H150	H	-0.304443	0.499914	0.519956
H151	H	-1.035637	-0.571575	-0.271315
H152	H	-0.535637	-0.071575	0.228685
H153	H	-1.077876	-0.571590	0.024220
H154	H	-0.577876	-0.071590	0.524220
Cl155	Cl	-1.193910	-0.654210	0.013512
Cl156	Cl	-0.693910	-0.154210	0.513512
Cl157	Cl	-0.919628	-0.832091	-0.260605
Cl158	Cl	-0.419628	-0.332091	0.239395
Cl159	Cl	-0.868129	-0.000109	-0.398251
Cl160	Cl	-0.368129	0.499891	0.101749
Cl161	Cl	-1.239907	-0.000106	-0.561077
Cl162	Cl	-0.739907	0.499894	-0.061077
Cl163	Cl	-0.919615	-0.654229	-0.260603
Cl164	Cl	-0.419615	-0.154229	0.239397
Cl165	Cl	-0.919553	-0.168139	-0.260585
Cl166	Cl	-0.419553	0.331861	0.239415
H167	H	-1.200237	-0.000115	-0.375839
H168	H	-0.700237	0.499885	0.124161
