data_functionalizedCrystal
_audit_creation_method	'MofGen! by Chris Wilmer'
_symmetry_space_group_name_H-M	'P1'
_symmetry_Int_Tables_number	1
_symmetry_cell_setting	triclinic
loop_
_symmetry_equiv_pos_as_xyz
  x,y,z
_cell_length_a	14.853567
_cell_length_b	14.853567
_cell_length_c	13.330367
_cell_angle_alpha	90.004582
_cell_angle_beta	89.999156
_cell_angle_gamma	96.365070
loop_
_atom_site_label
_atom_site_type_symbol
_atom_site_fract_x
_atom_site_fract_y
_atom_site_fract_z
O1	O	0.117704	-1.196369	-0.083346
O2	O	0.131725	-0.933909	-0.083362
O3	O	-0.006515	-1.072150	-0.083356
O4	O	0.255944	-1.058128	-0.083351
O5	O	-0.006519	-1.072130	0.083491
O6	O	0.131722	-0.933889	0.083485
O7	O	0.117700	-1.196349	0.083501
Cu8	Cu	0.124711	-1.065117	0.098728
Cu9	Cu	0.124715	-1.065141	-0.098588
O10	O	0.255941	-1.058108	0.083496
C11	C	0.131088	-0.900311	0.000060
C12	C	0.129184	-0.800227	0.000053
C13	C	0.118337	-1.229947	0.000078
C14	C	0.120241	-1.330031	0.000078
C15	C	-0.040106	-1.071504	0.000064
C16	C	-0.140189	-1.069601	0.000055
C17	C	-0.552723	-0.979435	0.000069
C18	C	-0.574004	-1.143668	0.000079
C19	C	-0.479971	-1.145458	0.000073
C20	C	-0.422309	-1.064235	0.000067
C21	C	-0.458680	-0.981223	0.000066
C22	C	-0.443591	-1.228469	0.000084
C23	C	-0.349552	-1.230262	0.000079
C24	C	-0.291889	-1.149039	0.000066
C25	C	-0.328266	-1.066023	0.000064
C26	C	-0.270604	-0.984800	0.000058
C27	C	-0.306979	-0.901783	0.000049
C28	C	-0.401017	-0.899999	0.000053
C29	C	-0.197851	-1.150823	0.000062
C30	C	-0.176561	-0.986588	0.000055
C31	C	0.289531	-1.058754	0.000073
C32	C	0.389615	-1.060657	0.000075
N33	N	0.124708	-1.065107	0.237509
C34	C	0.039019	-0.387693	0.000074
C35	C	0.203251	-0.366412	0.000076
C36	C	0.205042	-0.460446	0.000073
C37	C	0.123819	-0.518108	0.000069
C38	C	0.040806	-0.481736	0.000067
C39	C	0.288053	-0.496825	0.000064
C40	C	0.289846	-0.590864	0.000059
C41	C	0.208623	-0.648528	0.000062
C42	C	0.125607	-0.612150	0.000062
C43	C	0.044384	-0.669812	0.000058
C44	C	-0.038633	-0.633437	0.000065
C45	C	-0.040417	-0.539399	0.000070
C46	C	0.210407	-0.742565	0.000057
C47	C	0.046172	-0.763855	0.000052
N48	N	0.124711	-1.065158	-0.237370
C49	C	0.185903	-1.003925	0.710130
C50	C	0.063519	-1.126381	0.710103
C51	C	0.063516	-1.126371	0.605084
C52	C	0.124709	-1.065138	0.552584
C53	C	0.185904	-1.003915	0.605102
C54	C	0.002328	-1.187598	0.552559
C55	C	0.002323	-1.187591	0.447534
C56	C	0.063512	-1.126353	0.395031
C57	C	0.124710	-1.065127	0.447556
C58	C	0.185902	-1.003895	0.395055
C59	C	0.247096	-0.942664	0.447578
C60	C	0.247093	-0.942677	0.552599
C61	C	0.063515	-1.126340	0.290010
C62	C	0.185903	-1.003884	0.290027
H63	H	-0.129618	-0.920445	0.000045
C64	C	0.253219	-0.936529	0.232285
H65	H	0.289664	-0.900072	0.278608
H66	H	0.220722	-0.898961	0.191318
H67	H	0.290814	-0.969006	0.191314
C68	C	-0.507017	-1.317805	0.000098
H69	H	-0.568232	-1.304848	0.000088
H70	H	-0.495981	-1.351828	0.058286
H71	H	-0.495982	-1.351848	-0.058088
H72	H	-0.319944	-1.297860	0.000085
H73	H	0.357443	-0.620472	0.000053
C74	C	-0.243546	-0.812444	0.000040
H75	H	-0.182333	-0.825404	0.000036
H76	H	-0.254581	-0.778397	0.058217
H77	H	-0.254579	-0.778422	-0.058157
C78	C	0.292588	-0.302988	0.000083
H79	H	0.279634	-0.241773	0.000092
H80	H	0.326628	-0.314027	-0.058097
H81	H	0.326615	-0.314024	0.058277
C82	C	-0.441027	-0.808689	0.000044
H83	H	-0.393220	-0.760570	0.000028
H84	H	-0.477268	-0.804569	0.058228
H85	H	-0.477270	-0.804591	-0.058146
H86	H	0.354180	-0.449870	0.000057
C87	C	0.301713	-0.782576	0.000046
H88	H	0.349830	-0.734766	0.000050
H89	H	0.305820	-0.818821	-0.058138
H90	H	0.305828	-0.818813	0.058235
C91	C	-0.003787	-1.193731	0.767850
H92	H	0.004974	-1.184966	0.837919
H93	H	0.006110	-1.253907	0.750624
H94	H	-0.063978	-1.183858	0.750645
H95	H	-0.168238	-1.218414	0.000076
H96	H	0.296924	-0.892811	0.404820
H97	H	0.296916	-0.892826	0.595370
C98	C	0.253214	-0.936579	0.767898
H99	H	0.244456	-0.945355	0.837965
H100	H	0.243315	-0.876401	0.750695
H101	H	0.313404	-0.946449	0.750683
H102	H	-0.019971	-0.810798	0.000052
C103	C	-0.592731	-0.888123	0.000063
H104	H	-0.656995	-0.898687	0.000071
H105	H	-0.572944	-0.854682	-0.058120
H106	H	-0.572946	-0.854673	0.058254
C107	C	-0.127972	-0.696870	0.000061
H108	H	-0.115012	-0.758083	0.000059
H109	H	-0.162010	-0.685834	-0.058118
H110	H	-0.162003	-0.685838	0.058256
H111	H	-0.620958	-1.209795	0.000092
H112	H	-0.108005	-0.509774	0.000100
C113	C	-0.052293	-0.347685	0.000077
H114	H	-0.041730	-0.283422	0.000076
H115	H	-0.085743	-0.367472	0.058257
H116	H	-0.085735	-0.367470	-0.058117
H117	H	-0.047489	-1.237457	0.595308
H118	H	-0.047504	-1.237447	0.404776
H119	H	0.013696	-1.176197	0.247251
