data_functionalizedCrystal
_audit_creation_method	'MofGen! by Chris Wilmer'
_symmetry_space_group_name_H-M	'P1'
_symmetry_Int_Tables_number	1
_symmetry_cell_setting	triclinic
loop_
_symmetry_equiv_pos_as_xyz
  x,y,z
_cell_length_a	19.188930
_cell_length_b	11.792241
_cell_length_c	10.268362
_cell_angle_alpha	90.005428
_cell_angle_beta	90.018465
_cell_angle_gamma	83.669098
loop_
_atom_site_label
_atom_site_type_symbol
_atom_site_fract_x
_atom_site_fract_y
_atom_site_fract_z
O1	O	-0.926947	-0.141694	-0.108720
O2	O	-0.723744	-0.160769	-0.108631
O3	O	-0.830277	0.014013	-0.108668
O4	O	-0.820415	-0.316476	-0.108682
O5	O	-0.830268	0.014020	0.107932
O6	O	-0.723735	-0.160762	0.107970
O7	O	-0.926938	-0.141687	0.107881
Cu8	Cu	-0.825336	-0.151224	0.127703
Cu9	Cu	-0.825347	-0.151232	-0.128453
O10	O	-0.820405	-0.316469	0.107919
C11	C	-0.829653	0.056298	-0.000368
C12	C	-0.827799	0.182284	-0.000368
C13	C	-0.697725	-0.160148	-0.000319
C14	C	-0.620210	-0.158293	-0.000285
C15	C	-0.952957	-0.142309	-0.000434
C16	C	-1.030472	-0.144163	-0.000477
C17	C	-0.575867	-0.260849	-0.000309
C18	C	-0.503033	-0.259107	-0.000324
C19	C	-0.474546	-0.154803	-0.000339
C20	C	-0.518899	-0.052234	-0.000307
C21	C	-0.591731	-0.053979	-0.000280
N22	N	-0.366117	-0.075079	-0.074107
N23	N	-0.296929	-0.073428	-0.074136
C24	C	-0.255107	-0.149540	-0.000419
N25	N	-0.285086	-0.227382	0.073312
N26	N	-0.354280	-0.229036	0.073335
C27	C	-0.395573	-0.152900	-0.000368
C28	C	-0.131789	-0.250214	-0.000457
C29	C	-0.058955	-0.248468	-0.000463
C30	C	-0.074822	-0.041591	-0.000460
C31	C	-0.147655	-0.043341	-0.000440
C32	C	-0.176134	-0.147655	-0.000445
C33	C	-0.821029	-0.358754	-0.000385
C34	C	-0.822884	-0.484740	-0.000393
N35	N	-0.825333	-0.151217	0.307869
C36	C	-0.824389	0.412945	-0.000389
C37	C	-0.826283	0.284588	-0.000378
N38	N	-0.825355	-0.151230	-0.308618
C39	C	-0.825343	-0.151230	0.573539
C40	C	-0.825335	-0.151226	0.425701
H41	H	-0.599050	-0.345790	-0.000316
H42	H	-0.154978	-0.335153	-0.000442
F43	F	-0.488580	0.058774	-0.000318
H44	H	-0.183760	0.040172	-0.000427
F45	F	-0.011761	-0.357628	-0.000483
F46	F	-0.455831	-0.368266	-0.000346
H47	H	-0.627836	0.029537	-0.000260
F48	F	-0.044508	0.069418	-0.000464
