data_functionalizedCrystal
_audit_creation_method	'MofGen! by Chris Wilmer'
_symmetry_space_group_name_H-M	'P1'
_symmetry_Int_Tables_number	1
_symmetry_cell_setting	triclinic
loop_
_symmetry_equiv_pos_as_xyz
  x,y,z
_cell_length_a	12.594516
_cell_length_b	17.639155
_cell_length_c	17.639306
_cell_angle_alpha	87.838055
_cell_angle_beta	101.188703
_cell_angle_gamma	101.176288
loop_
_atom_site_label
_atom_site_type_symbol
_atom_site_fract_x
_atom_site_fract_y
_atom_site_fract_z
Zn1	Zn	-0.815974	-1.247532	-0.194296
Zn2	Zn	-0.952414	-1.221801	-0.067344
Zn3	Zn	-0.746932	-1.094911	-0.093044
Zn4	Zn	-0.966360	-1.120535	-0.219982
O5	O	-0.870420	-1.171195	-0.143666
O6	O	-0.857132	-1.350372	-0.155950
O7	O	-0.890426	-1.183477	0.035501
O8	O	-0.607159	-1.115202	-0.106481
O9	O	-0.957373	-1.331467	-0.062679
O10	O	-0.657884	-1.227331	-0.180871
O11	O	-0.739459	-1.090252	0.016619
O12	O	-0.752982	-0.992058	-0.131388
O13	O	-0.981142	-1.158874	-0.322828
O14	O	-0.914194	-1.010884	-0.224648
O15	O	-0.870654	-1.252178	-0.303957
O16	O	-1.103196	-1.208324	-0.087585
O17	O	-1.113442	-1.133924	-0.199728
C18	C	-0.827610	-0.973921	-0.183595
C19	C	-0.809327	-0.889529	-0.200694
C20	C	-1.009510	-0.562716	-0.013740
C21	C	-0.992319	-0.483419	-0.029815
C22	C	-0.888204	-0.503132	-0.127082
C23	C	-0.905382	-0.582432	-0.111014
C24	C	-0.966037	-0.612217	-0.054342
C25	C	-0.861909	-0.631933	-0.151616
C26	C	-0.879091	-0.711227	-0.135551
C27	C	-0.939747	-0.741019	-0.078884
C28	C	-0.983220	-0.691511	-0.038278
C29	C	-0.801261	-0.602147	-0.208290
C30	C	-0.757788	-0.651648	-0.248892
C31	C	-0.774963	-0.730943	-0.232824
C32	C	-0.835618	-0.760735	-0.176157
C33	C	-0.731490	-0.780451	-0.273430
C34	C	-0.748672	-0.859744	-0.257365
C35	C	-0.852800	-0.840028	-0.160092
C36	C	-1.146945	-1.171136	-0.143667
C37	C	-1.265268	-1.171185	-0.143679
C38	C	-1.410896	-1.130755	-0.204639
C39	C	-1.361094	-1.203738	-0.209251
C40	C	-1.313511	-1.098216	-0.139100
C41	C	-1.426306	-1.244342	-0.148323
C42	C	-1.378709	-1.138766	-0.078148
C43	C	-1.328940	-1.211792	-0.082724
C44	C	-0.592825	-1.171279	-0.143678
C45	C	-0.474531	-1.171314	-0.143682
C46	C	-0.935155	-1.211254	-0.341713
C47	C	-0.962741	-1.228325	-0.426109
C48	C	-0.913390	-0.369239	-0.103576
C49	C	-0.931680	-0.453630	-0.086476
C50	C	-0.660519	-1.041805	-0.752849
C51	C	-0.686466	-1.057863	-0.832148
C52	C	-0.843652	-1.154929	-0.812469
C53	C	-0.817714	-1.138882	-0.733165
C54	C	-0.726147	-1.082318	-0.703362
C55	C	-0.883343	-1.179395	-0.683679
C56	C	-0.857410	-1.163346	-0.604383
C57	C	-0.765850	-1.106784	-0.574574
C58	C	-0.700215	-1.066270	-0.624067
C59	C	-0.974914	-1.235954	-0.713484
C60	C	-1.040542	-1.276467	-0.663998
C61	C	-1.014606	-1.260423	-0.584700
C62	C	-0.923045	-1.203860	-0.554891
C63	C	-1.080241	-1.300937	-0.535207
C64	C	-1.054308	-1.284888	-0.455912
C65	C	-0.897113	-1.187812	-0.475595
C66	C	-0.805870	-1.131335	0.053619
C67	C	-0.778016	-1.114412	0.138044
H68	H	-1.058894	-0.586968	0.032412
H69	H	-0.787277	-0.537581	-0.221371
H70	H	-0.822540	-1.141760	-0.451327
C71	C	-1.492149	-1.327825	-0.153653
N72	N	-1.541745	-1.390703	-0.157671
H73	H	-1.115099	-1.322518	-0.688275
H74	H	-0.625643	-1.020218	-0.599799
C75	C	-1.247527	-1.014774	-0.133860
N76	N	-1.197835	-0.951924	-0.129918
C77	C	-0.664762	-0.747674	-0.335761
N78	N	-0.614495	-0.722986	-0.382705
H79	H	-1.293339	-1.246085	-0.031163
H80	H	-1.352480	-1.231216	-0.264669
C81	C	-0.559786	-0.979585	-0.720061
N82	N	-0.483920	-0.932722	-0.695365
C83	C	-1.390389	-1.101621	-0.003311
N84	N	-1.399187	-1.073634	0.053054
C85	C	-0.700847	-0.914198	-0.302028
N86	N	-0.664826	-0.955214	-0.335671
C87	C	-1.049940	-0.724278	0.024066
N88	N	-1.100193	-0.748960	0.071020
C89	C	-0.737323	-1.089131	-0.487346
N90	N	-0.715835	-1.075835	-0.421646
C91	C	-0.919520	-0.872796	-0.097748
N92	N	-0.969774	-0.897477	-0.050794
H93	H	-1.154801	-1.346985	-0.559487
C94	C	-0.614261	-1.013291	-0.886582
N95	N	-0.559878	-0.979719	-0.927582
C96	C	-0.944573	-1.216976	-0.845296
N97	N	-1.020659	-1.263652	-0.870032
C98	C	-1.126509	-1.329450	-0.401475
N99	N	-1.180897	-1.363011	-0.360473
H100	H	-0.953724	-0.805584	-0.065799
H101	H	-1.027727	-0.443116	0.003251
H102	H	-0.996023	-1.249021	-0.778052
H103	H	-0.708406	-0.627386	-0.295036
C104	C	-1.459307	-1.084575	-0.274310
N105	N	-1.495774	-1.049796	-0.326787
C106	C	-0.821465	-0.470356	-0.189407
N107	N	-0.771185	-0.445669	-0.236346
