data_functionalizedCrystal
_audit_creation_method	'MofGen! by Chris Wilmer'
_symmetry_space_group_name_H-M	'P1'
_symmetry_Int_Tables_number	1
_symmetry_cell_setting	triclinic
loop_
_symmetry_equiv_pos_as_xyz
  x,y,z
_cell_length_a	16.109301
_cell_length_b	10.723024
_cell_length_c	15.186229
_cell_angle_alpha	89.997422
_cell_angle_beta	89.999362
_cell_angle_gamma	83.964675
loop_
_atom_site_label
_atom_site_type_symbol
_atom_site_fract_x
_atom_site_fract_y
_atom_site_fract_z
O1	O	1.104074	0.160391	-0.073171
O2	O	1.604074	0.660391	0.426829
O3	O	0.862130	0.180351	-0.073184
O4	O	1.362130	0.680351	0.426816
O5	O	0.988683	-0.011279	-0.073174
O6	O	1.488683	0.488721	0.426826
O7	O	0.977521	0.352021	-0.073181
O8	O	1.477521	0.852021	0.426819
O9	O	0.988674	-0.011282	0.073283
O10	O	1.488674	0.488718	0.573283
O11	O	0.862121	0.180348	0.073273
O12	O	1.362121	0.680348	0.573273
O13	O	1.104066	0.160388	0.073287
O14	O	1.604066	0.660388	0.573287
Zn15	Zn	0.983092	0.170368	0.096533
Zn16	Zn	1.483092	0.670368	0.596533
Zn17	Zn	0.983103	0.170371	-0.096431
Zn18	Zn	1.483103	0.670371	0.403569
O19	O	0.977513	0.352018	0.073276
O20	O	1.477513	0.852018	0.573276
C21	C	0.831146	0.179541	0.000043
C22	C	1.331146	0.679541	0.500043
C23	C	0.738836	0.177117	0.000037
C24	C	1.238836	0.677117	0.500037
C25	C	0.517200	0.285190	0.000045
C26	C	1.017200	0.785190	0.500045
C27	C	0.430466	0.282903	0.000051
C28	C	0.930466	0.782903	0.500051
C29	C	0.449003	0.055540	0.000052
C30	C	0.949003	0.555540	0.500052
C31	C	0.535735	0.057829	0.000052
C32	C	1.035735	0.557829	0.500052
C33	C	0.569831	0.172657	0.000045
C34	C	1.069831	0.672657	0.500045
C35	C	0.396365	0.168081	0.000050
C36	C	0.896365	0.668081	0.500050
C37	C	0.302324	0.165600	0.000056
C38	C	0.802324	0.665600	0.500056
C39	C	0.663877	0.175139	0.000040
C40	C	1.163877	0.675139	0.500040
C41	C	0.987866	-0.057770	0.000054
C42	C	1.487866	0.442230	0.500054
C43	C	0.985436	-0.196292	0.000050
C44	C	1.485436	0.303708	0.500050
C45	C	1.056249	-0.272213	0.000053
C46	C	1.556249	0.227787	0.500053
C47	C	1.053739	-0.415383	0.000050
C48	C	1.553739	0.084617	0.500050
C49	C	1.135050	0.161198	0.000058
C50	C	1.635050	0.661198	0.500058
C51	C	1.227359	0.163622	0.000057
C52	C	1.727359	0.663622	0.500057
C53	C	0.978329	0.398508	0.000047
C54	C	1.478329	0.898508	0.500047
C55	C	0.980760	0.537031	0.000044
C56	C	1.480760	1.037031	0.500044
N57	N	0.983091	0.170364	0.228226
N58	N	1.483091	0.670364	0.728226
N59	N	0.983112	0.170365	-0.228123
N60	N	1.483112	0.670365	0.271877
C61	C	1.039148	0.085539	0.453953
C62	C	1.539148	0.585539	0.953953
C63	C	1.039150	0.085536	0.546143
C64	C	1.539150	0.585536	1.046143
C65	C	0.927049	0.255194	0.546143
C66	C	1.427049	0.755194	1.046143
C67	C	0.927043	0.255190	0.453955
C68	C	1.427043	0.755190	0.953955
C69	C	0.983097	0.170364	0.407862
C70	C	1.483097	0.670364	0.907862
C71	C	0.983105	0.170365	0.592240
C72	C	1.483105	0.670365	1.092240
C73	C	0.983108	0.170362	0.692196
C74	C	1.483108	0.670362	1.192196
C75	C	0.983094	0.170365	0.307900
C76	C	1.483094	0.670365	0.807900
H77	H	0.578589	-0.033815	0.000054
H78	H	1.078589	0.466185	0.500054
C79	C	1.140664	-0.216839	0.000064
C80	C	1.640664	0.283161	0.500064
N81	N	1.204248	-0.175133	0.000076
N82	N	1.704248	0.324867	0.500076
C83	C	0.865391	0.348495	0.596853
C84	C	1.365391	0.848495	1.096853
N85	N	0.818948	0.418771	0.635047
N86	N	1.318948	0.918771	1.135047
H87	H	0.544958	0.378691	0.000046
H88	H	1.044958	0.878691	0.500046
C89	C	0.865417	0.348565	0.403252
C90	C	1.365417	0.848565	0.903252
N91	N	0.819015	0.418911	0.365062
N92	N	1.319015	0.918911	0.865062
H93	H	0.387617	0.374539	0.000053
H94	H	0.887617	0.874539	0.500053
H95	H	0.920135	-0.397741	0.000048
H96	H	1.420135	0.102259	0.500048
H97	H	1.084789	0.016467	0.416427
H98	H	1.584789	0.516467	0.916427
H99	H	0.421231	-0.037950	0.000063
H100	H	0.921231	0.462050	0.500063
H101	H	1.114359	-0.480619	0.000056
H102	H	1.614359	0.019381	0.500056
H103	H	0.922953	-0.237286	0.000041
H104	H	1.422953	0.262714	0.500041
H105	H	1.084791	0.016463	0.583668
H106	H	1.584791	0.516463	1.083668
