data_functionalizedCrystal
_audit_creation_method	'MofGen! by Chris Wilmer'
_symmetry_space_group_name_H-M	'P1'
_symmetry_Int_Tables_number	1
_symmetry_cell_setting	triclinic
loop_
_symmetry_equiv_pos_as_xyz
  x,y,z
_cell_length_a	14.519709
_cell_length_b	15.072220
_cell_length_c	14.519709
_cell_angle_alpha	89.989674
_cell_angle_beta	96.319855
_cell_angle_gamma	89.998331
loop_
_atom_site_label
_atom_site_type_symbol
_atom_site_fract_x
_atom_site_fract_y
_atom_site_fract_z
O1	O	1.223866	0.073669	-0.120898
O2	O	1.723866	0.573669	0.379102
O3	O	0.955389	0.073696	-0.135134
O4	O	1.455389	0.573696	0.364866
O5	O	1.096746	0.073674	0.006223
O6	O	1.596746	0.573674	0.506223
O7	O	1.082509	0.073691	-0.262254
O8	O	1.582509	0.573691	0.237746
O9	O	1.096737	-0.073891	0.006240
O10	O	1.596737	0.426109	0.506240
O11	O	0.955380	-0.073869	-0.135117
O12	O	1.455380	0.426131	0.364883
O13	O	1.223857	-0.073896	-0.120880
O14	O	1.723857	0.426104	0.379120
Zn15	Zn	1.089617	-0.097312	-0.127996
Zn16	Zn	1.589617	0.402688	0.372004
Zn17	Zn	1.089629	0.097112	-0.128019
Zn18	Zn	1.589629	0.597112	0.371981
O19	O	1.082500	-0.073874	-0.262237
O20	O	1.582500	0.426126	0.237763
C21	C	0.921025	-0.000083	-0.134462
C22	C	1.421025	0.499917	0.365538
C23	C	0.818643	-0.000073	-0.132474
C24	C	1.318643	0.499927	0.367526
N25	N	1.089615	-0.230000	-0.127980
N26	N	1.589615	0.270000	0.372020
C27	C	0.443748	-0.000114	-0.125154
C28	C	0.943748	0.499886	0.374846
C29	C	0.548056	-0.000102	-0.127187
C30	C	1.048056	0.499898	0.372813
C31	C	0.631192	-0.000092	-0.128814
C32	C	1.131192	0.499908	0.371186
C33	C	0.735507	-0.000082	-0.130847
C34	C	1.235507	0.499918	0.369153
C35	C	1.089630	-0.589202	-0.128011
C36	C	1.589630	-0.089202	0.371989
C37	C	1.165513	-0.551579	-0.052628
C38	C	1.665513	-0.051579	0.447372
C39	C	1.165314	-0.448754	-0.052348
C40	C	1.665314	0.051246	0.447652
C41	C	1.089623	-0.410998	-0.127996
C42	C	1.589623	0.089002	0.372004
C43	C	0.993371	-0.448333	-0.106821
C44	C	1.493371	0.051667	0.393179
C45	C	0.993820	-0.551190	-0.106288
C46	C	1.493820	-0.051190	0.393712
C47	C	1.109132	-0.551275	-0.224791
C48	C	1.609132	-0.051275	0.275209
C49	C	1.111315	-0.448411	-0.224146
C50	C	1.611315	0.051589	0.275854
C51	C	1.089614	-0.310285	-0.127989
C52	C	1.589614	0.189715	0.372011
C53	C	1.089633	-0.689915	-0.128016
C54	C	1.589633	-0.189915	0.371984
C55	C	1.258221	-0.000115	-0.121553
C56	C	1.758221	0.499885	0.378447
C57	C	1.360602	-0.000119	-0.123541
C58	C	1.860602	0.499881	0.376459
C59	C	1.096078	-0.000109	0.040591
C60	C	1.596078	0.499891	0.540591
C61	C	1.094090	-0.000109	0.142972
C62	C	1.594090	0.499891	0.642972
N63	N	1.089638	0.229801	-0.128027
N64	N	1.589638	0.729801	0.371973
C65	C	1.083168	-0.000089	-0.296605
C66	C	1.583168	0.499911	0.203395
C67	C	1.085156	-0.000083	-0.398987
C68	C	1.585156	0.499917	0.101013
C69	C	1.086770	-0.000085	0.517868
C70	C	1.586770	0.499915	1.017868
C71	C	1.088803	-0.000092	0.413560
C72	C	1.588803	0.499908	0.913560
C73	C	1.090430	-0.000098	0.330423
C74	C	1.590430	0.499902	0.830423
C75	C	1.092463	-0.000103	0.226109
C76	C	1.592463	0.499897	0.726109
H77	H	1.236858	-0.423511	-0.064981
H78	H	1.736858	0.076489	0.435019
F79	F	1.149441	-0.585376	0.040713
F80	F	1.649441	-0.085376	0.540713
F81	F	1.259343	-0.583904	-0.068877
F82	F	1.759343	-0.083904	0.431123
F83	F	1.198927	-0.585171	-0.251337
F84	F	1.698927	-0.085171	0.248663
H85	H	1.059639	-0.422708	-0.282883
H86	H	1.559639	0.077292	0.217117
H87	H	0.975789	-0.422583	-0.037038
H88	H	1.475789	0.077417	0.462962
F89	F	1.036807	-0.583079	-0.298119
F90	F	1.536807	-0.083079	0.201881
H91	H	1.152837	-0.424159	0.019470
H92	H	1.652837	0.075841	0.519470
H93	H	0.935649	-0.576078	-0.159098
H94	H	1.435649	-0.076078	0.340902
H95	H	0.976656	-0.575193	-0.035703
H96	H	1.476656	-0.075193	0.464297
F97	F	1.203861	-0.416511	-0.245150
F98	F	1.703861	0.083489	0.254850
H99	H	0.935536	-0.423877	-0.160258
H100	H	1.435536	0.076123	0.339742
