data_functionalizedCrystal
_audit_creation_method	'MofGen! by Chris Wilmer'
_symmetry_space_group_name_H-M	'P1'
_symmetry_Int_Tables_number	1
_symmetry_cell_setting	triclinic
loop_
_symmetry_equiv_pos_as_xyz
  x,y,z
_cell_length_a	25.639242
_cell_length_b	25.639240
_cell_length_c	25.639234
_cell_angle_alpha	89.976826
_cell_angle_beta	90.011947
_cell_angle_gamma	89.964534
loop_
_atom_site_label
_atom_site_type_symbol
_atom_site_fract_x
_atom_site_fract_y
_atom_site_fract_z
Zn1	Zn	0.799196	0.208310	0.295626
Zn2	Zn	0.799117	0.295732	0.208187
Zn3	Zn	0.711776	0.208301	0.208202
Zn4	Zn	0.711711	0.295704	0.295589
O5	O	0.755450	0.252012	0.251901
O6	O	0.872351	0.219922	0.284036
O7	O	0.787525	0.284142	0.135024
O8	O	0.723433	0.135137	0.219820
O9	O	0.872292	0.284151	0.219795
O10	O	0.787661	0.135143	0.284050
O11	O	0.723356	0.219907	0.135034
O12	O	0.638602	0.219879	0.219784
O13	O	0.723322	0.284103	0.368759
O14	O	0.638554	0.284094	0.283987
O15	O	0.787597	0.219895	0.368786
O16	O	0.787461	0.368894	0.219759
O17	O	0.723245	0.368873	0.283973
C18	C	0.619608	0.251983	0.251884
C19	C	0.561493	0.251984	0.251889
C20	C	0.310339	0.218627	0.285412
C21	C	0.364943	0.218622	0.285409
O22	O	0.393212	0.190238	0.313908
N23	N	0.392220	0.252006	0.251907
C24	C	0.364889	0.285400	0.218409
O25	O	0.393104	0.313796	0.189913
C26	C	0.310286	0.285408	0.218415
C27	C	0.283012	0.252018	0.251916
C28	C	0.283065	0.185241	0.318910
C29	C	0.228464	0.185245	0.318913
C30	C	0.201137	0.218636	0.285416
C31	C	0.228411	0.252023	0.251918
C32	C	0.282956	0.318805	0.184920
C33	C	0.228349	0.318809	0.184929
C34	C	0.201075	0.285420	0.218430
C35	C	0.146484	0.285418	0.218424
N36	N	0.119208	0.252035	0.251926
C37	C	0.146534	0.218644	0.285422
C38	C	0.479560	0.285383	0.218400
C39	C	0.534162	0.285373	0.218390
C40	C	0.534212	0.218595	0.285391
C41	C	0.479609	0.218603	0.285397
C42	C	0.452283	0.251999	0.251902
C43	C	0.031869	0.218655	0.285424
C44	C	-0.022736	0.218662	0.285422
C45	C	-0.022782	0.285441	0.218423
C46	C	0.031819	0.285433	0.218423
C47	C	0.059143	0.252039	0.251928
O48	O	0.118180	0.313789	0.189941
O49	O	0.118312	0.190258	0.313919
C50	C	0.755351	0.387854	0.251872
C51	C	0.755357	0.445968	0.251877
C52	C	0.788932	0.806329	0.218502
C53	C	0.788948	0.860934	0.218507
O54	O	0.817424	0.889169	0.190113
N55	N	0.755492	0.888251	0.251912
C56	C	0.722022	0.860961	0.285319
O57	O	0.693568	0.889210	0.313734
C58	C	0.722009	0.806357	0.285316
C59	C	0.755463	0.779043	0.251905
C60	C	0.822383	0.779015	0.185093
C61	C	0.822366	0.724415	0.185087
C62	C	0.788898	0.697128	0.218490
C63	C	0.755446	0.724442	0.251899
C64	C	0.688543	0.779068	0.318725
C65	C	0.688533	0.724461	0.318720
C66	C	0.721987	0.697147	0.285308
C67	C	0.721961	0.642556	0.285296
N68	N	0.755417	0.615239	0.251891
C69	C	0.788885	0.642525	0.218488
C70	C	0.722053	0.975631	0.285323
C71	C	0.722063	1.030233	0.285324
C72	C	0.788989	1.030203	0.218512
C73	C	0.788976	0.975600	0.218509
C74	C	0.755508	0.948314	0.251917
C75	C	0.788847	0.527860	0.218478
C76	C	0.788825	0.473255	0.218474
C77	C	0.721902	0.473290	0.285288
C78	C	0.721921	0.527891	0.285290
C79	C	0.755398	0.555174	0.251884
O80	O	0.693501	0.614286	0.313677
O81	O	0.817340	0.614269	0.190082
C82	C	0.891823	0.252040	0.251918
C83	C	0.949937	0.252053	0.251925
C84	C	0.755461	0.251997	0.388274
C85	C	0.755466	0.251991	0.446388
C86	C	0.755544	1.115639	0.251932
C87	C	0.755533	1.057525	0.251922
C88	C	0.755469	0.251989	0.116058
C89	C	0.755566	0.251848	0.057944
C90	C	0.722033	0.285358	0.697562
C91	C	0.722024	0.285370	0.642957
O92	O	0.693547	0.313792	0.614704
N93	N	0.755486	0.251948	0.615662
C94	C	0.788956	0.218509	0.642974
O95	O	0.817417	0.190082	0.614743
C96	C	0.788962	0.218495	0.697577
C97	C	0.755501	0.251922	0.724869
C98	C	0.688574	0.318782	0.724854
C99	C	0.688584	0.318771	0.779455
C100	C	0.722053	0.285336	0.806763
C101	C	0.755511	0.251911	0.779470
C102	C	0.822429	0.185054	0.724888
C103	C	0.822432	0.185042	0.779495
C104	C	0.788971	0.218470	0.806787
C105	C	0.788990	0.218465	0.861379
N106	N	0.755527	0.251886	0.888674
C107	C	0.722059	0.285322	0.861366
C108	C	0.788940	0.218540	0.528303
C109	C	0.788937	0.218557	0.473701
C110	C	0.722004	0.285417	0.473688
C111	C	0.722010	0.285403	0.528291
C112	C	0.755477	0.251962	0.555598
C113	C	0.722083	0.285296	0.976031
C114	C	0.722097	0.285283	1.030637
C115	C	0.789028	0.218421	1.030644
C116	C	0.789016	0.218436	0.976044
C117	C	0.755539	0.251875	0.948738
O118	O	0.817450	0.190055	0.889667
O119	O	0.693598	0.313739	0.889603
H120	H	0.305308	0.158049	0.346190
O121	O	0.854851	0.152540	0.698334
C122	C	0.861905	0.081910	0.636759
C123	C	0.825132	0.118719	0.666783
H124	H	0.837892	0.054549	0.611251
H125	H	0.889228	0.105870	0.611149
H126	H	0.885823	0.058036	0.665683
H127	H	0.801181	0.142600	0.637897
H128	H	0.797844	0.094728	0.692401
H129	H	0.457406	0.191413	0.312676
H130	H	0.849609	0.702179	0.157882
H131	H	0.694818	0.312520	0.953806
H132	H	0.661336	0.345990	0.801671
H133	H	0.206262	0.158058	0.346195
H134	H	0.694849	0.312506	1.052856
H135	H	0.556471	0.191407	0.312666
O136	O	0.821449	0.949126	0.185983
C137	C	0.846869	0.932420	0.097066
C138	C	0.810067	0.962440	0.133844
H139	H	0.837672	0.943165	0.054904
H140	H	0.889031	0.943130	0.106245
H141	H	0.841124	0.888708	0.102826
H142	H	0.815765	1.006158	0.128105
H143	H	0.767917	0.951687	0.124657
H144	H	0.661317	0.346009	0.702626
H145	H	0.816266	0.191220	0.953821
H146	H	0.694763	0.312622	0.550509
H147	H	0.694795	0.953418	0.312527
H148	H	0.694751	0.312641	0.451444
H149	H	0.816189	0.191342	0.451484
O150	O	0.560572	0.317853	0.185827
C151	C	0.554744	0.384066	0.119351
C152	C	0.524773	0.347314	0.156209
H153	H	0.525814	0.407887	0.095387
H154	H	0.580285	0.411475	0.143276
H155	H	0.580328	0.360013	0.092076
H156	H	0.499161	0.371324	0.183491
H157	H	0.499265	0.319903	0.132252
O158	O	-0.049253	0.186172	0.317893
C159	C	-0.110884	0.115617	0.325069
C160	C	-0.080879	0.152367	0.288236
H161	H	-0.136469	0.088284	0.301107
H162	H	-0.081993	0.091715	0.349001
H163	H	-0.136429	0.139674	0.352375
H164	H	-0.055333	0.128350	0.260899
H165	H	-0.109798	0.176271	0.264341
H166	H	0.305153	0.345994	0.157640
H167	H	0.816197	0.191310	0.550533
O168	O	0.058326	0.186167	0.317986
C169	C	0.052598	0.119953	0.384460
C170	C	0.022571	0.156713	0.347605
H171	H	0.023703	0.096137	0.408424
H172	H	0.078155	0.092539	0.360532
H173	H	0.078170	0.143999	0.411734
H174	H	-0.003029	0.132709	0.320323
H175	H	-0.002953	0.184127	0.371565
H176	H	0.457315	0.312577	0.191119
H177	H	0.206104	0.346007	0.157654
H178	H	0.694682	0.550131	0.312498
O179	O	0.058235	0.317916	0.185864
C180	C	0.052416	0.384135	0.119394
C181	C	0.022440	0.347378	0.156243
H182	H	0.023489	0.407958	0.095428
H183	H	0.077952	0.411543	0.143326
H184	H	0.078006	0.360087	0.092121
H185	H	-0.003177	0.371384	0.183524
H186	H	-0.003062	0.319969	0.132279
O187	O	0.689442	0.446698	0.317718
C188	C	0.659750	0.362585	0.347297
C189	C	0.696541	0.392637	0.310548
H190	H	0.665468	0.318871	0.341505
H191	H	0.668907	0.373251	0.389477
H192	H	0.617604	0.373390	0.338088
H193	H	0.738700	0.381848	0.319710
H194	H	0.687338	0.381968	0.268379
O195	O	-0.049413	0.317859	0.185936
C196	C	-0.133561	0.347438	0.156238
C197	C	-0.103465	0.310703	0.193061
H198	H	-0.177268	0.341657	0.161979
H199	H	-0.122886	0.389621	0.165345
H200	H	-0.122805	0.338205	0.114099
H201	H	-0.114205	0.319889	0.235213
H202	H	-0.114143	0.268531	0.183910
H203	H	0.849684	0.157807	0.801725
O204	O	0.854912	0.805435	0.152592
C205	C	0.921306	0.799624	0.086339
C206	C	0.884486	0.769644	0.123118
H207	H	0.945234	0.770699	0.062508
H208	H	0.897354	0.825204	0.058942
H209	H	0.948616	0.825169	0.110372
H210	H	0.857169	0.744070	0.099128
H211	H	0.908471	0.744096	0.150517
O212	O	0.821374	0.446803	0.186000
C213	C	0.887734	0.452546	0.119710
C214	C	0.850909	0.482564	0.156466
H215	H	0.911615	0.481445	0.095814
H216	H	0.915083	0.426959	0.143711
H217	H	0.863734	0.427004	0.092367
H218	H	0.874866	0.508134	0.183816
H219	H	0.823558	0.508118	0.132432
H220	H	0.661280	0.702248	0.345927
O221	O	0.821427	0.554377	0.186105
C222	C	0.892039	0.615966	0.179142
C223	C	0.855182	0.585962	0.215864
H224	H	0.919332	0.641517	0.203186
H225	H	0.915979	0.587075	0.155280
H226	H	0.868063	0.641545	0.151765
H227	H	0.879118	0.560382	0.243272
H228	H	0.831240	0.614881	0.239689
H229	H	0.816242	1.052429	0.191315
O230	O	0.821462	0.185888	1.057201
C231	C	0.828551	0.115312	1.118895
C232	C	0.791764	0.152118	1.088841
H233	H	0.804555	0.088008	1.144491
H234	H	0.852458	0.091382	1.090037
H235	H	0.855883	0.139328	1.144434
H236	H	0.764400	0.128143	1.063301
H237	H	0.767893	0.176050	1.117727
O238	O	0.689618	1.056739	0.317851
C239	C	0.664155	1.073389	0.406765
C240	C	0.700938	1.043351	0.369984
H241	H	0.673287	1.062568	0.448922
H242	H	0.669913	1.117110	0.401082
H243	H	0.622004	1.062700	0.397515
H244	H	0.743103	1.053997	0.379212
H245	H	0.695135	0.999638	0.375674
O246	O	0.656030	0.805512	0.351233
C247	C	0.589636	0.799755	0.417487
C248	C	0.626439	0.769745	0.380704
H249	H	0.565694	0.770851	0.441316
H250	H	0.613602	0.825268	0.444887
H251	H	0.562338	0.825370	0.393458
H252	H	0.653745	0.744101	0.404690
H253	H	0.602441	0.744264	0.353303
