data_functionalizedCrystal
_audit_creation_method	'MofGen! by Chris Wilmer'
_symmetry_space_group_name_H-M	'P1'
_symmetry_Int_Tables_number	1
_symmetry_cell_setting	triclinic
loop_
_symmetry_equiv_pos_as_xyz
  x,y,z
_cell_length_a	12.645330
_cell_length_b	16.120530
_cell_length_c	16.120297
_cell_angle_alpha	89.871860
_cell_angle_beta	92.876762
_cell_angle_gamma	92.886558
loop_
_atom_site_label
_atom_site_type_symbol
_atom_site_fract_x
_atom_site_fract_y
_atom_site_fract_z
Zn1	Zn	-0.537081	-1.247482	-0.534595
Zn2	Zn	-0.203748	-0.914148	-0.201262
Zn3	Zn	0.129586	-0.580815	0.132071
Zn4	Zn	-0.705843	-1.254445	-0.395547
Zn5	Zn	-0.372509	-0.921112	-0.062214
Zn6	Zn	-0.039176	-0.587779	0.271119
Zn7	Zn	-0.519167	-1.115471	-0.388512
Zn8	Zn	-0.185834	-0.782137	-0.055179
Zn9	Zn	0.147500	-0.448804	0.278154
Zn10	Zn	-0.704866	-1.108402	-0.527517
Zn11	Zn	-0.371533	-0.775068	-0.194183
Zn12	Zn	-0.038200	-0.441735	0.139150
O13	O	-0.616739	-1.181450	-0.461543
O14	O	-0.283406	-0.848116	-0.128210
O15	O	0.049927	-0.514783	0.205124
O16	O	-0.567373	-1.364772	-0.522057
O17	O	-0.234040	-1.031439	-0.188724
O18	O	0.099293	-0.698106	0.144610
O19	O	-0.673991	-1.241883	-0.278248
O20	O	-0.340658	-0.908549	0.055085
O21	O	-0.007325	-0.575216	0.388418
O22	O	-0.373200	-1.133026	-0.407909
O23	O	-0.039867	-0.799693	-0.074575
O24	O	0.293467	-0.466359	0.258758
O25	O	-0.691362	-1.369888	-0.419899
O26	O	-0.358028	-1.036555	-0.086566
O27	O	-0.024695	-0.703222	0.246768
O28	O	-0.386361	-1.230014	-0.515235
O29	O	-0.053028	-0.896681	-0.181902
O30	O	0.280305	-0.563347	0.151431
O31	O	-0.536842	-1.139779	-0.273080
O32	O	-0.203508	-0.806445	0.060254
O33	O	0.129825	-0.473112	0.393587
O34	O	-0.535895	-0.998166	-0.401045
O35	O	-0.202562	-0.664833	-0.067711
O36	O	0.130772	-0.331499	0.265622
O37	O	-0.689698	-1.120978	-0.644821
O38	O	-0.356364	-0.787645	-0.311488
O39	O	-0.023031	-0.454312	0.021845
O40	O	-0.672327	-0.992972	-0.503171
O41	O	-0.338994	-0.659639	-0.169837
O42	O	-0.005661	-0.326306	0.163496
O43	O	-0.566427	-1.223160	-0.650022
O44	O	-0.233093	-0.889826	-0.316689
O45	O	0.100240	-0.556493	0.016645
O46	O	-0.854056	-1.235028	-0.413035
O47	O	-0.520723	-0.901695	-0.079702
O48	O	-0.187390	-0.568362	0.253632
O49	O	-0.853339	-1.127731	-0.509992
O50	O	-0.520006	-0.794397	-0.176659
O51	O	-0.186673	-0.461064	0.156674
C52	C	-0.602062	-0.965397	-0.450577
C53	C	-0.268729	-0.632063	-0.117243
C54	C	0.064605	-0.298730	0.216090
C55	C	-0.595810	-0.872967	-0.445905
C56	C	-0.262477	-0.539634	-0.112572
C57	C	0.070857	-0.206300	0.220762
C58	C	-0.892164	-1.181390	-0.461528
C59	C	-0.558831	-0.848056	-0.128195
C60	C	-0.225498	-0.514723	0.205139
C61	C	-1.009999	-1.181439	-0.461554
C62	C	-0.676666	-0.848105	-0.128220
C63	C	-0.343332	-0.514772	0.205113
C64	C	-0.629952	-1.170504	-0.678438
C65	C	-0.296618	-0.837170	-0.345104
C66	C	0.036715	-0.503837	-0.011771
C67	C	-0.635582	-1.165839	-0.770865
C68	C	-0.302248	-0.832506	-0.437532
C69	C	0.031085	-0.499172	-0.104199
C70	C	-1.177186	-1.114193	-0.522761
C71	C	-0.843853	-0.780859	-0.189428
C72	C	-0.510519	-0.447526	0.143906
C73	C	-1.054592	-1.113876	-0.522537
C74	C	-0.721258	-0.780542	-0.189204
C75	C	-0.387925	-0.447209	0.144130
C76	C	-1.047614	-1.162161	-0.372717
C77	C	-0.714281	-0.828828	-0.039383
C78	C	-0.380947	-0.495494	0.293950
C79	C	-1.170210	-1.161751	-0.373088
C80	C	-0.836876	-0.828417	-0.039755
C81	C	-0.503543	-0.495084	0.293578
C82	C	-1.184441	-1.268390	-0.488492
C83	C	-0.851108	-0.935056	-0.155159
C84	C	-0.517774	-0.601723	0.178175
C85	C	-1.061915	-1.267753	-0.490381
C86	C	-0.728582	-0.934420	-0.157048
C87	C	-0.395248	-0.601086	0.176286
C88	C	-0.340242	-1.181532	-0.461577
C89	C	-0.006908	-0.848198	-0.128244
C90	C	0.326425	-0.514865	0.205090
C91	C	-0.222415	-1.181567	-0.461592
C92	C	0.110919	-0.848233	-0.128258
C93	C	0.444252	-0.514900	0.205075
C94	C	-0.631475	-1.398347	-0.472552
C95	C	-0.298141	-1.065013	-0.139219
C96	C	0.035192	-0.731680	0.194114
C97	C	-0.637754	-1.490775	-0.477244
C98	C	-0.304421	-1.157442	-0.143911
C99	C	0.028913	-0.824108	0.189423
C100	C	-0.584371	-0.703737	-0.437383
C101	C	-0.251037	-0.370403	-0.104050
C102	C	0.082296	-0.037070	0.229284
C103	C	-0.649190	-0.660000	-0.485763
C104	C	-0.315856	-0.326667	-0.152430
C105	C	0.017477	0.006666	0.180903
C106	C	-0.642825	-0.565835	-0.481022
C107	C	-0.309492	-0.232501	-0.147688
C108	C	0.023842	0.100832	0.185645
C109	C	-0.590734	-0.797911	-0.442124
C110	C	-0.257401	-0.464577	-0.108790
C111	C	0.075933	-0.131244	0.224543
C112	C	-0.645836	-1.157292	-0.940091
C113	C	-0.312502	-0.823959	-0.606757
C114	C	0.020831	-0.490625	-0.273424
C115	C	-0.587337	-1.205771	-0.983855
C116	C	-0.254003	-0.872438	-0.650522
C117	C	0.079330	-0.539105	-0.317188
C118	C	-0.593042	-1.201016	-1.078018
C119	C	-0.259708	-0.867682	-0.744685
C120	C	0.073625	-0.534349	-0.411351
C121	C	-0.640132	-1.162047	-0.845919
C122	C	-0.306798	-0.828713	-0.512586
C123	C	0.026535	-0.495380	-0.179253
C124	C	-0.603505	-1.192401	-0.245494
C125	C	-0.270172	-0.859068	0.087839
C126	C	0.063161	-0.525735	0.421173
C127	C	-0.597587	-1.197227	-0.153075
C128	C	-0.264254	-0.863894	0.180258
C129	C	0.069079	-0.530560	0.513592
H130	H	-1.211590	-1.125592	-0.588700
H131	H	-0.878257	-0.792258	-0.255366
H132	H	-0.544924	-0.458925	0.077967
H133	H	-1.011500	-1.099513	-0.350136
H134	H	-0.678167	-0.766179	-0.016803
H135	H	-0.344834	-0.432846	0.316530
H136	H	-0.700199	-1.112221	-0.973339
H137	H	-0.366866	-0.778887	-0.640006
H138	H	-0.033533	-0.445554	-0.306673
N139	N	-0.504548	-0.659669	-0.377790
N140	N	-0.171215	-0.326336	-0.044457
N141	N	0.162118	0.006997	0.288877
H142	H	-0.518288	-0.677720	-0.319101
H143	H	-0.184955	-0.344386	0.014232
H144	H	0.148378	-0.011053	0.347565
H145	H	-0.430651	-0.674105	-0.391609
H146	H	-0.097318	-0.340772	-0.058276
H147	H	0.236016	-0.007439	0.275058
N148	N	-1.009055	-1.225351	-0.310426
N149	N	-0.675722	-0.892018	0.022908
N150	N	-0.342389	-0.558685	0.356241
H151	H	-1.038148	-1.282575	-0.327649
H152	H	-0.704814	-0.949241	0.005684
H153	H	-0.371481	-0.615908	0.339017
H154	H	-0.929026	-1.224004	-0.308154
H155	H	-0.595693	-0.890670	0.025179
H156	H	-0.262360	-0.557337	0.358513
H157	H	-1.220602	-1.286844	-0.552405
H158	H	-0.887269	-0.953511	-0.219072
H159	H	-0.553935	-0.620177	0.114261
N160	N	-1.008788	-1.028501	-0.498459
N161	N	-0.675454	-0.695167	-0.165126
N162	N	-0.342121	-0.361834	0.168208
H163	H	-1.068248	-0.990927	-0.487945
H164	H	-0.734915	-0.657593	-0.154612
H165	H	-0.401582	-0.324260	0.178722
H166	H	-0.961526	-1.032629	-0.446372
H167	H	-0.628192	-0.699296	-0.113039
H168	H	-0.294859	-0.365963	0.220294
H169	H	-1.029426	-1.125422	-0.588270
H170	H	-0.696093	-0.792089	-0.254936
H171	H	-0.362760	-0.458755	0.078397
N172	N	-0.729046	-0.704074	-0.545334
N173	N	-0.395712	-0.370741	-0.212001
N174	N	-0.062379	-0.037407	0.121333
H175	H	-0.771422	-0.661764	-0.576959
H176	H	-0.438089	-0.328431	-0.243626
H177	H	-0.104756	0.004903	0.089708
H178	H	-0.690718	-0.738193	-0.585658
H179	H	-0.357385	-0.404860	-0.252324
H180	H	-0.024052	-0.071526	0.081009
H181	H	-0.532968	-1.250846	-0.950605
H182	H	-0.199635	-0.917513	-0.617271
H183	H	0.133699	-0.584180	-0.283938
H184	H	-1.032010	-1.320237	-0.449427
H185	H	-0.698676	-0.986904	-0.116093
H186	H	-0.365343	-0.653571	0.217240
H187	H	-1.037930	-1.282372	-0.555782
H188	H	-0.704597	-0.949038	-0.222449
H189	H	-0.371263	-0.615705	0.110885
H190	H	-1.193374	-1.098415	-0.350817
H191	H	-0.860041	-0.765081	-0.017484
H192	H	-0.526708	-0.431748	0.315849
N193	N	-1.211089	-1.029334	-0.498974
N194	N	-0.877755	-0.696001	-0.165641
N195	N	-0.544422	-0.362668	0.167692
H196	H	-1.291043	-1.029079	-0.501877
H197	H	-0.957710	-0.695746	-0.168544
H198	H	-0.624376	-0.362413	0.164790
H199	H	-1.183168	-1.015699	-0.440540
H200	H	-0.849835	-0.682365	-0.107207
H201	H	-0.516502	-0.349032	0.226126
N202	N	-1.223324	-1.334814	-0.429560
N203	N	-0.889990	-1.001481	-0.096226
N204	N	-0.556657	-0.668147	0.237107
H205	H	-1.160674	-1.362399	-0.402148
H206	H	-0.827341	-1.029066	-0.068815
H207	H	-0.494007	-0.695732	0.264518
H208	H	-1.265347	-1.308782	-0.385695
H209	H	-0.932014	-0.975448	-0.052361
H210	H	-0.598681	-0.642115	0.280972
N211	N	-1.209490	-1.224244	-0.310342
N212	N	-0.876157	-0.890911	0.022991
N213	N	-0.542823	-0.557578	0.356324
H214	H	-1.147163	-1.251934	-0.282561
H215	H	-0.813830	-0.918601	0.050772
H216	H	-0.480496	-0.585268	0.384105
H217	H	-1.249165	-1.194988	-0.267119
H218	H	-0.915831	-0.861654	0.066214
H219	H	-0.582498	-0.528321	0.399547
