data_functionalizedCrystal
_audit_creation_method	'MofGen! by Chris Wilmer'
_symmetry_space_group_name_H-M	'P1'
_symmetry_Int_Tables_number	1
_symmetry_cell_setting	triclinic
loop_
_symmetry_equiv_pos_as_xyz
  x,y,z
_cell_length_a	14.519731
_cell_length_b	14.519709
_cell_length_c	13.930277
_cell_angle_alpha	89.994503
_cell_angle_beta	89.992691
_cell_angle_gamma	83.684499
loop_
_atom_site_label
_atom_site_type_symbol
_atom_site_fract_x
_atom_site_fract_y
_atom_site_fract_z
O1	O	1.223859	0.120984	-0.079835
O2	O	1.557192	0.454317	0.253498
O3	O	1.890526	0.787651	0.586832
O4	O	0.955385	0.135200	-0.079837
O5	O	1.288718	0.468533	0.253497
O6	O	1.622052	0.801867	0.586830
O7	O	1.096740	-0.006146	-0.079827
O8	O	1.430074	0.327188	0.253506
O9	O	1.763407	0.660521	0.586839
O10	O	1.082504	0.262330	-0.079845
O11	O	1.415837	0.595663	0.253489
O12	O	1.749170	0.928997	0.586822
O13	O	1.096721	-0.006149	0.079835
O14	O	1.430054	0.327184	0.413168
O15	O	1.763387	0.660518	0.746501
O16	O	0.955365	0.135197	0.079825
O17	O	1.288699	0.468530	0.413158
O18	O	1.622032	0.801864	0.746492
O19	O	1.223839	0.120981	0.079827
O20	O	1.557173	0.454314	0.413160
O21	O	1.890506	0.787648	0.746493
Zn22	Zn	1.089599	0.128089	0.105176
Zn23	Zn	1.422933	0.461422	0.438509
Zn24	Zn	1.756266	0.794755	0.771842
Zn25	Zn	1.089625	0.128093	-0.105186
Zn26	Zn	1.422958	0.461426	0.228148
Zn27	Zn	1.756292	0.794759	0.561481
O28	O	1.082484	0.262327	0.079817
O29	O	1.415817	0.595660	0.413151
O30	O	1.749151	0.928994	0.746484
C31	C	0.921016	0.134532	-0.000006
C32	C	1.254349	0.467866	0.333327
C33	C	1.587682	0.801199	0.666661
C34	C	0.818635	0.132536	-0.000006
C35	C	1.151969	0.465870	0.333327
C36	C	1.485302	0.799203	0.666660
C37	C	0.735491	0.130915	-0.000010
C38	C	1.068825	0.464248	0.333323
C39	C	1.402158	0.797581	0.666657
C40	C	0.631182	0.128888	-0.000010
C41	C	0.964516	0.462221	0.333323
C42	C	1.297849	0.795555	0.666656
C43	C	0.548043	0.127280	-0.000010
C44	C	0.881377	0.460613	0.333323
C45	C	1.214710	0.793946	0.666656
C46	C	0.443728	0.125253	-0.000012
C47	C	0.777061	0.458586	0.333321
C48	C	1.110395	0.791920	0.666654
C49	C	1.096067	-0.040507	0.000004
C50	C	1.429400	0.292826	0.333337
C51	C	1.762734	0.626160	0.666671
C52	C	1.094079	-0.142889	0.000004
C53	C	1.427412	0.190445	0.333338
C54	C	1.760745	0.523778	0.666671
C55	C	1.086759	-0.517785	-0.000021
C56	C	1.420093	-0.184452	0.333313
C57	C	1.753426	0.148882	0.666646
C58	C	1.088792	-0.413477	-0.000013
C59	C	1.422125	-0.080143	0.333320
C60	C	1.755459	0.253190	0.666653
C61	C	1.090419	-0.330340	-0.000007
C62	C	1.423752	0.002993	0.333326
C63	C	1.757085	0.336327	0.666659
C64	C	1.092452	-0.226025	-0.000002
C65	C	1.425785	0.107308	0.333332
C66	C	1.759118	0.440641	0.666665
C67	C	1.258209	0.121649	-0.000006
C68	C	1.591542	0.454982	0.333327
C69	C	1.924875	0.788315	0.666661
C70	C	1.360589	0.123645	-0.000012
C71	C	1.693922	0.456978	0.333321
C72	C	2.027256	0.790311	0.666655
C73	C	1.083157	0.296688	-0.000016
C74	C	1.416491	0.630022	0.333317
C75	C	1.749824	0.963355	0.666651
C76	C	1.085146	0.399070	-0.000023
C77	C	1.418479	0.732403	0.333311
C78	C	1.751812	1.065736	0.666644
N79	N	1.089588	0.128085	0.248742
N80	N	1.422922	0.461419	0.582075
N81	N	1.756255	0.794752	0.915408
N82	N	1.089643	0.128089	-0.248752
N83	N	1.422977	0.461422	0.084582
N84	N	1.756310	0.794755	0.417915
C85	C	1.027031	0.190656	0.701007
C86	C	1.360364	0.523989	1.034340
C87	C	1.693697	0.857323	1.367674
C88	C	1.152245	0.065522	0.700985
C89	C	1.485578	0.398855	1.034318
C90	C	1.818912	0.732189	1.367651
C91	C	1.152234	0.065519	0.600489
C92	C	1.485567	0.398852	0.933822
C93	C	1.818901	0.732186	1.267156
C94	C	1.089621	0.128087	0.550248
C95	C	1.422955	0.461420	0.883581
C96	C	1.756288	0.794753	1.216914
C97	C	1.027019	0.190657	0.600502
C98	C	1.360353	0.523990	0.933835
C99	C	1.693686	0.857323	1.267168
C100	C	1.214841	0.002956	0.550227
C101	C	1.548174	0.336290	0.883561
C102	C	1.881508	0.669623	1.216894
C103	C	1.214833	0.002952	0.449725
C104	C	1.548167	0.336285	0.783059
C105	C	1.881500	0.669618	1.116392
C106	C	1.152215	0.065515	0.399482
C107	C	1.485549	0.398849	0.732815
C108	C	1.818882	0.732182	1.066149
C109	C	1.089610	0.128087	0.449743
C110	C	1.422944	0.461421	0.783076
C111	C	1.756277	0.794754	1.116409
C112	C	1.026997	0.190655	0.399501
C113	C	1.360331	0.523988	0.732834
C114	C	1.693664	0.857321	1.066168
C115	C	0.964387	0.253223	0.449760
C116	C	1.297721	0.586557	0.783093
C117	C	1.631054	0.919890	1.116426
C118	C	0.964401	0.253221	0.550259
C119	C	1.297735	0.586554	0.883592
C120	C	1.631068	0.919887	1.216925
C121	C	1.152201	0.065518	0.298983
C122	C	1.485534	0.398851	0.632317
C123	C	1.818868	0.732185	0.965650
C124	C	1.026986	0.190656	0.298996
C125	C	1.360320	0.523989	0.632329
C126	C	1.693653	0.857322	0.965663
H127	H	0.975996	0.241603	0.258096
H128	H	1.309329	0.574936	0.591429
H129	H	1.642663	0.908269	0.924762
H130	H	0.913427	0.304162	0.591185
H131	H	1.246761	0.637496	0.924519
H132	H	1.580094	0.970829	1.257852
N133	N	0.963079	0.254553	0.752353
N134	N	1.296412	0.587887	1.085686
N135	N	1.629745	0.921220	1.419019
N136	N	0.963088	0.254543	0.842083
N137	N	1.296421	0.587877	1.175417
N138	N	1.629754	0.921210	1.508750
H139	H	0.917921	0.299671	0.878349
H140	H	1.251254	0.633004	1.211682
H141	H	1.584587	0.966337	1.545016
H142	H	1.203227	0.014586	0.741894
H143	H	1.536561	0.347919	1.075228
H144	H	1.869894	0.681253	1.408561
H145	H	0.913411	0.304170	0.408842
H146	H	1.246745	0.637503	0.742175
H147	H	1.580078	0.970837	1.075508
N148	N	1.278825	-0.060907	0.601560
N149	N	1.612158	0.272426	0.934894
N150	N	1.945492	0.605760	1.268227
N151	N	1.278841	-0.060878	0.691291
N152	N	1.612174	0.272456	1.024624
N153	N	1.945508	0.605789	1.357958
H154	H	1.324043	-0.105972	0.727551
H155	H	1.657376	0.227361	1.060884
H156	H	1.990709	0.560694	1.394217
H157	H	1.265813	-0.047995	0.408811
H158	H	1.599146	0.285338	0.742144
H159	H	1.932479	0.618671	1.075478
N160	N	1.216069	0.001524	0.247661
N161	N	1.549402	0.334857	0.580994
N162	N	1.882735	0.668190	0.914327
N163	N	1.271913	-0.054390	0.292530
N164	N	1.605246	0.278944	0.625864
N165	N	1.938579	0.612277	0.959197
H166	H	1.316988	-0.099625	0.256285
H167	H	1.650322	0.233708	0.589619
H168	H	1.983655	0.567042	0.922952
