data_functionalizedCrystal
_audit_creation_method	'MofGen! by Chris Wilmer'
_symmetry_space_group_name_H-M	'P1'
_symmetry_Int_Tables_number	1
_symmetry_cell_setting	triclinic
loop_
_symmetry_equiv_pos_as_xyz
  x,y,z
_cell_length_a	12.759399
_cell_length_b	12.827893
_cell_length_c	12.827885
_cell_angle_alpha	90.016318
_cell_angle_beta	90.029138
_cell_angle_gamma	90.018219
loop_
_atom_site_label
_atom_site_type_symbol
_atom_site_fract_x
_atom_site_fract_y
_atom_site_fract_z
Zn1	Zn	-0.418137	1.597669	0.590771
Zn2	Zn	0.081863	2.097669	1.090771
Zn3	Zn	-0.593853	1.597563	0.416033
Zn4	Zn	-0.093853	2.097563	0.916033
Zn5	Zn	-0.418197	1.422911	0.416054
Zn6	Zn	0.081803	1.922911	0.916054
Zn7	Zn	-0.593783	1.422896	0.590742
Zn8	Zn	-0.093783	1.922896	1.090742
O9	O	-0.505993	1.510260	0.503400
O10	O	-0.005993	2.010260	1.003400
O11	O	-0.441451	1.743891	0.567595
O12	O	0.058549	2.243891	1.067595
O13	O	-0.570606	1.574357	0.269800
O14	O	-0.070606	2.074357	0.769800
O15	O	-0.271168	1.446143	0.439251
O16	O	0.228832	1.946143	0.939251
O17	O	-0.570548	1.743813	0.439216
O18	O	-0.070548	2.243813	0.939216
O19	O	-0.271124	1.574538	0.567615
O20	O	0.228876	2.074538	1.067615
O21	O	-0.441552	1.446041	0.269815
O22	O	0.058448	1.946041	0.769815
O23	O	-0.441485	1.276673	0.439223
O24	O	0.058515	1.776673	0.939223
O25	O	-0.570430	1.446118	0.736982
O26	O	-0.070430	1.946118	1.236982
O27	O	-0.570487	1.276662	0.567566
O28	O	-0.070487	1.776662	1.067566
O29	O	-0.441383	1.574523	0.737003
O30	O	0.058617	2.074523	1.237003
O31	O	-0.740865	1.574343	0.439188
O32	O	-0.240865	2.074343	0.939188
O33	O	-0.740814	1.446015	0.567546
O34	O	-0.240814	1.946015	1.067546
C35	C	-0.505986	1.238750	0.503394
C36	C	-0.005986	1.738750	1.003394
C37	C	-0.506008	1.122597	0.503416
C38	C	-0.006008	1.622597	1.003416
C39	C	-0.778960	1.510194	0.503385
C40	C	-0.278960	2.010194	1.003385
C41	C	-0.895737	1.510262	0.503413
C42	C	-0.395737	2.010262	1.003413
C43	C	-1.060434	1.443571	0.436556
C44	C	-0.560434	1.943571	0.936556
C45	C	-0.950710	1.443501	0.436537
C46	C	-0.450710	1.943501	0.936537
C47	C	-0.950493	1.577088	0.570319
C48	C	-0.450493	2.077088	1.070319
C49	C	-1.060215	1.577152	0.570342
C50	C	-0.560215	2.077152	1.070342
C51	C	-1.115402	1.376813	0.369669
C52	C	-0.615402	1.876813	0.869669
C53	C	-1.060653	1.309985	0.302764
C54	C	-0.560653	1.809985	0.802764
C55	C	-0.950929	1.309916	0.302745
C56	C	-0.450929	1.809916	0.802745
C57	C	-0.895954	1.376675	0.369631
C58	C	-0.395954	1.876675	0.869631
C59	C	-0.505892	1.510331	0.775970
C60	C	-0.005892	2.010331	1.275970
C61	C	-0.505849	1.510361	0.892124
C62	C	-0.005849	2.010361	1.392124
C63	C	-0.231959	1.510354	0.503438
C64	C	0.268041	2.010354	1.003438
C65	C	-0.115183	1.510394	0.503455
C66	C	0.384817	2.010394	1.003455
C67	C	-0.506000	1.782830	0.503407
C68	C	-0.006000	2.282830	1.003407
C69	C	-0.506004	1.898983	0.503409
C70	C	-0.006004	2.398983	1.003409
C71	C	-0.442130	1.950806	0.566930
C72	C	0.057870	2.450806	1.066930
C73	C	-0.442132	2.070857	0.566934
C74	C	0.057868	2.570857	1.066934
C75	C	-0.506017	1.510249	0.231890
C76	C	-0.006017	2.010249	0.731890
C77	C	-0.505764	1.510421	0.115738
C78	C	-0.005764	2.010421	0.615738
C79	C	-0.441980	1.573907	0.943919
C80	C	0.058020	2.073907	1.443919
C81	C	-0.441934	1.573940	1.063969
C82	C	0.058066	2.073940	1.563969
H83	H	-1.204745	1.376864	0.369674
H84	H	-0.704745	1.876864	0.869674
H85	H	-0.560695	1.943492	0.449036
H86	H	-0.060695	2.443492	0.949036
H87	H	-0.387257	1.628347	1.108512
H88	H	0.112743	2.128347	1.608512
H89	H	-0.387330	1.628283	0.899386
H90	H	0.112670	2.128283	1.399386
H91	H	-0.560452	1.456018	1.071202
H92	H	-0.060452	1.956018	1.571202
H93	H	-0.560488	1.455975	0.936657
H94	H	-0.060488	1.955975	1.436657
H95	H	-1.105421	1.255626	0.248314
H96	H	-0.605421	1.755626	0.748314
C97	C	-1.120447	1.650654	0.643927
C98	C	-0.620447	2.150654	1.143927
H99	H	-1.193666	1.641120	0.634368
H100	H	-0.693666	2.141120	1.134368
H101	H	-1.102418	1.720868	0.628695
H102	H	-0.602418	2.220868	1.128695
H103	H	-1.102429	1.635300	0.714127
H104	H	-0.602429	2.135300	1.214127
H105	H	-0.387449	1.906297	0.621313
H106	H	0.112551	2.406297	1.121313
H107	H	-0.906354	1.255495	0.248276
H108	H	-0.406354	1.755495	0.748276
C109	C	-0.775260	1.376594	0.369614
C110	C	-0.275260	1.876594	0.869614
H111	H	-0.750524	1.327236	0.320190
H112	H	-0.250524	1.827236	0.820190
H113	H	-0.750409	1.358472	0.437031
H114	H	-0.250409	1.858472	0.937031
H115	H	-0.750388	1.444028	0.351587
H116	H	-0.250388	1.944028	0.851587
H117	H	-0.387443	2.115423	0.621312
H118	H	0.112557	2.615423	1.121312
C119	C	-0.890023	1.650525	0.643877
C120	C	-0.390023	2.150525	1.143877
H121	H	-0.816835	1.640924	0.634274
H122	H	-0.316835	2.140924	1.134274
H123	H	-0.907964	1.635208	0.714083
H124	H	-0.407964	2.135208	1.214083
H125	H	-0.907954	1.720760	0.628636
H126	H	-0.407954	2.220760	1.128636
C127	C	-0.579889	2.062411	0.429942
C128	C	-0.079889	2.562411	0.929942
H129	H	-0.619959	2.110446	0.390088
H130	H	-0.119959	2.610446	0.890088
H131	H	-0.625610	2.019824	0.469945
H132	H	-0.125610	2.519824	0.969945
H133	H	-0.539669	2.019838	0.384447
H134	H	-0.039669	2.519838	0.884447
