data_functionalizedCrystal
_audit_creation_method	'MofGen! by Chris Wilmer'
_symmetry_space_group_name_H-M	'P1'
_symmetry_Int_Tables_number	1
_symmetry_cell_setting	triclinic
loop_
_symmetry_equiv_pos_as_xyz
  x,y,z
_cell_length_a	19.077105
_cell_length_b	19.077068
_cell_length_c	19.077174
_cell_angle_alpha	94.657148
_cell_angle_beta	85.483752
_cell_angle_gamma	90.115316
loop_
_atom_site_label
_atom_site_type_symbol
_atom_site_fract_x
_atom_site_fract_y
_atom_site_fract_z
Zn1	Zn	1.080478	-0.341972	-0.455027
Zn2	Zn	1.413812	-0.008639	-0.121694
Zn3	Zn	1.747145	0.324694	0.211640
Zn4	Zn	1.071301	-0.454742	-0.341487
Zn5	Zn	1.404635	-0.121409	-0.008154
Zn6	Zn	1.737968	0.211924	0.325180
Zn7	Zn	0.958244	-0.332134	-0.332045
Zn8	Zn	1.291577	0.001200	0.001288
Zn9	Zn	1.624911	0.334533	0.334621
Zn10	Zn	0.958197	-0.454696	-0.454603
Zn11	Zn	1.291530	-0.121363	-0.121270
Zn12	Zn	1.624864	0.211970	0.212064
O13	O	1.017055	-0.395886	-0.395791
O14	O	1.350389	-0.062553	-0.062457
O15	O	1.683722	0.270781	0.270876
O16	O	1.177751	-0.361068	-0.444095
O17	O	1.511085	-0.027735	-0.110761
O18	O	1.844418	0.305598	0.222572
O19	O	1.052483	-0.434380	-0.241427
O20	O	1.385817	-0.101047	0.091907
O21	O	1.719150	0.232287	0.425240
O22	O	0.978319	-0.234951	-0.344585
O23	O	1.311652	0.098382	-0.011252
O24	O	1.644986	0.431715	0.322081
O25	O	1.171009	-0.443920	-0.360677
O26	O	1.504342	-0.110587	-0.027344
O27	O	1.837676	0.222747	0.305990
O28	O	1.068124	-0.242180	-0.434939
O29	O	1.401457	0.091154	-0.101606
O30	O	1.734791	0.424487	0.231727
O31	O	0.969420	-0.344300	-0.234490
O32	O	1.302754	-0.010967	0.098843
O33	O	1.636087	0.322367	0.432177
O34	O	0.859748	-0.344255	-0.344174
O35	O	1.193081	-0.010922	-0.010841
O36	O	1.526414	0.322411	0.322493
O37	O	0.978239	-0.443841	-0.553467
O38	O	1.311572	-0.110508	-0.220134
O39	O	1.644906	0.222825	0.113200
O40	O	0.859713	-0.434301	-0.434217
O41	O	1.193047	-0.100968	-0.100883
O42	O	1.526380	0.232365	0.232450
O43	O	1.068079	-0.361024	-0.553779
O44	O	1.401412	-0.027690	-0.220445
O45	O	1.734745	0.305643	0.112888
O46	O	1.052438	-0.553224	-0.360266
O47	O	1.385771	-0.219890	-0.026932
O48	O	1.719104	0.113443	0.306401
O49	O	0.969340	-0.553190	-0.443372
O50	O	1.302674	-0.219856	-0.110038
O51	O	1.636007	0.113477	0.223295
C52	C	0.834193	-0.388206	-0.388125
C53	C	1.167526	-0.054873	-0.054792
C54	C	1.500860	0.278460	0.278542
C55	C	0.755964	-0.384938	-0.384863
C56	C	1.089297	-0.051605	-0.051530
C57	C	1.422630	0.281728	0.281803
C58	C	0.719207	-0.430350	-0.430143
C59	C	1.052540	-0.097017	-0.096809
C60	C	1.385873	0.236317	0.236524
C61	C	0.645702	-0.427270	-0.427081
C62	C	0.979036	-0.093937	-0.093748
C63	C	1.312369	0.239396	0.239586
C64	C	0.608956	-0.378782	-0.378736
C65	C	0.942290	-0.045449	-0.045402
C66	C	1.275623	0.287885	0.287931
C67	C	0.645719	-0.333365	-0.333454
C68	C	0.979052	-0.000032	-0.000121
C69	C	1.312386	0.333301	0.333212
C70	C	0.719222	-0.336442	-0.336520
C71	C	1.052555	-0.003109	-0.003187
C72	C	1.385889	0.330225	0.330147
C73	C	0.389126	-0.364542	-0.364550
C74	C	0.722460	-0.031209	-0.031217
C75	C	1.055793	0.302124	0.302117
C76	C	0.315618	-0.361471	-0.361486
C77	C	0.648951	-0.028137	-0.028153
C78	C	0.982285	0.305196	0.305180
C79	C	0.315607	-0.455375	-0.455114
C80	C	0.648940	-0.122042	-0.121781
C81	C	0.982273	0.211291	0.211552
C82	C	0.389111	-0.458451	-0.458173
C83	C	0.722444	-0.125117	-0.124840
C84	C	1.055778	0.208216	0.208494
C85	C	0.425867	-0.413032	-0.412894
C86	C	0.759200	-0.079698	-0.079561
C87	C	1.092534	0.253635	0.253773
N88	N	0.533823	-0.375634	-0.375603
N89	N	0.867157	-0.042301	-0.042270
N90	N	1.200490	0.291032	0.291063
N91	N	0.500999	-0.416176	-0.416030
N92	N	0.834333	-0.082843	-0.082697
N93	N	1.167666	0.250490	0.250636
C94	C	1.009908	-0.578745	-0.402813
C95	C	1.343241	-0.245411	-0.069480
C96	C	1.676575	0.087922	0.263853
C97	C	1.006916	-0.656976	-0.405844
C98	C	1.340249	-0.323643	-0.072511
C99	C	1.673582	0.009690	0.260823
C100	C	1.048810	-0.693727	-0.364038
C101	C	1.382144	-0.360393	-0.030705
C102	C	1.715477	-0.027060	0.302629
C103	C	1.046000	-0.767234	-0.366893
C104	C	1.379334	-0.433900	-0.033560
C105	C	1.712667	-0.100567	0.299774
C106	C	1.001291	-0.803989	-0.411551
C107	C	1.334624	-0.470655	-0.078217
C108	C	1.667958	-0.137322	0.255116
C109	C	0.959395	-0.767233	-0.453361
C110	C	1.292728	-0.433900	-0.120028
C111	C	1.626061	-0.100566	0.213305
C112	C	0.962209	-0.693728	-0.450510
C113	C	1.295542	-0.360394	-0.117176
C114	C	1.628876	-0.027061	0.216157
C115	C	0.988234	-1.023827	-0.424718
C116	C	1.321568	-0.690493	-0.091385
C117	C	1.654901	-0.357160	0.241948
C118	C	0.985422	-1.097337	-0.427565
C119	C	1.318755	-0.764004	-0.094232
C120	C	1.652088	-0.430671	0.239102
C121	C	1.072029	-1.097333	-0.341097
C122	C	1.405362	-0.764000	-0.007764
C123	C	1.738695	-0.430666	0.325569
C124	C	1.074836	-1.023826	-0.338247
C125	C	1.408169	-0.690493	-0.004913
C126	C	1.741502	-0.357159	0.328420
C127	C	1.032942	-0.987077	-0.380060
C128	C	1.366275	-0.653744	-0.046727
C129	C	1.699609	-0.320410	0.286607
N130	N	0.998416	-0.879124	-0.414468
N131	N	1.331749	-0.545791	-0.081135
N132	N	1.665083	-0.212458	0.252199
N133	N	1.035821	-0.911943	-0.377146
N134	N	1.369155	-0.578609	-0.043812
N135	N	1.702488	-0.245276	0.289521
C136	C	1.200631	-0.403597	-0.403486
C137	C	1.533965	-0.070263	-0.070153
C138	C	1.867298	0.263070	0.263180
C139	C	1.278861	-0.406882	-0.406766
C140	C	1.612194	-0.073549	-0.073432
C141	C	1.945527	0.259784	0.259901
C142	C	1.024177	-0.403525	-0.579959
C143	C	1.357511	-0.070191	-0.246625
C144	C	1.690844	0.263142	0.086708
C145	C	1.027212	-0.406780	-0.658440
C146	C	1.360545	-0.073447	-0.325107
C147	C	1.693879	0.259887	0.008226
C148	C	1.024250	-0.212315	-0.388757
C149	C	1.357584	0.121018	-0.055423
C150	C	1.690917	0.454352	0.277910
C151	C	1.027316	-0.134088	-0.385759
C152	C	1.360650	0.199246	-0.052426
C153	C	1.693983	0.532579	0.280908
C154	C	0.985394	-0.361410	-0.691699
C155	C	1.318727	-0.028077	-0.358366
C156	C	1.652060	0.305256	-0.025033
C157	C	0.988242	-0.364475	-0.765441
C158	C	1.321576	-0.031141	-0.432108
C159	C	1.654909	0.302192	-0.098774
C160	C	1.032914	-0.412906	-0.805923
C161	C	1.366247	-0.079572	-0.472589
C162	C	1.699580	0.253761	-0.139256
C163	C	1.074734	-0.458280	-0.772659
C164	C	1.408067	-0.124947	-0.439326
C165	C	1.741401	0.208387	-0.105992
C166	C	1.071881	-0.455219	-0.698918
C167	C	1.405214	-0.121885	-0.365585
C168	C	1.738548	0.211448	-0.032252
C169	C	1.046080	-0.427094	-1.026851
C170	C	1.379413	-0.093760	-0.693518
C171	C	1.712747	0.239573	-0.360184
C172	C	1.048931	-0.430150	-1.100597
C173	C	1.382265	-0.096817	-0.767263
C174	C	1.715598	0.236517	-0.433930
C175	C	0.962438	-0.336345	-1.093373
C176	C	1.295772	-0.003012	-0.760040
C177	C	1.629105	0.330321	-0.426707
C178	C	0.959592	-0.333285	-1.019632
C179	C	1.292926	0.000048	-0.686298
C180	C	1.626259	0.333381	-0.352965
C181	C	1.001410	-0.378662	-0.986374
C182	C	1.334743	-0.045329	-0.653041
C183	C	1.668076	0.288004	-0.319708
N184	N	1.035828	-0.416037	-0.881299
N185	N	1.369162	-0.082704	-0.547966
N186	N	1.702495	0.250629	-0.214632
N187	N	0.998491	-0.375533	-0.911000
N188	N	1.331824	-0.042200	-0.577666
N189	N	1.665158	0.291133	-0.244333
C190	C	1.010004	-0.388228	-0.212338
C191	C	1.343337	-0.054895	0.120995
C192	C	1.676670	0.278438	0.454328
C193	C	1.007113	-0.384781	-0.133855
C194	C	1.340446	-0.051447	0.199478
C195	C	1.673779	0.281886	0.532811
H196	H	0.285672	-0.492352	-0.491979
H197	H	0.619005	-0.159019	-0.158645
H198	H	0.952339	0.174315	0.174688
N199	N	0.943042	-0.984196	-0.469806
N200	N	1.276375	-0.650862	-0.136472
N201	N	1.609708	-0.317529	0.196861
H202	H	0.974049	-0.956218	-0.502568
H203	H	1.307382	-0.622885	-0.169235
H204	H	1.640715	-0.289551	0.164098
H205	H	0.914296	-1.018679	-0.498478
H206	H	1.247630	-0.685345	-0.165145
H207	H	1.580963	-0.352012	0.168189
H208	H	0.949023	-1.127262	-0.463943
H209	H	1.282356	-0.793929	-0.130610
H210	H	1.615690	-0.460595	0.202723
H211	H	0.922995	-0.797165	-0.489726
H212	H	1.256328	-0.463832	-0.156392
H213	H	1.589661	-0.130498	0.176941
H214	H	1.105940	-0.492158	-0.671840
H215	H	1.439273	-0.158825	-0.338507
H216	H	1.772606	0.174508	-0.005174
N217	N	0.917025	-0.654086	-0.495602
N218	N	1.250359	-0.320753	-0.162269
N219	N	1.583692	0.012581	0.171064
H220	H	0.888274	-0.688522	-0.524325
H221	H	1.221607	-0.355189	-0.190992
H222	H	1.554941	-0.021856	0.142342
H223	H	0.884531	-0.621068	-0.464290
H224	H	1.217864	-0.287734	-0.130957
H225	H	1.551198	0.045599	0.202377
N226	N	0.758832	-0.482652	-0.482288
N227	N	1.092165	-0.149319	-0.148955
N228	N	1.425499	0.184015	0.184379
H229	H	0.791719	-0.456739	-0.515232
H230	H	1.125053	-0.123405	-0.181898
H231	H	1.458386	0.209928	0.151435
H232	H	0.786895	-0.515295	-0.456010
H233	H	1.120228	-0.181962	-0.122676
H234	H	1.453561	0.151372	0.210657
H235	H	1.106137	-1.127262	-0.307056
H236	H	1.439470	-0.793929	0.026277
H237	H	1.772804	-0.460595	0.359610
H238	H	0.949021	-0.321969	-0.658744
H239	H	1.282355	0.011365	-0.325411
H240	H	1.615688	0.344698	0.007923
N241	N	0.606087	-0.281071	-0.281306
N242	N	0.939420	0.052262	0.052028
N243	N	1.272753	0.385595	0.385361
H244	H	0.640528	-0.252769	-0.253087
H245	H	0.973861	0.080564	0.080246
H246	H	1.307195	0.413897	0.413580
H247	H	0.577977	-0.248463	-0.307578
H248	H	0.911310	0.084870	0.025756
H249	H	1.244644	0.418203	0.359089
N250	N	0.275982	-0.309172	-0.309338
N251	N	0.609315	0.024162	0.023995
N252	N	0.942649	0.357495	0.357328
H253	H	0.310420	-0.280865	-0.281120
H254	H	0.643753	0.052469	0.052214
H255	H	0.977086	0.385802	0.385547
H256	H	0.247871	-0.276569	-0.335614
H257	H	0.581204	0.056765	-0.002281
H258	H	0.914538	0.390098	0.331052
H259	H	0.954186	-0.327532	-0.792517
H260	H	1.287520	0.005801	-0.459183
H261	H	1.620853	0.339134	-0.125850
N262	N	0.428766	-0.315547	-0.315727
N263	N	0.762099	0.017787	0.017607
N264	N	1.095433	0.351120	0.350940
H265	H	0.394332	-0.284362	-0.284638
H266	H	0.727666	0.048971	0.048695
H267	H	1.060999	0.382304	0.382029
H268	H	0.456883	-0.344049	-0.285368
H269	H	0.790216	-0.010716	0.047965
H270	H	1.123549	0.322617	0.381298
H271	H	0.615778	-0.464250	-0.463952
H272	H	0.949111	-0.130917	-0.130618
H273	H	1.282445	0.202416	0.202715
N274	N	1.122914	-0.510513	-0.816326
N275	N	1.456247	-0.177180	-0.482993
N276	N	1.789580	0.156153	-0.149659
H277	H	1.173133	-0.501164	-0.805182
H278	H	1.506467	-0.167831	-0.471848
H279	H	1.839800	0.165503	-0.138515
H280	H	1.109455	-0.559786	-0.804945
H281	H	1.442789	-0.226453	-0.471612
H282	H	1.776122	0.106880	-0.138278
H283	H	0.923214	-0.293850	-0.986676
H284	H	1.256547	0.039484	-0.653343
H285	H	1.589881	0.372817	-0.320009
N286	N	0.917323	-0.287419	-1.129243
N287	N	1.250656	0.045914	-0.795910
N288	N	1.583989	0.379248	-0.462576
H289	H	0.925901	-0.296710	-1.182100
H290	H	1.259235	0.036624	-0.848767
H291	H	1.592568	0.369957	-0.515433
H292	H	0.866133	-0.295741	-1.114659
H293	H	1.199467	0.037592	-0.781325
H294	H	1.532800	0.370925	-0.447992
H295	H	0.749149	-0.299459	-0.299652
H296	H	1.082482	0.033874	0.033681
H297	H	1.415816	0.367207	0.367015
H298	H	1.085311	-0.469589	-1.133555
H299	H	1.418645	-0.136256	-0.800222
H300	H	1.751978	0.197077	-0.466889
N301	N	0.428743	-0.510753	-0.510313
N302	N	0.762076	-0.177419	-0.176980
N303	N	1.095409	0.155914	0.156354
H304	H	0.394303	-0.539055	-0.538533
H305	H	0.727636	-0.205722	-0.205200
H306	H	1.060970	0.127612	0.128133
H307	H	0.461631	-0.484792	-0.543211
H308	H	0.794964	-0.151458	-0.209877
H309	H	1.128298	0.181875	0.123456
H310	H	1.085214	-0.663806	-0.327670
H311	H	1.418547	-0.330472	0.005664
H312	H	1.751881	0.002861	0.338997
N313	N	1.091181	-0.476031	-0.990983
N314	N	1.424514	-0.142698	-0.657650
N315	N	1.757848	0.190635	-0.324317
H316	H	1.119915	-0.507174	-1.027818
H317	H	1.453248	-0.173841	-0.694485
H318	H	1.786582	0.159493	-0.361151
H319	H	1.123691	-0.447482	-0.960655
H320	H	1.457024	-0.114148	-0.627321
H321	H	1.790357	0.219185	-0.293988
H322	H	1.111241	-0.993902	-0.301883
H323	H	1.444575	-0.660568	0.031451
H324	H	1.777908	-0.327235	0.364784
N325	N	1.091186	-0.806873	-0.321802
N326	N	1.424520	-0.473539	0.011531
N327	N	1.757853	-0.140206	0.344864
H328	H	1.119933	-0.772435	-0.293076
H329	H	1.453266	-0.439101	0.040258
H330	H	1.786599	-0.105768	0.373591
H331	H	1.060128	-0.834853	-0.289090
H332	H	1.393461	-0.501520	0.044243
H333	H	1.726795	-0.168187	0.377576
