data_functionalizedCrystal
_audit_creation_method	'MofGen! by Chris Wilmer'
_symmetry_space_group_name_H-M	'P1'
_symmetry_Int_Tables_number	1
_symmetry_cell_setting	triclinic
loop_
_symmetry_equiv_pos_as_xyz
  x,y,z
_cell_length_a	16.109301
_cell_length_b	16.992696
_cell_length_c	15.455382
_cell_angle_alpha	87.160297
_cell_angle_beta	92.983937
_cell_angle_gamma	92.935033
loop_
_atom_site_label
_atom_site_type_symbol
_atom_site_fract_x
_atom_site_fract_y
_atom_site_fract_z
O1	O	1.113290	-0.103852	0.072092
O2	O	0.872066	-0.116395	0.072107
O3	O	0.991710	0.004020	0.072076
O4	O	0.993646	-0.224267	0.072124
O5	O	0.984829	0.010161	-0.072186
O6	O	0.865186	-0.110253	-0.072154
O7	O	1.106410	-0.097710	-0.072170
Cu8	Cu	0.985169	-0.103421	-0.085334
Cu9	Cu	0.993306	-0.110684	0.085272
O10	O	0.986766	-0.218125	-0.072138
C11	C	0.837617	-0.112816	-0.000022
C12	C	0.745220	-0.111293	-0.000017
C13	C	0.527480	-0.179203	-0.000013
C14	C	0.440663	-0.177765	-0.000018
C15	C	0.451003	-0.034897	-0.000045
C16	C	0.537817	-0.036336	-0.000045
C17	C	0.576054	-0.108491	-0.000025
C18	C	0.402422	-0.105615	-0.000030
C19	C	0.308292	-0.104056	-0.000037
C20	C	0.670190	-0.110050	-0.000020
C21	C	0.985781	0.036303	-0.000059
C22	C	0.978357	0.123346	-0.000072
C23	C	1.049982	0.173605	-0.000084
C24	C	1.043002	0.255390	-0.000088
C25	C	0.964395	0.286914	-0.000085
C26	C	0.892765	0.236648	-0.000070
C27	C	0.899746	0.154865	-0.000060
C28	C	0.935461	0.530505	-0.000108
C29	C	0.928484	0.612296	-0.000121
C30	C	1.078723	0.631032	-0.000137
C31	C	1.085697	0.549246	-0.000132
C32	C	1.014067	0.498987	-0.000113
N33	N	0.957258	0.370511	-0.000092
N34	N	1.021205	0.415391	-0.000100
C35	C	1.140859	-0.101289	-0.000039
C36	C	1.233256	-0.102812	-0.000038
C37	C	0.992692	0.749593	-0.000039
C38	C	1.000110	0.662555	-0.000133
N39	N	0.999029	-0.115787	0.205267
C40	C	1.030756	-0.144052	0.749272
C41	C	1.026421	-0.140184	0.658465
C42	C	0.970768	-0.090583	0.613057
C43	C	0.919453	-0.044841	0.658462
C44	C	0.923794	-0.048705	0.749268
C45	C	0.952055	-0.073910	0.341477
C46	C	0.947717	-0.070050	0.250665
C47	C	1.054686	-0.165392	0.250674
C48	C	1.059018	-0.169256	0.341482
C49	C	1.007707	-0.123511	0.386879
N50	N	0.966333	-0.086629	0.520237
N51	N	1.012146	-0.127461	0.479697
N52	N	0.979444	-0.098315	0.794671
H53	H	0.401118	-0.235346	-0.000010
Cl54	Cl	1.128951	-0.231647	0.398559
H55	H	0.419859	0.023849	-0.000067
H56	H	1.113992	0.147945	-0.000092
Cl57	Cl	0.598886	0.052567	-0.000067
H58	H	0.910274	-0.036661	0.378428
Cl59	Cl	1.133050	0.318570	-0.000106
H60	H	1.076070	-0.184447	0.786237
Cl61	Cl	0.809699	0.091681	-0.000041
Cl62	Cl	1.090929	-0.197686	0.601396
Cl63	Cl	1.184522	0.509620	-0.000108
H64	H	0.902393	-0.029659	0.213697
H65	H	1.137040	0.671961	-0.000152
H66	H	0.864470	0.637960	-0.000133
H67	H	0.874143	-0.004451	0.621484
H68	H	0.877134	0.489594	-0.000093
Cl69	Cl	1.119189	-0.222894	0.193599
H70	H	0.828761	0.262322	-0.000062
H71	H	0.558609	-0.237956	-0.000002
Cl72	Cl	0.859292	0.008803	0.806340
