data_functionalizedCrystal
_audit_creation_method	'MofGen! by Chris Wilmer'
_symmetry_space_group_name_H-M	'P1'
_symmetry_Int_Tables_number	1
_symmetry_cell_setting	triclinic
loop_
_symmetry_equiv_pos_as_xyz
  x,y,z
_cell_length_a	12.837932
_cell_length_b	12.811415
_cell_length_c	16.176319
_cell_angle_alpha	84.562354
_cell_angle_beta	89.993097
_cell_angle_gamma	89.412215
loop_
_atom_site_label
_atom_site_type_symbol
_atom_site_fract_x
_atom_site_fract_y
_atom_site_fract_z
O1	O	1.376639	0.272991	-0.089211
O2	O	1.876639	0.772991	0.410789
O3	O	1.074774	0.259504	-0.088202
O4	O	1.574774	0.759504	0.411798
O5	O	1.233300	0.114214	-0.077305
O6	O	1.733300	0.614214	0.422695
O7	O	1.218113	0.418281	-0.100108
O8	O	1.718113	0.918281	0.399892
O9	O	1.233278	0.114202	0.060189
O10	O	1.733278	0.614202	0.560189
O11	O	1.074753	0.259492	0.049293
O12	O	1.574753	0.759492	0.549293
O13	O	1.376617	0.272979	0.048283
O14	O	1.876617	0.772979	0.548283
Cu15	Cu	1.225683	0.266234	0.061342
Cu16	Cu	1.725683	0.766234	0.561342
Cu17	Cu	1.225709	0.266249	-0.101261
Cu18	Cu	1.725709	0.766249	0.398739
O19	O	1.218091	0.418269	0.037386
O20	O	1.718091	0.918269	0.537386
C21	C	1.036123	0.254942	-0.019113
C22	C	1.536123	0.754942	0.480887
C23	C	0.920987	0.241356	-0.018095
C24	C	1.420987	0.741356	0.481905
C25	C	1.232437	0.075018	-0.005621
C26	C	1.732437	0.575018	0.494379
C27	C	1.229888	-0.041755	0.003131
C28	C	1.729888	0.458245	0.503131
C29	C	1.225102	-0.261162	-0.130336
C30	C	1.725102	0.238838	0.369664
C31	C	1.222706	-0.370882	-0.122117
C32	C	1.722706	0.129118	0.377883
C33	C	1.222693	-0.370915	0.027788
C34	C	1.722693	0.129085	0.527788
C35	C	1.225089	-0.261196	0.019569
C36	C	1.725089	0.238804	0.519569
C37	C	1.226295	-0.206323	-0.059496
C38	C	1.726295	0.293677	0.440504
C39	C	1.228698	-0.096602	-0.067714
C40	C	1.728698	0.403398	0.432286
C41	C	1.228677	-0.096637	0.082190
C42	C	1.728677	0.403363	0.582190
C43	C	1.226282	-0.206357	0.090409
C44	C	1.726282	0.293643	0.590409
C45	C	0.770654	0.127794	-0.009577
C46	C	1.270654	0.627794	0.490423
C47	C	0.878835	0.140553	-0.010534
C48	C	1.378835	0.640553	0.489466
C49	C	0.854950	0.329405	-0.024697
C50	C	1.354950	0.829405	0.475303
C51	C	0.746768	0.316645	-0.023739
C52	C	1.246768	0.816645	0.476261
C53	C	0.704625	0.215837	-0.016181
C54	C	1.204625	0.715837	0.483819
C55	C	0.596441	0.203078	-0.015229
C56	C	1.096441	0.703078	0.484771
C57	C	0.572558	0.391929	-0.029386
C58	C	1.072558	0.891929	0.470614
C59	C	0.680739	0.404688	-0.030343
C60	C	1.180739	0.904688	0.469657
C61	C	1.415268	0.277540	-0.020807
C62	C	1.915268	0.777540	0.479193
C63	C	1.530404	0.291127	-0.021831
C64	C	2.030404	0.791127	0.478169
C65	C	1.218954	0.457465	-0.034300
C66	C	1.718954	0.957465	0.465700
C67	C	1.221503	0.574238	-0.043057
C68	C	1.721503	1.074238	0.456943
N69	N	1.225672	0.266224	0.175708
N70	N	1.725672	0.766224	0.675708
N71	N	1.225727	0.266252	-0.215626
N72	N	1.725727	0.766252	0.284374
C73	C	1.295888	0.201921	0.223795
C74	C	1.795888	0.701921	0.723795
C75	C	1.295893	0.201920	0.310342
C76	C	1.795893	0.701920	0.810342
C77	C	1.225687	0.266229	0.348800
C78	C	1.725687	0.766229	0.848800
C79	C	1.155463	0.330535	0.300707
C80	C	1.655463	0.830535	0.800707
C81	C	1.155453	0.330529	0.214162
C82	C	1.655453	0.830529	0.714162
C83	C	1.155498	0.330558	0.649734
C84	C	1.655498	0.830558	1.149734
C85	C	1.155515	0.330561	0.736285
C86	C	1.655515	0.830561	1.236285
C87	C	1.295938	0.201949	0.745914
C88	C	1.795938	0.701949	1.245914
C89	C	1.295929	0.201943	0.659368
C90	C	1.795929	0.701943	1.159368
C91	C	1.225702	0.266245	0.611283
C92	C	1.725702	0.766245	1.111283
C93	C	1.225696	0.266243	0.517439
C94	C	1.725696	0.766243	1.017439
C95	C	1.225697	0.266237	0.442642
C96	C	1.725697	0.766237	0.942642
H97	H	1.229683	-0.051927	-0.132093
H98	H	1.729683	0.448073	0.367907
F99	F	0.502277	0.485636	-0.036418
F100	F	1.002277	0.985636	0.463582
F101	F	1.080716	0.398966	0.162985
F102	F	1.580716	0.898966	0.662985
H103	H	1.226093	-0.216485	-0.194714
H104	H	1.726093	0.283515	0.305286
F105	F	1.229956	-0.038266	0.157588
F106	F	1.729956	0.461734	0.657588
H107	H	1.098294	0.382892	0.332025
H108	H	1.598294	0.882892	0.832025
F109	F	1.224990	-0.264767	0.174551
F110	F	1.724990	0.235233	0.674551
H111	H	0.562130	0.120995	-0.009078
H112	H	1.062130	0.620995	0.490922
H113	H	0.889283	0.411479	-0.030843
H114	H	1.389283	0.911479	0.469157
H115	H	0.736340	0.045712	-0.003431
H116	H	1.236340	0.545712	0.496569
H117	H	1.221731	-0.415527	-0.179803
H118	H	1.721731	0.084473	0.320197
H119	H	0.715068	0.486764	-0.036494
H120	H	1.215068	0.986764	0.463506
H121	H	1.353118	0.149588	0.785074
H122	H	1.853118	0.649588	1.285074
F123	F	1.221385	-0.429331	0.111928
F124	F	1.721385	0.070669	0.611928
F125	F	0.949105	0.046846	-0.003504
F126	F	1.449105	0.546846	0.496496
F127	F	1.370619	0.133478	0.182873
F128	F	1.870619	0.633478	0.682873
H129	H	1.353068	0.149559	0.349494
H130	H	1.853068	0.649559	0.849494
H131	H	1.353101	0.149581	0.628059
H132	H	1.853101	0.649581	1.128059
H133	H	1.098340	0.382931	0.767595
H134	H	1.598340	0.882931	1.267595
F135	F	1.080762	0.398994	0.598564
F136	F	1.580762	0.898994	1.098564
