data_functionalizedCrystal
_audit_creation_method	'MofGen! by Chris Wilmer'
_symmetry_space_group_name_H-M	'P1'
_symmetry_Int_Tables_number	1
_symmetry_cell_setting	triclinic
loop_
_symmetry_equiv_pos_as_xyz
  x,y,z
_cell_length_a	19.121102
_cell_length_b	21.295417
_cell_length_c	19.121595
_cell_angle_alpha	87.530324
_cell_angle_beta	85.004847
_cell_angle_gamma	87.584620
loop_
_atom_site_label
_atom_site_type_symbol
_atom_site_fract_x
_atom_site_fract_y
_atom_site_fract_z
Zn1	Zn	1.092604	-0.275507	-0.443657
Zn2	Zn	1.592604	0.224493	0.056343
Zn3	Zn	1.087490	-0.385079	-0.325979
Zn4	Zn	1.587490	0.114921	0.174021
Zn5	Zn	0.969926	-0.275515	-0.320992
Zn6	Zn	1.469926	0.224485	0.179008
Zn7	Zn	0.974894	-0.376428	-0.438594
Zn8	Zn	1.474894	0.123572	0.061406
O9	O	1.031228	-0.328132	-0.382306
O10	O	1.531228	0.171868	0.117694
O11	O	1.190389	-0.293659	-0.432253
O12	O	1.690389	0.206341	0.067747
O13	O	1.067675	-0.374169	-0.226852
O14	O	1.567675	0.125831	0.273148
O15	O	0.986260	-0.187426	-0.337296
O16	O	1.486260	0.312574	0.162704
O17	O	1.186631	-0.374160	-0.345795
O18	O	1.686631	0.125840	0.154205
O19	O	1.076392	-0.187420	-0.427417
O20	O	1.576392	0.312580	0.072583
O21	O	0.981301	-0.293673	-0.223189
O22	O	1.481301	0.206327	0.276811
O23	O	0.872121	-0.285285	-0.332387
O24	O	1.372121	0.214715	0.167613
O25	O	0.994728	-0.359416	-0.537731
O26	O	1.494728	0.140584	-0.037731
O27	O	0.875771	-0.359425	-0.418788
O28	O	1.375771	0.140575	0.081212
O29	O	1.081209	-0.285270	-0.541451
O30	O	1.581209	0.214730	-0.041451
O31	O	1.072492	-0.472019	-0.340886
O32	O	1.572492	0.027981	0.159114
O33	O	0.989768	-0.465664	-0.423624
O34	O	1.489768	0.034336	0.076376
C35	C	0.848416	-0.321417	-0.374497
C36	C	1.348416	0.178583	0.125503
C37	C	0.770209	-0.318559	-0.371174
C38	C	1.270209	0.181441	0.128826
C39	C	0.735382	-0.355881	-0.414526
C40	C	1.235382	0.144119	0.085474
C41	C	0.661899	-0.353187	-0.411406
C42	C	1.161899	0.146813	0.088594
C43	C	0.623242	-0.313174	-0.364930
C44	C	1.123242	0.186826	0.135070
C45	C	0.658073	-0.275849	-0.321576
C46	C	1.158073	0.224151	0.178424
C47	C	0.731556	-0.278540	-0.324700
C48	C	1.231556	0.221460	0.175300
C49	C	0.401276	-0.303112	-0.353255
C50	C	0.901276	0.196888	0.146745
C51	C	0.327789	-0.300425	-0.350133
C52	C	0.827789	0.199575	0.149867
C53	C	0.331619	-0.377762	-0.439965
C54	C	0.831619	0.122238	0.060035
C55	C	0.405103	-0.380452	-0.443081
C56	C	0.905103	0.119548	0.056919
C57	C	0.439928	-0.343125	-0.399730
C58	C	0.939928	0.156875	0.100270
C59	C	0.548130	-0.310421	-0.361739
C60	C	1.048130	0.189579	0.138261
C61	C	0.515039	-0.345875	-0.402925
C62	C	1.015039	0.154125	0.097075
C63	C	1.031134	-0.491682	-0.382263
C64	C	1.531134	0.008318	0.117737
C65	C	1.031160	-0.561651	-0.382271
C66	C	1.531160	-0.061651	0.117729
C67	C	1.074276	-0.597806	-0.339237
C68	C	1.574276	-0.097806	0.160763
C69	C	1.074309	-0.663549	-0.339254
C70	C	1.574309	-0.163549	0.160746
C71	C	1.031214	-0.693134	-0.382297
C72	C	1.531214	-0.193134	0.117703
C73	C	0.988095	-0.656971	-0.425340
C74	C	1.488095	-0.156971	0.074660
C75	C	0.988068	-0.591229	-0.425326
C76	C	1.488068	-0.091229	0.074674
N77	N	0.969890	-0.793947	-0.385032
N78	N	1.469890	-0.293947	0.114968
N79	N	0.969918	-0.856399	-0.385041
N80	N	1.469918	-0.356399	0.114959
C81	C	1.031294	-0.891210	-0.382341
C82	C	1.531294	-0.391210	0.117659
N83	N	1.092643	-0.861211	-0.379618
N84	N	1.592643	-0.361211	0.120382
N85	N	1.092615	-0.798753	-0.379606
N86	N	1.592615	-0.298753	0.120394
C87	C	1.031239	-0.764420	-0.382317
C88	C	1.531239	-0.264420	0.117683
C89	C	1.074451	-0.998652	-0.339324
C90	C	1.574451	-0.498652	0.160676
C91	C	1.074486	-1.064396	-0.339346
C92	C	1.574486	-0.564396	0.160654
C93	C	0.988265	-1.057817	-0.425427
C94	C	1.488265	-0.557817	0.074573
C95	C	0.988236	-0.992074	-0.425409
C96	C	1.488236	-0.492074	0.074591
C97	C	1.031328	-0.962495	-0.382353
C98	C	1.531328	-0.462495	0.117647
C99	C	1.214754	-0.334874	-0.390145
C100	C	1.714754	0.165126	0.109855
C101	C	1.292962	-0.337746	-0.393485
C102	C	1.792962	0.162254	0.106515
C103	C	1.039093	-0.321377	-0.565836
C104	C	1.539093	0.178623	-0.065836
C105	C	1.042444	-0.318499	-0.644045
C106	C	1.542444	0.181501	-0.144045
C107	C	1.031342	-0.163944	-0.382365
C108	C	1.531342	0.336056	0.117635
C109	C	1.031391	-0.093977	-0.382390
C110	C	1.531391	0.406023	0.117610
C111	C	0.998994	-0.355747	-0.678853
C112	C	1.498994	0.144253	-0.178853
C113	C	1.002148	-0.353043	-0.752339
C114	C	1.502148	0.146957	-0.252339
C115	C	1.048751	-0.313086	-0.791017
C116	C	1.548751	0.186914	-0.291017
C117	C	1.092207	-0.275836	-0.756204
C118	C	1.592207	0.224164	-0.256204
C119	C	1.089055	-0.278544	-0.682719
C120	C	1.589055	0.221456	-0.182719
C121	C	1.060523	-0.302981	-1.012991
C122	C	1.560523	0.197019	-0.512991
C123	C	1.063670	-0.300274	-1.086480
C124	C	1.563670	0.199726	-0.586480
C125	C	0.973613	-0.377482	-1.082611
C126	C	1.473613	0.122518	-0.582611
C127	C	0.970462	-0.380184	-1.009124
C128	C	1.470462	0.119816	-0.509124
C129	C	1.013920	-0.342937	-0.974318
C130	C	1.513920	0.157063	-0.474318
C131	C	1.051975	-0.310319	-0.866131
C132	C	1.551975	0.189681	-0.366131
C133	C	1.010699	-0.345707	-0.899205
C134	C	1.510699	0.154293	-0.399205
C135	C	1.023435	-0.334817	-0.199491
C136	C	1.523435	0.165183	0.300509
C137	C	1.020220	-0.337523	-0.121288
C138	C	1.520220	0.162477	0.378712
H139	H	0.303256	-0.408151	-0.475260
H140	H	0.803256	0.091849	0.024740
O141	O	0.946308	-0.956882	-0.467106
O142	O	1.446308	-0.456882	0.032894
C143	C	0.899150	-0.918730	-0.425058
C144	C	1.399150	-0.418730	0.074942
H145	H	0.921722	-0.911758	-0.372814
H146	H	1.421722	-0.411758	0.127186
H147	H	0.890906	-0.871094	-0.453297
H148	H	1.390906	-0.371094	0.046703
H149	H	0.846690	-0.942485	-0.415063
H150	H	1.346690	-0.442485	0.084937
H151	H	0.966767	-0.383376	-0.780676
H152	H	1.466767	0.116624	-0.280676
O153	O	0.290301	-0.261589	-0.304899
O154	O	0.790301	0.238411	0.195101
C155	C	0.305202	-0.278482	-0.235494
C156	C	0.805202	0.221518	0.264506
H157	H	0.358483	-0.304678	-0.236236
H158	H	0.858483	0.195322	0.263764
H159	H	0.306368	-0.234251	-0.204153
H160	H	0.806368	0.265749	0.295847
H161	H	0.262807	-0.310176	-0.209972
H162	H	0.762807	0.189824	0.290028
H163	H	0.766851	-0.388465	-0.452370
H164	H	1.266851	0.111535	0.047630
H165	H	1.095910	-0.272652	-0.984661
H166	H	1.595910	0.227348	-0.484661
H167	H	0.429622	-0.272722	-0.317950
H168	H	0.929622	0.227278	0.182050
O169	O	0.946330	-0.685779	-0.467189
O170	O	1.446330	-0.185779	0.032811
C171	C	0.988319	-0.723539	-0.514395
C172	C	1.488319	-0.223539	-0.014395
H173	H	1.040604	-0.736223	-0.491901
H174	H	1.540604	-0.236223	0.008099
H175	H	0.960073	-0.768390	-0.522585
H176	H	1.460073	-0.268390	-0.022585
H177	H	0.998234	-0.696539	-0.566870
H178	H	1.498234	-0.196539	-0.066870
O179	O	1.108848	-0.261392	-1.124083
O180	O	1.608848	0.238608	-0.624083
C181	C	1.070644	-0.217705	-1.164906
C182	C	1.570644	0.282295	-0.664906
H183	H	1.014282	-0.212587	-1.140391
H184	H	1.514282	0.287413	-0.640391
H185	H	1.096171	-0.170170	-1.166850
H186	H	1.596171	0.329830	-0.666850
H187	H	1.070585	-0.235032	-1.220487
H188	H	1.570585	0.264968	-0.720487
H189	H	0.932525	-0.412731	-0.977638
H190	H	1.432525	0.087269	-0.477638
O191	O	0.931476	-0.413645	-1.116533
O192	O	1.431476	0.086355	-0.616533
C193	C	0.944236	-0.402678	-1.189686
C194	C	1.444236	0.097322	-0.689686
H195	H	0.998980	-0.383684	-1.202048
H196	H	1.498980	0.116316	-0.702048
H197	H	0.940631	-0.448626	-1.217395
H198	H	1.440631	0.051374	-0.717395
H199	H	0.903416	-0.366857	-1.208769
H200	H	1.403416	0.133143	-0.708769
O201	O	0.442545	-0.419334	-0.488291
O202	O	0.942545	0.080666	0.011709
C203	C	0.396048	-0.451711	-0.525874
C204	C	0.896048	0.048289	-0.025874
H205	H	0.343788	-0.423921	-0.526141
H206	H	0.843788	0.076079	-0.026141
H207	H	0.419665	-0.457244	-0.582200
H208	H	0.919665	0.042756	-0.082200
H209	H	0.387092	-0.500147	-0.499671
H210	H	0.887092	-0.000147	0.000329
H211	H	0.626594	-0.243267	-0.283737
H212	H	1.126594	0.256733	0.216263
H213	H	1.130155	-0.243306	-0.787701
H214	H	1.630155	0.256694	-0.287701
H215	H	0.952957	-0.561791	-0.460370
H216	H	1.452957	-0.061791	0.039630
O217	O	0.510645	-0.271595	-0.316498
O218	O	1.010645	0.228405	0.183502
C219	C	0.525546	-0.288502	-0.247097
C220	C	1.025546	0.211498	0.252903
H221	H	0.578824	-0.314701	-0.247844
H222	H	1.078824	0.185299	0.252156
H223	H	0.526715	-0.244277	-0.215746
H224	H	1.026715	0.255723	0.284254
H225	H	0.483149	-0.320197	-0.221581
H226	H	0.983149	0.179803	0.278419
O227	O	1.116103	-0.569147	-0.297321
O228	O	1.616103	-0.069147	0.202679
C229	C	1.097772	-0.587260	-0.226527
C230	C	1.597772	-0.087260	0.273473
H231	H	1.070676	-0.634076	-0.223900
H232	H	1.570676	-0.134076	0.276100
H233	H	1.147231	-0.592509	-0.197189
H234	H	1.647231	-0.092509	0.302811
H235	H	1.060589	-0.549844	-0.201244
H236	H	1.560589	-0.049844	0.298756
H237	H	0.759911	-0.248146	-0.289401
H238	H	1.259911	0.251854	0.210599
H239	H	0.546516	-0.378450	-0.440769
H240	H	1.046516	0.121550	0.059231
O241	O	1.116376	-0.970015	-0.297485
O242	O	1.616376	-0.470015	0.202515
C243	C	1.154432	-1.016028	-0.259496
C244	C	1.654432	-0.516028	0.240504
H245	H	1.158104	-1.061903	-0.288435
H246	H	1.658104	-0.561903	0.211565
H247	H	1.209546	-0.999296	-0.254395
H248	H	1.709546	-0.499296	0.245605
H249	H	1.126419	-1.024092	-0.204939
H250	H	1.626419	-0.524092	0.295061
H251	H	1.109422	-0.692992	-0.304211
H252	H	1.609422	-0.192992	0.195789
O253	O	1.131288	-0.242297	-0.649014
O254	O	1.631288	0.257703	-0.149014
C255	C	1.173109	-0.206460	-0.698908
C256	C	1.673109	0.293540	-0.198908
H257	H	1.146537	-0.201290	-0.750061
H258	H	1.646537	0.298710	-0.250061
H259	H	1.179741	-0.157923	-0.678010
H260	H	1.679741	0.342077	-0.178010
H261	H	1.226867	-0.231189	-0.708999
H262	H	1.726867	0.268811	-0.208999
H263	H	1.109601	-1.093833	-0.304304
H264	H	1.609601	-0.593833	0.195696
O265	O	0.946424	-1.086648	-0.467177
O266	O	1.446424	-0.586648	0.032823
C267	C	0.955709	-1.152427	-0.457979
C268	C	1.455709	-0.652427	0.042021
H269	H	0.976472	-1.164257	-0.404683
H270	H	1.476472	-0.664257	0.095317
H271	H	0.903215	-1.175348	-0.460468
H272	H	1.403215	-0.675348	0.039532
H273	H	0.994946	-1.170868	-0.501348
H274	H	1.494946	-0.670868	-0.001348
O275	O	0.965513	-0.384615	-0.861669
O276	O	1.465513	0.115385	-0.361669
C277	C	0.981605	-0.447256	-0.880272
C278	C	1.481605	0.052744	-0.380272
H279	H	1.038676	-0.451753	-0.902883
H280	H	1.538676	0.048247	-0.402883
H281	H	0.973461	-0.479910	-0.831674
H282	H	1.473461	0.020090	-0.331674
H283	H	0.945690	-0.460757	-0.921302
H284	H	1.445690	0.039243	-0.421302
H285	H	0.961036	-0.388277	-0.647366
H286	H	1.461036	0.111723	-0.147366
O287	O	1.097201	-0.271417	-0.903627
O288	O	1.597201	0.228583	-0.403627
C289	C	1.081084	-0.208772	-0.885053
C290	C	1.581084	0.291228	-0.385053
H291	H	1.051753	-0.208435	-0.830542
H292	H	1.551753	0.291565	-0.330542
H293	H	1.131775	-0.182500	-0.884724
H294	H	1.631775	0.317500	-0.384724
H295	H	1.046692	-0.184724	-0.924874
H296	H	1.546692	0.315276	-0.424874
H297	H	0.633546	-0.383578	-0.446708
H298	H	1.133546	0.116422	0.053292
