data_functionalizedCrystal
_audit_creation_method	'MofGen! by Chris Wilmer'
_symmetry_space_group_name_H-M	'P1'
_symmetry_Int_Tables_number	1
_symmetry_cell_setting	triclinic
loop_
_symmetry_equiv_pos_as_xyz
  x,y,z
_cell_length_a	14.560438
_cell_length_b	14.628931
_cell_length_c	14.560438
_cell_angle_alpha	90.000974
_cell_angle_beta	60.000905
_cell_angle_gamma	59.999690
loop_
_atom_site_label
_atom_site_type_symbol
_atom_site_fract_x
_atom_site_fract_y
_atom_site_fract_z
Zr1	Zr	1.005274	0.880618	-0.120506
O2	O	1.196878	0.734654	-0.267151
O3	O	0.813673	0.925364	-0.075554
O4	O	1.005277	0.925359	-0.267154
O5	O	1.005271	0.734662	0.075590
O6	O	1.005276	1.075791	-0.267154
O7	O	1.005274	0.734658	-0.075550
O8	O	0.662532	1.075799	0.075584
O9	O	1.348016	0.734654	-0.267148
O10	O	0.892480	1.056713	-0.056379
O11	O	0.892479	0.944450	0.056415
O12	O	1.118067	0.944445	-0.169170
O13	O	1.118066	0.832182	-0.056375
Zr14	Zr	1.005269	1.120546	0.120547
Zr15	Zr	1.005274	1.120540	-0.120506
Zr16	Zr	1.005270	0.880624	0.120546
Zr17	Zr	1.246322	0.880618	-0.120501
Zr18	Zr	0.764222	1.120545	0.120542
O19	O	1.196871	1.075800	0.075594
O20	O	1.196877	1.075792	-0.267151
O21	O	1.196872	0.734662	0.075594
O22	O	0.813666	1.266510	0.267192
O23	O	0.813672	1.266502	-0.075553
O24	O	0.813667	0.925372	0.267191
O25	O	1.005272	1.266502	-0.075550
O26	O	1.005267	1.075805	0.267195
O27	O	1.005268	0.925373	0.267195
O28	O	1.005270	1.266506	0.075591
O29	O	1.348015	0.925360	-0.267148
O30	O	0.662528	1.075804	0.267189
O31	O	0.662528	1.266510	0.267189
O32	O	0.662531	1.266505	0.075585
O33	O	1.348013	0.734659	-0.075544
O34	O	1.348012	0.925365	-0.075544
O35	O	0.892476	1.056719	0.169210
O36	O	0.892478	1.168982	0.056416
O37	O	1.118065	1.056714	-0.056375
O38	O	1.118064	0.944451	0.056420
C39	C	0.703758	1.000581	0.000015
C40	C	0.601427	1.000581	0.000013
C41	C	1.005273	0.700476	0.000020
C42	C	1.005273	0.598623	0.000020
C43	C	0.553352	1.059179	-0.058865
C44	C	0.457192	1.059183	-0.058854
C45	C	0.457196	0.941983	0.058913
C46	C	0.553347	0.941986	0.058908
C47	C	0.893367	0.608906	0.055971
C48	C	0.893364	0.503637	0.055973
C49	C	1.306786	1.000582	0.000026
C50	C	1.409117	1.000583	0.000028
C51	C	1.005277	1.000574	-0.301499
C52	C	1.005279	1.000572	-0.403832
C53	C	1.005271	1.300688	0.000021
C54	C	1.005271	1.402541	0.000021
C55	C	1.123031	0.941970	-0.510784
C56	C	1.123025	0.941983	-0.606933
C57	C	0.887504	1.059201	-0.489164
C58	C	0.887511	1.059194	-0.393018
C59	C	1.005267	1.000590	0.301540
C60	C	1.005265	1.000592	0.403873
C61	C	0.703757	1.300687	0.000015
C62	C	0.601426	1.402540	0.000013
C63	C	0.703753	1.000589	0.301534
C64	C	0.601420	1.000591	0.403865
C65	C	0.703752	1.300695	0.301535
C66	C	0.601419	1.402550	0.403866
C67	C	1.306792	0.700469	-0.301494
C68	C	1.409125	0.598614	-0.403825
C69	C	1.306787	0.700477	0.000026
C70	C	1.409118	0.598624	0.000027
C71	C	1.306791	1.000575	-0.301493
C72	C	1.409123	1.000572	-0.403824
C73	C	0.553349	1.391790	-0.058863
C74	C	0.457206	1.487496	-0.058868
C75	C	0.457221	1.604697	0.058887
C76	C	0.553369	1.508993	0.058886
C77	C	0.553341	1.059194	0.510818
C78	C	0.457198	1.059184	0.606965
C79	C	0.457217	0.941966	0.489192
C80	C	0.553365	0.941970	0.393048
C81	C	0.553341	1.509002	0.393067
C82	C	0.457197	1.604702	0.489221
C83	C	0.457213	1.487485	0.606971
C84	C	0.553362	1.391787	0.510818
H85	H	0.592494	1.106893	-0.106819
Cl86	Cl	0.613753	1.132886	0.524420
Cl87	Cl	0.613820	0.868284	0.258582
H88	H	0.592486	1.305116	-0.106812
Cl89	Cl	0.396762	1.738527	0.475638
Cl90	Cl	0.745437	0.516970	0.129927
H91	H	0.418079	1.691380	0.106821
H92	H	0.592469	1.517771	0.305985
Cl93	Cl	0.739468	1.132868	-0.258553
H94	H	0.418057	1.106903	0.694048
H95	H	0.418071	1.478735	0.694061
H96	H	0.418039	0.894276	0.106862
Cl97	Cl	0.613819	1.522508	0.132902
H98	H	0.418051	1.106900	-0.106796
Cl99	Cl	0.396795	0.868279	0.475604
H100	H	0.418068	1.478734	-0.106813
H101	H	1.218910	0.894265	-0.694014
H102	H	1.101083	0.393903	-0.047889
H103	H	0.791622	1.106928	-0.480373
Cl104	Cl	0.613781	0.868322	0.132941
Cl105	Cl	0.745442	0.742819	0.129956
Cl106	Cl	1.153197	0.464710	-0.073933
Cl107	Cl	1.271081	0.868284	-0.524382
H108	H	0.592511	1.305103	0.519619
