data_functionalizedCrystal
_audit_creation_method	'MofGen! by Chris Wilmer'
_symmetry_space_group_name_H-M	'P1'
_symmetry_Int_Tables_number	1
_symmetry_cell_setting	triclinic
loop_
_symmetry_equiv_pos_as_xyz
  x,y,z
_cell_length_a	10.968094
_cell_length_b	11.026607
_cell_length_c	9.482900
_cell_angle_alpha	78.599815
_cell_angle_beta	92.548310
_cell_angle_gamma	83.620158
loop_
_atom_site_label
_atom_site_type_symbol
_atom_site_fract_x
_atom_site_fract_y
_atom_site_fract_z
O1	O	1.656909	-0.216403	0.294166
O2	O	2.156909	0.283597	0.794166
O3	O	1.308283	-0.219100	0.206832
O4	O	1.808283	0.280900	0.706832
O5	O	1.453701	-0.039722	0.243266
O6	O	1.953701	0.460278	0.743266
O7	O	1.511490	-0.395781	0.257732
O8	O	2.011490	0.104219	0.757732
O9	O	1.424197	-0.076311	0.477666
O10	O	1.924197	0.423689	0.977666
O11	O	1.278778	-0.255689	0.441232
O12	O	1.778778	0.244311	0.941232
O13	O	1.627404	-0.252992	0.528566
O14	O	2.127404	0.247008	1.028566
Cu15	Cu	1.450397	-0.257681	0.506302
Cu16	Cu	1.950397	0.242319	1.006302
Cu17	Cu	1.485290	-0.214411	0.229096
Cu18	Cu	1.985290	0.285589	0.729096
O19	O	1.481985	-0.432370	0.492132
O20	O	1.981985	0.067630	0.992132
C21	C	1.248205	-0.234435	0.312678
C22	C	1.748205	0.265565	0.812678
C23	C	1.113146	-0.225603	0.278845
C24	C	1.613146	0.274397	0.778845
C25	C	0.898050	-0.231476	0.350209
C26	C	1.398050	0.268524	0.850209
C27	C	1.037639	-0.240616	0.385192
C28	C	1.537639	0.259384	0.885192
C29	C	1.428288	-0.012297	0.357794
C30	C	1.928288	0.487703	0.857794
C31	C	1.396509	0.123933	0.349828
C32	C	1.896509	0.623933	0.849828
C33	C	1.687482	-0.237657	0.422717
C34	C	2.187482	0.262343	0.922717
C35	C	1.822542	-0.246487	0.456541
C36	C	2.322542	0.253513	0.956541
C37	C	1.507399	-0.459795	0.377601
C38	C	2.007399	0.040205	0.877601
C39	C	1.539180	-0.596023	0.385558
C40	C	2.039180	-0.096023	0.885558
N41	N	1.425864	-0.288116	0.701275
N42	N	1.925864	0.211884	1.201275
C43	C	1.484260	0.193556	0.371808
C44	C	1.984260	0.693556	0.871808
C45	C	1.451416	0.334356	0.363575
C46	C	1.951416	0.834356	0.863575
N47	N	1.509830	-0.183967	0.034125
N48	N	2.009830	0.316033	0.534125
C49	C	1.478044	-0.223380	0.786548
C50	C	1.978044	0.276620	1.286548
C51	C	1.457643	-0.248712	0.948854
C52	C	1.957643	0.251288	1.448854
H53	H	1.076330	-0.260229	0.502133
H54	H	1.576330	0.239771	1.002133
H55	H	1.074457	-0.205985	0.161903
H56	H	1.574457	0.294015	0.661903
H57	H	1.297068	0.168566	0.324907
H58	H	1.797068	0.668566	0.824907
Br59	Br	1.577306	-0.099423	0.707877
Br60	Br	2.077306	0.400577	1.207877
Br61	Br	0.887023	-0.279171	0.651446
Br62	Br	1.387023	0.220829	1.151446
H63	H	1.397857	-0.322888	0.996000
H64	H	1.897857	0.177112	1.496000
Br65	Br	1.650011	0.119182	0.413315
Br66	Br	2.150011	0.619182	0.913315
H67	H	1.351969	0.378984	0.338653
H68	H	1.851969	0.878984	0.838653
H69	H	1.569605	-0.109782	0.986977
H70	H	2.069605	0.390218	1.486977
Br71	Br	1.326217	-0.411741	0.779851
Br72	Br	1.826217	0.088259	1.279851
Br73	Br	0.833563	-0.198721	0.155303
Br74	Br	1.333563	0.301279	0.655303
Br75	Br	1.704938	0.329613	0.427070
Br76	Br	2.204938	0.829613	0.927070
