data_functionalizedCrystal
_audit_creation_method	'MofGen! by Chris Wilmer'
_symmetry_space_group_name_H-M	'P1'
_symmetry_Int_Tables_number	1
_symmetry_cell_setting	triclinic
loop_
_symmetry_equiv_pos_as_xyz
  x,y,z
_cell_length_a	19.188933
_cell_length_b	17.666332
_cell_length_c	15.995350
_cell_angle_alpha	90.004241
_cell_angle_beta	83.318972
_cell_angle_gamma	90.007939
loop_
_atom_site_label
_atom_site_type_symbol
_atom_site_fract_x
_atom_site_fract_y
_atom_site_fract_z
O1	O	0.926415	0.062919	0.104543
O2	O	1.259748	0.396253	0.437876
O3	O	1.593082	0.729586	0.771209
O4	O	0.723140	0.062926	0.118613
O5	O	1.056473	0.396259	0.451946
O6	O	1.389806	0.729593	0.785280
O7	O	0.830334	0.062922	-0.010330
O8	O	1.163667	0.396255	0.323003
O9	O	1.497001	0.729589	0.656337
O10	O	0.819221	0.062924	0.233486
O11	O	1.152554	0.396257	0.566819
O12	O	1.485887	0.729590	0.900152
O13	O	0.830315	-0.062975	-0.010337
O14	O	1.163648	0.270358	0.322996
O15	O	1.496982	0.603692	0.656330
O16	O	0.723121	-0.062971	0.118606
O17	O	1.056454	0.270363	0.451940
O18	O	1.389788	0.603696	0.785273
O19	O	0.926396	-0.062977	0.104536
O20	O	1.259729	0.270356	0.437869
O21	O	1.593063	0.603689	0.771203
Cu22	Cu	0.824757	-0.074469	0.111570
Cu23	Cu	1.158090	0.258864	0.444904
Cu24	Cu	1.491423	0.592197	0.778237
Cu25	Cu	0.824779	0.074418	0.111578
Cu26	Cu	1.158112	0.407751	0.444912
Cu27	Cu	1.491446	0.741085	0.778245
O28	O	0.819202	-0.062973	0.233479
O29	O	1.152535	0.270360	0.566812
O30	O	1.485868	0.603694	0.900146
C31	C	0.697118	-0.000021	0.118154
C32	C	1.030451	0.333312	0.451487
C33	C	1.363785	0.666645	0.784820
C34	C	0.619610	-0.000019	0.116785
C35	C	0.952943	0.333314	0.450118
C36	C	1.286277	0.666648	0.783452
C37	C	0.066340	0.068599	0.107021
C38	C	0.399673	0.401933	0.440354
C39	C	0.733007	0.735266	0.773688
C40	C	0.139168	0.068602	0.108302
C41	C	0.472501	0.401936	0.441635
C42	C	0.805834	0.735269	0.774968
C43	C	0.175576	-0.000024	0.108942
C44	C	0.508909	0.333309	0.442276
C45	C	0.842243	0.666643	0.775609
C46	C	0.139153	-0.068658	0.108281
C47	C	0.472487	0.264675	0.441614
C48	C	0.805820	0.598009	0.774947
C49	C	0.066328	-0.068659	0.106991
C50	C	0.399661	0.264674	0.440325
C51	C	0.732995	0.598008	0.773658
N52	N	0.284715	-0.051105	0.158610
N53	N	0.618048	0.282228	0.491943
N54	N	0.951382	0.615562	0.825276
N55	N	0.353896	-0.051099	0.159836
N56	N	0.687229	0.282234	0.493170
N57	N	1.020562	0.615567	0.826503
C58	C	0.394995	-0.000025	0.112825
C59	C	0.728328	0.333308	0.446159
C60	C	1.061661	0.666642	0.779492
N61	N	0.364298	0.051055	0.064552
N62	N	0.697632	0.384388	0.397885
N63	N	1.030965	0.717722	0.731219
N64	N	0.295111	0.051052	0.063329
N65	N	0.628444	0.384385	0.396662
N66	N	0.961777	0.717718	0.729996
C67	C	0.254543	-0.000030	0.110340
C68	C	0.587876	0.333303	0.443673
C69	C	0.921210	0.666636	0.777007
C70	C	0.510377	0.068608	0.114870
C71	C	0.843711	0.401941	0.448203
C72	C	1.177044	0.735274	0.781537
C73	C	0.583207	0.068608	0.116146
C74	C	0.916540	0.401941	0.449479
C75	C	1.249873	0.735275	0.782813
C76	C	0.583190	-0.068654	0.116133
C77	C	0.916523	0.264679	0.449466
C78	C	1.249857	0.598012	0.782800
C79	C	0.510363	-0.068652	0.114849
C80	C	0.843696	0.264681	0.448182
C81	C	1.177029	0.598014	0.781516
C82	C	0.473960	-0.000019	0.114222
C83	C	0.807294	0.333314	0.447555
C84	C	1.140627	0.666647	0.780888
N85	N	0.824746	-0.179189	0.111564
N86	N	1.158080	0.154145	0.444898
N87	N	1.491413	0.487478	0.778231
C88	C	0.872227	-0.218800	0.054496
C89	C	1.205561	0.114533	0.387829
C90	C	1.538894	0.447866	0.721163
C91	C	0.872231	-0.298048	0.054492
C92	C	1.205565	0.035285	0.387825
C93	C	1.538898	0.368619	0.721159
C94	C	0.824761	-0.337681	0.111571
C95	C	1.158094	-0.004348	0.444904
C96	C	1.491428	0.328986	0.778237
C97	C	0.777271	-0.298060	0.168643
C98	C	1.110604	0.035273	0.501976
C99	C	1.443938	0.368607	0.835310
C100	C	0.777264	-0.218814	0.168640
C101	C	1.110597	0.114520	0.501973
C102	C	1.443930	0.447853	0.835307
N103	N	0.815874	-0.462099	0.185691
N104	N	1.149207	-0.128766	0.519025
N105	N	1.482540	0.204568	0.852358
N106	N	0.815885	-0.537379	0.185692
N107	N	1.149218	-0.204046	0.519025
N108	N	1.482551	0.129287	0.852358
C109	C	0.824779	-0.576445	0.111582
C110	C	1.158113	-0.243112	0.444916
C111	C	1.491446	0.090222	0.778249
N112	N	0.833676	-0.537386	0.037470
N113	N	1.167010	-0.204053	0.370803
N114	N	1.500343	0.129280	0.704137
N115	N	0.833669	-0.462099	0.037470
N116	N	1.167002	-0.128766	0.370804
N117	N	1.500335	0.204568	0.704137
C118	C	0.824763	-0.423610	0.111580
C119	C	1.158097	-0.090277	0.444913
C120	C	1.491430	0.243057	0.778247
C121	C	0.872267	-0.701986	0.054505
C122	C	1.205601	-0.368653	0.387838
C123	C	1.538934	-0.035319	0.721172
C124	C	0.872267	-0.781235	0.054500
C125	C	1.205600	-0.447902	0.387833
C126	C	1.538933	-0.114568	0.721166
C127	C	0.777310	-0.781245	0.168658
C128	C	1.110643	-0.447912	0.501992
C129	C	1.443976	-0.114579	0.835325
C130	C	0.777307	-0.701998	0.168656
C131	C	1.110641	-0.368664	0.501989
C132	C	1.443974	-0.035331	0.835323
C133	C	0.824790	-0.662373	0.111580
C134	C	1.158123	-0.329039	0.444914
C135	C	1.491456	0.004294	0.778247
C136	C	0.952418	-0.000028	0.104995
C137	C	1.285751	0.333305	0.438329
C138	C	1.619084	0.666639	0.771662
C139	C	1.029926	-0.000026	0.106364
C140	C	1.363259	0.333308	0.439697
C141	C	1.696592	0.666641	0.773030
C142	C	0.829865	-0.000025	-0.041527
C143	C	1.163198	0.333308	0.291807
C144	C	1.496532	0.666642	0.625140
C145	C	0.828488	-0.000021	-0.134472
C146	C	1.161821	0.333313	0.198861
C147	C	1.495154	0.666646	0.532195
N148	N	0.824795	0.179138	0.111578
N149	N	1.158128	0.512471	0.444911
N150	N	1.491462	0.845804	0.778245
C151	C	0.823541	-0.000023	-0.472201
C152	C	1.156874	0.333310	-0.138868
C153	C	1.490208	0.666644	0.194465
C154	C	0.747199	0.000262	-0.424488
C155	C	1.080533	0.333595	-0.091155
C156	C	1.413866	0.666928	0.242178
C157	C	0.748577	-0.000022	-0.327803
C158	C	1.081910	0.333311	0.005530
C159	C	1.415244	0.666645	0.338864
C160	C	0.825995	-0.000022	-0.304650
C161	C	1.159328	0.333312	0.028684
C162	C	1.492661	0.666645	0.362017
C163	C	0.863638	-0.071915	-0.345869
C164	C	1.196972	0.261419	-0.012535
C165	C	1.530305	0.594752	0.320798
C166	C	0.861721	-0.071975	-0.442497
C167	C	1.195054	0.261359	-0.109164
C168	C	1.528387	0.594692	0.224169
C169	C	0.863319	0.071193	-0.442854
C170	C	1.196652	0.404527	-0.109520
C171	C	1.529986	0.737860	0.223813
C172	C	0.863301	0.072143	-0.345908
C173	C	1.196634	0.405477	-0.012575
C174	C	1.529968	0.738810	0.320759
C175	C	0.827385	-0.000023	-0.209957
C176	C	1.160719	0.333310	0.123376
C177	C	1.494052	0.666644	0.456709
C178	C	0.822153	-0.000027	-0.566894
C179	C	1.155486	0.333307	-0.233561
C180	C	1.488819	0.666640	0.099773
C181	C	0.819671	-0.000025	0.264675
C182	C	1.153004	0.333309	0.598009
C183	C	1.486337	0.666642	0.931342
C184	C	0.821048	-0.000024	0.357621
C185	C	1.154381	0.333309	0.690954
C186	C	1.487715	0.666643	1.024287
H187	H	0.612855	0.124493	0.116674
H188	H	0.946188	0.457826	0.450008
H189	H	1.279522	0.791160	0.783341
Cl190	Cl	0.628955	-0.154928	0.116925
Cl191	Cl	0.962288	0.178405	0.450258
Cl192	Cl	1.295622	0.511738	0.783592
H193	H	0.168822	0.124487	0.108841
H194	H	0.502155	0.457820	0.442175
H195	H	0.835488	0.791153	0.775508
Cl196	Cl	0.184923	-0.154931	0.109082
Cl197	Cl	0.518256	0.178402	0.442416
Cl198	Cl	0.851590	0.511736	0.775749
Cl199	Cl	0.464580	-0.154929	0.114037
Cl200	Cl	0.797914	0.178404	0.447370
Cl201	Cl	1.131247	0.511738	0.780703
Cl202	Cl	0.020547	-0.154938	0.106169
Cl203	Cl	0.353880	0.178395	0.439503
Cl204	Cl	0.687213	0.511729	0.772836
Cl205	Cl	0.700097	0.079861	-0.452921
Cl206	Cl	1.033430	0.413194	-0.119588
Cl207	Cl	1.366763	0.746528	0.213746
H208	H	0.910889	-0.186540	0.008020
H209	H	1.244222	0.146793	0.341353
H210	H	1.577555	0.480127	0.674686
Cl211	Cl	0.464612	0.154887	0.114075
Cl212	Cl	0.797945	0.488221	0.447408
Cl213	Cl	1.131278	0.821554	0.780742
Cl214	Cl	0.951452	-0.076047	-0.324383
Cl215	Cl	1.284785	0.257287	0.008950
Cl216	Cl	1.618119	0.590620	0.342284
Cl217	Cl	0.948252	-0.077021	-0.492606
Cl218	Cl	1.281585	0.256312	-0.159273
Cl219	Cl	1.614919	0.589645	0.174060
Cl220	Cl	0.931928	-0.347854	-0.017257
Cl221	Cl	1.265261	-0.014520	0.316077
Cl222	Cl	1.598595	0.318813	0.649410
Cl223	Cl	0.717591	-0.347882	0.240396
Cl224	Cl	1.050924	-0.014549	0.573729
Cl225	Cl	1.384258	0.318784	0.907063
H226	H	0.738598	-0.186561	0.215113
H227	H	1.071931	0.146772	0.548446
H228	H	1.405265	0.480105	0.881779
H229	H	0.738646	-0.669744	0.215130
H230	H	1.071980	-0.336410	0.548463
H231	H	1.405313	-0.003077	0.881796
Cl232	Cl	0.823249	-0.154518	-0.301912
Cl233	Cl	1.156582	0.178815	0.031421
Cl234	Cl	1.489916	0.512149	0.364755
Cl235	Cl	0.950467	0.078852	-0.322506
Cl236	Cl	1.283800	0.412185	0.010828
Cl237	Cl	1.617133	0.745518	0.344161
Cl238	Cl	0.931956	-0.652170	-0.017251
Cl239	Cl	1.265289	-0.318837	0.316082
Cl240	Cl	1.598622	0.014496	0.649415
H241	H	0.835779	0.125328	-0.318556
H242	H	1.169112	0.458661	0.014777
H243	H	1.502445	0.791995	0.348111
Cl244	Cl	0.931958	-0.831036	-0.017254
Cl245	Cl	1.265291	-0.497702	0.316079
Cl246	Cl	1.598625	-0.164369	0.649413
Cl247	Cl	0.717627	-0.831064	0.240408
Cl248	Cl	1.050961	-0.497731	0.573741
Cl249	Cl	1.384294	-0.164397	0.907075
H250	H	0.718986	0.051514	-0.299270
H251	H	1.052319	0.384847	0.034063
H252	H	1.385652	0.718180	0.367397
Cl253	Cl	0.700155	-0.078656	-0.454929
Cl254	Cl	1.033489	0.254677	-0.121596
Cl255	Cl	1.366822	0.588010	0.211738
Cl256	Cl	0.950220	0.071943	-0.492209
Cl257	Cl	1.283553	0.405276	-0.158875
Cl258	Cl	1.616886	0.738609	0.174458
H259	H	0.718771	-0.051644	-0.299832
H260	H	1.052105	0.281689	0.033501
H261	H	1.385438	0.615023	0.366834
H262	H	0.834255	-0.125716	-0.460701
H263	H	1.167588	0.207617	-0.127368
H264	H	1.500922	0.540950	0.205965
H265	H	0.838367	0.125684	-0.463299
H266	H	1.171701	0.459017	-0.129966
H267	H	1.505034	0.792351	0.203368
H268	H	0.036706	0.124486	0.106507
H269	H	0.370039	0.457819	0.439840
H270	H	0.703373	0.791152	0.773173
