data_functionalizedCrystal
_audit_creation_method	'MofGen! by Chris Wilmer'
_symmetry_space_group_name_H-M	'P1'
_symmetry_Int_Tables_number	1
_symmetry_cell_setting	triclinic
loop_
_symmetry_equiv_pos_as_xyz
  x,y,z
_cell_length_a	14.044220
_cell_length_b	16.109302
_cell_length_c	15.186229
_cell_angle_alpha	89.994701
_cell_angle_beta	90.002599
_cell_angle_gamma	91.674671
loop_
_atom_site_label
_atom_site_type_symbol
_atom_site_fract_x
_atom_site_fract_y
_atom_site_fract_z
O1	O	-0.121838	1.112195	-0.073267
O2	O	0.378162	1.612195	0.426733
O3	O	-0.136999	0.871261	-0.073260
O4	O	0.363001	1.371261	0.426740
O5	O	0.008565	0.988112	-0.073259
O6	O	0.508565	1.488112	0.426741
O7	O	-0.267402	0.995345	-0.073267
O8	O	0.232598	1.495345	0.426733
O9	O	0.008567	0.988103	0.073198
O10	O	0.508567	1.488103	0.573198
O11	O	-0.136997	0.871253	0.073198
O12	O	0.363003	1.371253	0.573198
O13	O	-0.121836	1.112186	0.073191
O14	O	0.378164	1.612186	0.573191
Zn15	Zn	-0.129416	0.991718	0.096447
Zn16	Zn	0.370584	1.491718	0.596447
Zn17	Zn	-0.129419	0.991730	-0.096516
Zn18	Zn	0.370581	1.491730	0.403484
O19	O	-0.267400	0.995336	0.073190
O20	O	0.232600	1.495336	0.573190
C21	C	-0.136384	0.840236	-0.000030
C22	C	0.363616	1.340236	0.499970
C23	C	-0.134542	0.747804	-0.000027
C24	C	0.365458	1.247804	0.499973
C25	C	-0.130283	0.535142	0.079798
C26	C	0.369717	1.035142	0.579798
C27	C	-0.128542	0.448292	0.079795
C28	C	0.371458	0.948292	0.579795
C29	C	-0.128549	0.448312	-0.079881
C30	C	0.371451	0.948312	0.420119
C31	C	-0.130283	0.535160	-0.079877
C32	C	0.369717	1.035160	0.420123
C33	C	-0.131155	0.578573	-0.000035
C34	C	0.368845	1.078573	0.499965
C35	C	-0.127680	0.404875	-0.000042
C36	C	0.372320	0.904875	0.499958
C37	C	-0.125793	0.310709	-0.000046
C38	C	0.374207	0.810709	0.499954
C39	C	-0.133040	0.672745	-0.000031
C40	C	0.366960	1.172745	0.499969
C41	C	-0.302714	0.998506	-0.000040
C42	C	0.197286	1.498506	0.499960
C43	C	-0.407937	1.007950	-0.000043
C44	C	0.092063	1.507950	0.499957
C45	C	-0.600593	1.025215	-0.000040
C46	C	-0.100593	1.525215	0.499960
C47	C	-0.658247	0.958236	-0.000037
C48	C	-0.158247	1.458236	0.499963
C49	C	-0.765448	0.967843	-0.000035
C50	C	-0.265448	1.467843	0.499965
C51	C	-0.493383	1.015610	-0.000042
C52	C	0.006617	1.515610	0.499958
C53	C	0.043879	0.984941	-0.000031
C54	C	0.543879	1.484941	0.499969
C55	C	0.149102	0.975498	-0.000034
C56	C	0.649102	1.475498	0.499966
C57	C	-0.122451	1.143211	-0.000041
C58	C	0.377549	1.643211	0.499959
C59	C	-0.124293	1.235644	-0.000049
C60	C	0.375707	1.735644	0.499951
N61	N	-0.129414	0.991716	0.228140
N62	N	0.370586	1.491716	0.728140
N63	N	-0.129414	0.991737	-0.228209
N64	N	0.370586	1.491737	0.271791
C65	C	-0.064980	1.043479	0.453863
C66	C	0.435020	1.543479	0.953863
C67	C	-0.064977	1.043481	0.546053
C68	C	0.435023	1.543481	1.046053
C69	C	-0.193851	0.939969	0.546061
C70	C	0.306149	1.439969	1.046061
C71	C	-0.193848	0.939963	0.453873
C72	C	0.306152	1.439963	0.953873
C73	C	-0.129413	0.991723	0.407777
C74	C	0.370587	1.491723	0.907777
C75	C	-0.129414	0.991731	0.592154
C76	C	0.370586	1.491731	1.092154
C77	C	-0.129412	0.991733	0.692110
C78	C	0.370588	1.491733	1.192110
C79	C	-0.129414	0.991719	0.307814
C80	C	0.370586	1.491719	0.807814
H81	H	-0.130993	0.570485	0.144810
H82	H	0.369007	1.070485	0.644810
H83	H	-0.627096	0.893678	-0.000035
H84	H	-0.127096	1.393678	0.499965
H85	H	-0.127833	0.412934	0.144803
H86	H	0.372167	0.912934	0.644803
C87	C	-0.131237	0.582938	-0.167704
C88	C	0.368763	1.082938	0.332296
N89	N	-0.131951	0.618924	-0.233852
N90	N	0.368049	1.118924	0.266148
C91	C	0.005908	1.100408	0.403160
C92	C	0.505908	1.600408	0.903160
N93	N	0.059305	1.143286	0.364973
N94	N	0.559305	1.643286	0.864973
H95	H	-0.631743	1.089768	-0.000038
H96	H	-0.131743	1.589768	0.499962
C97	C	0.005913	1.100410	0.596744
C98	C	0.505913	1.600410	1.096744
N99	N	0.059314	1.143288	0.634923
N100	N	0.559314	1.643288	1.134923
C101	C	-0.264723	0.883035	0.596776
C102	C	0.235277	1.383035	1.096776
N103	N	-0.318106	0.840151	0.634974
N104	N	0.181894	1.340151	1.134974
H105	H	-0.246318	0.897813	0.416347
H106	H	0.253682	1.397813	0.916347
H107	H	-0.127841	0.412955	-0.144885
H108	H	0.372159	0.912955	0.355115
