data_functionalizedCrystal
_audit_creation_method	'MofGen! by Chris Wilmer'
_symmetry_space_group_name_H-M	'P1'
_symmetry_Int_Tables_number	1
_symmetry_cell_setting	triclinic
loop_
_symmetry_equiv_pos_as_xyz
  x,y,z
_cell_length_a	6.817900
_cell_length_b	9.170285
_cell_length_c	17.110486
_cell_angle_alpha	87.217450
_cell_angle_beta	99.060439
_cell_angle_gamma	112.460155
loop_
_atom_site_label
_atom_site_type_symbol
_atom_site_fract_x
_atom_site_fract_y
_atom_site_fract_z
V1	V	-4.016542	-0.215395	-0.231681
O2	O	-3.963380	0.010829	-0.242780
O3	O	-4.007436	-0.427551	-0.215181
O4	O	-3.945751	-0.211872	-0.339530
O5	O	-4.025492	-0.206344	-0.117569
V6	V	-4.497980	-0.188361	-0.219844
O7	O	-4.282375	-0.274696	-0.257646
O8	O	-4.682344	-0.129059	-0.193879
O9	O	-4.283880	0.023796	-0.236345
O10	O	-4.668538	-0.414584	-0.208746
O11	O	-4.606427	-0.197411	-0.333956
O12	O	-4.345564	-0.191884	-0.111995
C13	C	-3.862720	-0.479277	-0.207677
C14	C	-3.936412	-0.652717	-0.194905
C15	C	-3.784034	-0.204154	-0.366296
C16	C	-3.807699	-0.202678	-0.454366
C17	C	-4.001545	-0.209771	-0.499228
C18	C	-4.023768	-0.208382	-0.581978
C19	C	-3.852147	-0.199912	-0.619864
C20	C	-3.658283	-0.192814	-0.574996
C21	C	-3.636057	-0.194191	-0.492247
C22	C	-3.910108	-0.195354	-0.869538
C23	C	-3.932351	-0.193982	-0.952292
C24	C	-4.297834	-0.209547	-0.959269
C25	C	-4.275596	-0.210933	-0.876519
C26	C	-4.081731	-0.203827	-0.831657
C27	C	-3.874861	-0.198498	-0.704448
C28	C	-4.059015	-0.205230	-0.747075
C29	C	-4.091939	0.075514	-0.243846
C30	C	-3.997485	0.248951	-0.256623
C31	C	-4.170625	-0.199606	-0.085224
C32	C	-4.126198	-0.201075	0.002845
H33	H	-3.993332	-0.702541	-0.319215
H34	H	-4.415351	-0.217829	-0.845678
C35	C	-3.942026	-0.718251	-0.110339
N36	N	-3.946266	-0.767614	-0.046645
C37	C	-4.190348	-0.219087	-0.457561
N38	N	-4.332558	-0.226096	-0.426180
H39	H	-4.181612	-0.214149	-0.618502
C40	C	-3.685990	-0.188970	-0.746129
N41	N	-3.543698	-0.181711	-0.777526
H42	H	-3.478192	-0.188377	-0.455720
C43	C	-4.511066	-0.217344	-1.008623
N44	N	-4.671676	-0.223207	-1.045797
C45	C	-3.469424	-0.183331	-0.616672
N46	N	-3.327147	-0.176134	-0.648061
H47	H	-3.792583	-0.187080	-0.983136
H48	H	-3.752279	-0.189623	-0.833022
H49	H	-4.198744	-0.212122	-0.716224
