data_functionalizedCrystal
_audit_creation_method	'MofGen! by Chris Wilmer'
_symmetry_space_group_name_H-M	'P1'
_symmetry_Int_Tables_number	1
_symmetry_cell_setting	triclinic
loop_
_symmetry_equiv_pos_as_xyz
  x,y,z
_cell_length_a	6.817900
_cell_length_b	23.752930
_cell_length_c	16.418055
_cell_angle_alpha	96.350652
_cell_angle_beta	103.389726
_cell_angle_gamma	100.066047
loop_
_atom_site_label
_atom_site_type_symbol
_atom_site_fract_x
_atom_site_fract_y
_atom_site_fract_z
V1	V	-3.988288	-0.178593	-0.116991
O2	O	-3.977051	-0.174989	0.004486
O3	O	-3.939571	-0.177569	-0.230880
O4	O	-3.923335	-0.256395	-0.115690
O5	O	-3.993399	-0.095618	-0.111502
V6	V	-4.474102	-0.168645	-0.102402
O7	O	-4.244521	-0.200416	-0.148993
O8	O	-4.668066	-0.146822	-0.070400
O9	O	-4.299613	-0.169670	0.011488
O10	O	-4.602736	-0.172249	-0.223878
O11	O	-4.586387	-0.251621	-0.107891
O12	O	-4.315849	-0.090844	-0.103703
C13	C	-3.785030	-0.174802	-0.258629
C14	C	-3.826375	-0.174482	-0.351738
C15	C	-4.141793	-0.176341	-0.657736
C16	C	-4.102959	-0.176632	-0.570248
C17	C	-3.739958	-0.170898	-0.561668
C18	C	-3.778791	-0.170603	-0.649153
C19	C	-3.979715	-0.173327	-0.697186
C20	C	-3.902048	-0.173913	-0.522212
C21	C	-3.859941	-0.174229	-0.427354
C22	C	-4.021825	-0.173011	-0.792050
C23	C	-3.764318	-0.275352	-0.111691
C24	C	-3.792493	-0.338956	-0.111381
C25	C	-4.148861	-0.736284	-0.113579
C26	C	-4.175357	-0.796046	-0.113277
O27	O	-4.343378	-0.829436	-0.116662
N28	N	-4.007133	-0.823015	-0.108932
C29	C	-3.812396	-0.790217	-0.104881
O30	O	-3.671741	-0.818644	-0.101156
C31	C	-3.785900	-0.730456	-0.105177
C32	C	-3.954141	-0.703491	-0.109531
C33	C	-4.317088	-0.709319	-0.117932
C34	C	-4.290594	-0.649561	-0.118235
C35	C	-4.095873	-0.616769	-0.114187
C36	C	-3.927647	-0.643734	-0.109835
C37	C	-3.591162	-0.697659	-0.101120
C38	C	-3.564679	-0.637893	-0.101416
C39	C	-3.732921	-0.610929	-0.105769
C40	C	-3.706433	-0.551183	-0.106090
N41	N	-3.874657	-0.524214	-0.110435
C42	C	-4.069377	-0.557007	-0.114483
C43	C	-3.868053	-0.915721	-0.104257
C44	C	-3.894550	-0.975482	-0.103967
C45	C	-4.257509	-0.981306	-0.112361
C46	C	-4.231013	-0.921545	-0.112658
C47	C	-4.036277	-0.888752	-0.108602
C48	C	-4.013724	-0.431511	-0.115122
C49	C	-3.987213	-0.371748	-0.115429
C50	C	-3.624255	-0.365929	-0.107030
C51	C	-3.650765	-0.425687	-0.106727
C52	C	-3.845513	-0.458477	-0.110771
O53	O	-3.538472	-0.517756	-0.102703
O54	O	-4.209997	-0.528572	-0.118196
C55	C	-4.117496	-0.172435	0.039231
C56	C	-4.055389	-0.172758	0.132340
C57	C	-4.138208	-0.071884	-0.107705
C58	C	-4.089272	-0.008279	-0.108011
H59	H	-4.124226	-0.349797	-0.118977
H60	H	-4.305395	-0.178558	-0.696841
H61	H	-4.234942	-0.179084	-0.538131
H62	H	-4.172303	-0.458202	-0.118416
H63	H	-3.646797	-0.168148	-0.681274
Br64	Br	-3.422444	-0.462285	-0.100834
H65	H	-3.757554	-0.997432	-0.100434
H66	H	-4.416065	-1.008017	-0.115657
H67	H	-4.427595	-0.627612	-0.121777
H68	H	-3.576368	-0.168681	-0.522550
Br69	Br	-3.300377	-0.593391	-0.095903
Br70	Br	-4.581381	-0.753813	-0.123429
Br71	Br	-4.459351	-0.884956	-0.118566
H72	H	-3.709470	-0.889024	-0.100953
H73	H	-3.454156	-0.719603	-0.097575
Br74	Br	-3.360001	-0.321414	-0.101540
