data_functionalizedCrystal
_audit_creation_method	'MofGen! by Chris Wilmer'
_symmetry_space_group_name_H-M	'P1'
_symmetry_Int_Tables_number	1
_symmetry_cell_setting	triclinic
loop_
_symmetry_equiv_pos_as_xyz
  x,y,z
_cell_length_a	11.792241
_cell_length_b	11.792254
_cell_length_c	16.776229
_cell_angle_alpha	89.993192
_cell_angle_beta	89.997077
_cell_angle_gamma	84.196007
loop_
_atom_site_label
_atom_site_type_symbol
_atom_site_fract_x
_atom_site_fract_y
_atom_site_fract_z
O1	O	1.506920	0.155570	-0.066211
O2	O	1.840253	0.488903	0.267122
O3	O	2.173587	0.822236	0.600455
O4	O	1.176580	0.171602	-0.066230
O5	O	1.509913	0.504936	0.267104
O6	O	1.843246	0.838269	0.600437
O7	O	1.349759	-0.001584	-0.066214
O8	O	1.683092	0.331750	0.267119
O9	O	2.016425	0.665083	0.600452
O10	O	1.333741	0.328756	-0.066227
O11	O	1.667074	0.662089	0.267107
O12	O	2.000407	0.995422	0.600440
O13	O	1.349735	-0.001594	0.066362
O14	O	1.683069	0.331739	0.399695
O15	O	2.016402	0.665072	0.733029
O16	O	1.176556	0.171592	0.066347
O17	O	1.509890	0.504925	0.399680
O18	O	1.843223	0.838258	0.733013
O19	O	1.506897	0.155559	0.066365
O20	O	1.840230	0.488892	0.399699
O21	O	2.173563	0.822225	0.733032
Zn22	Zn	1.341723	0.163573	0.087405
Zn23	Zn	1.675056	0.496907	0.420739
Zn24	Zn	2.008389	0.830240	0.754072
Zn25	Zn	1.341753	0.163588	-0.087270
Zn26	Zn	1.675087	0.496921	0.246063
Zn27	Zn	2.008420	0.830254	0.579397
O28	O	1.333718	0.328745	0.066350
O29	O	1.667051	0.662078	0.399683
O30	O	2.000384	0.995411	0.733017
C31	C	1.348738	-0.043880	0.000074
C32	C	1.682071	0.289454	0.333407
C33	C	2.015405	0.622787	0.666740
C34	C	1.345718	-0.169893	0.000073
C35	C	1.679051	0.163441	0.333406
C36	C	2.012385	0.496774	0.666739
C37	C	1.134277	0.170590	0.000056
C38	C	1.467610	0.503923	0.333389
C39	C	1.800944	0.837257	0.666723
C40	C	1.008263	0.167576	0.000049
C41	C	1.341596	0.500909	0.333382
C42	C	1.674930	0.834242	0.666716
C43	C	1.343264	-0.272229	0.000070
C44	C	1.676597	0.061104	0.333403
C45	C	2.009931	0.394437	0.666736
C46	C	1.340196	-0.400616	0.000062
C47	C	1.673529	-0.067283	0.333396
C48	C	2.006862	0.266051	0.666729
C49	C	0.777551	0.162033	0.000072
C50	C	1.110884	0.495366	0.333406
C51	C	1.444217	0.828699	0.666739
C52	C	0.905936	0.165112	0.000060
C53	C	1.239269	0.498446	0.333393
C54	C	1.572603	0.831779	0.666726
C55	C	1.549199	0.156571	0.000078
C56	C	1.882533	0.489905	0.333411
C57	C	2.215866	0.823238	0.666744
C58	C	1.675213	0.159586	0.000079
C59	C	2.008546	0.492919	0.333413
C60	C	2.341880	0.826252	0.666746
C61	C	1.334738	0.371041	0.000060
C62	C	1.668071	0.704374	0.333394
C63	C	2.001405	1.037708	0.666727
C64	C	1.337758	0.497054	0.000056
C65	C	1.671092	0.830387	0.333389
C66	C	2.004425	1.163721	0.666723
N67	N	1.341710	0.163563	0.206617
N68	N	1.675044	0.496896	0.539950
N69	N	2.008377	0.830230	0.873283
N70	N	1.341775	0.163589	-0.206481
N71	N	1.675108	0.496923	0.126852
N72	N	2.008442	0.830256	0.460186
C73	C	1.418418	0.086908	0.248341
C74	C	1.751751	0.420241	0.581674
C75	C	2.085084	0.753575	0.915007
C76	C	1.418424	0.086907	0.331793
C77	C	1.751757	0.420241	0.665126
C78	C	2.085091	0.753574	0.998459
C79	C	1.341727	0.163568	0.373520
C80	C	1.675061	0.496901	0.706853
C81	C	2.008394	0.830234	1.040186
C82	C	1.265012	0.240226	0.331790
C83	C	1.598345	0.573559	0.665123
C84	C	1.931678	0.906893	0.998456
C85	C	1.265001	0.240221	0.248339
C86	C	1.598334	0.573554	0.581672
C87	C	1.931668	0.906887	0.915006
C88	C	1.265053	0.240249	0.668337
C89	C	1.598386	0.573582	1.001670
C90	C	1.931720	0.906915	1.335004
C91	C	1.265072	0.240251	0.751793
C92	C	1.598405	0.573584	1.085127
C93	C	1.931739	0.906917	1.418460
C94	C	1.418476	0.086935	0.751791
C95	C	1.751809	0.420269	1.085124
C96	C	2.085143	0.753602	1.418457
C97	C	1.418465	0.086930	0.668340
C98	C	1.751798	0.420263	1.001673
C99	C	2.085132	0.753596	1.335007
C100	C	1.341746	0.163584	0.626617
C101	C	1.675079	0.496917	0.959951
C102	C	2.008413	0.830250	1.293284
C103	C	1.341739	0.163582	0.536129
C104	C	1.675072	0.496916	0.869462
C105	C	2.008405	0.830249	1.202796
C106	C	1.341739	0.163575	0.464006
C107	C	1.675073	0.496909	0.797340
C108	C	2.008406	0.830242	1.130673
H109	H	1.480877	0.024487	0.214372
H110	H	1.814211	0.357821	0.547705
H111	H	2.147544	0.691154	0.881039
C112	C	1.180808	0.324719	0.622453
C113	C	1.514141	0.658052	0.955786
C114	C	1.847475	0.991385	1.289120
N115	N	1.117403	0.388398	0.587891
N116	N	1.450737	0.721732	0.921224
N117	N	1.784070	1.055065	1.254557
H118	H	1.202558	0.302641	0.365769
H119	H	1.535892	0.635974	0.699102
H120	H	1.869225	0.969307	1.032435
H121	H	1.480884	0.024488	0.365764
H122	H	1.814217	0.357822	0.699097
H123	H	2.147551	0.691155	1.032431
C124	C	1.502835	0.002595	0.622445
C125	C	1.836168	0.335929	0.955778
C126	C	2.169501	0.669262	1.289112
N127	N	1.566379	-0.060932	0.587878
N128	N	1.899713	0.272401	0.921212
N129	N	2.233046	0.605735	1.254545
C130	C	1.502860	0.002603	0.797693
C131	C	1.836193	0.335937	1.131026
C132	C	2.169526	0.669270	1.464359
N133	N	1.566416	-0.060913	0.832265
N134	N	1.899750	0.272420	1.165598
N135	N	2.233083	0.605754	1.498932
H136	H	1.202612	0.302679	0.785766
H137	H	1.535946	0.636012	1.119099
H138	H	1.869279	0.969345	1.452433
H139	H	1.202537	0.302639	0.214368
H140	H	1.535870	0.635973	0.547702
H141	H	1.869203	0.969306	0.881035
