data_functionalizedCrystal
_audit_creation_method	'MofGen! by Chris Wilmer'
_symmetry_space_group_name_H-M	'P1'
_symmetry_Int_Tables_number	1
_symmetry_cell_setting	triclinic
loop_
_symmetry_equiv_pos_as_xyz
  x,y,z
_cell_length_a	6.394989
_cell_length_b	9.065215
_cell_length_c	7.540329
_cell_angle_alpha	89.997574
_cell_angle_beta	90.000635
_cell_angle_gamma	94.243796
loop_
_atom_site_label
_atom_site_type_symbol
_atom_site_fract_x
_atom_site_fract_y
_atom_site_fract_z
O1	O	-0.306345	1.963206	-0.147449
O2	O	0.193655	2.463206	0.352551
O3	O	-0.331481	1.534151	-0.147456
O4	O	0.168519	2.034151	0.352544
O5	O	-0.014964	1.754768	-0.147454
O6	O	0.485036	2.254768	0.352546
O7	O	-0.622862	1.742588	-0.147451
O8	O	-0.122862	2.242588	0.352549
O9	O	-0.014960	1.754755	0.147511
O10	O	0.485040	2.254755	0.647511
O11	O	-0.331477	1.534137	0.147509
O12	O	0.168523	2.034137	0.647509
O13	O	-0.306341	1.963192	0.147516
O14	O	0.193659	2.463192	0.647516
Cu15	Cu	-0.318909	1.748664	0.174445
Cu16	Cu	0.181091	2.248664	0.674445
Cu17	Cu	-0.318913	1.748680	-0.174385
Cu18	Cu	0.181087	2.248680	0.325615
O19	O	-0.622858	1.742575	0.147514
O20	O	-0.122858	2.242575	0.647514
C21	C	-0.329065	1.479135	0.000026
C22	C	0.170935	1.979135	0.500026
C23	C	-0.321846	1.315226	0.000022
C24	C	0.178154	1.815226	0.500022
C25	C	0.062905	1.752354	0.000022
C26	C	0.562905	2.252354	0.500022
C27	C	0.299279	1.744993	0.000020
C28	C	0.799279	2.244993	0.500020
C29	C	-0.308757	2.018208	0.000031
C30	C	0.191243	2.518208	0.500031
C31	C	-0.315976	2.182117	0.000022
C32	C	0.184024	2.682117	0.500022
N33	N	-0.318904	1.748663	0.419794
N34	N	0.181096	2.248663	0.919794
N35	N	-0.318902	1.748692	-0.419734
N36	N	0.181098	2.248692	0.080266
