data_functionalizedCrystal
_audit_creation_method	'MofGen! by Chris Wilmer'
_symmetry_space_group_name_H-M	'P1'
_symmetry_Int_Tables_number	1
_symmetry_cell_setting	triclinic
loop_
_symmetry_equiv_pos_as_xyz
  x,y,z
_cell_length_a	11.169417
_cell_length_b	18.101389
_cell_length_c	18.101395
_cell_angle_alpha	89.980315
_cell_angle_beta	90.032830
_cell_angle_gamma	89.984344
loop_
_atom_site_label
_atom_site_type_symbol
_atom_site_fract_x
_atom_site_fract_y
_atom_site_fract_z
Zn1	Zn	1.834733	-0.418661	-0.294890
Zn2	Zn	2.334733	0.081339	0.205110
Zn3	Zn	1.834561	-0.294817	-0.418716
Zn4	Zn	2.334561	0.205183	0.081284
Zn5	Zn	1.634033	-0.294841	-0.294894
Zn6	Zn	2.134033	0.205159	0.205106
Zn7	Zn	1.633950	-0.418624	-0.418696
Zn8	Zn	2.133950	0.081376	0.081304
O9	O	1.734319	-0.356736	-0.356799
O10	O	2.234319	0.143264	0.143201
O11	O	2.002660	-0.402238	-0.311322
O12	O	2.502660	0.097762	0.188678
O13	O	1.807923	-0.191187	-0.402301
O14	O	2.307923	0.308813	0.097699
O15	O	1.660763	-0.311291	-0.191261
O16	O	2.160763	0.188709	0.308739
O17	O	2.002533	-0.311250	-0.402296
O18	O	2.502533	0.188750	0.097704
O19	O	1.808216	-0.402261	-0.191258
O20	O	2.308216	0.097739	0.308742
O21	O	1.660596	-0.191205	-0.311330
O22	O	2.160596	0.308795	0.188670
O23	O	1.466072	-0.311256	-0.311311
O24	O	1.966072	0.188744	0.188689
O25	O	1.660622	-0.522262	-0.402263
O26	O	2.160622	-0.022262	0.097737
O27	O	1.466012	-0.402198	-0.402267
O28	O	1.966012	0.097802	0.097733
O29	O	1.808136	-0.522289	-0.311303
O30	O	2.308136	-0.022289	0.188697
O31	O	1.807843	-0.311214	-0.522346
O32	O	2.307843	0.188786	-0.022346
O33	O	1.660455	-0.402175	-0.522332
O34	O	2.160455	0.097825	-0.022332
C35	C	1.422495	-0.356726	-0.356788
C36	C	1.922495	0.143274	0.143212
C37	C	1.289095	-0.356740	-0.356801
C38	C	1.789095	0.143260	0.143199
C39	C	1.734389	-0.549898	-0.356780
C40	C	2.234389	-0.049898	0.143220
C41	C	1.734418	-0.632212	-0.356772
C42	C	2.234418	-0.132212	0.143228
C43	C	1.734488	-0.931303	-0.356633
C44	C	2.234488	-0.431303	0.143367
C45	C	1.641357	-0.899961	-0.413681
C46	C	2.141357	-0.399961	0.086319
C47	C	1.641608	-0.814342	-0.413946
C48	C	2.141608	-0.314342	0.086054
C49	C	1.734452	-0.782920	-0.356702
C50	C	2.234452	-0.282920	0.143298
C51	C	1.860901	-0.814014	-0.377885
C52	C	2.360901	-0.314014	0.122115
C53	C	1.860383	-0.899659	-0.378260
C54	C	2.360383	-0.399659	0.121740
C55	C	1.702270	-0.899732	-0.278276
C56	C	2.202270	-0.399732	0.221724
C57	C	1.699456	-0.814081	-0.278729
C58	C	2.199456	-0.314081	0.221271
C59	C	1.734440	-0.699061	-0.356740
C60	C	2.234440	-0.199061	0.143260
C61	C	1.734509	-1.015162	-0.356598
C62	C	2.234509	-0.515162	0.143402
C63	C	2.047362	-0.356746	-0.356811
C64	C	2.547362	0.143254	0.143189
C65	C	2.180762	-0.356750	-0.356816
C66	C	2.680762	0.143250	0.143184
C67	C	1.734154	-0.356704	-0.549210
C68	C	2.234154	0.143296	-0.049210
C69	C	1.734193	-0.356716	-0.631524
C70	C	2.234193	0.143284	-0.131524
C71	C	1.734319	-0.164325	-0.356764
C72	C	2.234319	0.335675	0.143236
C73	C	1.734522	-0.082011	-0.356564
C74	C	2.234522	0.417989	0.143436
C75	C	1.734331	-0.356745	-0.782232
C76	C	2.234331	0.143255	-0.282232
C77	C	1.641551	-0.413931	-0.813608
C78	C	2.141551	0.086069	-0.313608
C79	C	1.641901	-0.414172	-0.899226
C80	C	2.141901	0.085828	-0.399226
C81	C	1.734465	-0.356774	-0.930615
C82	C	2.234465	0.143226	-0.430615
C83	C	1.860995	-0.377765	-0.899434
C84	C	2.360995	0.122235	-0.399434
C85	C	1.860380	-0.378164	-0.813789
C86	C	2.360380	0.121836	-0.313789
C87	C	1.701716	-0.278431	-0.813856
C88	C	2.201716	0.221569	-0.313856
C89	C	1.699002	-0.278865	-0.899508
C90	C	2.199002	0.221135	-0.399508
C91	C	1.734548	-0.356789	-1.014474
C92	C	2.234548	0.143211	-0.514474
C93	C	1.734256	-0.356732	-0.698373
C94	C	2.234256	0.143268	-0.198373
C95	C	1.734518	-0.356783	-0.163637
C96	C	2.234518	0.143217	0.336363
C97	C	1.734602	-0.356804	-0.081323
C98	C	2.234602	0.143196	0.418677
H99	H	1.547841	-0.793319	-0.400690
H100	H	2.047841	-0.293319	0.099310
H101	H	1.662904	-0.471630	-0.792048
H102	H	2.162904	0.028370	-0.292048
H103	H	1.663593	-0.472203	-0.919674
H104	H	2.163593	0.027797	-0.419674
H105	H	1.548088	-0.401052	-0.920313
H106	H	2.048088	0.098948	-0.420313
F107	F	1.577287	-0.258168	-0.926154
F108	F	2.077287	0.241832	-0.426154
H109	H	1.547403	-0.400959	-0.793086
H110	H	2.047403	0.099041	-0.293086
F111	F	1.954038	-0.787415	-0.325283
F112	F	2.454038	-0.287415	0.174717
H113	H	1.887696	-0.919638	-0.435540
H114	H	2.387696	-0.419638	0.064460
F115	F	1.897223	-0.785984	-0.451959
F116	F	2.397223	-0.285984	0.048041
F117	F	1.669467	-0.787563	-0.489854
F118	F	2.169467	-0.287563	0.010146
H119	H	1.887987	-0.435406	-0.793769
H120	H	2.387987	0.064594	-0.293769
F121	F	1.953832	-0.326071	-0.786649
F122	F	2.453832	0.173929	-0.286649
H123	H	1.611666	-0.921327	-0.258977
H124	H	2.111666	-0.421327	0.241023
H125	H	1.932049	-0.337402	-0.919759
H126	H	2.432049	0.162598	-0.419759
H127	H	1.761654	-0.233999	-0.920884
H128	H	2.261654	0.266001	-0.420884
H129	H	1.606401	-0.793758	-0.262755
H130	H	2.106401	-0.293758	0.237245
H131	H	1.932124	-0.920393	-0.338512
H132	H	2.432124	-0.420393	0.161488
F133	F	1.781658	-0.786133	-0.220224
F134	F	2.281658	-0.286133	0.279776
F135	F	1.897757	-0.451774	-0.927410
F136	F	2.397757	0.048226	-0.427410
F137	F	1.583118	-0.253400	-0.785716
F138	F	2.083118	0.246600	-0.285716
F139	F	1.790039	-0.222743	-0.787331
F140	F	2.290039	0.277257	-0.287331
F141	F	1.518422	-0.926872	-0.396530
F142	F	2.018422	-0.426872	0.103470
F143	F	1.668826	-0.928134	-0.489126
F144	F	2.168826	-0.428134	0.010874
H145	H	1.770102	-0.920002	-0.235773
H146	H	2.270102	-0.420002	0.264227
