data_functionalizedCrystal
_audit_creation_method	'MofGen! by Chris Wilmer'
_symmetry_space_group_name_H-M	'P1'
_symmetry_Int_Tables_number	1
_symmetry_cell_setting	triclinic
loop_
_symmetry_equiv_pos_as_xyz
  x,y,z
_cell_length_a	21.395362
_cell_length_b	21.295417
_cell_length_c	21.395355
_cell_angle_alpha	89.978549
_cell_angle_beta	89.956060
_cell_angle_gamma	90.046383
loop_
_atom_site_label
_atom_site_type_symbol
_atom_site_fract_x
_atom_site_fract_y
_atom_site_fract_z
Zn1	Zn	0.957860	-0.250415	-0.354573
Zn2	Zn	1.207860	-0.000415	-0.104573
Zn3	Zn	1.457860	0.249585	0.145427
Zn4	Zn	1.707860	0.499585	0.395427
Zn5	Zn	0.957763	-0.355667	-0.249790
Zn6	Zn	1.207763	-0.105667	0.000210
Zn7	Zn	1.457763	0.144333	0.250210
Zn8	Zn	1.707763	0.394333	0.500210
Zn9	Zn	0.853075	-0.250445	-0.249774
Zn10	Zn	1.103075	-0.000445	0.000226
Zn11	Zn	1.353075	0.249555	0.250226
Zn12	Zn	1.603075	0.499555	0.500226
Zn13	Zn	0.853045	-0.355680	-0.354495
Zn14	Zn	1.103045	-0.105680	-0.104495
Zn15	Zn	1.353045	0.144320	0.145505
Zn16	Zn	1.603045	0.394320	0.395505
O17	O	0.905436	-0.303052	-0.302158
O18	O	1.155436	-0.053052	-0.052158
O19	O	1.405436	0.196948	0.197842
O20	O	1.655436	0.446948	0.447842
O21	O	1.045525	-0.264359	-0.340713
O22	O	1.295525	-0.014359	-0.090713
O23	O	1.545525	0.235641	0.159287
O24	O	1.795525	0.485641	0.409287
O25	O	0.943848	-0.341716	-0.162110
O26	O	1.193848	-0.091716	0.087890
O27	O	1.443848	0.158284	0.337890
O28	O	1.693848	0.408284	0.587890
O29	O	0.867029	-0.162351	-0.263702
O30	O	1.117029	0.087649	-0.013702
O31	O	1.367029	0.337649	0.236298
O32	O	1.617029	0.587649	0.486298
O33	O	1.045454	-0.341687	-0.263729
O34	O	1.295454	-0.091687	-0.013729
O35	O	1.545454	0.158313	0.236271
O36	O	1.795454	0.408313	0.486271
O37	O	0.944014	-0.162330	-0.340697
O38	O	1.194014	0.087670	-0.090697
O39	O	1.444014	0.337670	0.159303
O40	O	1.694014	0.587670	0.409303
O41	O	0.866934	-0.264409	-0.162098
O42	O	1.116934	-0.014409	0.087902
O43	O	1.366934	0.235591	0.337902
O44	O	1.616934	0.485591	0.587902
O45	O	0.765393	-0.264422	-0.263626
O46	O	1.015393	-0.014422	-0.013626
O47	O	1.265393	0.235578	0.236374
O48	O	1.515393	0.485578	0.486374
O49	O	0.866977	-0.341709	-0.442183
O50	O	1.116977	-0.091709	-0.192183
O51	O	1.366977	0.158291	0.057817
O52	O	1.616977	0.408291	0.307817
O53	O	0.765371	-0.341738	-0.340564
O54	O	1.015371	-0.091738	-0.090564
O55	O	1.265371	0.158262	0.159436
O56	O	1.515371	0.408262	0.409436
O57	O	0.943984	-0.264372	-0.442240
O58	O	1.193984	-0.014372	-0.192240
O59	O	1.443984	0.235628	0.057760
O60	O	1.693984	0.485628	0.307760
O61	O	0.943819	-0.443758	-0.263653
O62	O	1.193819	-0.193758	-0.013653
O63	O	1.443819	0.056242	0.236347
O64	O	1.693819	0.306242	0.486347
O65	O	0.866883	-0.443767	-0.340579
O66	O	1.116883	-0.193767	-0.090579
O67	O	1.366883	0.056233	0.159421
O68	O	1.616883	0.306233	0.409421
C69	C	0.742648	-0.303085	-0.302085
C70	C	0.992648	-0.053085	-0.052085
C71	C	1.242648	0.196915	0.197915
C72	C	1.492648	0.446915	0.447915
C73	C	0.673007	-0.303114	-0.302069
C74	C	0.923007	-0.053114	-0.052069
C75	C	1.173007	0.196886	0.197931
C76	C	1.423007	0.446886	0.447931
C77	C	0.640299	-0.343426	-0.342070
C78	C	0.890299	-0.093426	-0.092070
C79	C	1.140299	0.156574	0.157930
C80	C	1.390299	0.406574	0.407930
C81	C	0.574863	-0.343411	-0.342098
C82	C	0.824863	-0.093411	-0.092098
C83	C	1.074863	0.156589	0.157902
C84	C	1.324863	0.406589	0.407902
C85	C	0.542139	-0.303090	-0.302114
C86	C	0.792139	-0.053090	-0.052114
C87	C	1.042139	0.196910	0.197886
C88	C	1.292139	0.446910	0.447886
C89	C	0.574855	-0.262771	-0.262109
C90	C	0.824855	-0.012771	-0.012109
C91	C	1.074855	0.237229	0.237891
C92	C	1.324855	0.487229	0.487891
C93	C	0.640289	-0.262783	-0.262087
C94	C	0.890289	-0.012783	-0.012087
C95	C	1.140289	0.237217	0.237913
C96	C	1.390289	0.487217	0.487913
C97	C	0.438414	-0.298019	-0.245709
C98	C	0.688414	-0.048019	0.004291
C99	C	0.938414	0.201981	0.254291
C100	C	1.188414	0.451981	0.504291
C101	C	0.372981	-0.298011	-0.245730
C102	C	0.622981	-0.048011	0.004270
C103	C	0.872981	0.201989	0.254270
C104	C	1.122981	0.451989	0.504270
C105	C	0.340318	-0.303049	-0.302183
C106	C	0.590318	-0.053049	-0.052183
C107	C	0.840318	0.196951	0.197817
C108	C	1.090318	0.446951	0.447817
C109	C	0.373096	-0.308108	-0.358616
C110	C	0.623096	-0.058108	-0.108616
C111	C	0.873096	0.191892	0.141384
C112	C	1.123096	0.441892	0.391384
C113	C	0.438530	-0.308120	-0.358594
C114	C	0.688530	-0.058120	-0.108594
C115	C	0.938530	0.191880	0.141406
C116	C	1.188530	0.441880	0.391406
C117	C	0.471186	-0.303072	-0.302134
C118	C	0.721186	-0.053072	-0.052134
C119	C	0.971186	0.196928	0.197866
C120	C	1.221186	0.446928	0.447866
C121	C	0.236657	-0.343346	-0.342218
C122	C	0.486657	-0.093346	-0.092218
C123	C	0.736657	0.156654	0.157782
C124	C	0.986657	0.406654	0.407782
C125	C	0.171221	-0.343326	-0.342247
C126	C	0.421221	-0.093326	-0.092247
C127	C	0.671221	0.156674	0.157753
C128	C	0.921221	0.406674	0.407753
C129	C	0.171214	-0.262690	-0.262252
C130	C	0.421214	-0.012690	-0.012252
C131	C	0.671214	0.237310	0.237748
C132	C	0.921214	0.487310	0.487748
C133	C	0.236649	-0.262706	-0.262229
C134	C	0.486649	-0.012706	-0.012229
C135	C	0.736649	0.237294	0.237771
C136	C	0.986649	0.487294	0.487771
C137	C	0.269367	-0.303038	-0.302211
C138	C	0.519367	-0.053038	-0.052211
C139	C	0.769367	0.196962	0.197789
C140	C	1.019367	0.446962	0.447789
C141	C	0.905354	-0.466603	-0.302123
C142	C	1.155354	-0.216603	-0.052123
C143	C	1.405354	0.033397	0.197877
C144	C	1.655354	0.283397	0.447877
C145	C	0.905376	-0.536571	-0.302129
C146	C	1.155376	-0.286571	-0.052129
C147	C	1.405376	-0.036571	0.197871
C148	C	1.655376	0.213429	0.447871
C149	C	0.945472	-0.569412	-0.262115
C150	C	1.195472	-0.319412	-0.012115
C151	C	1.445472	-0.069412	0.237885
C152	C	1.695472	0.180588	0.487885
C153	C	0.945502	-0.635155	-0.262129
C154	C	1.195502	-0.385155	-0.012129
C155	C	1.445502	-0.135155	0.237871
C156	C	1.695502	0.114845	0.487871
C157	C	0.905424	-0.668054	-0.302151
C158	C	1.155424	-0.418054	-0.052151
C159	C	1.405424	-0.168054	0.197849
C160	C	1.655424	0.081946	0.447849
C161	C	0.865324	-0.635205	-0.342173
C162	C	1.115324	-0.385205	-0.092173
C163	C	1.365324	-0.135205	0.157827
C164	C	1.615324	0.114795	0.407827
C165	C	0.865301	-0.569464	-0.342162
C166	C	1.115301	-0.319464	-0.092162
C167	C	1.365301	-0.069464	0.157838
C168	C	1.615301	0.180536	0.407838
N169	N	0.850614	-0.771336	-0.306903
N170	N	1.100614	-0.521336	-0.056903
N171	N	1.350614	-0.271336	0.193097
N172	N	1.600614	-0.021336	0.443097
N173	N	0.850638	-0.833787	-0.306910
N174	N	1.100638	-0.583787	-0.056910
N175	N	1.350638	-0.333787	0.193090
N176	N	1.600638	-0.083787	0.443090
C177	C	0.905494	-0.866129	-0.302187
C178	C	1.155494	-0.616129	-0.052187
C179	C	1.405494	-0.366129	0.197813
C180	C	1.655494	-0.116129	0.447813
N181	N	0.960325	-0.833659	-0.297445
N182	N	1.210325	-0.583659	-0.047445
N183	N	1.460325	-0.333659	0.202555
N184	N	1.710325	-0.083659	0.452555
N185	N	0.960300	-0.771202	-0.297435
N186	N	1.210300	-0.521202	-0.047435
N187	N	1.460300	-0.271202	0.202565
N188	N	1.710300	-0.021202	0.452565
C189	C	0.905445	-0.739339	-0.302167
C190	C	1.155445	-0.489339	-0.052167
C191	C	1.405445	-0.239339	0.197833
C192	C	1.655445	0.010661	0.447833
C193	C	0.945625	-0.970255	-0.262186
C194	C	1.195625	-0.720255	-0.012186
C195	C	1.445625	-0.470255	0.237814
C196	C	1.695625	-0.220255	0.487814
C197	C	0.945656	-1.035999	-0.262204
C198	C	1.195656	-0.785999	-0.012204
C199	C	1.445656	-0.535999	0.237796
C200	C	1.695656	-0.285999	0.487796
C201	C	0.865473	-1.036048	-0.342245
C202	C	1.115473	-0.786048	-0.092245
C203	C	1.365473	-0.536048	0.157755
C204	C	1.615473	-0.286048	0.407755
C205	C	0.865448	-0.970305	-0.342230
C206	C	1.115448	-0.720305	-0.092230
C207	C	1.365448	-0.470305	0.157770
C208	C	1.615448	-0.220305	0.407770
C209	C	0.905523	-0.937413	-0.302197
C210	C	1.155523	-0.687413	-0.052197
C211	C	1.405523	-0.437413	0.197803
C212	C	1.655523	-0.187413	0.447803
C213	C	1.068859	-0.303019	-0.302231
C214	C	1.318859	-0.053019	-0.052231
C215	C	1.568859	0.196981	0.197769
C216	C	1.818859	0.446981	0.447769
C217	C	1.138501	-0.303005	-0.302262
C218	C	1.388501	-0.053005	-0.052262
C219	C	1.638501	0.196995	0.197738
C220	C	1.888501	0.446995	0.447738
C221	C	0.905488	-0.303039	-0.465581
C222	C	1.155488	-0.053039	-0.215581
C223	C	1.405488	0.196961	0.034419
C224	C	1.655488	0.446961	0.284419
C225	C	0.905510	-0.303033	-0.535223
C226	C	1.155510	-0.053033	-0.285223
C227	C	1.405510	0.196967	-0.035223
C228	C	1.655510	0.446967	0.214777
C229	C	0.905535	-0.138861	-0.302206
C230	C	1.155535	0.111139	-0.052206
C231	C	1.405535	0.361139	0.197794
C232	C	1.655535	0.611139	0.447794
C233	C	0.905578	-0.068893	-0.302227
C234	C	1.155578	0.181107	-0.052227
C235	C	1.405578	0.431107	0.197773
C236	C	1.655578	0.681107	0.447773
C237	C	0.945606	-0.262762	-0.567967
C238	C	1.195606	-0.012762	-0.317967
C239	C	1.445606	0.237238	-0.067967
C240	C	1.695606	0.487238	0.182033
C241	C	0.945605	-0.262735	-0.633402
C242	C	1.195605	-0.012735	-0.383402
C243	C	1.445605	0.237265	-0.133402
C244	C	1.695605	0.487265	0.116598
C245	C	0.905515	-0.302991	-0.666091
C246	C	1.155515	-0.052991	-0.416091
C247	C	1.405515	0.197009	-0.166091
C248	C	1.655515	0.447009	0.083909
C249	C	0.865411	-0.343265	-0.633339
C250	C	1.115411	-0.093265	-0.383339
C251	C	1.365411	0.156735	-0.133339
C252	C	1.615411	0.406735	0.116661
C253	C	0.865409	-0.343286	-0.567905
C254	C	1.115409	-0.093286	-0.317905
C255	C	1.365409	0.156714	-0.067905
C256	C	1.615409	0.406714	0.182095
C257	C	0.900539	-0.359672	-0.769752
C258	C	1.150539	-0.109672	-0.519752
C259	C	1.400539	0.140328	-0.269752
C260	C	1.650539	0.390328	-0.019752
C261	C	0.900546	-0.359652	-0.835185
C262	C	1.150546	-0.109652	-0.585185
C263	C	1.400546	0.140348	-0.335185
C264	C	1.650546	0.390348	-0.085185
C265	C	0.905519	-0.302924	-0.867912
C266	C	1.155519	-0.052924	-0.617912
C267	C	1.405519	0.197076	-0.367912
C268	C	1.655519	0.447076	-0.117912
C269	C	0.910498	-0.246215	-0.835198
C270	C	1.160498	0.003785	-0.585198
C271	C	1.410498	0.253785	-0.335198
C272	C	1.660498	0.503785	-0.085198
C273	C	0.910496	-0.246237	-0.769763
C274	C	1.160496	0.003763	-0.519763
C275	C	1.410496	0.253763	-0.269763
C276	C	1.660496	0.503763	-0.019763
C277	C	0.905513	-0.302972	-0.737043
C278	C	1.155513	-0.052972	-0.487043
C279	C	1.405513	0.197028	-0.237043
C280	C	1.655513	0.447028	0.012957
C281	C	0.945616	-0.262620	-0.971608
C282	C	1.195616	-0.012620	-0.721608
C283	C	1.445616	0.237380	-0.471608
C284	C	1.695616	0.487380	-0.221608
C285	C	0.945611	-0.262592	-1.037045
C286	C	1.195611	-0.012592	-0.787045
C287	C	1.445611	0.237408	-0.537045
C288	C	1.695611	0.487408	-0.287045
C289	C	0.865420	-0.343127	-1.036981
C290	C	1.115420	-0.093127	-0.786981
C291	C	1.365420	0.156873	-0.536981
C292	C	1.615420	0.406873	-0.286981
C293	C	0.865422	-0.343150	-0.971545
C294	C	1.115422	-0.093150	-0.721545
C295	C	1.365422	0.156850	-0.471545
C296	C	1.615422	0.406850	-0.221545
C297	C	0.905523	-0.302897	-0.938863
C298	C	1.155523	-0.052897	-0.688863
C299	C	1.405523	0.197103	-0.438863
C300	C	1.655523	0.447103	-0.188863
C301	C	0.905420	-0.303019	-0.139370
C302	C	1.155420	-0.053019	0.110630
C303	C	1.405420	0.196981	0.360630
C304	C	1.655420	0.446981	0.610630
C305	C	0.905519	-0.302847	-0.069729
C306	C	1.155519	-0.052847	0.180271
C307	C	1.405519	0.197153	0.430271
C308	C	1.655519	0.447153	0.680271
H309	H	0.144590	-0.376152	-0.374825
H310	H	0.394590	-0.126152	-0.124825
H311	H	0.644590	0.123848	0.125175
H312	H	0.894590	0.373848	0.375175
O313	O	0.895172	-0.420859	-0.734453
O314	O	1.145172	-0.170859	-0.484453
O315	O	1.395172	0.079141	-0.234453
O316	O	1.645172	0.329141	0.015547
H317	H	0.850581	-0.444349	-0.746983
H318	H	1.100581	-0.194349	-0.496983
H319	H	1.350581	0.055651	-0.246983
H320	H	1.600581	0.305651	0.003017
O321	O	0.822168	-0.386683	-0.668590
O322	O	1.072168	-0.136683	-0.418590
O323	O	1.322168	0.113317	-0.168590
O324	O	1.572168	0.363317	0.081410
H325	H	0.828909	-0.379907	-0.719593
H326	H	1.078909	-0.129907	-0.469593
H327	H	1.328909	0.120093	-0.219593
H328	H	1.578909	0.370093	0.030407
H329	H	0.548227	-0.376237	-0.374675
H330	H	0.798227	-0.126237	-0.124675
H331	H	1.048227	0.123763	0.125325
H332	H	1.298227	0.373763	0.375325
H333	H	0.978255	-0.229938	-0.660067
H334	H	1.228255	0.020062	-0.410067
H335	H	1.478255	0.270062	-0.160067
H336	H	1.728255	0.520062	0.089933
O337	O	0.473640	-0.292588	-0.184815
O338	O	0.723640	-0.042588	0.065185
O339	O	0.973640	0.207412	0.315185
O340	O	1.223640	0.457412	0.565185
H341	H	0.461096	-0.247768	-0.161522
H342	H	0.711096	0.002232	0.088478
H343	H	0.961096	0.252232	0.338478
H344	H	1.211096	0.502232	0.588478
H345	H	0.666920	-0.229954	-0.229513
H346	H	0.916920	0.020046	0.020487
H347	H	1.166920	0.270046	0.270487
H348	H	1.416920	0.520046	0.520487
O349	O	0.915862	-0.185078	-0.734476
O350	O	1.165862	0.064922	-0.484476
O351	O	1.415862	0.314922	-0.234476
O352	O	1.665862	0.564922	0.015524
H353	H	0.919318	-0.145625	-0.768221
H354	H	1.169318	0.104375	-0.518221
H355	H	1.419318	0.354375	-0.268221
H356	H	1.669318	0.604375	-0.018221
O357	O	0.988705	-0.533938	-0.218946
O358	O	1.238705	-0.283938	0.031054
O359	O	1.488705	-0.033938	0.281054
O360	O	1.738705	0.216062	0.531054
H361	H	0.977992	-0.546598	-0.169760
H362	H	1.227992	-0.296598	0.080240
H363	H	1.477992	-0.046598	0.330240
H364	H	1.727992	0.203402	0.580240
H365	H	0.832775	-0.375947	-0.944885
H366	H	1.082775	-0.125947	-0.694885
H367	H	1.332775	0.124053	-0.444885
H368	H	1.582775	0.374053	-0.194885
O369	O	0.271948	-0.386823	-0.385363
O370	O	0.521948	-0.136823	-0.135363
O371	O	0.771948	0.113177	0.114637
O372	O	1.021948	0.363177	0.364637
H373	H	0.322944	-0.380060	-0.378627
H374	H	0.572944	-0.130060	-0.128627
H375	H	0.822944	0.119940	0.121373
H376	H	1.072944	0.369940	0.371373
O377	O	0.822089	-0.670683	-0.385334
O378	O	1.072089	-0.420683	-0.135334
O379	O	1.322089	-0.170683	0.114666
O380	O	1.572089	0.079317	0.364666
H381	H	0.828834	-0.721915	-0.378613
H382	H	1.078834	-0.471915	-0.128613
H383	H	1.328834	-0.221915	0.121387
H384	H	1.578834	0.028085	0.371387
O385	O	0.915863	-0.185026	-0.870489
O386	O	1.165863	0.064974	-0.620489
O387	O	1.415863	0.314974	-0.370489
O388	O	1.665863	0.564974	-0.120489
H389	H	0.919329	-0.145600	-0.836749
H390	H	1.169329	0.104400	-0.586749
H391	H	1.419329	0.354400	-0.336749
H392	H	1.669329	0.604400	-0.086749
O393	O	0.822185	-0.934877	-0.385372
O394	O	1.072185	-0.684877	-0.135372
O395	O	1.322185	-0.434877	0.114628
O396	O	1.572185	-0.184877	0.364628
H397	H	0.794313	-0.968797	-0.413198
H398	H	1.044313	-0.718797	-0.163198
H399	H	1.294313	-0.468797	0.086802
H400	H	1.544313	-0.218797	0.336802
O401	O	0.988857	-0.219346	-0.532719
O402	O	1.238857	0.030654	-0.282719
O403	O	1.488857	0.280654	-0.032719
O404	O	1.738857	0.530654	0.217281
H405	H	0.960836	-0.187335	-0.502885
H406	H	1.210836	0.062665	-0.252885
H407	H	1.460836	0.312665	-0.002885
H408	H	1.710836	0.562665	0.247115
H409	H	0.144570	-0.229857	-0.229699
H410	H	0.394570	0.020143	0.020301
H411	H	0.644570	0.270143	0.270301
H412	H	0.894570	0.520143	0.520301
H413	H	0.832755	-0.376079	-0.541245
H414	H	1.082755	-0.126079	-0.291245
H415	H	1.332755	0.123921	-0.041245
H416	H	1.582755	0.373921	0.208755
O417	O	0.271929	-0.219229	-0.219078
O418	O	0.521929	0.030771	0.030922
O419	O	0.771929	0.280771	0.280922
O420	O	1.021929	0.530771	0.530922
H421	H	0.322927	-0.226007	-0.225783
H422	H	0.572927	0.023993	0.024217
H423	H	0.822927	0.273993	0.274217
H424	H	1.072927	0.523993	0.524217
O425	O	0.675585	-0.386917	-0.385202
O426	O	0.925585	-0.136917	-0.135202
O427	O	1.175585	0.113083	0.114798
O428	O	1.425585	0.363083	0.364798
H429	H	0.662962	-0.436304	-0.374374
H430	H	0.912962	-0.186304	-0.124374
H431	H	1.162962	0.063696	0.125626
H432	H	1.412962	0.313696	0.375626
H433	H	0.548206	-0.229940	-0.229555
H434	H	0.798206	0.020060	0.020445
H435	H	1.048206	0.270060	0.270445
H436	H	1.298206	0.520060	0.520445
H437	H	0.465215	-0.312237	-0.404544
H438	H	0.715215	-0.062237	-0.154544
H439	H	0.965215	0.187763	0.095456
H440	H	1.215215	0.437763	0.345456
H441	H	0.346503	-0.312209	-0.404586
H442	H	0.596503	-0.062209	-0.154586
H443	H	0.846503	0.187791	0.095414
H444	H	1.096503	0.437791	0.345414
O445	O	0.822175	-0.386541	-1.072232
O446	O	1.072175	-0.136541	-0.822232
O447	O	1.322175	0.113459	-0.572232
O448	O	1.572175	0.363459	-0.322232
H449	H	0.794290	-0.414546	-1.038467
H450	H	1.044290	-0.164546	-0.788467
H451	H	1.294290	0.085454	-0.538467
H452	H	1.544290	0.335454	-0.288467
H453	H	0.978266	-0.229840	-0.944997
H454	H	1.228266	0.020160	-0.694997
H455	H	1.478266	0.270160	-0.444997
H456	H	1.728266	0.520160	-0.194997
H457	H	0.978155	-0.661899	-0.229545
H458	H	1.228155	-0.411899	0.020455
H459	H	1.478155	-0.161899	0.270455
H460	H	1.728155	0.088101	0.520455
H461	H	0.346298	-0.293896	-0.199778
H462	H	0.596298	-0.043896	0.050222
H463	H	0.846298	0.206104	0.300222
H464	H	1.096298	0.456104	0.550222
H465	H	0.978261	-0.229795	-1.063704
H466	H	1.228261	0.020205	-0.813704
H467	H	1.478261	0.270205	-0.563704
H468	H	1.728261	0.520205	-0.313704
H469	H	0.832649	-0.542724	-0.374747
H470	H	1.082649	-0.292724	-0.124747
H471	H	1.332649	-0.042724	0.125253
H472	H	1.582649	0.207276	0.375253
H473	H	0.978259	-0.943473	-0.229590
H474	H	1.228259	-0.693473	0.020410
H475	H	1.478259	-0.443473	0.270410
H476	H	1.728259	-0.193473	0.520410
H477	H	0.978311	-1.062736	-0.229621
H478	H	1.228311	-0.812736	0.020379
H479	H	1.478311	-0.562736	0.270379
H480	H	1.728311	-0.312736	0.520379
O481	O	0.822241	-1.071521	-0.385411
O482	O	1.072241	-0.821521	-0.135411
O483	O	1.322241	-0.571521	0.114589
O484	O	1.572241	-0.321521	0.364589
H485	H	0.828990	-1.122753	-0.378694
H486	H	1.078990	-0.872753	-0.128694
H487	H	1.328990	-0.622753	0.121306
H488	H	1.578990	-0.372753	0.371306
H489	H	0.896496	-0.405828	-0.861816
H490	H	1.146496	-0.155828	-0.611816
H491	H	1.396496	0.094172	-0.361816
H492	H	1.646496	0.344172	-0.111816
