data_functionalizedCrystal
_audit_creation_method	'MofGen! by Chris Wilmer'
_symmetry_space_group_name_H-M	'P1'
_symmetry_Int_Tables_number	1
_symmetry_cell_setting	triclinic
loop_
_symmetry_equiv_pos_as_xyz
  x,y,z
_cell_length_a	15.538191
_cell_length_b	17.038272
_cell_length_c	14.750779
_cell_angle_alpha	76.426773
_cell_angle_beta	97.572172
_cell_angle_gamma	69.191825
loop_
_atom_site_label
_atom_site_type_symbol
_atom_site_fract_x
_atom_site_fract_y
_atom_site_fract_z
O1	O	1.211348	-0.226027	-0.079834
O2	O	0.944163	-0.137757	-0.079834
O3	O	1.076169	-0.295259	-0.079826
O4	O	1.079341	-0.068524	-0.079842
O5	O	1.113486	-0.339779	0.079826
O6	O	0.981480	-0.182277	0.079818
O7	O	1.248665	-0.270547	0.079819
Zn8	Zn	1.120997	-0.233481	0.105167
Zn9	Zn	1.071830	-0.174823	-0.105182
O10	O	1.116658	-0.113045	0.079811
C11	C	0.928466	-0.150782	-0.000008
C12	C	0.826097	-0.123272	-0.000008
C13	C	0.516405	-0.396569	-0.000005
C14	C	0.420212	-0.370700	-0.000007
C15	C	0.409427	-0.225194	-0.000017
C16	C	0.505622	-0.251052	-0.000010
C17	C	0.559104	-0.336740	-0.000005
C18	C	0.548321	-0.191224	-0.000010
C19	C	0.644507	-0.217079	-0.000007
C20	C	0.697994	-0.302762	-0.000005
C21	C	0.655290	-0.362595	-0.000003
C22	C	0.494837	-0.105535	-0.000021
C23	C	0.537536	-0.045706	-0.000021
C24	C	0.633725	-0.071563	-0.000012
C25	C	0.687212	-0.157246	-0.000010
C26	C	0.676429	-0.011730	-0.000015
C27	C	0.772615	-0.037585	-0.000013
C28	C	0.783398	-0.183101	-0.000008
C29	C	1.091939	-0.345828	-0.000000
C30	C	1.083321	-0.430177	-0.000001
C31	C	1.162445	-0.502729	0.000001
C32	C	1.154339	-0.581979	-0.000008
C33	C	1.067111	-0.588678	-0.000012
C34	C	0.987981	-0.516117	-0.000016
C35	C	0.996085	-0.436867	-0.000014
C36	C	1.038479	-0.826313	-0.000025
C37	C	1.030381	-0.905573	-0.000025
C38	C	1.196740	-0.971428	-0.000019
C39	C	1.204838	-0.892175	-0.000011
C40	C	1.125706	-0.819621	-0.000020
C41	C	1.058825	-0.669684	-0.000018
C42	C	1.133992	-0.738614	-0.000020
C43	C	1.264361	-0.257522	-0.000009
C44	C	1.366729	-0.285029	-0.000016
C45	C	1.100888	-0.062475	-0.000017
C46	C	1.109505	0.021876	-0.000023
N47	N	1.154558	-0.273515	0.248725
N48	N	1.038276	-0.134797	-0.248740
C49	C	0.944540	-0.023020	0.600530
C50	C	0.968065	-0.051070	0.701031
C51	C	1.084986	-0.190507	0.701000
C52	C	1.061467	-0.162470	0.600498
C53	C	0.991244	-0.078725	0.550271
C54	C	1.108172	-0.218176	0.550238
C55	C	1.084658	-0.190139	0.449744
C56	C	1.014440	-0.106396	0.399510
C57	C	0.967731	-0.050688	0.449777
C58	C	1.178399	-0.301918	0.600467
C59	C	1.225103	-0.357624	0.550208
C60	C	1.201585	-0.329589	0.449712
C61	C	1.131367	-0.245847	0.399478
C62	C	1.248294	-0.385297	0.399446
C63	C	1.224781	-0.357260	0.298952
C64	C	1.107854	-0.217810	0.298984
H65	H	0.776312	-0.323808	-0.000017
N66	N	1.275135	-0.417328	0.244717
H67	H	1.345300	-0.431925	0.262178
H68	H	1.264196	-0.473418	0.262221
H69	H	1.282282	-0.425809	0.591114
H70	H	0.995300	-0.083568	0.317682
N71	N	0.910744	-0.358610	-0.000021
H72	H	0.854255	-0.374877	-0.000022
H73	H	0.924313	-0.340797	0.059163
H74	H	0.916956	-0.521575	-0.000025
H75	H	1.218771	-0.641051	-0.000005
H76	H	0.910542	0.017502	0.408880
N77	N	1.324042	-0.475613	0.453623
H78	H	1.331854	-0.484919	0.524912
H79	H	1.304954	-0.521937	0.436068
H80	H	0.826947	-0.252878	0.000001
N81	N	0.391098	-0.077653	-0.000000
H82	H	0.363697	-0.014294	-0.000004
H83	H	0.356277	-0.083546	-0.059176
N84	N	0.917695	0.009020	0.755242
H85	H	0.869646	0.066326	0.708170
H86	H	0.884389	-0.020341	0.796951
N87	N	1.298921	-0.884953	-0.000001
H88	H	1.347818	-0.942941	-0.000002
H89	H	1.292076	-0.836997	-0.059184
H90	H	1.205008	-0.733150	-0.000039
N91	N	0.351741	-0.132776	-0.000027
H92	H	0.284327	-0.125473	-0.000030
H93	H	0.380031	-0.122031	0.059159
N94	N	0.479856	0.046712	-0.000025
H95	H	0.425876	0.077191	-0.059210
H96	H	0.453606	0.044105	0.059196
N97	N	0.618739	0.080691	-0.000035
H98	H	0.551325	0.087992	-0.000042
H99	H	0.647022	0.091443	0.059149
N100	N	0.574101	-0.488990	0.000005
H101	H	0.628080	-0.519458	0.059190
H102	H	0.532391	-0.522903	-0.000027
N103	N	1.256528	-0.495508	0.000007
H104	H	1.277431	-0.480606	0.059194
H105	H	1.305355	-0.553514	-0.000031
N106	N	0.712987	-0.455020	0.000016
H107	H	0.671346	-0.489003	0.000021
H108	H	0.739298	-0.452413	-0.059168
H109	H	1.197543	-0.324741	0.682296
H110	H	0.887351	0.045170	0.559633
H111	H	0.974043	-0.767247	-0.000032
N112	N	0.818677	0.026941	-0.000017
H113	H	0.770202	0.085146	-0.000018
H114	H	0.872184	0.002876	0.059168
H115	H	0.385450	-0.419425	-0.000009
N116	N	0.964745	-0.676909	-0.000013
H117	H	0.943842	-0.691815	-0.059198
H118	H	0.971583	-0.724822	0.059208
H119	H	1.261164	-1.030509	-0.000013
H120	H	1.142164	-0.258692	0.741907
H121	H	0.959349	-0.911023	-0.000012
N122	N	1.032104	-0.127488	0.244804
H123	H	1.051141	-0.081107	0.262286
H124	H	1.024331	-0.118264	0.173533
