data_functionalizedCrystal
_audit_creation_method	'MofGen! by Chris Wilmer'
_symmetry_space_group_name_H-M	'P1'
_symmetry_Int_Tables_number	1
_symmetry_cell_setting	triclinic
loop_
_symmetry_equiv_pos_as_xyz
  x,y,z
_cell_length_a	17.077404
_cell_length_b	10.686285
_cell_length_c	17.077396
_cell_angle_alpha	94.391882
_cell_angle_beta	90.018362
_cell_angle_gamma	85.629649
loop_
_atom_site_label
_atom_site_type_symbol
_atom_site_fract_x
_atom_site_fract_y
_atom_site_fract_z
Zn1	Zn	1.224118	-0.502416	0.419907
Zn2	Zn	1.724118	-0.002416	0.919907
Zn3	Zn	1.234132	-0.713437	0.278597
Zn4	Zn	1.734132	-0.213437	0.778597
Zn5	Zn	1.092852	-0.502452	0.288655
Zn6	Zn	1.592852	-0.002452	0.788655
Zn7	Zn	1.102921	-0.713354	0.409827
Zn8	Zn	1.602921	-0.213354	0.909827
O9	O	1.163506	-0.607915	0.349247
O10	O	1.663506	-0.107915	0.849247
O11	O	1.335294	-0.530428	0.401170
O12	O	1.835294	-0.030428	0.901170
O13	O	1.215368	-0.685499	0.170082
O14	O	1.715368	-0.185499	0.670082
O15	O	1.101860	-0.325872	0.314494
O16	O	1.601860	0.174128	0.814494
O17	O	1.342652	-0.685464	0.297351
O18	O	1.842652	-0.185464	0.797351
O19	O	1.198300	-0.325845	0.410923
O20	O	1.698300	0.174155	0.910923
O21	O	1.111570	-0.530490	0.177472
O22	O	1.611570	-0.030490	0.677472
O23	O	0.984340	-0.530409	0.304720
O24	O	1.484340	-0.030409	0.804720
O25	O	1.119021	-0.685323	0.521014
O26	O	1.619021	-0.185323	1.021014
O27	O	0.991737	-0.685358	0.393745
O28	O	1.491737	-0.185358	0.893745
O29	O	1.208064	-0.530348	0.528419
O30	O	1.708064	-0.030348	1.028419
O31	O	1.225132	-0.890002	0.287578
O32	O	1.725132	-0.390002	0.787578
O33	O	1.128731	-0.889941	0.383992
O34	O	1.628731	-0.389941	0.883992
C35	C	0.959556	-0.607879	0.349231
C36	C	1.459556	-0.107879	0.849231
C37	C	0.872307	-0.607894	0.349241
C38	C	1.372307	-0.107894	0.849241
C39	C	0.827494	-0.527311	0.403370
C40	C	1.327494	-0.027311	0.903370
C41	C	0.745514	-0.527319	0.403373
C42	C	1.245514	-0.027319	0.903373
C43	C	0.708349	-0.607918	0.349251
C44	C	1.208349	-0.107918	0.849251
C45	C	0.753168	-0.688505	0.295116
C46	C	1.253168	-0.188505	0.795116
C47	C	0.835146	-0.688490	0.295110
C48	C	1.335146	-0.188490	0.795110
C49	C	0.582300	-0.688534	0.295134
C50	C	1.082300	-0.188534	0.795134
C51	C	0.500316	-0.688551	0.295141
C52	C	1.000316	-0.188551	0.795141
C53	C	0.492667	-0.527363	0.403397
C54	C	0.992667	-0.027363	0.903397
C55	C	0.574645	-0.527347	0.403391
C56	C	1.074645	-0.027347	0.903391
C57	C	0.619459	-0.607937	0.349258
C58	C	1.119459	-0.107937	0.849258
C59	C	1.179132	-0.935755	0.333617
C60	C	1.679132	-0.435755	0.833617
C61	C	1.185889	-1.076007	0.326956
C62	C	1.685889	-0.576007	0.826956
C63	C	1.368252	-0.607952	0.349263
C64	C	1.868252	-0.107952	0.849263
C65	C	1.455502	-0.607967	0.349270
C66	C	1.955502	-0.107967	0.849270
C67	C	1.163549	-0.607822	0.553995
C68	C	1.663549	-0.107822	1.053995
C69	C	1.163567	-0.607782	0.641247
C70	C	1.663567	-0.107782	1.141247
C71	C	1.147840	-0.278794	0.364955
C72	C	1.647840	0.221206	0.864955
C73	C	1.141164	-0.138543	0.371649
C74	C	1.641164	0.361457	0.871649
C75	C	1.163504	-0.607916	0.145299
C76	C	1.663504	-0.107916	0.645299
C77	C	1.163620	-0.607601	0.058064
C78	C	1.663620	-0.107601	0.558064
C79	C	1.209933	-0.527080	0.686095
C80	C	1.709933	-0.027080	1.186095
C81	C	1.209941	-0.527038	0.768077
C82	C	1.709941	-0.027038	1.268077
C83	C	1.163586	-0.607706	0.805210
C84	C	1.663586	-0.107706	1.305210
C85	C	1.117214	-0.688411	0.760357
C86	C	1.617214	-0.188411	1.260357
C87	C	1.117203	-0.688446	0.678376
C88	C	1.617203	-0.188446	1.178376
C89	C	1.117242	-0.688335	0.931231
C90	C	1.617242	-0.188335	1.431231
C91	C	1.117254	-0.688303	1.013217
C92	C	1.617254	-0.188303	1.513217
C93	C	1.209980	-0.526928	1.020932
C94	C	1.709980	-0.026928	1.520932
C95	C	1.209969	-0.526962	0.938951
C96	C	1.709969	-0.026962	1.438951
C97	C	1.163598	-0.607670	0.894103
C98	C	1.663598	-0.107670	1.394103
H99	H	0.456175	-0.461742	0.447474
H100	H	0.956175	0.038258	0.947474
H101	H	0.604902	-0.461724	0.447466
H102	H	1.104902	0.038276	0.947466
H103	H	0.709030	-0.461702	0.447451
H104	H	1.209030	0.038298	0.947451
H105	H	0.857747	-0.461681	0.447444
H106	H	1.357747	0.038319	0.947444
Br107	Br	0.449880	-0.797973	0.221710
Br108	Br	0.949880	-0.297973	0.721710
Br109	Br	1.258319	-1.165605	0.254669
Br110	Br	1.758319	-0.665605	0.754669
Br111	Br	1.054307	-0.797864	0.870366
Br112	Br	1.554307	-0.297864	1.370366
Br113	Br	1.068724	-1.048949	0.443919
Br114	Br	1.568724	-0.548949	0.943919
Br115	Br	1.054335	-0.797769	1.063612
Br116	Br	1.554335	-0.297769	1.563612
Br117	Br	1.054298	-0.797882	0.810751
Br118	Br	1.554298	-0.297882	1.310751
Br119	Br	1.272854	-0.417606	0.635708
Br120	Br	1.772854	0.082394	1.135708
H121	H	1.247735	-0.461210	1.057451
H122	H	1.747735	0.038790	1.557451
H123	H	1.079438	-0.754149	0.641862
H124	H	1.579438	-0.254149	1.141862
Br125	Br	1.272887	-0.417495	0.888556
Br126	Br	1.772887	0.082505	1.388556
Br127	Br	0.643118	-0.797913	0.221671
Br128	Br	1.143118	-0.297913	0.721671
Br129	Br	0.702731	-0.797881	0.221658
Br130	Br	1.202731	-0.297881	0.721658
Br131	Br	1.272909	-0.417568	0.828937
Br132	Br	1.772909	0.082432	1.328937
H133	H	0.871633	-0.754108	0.251033
H134	H	1.371633	-0.254108	0.751033
