data_functionalizedCrystal
_audit_creation_method	'MofGen! by Chris Wilmer'
_symmetry_space_group_name_H-M	'P1'
_symmetry_Int_Tables_number	1
_symmetry_cell_setting	triclinic
loop_
_symmetry_equiv_pos_as_xyz
  x,y,z
_cell_length_a	31.640172
_cell_length_b	23.096457
_cell_length_c	23.096457
_cell_angle_alpha	59.999299
_cell_angle_beta	90.009611
_cell_angle_gamma	59.998714
loop_
_atom_site_label
_atom_site_type_symbol
_atom_site_fract_x
_atom_site_fract_y
_atom_site_fract_z
Zr1	Zr	0.407184	0.633672	-0.075887
O2	O	0.339684	0.754485	-0.168351
O3	O	0.427874	0.512878	-0.047545
O4	O	0.427861	0.633684	-0.168340
O5	O	0.339710	0.633662	0.047733
O6	O	0.497418	0.633672	-0.168327
O7	O	0.339698	0.633679	-0.047556
O8	O	0.497442	0.417571	0.047753
O9	O	0.339686	0.849763	-0.168347
O10	O	0.488610	0.562546	-0.035444
O11	O	0.436710	0.562543	0.035660
O12	O	0.436694	0.704777	-0.106560
O13	O	0.384794	0.704774	-0.035457
Zr14	Zr	0.518139	0.633627	0.076109
Zr15	Zr	0.518119	0.633653	-0.075866
Zr16	Zr	0.407204	0.633646	0.076089
Zr17	Zr	0.407186	0.785629	-0.075880
Zr18	Zr	0.518136	0.481669	0.076103
O19	O	0.497449	0.754421	0.047767
O20	O	0.497420	0.754458	-0.168322
O21	O	0.339713	0.754448	0.047738
O22	O	0.585639	0.512814	0.168573
O23	O	0.585610	0.512850	-0.047516
O24	O	0.427903	0.512841	0.168545
O25	O	0.585613	0.633636	-0.047511
O26	O	0.497462	0.633615	0.168562
O27	O	0.427905	0.633627	0.168550
O28	O	0.585625	0.633620	0.047778
O29	O	0.427865	0.849748	-0.168331
O30	O	0.497458	0.417551	0.168553
O31	O	0.585637	0.417536	0.168569
O32	O	0.585621	0.417556	0.047769
O33	O	0.339702	0.849742	-0.047547
O34	O	0.427881	0.849727	-0.047531
O35	O	0.488629	0.562522	0.106783
O36	O	0.540529	0.562525	0.035679
O37	O	0.488613	0.704756	-0.035438
O38	O	0.436713	0.704753	0.035666
C39	C	0.462658	0.443574	0.000103
C40	C	0.462657	0.379064	0.000100
C41	C	0.489745	0.348765	-0.037018
C42	C	0.489750	0.288142	-0.037012
C43	C	0.462657	0.257833	0.000102
C44	C	0.435568	0.288137	0.037229
C45	C	0.435568	0.348752	0.037228
N46	N	0.418559	0.195446	-0.005053
N47	N	0.418560	0.137865	-0.005056
C48	C	0.462656	0.075201	0.000109
N49	N	0.506750	0.072301	0.005263
N50	N	0.506748	0.129889	0.005262
C51	C	0.462654	0.192106	0.000108
C52	C	0.489752	-0.020833	-0.037005
C53	C	0.489759	-0.081460	-0.036994
C54	C	0.435572	-0.081458	0.037242
C55	C	0.435570	-0.020838	0.037236
C56	C	0.462659	0.009474	0.000109
C57	C	0.323898	0.633673	0.000086
C58	C	0.276803	0.633681	0.000077
C59	C	0.011897	0.559399	0.037248
C60	C	-0.165088	0.559384	0.037262
O61	O	-0.164927	0.496243	0.068859
N62	N	-0.214318	0.633627	0.000139
C63	C	-0.219300	0.707878	-0.036987
O64	O	-0.265234	0.771025	-0.068556
C65	C	-0.042316	0.707891	-0.036996
C66	C	0.006913	0.633644	0.000123
C67	C	0.061124	0.485157	0.074365
C68	C	0.105367	0.485162	0.074358
C69	C	0.100384	0.559407	0.037234
C70	C	0.051157	0.633648	0.000116
C71	C	-0.047299	0.782142	-0.074117
C72	C	-0.003047	0.782139	-0.074115
C73	C	0.046182	0.707891	-0.036995
C74	C	0.090417	0.707898	-0.037015
N75	N	0.139646	0.633656	0.000108
C76	C	0.144630	0.559410	0.037232
C77	C	-0.312218	0.707866	-0.036980
C78	C	-0.356464	0.707863	-0.036979
C79	C	-0.302249	0.559369	0.037271
C80	C	-0.258002	0.559373	0.037265
C81	C	-0.262988	0.633623	0.000143
C82	C	0.237542	0.559425	0.037214
C83	C	0.281787	0.559436	0.037202
C84	C	0.227568	0.707929	-0.037045
C85	C	0.183327	0.707919	-0.037036
C86	C	0.188317	0.633660	0.000099
O87	O	0.090294	0.771007	-0.068589
O88	O	0.190568	0.496272	0.068810
C89	C	-0.032346	0.559394	0.037255
C90	C	-0.081573	0.633636	0.000137
C91	C	-0.086557	0.707881	-0.036987
C92	C	-0.125819	0.633632	0.000139
C93	C	-0.120836	0.559387	0.037263
C94	C	-0.071606	0.485144	0.074386
C95	C	-0.027363	0.485149	0.074379
C96	C	-0.135786	0.782123	-0.074110
C97	C	-0.180028	0.782113	-0.074101
C98	C	-0.175044	0.707868	-0.036976
C99	C	0.601425	0.633625	0.000137
C100	C	0.648520	0.633617	0.000145
C101	C	0.462636	0.633681	-0.189987
C102	C	0.462628	0.633692	-0.254504
C103	C	0.462665	0.823725	0.000119
C104	C	0.462666	0.888235	0.000122
C105	C	0.500948	0.633687	-0.284791
C106	C	0.500960	0.633671	-0.345399
C107	C	0.462643	0.633676	-0.375726
C108	C	0.424319	0.633676	-0.345429
C109	C	0.424311	0.633685	-0.284819
N110	N	0.417209	0.680027	-0.494091
N111	N	0.417219	0.680021	-0.551669
C112	C	0.462664	0.633649	-0.558341
N113	N	0.508103	0.587293	-0.505265
N114	N	0.508093	0.587303	-0.447683
C115	C	0.462647	0.633666	-0.441447
C116	C	0.501001	0.633624	-0.654345
C117	C	0.501012	0.633602	-0.714951
C118	C	0.424367	0.633616	-0.714985
C119	C	0.424359	0.633630	-0.654376
C120	C	0.462676	0.633638	-0.624061
C121	C	0.462687	0.633617	0.190209
C122	C	0.462695	0.633606	0.254727
C123	C	0.601421	0.443550	0.000129
C124	C	0.648515	0.379032	0.000134
C125	C	0.462683	0.443542	0.190201
C126	C	0.462691	0.379021	0.254716
C127	C	0.601447	0.443518	0.190227
C128	C	0.648549	0.378989	0.254750
C129	C	0.323876	0.823781	-0.190004
C130	C	0.276774	0.888310	-0.254528
C131	C	0.323902	0.823749	0.000094
C132	C	0.276808	0.888267	0.000088
C133	C	0.462640	0.823757	-0.189979
C134	C	0.462632	0.888278	-0.254494
C135	C	0.643530	0.348744	-0.036995
C136	C	0.687775	0.288131	-0.037003
C137	C	0.737005	0.257803	0.000122
C138	C	0.741990	0.288096	0.037252
C139	C	0.697745	0.348712	0.037256
C140	C	0.489795	0.348710	0.322145
C141	C	0.489800	0.288095	0.382769
C142	C	0.462703	0.257786	0.375963
C143	C	0.435595	0.288103	0.308527
C144	C	0.435588	0.348722	0.247905
C145	C	0.697765	0.348687	0.247935
C146	C	0.742027	0.288063	0.308556
C147	C	0.737072	0.257739	0.375991
C148	C	0.687851	0.288047	0.382804
C149	C	0.643590	0.348673	0.322184
C150	C	0.227558	0.918619	-0.247713
C151	C	0.183296	0.979261	-0.308334
C152	C	0.188251	1.009589	-0.375768
C153	C	0.237472	0.979277	-0.382582
C154	C	0.281733	0.918640	-0.321961
C155	C	0.281793	0.918560	0.037211
C156	C	0.237548	0.979190	0.037203
C157	C	0.188318	1.009521	0.000076
C158	C	0.183333	0.979225	-0.037052
C159	C	0.227578	0.918600	-0.037047
C160	C	0.489735	0.918567	-0.247665
C161	C	0.489738	0.979183	-0.308278
C162	C	0.462635	1.009513	-0.375718
C163	C	0.435532	0.979218	-0.382545
C164	C	0.435532	0.918599	-0.321933
H165	H	0.413509	0.263454	0.067448
H166	H	0.012718	0.424689	0.104607
H167	H	0.773028	0.208444	0.000113
N168	N	0.242924	0.479337	0.077253
H169	H	0.225786	0.476006	0.114616
H170	H	0.280834	0.432356	0.100716
H171	H	0.241616	1.003847	0.067439
N172	N	0.130211	1.011945	-0.300982
H173	H	0.126074	1.037075	-0.274191
H174	H	0.126105	0.965655	-0.274232
H175	H	0.223511	0.893937	-0.067275
H176	H	-0.316286	0.768333	-0.067215
H177	H	0.462714	0.208427	0.425332
H178	H	0.701811	0.373364	0.067495
N179	N	0.140598	1.074909	0.000074
H180	H	0.151232	1.089492	0.029229
H181	H	0.119322	1.053770	0.021182
H182	H	0.413534	0.263417	0.302997
N183	N	0.542326	0.633629	-0.621642
H184	H	0.566607	0.633617	-0.650024
H185	H	0.562421	0.583144	-0.571238
N186	N	0.334889	0.885861	0.077248
H187	H	0.354463	0.825007	0.114610
H188	H	0.331284	0.914320	0.100712
N189	N	0.542344	0.633608	-0.747621
H190	H	0.562494	0.583115	-0.747515
H191	H	0.566574	0.633651	-0.719194
N192	N	0.518964	1.011863	-0.300910
H193	H	0.546235	1.001308	-0.324390
H194	H	0.536094	0.983442	-0.248976
N195	N	0.382976	0.633689	-0.252152
H196	H	0.347794	0.684178	-0.287961
H197	H	0.388830	0.633664	-0.209150
H198	H	0.532167	0.633666	-0.370062
H199	H	0.143244	1.003930	-0.067279
N200	N	0.682513	0.255324	0.455540
H201	H	0.644619	0.283714	0.450667
H202	H	0.699698	0.265863	0.482313
N203	N	0.462643	1.074887	-0.441090
H204	H	0.483927	1.089468	-0.426524
H205	H	0.425930	1.125160	-0.470252
N206	N	0.130225	0.787992	-0.077075
H207	H	0.126063	0.820459	-0.129007
H208	H	0.126117	0.820382	-0.057550
H209	H	0.393170	0.633616	-0.739674
N210	N	0.518968	0.885862	-0.174931
H211	H	0.536137	0.914252	-0.179813
H212	H	0.546209	0.825006	-0.148160
H213	H	0.603448	0.373438	-0.067235
N214	N	-0.008423	0.862223	-0.114156
H215	H	-0.027965	0.894673	-0.094683
H216	H	-0.027968	0.894622	-0.166076
H217	H	0.532149	0.633691	-0.260109
N218	N	0.406301	1.011935	-0.455287
H219	H	0.410415	1.054935	-0.492642
H220	H	0.368406	1.037055	-0.460913
H221	H	0.413512	-0.106135	0.067461
H222	H	-0.067555	0.424691	0.104610
H223	H	0.393153	0.633639	-0.629717
N224	N	0.334817	0.885940	-0.329310
H225	H	0.338962	0.932186	-0.356087
H226	H	0.338914	0.860794	-0.356075
H227	H	0.683706	0.263474	-0.067239
N228	N	0.158458	0.405074	0.114407
H229	H	0.178031	0.401755	0.151764
H230	H	0.177981	0.401805	0.080321
N231	N	0.406298	0.885935	-0.329304
H232	H	0.389130	0.914353	-0.381226
H233	H	0.379056	0.896491	-0.305781
H234	H	0.511803	0.373441	-0.067247
H235	H	0.511809	0.263468	-0.067239
N236	N	0.382992	0.633675	-0.378131
H237	H	0.388811	0.633671	-0.421125
H238	H	0.347826	0.684169	-0.392797
N239	N	0.795090	0.255381	0.077291
H240	H	0.822358	0.212384	0.071652
H241	H	0.799199	0.230259	0.129205
N242	N	0.590508	0.381349	0.329539
H243	H	0.594090	0.352933	0.381459
H244	H	0.570967	0.370799	0.306008
N245	N	0.406352	0.381434	0.077266
H246	H	0.389191	0.353034	0.100783
H247	H	0.379106	0.442290	0.043179
H248	H	0.511861	0.373380	0.327700
N249	N	0.222209	0.885920	-0.174983
H250	H	0.239358	0.825069	-0.148175
H251	H	0.184303	0.914389	-0.179932
H252	H	0.511811	0.003846	-0.067233
N253	N	0.519041	0.255401	0.455497
H254	H	0.536209	0.283796	0.450603
H255	H	0.546284	0.194545	0.482271
H256	H	0.511820	-0.106133	-0.067217
H257	H	0.413510	0.003835	0.067459
N258	N	0.242808	1.011991	-0.455319
H259	H	0.262348	0.965749	-0.461004
H260	H	0.262340	1.037151	-0.460960
N261	N	0.334885	0.479352	0.077234
H262	H	0.331324	0.432319	0.100753
H263	H	0.354435	0.476108	0.114552
H264	H	-0.217920	0.498914	0.067497
N265	N	0.066506	0.405072	0.114411
H266	H	0.104408	0.358048	0.137920
H267	H	0.049325	0.401839	0.080327
N268	N	0.406321	0.381453	0.175179
H269	H	0.389148	0.353064	0.180074
H270	H	0.431170	0.370930	0.148375
H271	H	0.701809	0.373368	0.193032
N272	N	0.222198	0.788006	-0.077089
H273	H	0.257699	0.776735	-0.071455
H274	H	0.202637	0.820419	-0.057595
H275	H	0.782100	0.263393	0.302996
N276	N	0.784812	0.192349	0.441371
H277	H	0.816741	0.177757	0.426815
H278	H	0.784794	0.142086	0.470520
H279	H	-0.298197	0.498915	0.067495
N280	N	0.140510	1.074990	-0.441149
H281	H	0.108582	1.089582	-0.426592
H282	H	0.140527	1.053856	-0.470301
N283	N	-0.409558	0.787943	-0.077025
H284	H	-0.405996	0.834974	-0.100539
H285	H	-0.429090	0.791172	-0.042940
N286	N	-0.100389	0.862224	-0.114150
H287	H	-0.096823	0.909251	-0.137659
H288	H	-0.119916	0.865447	-0.080059
H289	H	-0.220111	0.842579	-0.104335
H290	H	-0.139852	0.842584	-0.104343
