data_functionalizedCrystal
_audit_creation_method	'MofGen! by Chris Wilmer'
_symmetry_space_group_name_H-M	'P1'
_symmetry_Int_Tables_number	1
_symmetry_cell_setting	triclinic
loop_
_symmetry_equiv_pos_as_xyz
  x,y,z
_cell_length_a	12.594516
_cell_length_b	12.759401
_cell_length_c	12.759393
_cell_angle_alpha	89.982549
_cell_angle_beta	89.970672
_cell_angle_gamma	90.015097
loop_
_atom_site_label
_atom_site_type_symbol
_atom_site_fract_x
_atom_site_fract_y
_atom_site_fract_z
Zn1	Zn	-0.423704	1.606234	-0.594001
Zn2	Zn	-0.601724	1.606128	-0.418329
Zn3	Zn	-0.423757	1.430539	-0.418340
Zn4	Zn	-0.601638	1.430520	-0.593970
O5	O	-0.512706	1.518355	-0.506160
O6	O	-0.447333	1.753241	-0.570706
O7	O	-0.578175	1.582799	-0.271309
O8	O	-0.274804	1.453898	-0.441660
O9	O	-0.578123	1.753163	-0.441640
O10	O	-0.274766	1.582980	-0.570717
O11	O	-0.447423	1.453795	-0.271318
O12	O	-0.447340	1.283516	-0.441630
O13	O	-0.577977	1.453866	-0.740995
O14	O	-0.578028	1.283502	-0.570664
O15	O	-0.447250	1.582962	-0.741018
O16	O	-0.750659	1.582780	-0.441610
O17	O	-0.750595	1.453763	-0.570653
C18	C	-0.512681	1.245388	-0.506145
C19	C	-0.512696	1.128611	-0.506164
C20	C	-0.444722	1.073783	-0.573473
C21	C	-0.444742	0.964059	-0.573479
C22	C	-0.580720	0.964001	-0.438866
C23	C	-0.580693	1.073723	-0.438855
C24	C	-0.366219	1.073816	-0.651194
C25	C	-0.366240	0.964091	-0.651201
C26	C	-0.789247	1.518286	-0.506150
C27	C	-0.907552	1.518353	-0.506180
C28	C	-0.976810	1.448174	-0.576318
C29	C	-1.047680	1.422576	-0.480451
C30	C	-1.047481	1.544046	-0.602063
C31	C	-0.976864	1.492705	-0.410263
C32	C	-0.976659	1.614220	-0.531940
C33	C	-1.047498	1.588659	-0.436008
C34	C	-0.235085	1.518453	-0.506193
C35	C	-0.116780	1.518495	-0.506208
C36	C	-0.512598	1.518424	-0.780194
C37	C	-0.512551	1.518453	-0.896970
C38	C	-0.512732	1.792389	-0.506175
C39	C	-0.512743	1.909165	-0.506182
C40	C	-0.444457	1.451309	-0.951843
C41	C	-0.444425	1.451341	-1.061567
C42	C	-0.580586	1.585669	-1.061536
C43	C	-0.580622	1.585631	-0.951814
C44	C	-0.365842	1.373758	-0.951861
C45	C	-0.365810	1.373790	-1.061585
C46	C	-0.512737	1.518348	-0.233193
C47	C	-0.512484	1.518522	-0.116417
H48	H	-0.287900	0.930052	-0.622198
Br49	Br	-0.228353	1.409984	-1.111254
H50	H	-1.078340	1.648068	-0.376638
Br51	Br	-0.403210	0.914500	-0.786761
Br52	Br	-0.673057	1.676742	-0.877346
H53	H	-0.395315	1.296492	-1.095612
Br54	Br	-0.672910	1.148131	-0.347467
H55	H	-0.283751	1.103585	-0.629537
H56	H	-0.945771	1.388719	-0.635544
Br57	Br	-0.924626	1.749209	-0.568293
H58	H	-0.945973	1.470937	-0.329165
Br59	Br	-1.099192	1.580169	-0.737192
Br60	Br	-0.672995	0.889504	-0.347519
H61	H	-0.636006	1.640364	-1.106204
Br62	Br	-0.415584	1.130601	-0.779926
Br63	Br	-0.402632	1.238109	-0.902221
Br64	Br	-1.099670	1.287553	-0.444139
H65	H	-0.287552	1.402924	-0.917842
