data_functionalizedCrystal
_audit_creation_method	'MofGen! by Chris Wilmer'
_symmetry_space_group_name_H-M	'P1'
_symmetry_Int_Tables_number	1
_symmetry_cell_setting	triclinic
loop_
_symmetry_equiv_pos_as_xyz
  x,y,z
_cell_length_a	18.050591
_cell_length_b	25.639239
_cell_length_c	18.050583
_cell_angle_alpha	89.961658
_cell_angle_beta	89.977979
_cell_angle_gamma	90.034692
loop_
_atom_site_label
_atom_site_type_symbol
_atom_site_fract_x
_atom_site_fract_y
_atom_site_fract_z
Zn1	Zn	1.135247	-0.208169	-0.420021
Zn2	Zn	1.135132	-0.295618	-0.295826
Zn3	Zn	1.011063	-0.208192	-0.295832
Zn4	Zn	1.010991	-0.295569	-0.419962
O5	O	1.073108	-0.251887	-0.357910
O6	O	1.239156	-0.219780	-0.403568
O7	O	1.118657	-0.284050	-0.191902
O8	O	1.027615	-0.135024	-0.312333
O9	O	1.239072	-0.284028	-0.312323
O10	O	1.118852	-0.135007	-0.403574
O11	O	1.027504	-0.219819	-0.191906
O12	O	0.907129	-0.219772	-0.312276
O13	O	1.027491	-0.283945	-0.523894
O14	O	0.907076	-0.283968	-0.403473
O15	O	1.118781	-0.219733	-0.523938
O16	O	1.118587	-0.368776	-0.312266
O17	O	1.027381	-0.368741	-0.403468
C18	C	0.880156	-0.251867	-0.357869
C19	C	0.797610	-0.251872	-0.357869
C20	C	0.598167	-0.216922	-0.308390
C21	C	0.548735	-0.264612	-0.290112
C22	C	0.646480	-0.251888	-0.357903
C23	C	0.548831	-0.204213	-0.376179
C24	C	0.500495	-0.251899	-0.357934
C25	C	0.598135	-0.299603	-0.339589
C26	C	0.598235	-0.239172	-0.425688
C27	C	0.548825	-0.286896	-0.407435
C28	C	0.730578	-0.251880	-0.357883
C29	C	0.416398	-0.251911	-0.357954
C30	C	1.072983	-0.387730	-0.357876
C31	C	1.072998	-0.445844	-0.357886
C32	C	1.120723	-0.806213	-0.310502
C33	C	1.120752	-0.860817	-0.310512
O34	O	1.161200	-0.889059	-0.270187
N35	N	1.073239	-0.888126	-0.357959
C36	C	1.025699	-0.860828	-0.405405
O37	O	0.985289	-0.889070	-0.445764
C38	C	1.025675	-0.806225	-0.405398
C39	C	1.073186	-0.778918	-0.357943
C40	C	1.168231	-0.778906	-0.263051
C41	C	1.168201	-0.724306	-0.263040
C42	C	1.120663	-0.697011	-0.310481
C43	C	1.073156	-0.724318	-0.357932
C44	C	0.978139	-0.778928	-0.452847
C45	C	0.978119	-0.724321	-0.452837
C46	C	1.025630	-0.697014	-0.405381
C47	C	1.025588	-0.642423	-0.405362
N48	N	1.073101	-0.615114	-0.357914
C49	C	1.120639	-0.642408	-0.310474
C50	C	1.025755	-0.975499	-0.405416
C51	C	1.025775	-1.030101	-0.405420
C52	C	1.120829	-1.030086	-0.310528
C53	C	1.120805	-0.975483	-0.310521
C54	C	1.073268	-0.948189	-0.357969
C55	C	1.120572	-0.527743	-0.310455
C56	C	1.120536	-0.473138	-0.310446
C57	C	1.025485	-0.473157	-0.405340
C58	C	1.025518	-0.527758	-0.405347
C59	C	1.073068	-0.555049	-0.357901
O60	O	0.985163	-0.614147	-0.445668
O61	O	1.161049	-0.614159	-0.270129
C62	C	1.266814	-0.251907	-0.357952
C63	C	1.349360	-0.251915	-0.357970
C64	C	1.073141	-0.251831	-0.551616
C65	C	1.073155	-0.251807	-0.634162
C66	C	1.073254	-0.115514	-0.357961
C67	C	1.073316	-0.057400	-0.357982
C68	C	1.122848	-0.216872	-0.833636
C69	C	1.055118	-0.204072	-0.883024
C70	C	1.073185	-0.251798	-0.785292
C71	C	1.140943	-0.264565	-0.882986
C72	C	1.073220	-0.251789	-0.931277
C73	C	1.005419	-0.238974	-0.833593
C74	C	1.091289	-0.299489	-0.833550
C75	C	1.023512	-0.286708	-0.882916
C76	C	1.073166	-0.251803	-0.701194
C77	C	1.073231	-0.251785	-1.015374
C78	C	1.073118	-0.251905	-0.164958
C79	C	1.073248	-0.251781	-0.082413
H80	H	0.527134	-0.163897	-0.391599
N81	N	0.929570	-0.696442	-0.501315
N82	N	0.934462	-0.702500	-0.569848
H83	H	0.900175	-0.682811	-0.604086
N84	N	1.175452	-0.179805	-0.806469
N85	N	1.228187	-0.194625	-0.766852
H86	H	1.265335	-0.168446	-0.747662
H87	H	0.948115	-0.228125	-0.811988
N88	N	1.110517	-0.350068	-0.806247
N89	N	1.113035	-0.358246	-0.738020
H90	H	1.126623	-0.393968	-0.718734
N91	N	0.625341	-0.179869	-0.255803
N92	N	0.609448	-0.184621	-0.188730
H93	H	0.628639	-0.158455	-0.151588
N94	N	0.521469	-0.278113	-0.218212
N95	N	0.537273	-0.250331	-0.163571
H96	H	0.518020	-0.259863	-0.112790
H97	H	1.159540	-1.052319	-0.271902
N98	N	0.625172	-0.350206	-0.320130
N99	N	0.608848	-0.388820	-0.359095
H100	H	0.627943	-0.424558	-0.345351
N101	N	0.976973	-0.555656	-0.453802
N102	N	0.908444	-0.549611	-0.448800
H103	H	0.874161	-0.569312	-0.483025
N104	N	0.976927	-0.445263	-0.453786
N105	N	0.976913	-0.396511	-0.453764
H106	H	0.942621	-0.376808	-0.487981
H107	H	0.527297	-0.316504	-0.449320
N108	N	1.035925	-0.153470	-0.910279
N109	N	1.075360	-0.114959	-0.894500
H110	H	1.061809	-0.079220	-0.913745
H111	H	1.159224	-0.450907	-0.271799
N112	N	0.970786	-0.323749	-0.909911
N113	N	0.962591	-0.329999	-0.978089
H114	H	0.925351	-0.356157	-0.997158
H115	H	1.198229	-0.275366	-0.904684
H116	H	1.159293	-0.549957	-0.271822
N117	N	1.216738	-0.696425	-0.214562
N118	N	1.259177	-0.720811	-0.172213
H119	H	1.293461	-0.701124	-0.137973
N120	N	0.625540	-0.225665	-0.497566
N121	N	0.608854	-0.252989	-0.552409
H122	H	0.628140	-0.243446	-0.603174
H123	H	1.206946	-0.801123	-0.224419
N124	N	0.977227	-1.057982	-0.453887
N125	N	0.934786	-1.033599	-0.496236
H126	H	0.900499	-1.053288	-0.530470
H127	H	1.159493	-0.953253	-0.271879
N128	N	0.977187	-0.947629	-0.453889
N129	N	0.934772	-0.972024	-0.496246
H130	H	0.900472	-0.952344	-0.530482
N131	N	0.929602	-0.806803	-0.501327
N132	N	0.887171	-0.782416	-0.543681
H133	H	0.852889	-0.802102	-0.577924
