data_functionalizedCrystal
_audit_creation_method	'MofGen! by Chris Wilmer'
_symmetry_space_group_name_H-M	'P1'
_symmetry_Int_Tables_number	1
_symmetry_cell_setting	triclinic
loop_
_symmetry_equiv_pos_as_xyz
  x,y,z
_cell_length_a	10.654562
_cell_length_b	10.654559
_cell_length_c	9.730223
_cell_angle_alpha	90.000157
_cell_angle_beta	89.996961
_cell_angle_gamma	84.489380
loop_
_atom_site_label
_atom_site_type_symbol
_atom_site_fract_x
_atom_site_fract_y
_atom_site_fract_z
O1	O	1.667830	0.176469	-0.114375
O2	O	1.302355	0.193258	-0.114358
O3	O	1.493490	0.002125	-0.114363
O4	O	1.476696	0.367601	-0.114370
O5	O	1.493487	0.002130	0.114217
O6	O	1.302352	0.193263	0.114222
O7	O	1.667828	0.176473	0.114205
Zn8	Zn	1.485090	0.184869	0.150505
Zn9	Zn	1.485093	0.184862	-0.150659
O10	O	1.476693	0.367606	0.114210
C11	C	1.255556	0.192024	-0.000066
C12	C	1.116113	0.188326	-0.000059
C13	C	1.050581	0.186604	0.124529
C14	C	0.919559	0.183139	0.124506
C15	C	0.919611	0.183124	-0.124704
C16	C	1.050632	0.186580	-0.124680
C17	C	1.050549	0.186618	0.268409
C18	C	0.919527	0.183153	0.268386
C19	C	1.492253	-0.044670	-0.000075
C20	C	1.488556	-0.184113	-0.000081
C21	C	1.372545	-0.235658	-0.000081
C22	C	1.369079	-0.366680	-0.000078
C23	C	1.597647	-0.394602	-0.000080
C24	C	1.601111	-0.263582	-0.000073
C25	C	1.227045	-0.528968	0.079999
C26	C	1.111027	-0.580517	0.079975
C27	C	1.011254	-0.525664	-0.000119
C28	C	1.027494	-0.419265	-0.080222
C29	C	1.143513	-0.367723	-0.080210
C30	C	1.243282	-0.422573	-0.000084
C31	C	1.743138	-0.101292	-0.080162
C32	C	1.859159	-0.049748	-0.080160
C33	C	1.958943	-0.104599	-0.000074
C34	C	1.942715	-0.211004	0.080008
C35	C	1.826694	-0.262548	0.080006
C36	C	1.726910	-0.207688	-0.000077
C37	C	1.714627	0.177707	-0.000091
C38	C	1.854070	0.181405	-0.000106
C39	C	1.477930	0.414402	-0.000081
C40	C	1.481626	0.553844	-0.000085
N41	N	1.485097	0.184872	0.356042
N42	N	1.485096	0.184849	-0.356195
C43	C	1.569754	0.100268	0.427965
C44	C	1.569750	0.100252	0.571848
C45	C	1.400430	0.269458	0.571871
C46	C	1.400428	0.269466	0.427991
C47	C	1.667513	0.002582	0.427953
C48	C	1.667510	0.002567	0.571836
H49	H	1.103986	0.187963	-0.226131
H50	H	0.873243	0.269950	0.323620
O51	O	1.309120	0.360706	0.649471
H52	H	1.323347	0.346494	0.761604
O53	O	1.719044	-0.480313	-0.000078
H54	H	1.697147	-0.580081	-0.000095
H55	H	1.764022	0.024089	0.610882
H56	H	0.866281	0.181703	-0.226166
O57	O	1.876654	0.065032	-0.166520
H58	H	1.974094	0.091653	-0.153068
O59	O	1.251154	-0.149939	-0.000063
H60	H	1.169902	-0.207800	-0.000046
H61	H	1.661885	-0.056611	-0.145368
H62	H	1.308276	-0.573630	0.145238
H63	H	1.096805	0.099825	0.323663
O64	O	0.886118	-0.581258	-0.000141
H65	H	0.811277	-0.509456	0.036639
O66	O	1.639093	-0.125275	0.376205
H67	H	1.625168	-0.187875	0.464977
H68	H	1.080126	0.278214	0.313051
O69	O	0.880308	0.061844	0.327543
H70	H	0.965472	0.000331	0.358931
H71	H	1.156736	-0.281094	-0.145428
H72	H	0.946248	-0.374619	-0.145452
O73	O	1.093497	-0.695260	0.166381
H74	H	1.182359	-0.724730	0.222109
H75	H	1.813487	-0.349191	0.145218
O76	O	1.788301	0.043076	0.368813
H77	H	1.852342	0.064535	0.453817
O78	O	2.050330	-0.270174	0.166403
H79	H	2.133727	-0.216448	0.152964
H80	H	1.636994	-0.088657	0.616455
O81	O	2.084085	-0.049010	-0.000067
H82	H	2.078614	0.034196	-0.069206
H83	H	1.331484	0.338347	0.369432
