data_functionalizedCrystal
_audit_creation_method	'MofGen! by Chris Wilmer'
_symmetry_space_group_name_H-M	'P1'
_symmetry_Int_Tables_number	1
_symmetry_cell_setting	triclinic
loop_
_symmetry_equiv_pos_as_xyz
  x,y,z
_cell_length_a	27.780903
_cell_length_b	27.780864
_cell_length_c	27.781022
_cell_angle_alpha	90.003823
_cell_angle_beta	120.001209
_cell_angle_gamma	59.999919
loop_
_atom_site_label
_atom_site_type_symbol
_atom_site_fract_x
_atom_site_fract_y
_atom_site_fract_z
O1	O	0.344537	0.410270	0.014330
O2	O	0.245967	0.340272	-0.014243
O3	O	0.344532	0.340272	0.084324
O4	O	0.245972	0.410270	-0.084236
O5	O	0.424589	0.260213	0.084319
O6	O	0.326024	0.260213	-0.014248
O7	O	0.424594	0.330211	0.014325
Zn8	Zn	0.388019	0.282501	0.000038
Zn9	Zn	0.282541	0.387982	0.000044
O10	O	0.326028	0.330212	-0.084241
C11	C	0.492846	0.550043	0.029975
C12	C	0.459057	0.613537	0.025892
C13	C	0.551183	0.520809	0.030382
C14	C	0.492841	0.462879	0.029967
C15	C	0.459048	0.433176	0.025876
C16	C	0.551179	0.433777	0.030374
C17	C	0.580009	0.462879	0.029970
C18	C	0.639416	0.433176	0.025881
C19	C	0.464148	0.520809	0.030379
C20	C	0.687409	0.409179	0.022577
C21	C	0.431759	0.664834	0.022592
C22	C	0.431745	0.409180	0.022569
C23	C	0.747620	0.379074	0.018432
C24	C	0.397512	0.729187	0.018454
C25	C	0.397493	0.379075	0.018421
C26	C	0.090569	0.550047	-0.372301
C27	C	0.031164	0.613541	-0.402000
C28	C	0.119396	0.520812	-0.314373
C29	C	0.177730	0.462884	-0.372309
C30	C	0.211520	0.433182	-0.402015
C31	C	0.206426	0.433781	-0.314380
C32	C	0.177732	0.462882	-0.285142
C33	C	0.211523	0.433179	-0.221650
C34	C	0.119395	0.520814	-0.401407
C35	C	0.238823	0.409181	-0.170354
C36	C	-0.016827	0.664838	-0.425992
C37	C	0.238819	0.409186	-0.426015
C38	C	0.273072	0.379076	-0.106001
C39	C	-0.077036	0.729192	-0.456092
C40	C	0.273066	0.379081	-0.456123
C41	C	0.177737	0.120428	-0.029854
C42	C	0.211532	0.056932	-0.025760
C43	C	0.206431	0.149664	-0.030264
C44	C	0.090565	0.207598	-0.029862
C45	C	0.031156	0.237304	-0.025778
C46	C	0.119392	0.236701	-0.030273
C47	C	0.177732	0.207597	-0.029863
C48	C	0.211522	0.237302	-0.025778
C49	C	0.119397	0.149665	-0.030264
C50	C	0.238821	0.261300	-0.022477
C51	C	0.238835	0.005632	-0.022451
C52	C	-0.016840	0.261303	-0.022476
C53	C	0.273069	0.291407	-0.018337
C54	C	0.273088	-0.058724	-0.018301
C55	C	-0.077054	0.291411	-0.018336
O56	O	0.905273	0.260218	-0.014248
O57	O	0.765287	0.330211	0.014335
O58	O	0.765273	0.330218	-0.084235
O59	O	0.905287	0.260211	0.084323
O60	O	0.765278	0.410275	-0.084227
O61	O	0.765292	0.410268	0.014343
O62	O	0.905278	0.340276	-0.014240
Zn63	Zn	0.835286	0.387983	0.000053
Zn64	Zn	0.835280	0.282504	0.000042
O65	O	0.905292	0.340269	0.084331
O66	O	0.326043	0.919515	-0.014212
O67	O	0.424612	0.750951	0.014357
O68	O	0.326042	0.849505	-0.084208
O69	O	0.424613	0.820961	0.084353
O70	O	0.245989	0.849502	-0.084197
O71	O	0.344559	0.750948	0.014367
O72	O	0.245990	0.919512	-0.014201
Zn73	Zn	0.282564	0.835229	0.000085
Zn74	Zn	0.388038	0.835233	0.000071
O75	O	0.344560	0.820958	0.084363
O76	O	0.344522	0.340281	-0.574994
O77	O	0.245964	0.410277	-0.504985
O78	O	0.344528	0.410278	-0.504984
O79	O	0.245958	0.340280	-0.574994
O80	O	0.424586	0.330218	-0.424932
O81	O	0.326022	0.330217	-0.424932
O82	O	0.424580	0.260222	-0.494941
Zn83	Zn	0.388012	0.282509	-0.447227
Zn84	Zn	0.282532	0.387990	-0.552699
O85	O	0.326016	0.260221	-0.494942
O86	O	-0.234698	0.919514	-0.494883
O87	O	-0.094704	0.750953	-0.424895
O88	O	-0.094698	0.849515	-0.424886
O89	O	-0.234704	0.820953	-0.494893
O90	O	-0.094699	0.849515	-0.504945
O91	O	-0.094705	0.750953	-0.504955
O92	O	-0.234698	0.919514	-0.574943
Zn93	Zn	-0.164701	0.835234	-0.552660
Zn94	Zn	-0.164701	0.835234	-0.447178
O95	O	-0.234704	0.820953	-0.574952
C96	C	0.579984	0.120444	0.372386
C97	C	0.639388	0.056950	0.402086
C98	C	0.551156	0.149679	0.401489
C99	C	0.492822	0.207607	0.285225
C100	C	0.459033	0.237309	0.221732
C101	C	0.464127	0.236710	0.314461
C102	C	0.492820	0.207609	0.372390
C103	C	0.459029	0.237313	0.402094
C104	C	0.551158	0.149677	0.314457
C105	C	0.431728	0.261310	0.426091
C106	C	0.687380	0.005653	0.426080
C107	C	0.431734	0.261304	0.170436
C108	C	0.397478	0.291417	0.456198
C109	C	0.747589	-0.058700	0.456182
C110	C	0.397487	0.291408	0.106083
C111	C	0.492791	0.550073	-0.372280
C112	C	0.459000	0.613568	-0.401975
C113	C	0.464087	0.520842	-0.401383
C114	C	0.579964	0.462903	-0.285126
C115	C	0.639381	0.433194	-0.221636
C116	C	0.551128	0.433804	-0.314362
C117	C	0.492782	0.462911	-0.372287
C118	C	0.458983	0.433211	-0.401991
C119	C	0.551136	0.520834	-0.314354
C120	C	0.431676	0.409217	-0.425988
C121	C	0.431701	0.664865	-0.425966
C122	C	0.687382	0.409194	-0.170342
C123	C	0.397418	0.379116	-0.456094
C124	C	0.397452	0.729220	-0.456063
C125	C	0.747603	0.379083	-0.105993
C126	C	1.177780	0.207578	0.372383
C127	C	1.211576	0.237279	0.402088
C128	C	1.206479	0.149646	0.401479
C129	C	1.090601	0.207584	0.285221
C130	C	1.031185	0.237292	0.221731
C131	C	1.119432	0.149652	0.314449
C132	C	1.177778	0.120413	0.372374
C133	C	1.211571	0.056917	0.402068
C134	C	1.119434	0.236684	0.314458
C135	C	1.238873	0.005618	0.426058
C136	C	1.238881	0.261275	0.426086
C137	C	0.983183	0.261293	0.170438
C138	C	1.273125	-0.058738	0.456155
C139	C	1.273135	0.291378	0.456193
C140	C	0.922962	0.291403	0.106088
C141	C	0.090578	0.865096	-0.372266
C142	C	0.031174	0.861003	-0.401964
C143	C	0.119403	0.865501	-0.401373
C144	C	0.177743	0.865108	-0.285107
C145	C	0.211535	0.861027	-0.221614
C146	C	0.206435	0.865513	-0.314346
C147	C	0.177739	0.865099	-0.372275
C148	C	0.211527	0.861009	-0.401983
C149	C	0.119407	0.865510	-0.314337
C150	C	0.238825	0.857704	-0.425983
C151	C	-0.016818	0.857695	-0.425956
C152	C	0.238837	0.857730	-0.170318
C153	C	0.273071	0.853558	-0.456092
C154	C	-0.077027	0.853546	-0.456056
C155	C	0.273088	0.853593	-0.105964
O156	O	0.245929	0.919548	-0.574902
O157	O	0.344489	0.750985	-0.504922
O158	O	0.245944	0.849542	-0.504895
O159	O	0.344474	0.820991	-0.574928
O160	O	0.326017	0.849537	-0.424841
O161	O	0.424562	0.750980	-0.424868
O162	O	0.326002	0.919542	-0.494847
Zn163	Zn	0.387995	0.835260	-0.447147
Zn164	Zn	0.282496	0.835267	-0.552622
O165	O	0.424547	0.820985	-0.494874
C166	C	0.492865	0.805363	0.372432
C167	C	0.459078	0.809453	0.402139
C168	C	0.551201	0.804961	0.401529
C169	C	0.492860	0.805355	0.285263
C170	C	0.459067	0.809435	0.221770
C171	C	0.551196	0.804952	0.314493
C172	C	0.580025	0.805366	0.372422
C173	C	0.639430	0.809459	0.402119
C174	C	0.464169	0.804949	0.314502
C175	C	0.687422	0.812767	0.426111
C176	C	0.431780	0.812759	0.426140
C177	C	0.431765	0.812733	0.170473
C178	C	0.747630	0.816916	0.456210
C179	C	0.397535	0.816904	0.456250
C180	C	0.397514	0.816869	0.106120
H181	H	0.253365	0.386183	-0.290916
H182	H	0.575276	0.126197	0.290981
C183	C	0.583780	0.552511	0.031259
C184	C	0.657708	0.527082	0.082607
C185	C	0.690304	0.558780	0.083478
C186	C	0.648973	0.615907	0.033000
C187	C	0.575041	0.641339	-0.018352
C188	C	0.542445	0.609641	-0.019223
H189	H	0.688307	0.484790	0.119977
H190	H	0.745033	0.539954	0.121492
H191	H	0.673102	0.639372	0.033645
H192	H	0.544442	0.683631	-0.055722
H193	H	0.487716	0.628467	-0.057237
C194	C	1.086837	0.300984	0.282745
C195	C	1.128163	0.316784	0.273590
C196	C	1.095566	0.381078	0.241871
C197	C	1.021644	0.429572	0.219308
C198	C	0.980314	0.413773	0.228463
C199	C	1.012910	0.349479	0.260181
H200	H	1.182888	0.280885	0.290293
H201	H	1.126162	0.392773	0.235094
H202	H	0.997514	0.477167	0.195828
H203	H	0.925588	0.449672	0.211760
H204	H	0.982315	0.337784	0.266958
C205	C	0.269850	0.117957	-0.031147
C206	C	0.301546	0.150115	-0.031599
C207	C	0.364962	0.118410	-0.032482
C208	C	0.396681	0.054548	-0.032911
C209	C	0.364985	0.022387	-0.032458
C210	C	0.301569	0.054091	-0.031576
H211	H	0.278065	0.197393	-0.031281
H212	H	0.388425	0.142219	-0.032817
H213	H	0.443626	0.031079	-0.033564
H214	H	0.388466	-0.024891	-0.032776
H215	H	0.278106	0.030282	-0.031241
H216	H	1.095302	0.126183	0.290972
H217	H	0.575299	0.386180	0.031022
C218	C	0.400736	0.552511	0.031271
C219	C	0.369026	0.616368	0.031717
C220	C	0.305619	0.648067	0.032612
C221	C	0.273922	0.615909	0.033062
C222	C	0.305632	0.552049	0.032617
C223	C	0.369039	0.520350	0.031721
H224	H	0.392490	0.640177	0.031383
H225	H	0.282145	0.695341	0.032941
H226	H	0.226984	0.639375	0.033724
H227	H	0.282168	0.528240	0.032950
H228	H	0.392513	0.473076	0.031392
H229	H	0.575321	0.804320	0.449123
H230	H	1.253424	0.126175	0.449075
H231	H	0.417226	0.804292	0.291037
H232	H	0.575256	0.386206	-0.290893
C233	C	0.086805	0.552515	-0.465707
C234	C	0.128146	0.561639	-0.481512
C235	C	0.095560	0.593336	-0.545810
C236	C	0.021633	0.615909	-0.594303
C237	C	-0.019712	0.606786	-0.578501
C238	C	0.012874	0.575089	-0.514203
H239	H	0.182875	0.544928	-0.445612
H240	H	0.126166	0.600089	-0.557508
H241	H	-0.002489	0.639373	-0.641901
H242	H	-0.074441	0.623497	-0.614400
H243	H	-0.017733	0.568336	-0.502505
C244	C	0.086809	0.552516	-0.282658
C245	C	0.022516	0.616375	-0.314797
C246	C	-0.010068	0.648076	-0.283082
C247	C	0.021640	0.615919	-0.219229
C248	C	0.085936	0.552057	-0.187087
C249	C	0.118520	0.520355	-0.218802
H250	H	-0.000959	0.640183	-0.362068
H251	H	-0.057665	0.695352	-0.306876
H252	H	-0.002481	0.639386	-0.195752
H253	H	0.109411	0.528249	-0.139816
H254	H	0.166117	0.473080	-0.195008
C255	C	0.400662	0.552551	-0.465679
C256	C	0.368956	0.520398	-0.497828
C257	C	0.305534	0.552105	-0.562121
C258	C	0.273819	0.615964	-0.594266
C259	C	0.305525	0.648121	-0.562117
C260	C	0.368947	0.616414	-0.497824
H261	H	0.392433	0.473122	-0.474033
H262	H	0.282063	0.528300	-0.585919
H263	H	0.226870	0.639435	-0.641860
H264	H	0.282048	0.695397	-0.585913
H265	H	0.392418	0.640219	-0.474026
H266	H	0.095258	0.284302	-0.030935
C267	C	0.086819	0.866373	-0.465671
C268	C	0.060893	0.917723	-0.514169
C269	C	0.028316	0.918592	-0.578463
C270	C	0.021664	0.868111	-0.594259
C271	C	0.047590	0.816758	-0.545760
C272	C	0.080168	0.815889	-0.481466
H273	H	0.065817	0.955095	-0.502476
H274	H	0.009123	0.956607	-0.614365
H275	H	-0.002452	0.868755	-0.641854
H276	H	0.042667	0.779386	-0.557452
H277	H	0.099360	0.777874	-0.445564
C278	C	0.086821	0.866397	-0.282622
C279	C	0.022528	0.866828	-0.314760
C280	C	-0.010056	0.867715	-0.283044
C281	C	0.021653	0.868171	-0.219191
C282	C	0.085950	0.867741	-0.187050
C283	C	0.118533	0.866854	-0.218765
H284	H	-0.000949	0.866490	-0.362031
H285	H	-0.057653	0.868033	-0.306838
H286	H	-0.002467	0.868828	-0.195713
H287	H	0.109426	0.868079	-0.139778
H288	H	0.166130	0.866536	-0.194971
C289	C	0.583743	0.552534	-0.282643
C290	C	0.552036	0.616393	-0.314780
C291	C	0.584643	0.648090	-0.283069
C292	C	0.648958	0.615928	-0.219221
C293	C	0.680668	0.552065	-0.187080
C294	C	0.648061	0.520368	-0.218791
H295	H	0.504424	0.640205	-0.362048
H296	H	0.561169	0.695366	-0.306862
H297	H	0.673095	0.639392	-0.195746
H298	H	0.728280	0.528253	-0.139812
H299	H	0.671535	0.473092	-0.194998
H300	H	0.253377	0.866172	-0.290877
H301	H	0.575323	0.804287	0.291018
C302	C	0.583756	0.117982	0.465794
C303	C	0.648058	0.054128	0.497947
C304	C	0.680660	0.022437	0.562252
C305	C	0.648961	0.054599	0.594405
C306	C	0.584656	0.118456	0.562252
C307	C	0.552053	0.150148	0.497947
H308	H	0.671527	0.030316	0.474146
H309	H	0.728264	-0.024835	0.586053
H310	H	0.673095	0.031139	0.642007
H311	H	0.561187	0.142268	0.586053
H312	H	0.504450	0.197420	0.474146
C313	C	0.086798	0.117962	-0.031148
C314	C	0.080113	0.108848	0.019316
C315	C	0.047513	0.077150	0.018431
C316	C	0.021598	0.054565	-0.032916
C317	C	0.028282	0.063679	-0.083383
C318	C	0.060882	0.095377	-0.082499
H319	H	0.099298	0.125567	0.057329
H320	H	0.042565	0.070404	0.055791
H321	H	-0.002535	0.031100	-0.033570
H322	H	0.009097	0.046960	-0.121396
H323	H	0.065830	0.102123	-0.119858
C324	C	0.400715	0.301011	0.282760
C325	C	0.369003	0.333162	0.218903
C326	C	0.305595	0.397461	0.187206
C327	C	0.273899	0.429609	0.219365
C328	C	0.305611	0.397459	0.283225
C329	C	0.369019	0.333160	0.314923
H330	H	0.392467	0.309364	0.195094
H331	H	0.282120	0.421261	0.139932
H332	H	0.226960	0.477207	0.195901
H333	H	0.282147	0.421257	0.307035
H334	H	0.392494	0.309360	0.362197
