data_functionalizedCrystal
_audit_creation_method	'MofGen! by Chris Wilmer'
_symmetry_space_group_name_H-M	'P1'
_symmetry_Int_Tables_number	1
_symmetry_cell_setting	triclinic
loop_
_symmetry_equiv_pos_as_xyz
  x,y,z
_cell_length_a	27.732048
_cell_length_b	27.732048
_cell_length_c	26.210047
_cell_angle_alpha	90.000479
_cell_angle_beta	89.996535
_cell_angle_gamma	97.357345
loop_
_atom_site_label
_atom_site_type_symbol
_atom_site_fract_x
_atom_site_fract_y
_atom_site_fract_z
O1	O	0.640931	-0.057510	-0.042369
O2	O	1.140931	0.442490	0.457631
O3	O	0.500138	-0.066256	-0.042385
O4	O	1.000138	0.433744	0.457615
O5	O	0.574907	0.008514	-0.042367
O6	O	1.074907	0.508514	0.457633
O7	O	0.566162	-0.132279	-0.042387
O8	O	1.066162	0.367721	0.457613
O9	O	0.574893	0.008502	0.042491
O10	O	1.074893	0.508502	0.542491
O11	O	0.500123	-0.066267	0.042473
O12	O	1.000123	0.433733	0.542473
O13	O	0.640917	-0.057522	0.042489
O14	O	1.140917	0.442478	0.542489
Cu15	Cu	0.570519	-0.061896	0.050229
Cu16	Cu	1.070519	0.438104	0.550229
Cu17	Cu	0.570536	-0.061882	-0.050125
Cu18	Cu	1.070536	0.438118	0.449875
O19	O	0.566147	-0.132291	0.042471
O20	O	1.066147	0.367709	0.542471
C21	C	0.482124	-0.066078	0.000042
C22	C	0.982124	0.433922	0.500042
C23	C	0.428469	-0.065525	0.000036
C24	C	0.928469	0.434475	0.500036
C25	C	0.089654	-0.106229	0.000053
C26	C	0.589654	0.393771	0.500053
C27	C	-0.112006	-0.104178	0.000057
C28	C	0.387994	0.395822	0.500057
O29	O	-0.143262	-0.141398	0.000074
O30	O	0.356738	0.358602	0.500074
N31	N	-0.131130	-0.059843	0.000063
N32	N	0.368870	0.440157	0.500063
C33	C	-0.099835	-0.016017	0.000071
C34	C	0.400165	0.483983	0.500071
O35	O	-0.120728	0.021740	0.000081
O36	O	0.379272	0.521740	0.500081
C37	C	0.101824	-0.018068	0.000069
C38	C	0.601824	0.481932	0.500069
C39	C	0.120944	-0.062407	0.000059
C40	C	0.620944	0.437593	0.500059
C41	C	0.108775	-0.150563	0.000043
C42	C	0.608775	0.349437	0.500043
C43	C	0.159187	-0.151076	0.000039
C44	C	0.659187	0.348924	0.500039
C45	C	0.190477	-0.107253	0.000045
C46	C	0.690477	0.392747	0.500045
C47	C	0.171356	-0.062919	0.000055
C48	C	0.671356	0.437081	0.500055
C49	C	0.133117	0.025757	0.000081
C50	C	0.633117	0.525757	0.500081
C51	C	0.183535	0.025240	0.000082
C52	C	0.683535	0.525240	0.500082
C53	C	0.202655	-0.019098	0.000071
C54	C	0.702655	0.480902	0.500071
C55	C	0.253059	-0.019609	0.000057
C56	C	0.753059	0.480391	0.500057
N57	N	0.272183	-0.063944	0.000051
N58	N	0.772183	0.436056	0.500051
C59	C	0.240892	-0.107766	0.000045
C60	C	0.740892	0.392234	0.500045
C61	C	-0.205709	-0.014943	0.000070
C62	C	0.294291	0.485057	0.500070
C63	C	-0.256124	-0.014430	0.000070
C64	C	0.243876	0.485570	0.500070
C65	C	-0.268291	-0.102591	0.000057
C66	C	0.231709	0.397409	0.500057
C67	C	-0.217876	-0.103104	0.000054
C68	C	0.282124	0.396896	0.500054
C69	C	-0.186585	-0.059278	0.000065
C70	C	0.313415	0.440722	0.500065
C71	C	0.346761	-0.108839	0.000036
C72	C	0.846761	0.391161	0.500036
C73	C	0.397178	-0.109347	0.000030
C74	C	0.897178	0.390653	0.500030
C75	C	0.409341	-0.021186	0.000045
C76	C	0.909341	0.478814	0.500045
C77	C	0.358929	-0.020678	0.000049
C78	C	0.858929	0.479322	0.500049
C79	C	0.327639	-0.064508	0.000046
C80	C	0.827639	0.435492	0.500046
O81	O	0.284343	0.017592	0.000046
O82	O	0.784343	0.517592	0.500046
O83	O	0.261794	-0.145518	0.000047
O84	O	0.761794	0.354482	0.500047
C85	C	0.039242	-0.105716	0.000057
C86	C	0.539242	0.394284	0.500057
C87	C	0.020120	-0.061382	0.000067
C88	C	0.520120	0.438618	0.500067
C89	C	0.051411	-0.017560	0.000073
C90	C	0.551411	0.482440	0.500073
C91	C	-0.030294	-0.060869	0.000066
C92	C	0.469706	0.439131	0.500066
C93	C	-0.061585	-0.104691	0.000060
C94	C	0.438415	0.395309	0.500060
C95	C	-0.042461	-0.149026	0.000054
C96	C	0.457539	0.350974	0.500054
C97	C	0.007951	-0.149539	0.000050
C98	C	0.507951	0.350461	0.500050
C99	C	0.032287	0.026775	0.000078
C100	C	0.532287	0.526775	0.500078
C101	C	-0.018125	0.027284	0.000082
C102	C	0.481875	0.527284	0.500082
C103	C	-0.049416	-0.016538	0.000076
C104	C	0.450584	0.483462	0.500076
C105	C	0.574716	0.026515	0.000064
C106	C	1.074716	0.526515	0.500064
C107	C	0.574164	0.080170	0.000068
C108	C	1.074164	0.580170	0.500068
C109	C	0.658931	-0.057699	0.000061
C110	C	1.158931	0.442301	0.500061
C111	C	0.712586	-0.058252	0.000064
C112	C	1.212586	0.441748	0.500064
C113	C	0.566338	-0.150292	0.000040
C114	C	1.066338	0.349708	0.500040
C115	C	0.566891	-0.203947	0.000032
C116	C	1.066891	0.296053	0.500032
N117	N	0.570510	-0.061905	0.120813
N118	N	1.070510	0.438095	0.620813
C119	C	0.614867	0.418985	0.000046
C120	C	1.114867	0.918985	0.500046
C121	C	0.612816	0.620645	0.000039
C122	C	1.112816	1.120645	0.500039
O123	O	0.650037	0.651900	0.000021
O124	O	1.150037	1.151900	0.500021
N125	N	0.568481	0.639768	0.000034
N126	N	1.068481	1.139768	0.500034
C127	C	0.524656	0.608474	0.000028
C128	C	1.024656	1.108474	0.500028
O129	O	0.486899	0.629367	0.000019
O130	O	0.986899	1.129367	0.500019
C131	C	0.526707	0.406815	0.000032
C132	C	1.026707	0.906815	0.500032
C133	C	0.571045	0.387694	0.000042
C134	C	1.071045	0.887694	0.500042
C135	C	0.659202	0.399864	0.000056
C136	C	1.159202	0.899864	0.500056
C137	C	0.659714	0.349452	0.000060
C138	C	1.159714	0.849452	0.500060
C139	C	0.615892	0.318161	0.000056
C140	C	1.115892	0.818161	0.500056
C141	C	0.571557	0.337282	0.000046
C142	C	1.071557	0.837282	0.500046
C143	C	0.482882	0.375521	0.000022
C144	C	0.982882	0.875521	0.500022
C145	C	0.483399	0.325104	0.000022
C146	C	0.983399	0.825104	0.500022
C147	C	0.527737	0.305983	0.000032
C148	C	1.027737	0.805983	0.500032
C149	C	0.528247	0.255580	0.000046
C150	C	1.028247	0.755580	0.500046
N151	N	0.572583	0.236456	0.000051
N152	N	1.072583	0.736456	0.500051
C153	C	0.616405	0.267747	0.000056
C154	C	1.116405	0.767747	0.500056
C155	C	0.523582	0.714348	0.000027
C156	C	1.023582	1.214348	0.500027
C157	C	0.523069	0.764762	0.000027
C158	C	1.023069	1.264762	0.500027
C159	C	0.611230	0.776930	0.000037
C160	C	1.111230	1.276930	0.500037
C161	C	0.611742	0.726514	0.000041
C162	C	1.111742	1.226514	0.500041
C163	C	0.567917	0.695224	0.000032
C164	C	1.067917	1.195224	0.500032
C165	C	0.617477	0.161878	0.000066
C166	C	1.117477	0.661878	0.500066
C167	C	0.617986	0.111461	0.000073
C168	C	1.117986	0.611461	0.500073
C169	C	0.529825	0.099298	0.000060
C170	C	1.029825	0.599298	0.500060
C171	C	0.529316	0.149710	0.000056
C172	C	1.029316	0.649710	0.500056
C173	C	0.573147	0.180999	0.000057
C174	C	1.073147	0.680999	0.500057
O175	O	0.491047	0.224296	0.000059
O176	O	0.991047	0.724296	0.500059
O177	O	0.654156	0.246844	0.000054
O178	O	1.154156	0.746844	0.500054
C179	C	0.614355	0.469397	0.000042
C180	C	1.114355	0.969397	0.500042
C181	C	0.570021	0.488518	0.000033
C182	C	1.070021	0.988518	0.500033
C183	C	0.526198	0.457228	0.000028
C184	C	1.026198	0.957228	0.500028
C185	C	0.569508	0.538933	0.000033
C186	C	1.069508	1.038933	0.500033
C187	C	0.613330	0.570223	0.000037
C188	C	1.113330	1.070223	0.500037
C189	C	0.657665	0.551100	0.000042
C190	C	1.157665	1.051100	0.500042
C191	C	0.658177	0.500688	0.000046
C192	C	1.158177	1.000688	0.500046
C193	C	0.481863	0.476351	0.000023
C194	C	0.981863	0.976351	0.500023
C195	C	0.481355	0.526764	0.000019
C196	C	0.981355	1.026764	0.500019
C197	C	0.525177	0.558054	0.000024
C198	C	1.025177	1.058054	0.500024
N199	N	0.570548	-0.061868	-0.120709
N200	N	1.070548	0.438132	0.379291
C201	C	0.603640	-0.028781	0.473336
C202	C	1.103640	0.471219	0.973336
C203	C	0.603651	-0.028774	0.686994
C204	C	1.103651	0.471226	1.186994
O205	O	0.631801	-0.000614	0.714623
O206	O	1.131801	0.499386	1.214623
N207	N	0.570538	-0.061871	0.713707
N208	N	1.070538	0.438129	1.213707
C209	C	0.537419	-0.094970	0.687003
C210	C	1.037419	0.405030	1.187003
O211	O	0.509251	-0.123117	0.714626
O212	O	1.009251	0.376883	1.214626
C213	C	0.537406	-0.094974	0.473345
C214	C	1.037406	0.405026	0.973345
C215	C	0.570524	-0.061878	0.446635
C216	C	1.070524	0.438122	0.946635
C217	C	0.636755	0.004312	0.446625
C218	C	1.136755	0.504312	0.946625
C219	C	0.636754	0.004308	0.393214
C220	C	1.136754	0.504308	0.893214
C221	C	0.603638	-0.028789	0.366513
C222	C	1.103638	0.471211	0.866513
C223	C	0.570523	-0.061882	0.393223
C224	C	1.070523	0.438118	0.893223
C225	C	0.504284	-0.128070	0.446641
C226	C	1.004284	0.371930	0.946641
C227	C	0.504283	-0.128067	0.393223
C228	C	1.004283	0.371933	0.893223
C229	C	0.537401	-0.094971	0.366513
C230	C	1.037401	0.405029	0.866513
C231	C	0.537405	-0.094983	0.313111
C232	C	1.037405	0.405017	0.813111
N233	N	0.570518	-0.061886	0.286397
N234	N	1.070518	0.438114	0.786397
C235	C	0.603634	-0.028789	0.313098
C236	C	1.103634	0.471211	0.813098
C237	C	0.537428	-0.094966	0.799176
C238	C	1.037428	0.405034	1.299176
C239	C	0.537432	-0.094965	0.852590
C240	C	1.037432	0.405035	1.352590
C241	C	0.603664	-0.028769	0.852578
C242	C	1.103664	0.471231	1.352578
C243	C	0.603662	-0.028773	0.799163
C244	C	1.103662	0.471227	1.299163
C245	C	0.570541	-0.061869	0.772463
C246	C	1.070541	0.438131	1.272463
C247	C	0.603629	-0.028800	0.200931
C248	C	1.103629	0.471200	0.700931
C249	C	0.603626	-0.028808	0.147514
C250	C	1.103626	0.471192	0.647514
C251	C	0.537393	-0.095002	0.147531
C252	C	1.037393	0.404998	0.647531
C253	C	0.537397	-0.094996	0.200943
C254	C	1.037397	0.405004	0.700943
C255	C	0.570517	-0.061891	0.227641
C256	C	1.070517	0.438109	0.727641
O257	O	0.509267	-0.123125	0.285449
O258	O	1.009267	0.376875	0.785449
O259	O	0.631790	-0.000639	0.285466
O260	O	1.131790	0.499361	0.785466
C261	C	0.603641	-0.028777	0.526747
C262	C	1.103641	0.471223	1.026747
C263	C	0.570527	-0.061871	0.553457
C264	C	1.070527	0.438129	1.053457
C265	C	0.537410	-0.094968	0.526756
C266	C	1.037410	0.405032	1.026756
C267	C	0.570530	-0.061870	0.606872
C268	C	1.070530	0.438130	1.106872
C269	C	0.603646	-0.028773	0.633573
C270	C	1.103646	0.471227	1.133573
C271	C	0.636759	0.004323	0.606859
C272	C	1.136759	0.504323	1.106859
C273	C	0.636758	0.004320	0.553448
C274	C	1.136758	0.504320	1.053448
C275	C	0.504298	-0.128064	0.553470
C276	C	1.004298	0.371936	1.053470
C277	C	0.504302	-0.128058	0.606881
C278	C	1.004302	0.371942	1.106881
C279	C	0.537418	-0.094961	0.633582
C280	C	1.037418	0.405039	1.133582
H281	H	0.343360	0.015426	0.000050
H282	H	0.843360	0.515426	0.500050
H283	H	0.630629	-0.001821	0.874327
H284	H	1.130629	0.498179	1.374327
H285	H	0.446777	0.391080	0.000011
H286	H	0.946777	0.891080	0.500011
H287	H	0.694282	0.485125	0.000054
H288	H	1.194282	0.985125	0.500054
H289	H	-0.271687	0.021674	0.000070
H290	H	0.228313	0.521674	0.500070
H291	H	0.510469	-0.121920	0.874334
H292	H	1.010469	0.378080	1.374334
C293	C	0.312738	-0.156389	-0.000050
C294	C	0.812738	0.343611	0.499950
C295	C	0.283433	-0.158659	-0.043701
C296	C	0.783433	0.341341	0.456299
C297	C	0.252082	-0.202451	-0.043799
C298	C	0.752082	0.297549	0.456201
H299	H	0.331291	-0.182903	-0.000084
H300	H	0.831291	0.317097	0.499916
H301	H	0.292788	-0.158035	0.029526
H302	H	0.792788	0.341965	0.529526
H303	H	0.303381	-0.157017	-0.073270
H304	H	0.803381	0.342983	0.426730
H305	H	0.264870	-0.132155	-0.043676
H306	H	0.764870	0.367845	0.456324
H307	H	0.232131	-0.204098	-0.014222
H308	H	0.732131	0.295902	0.485778
H309	H	0.270639	-0.228962	-0.043832
H310	H	0.770639	0.271038	0.456168
H311	H	0.232192	-0.203996	-0.073413
H312	H	0.732192	0.296004	0.426587
H313	H	0.663725	0.031269	0.531704
H314	H	1.163725	0.531269	1.031704
C315	C	0.501446	-0.130960	0.770284
C316	C	1.001446	0.369040	1.270284
C317	C	0.472462	-0.159949	0.805117
C318	C	0.972462	0.340051	1.305117
C319	C	0.439316	-0.193118	0.778523
C320	C	0.939316	0.306882	1.278523
H321	H	0.481404	-0.113771	0.749447
H322	H	0.981404	0.386229	1.249447
H323	H	0.518668	-0.150991	0.749456
H324	H	1.018668	0.349009	1.249456
H325	H	0.455241	-0.139920	0.825935
H326	H	0.955241	0.360080	1.325935
H327	H	0.492491	-0.177149	0.825954
H328	H	0.992491	0.322851	1.325954
H329	H	0.456538	-0.213149	0.757695
H330	H	0.956538	0.286851	1.257695
H331	H	0.419278	-0.175925	0.757687
H332	H	0.919278	0.324075	1.257687
H333	H	0.419650	-0.212794	0.802153
H334	H	0.919650	0.287206	1.302153
H335	H	0.653168	0.187348	0.000065
H336	H	1.153168	0.687348	0.500065
H337	H	0.647846	0.710950	0.000048
H338	H	1.147846	1.210950	0.500048
C339	C	0.112298	0.073860	0.000174
C340	C	0.612298	0.573860	0.500174
C341	C	0.083700	0.076719	0.043827
C342	C	0.583700	0.576719	0.543827
C343	C	0.064509	0.121025	0.043928
C344	C	0.564509	0.621025	0.543928
H345	H	0.138109	0.099924	0.000206
H346	H	0.638109	0.599924	0.500206
H347	H	0.092859	0.075907	-0.029401
H348	H	0.592859	0.575907	0.470599
H349	H	0.103138	0.074677	0.073395
H350	H	0.603138	0.574677	0.573395
H351	H	0.057881	0.050666	0.043804
H352	H	0.557881	0.550666	0.543804
H353	H	0.045070	0.123072	0.014352
H354	H	0.545070	0.623072	0.514352
H355	H	0.090323	0.147085	0.043959
H356	H	0.590323	0.647085	0.543959
H357	H	0.045099	0.122968	0.073543
H358	H	0.545099	0.622968	0.573543
C359	C	-0.171716	0.032627	0.000180
C360	C	0.328284	0.532627	0.500180
C361	C	-0.142428	0.034917	0.043844
C362	C	0.357572	0.534917	0.543844
C363	C	-0.111114	0.078734	0.043962
C364	C	0.388886	0.578734	0.543962
H365	H	-0.151749	0.034311	-0.029377
H366	H	0.348251	0.534311	0.470623
H367	H	-0.190313	0.059116	0.000209
H368	H	0.309687	0.559116	0.500209
H369	H	-0.123833	0.008435	0.043810
H370	H	0.376167	0.508435	0.543810
H371	H	-0.162382	0.033242	0.073408
H372	H	0.337618	0.533242	0.573408
H373	H	-0.129711	0.105222	0.043991
H374	H	0.370289	0.605222	0.543991
H375	H	-0.091151	0.080413	0.014403
H376	H	0.408849	0.580413	0.514403
H377	H	-0.091242	0.080295	0.073590
H378	H	0.408758	0.580295	0.573590
H379	H	0.477317	-0.155019	0.468381
H380	H	0.977317	0.344981	0.968381
H381	H	0.477311	-0.155018	0.371487
H382	H	0.977311	0.344982	0.871487
H383	H	0.630629	-0.001823	0.777418
H384	H	1.130629	0.498177	1.277418
H385	H	0.663725	0.031271	0.628608
H386	H	1.163725	0.531271	1.128608
C387	C	0.482233	0.065343	0.000156
C388	C	0.982233	0.565343	0.500156
C389	C	0.455504	0.073922	0.043813
C390	C	0.955504	0.573922	0.543813
C391	C	0.411663	0.042647	0.043917
C392	C	0.911663	0.542647	0.543917
H393	H	0.463988	0.071076	-0.029406
H394	H	0.963988	0.571076	0.470594
H395	H	0.488870	0.032573	0.000185
H396	H	0.988870	0.532573	0.500185
H397	H	0.448866	0.106684	0.043779
H398	H	0.948866	0.606684	0.543779
H399	H	0.473735	0.068186	0.073382
H400	H	0.973735	0.568186	0.573382
H401	H	0.418300	0.009877	0.043945
H402	H	0.918300	0.509877	0.543945
H403	H	0.393422	0.048382	0.014353
H404	H	0.893422	0.548382	0.514353
H405	H	0.393524	0.048460	0.073539
H406	H	0.893524	0.548460	0.573539
H407	H	0.434827	0.014492	0.000048
H408	H	0.934827	0.514492	0.500048
H409	H	0.654093	0.095896	0.000082
H410	H	1.154093	0.595896	0.500082
H411	H	0.209009	0.060929	0.000091
H412	H	0.709009	0.560929	0.500091
H413	H	0.693347	0.576585	0.000048
H414	H	1.193347	1.076585	0.500048
H415	H	0.663720	0.031259	0.371469
H416	H	1.163720	0.531259	0.871469
H417	H	-0.293777	-0.138273	0.000053
H418	H	0.206223	0.361727	0.500053
H419	H	0.663722	0.031266	0.468360
H420	H	1.163722	0.531266	0.968360
H421	H	0.630597	-0.001858	0.125768
H422	H	1.130597	0.498142	0.625768
C423	C	0.501386	-0.130948	0.229854
C424	C	1.001386	0.369052	0.729854
C425	C	0.472377	-0.159926	0.195034
C426	C	0.972377	0.340074	0.695034
C427	C	0.439188	-0.193042	0.221644
C428	C	0.939188	0.306958	0.721644
H429	H	0.518560	-0.150998	0.250697
H430	H	1.018560	0.349002	0.750697
H431	H	0.481370	-0.113703	0.250675
H432	H	0.981370	0.386297	0.750675
H433	H	0.492391	-0.177170	0.174222
H434	H	0.992391	0.322830	0.674222
H435	H	0.455192	-0.139890	0.174190
H436	H	0.955192	0.360110	0.674190
H437	H	0.419172	-0.175797	0.242465
H438	H	0.919172	0.324203	0.742465
H439	H	0.456366	-0.213088	0.242487
H440	H	0.956366	0.286912	0.742487
H441	H	0.419499	-0.212704	0.198024
H442	H	0.919499	0.287296	0.698024
H443	H	0.023514	-0.185643	0.000042
H444	H	0.523514	0.314357	0.500042
H445	H	0.174750	-0.187180	0.000030
H446	H	0.674750	0.312820	0.500030
H447	H	-0.067947	-0.184708	0.000047
H448	H	0.432053	0.315292	0.500047
H449	H	0.445246	0.542327	0.000016
H450	H	0.945246	1.042327	0.500016
H451	H	-0.033688	0.063392	0.000086
H452	H	0.466312	0.563392	0.500086
H453	H	0.447710	0.299629	0.000014
H454	H	0.947710	0.799629	0.500014
H455	H	0.694889	0.425336	0.000058
H456	H	1.194889	0.925336	0.500058
H457	H	0.486964	0.780325	0.000028
H458	H	0.986964	1.280325	0.500028
C459	C	0.074783	-0.198131	0.000136
C460	C	0.574783	0.301869	0.500136
C461	C	0.045485	-0.200436	0.043797
C462	C	0.545485	0.299564	0.543797
C463	C	0.014174	-0.244254	0.043899
C464	C	0.514174	0.255746	0.543899
H465	H	0.054822	-0.199807	-0.029423
H466	H	0.554822	0.300193	0.470577
H467	H	0.093381	-0.224619	0.000158
H468	H	0.593381	0.275381	0.500158
H469	H	0.026889	-0.173956	0.043771
H470	H	0.526889	0.326044	0.543771
H471	H	0.065433	-0.198769	0.073364
H472	H	0.565433	0.301231	0.573364
H473	H	0.032772	-0.270742	0.043920
H474	H	0.532772	0.229258	0.543920
H475	H	-0.005784	-0.245926	0.014338
H476	H	0.494216	0.254074	0.514338
H477	H	-0.005705	-0.245826	0.073525
H478	H	0.494295	0.254174	0.573525
H479	H	0.646911	0.802415	0.000041
H480	H	1.146911	1.302415	0.500041
H481	H	0.510432	-0.121951	0.125783
H482	H	1.010432	0.378049	0.625783
H483	H	0.477334	-0.155013	0.628625
H484	H	0.977334	0.344987	1.128625
H485	H	0.493213	0.165279	0.000062
H486	H	0.993213	0.665279	0.500062
H487	H	0.695819	0.333889	0.000066
H488	H	1.195819	0.833889	0.500066
C489	C	0.468321	-0.164057	0.524577
C490	C	0.968321	0.335943	1.024577
C491	C	0.439334	-0.193045	0.559410
C492	C	0.939334	0.306955	1.059410
C493	C	0.406191	-0.226216	0.532815
C494	C	0.906191	0.273784	1.032815
H495	H	0.448280	-0.146870	0.503738
H496	H	0.948280	0.353130	1.003738
H497	H	0.485545	-0.184090	0.503753
H498	H	0.985545	0.315910	1.003753
H499	H	0.422112	-0.173015	0.580225
H500	H	0.922112	0.326985	1.080225
H501	H	0.459362	-0.210243	0.580250
H502	H	0.959362	0.289757	1.080250
H503	H	0.423415	-0.246248	0.511991
H504	H	0.923415	0.253752	1.011991
H505	H	0.386154	-0.209024	0.511977
H506	H	0.886154	0.290976	1.011977
H507	H	0.386523	-0.245891	0.556445
H508	H	0.886523	0.254109	1.056445
H509	H	0.412743	-0.145454	0.000021
H510	H	0.912743	0.354546	0.500021
C511	C	-0.197212	-0.151292	0.000073
C512	C	0.302788	0.348708	0.500073
C513	C	-0.235412	-0.189556	0.000078
C514	C	0.264588	0.310444	0.500078
C515	C	-0.216399	-0.233956	0.000103
C516	C	0.283601	0.266044	0.500103
H517	H	-0.177803	-0.153392	-0.029510
H518	H	0.322197	0.346608	0.470490
H519	H	-0.177817	-0.153357	0.029678
H520	H	0.322183	0.346643	0.529678
H521	H	-0.254799	-0.187492	-0.029523
H522	H	0.245201	0.312508	0.470477
H523	H	-0.254824	-0.187472	0.029659
H524	H	0.245176	0.312528	0.529659
H525	H	-0.197004	-0.236021	0.029708
H526	H	0.302996	0.263979	0.529708
H527	H	-0.196990	-0.236051	-0.029480
H528	H	0.303010	0.263949	0.470520
H529	H	-0.242314	-0.259924	0.000112
H530	H	0.257686	0.240076	0.500112
H531	H	0.057760	0.062462	0.000085
H532	H	0.557760	0.562462	0.500085
H533	H	0.487892	0.688875	0.000020
H534	H	0.987892	1.188875	0.500020
H535	H	0.446177	0.450879	0.000018
H536	H	0.946177	0.950879	0.500018
H537	H	0.630598	-0.001842	0.222662
H538	H	1.130598	0.498158	0.722662
