data_functionalizedCrystal
_audit_creation_method	'MofGen! by Chris Wilmer'
_symmetry_space_group_name_H-M	'P1'
_symmetry_Int_Tables_number	1
_symmetry_cell_setting	triclinic
loop_
_symmetry_equiv_pos_as_xyz
  x,y,z
_cell_length_a	14.519731
_cell_length_b	14.044220
_cell_length_c	12.996460
_cell_angle_alpha	90.001035
_cell_angle_beta	90.006310
_cell_angle_gamma	88.438865
loop_
_atom_site_label
_atom_site_type_symbol
_atom_site_fract_x
_atom_site_fract_y
_atom_site_fract_z
O1	O	1.233889	0.124362	0.085572
O2	O	0.966594	0.138975	0.085574
O3	O	1.096229	-0.006323	0.085563
O4	O	1.104254	0.269660	0.085583
O5	O	1.096212	-0.006315	-0.085571
O6	O	0.966576	0.138983	-0.085560
O7	O	1.233872	0.124370	-0.085562
Cu8	Cu	1.100222	0.131677	-0.101187
Cu9	Cu	1.100243	0.131668	0.101199
O10	O	1.104236	0.269668	-0.085551
C11	C	0.932170	0.138295	0.000007
C12	C	0.829625	0.136243	0.000008
C13	C	1.092708	-0.041640	-0.000004
C14	C	1.082231	-0.146884	-0.000006
C15	C	0.746346	0.134575	0.000012
C16	C	0.641869	0.132492	0.000012
C17	C	0.558597	0.130839	0.000012
C18	C	0.454113	0.128756	0.000014
C19	C	1.063077	-0.339580	0.000009
C20	C	1.137385	-0.397081	0.000012
C21	C	1.126727	-0.504303	0.000020
C22	C	1.073733	-0.232347	0.000001
C23	C	1.268295	0.125050	0.000007
C24	C	1.370841	0.127102	0.000014
C25	C	1.107757	0.304985	0.000019
C26	C	1.118234	0.410229	0.000027
N27	N	1.100214	0.131684	-0.243534
C28	C	1.100219	0.131686	-0.336640
C29	C	1.100227	0.131680	-0.453445
C30	C	1.100238	0.131669	-0.546543
C31	C	1.100247	0.131664	-0.663356
N32	N	1.100258	0.131654	0.243546
H33	H	1.209006	-0.365783	0.000080
H34	H	0.991461	-0.370876	0.000012
