data_functionalizedCrystal
_audit_creation_method	'MofGen! by Chris Wilmer'
_symmetry_space_group_name_H-M	'P1'
_symmetry_Int_Tables_number	1
_symmetry_cell_setting	triclinic
loop_
_symmetry_equiv_pos_as_xyz
  x,y,z
_cell_length_a	14.044202
_cell_length_b	12.503572
_cell_length_c	16.992695
_cell_angle_alpha	86.236993
_cell_angle_beta	88.069538
_cell_angle_gamma	86.162225
loop_
_atom_site_label
_atom_site_type_symbol
_atom_site_fract_x
_atom_site_fract_y
_atom_site_fract_z
O1	O	-1.277252	0.089268	0.185905
O2	O	-0.777252	0.589268	0.685905
O3	O	-1.000764	0.089282	0.179039
O4	O	-0.500764	0.589282	0.679039
O5	O	-1.137899	0.089266	0.068252
O6	O	-0.637899	0.589266	0.568252
O7	O	-1.140117	0.089283	0.296692
O8	O	-0.640117	0.589283	0.796692
O9	O	-1.127587	-0.089375	0.076599
O10	O	-0.627587	0.410625	0.576599
O11	O	-0.990451	-0.089359	0.187386
O12	O	-0.490451	0.410641	0.687386
O13	O	-1.266940	-0.089373	0.194252
O14	O	-0.766940	0.410627	0.694252
Cu15	Cu	-1.127754	-0.105677	0.191581
Cu16	Cu	-0.627754	0.394323	0.691581
Cu17	Cu	-1.139950	0.105586	0.181710
Cu18	Cu	-0.639950	0.605586	0.681710
O19	O	-1.129805	-0.089358	0.305039
O20	O	-0.629805	0.410642	0.805039
C21	C	-0.960066	-0.000037	0.180210
C22	C	-0.460066	0.499963	0.680210
C23	C	-0.854162	-0.000032	0.171252
C24	C	-0.354162	0.499968	0.671252
C25	C	-0.607446	-0.000039	0.218397
C26	C	-0.107446	0.499961	0.718397
C27	C	-0.660264	-0.000042	0.154890
C28	C	-0.160264	0.499958	0.654890
C29	C	-0.768159	-0.000036	0.163996
C30	C	-0.268159	0.499964	0.663996
C31	C	-0.499542	-0.000044	0.209292
C32	C	0.000458	0.499956	0.709292
N33	N	-1.119183	-0.254269	0.198524
N34	N	-0.619183	0.245731	0.698524
C35	C	-1.106576	-0.473383	0.208744
C36	C	-0.606576	0.026617	0.708744
C37	C	-1.161132	-0.526716	0.164544
C38	C	-0.661132	-0.026716	0.664544
C39	C	-1.154117	-0.648638	0.170230
C40	C	-0.654117	-0.148638	0.670230
C41	C	-1.113590	-0.351449	0.203058
C42	C	-0.613590	0.148551	0.703058
C43	C	-0.307638	-0.000052	0.193080
C44	C	0.192362	0.499948	0.693080
C45	C	-0.413543	-0.000048	0.202032
C46	C	0.086457	0.499952	0.702032
C47	C	-1.129891	-0.000054	0.043014
C48	C	-0.629891	0.499946	0.543014
C49	C	-1.121383	-0.000053	-0.044626
C50	C	-0.621383	0.499947	0.455374
N51	N	-1.148527	0.254177	0.174761
N52	N	-0.648527	0.754177	0.674761
C53	C	-1.203479	-0.000058	-0.089122
C54	C	-0.703479	0.499942	0.410878
C55	C	-1.195479	-0.000048	-0.171469
C56	C	-0.695479	0.499952	0.328531
C57	C	-1.105382	-0.000040	-0.209318
C58	C	-0.605382	0.499960	0.290682
C59	C	-1.023279	-0.000031	-0.164816
C60	C	-0.523279	0.499969	0.335184
C61	C	-1.031280	-0.000034	-0.082471
C62	C	-0.531280	0.499966	0.417529
C63	C	-1.072220	-0.000023	-0.455237
C64	C	-0.572220	0.499977	0.044763
C65	C	-1.064225	-0.000024	-0.537588
C66	C	-0.564225	0.499976	-0.037588
C67	C	-1.236426	-0.000038	-0.544235
C68	C	-0.736426	0.499962	-0.044235
C69	C	-1.244419	-0.000048	-0.461887
C70	C	-0.744419	0.499952	0.038113
C71	C	-1.162317	-0.000033	-0.417393
C72	C	-0.662317	0.499967	0.082607
N73	N	-1.097202	-0.000032	-0.293489
N74	N	-0.597202	0.499968	0.206511
N75	N	-1.170498	-0.000033	-0.333224
N76	N	-0.670498	0.499967	0.166776
C77	C	-1.137813	-0.000035	0.330277
C78	C	-0.637813	0.499965	0.830277
C79	C	-1.146322	-0.000029	0.417917
C80	C	-0.646322	0.499971	0.917917
H81	H	-0.624457	0.000030	0.093677
H82	H	-0.124457	0.500030	0.593677
H83	H	-0.643257	-0.000031	0.279601
H84	H	-0.143257	0.499969	0.779601
H85	H	-1.213107	-0.480809	0.122433
H86	H	-0.713107	0.019191	0.622433
H87	H	-1.262331	-0.000055	-0.207694
H88	H	-0.762331	0.499945	0.292306
N89	N	-1.041380	-0.530978	0.261565
N90	N	-0.541380	-0.030978	0.761565
N91	N	-1.035706	-0.631375	0.266166
N92	N	-0.535706	-0.131375	0.766166
H93	H	-0.989664	-0.672065	0.303471
H94	H	-0.489664	-0.172065	0.803471
H95	H	-1.276846	-0.000072	-0.058311
H96	H	-0.776846	0.499928	0.441689
H97	H	-1.317786	-0.000054	-0.431077
H98	H	-0.817786	0.499946	0.068923
H99	H	-1.303269	-0.000048	-0.580471
H100	H	-0.803269	0.499952	-0.080471
H101	H	-0.990852	-0.000034	-0.568401
H102	H	-0.490852	0.499966	-0.068401
H103	H	-1.005366	-0.000012	-0.419019
H104	H	-0.505366	0.499988	0.080981
N105	N	-0.931254	-0.000010	-0.203488
N106	N	-0.431254	0.499990	0.296512
N107	N	-0.924120	-0.000007	-0.277010
N108	N	-0.424120	0.499993	0.222990
H109	H	-0.859125	0.000006	-0.304323
H110	H	-0.359125	0.500006	0.195677
H111	H	-0.964428	-0.000030	-0.046243
H112	H	-0.464428	0.499970	0.453757
