data_functionalizedCrystal
_audit_creation_method	'MofGen! by Chris Wilmer'
_symmetry_space_group_name_H-M	'P1'
_symmetry_Int_Tables_number	1
_symmetry_cell_setting	triclinic
loop_
_symmetry_equiv_pos_as_xyz
  x,y,z
_cell_length_a	11.792241
_cell_length_b	22.010155
_cell_length_c	11.792241
_cell_angle_alpha	89.995433
_cell_angle_beta	95.806584
_cell_angle_gamma	90.011508
loop_
_atom_site_label
_atom_site_type_symbol
_atom_site_fract_x
_atom_site_fract_y
_atom_site_fract_z
O1	O	1.506927	0.050466	-0.155565
O2	O	1.840261	0.383800	0.177768
O3	O	2.173594	0.717133	0.511101
O4	O	1.176586	0.050481	-0.171598
O5	O	1.509920	0.383814	0.161735
O6	O	1.843253	0.717147	0.495068
O7	O	1.349773	0.050469	0.001589
O8	O	1.683107	0.383802	0.334922
O9	O	2.016440	0.717136	0.668255
O10	O	1.333740	0.050478	-0.328752
O11	O	1.667074	0.383811	0.004581
O12	O	2.000407	0.717145	0.337914
O13	O	1.349721	-0.050581	0.001589
O14	O	1.683054	0.282752	0.334923
O15	O	2.016388	0.616085	0.668256
O16	O	1.176534	-0.050570	-0.171598
O17	O	1.509867	0.282764	0.161736
O18	O	1.843201	0.616097	0.495069
O19	O	1.506875	-0.050584	-0.155565
O20	O	1.840208	0.282749	0.177769
O21	O	2.173542	0.616083	0.511102
Cu22	Cu	1.341700	-0.059804	-0.163581
Cu23	Cu	1.675033	0.273530	0.169752
Cu24	Cu	2.008366	0.606863	0.503085
Cu25	Cu	1.341762	0.059700	-0.163582
Cu26	Cu	1.675095	0.393034	0.169751
Cu27	Cu	2.008428	0.726367	0.503085
O28	O	1.333688	-0.050572	-0.328752
O29	O	1.667021	0.282761	0.004582
O30	O	2.000355	0.616094	0.337915
C31	C	1.134269	-0.000043	-0.170591
C32	C	1.467603	0.333291	0.162742
C33	C	1.800936	0.666624	0.496076
C34	C	1.008255	-0.000038	-0.167576
C35	C	1.341589	0.333296	0.165757
C36	C	1.674922	0.666629	0.499090
N37	N	1.341664	-0.143856	-0.163580
N38	N	1.674998	0.189477	0.169753
N39	N	2.008331	0.522811	0.503087
C40	C	0.777543	-0.000055	-0.162034
C41	C	1.110877	0.333278	0.171300
C42	C	1.444210	0.666612	0.504633
C43	C	0.905928	-0.000045	-0.165113
C44	C	1.239262	0.333288	0.168220
C45	C	1.572595	0.666621	0.501553
C46	C	1.411023	-0.563637	-0.232873
C47	C	1.744357	-0.230303	0.100460
C48	C	2.077690	0.103030	0.433794
C49	C	1.411037	-0.627244	-0.232870
C50	C	1.744370	-0.293911	0.100463
C51	C	2.077703	0.039422	0.433796
O52	O	1.469968	-0.660137	-0.291778
O53	O	1.803301	-0.326803	0.041556
O54	O	2.136634	0.006530	0.374889
N55	N	1.341784	-0.659063	-0.163569
N56	N	1.675117	-0.325730	0.169764
N57	N	2.008450	0.007604	0.503098
C58	C	1.272522	-0.627271	-0.094257
C59	C	1.605855	-0.293938	0.239076
C60	C	1.939188	0.039395	0.572409
O61	O	1.213619	-0.660176	-0.035310
O62	O	1.546952	-0.326843	0.298023
O63	O	1.880285	0.006490	0.631356
C64	C	1.272515	-0.563665	-0.094255
C65	C	1.605848	-0.230331	0.239078
C66	C	1.939182	0.103002	0.572412
C67	C	1.341764	-0.531849	-0.163569
C68	C	1.675097	-0.198516	0.169764
C69	C	2.008431	0.134818	0.503097
C70	C	1.480268	-0.531821	-0.302181
C71	C	1.813601	-0.198488	0.031153
C72	C	2.146934	0.134846	0.364486
C73	C	1.480252	-0.468218	-0.302185
C74	C	1.813586	-0.134884	0.031149
C75	C	2.146919	0.198449	0.364482
C76	C	1.410993	-0.436430	-0.232881
C77	C	1.744326	-0.103097	0.100452
C78	C	2.077660	0.230236	0.433786
C79	C	1.341749	-0.468246	-0.163573
C80	C	1.675082	-0.134913	0.169760
C81	C	2.008415	0.198421	0.503093
C82	C	1.203260	-0.531874	-0.024938
C83	C	1.536593	-0.198541	0.308395
C84	C	1.869926	0.134793	0.641729
C85	C	1.203260	-0.468263	-0.024941
C86	C	1.536593	-0.134930	0.308392
C87	C	1.869927	0.198404	0.641726
C88	C	1.272509	-0.436448	-0.094255
C89	C	1.605842	-0.103114	0.239078
C90	C	1.939175	0.230219	0.572411
C91	C	1.272474	-0.372855	-0.094274
C92	C	1.605807	-0.039522	0.239060
C93	C	1.939141	0.293812	0.572393
N94	N	1.341727	-0.341036	-0.163575
N95	N	1.675060	-0.007703	0.169759
N96	N	2.008394	0.325630	0.503092
C97	C	1.410986	-0.372824	-0.232878
C98	C	1.744320	-0.039490	0.100455
C99	C	2.077653	0.293843	0.433788
C100	C	1.272542	-0.760849	-0.094267
C101	C	1.605875	-0.427516	0.239067
C102	C	1.939209	-0.094182	0.572400
C103	C	1.272542	-0.824454	-0.094274
C104	C	1.605875	-0.491121	0.239059
C105	C	1.939208	-0.157788	0.572392
C106	C	1.411059	-0.824423	-0.232886
C107	C	1.744392	-0.491090	0.100447
C108	C	2.077725	-0.157756	0.433781
C109	C	1.411052	-0.760816	-0.232883
C110	C	1.744386	-0.427483	0.100450
C111	C	2.077719	-0.094150	0.433783
C112	C	1.341795	-0.729030	-0.163568
C113	C	1.675128	-0.395697	0.169766
C114	C	2.008462	-0.062363	0.503099
C115	C	1.410949	-0.239252	-0.232882
C116	C	1.744282	0.094081	0.100451
C117	C	2.077615	0.427414	0.433784
C118	C	1.410924	-0.175644	-0.232884
C119	C	1.744257	0.157690	0.100450
C120	C	2.077590	0.491023	0.433783
C121	C	1.272412	-0.175680	-0.094268
C122	C	1.605745	0.157653	0.239065
C123	C	1.939078	0.490986	0.572398
C124	C	1.272432	-0.239284	-0.094271
C125	C	1.605765	0.094050	0.239062
C126	C	1.939098	0.427383	0.572396
C127	C	1.341709	-0.271068	-0.163581
C128	C	1.675042	0.062265	0.169752
C129	C	2.008376	0.395599	0.503085
O130	O	1.213577	-0.339922	-0.035393
O131	O	1.546910	-0.006589	0.297941
O132	O	1.880243	0.326744	0.631274
O133	O	1.469891	-0.339911	-0.291805
O134	O	1.803224	-0.006577	0.041529
O135	O	2.136557	0.326756	0.374862
C136	C	1.549192	-0.000059	-0.156572
C137	C	1.882525	0.333274	0.176761
C138	C	2.215859	0.666607	0.510095
C139	C	1.675206	-0.000061	-0.159587
C140	C	2.008539	0.333273	0.173747
C141	C	2.341872	0.666606	0.507080
C142	C	1.348740	-0.000056	0.043880
C143	C	1.682073	0.333277	0.377213
C144	C	2.015407	0.666611	0.710547
C145	C	1.345726	-0.000055	0.169894
C146	C	1.679059	0.333278	0.503227
C147	C	2.012392	0.666611	0.836560
N148	N	1.341806	0.143753	-0.163574
N149	N	1.675139	0.477086	0.169759
N150	N	2.008473	0.810419	0.503093
C151	C	1.334721	-0.000046	-0.371043
C152	C	1.668055	0.333287	-0.037710
C153	C	2.001388	0.666621	0.295624
C154	C	1.337736	-0.000043	-0.497057
C155	C	1.671069	0.333291	-0.163723
C156	C	2.004402	0.666624	0.169610
C157	C	1.340183	-0.000045	0.400606
C158	C	1.673516	0.333288	0.733939
C159	C	2.006849	0.666622	1.067272
C160	C	1.343262	-0.000051	0.272221
C161	C	1.676596	0.333283	0.605554
C162	C	2.009929	0.666616	0.938887
H163	H	1.467314	-0.149742	-0.289333
H164	H	1.800647	0.183591	0.044000
H165	H	2.133981	0.516925	0.377334
O166	O	1.485658	-0.273530	-0.307645
O167	O	1.818991	0.059803	0.025689
O168	O	2.152324	0.393136	0.359022
H169	H	1.533790	-0.240713	-0.355842
H170	H	1.867123	0.092621	-0.022509
H171	H	2.200457	0.425954	0.310825
H172	H	1.146862	-0.442386	0.031506
H173	H	1.480195	-0.109053	0.364840
H174	H	1.813528	0.224281	0.698173
O175	O	1.554947	-0.433905	-0.376940
O176	O	1.888281	-0.100572	-0.043606
O177	O	2.221614	0.232762	0.289727
H178	H	1.603110	-0.466704	-0.425117
H179	H	1.936443	-0.133370	-0.091784
H180	H	2.269777	0.199963	0.241550
O181	O	1.197838	-0.726581	-0.019479
O182	O	1.531171	-0.393247	0.313854
O183	O	1.864505	-0.059914	0.647188
H184	H	1.251883	-0.697610	0.041173
H185	H	1.585216	-0.364277	0.374506
H186	H	1.918550	-0.030943	0.707839
O187	O	1.485750	-0.726507	-0.307640
O188	O	1.819083	-0.393174	0.025693
O189	O	2.152417	-0.059840	0.359027
H190	H	1.431710	-0.697536	-0.368283
H191	H	1.765043	-0.364202	-0.034950
H192	H	2.098377	-0.030869	0.298384
O193	O	1.197788	-0.141390	-0.019443
O194	O	1.531121	0.191943	0.313890
O195	O	1.864455	0.525276	0.647223
H196	H	1.209456	-0.091817	-0.031060
H197	H	1.542790	0.241517	0.302273
H198	H	1.876123	0.574850	0.635606
H199	H	1.536673	-0.557696	-0.358616
H200	H	1.870006	-0.224362	-0.025283
H201	H	2.203340	0.108971	0.308050
H202	H	1.146871	-0.557767	0.031507
H203	H	1.480205	-0.224434	0.364840
H204	H	1.813538	0.108899	0.698173
O205	O	1.197742	-0.273606	-0.019517
O206	O	1.531075	0.059728	0.313817
O207	O	1.864409	0.393061	0.647150
H208	H	1.149583	-0.240813	0.028677
H209	H	1.482917	0.092521	0.362010
H210	H	1.816250	0.425854	0.695343
H211	H	1.467452	-0.850316	-0.289318
H212	H	1.800785	-0.516983	0.044015
H213	H	2.134119	-0.183649	0.377348
O214	O	1.197874	-0.858768	-0.019494
O215	O	1.531207	-0.525435	0.313840
O216	O	1.864541	-0.192101	0.647173
H217	H	1.149732	-0.825972	0.028709
H218	H	1.483066	-0.492638	0.362042
H219	H	1.816399	-0.159305	0.695376
