data_functionalizedCrystal
_audit_creation_method	'MofGen! by Chris Wilmer'
_symmetry_space_group_name_H-M	'P1'
_symmetry_Int_Tables_number	1
_symmetry_cell_setting	triclinic
loop_
_symmetry_equiv_pos_as_xyz
  x,y,z
_cell_length_a	13.897449
_cell_length_b	13.897441
_cell_length_c	13.032721
_cell_angle_alpha	82.848527
_cell_angle_beta	82.794330
_cell_angle_gamma	89.981404
loop_
_atom_site_label
_atom_site_type_symbol
_atom_site_fract_x
_atom_site_fract_y
_atom_site_fract_z
Zn1	Zn	1.425895	-0.594128	0.415982
Zn2	Zn	1.759228	-0.260795	0.749315
Zn3	Zn	2.092561	0.072538	1.082648
Zn4	Zn	1.405297	-0.453311	0.590754
Zn5	Zn	1.738630	-0.119977	0.924087
Zn6	Zn	2.071963	0.213356	1.257421
Zn7	Zn	1.264584	-0.432852	0.416028
Zn8	Zn	1.597918	-0.099519	0.749362
Zn9	Zn	1.931251	0.233814	1.082695
Zn10	Zn	1.244075	-0.614556	0.590688
Zn11	Zn	1.577409	-0.281222	0.924022
Zn12	Zn	1.910742	0.052111	1.257355
O13	O	1.334963	-0.523712	0.503363
O14	O	1.668296	-0.190378	0.836696
O15	O	2.001629	0.142955	1.170030
O16	O	1.558143	-0.575462	0.439173
O17	O	1.891476	-0.242128	0.772507
O18	O	2.224810	0.091205	1.105840
O19	O	1.386594	-0.315621	0.567623
O20	O	1.719927	0.017713	0.900957
O21	O	2.053260	0.351046	1.234290
O22	O	1.303186	-0.437135	0.269783
O23	O	1.636519	-0.103802	0.603117
O24	O	1.969852	0.229532	0.936450
O25	O	1.543010	-0.472004	0.567578
O26	O	1.876343	-0.138670	0.900911
O27	O	2.209676	0.194663	1.234245
O28	O	1.421700	-0.555624	0.269749
O29	O	1.755033	-0.222291	0.603082
O30	O	2.088366	0.111043	0.936416
O31	O	1.283213	-0.300590	0.439253
O32	O	1.616546	0.032743	0.772587
O33	O	1.949880	0.366077	1.105920
O34	O	1.126883	-0.456943	0.439189
O35	O	1.460216	-0.123609	0.772523
O36	O	1.793550	0.209724	1.105856
O37	O	1.268231	-0.746822	0.567466
O38	O	1.601565	-0.413489	0.900799
O39	O	1.934898	-0.080155	1.234133
O40	O	1.111815	-0.590439	0.567511
O41	O	1.445149	-0.257106	0.900845
O42	O	1.778482	0.076228	1.234178
O43	O	1.401813	-0.731814	0.439110
O44	O	1.735146	-0.398481	0.772443
O45	O	2.068480	-0.065148	1.105776
O46	O	1.366707	-0.491811	0.736984
O47	O	1.700040	-0.158478	1.070317
O48	O	2.033374	0.174856	1.403651
O49	O	1.248258	-0.610277	0.736936
O50	O	1.581592	-0.276944	1.070269
O51	O	1.914925	0.056390	1.403602
C52	C	1.084350	-0.523688	0.503349
C53	C	1.417683	-0.190355	0.836682
C54	C	1.751017	0.142979	1.170016
C55	C	0.977134	-0.523704	0.503368
C56	C	1.310467	-0.190370	0.836702
C57	C	1.643801	0.142963	1.170035
C58	C	1.303048	-0.555502	0.774878
C59	C	1.636382	-0.222168	1.108211
C60	C	1.969715	0.111165	1.441545
C61	C	1.289483	-0.569134	0.891033
C62	C	1.622817	-0.235800	1.224366
C63	C	1.956150	0.097533	1.557700
C64	C	1.335032	-0.775295	0.503275
C65	C	1.668365	-0.441961	0.836609
C66	C	2.001699	-0.108628	1.169942
C67	C	1.335062	-0.882504	0.503238
C68	C	1.668395	-0.549171	0.836571
C69	C	2.001728	-0.215838	1.169905
C70	C	0.780838	-0.523730	0.503372
C71	C	1.114172	-0.190396	0.836705
C72	C	1.447505	0.142937	1.170039
C73	C	0.890071	-0.523712	0.503367
C74	C	1.223405	-0.190379	0.836700
C75	C	1.556738	0.142954	1.170033
C76	C	1.586554	-0.523736	0.503378
C77	C	1.919887	-0.190403	0.836711
C78	C	2.253221	0.142931	1.170045
C79	C	1.693767	-0.523746	0.503384
C80	C	2.027100	-0.190413	0.836717
C81	C	2.360434	0.142920	1.170051
C82	C	1.335085	-0.969571	0.503208
C83	C	1.668418	-0.636237	0.836542
C84	C	2.001752	-0.302904	1.169875
C85	C	1.335118	-1.078798	0.503161
C86	C	1.668451	-0.745464	0.836495
C87	C	2.001785	-0.412131	1.169828
C88	C	1.334958	-0.273099	0.503375
C89	C	1.668291	0.060235	0.836708
C90	C	2.001625	0.393568	1.170042
C91	C	1.335150	-0.165855	0.503118
C92	C	1.668483	0.167478	0.836451
C93	C	2.001817	0.500811	1.169785
C94	C	1.367028	-0.491819	0.230788
C95	C	1.700362	-0.158486	0.564121
C96	C	2.033695	0.174848	0.897455
C97	C	1.380693	-0.478228	0.114633
C98	C	1.714026	-0.144895	0.447966
C99	C	2.047359	0.188439	0.781299
C100	C	1.342094	-0.516640	0.942808
C101	C	1.675427	-0.183307	1.276141
C102	C	2.008760	0.150026	1.609475
C103	C	1.328075	-0.530729	1.062861
C104	C	1.661408	-0.197395	1.396194
C105	C	1.994742	0.135938	1.729527
H106	H	1.397518	-0.461272	0.898259
H107	H	1.730851	-0.127939	1.231592
H108	H	2.064185	0.205394	1.564925
Br109	Br	1.235705	-0.623034	1.137101
Br110	Br	1.569038	-0.289700	1.470435
Br111	Br	1.902371	0.043633	1.803768
Br112	Br	1.473079	-0.385938	1.040395
Br113	Br	1.806412	-0.052604	1.373728
Br114	Br	2.139746	0.280729	1.707062
Br115	Br	1.197117	-0.661435	0.965278
Br116	Br	1.530450	-0.328101	1.298611
Br117	Br	1.863784	0.005232	1.631945
