data_functionalizedCrystal
_audit_creation_method	'MofGen! by Chris Wilmer'
_symmetry_space_group_name_H-M	'P1'
_symmetry_Int_Tables_number	1
_symmetry_cell_setting	triclinic
loop_
_symmetry_equiv_pos_as_xyz
  x,y,z
_cell_length_a	6.817900
_cell_length_b	12.840933
_cell_length_c	19.453103
_cell_angle_alpha	81.227373
_cell_angle_beta	101.709178
_cell_angle_gamma	88.345099
loop_
_atom_site_label
_atom_site_type_symbol
_atom_site_fract_x
_atom_site_fract_y
_atom_site_fract_z
V1	V	-3.889246	0.325707	-0.098838
O2	O	-3.888583	0.319008	0.003047
O3	O	-3.832849	0.323959	-0.194342
O4	O	-3.784909	0.467540	-0.098065
O5	O	-3.936855	0.174433	-0.093897
V6	V	-4.381158	0.307555	-0.086563
O7	O	-4.132102	0.365524	-0.125764
O8	O	-4.588499	0.267737	-0.059637
O9	O	-4.214348	0.309303	0.008941
O10	O	-4.499217	0.314254	-0.188449
O11	O	-4.450946	0.458829	-0.091505
O12	O	-4.262288	0.165722	-0.087337
C13	C	-3.677714	0.318945	-0.217601
C14	C	-3.712517	0.318461	-0.295681
C15	C	-3.616575	0.502095	-0.094786
C16	C	-3.612422	0.620227	-0.094785
C17	C	-4.093964	0.131161	-0.090614
C18	C	-4.076968	0.013029	-0.090613
C19	C	-3.908584	0.323450	-0.335962
C20	C	-3.941286	0.323006	-0.409328
C21	C	-3.777908	0.317552	-0.442408
C22	C	-3.581813	0.312569	-0.402119
C23	C	-3.549118	0.313023	-0.328755
N24	N	-3.694491	0.253272	-0.548346
N25	N	-3.725563	0.252839	-0.618038
C26	C	-3.876407	0.316185	-0.663448
N27	N	-3.995036	0.379969	-0.636533
N28	N	-3.963967	0.380398	-0.566834
C29	C	-3.813341	0.317060	-0.521958
C30	C	-4.107945	0.320694	-0.783282
C31	C	-4.140640	0.320257	-0.856650
C32	C	-3.781162	0.309809	-0.849438
C33	C	-3.748473	0.310257	-0.776072
C34	C	-3.911872	0.315695	-0.742998
V35	V	-3.872194	0.811871	-0.098843
O36	O	-3.909184	0.963052	-0.093900
O37	O	-3.778004	0.664684	-0.098070
O38	O	-3.814258	0.853751	-0.194346
O39	O	-3.872679	0.772675	0.003041
V40	V	-4.362160	0.849255	-0.086572
O41	O	-4.116987	0.796479	-0.125771
O42	O	-4.566769	0.887333	-0.059648
O43	O	-4.233536	0.985195	-0.087343
O44	O	-4.442359	0.703990	-0.091516
O45	O	-4.478864	0.894366	-0.188458
O46	O	-4.197282	0.796127	0.008932
C47	C	-4.032826	0.314314	0.032195
C48	C	-3.977259	0.314805	0.110275
C49	C	-3.658674	0.861402	-0.217599
C50	C	-3.692142	0.898783	-0.295678
C51	C	-4.016801	0.771508	0.032192
C52	C	-3.962609	0.733090	0.110273
C53	C	-3.887593	0.921810	-0.335954
C54	C	-3.919066	0.956949	-0.409316
C55	C	-3.755087	0.969053	-0.442403
C56	C	-3.559619	0.946027	-0.402122
C57	C	-3.528148	0.910896	-0.328760
C58	C	-3.762772	0.702643	0.143345
C59	C	-3.711821	0.666558	0.216712
C60	C	-3.860713	0.660913	0.257003
C61	C	-4.060566	0.691366	0.223926
C62	C	-4.111512	0.727458	0.150562
H63	H	-4.041640	0.327885	-0.309039
H64	H	-4.100952	0.327068	-0.442131
H65	H	-3.648136	0.305375	-0.876371
C66	C	-4.053106	0.974078	-0.247706
C67	C	-4.067863	0.908515	-0.299594
H68	H	-4.164402	0.965870	-0.225261
H69	H	-4.052713	1.045496	-0.269444
H70	H	-3.932205	0.955319	-0.213216
H71	H	-4.188758	0.927280	-0.334088
H72	H	-4.068276	0.837081	-0.277856
H73	H	-4.274242	0.752241	0.123640
H74	H	-4.078238	0.975690	-0.442104
C75	C	-3.995898	1.025303	-0.551404
C76	C	-3.789703	1.007659	-0.523047
H77	H	-4.017273	1.049128	-0.601191
H78	H	-4.049945	1.077327	-0.529406
H79	H	-4.060307	0.961413	-0.542856
H80	H	-3.725295	1.071552	-0.531590
H81	H	-3.735632	0.955632	-0.545052
C82	C	-3.270622	0.862086	-0.428518
C83	C	-3.379387	0.959320	-0.438501
H84	H	-3.159352	0.870290	-0.450977
H85	H	-3.354832	0.812149	-0.448744
H86	H	-3.223889	0.837885	-0.379061
H87	H	-3.426132	0.983517	-0.487959
H88	H	-3.295161	1.009273	-0.418278
H89	H	-3.368989	0.892145	-0.295974
C90	C	-3.718725	0.517933	0.350204
C91	C	-3.804698	0.621226	0.337645
H92	H	-3.684148	0.493429	0.399988
H93	H	-3.601469	0.516952	0.330939
H94	H	-3.812271	0.473364	0.328209
H95	H	-3.711145	0.665797	0.359635
H96	H	-3.921969	0.622215	0.356918
H97	H	-3.448792	0.308131	-0.429058
H98	H	-3.641509	0.707238	0.110549
H99	H	-4.300305	0.324326	-0.889447
C100	C	-3.231193	0.214124	-0.290106
C101	C	-3.333584	0.307527	-0.284472
H102	H	-3.098135	0.210728	-0.262762
H103	H	-3.227281	0.213087	-0.338528
H104	H	-3.298709	0.155211	-0.272837
H105	H	-3.266076	0.366441	-0.301746
H106	H	-3.337485	0.308574	-0.236040
C107	C	-4.137274	0.647025	0.339595
C108	C	-4.224218	0.685145	0.268221
H109	H	-4.238311	0.643174	0.366939
H110	H	-4.039712	0.693349	0.356857
H111	H	-4.074862	0.578690	0.343395
H112	H	-4.286618	0.753484	0.264421
H113	H	-4.321816	0.638820	0.250954
H114	H	-4.240995	0.325120	-0.756351
H115	H	-3.588815	0.306188	-0.743274
H116	H	-3.549083	0.641764	0.243632
