data_functionalizedCrystal
_audit_creation_method	'MofGen! by Chris Wilmer'
_symmetry_space_group_name_H-M	'P1'
_symmetry_Int_Tables_number	1
_symmetry_cell_setting	triclinic
loop_
_symmetry_equiv_pos_as_xyz
  x,y,z
_cell_length_a	11.792254
_cell_length_b	11.792240
_cell_length_c	14.472310
_cell_angle_alpha	89.989639
_cell_angle_beta	89.985749
_cell_angle_gamma	84.196007
loop_
_atom_site_label
_atom_site_type_symbol
_atom_site_fract_x
_atom_site_fract_y
_atom_site_fract_z
O1	O	-1.506915	-0.155629	0.076888
O2	O	-1.176576	-0.171647	0.076886
O3	O	-1.349762	0.001533	0.076859
O4	O	-1.333729	-0.328808	0.076915
O5	O	-1.349717	0.001523	-0.076823
O6	O	-1.176531	-0.171656	-0.076796
O7	O	-1.506870	-0.155638	-0.076794
Cu8	Cu	-1.341697	-0.163648	-0.090827
Cu9	Cu	-1.341750	-0.163637	0.090919
O10	O	-1.333684	-0.328818	-0.076767
C11	C	-1.134263	-0.170642	0.000044
C12	C	-1.008250	-0.167622	0.000042
C13	C	-1.348732	0.043819	0.000013
C14	C	-1.345718	0.169832	-0.000003
N15	N	-1.341668	-0.163656	-0.218658
C16	C	-0.905913	-0.165168	0.000044
C17	C	-0.777527	-0.162100	0.000042
C18	C	-0.549183	-0.156643	0.000045
C19	C	-0.675196	-0.159663	0.000040
C20	C	-1.340175	0.400545	-0.000018
C21	C	-1.343255	0.272160	-0.000009
C22	C	-1.334714	0.628896	0.000048
C23	C	-1.337728	0.502883	-0.000028
C24	C	-1.341748	-0.163632	-0.592750
C25	C	-1.248765	-0.255982	-0.553569
C26	C	-1.248983	-0.256322	-0.446481
C27	C	-1.341707	-0.163644	-0.407159
C28	C	-1.460294	-0.190245	-0.445990
C29	C	-1.459772	-0.190902	-0.553111
C30	C	-1.317199	-0.044413	-0.553300
C31	C	-1.314488	-0.045190	-0.446172
C32	C	-1.341692	-0.163648	-0.302270
C33	C	-1.341771	-0.163630	-0.697638
N34	N	-1.341787	-0.163620	0.218750
H35	H	-1.160859	-0.240365	-0.420229
H36	H	-1.531169	-0.124801	-0.420516
N37	N	-1.402240	0.041830	-0.585073
N38	N	-1.463527	0.099453	-0.528185
H39	H	-1.523589	0.160355	-0.550629
N40	N	-1.268681	-0.367310	-0.414311
N41	N	-1.282322	-0.444756	-0.470973
H42	H	-1.296216	-0.523152	-0.448254
H43	H	-1.227251	-0.025020	-0.420794
N44	N	-1.137861	-0.236271	-0.585927
N45	N	-1.126051	-0.153935	-0.638247
H46	H	-1.047722	-0.140011	-0.661105
N47	N	-1.487908	-0.298106	-0.412297
N48	N	-1.420450	-0.355563	-0.359698
H49	H	-1.439946	-0.431743	-0.335902
H50	H	-1.264304	-0.343939	-0.580464
N51	N	-1.393843	0.045159	-0.412618
N52	N	-1.359272	0.124437	-0.366533
H53	H	-1.415325	0.188247	-0.342840
N54	N	-1.486776	-0.300004	-0.584416
N55	N	-1.505872	-0.375133	-0.527151
H56	H	-1.524943	-0.452190	-0.549254
N57	N	-1.549224	-0.109774	-0.585615
N58	N	-1.611844	-0.052856	-0.529183
H59	H	-1.675023	0.004437	-0.552134
N60	N	-1.210990	-0.012591	-0.587215
N61	N	-1.120644	-0.074161	-0.570770
H62	H	-1.045625	-0.051700	-0.594718
