data_functionalizedCrystal
_audit_creation_method	'MofGen! by Chris Wilmer'
_symmetry_space_group_name_H-M	'P1'
_symmetry_Int_Tables_number	1
_symmetry_cell_setting	triclinic
loop_
_symmetry_equiv_pos_as_xyz
  x,y,z
_cell_length_a	27.440280
_cell_length_b	27.440280
_cell_length_c	16.704493
_cell_angle_alpha	94.167076
_cell_angle_beta	62.456751
_cell_angle_gamma	60.004534
loop_
_atom_site_label
_atom_site_type_symbol
_atom_site_fract_x
_atom_site_fract_y
_atom_site_fract_z
Zr1	Zr	0.533336	0.464919	-0.105228
O2	O	0.635008	0.381447	-0.233407
O3	O	0.431671	0.490498	-0.065935
O4	O	0.533335	0.483110	-0.233388
O5	O	0.533343	0.394675	0.066137
O6	O	0.533326	0.563313	-0.233371
O7	O	0.533345	0.388836	-0.065954
O8	O	0.351468	0.576530	0.066171
O9	O	0.715201	0.381458	-0.233405
O10	O	0.473478	0.561274	-0.049164
O11	O	0.473483	0.505776	0.049402
O12	O	0.593179	0.497077	-0.147752
O13	O	0.593185	0.441579	-0.049186
Zr14	Zr	0.533318	0.602146	0.105469
Zr15	Zr	0.533321	0.592834	-0.105201
Zr16	Zr	0.533333	0.474231	0.105442
Zr17	Zr	0.661234	0.464936	-0.105225
Zr18	Zr	0.405421	0.602130	0.105466
O19	O	0.634983	0.576567	0.066176
O20	O	0.634987	0.563326	-0.233369
O21	O	0.635005	0.394688	0.066139
O22	O	0.431646	0.685618	0.233648
O23	O	0.431650	0.672377	-0.065898
O24	O	0.431667	0.503739	0.233610
O25	O	0.533311	0.672391	-0.065896
O26	O	0.533319	0.583955	0.233629
O27	O	0.533329	0.503752	0.233612
O28	O	0.533310	0.678229	0.066195
O29	O	0.715189	0.483133	-0.233384
O30	O	0.351465	0.583932	0.233625
O31	O	0.351453	0.685607	0.233646
O32	O	0.351456	0.678206	0.066192
O33	O	0.715199	0.388860	-0.065951
O34	O	0.715187	0.490535	-0.065930
O35	O	0.473475	0.569988	0.147993
O36	O	0.473469	0.625486	0.049427
O37	O	0.593171	0.561289	-0.049161
O38	O	0.593177	0.505792	0.049404
C39	C	0.533346	0.373530	0.000087
C40	C	0.533352	0.319227	0.000076
C41	C	0.373347	0.533512	0.000117
C42	C	0.319051	0.533505	0.000116
C43	C	0.470833	0.016042	0.051610
C44	C	0.470829	-0.034976	0.051618
O45	O	0.417690	-0.032864	0.095415
N46	N	0.533311	-0.094003	0.000155
C47	C	0.595802	-0.102011	-0.051312
O48	O	0.648947	-0.156902	-0.095083
C49	C	0.595805	-0.050993	-0.051314
C50	C	0.533318	0.008033	0.000144
C51	C	0.408351	0.075065	0.103064
C52	C	0.408355	0.126080	0.103054
C53	C	0.470841	0.118071	0.051589
C54	C	0.533322	0.059047	0.000134
C55	C	0.658294	-0.059001	-0.102775
C56	C	0.658292	-0.007977	-0.102772
C57	C	0.595805	0.051049	-0.051314
C58	C	0.595812	0.102053	-0.051342
N59	N	0.533329	0.161080	0.000121
C60	C	0.470844	0.169089	0.051586
C61	C	0.595790	-0.209149	-0.051301
C62	C	0.595788	-0.260166	-0.051305
C63	C	0.470815	-0.193128	0.051626
C64	C	0.470818	-0.142110	0.051624
C65	C	0.533308	-0.150122	0.000162
C66	C	0.470857	0.276220	0.051560
C67	C	0.470867	0.327236	0.051542
C68	C	0.595839	0.260193	-0.051385
C69	C	0.595830	0.209181	-0.051372
C70	C	0.533334	0.217199	0.000108
O71	O	0.648924	0.099988	-0.095113
O72	O	0.417707	0.223982	0.095361
C73	C	-0.017694	0.562519	-0.051321
C74	C	-0.068718	0.562524	-0.051319
O75	O	-0.095127	0.587181	-0.095045
N76	N	-0.094231	0.533555	0.000130
C77	C	-0.068723	0.504583	0.051587
O78	O	-0.095109	0.479942	0.095349
C79	C	-0.017703	0.504581	0.051589
C80	C	0.007812	0.533548	0.000130
C81	C	0.007821	0.591483	-0.102776
C82	C	0.058842	0.591477	-0.102780
C83	C	0.084348	0.562506	-0.051329
C84	C	0.058833	0.533541	0.000126
C85	C	0.007801	0.475613	0.103052
C86	C	0.058823	0.475615	0.103050
C87	C	0.084339	0.504581	0.051590
C88	C	0.135361	0.504563	0.051572
N89	N	0.160874	0.533533	0.000124
C90	C	0.135368	0.562504	-0.051327
C91	C	-0.175868	0.504589	0.051579
C92	C	-0.226883	0.504586	0.051572
C93	C	-0.226876	0.562529	-0.051333
C94	C	-0.175856	0.562528	-0.051330
C95	C	-0.150355	0.533559	0.000131
C96	C	0.242517	0.562487	-0.051332
C97	C	0.293544	0.562476	-0.051335
C98	C	0.293530	0.504536	0.051574
C99	C	0.242509	0.504545	0.051572
C100	C	0.217002	0.533525	0.000118
O101	O	0.161800	0.479921	0.095280
O102	O	0.161754	0.587147	-0.095071
C103	C	0.693308	0.533553	0.000124
C104	C	0.747604	0.533560	0.000125
C105	C	0.533331	0.521885	-0.263396
C106	C	0.533332	0.517932	-0.352831
C107	C	0.533308	0.693535	0.000153
C108	C	0.533302	0.747839	0.000165
C109	C	0.533311	0.598890	-0.520861
C110	C	0.533312	0.595178	-0.604893
C111	C	0.533330	0.506799	-0.604924
C112	C	0.533329	0.510511	-0.520892
C113	C	0.533321	0.556558	-0.478864
C114	C	0.533324	0.560266	-0.394835
C115	C	0.533337	0.471890	-0.394863
C116	C	0.533338	0.468178	-0.478895
C117	C	0.533324	0.545180	0.263637
C118	C	0.533323	0.549134	0.353072
C119	C	0.373328	0.693514	0.000150
C120	C	0.319026	0.747811	0.000160
C121	C	0.373343	0.545160	0.263633
C122	C	0.319046	0.549106	0.353067
C123	C	0.373324	0.705162	0.263666
C124	C	0.319021	0.763412	0.353112
C125	C	0.693330	0.361903	-0.263426
C126	C	0.747633	0.303653	-0.352871
C127	C	0.693326	0.373551	0.000091
C128	C	0.747629	0.319254	0.000080
C129	C	0.693311	0.521906	-0.263393
C130	C	0.747608	0.517959	-0.352826
C131	C	0.293529	0.739790	-0.051307
C132	C	0.242513	0.790802	-0.051317
C133	C	0.216992	0.849833	0.000147
C134	C	0.242493	0.857853	0.051615
C135	C	0.293512	0.806842	0.051619
C136	C	0.293543	0.584477	0.446538
C137	C	0.242533	0.588183	0.530579
C138	C	0.217022	0.556521	0.521147
C139	C	0.242530	0.521145	0.427666
C140	C	0.293543	0.517436	0.343627
C141	C	0.293517	0.819741	0.343666
C142	C	0.242500	0.874477	0.427701
C143	C	0.216985	0.872883	0.521181
C144	C	0.242494	0.816548	0.530625
C145	C	0.293514	0.761813	0.446591
C146	C	0.773144	0.247324	-0.343425
C147	C	0.824177	0.192588	-0.427460
C148	C	0.849694	0.194182	-0.520940
C149	C	0.824181	0.250518	-0.530384
C150	C	0.773153	0.305253	-0.446350
C151	C	0.773131	0.327274	0.051539
C152	C	0.824160	0.276262	0.051526
C153	C	0.849684	0.217230	0.000059
C154	C	0.824180	0.209211	-0.051405
C155	C	0.773154	0.260223	-0.051398
C156	C	0.773103	0.549630	-0.343362
C157	C	0.824114	0.545934	-0.427387
C158	C	0.849633	0.510564	-0.520875
C159	C	0.824134	0.478893	-0.530337
C160	C	0.773120	0.482593	-0.446313
H161	H	0.419981	0.375298	0.093448
N162	N	0.745631	0.245599	-0.242604
H163	H	0.694419	0.267006	-0.205441
H164	H	0.769592	0.201592	-0.249465
N165	N	0.403452	0.284871	0.107084
H166	H	0.363876	0.330006	0.139673
H167	H	0.400727	0.262974	0.059840
H168	H	-0.247646	0.480991	0.093463
H169	H	-0.247653	0.586120	-0.093225
H170	H	0.844870	0.571724	-0.419663
N171	N	0.161961	0.904846	0.000139
H172	H	0.119619	0.932481	0.069831
H173	H	0.179767	0.928067	-0.029188
N174	N	0.321063	0.479290	0.242797
H175	H	0.372279	0.446217	0.205639
H176	H	0.297124	0.459828	0.249629
H177	H	0.314309	0.480946	0.093460
H178	H	0.844969	0.161141	-0.093308
N179	N	0.663228	0.251567	-0.106892
H180	H	0.666006	0.273435	-0.059692
H181	H	0.702778	0.206425	-0.139492
N182	N	0.745609	0.390940	0.107052
H183	H	0.769516	0.388271	0.139640
H184	H	0.754484	0.411382	0.059805
H185	H	0.891232	0.175699	0.000061
N186	N	0.214980	0.935232	0.417498
H187	H	0.178787	0.969668	0.484913
H188	H	0.253942	0.938318	0.380324
N189	N	0.533319	0.609926	-0.349505
H190	H	0.533311	0.636181	-0.388862
H191	H	0.490825	0.636178	-0.279639
N192	N	-0.019721	0.444380	0.158570
H193	H	0.004181	0.426037	0.191169
H194	H	-0.070935	0.475361	0.210308
H195	H	0.752383	0.351116	-0.454053
N196	N	0.321024	0.821470	0.242847
H197	H	0.297120	0.865464	0.249630
H198	H	0.372240	0.800025	0.205731
H199	H	0.709180	-0.014507	-0.144667
N200	N	0.745642	0.251566	-0.106885
H201	H	0.709442	0.292836	-0.099076
H202	H	0.784608	0.225826	-0.178850
N203	N	0.851661	0.284919	0.107038
H204	H	0.827741	0.330057	0.139648
H205	H	0.842789	0.267394	0.158764
N206	N	0.321049	0.676125	-0.106819
H207	H	0.312166	0.655650	-0.059628
H208	H	0.297137	0.678847	-0.139418
H209	H	0.221752	0.495366	0.420000
H210	H	0.175442	0.917456	0.589599
H211	H	0.752333	0.578431	-0.267248
N212	N	0.214971	0.814833	0.631452
H213	H	0.178779	0.858057	0.683246
H214	H	0.193837	0.792618	0.639238
H215	H	0.891172	0.507557	-0.589284
N216	N	0.851661	0.440745	-0.631173
H217	H	0.887848	0.443209	-0.682957
H218	H	0.872803	0.396708	-0.638972
H219	H	0.752368	0.456800	-0.454033
H220	H	0.314273	0.715949	0.454296
H221	H	0.357472	0.174137	0.144952
N222	N	0.533304	0.648546	-0.475514
H223	H	0.575793	0.644433	-0.525121
H224	H	0.490780	0.689984	-0.455123
N225	N	0.340951	0.083712	0.158579
H226	H	0.301376	0.128848	0.191170
H227	H	0.338225	0.061818	0.111332
N228	N	0.215015	0.782145	-0.106833
H229	H	0.238923	0.737008	-0.139423
H230	H	0.163799	0.804036	-0.059589
N231	N	0.851686	0.131832	-0.417261
H232	H	0.827769	0.139133	-0.345289
H233	H	0.842816	0.107854	-0.449894
H234	H	0.221754	0.586087	-0.093229
N235	N	0.403423	-0.078449	0.107122
H236	H	0.363842	-0.081124	0.139719
H237	H	0.400696	-0.053629	0.158858
N238	N	0.904731	0.135145	-0.611573
H239	H	0.917015	0.099221	-0.591395
H240	H	0.886940	0.133380	-0.651984
N241	N	0.851707	0.252233	-0.631211
H242	H	0.887900	0.209008	-0.683005
H243	H	0.812745	0.274438	-0.639000
H244	H	0.533348	0.437418	-0.360663
H245	H	0.709178	-0.107055	-0.144676
H246	H	0.533303	0.629650	-0.639084
N247	N	0.086326	0.444365	0.158556
H248	H	0.137539	0.410837	0.111359
H249	H	0.077401	0.475344	0.210343
H250	H	0.419936	-0.186615	0.093529
N251	N	0.533327	0.457145	-0.650250
H252	H	0.533322	0.461222	-0.709853
H253	H	0.575823	0.415706	-0.670575
H254	H	-0.155103	0.480992	0.093479
N255	N	0.663182	-0.323829	-0.106813
H256	H	0.690500	-0.331793	-0.178802
H257	H	0.690442	-0.327367	-0.079745
N258	N	0.663193	-0.217792	-0.106826
H259	H	0.690513	-0.239138	-0.079843
H260	H	0.690448	-0.243497	-0.178798
N261	N	0.663224	0.145515	-0.106887
H262	H	0.702808	0.148185	-0.139495
H263	H	0.665946	0.125080	-0.059635
H264	H	0.079612	0.615066	-0.144680
N265	N	0.321063	0.593719	-0.106845
H266	H	0.282140	0.638617	-0.079844
H267	H	0.357269	0.589273	-0.099031
H268	H	-0.012944	0.615078	-0.144672
N269	N	0.161991	0.560535	0.611795
H270	H	0.149694	0.535112	0.591644
H271	H	0.179789	0.544560	0.652200
H272	H	0.221741	0.480949	0.093462
N273	N	-0.148337	0.593769	-0.106833
H274	H	-0.172240	0.612119	-0.139427
H275	H	-0.157218	0.627266	-0.059581
N276	N	0.321008	0.815499	0.107133
H277	H	0.357204	0.774230	0.099330
H278	H	0.342131	0.836871	0.080107
N279	N	0.533343	0.418518	-0.524223
H280	H	0.533340	0.422590	-0.583829
H281	H	0.575841	0.377083	-0.544543
N282	N	0.214964	0.921524	0.107119
H283	H	0.178774	0.952617	0.099304
H284	H	0.193826	0.929433	0.179084
H285	H	0.314308	0.610262	0.454238
H286	H	0.221770	0.616992	0.606687
