data_functionalizedCrystal
_audit_creation_method	'MofGen! by Chris Wilmer'
_symmetry_space_group_name_H-M	'P1'
_symmetry_Int_Tables_number	1
_symmetry_cell_setting	triclinic
loop_
_symmetry_equiv_pos_as_xyz
  x,y,z
_cell_length_a	14.044220
_cell_length_b	8.965430
_cell_length_c	14.044220
_cell_angle_alpha	89.999476
_cell_angle_beta	86.811122
_cell_angle_gamma	89.999271
loop_
_atom_site_label
_atom_site_type_symbol
_atom_site_fract_x
_atom_site_fract_y
_atom_site_fract_z
O1	O	1.277167	0.123887	-0.230160
O2	O	1.527167	0.373887	0.019840
O3	O	1.777167	0.623887	0.269840
O4	O	2.027167	0.873887	0.519840
O5	O	1.000496	0.123924	-0.221855
O6	O	1.250496	0.373924	0.028145
O7	O	1.500496	0.623924	0.278145
O8	O	1.750496	0.873924	0.528145
O9	O	1.134679	0.123891	-0.087672
O10	O	1.384679	0.373891	0.162328
O11	O	1.634679	0.623891	0.412328
O12	O	1.884679	0.873891	0.662328
O13	O	1.142984	0.123920	-0.364343
O14	O	1.392984	0.373920	-0.114343
O15	O	1.642984	0.623920	0.135657
O16	O	1.892984	0.873920	0.385657
O17	O	1.134667	-0.124188	-0.087680
O18	O	1.384667	0.125812	0.162320
O19	O	1.634667	0.375812	0.412320
O20	O	1.884667	0.625812	0.662320
O21	O	1.000484	-0.124155	-0.221863
O22	O	1.250484	0.125845	0.028137
O23	O	1.500484	0.375845	0.278137
O24	O	1.750484	0.625845	0.528137
O25	O	1.277156	-0.124192	-0.230169
O26	O	1.527156	0.125808	0.019831
O27	O	1.777156	0.375808	0.269831
O28	O	2.027156	0.625808	0.519831
Cu29	Cu	1.138819	-0.146825	-0.226017
Cu30	Cu	1.388819	0.103175	0.023983
Cu31	Cu	1.638819	0.353175	0.273983
Cu32	Cu	1.888819	0.603175	0.523983
Cu33	Cu	1.138833	0.146557	-0.226007
Cu34	Cu	1.388833	0.396557	0.023993
Cu35	Cu	1.638833	0.646557	0.273993
Cu36	Cu	1.888833	0.896557	0.523993
O37	O	1.142973	-0.124159	-0.364352
O38	O	1.392973	0.125841	-0.114352
O39	O	1.642973	0.375841	0.135648
O40	O	1.892973	0.625841	0.385648
C41	C	0.964868	-0.000111	-0.218223
C42	C	1.214868	0.249889	0.031777
C43	C	1.464868	0.499889	0.281777
C44	C	1.714868	0.749889	0.531777
C45	C	0.858725	-0.000097	-0.207379
C46	C	1.108725	0.249903	0.042621
C47	C	1.358725	0.499903	0.292621
C48	C	1.608725	0.749903	0.542621
N49	N	1.138816	-0.353174	-0.226024
N50	N	1.388816	-0.103174	0.023976
N51	N	1.638816	0.146826	0.273976
N52	N	1.888816	0.396826	0.523976
C53	C	0.664388	-0.000128	-0.187553
C54	C	0.914388	0.249872	0.062447
C55	C	1.164388	0.499872	0.312447
C56	C	1.414388	0.749872	0.562447
C57	C	0.613258	-0.000127	-0.264467
C58	C	0.863258	0.249873	-0.014467
C59	C	1.113258	0.499873	0.235533
C60	C	1.363258	0.749873	0.485533
C61	C	0.505122	-0.000144	-0.253435
C62	C	0.755122	0.249856	-0.003435
C63	C	1.005122	0.499856	0.246565
C64	C	1.255122	0.749856	0.496565
C65	C	0.772534	-0.000111	-0.198583
C66	C	1.022534	0.249889	0.051417
C67	C	1.272534	0.499889	0.301417
C68	C	1.522534	0.749889	0.551417
C69	C	1.076738	-0.450465	-0.288055
C70	C	1.326738	-0.200465	-0.038055
C71	C	1.576738	0.049535	0.211945
C72	C	1.826738	0.299535	0.461945
C73	C	1.164577	-0.549888	-0.313875
C74	C	1.414577	-0.299888	-0.063875
C75	C	1.664577	-0.049888	0.186125
C76	C	1.914577	0.200112	0.436125
C77	C	1.051015	-0.549878	-0.200216
C78	C	1.301015	-0.299878	0.049784
C79	C	1.551015	-0.049878	0.299784
C80	C	1.801015	0.200122	0.549784
C81	C	1.226701	-0.450409	-0.251891
C82	C	1.476701	-0.200409	-0.001891
C83	C	1.726701	0.049591	0.248109
C84	C	1.976701	0.299591	0.498109
C85	C	1.113080	-0.450390	-0.138189
C86	C	1.363080	-0.200390	0.111811
C87	C	1.613080	0.049610	0.361811
C88	C	1.863080	0.299610	0.611811
C89	C	1.200977	-0.549768	-0.163977
C90	C	1.450977	-0.299768	0.086023
C91	C	1.700977	-0.049768	0.336023
C92	C	1.950977	0.200232	0.586023
C93	C	1.312783	-0.000154	-0.233800
C94	C	1.562783	0.249846	0.016200
C95	C	1.812783	0.499846	0.266200
C96	C	2.062783	0.749846	0.516200
C97	C	1.418926	-0.000158	-0.244645
C98	C	1.668926	0.249842	0.005355
C99	C	1.918926	0.499842	0.255355
C100	C	2.168926	0.749842	0.505355
C101	C	1.131037	-0.000148	-0.052054
C102	C	1.381037	0.249852	0.197946
C103	C	1.631037	0.499852	0.447946
C104	C	1.881037	0.749852	0.697946
C105	C	1.120193	-0.000149	0.054088
C106	C	1.370193	0.249851	0.304088
C107	C	1.620193	0.499851	0.554088
C108	C	1.870193	0.749851	0.804088
N109	N	1.138842	0.352906	-0.225993
N110	N	1.388842	0.602906	0.024007
N111	N	1.638842	0.852906	0.274007
N112	N	1.888842	1.102906	0.524007
C113	C	1.146614	-0.000116	-0.399969
C114	C	1.396614	0.249884	-0.149969
C115	C	1.646614	0.499884	0.100031
C116	C	1.896614	0.749884	0.350031
C117	C	1.157459	-0.000106	-0.506112
C118	C	1.407459	0.249894	-0.256112
C119	C	1.657459	0.499894	-0.006112
C120	C	1.907459	0.749894	0.243888
C121	C	1.100366	-0.000125	0.248426
C122	C	1.350366	0.249875	0.498426
C123	C	1.600366	0.499875	0.748426
C124	C	1.850366	0.749875	0.998426
C125	C	1.177281	-0.000130	0.299556
C126	C	1.427281	0.249870	0.549556
C127	C	1.677281	0.499870	0.799556
C128	C	1.927281	0.749870	1.049556
C129	C	1.166249	-0.000117	0.407692
C130	C	1.416249	0.249883	0.657692
C131	C	1.666249	0.499883	0.907692
C132	C	1.916249	0.749883	1.157692
C133	C	1.111397	-0.000138	0.140280
C134	C	1.361397	0.249862	0.390280
C135	C	1.611397	0.499862	0.640280
C136	C	1.861397	0.749862	0.890280
H137	H	0.650697	-0.000112	-0.338600
H138	H	0.900697	0.249888	-0.088600
H139	H	1.150697	0.499888	0.161400
H140	H	1.400697	0.749888	0.411400
Cl141	Cl	1.282139	-0.616677	-0.082969
Cl142	Cl	1.532139	-0.366677	0.167031
Cl143	Cl	1.782139	-0.116677	0.417031
Cl144	Cl	2.032139	0.133323	0.667031
H145	H	1.251414	-0.000040	0.262117
H146	H	1.501414	0.249960	0.512117
H147	H	1.751414	0.499960	0.762117
H148	H	2.001414	0.749960	1.012117
H149	H	1.026239	-0.000111	0.285863
H150	H	1.276239	0.249889	0.535863
H151	H	1.526239	0.499889	0.785863
H152	H	1.776239	0.749889	1.035863
H153	H	0.976752	-0.593575	-0.178401
H154	H	1.226752	-0.343575	0.071599
H155	H	1.476752	-0.093575	0.321599
H156	H	1.726752	0.156425	0.571599
H157	H	0.626951	-0.000144	-0.113425
H158	H	0.876951	0.249856	0.136575
H159	H	1.126951	0.499856	0.386575
H160	H	1.376951	0.749856	0.636575
H161	H	1.186362	-0.593592	-0.388143
H162	H	1.436362	-0.343592	-0.138143
H163	H	1.686362	-0.093592	0.111857
H164	H	1.936362	0.156408	0.361857
Cl165	Cl	0.995776	-0.383135	-0.369129
Cl166	Cl	1.245776	-0.133135	-0.119129
Cl167	Cl	1.495776	0.116865	0.130871
Cl168	Cl	1.745776	0.366865	0.380871
H169	H	1.300988	-0.406899	-0.273794
H170	H	1.550988	-0.156899	-0.023794
H171	H	1.800988	0.093101	0.226206
H172	H	2.050988	0.343101	0.476206
Cl173	Cl	1.079406	-0.382854	-0.023557
Cl174	Cl	1.329406	-0.132854	0.226443
Cl175	Cl	1.579406	0.117146	0.476443
Cl176	Cl	1.829406	0.367146	0.726443
