data_functionalizedCrystal
_audit_creation_method	'MofGen! by Chris Wilmer'
_symmetry_space_group_name_H-M	'P1'
_symmetry_Int_Tables_number	1
_symmetry_cell_setting	triclinic
loop_
_symmetry_equiv_pos_as_xyz
  x,y,z
_cell_length_a	12.759395
_cell_length_b	12.759394
_cell_length_c	12.759387
_cell_angle_alpha	90.031660
_cell_angle_beta	89.979491
_cell_angle_gamma	89.983626
loop_
_atom_site_label
_atom_site_type_symbol
_atom_site_fract_x
_atom_site_fract_y
_atom_site_fract_z
Zn1	Zn	1.606268	0.418168	-0.593999
Zn2	Zn	1.606158	0.593885	-0.418317
Zn3	Zn	1.430566	0.418225	-0.418336
Zn4	Zn	1.430558	0.593810	-0.593956
O5	O	1.518387	0.506022	-0.506152
O6	O	1.753274	0.441485	-0.570704
O7	O	1.582823	0.570639	-0.271298
O8	O	1.453922	0.271197	-0.441664
O9	O	1.753194	0.570583	-0.441631
O10	O	1.583010	0.271155	-0.570723
O11	O	1.453816	0.441582	-0.271312
O12	O	1.283544	0.441510	-0.441622
O13	O	1.453909	0.570456	-0.740983
O14	O	1.283538	0.570511	-0.570649
O15	O	1.583002	0.441412	-0.741014
O16	O	1.582815	0.740896	-0.441590
O17	O	1.453802	0.740841	-0.570631
C18	C	1.245420	0.506009	-0.506134
C19	C	1.128643	0.506029	-0.506151
C20	C	1.518324	0.778990	-0.506126
C21	C	1.518393	0.895766	-0.506151
C22	C	1.518467	0.505919	-0.780185
C23	C	1.518500	0.505875	-0.896962
C24	C	1.128676	0.640576	-0.640290
C25	C	1.073831	0.707857	-0.707362
C26	C	0.964109	0.707870	-0.707375
C27	C	0.909230	0.640592	-0.640310
C28	C	0.964074	0.573310	-0.573238
C29	C	1.073799	0.573307	-0.573230
C30	C	0.964042	0.438760	-0.439106
C31	C	1.073764	0.438751	-0.439086
C32	C	0.909162	0.371482	-0.372042
C33	C	0.964007	0.304204	-0.304962
C34	C	1.073735	0.304195	-0.304951
C35	C	1.128608	0.371469	-0.372014
C36	C	1.792421	0.506036	-0.506170
C37	C	1.909197	0.506042	-0.506178
C38	C	1.518479	0.231989	-0.506200
C39	C	1.518518	0.115212	-0.506221
C40	C	1.652835	0.895770	-0.371881
C41	C	1.720083	0.950633	-0.304758
C42	C	1.720145	1.060354	-0.304786
C43	C	1.652953	1.115216	-0.371947
C44	C	1.585705	1.060353	-0.439070
C45	C	1.585648	0.950629	-0.439032
C46	C	1.451270	1.060349	-0.573343
C47	C	1.451202	0.950628	-0.573311
C48	C	1.384079	1.115211	-0.640504
C49	C	1.316823	1.060348	-0.707623
C50	C	1.316764	0.950620	-0.707591
C51	C	1.383954	0.895765	-0.640434
C52	C	1.652934	0.371511	-0.897015
C53	C	1.720166	0.304313	-0.951902
C54	C	1.720192	0.304275	-1.061624
C55	C	1.652976	0.371439	-1.116461
C56	C	1.585744	0.438637	-1.061574
C57	C	1.585728	0.438671	-0.951849
C58	C	1.451307	0.572995	-1.061521
C59	C	1.451285	0.573040	-0.951799
C60	C	1.384091	0.640159	-1.116358
C61	C	1.316863	0.707364	-1.061471
C62	C	1.316841	0.707400	-0.951742
C63	C	1.384053	0.640238	-0.896912
C64	C	1.518369	0.506049	-0.233184
C65	C	1.518538	0.505797	-0.116408
H66	H	1.218017	0.640580	-0.640278
H67	H	1.118526	0.762632	-0.761966
Cl68	Cl	1.384036	0.640282	-0.758975
Cl69	Cl	1.232371	1.129321	-0.792051
Cl70	Cl	1.232310	0.791877	-0.882751
H71	H	1.652778	0.806429	-0.371837
H72	H	0.819889	0.640599	-0.640336
Cl73	Cl	1.652922	0.371569	-0.759078
Cl74	Cl	0.895012	0.219628	-0.220670
Cl75	Cl	0.771226	0.371492	-0.372064
Cl76	Cl	1.142673	0.219601	-0.220632
Cl77	Cl	1.804695	0.219781	-1.130628
Cl78	Cl	1.804636	0.219857	-0.882960
Cl79	Cl	1.652589	1.253151	-0.371536
Cl80	Cl	0.895159	0.792447	-0.791701
H81	H	1.217949	0.371471	-0.372008
Cl82	Cl	1.653001	0.371379	-1.254398
H83	H	1.383905	0.806424	-0.640394
H84	H	1.774792	0.905955	-0.250078
H85	H	1.262136	0.762038	-1.106128
Cl86	Cl	1.804691	1.129328	-0.220409
H87	H	1.262006	0.905956	-0.762254
Cl88	Cl	1.383712	1.253146	-0.640095
Cl89	Cl	1.384123	0.640111	-1.254295
