data_functionalizedCrystal
_audit_creation_method	'MofGen! by Chris Wilmer'
_symmetry_space_group_name_H-M	'P1'
_symmetry_Int_Tables_number	1
_symmetry_cell_setting	triclinic
loop_
_symmetry_equiv_pos_as_xyz
  x,y,z
_cell_length_a	16.974885
_cell_length_b	16.974813
_cell_length_c	16.053833
_cell_angle_alpha	90.768716
_cell_angle_beta	96.535644
_cell_angle_gamma	96.371770
loop_
_atom_site_label
_atom_site_type_symbol
_atom_site_fract_x
_atom_site_fract_y
_atom_site_fract_z
O1	O	-1.048793	0.100517	0.005420
O2	O	-0.817871	0.112658	0.021830
O3	O	-0.940102	-0.008172	0.005411
O4	O	-0.926562	0.221347	0.021840
O5	O	-0.946044	-0.002236	-0.133447
O6	O	-0.823814	0.118594	-0.117027
O7	O	-1.054735	0.106453	-0.133438
Zn8	Zn	-0.940218	0.113466	-0.147279
Zn9	Zn	-0.932389	0.105645	0.035672
O10	O	-0.932504	0.227283	-0.117018
C11	C	-0.791301	0.115055	-0.045643
C12	C	-0.703277	0.113344	-0.039816
C13	C	-0.942669	-0.034578	-0.065975
C14	C	-0.941454	-0.122104	-0.071804
C15	C	-1.081305	0.104056	-0.065963
C16	C	-1.169329	0.105767	-0.071784
C17	C	-0.207450	0.103335	0.001164
C18	C	-0.290158	0.104944	-0.004322
C19	C	-0.334743	0.108990	-0.082757
C20	C	-0.296616	0.111419	-0.155711
C21	C	-0.213910	0.109805	-0.150224
C22	C	-0.582445	0.114159	-0.107283
C23	C	-0.665156	0.115775	-0.112764
C24	C	-0.658693	0.109298	0.038625
C25	C	-0.575985	0.107689	0.044106
C26	C	-0.537866	0.110115	-0.028849
N27	N	-0.419284	0.110636	-0.088366
N28	N	-0.453327	0.108462	-0.023239
C29	C	-0.937646	-0.166455	0.001148
C30	C	-0.936500	-0.248694	-0.004332
C31	C	-0.939167	-0.286581	-0.082764
C32	C	-0.942973	-0.242224	-0.155722
C33	C	-0.944114	-0.159985	-0.150241
C34	C	-0.936098	-0.532190	-0.107272
C35	C	-0.934960	-0.614434	-0.112748
C36	C	-0.928485	-0.620899	0.038643
C37	C	-0.929631	-0.538659	0.044117
C38	C	-0.933432	-0.494308	-0.028840
N39	N	-0.937998	-0.370643	-0.088367
N40	N	-0.934596	-0.410247	-0.023236
C41	C	-0.929938	0.253689	-0.045630
C42	C	-0.931152	0.341215	-0.039796
N43	N	-0.945567	0.118803	-0.272139
C44	C	-0.973074	0.146363	-0.795762
C45	C	-0.969336	0.142624	-0.708356
C46	C	-0.919574	0.092818	-0.664659
C47	C	-0.873541	0.046755	-0.708372
C48	C	-0.877275	0.050499	-0.795775
C49	C	-0.903267	0.076484	-0.403255
C50	C	-0.899538	0.072742	-0.315846
C51	C	-0.995333	0.168612	-0.315836
C52	C	-0.999066	0.172349	-0.403242
C53	C	-0.953030	0.126288	-0.446946
N54	N	-0.915754	0.088993	-0.575317
N55	N	-0.956846	0.130118	-0.536287
N56	N	-0.927046	0.100301	0.160531
H57	H	-0.171154	0.100046	0.065035
O58	O	-0.532629	0.103896	0.120291
C59	C	-0.475324	0.170981	0.133229
H60	H	-0.495608	0.220989	0.092284
H61	H	-0.468426	0.190997	0.201997
H62	H	-0.415602	0.155204	0.115871
O63	O	-0.545412	0.116371	-0.178139
C64	C	-0.507016	0.047413	-0.184728
H65	H	-0.536574	-0.001616	-0.147078
H66	H	-0.512057	0.027352	-0.253370
H67	H	-0.441369	0.060739	-0.159065
O68	O	-0.858467	0.031857	-0.445730
C69	C	-0.806334	0.081963	-0.489389
H70	H	-0.796432	0.143551	-0.458211
H71	H	-0.746752	0.056661	-0.488066
H72	H	-0.833660	0.086192	-0.557192
H73	H	-0.701454	0.119076	-0.176638
H74	H	-1.006819	0.180131	-0.672775
H75	H	-0.689738	0.107323	0.098020
H76	H	-0.182872	0.111794	-0.209626
H77	H	-1.013599	0.186917	-0.831335
H78	H	-0.935478	-0.135614	0.065016
O79	O	-0.851272	0.024366	-0.273272
C80	C	-0.857845	0.030947	-0.186755
H81	H	-0.917298	0.053067	-0.177349
H82	H	-0.854689	-0.029578	-0.157424
H83	H	-0.806865	0.074671	-0.155534
H84	H	-0.332924	0.114709	-0.219575
H85	H	-0.947203	-0.123874	-0.209646
O86	O	-0.945457	-0.279102	-0.231856
C87	C	-0.876315	-0.317660	-0.234335
H88	H	-0.850436	-0.329852	-0.167693
H89	H	-0.892334	-0.376102	-0.271400
H90	H	-0.830268	-0.278207	-0.265918
H91	H	-0.925389	-0.657018	0.098041
H92	H	-0.937128	-0.645279	-0.176620
O93	O	-0.932869	-0.291667	0.066612
C94	C	-0.930763	-0.240593	0.137013
H95	H	-0.957600	-0.184231	0.116802
H96	H	-0.966700	-0.271545	0.185411
H97	H	-0.866287	-0.224703	0.165754
H98	H	-0.321194	0.102959	0.055080
O99	O	-1.039923	0.213447	-0.273329
C100	C	-0.989192	0.264949	-0.215842
H101	H	-0.927186	0.274386	-0.237352
H102	H	-1.014242	0.324360	-0.212524
H103	H	-0.985126	0.237747	-0.151165
O104	O	-0.926996	-0.501978	0.120377
C105	C	-0.923409	-0.558762	0.183592
H106	H	-0.898443	-0.613217	0.159409
H107	H	-0.882979	-0.532325	0.241048
H108	H	-0.985902	-0.576660	0.201437
O109	O	-0.939853	-0.489241	-0.178227
C110	C	-0.941957	-0.540318	-0.248625
H111	H	-0.965280	-0.603109	-0.232239
H112	H	-0.983066	-0.519244	-0.302905
H113	H	-0.879228	-0.539904	-0.267658
H114	H	-1.039589	0.212904	-0.438815
H115	H	-0.833020	0.006205	-0.672786
H116	H	-0.839792	0.012992	-0.831360
