data_functionalizedCrystal
_audit_creation_method	'MofGen! by Chris Wilmer'
_symmetry_space_group_name_H-M	'P1'
_symmetry_Int_Tables_number	1
_symmetry_cell_setting	triclinic
loop_
_symmetry_equiv_pos_as_xyz
  x,y,z
_cell_length_a	14.519731
_cell_length_b	14.519709
_cell_length_c	13.596369
_cell_angle_alpha	90.006934
_cell_angle_beta	89.994790
_cell_angle_gamma	96.315501
loop_
_atom_site_label
_atom_site_type_symbol
_atom_site_fract_x
_atom_site_fract_y
_atom_site_fract_z
O1	O	1.223856	-0.120986	-0.081791
O2	O	0.955382	-0.135202	-0.081794
O3	O	1.096737	0.006144	-0.081783
O4	O	1.082501	-0.262332	-0.081801
O5	O	1.096723	0.006151	0.081799
O6	O	0.955368	-0.135195	0.081789
O7	O	1.223842	-0.120979	0.081792
Zn8	Zn	1.089603	-0.128086	0.107763
Zn9	Zn	1.089621	-0.128096	-0.107765
O10	O	1.082487	-0.262325	0.081782
C11	C	1.096067	0.040507	0.000008
C12	C	1.094079	0.142889	0.000009
C13	C	0.921016	-0.134532	-0.000003
C14	C	0.818635	-0.132536	-0.000003
C15	C	1.258209	-0.121649	-0.000001
C16	C	1.360589	-0.123645	-0.000007
C17	C	1.443733	-0.125267	-0.000009
C18	C	1.548042	-0.127293	-0.000007
C19	C	1.631181	-0.128902	-0.000005
C20	C	1.735496	-0.130928	-0.000005
C21	C	1.083157	-0.296688	-0.000012
C22	C	1.085146	-0.399070	-0.000019
N23	N	1.089597	-0.128078	0.254855
C24	C	1.086759	0.517785	-0.000017
C25	C	1.088792	0.413477	-0.000009
C26	C	1.090419	0.330340	-0.000003
C27	C	1.092452	0.226025	0.000002
N28	N	1.089635	-0.128096	-0.254857
C29	C	1.089620	-0.128096	0.656146
C30	C	1.089611	-0.128095	0.544494
C31	C	1.089609	-0.128088	0.455504
C32	C	1.089599	-0.128085	0.343845
