data_functionalizedCrystal
_audit_creation_method	'MofGen! by Chris Wilmer'
_symmetry_space_group_name_H-M	'P1'
_symmetry_Int_Tables_number	1
_symmetry_cell_setting	triclinic
loop_
_symmetry_equiv_pos_as_xyz
  x,y,z
_cell_length_a	15.944480
_cell_length_b	23.532357
_cell_length_c	22.610064
_cell_angle_alpha	90.005049
_cell_angle_beta	90.000861
_cell_angle_gamma	96.850931
loop_
_atom_site_label
_atom_site_type_symbol
_atom_site_fract_x
_atom_site_fract_y
_atom_site_fract_z
O1	O	-1.113923	0.073247	-0.049179
O2	O	-0.869287	0.082345	-0.049184
O3	O	-0.999004	-0.005110	-0.049169
O4	O	-0.984206	0.160703	-0.049194
O5	O	-0.998995	-0.005088	0.049200
O6	O	-0.869278	0.082368	0.049185
O7	O	-1.113914	0.073270	0.049190
Zn8	Zn	-0.991595	0.077822	0.064806
Zn9	Zn	-0.991606	0.077793	-0.064800
O10	O	-0.984197	0.160725	0.049175
C11	C	-0.837990	0.081986	0.000000
C12	C	-0.744751	0.080875	-0.000001
C13	C	-0.998629	-0.026317	0.000017
C14	C	-0.997516	-0.089539	0.000023
C15	C	-0.508542	0.132358	-0.000010
C16	C	-0.458220	0.104612	0.048497
C17	C	-0.574047	0.078816	-0.000001
C18	C	-0.458234	0.104577	-0.048487
C19	C	-0.409153	0.076832	-0.000002
C20	C	-0.524953	0.051084	0.048547
C21	C	-0.524970	0.051057	-0.048481
C22	C	-0.474681	0.023272	0.000039
C23	C	-0.669037	0.079961	0.000001
C24	C	-0.314166	0.075683	0.000000
C25	C	-0.990535	-0.481589	-0.053630
C26	C	-0.989477	-0.540992	-0.053634
O27	O	-0.988906	-0.571721	-0.099236
N28	N	-0.988948	-0.570693	-0.000014
C29	C	-0.989468	-0.540987	0.053614
O30	O	-0.988919	-0.571704	0.099222
C31	C	-0.990519	-0.481584	0.053616
C32	C	-0.991057	-0.451887	-0.000007
C33	C	-0.991072	-0.451892	-0.107250
C34	C	-0.992131	-0.392492	-0.107246
C35	C	-0.992654	-0.362791	-0.053623
C36	C	-0.992117	-0.392488	-0.000004
C37	C	-0.991033	-0.451878	0.107243
C38	C	-0.992084	-0.392471	0.107241
C39	C	-0.992622	-0.362774	0.053617
C40	C	-0.993698	-0.303387	0.053623
N41	N	-0.994228	-0.273686	0.000003
C42	C	-0.993706	-0.303388	-0.053620
C43	C	-0.987257	-0.665737	0.053604
C44	C	-0.986211	-0.725139	0.053602
C45	C	-0.986219	-0.725140	-0.053646
C46	C	-0.987271	-0.665737	-0.053643
C47	C	-0.987787	-0.636036	-0.000017
C48	C	-0.995931	-0.178645	-0.053609
C49	C	-0.996994	-0.119241	-0.053600
C50	C	-0.996981	-0.119245	0.053647
C51	C	-0.995923	-0.178644	0.053639
C52	C	-0.995395	-0.208343	0.000006
O53	O	-0.994267	-0.272620	0.099202
O54	O	-0.994243	-0.272662	-0.099221
C55	C	-0.145209	0.073637	0.000003
C56	C	-0.238444	0.074771	-0.000002
C57	C	-0.984572	0.181932	-0.000012
C58	C	-0.985685	0.245154	-0.000022
N59	N	-0.991593	0.077842	0.153258
N60	N	-0.991615	0.077768	-0.153252
C61	C	-0.934135	0.116520	0.438100
C62	C	-0.934133	0.116526	0.376180
O63	O	-0.885255	0.149436	0.344156
N64	N	-0.991587	0.077819	0.345211
C65	C	-1.049041	0.039101	0.376164
O66	O	-1.097909	0.006178	0.344137
C67	C	-1.049039	0.039093	0.438083
C68	C	-0.991587	0.077806	0.469049
C69	C	-0.876687	0.155229	0.469066
C70	C	-0.876691	0.155224	0.530982
C71	C	-0.934142	0.116510	0.561931
C72	C	-0.991590	0.077801	0.530965
C73	C	-1.106488	0.000372	0.469036
C74	C	-1.106480	0.000368	0.530959
C75	C	-1.049028	0.039081	0.561925
C76	C	-1.049045	0.039082	0.623830
N77	N	-0.991592	0.077788	0.654799
C78	C	-0.934140	0.116502	0.623850
C79	C	-1.049040	0.039120	0.246131
C80	C	-1.049048	0.039130	0.184213
C81	C	-0.934138	0.116554	0.184233
C82	C	-0.934136	0.116546	0.246152
C83	C	-0.991587	0.077826	0.277100
C84	C	-0.934152	0.116489	0.753877
C85	C	-0.934164	0.116483	0.815798
C86	C	-1.049069	0.039057	0.815773
C87	C	-1.049062	0.039065	0.753857
C88	C	-0.991596	0.077784	0.722911
O89	O	-1.097896	0.006187	0.655893
O90	O	-0.885273	0.149415	0.655885
H91	H	-0.429082	0.127233	0.089499
H92	H	-0.553974	0.028496	0.089597
C93	C	-0.813496	0.197824	0.435028
H94	H	-0.821714	0.192291	0.393715
H95	H	-0.822299	0.235830	0.445194
H96	H	-0.757487	0.191624	0.445174
C97	C	-0.870920	0.159116	0.280209
H98	H	-0.836701	0.182167	0.252903
H99	H	-0.900908	0.182835	0.304377
H100	H	-0.836132	0.138604	0.304349
C101	C	-0.454319	-0.039073	0.000085
H102	H	-0.477390	-0.057994	0.034571
H103	H	-0.478186	-0.058231	-0.034039
H104	H	-0.394808	-0.039454	-0.000235
C105	C	-0.418892	0.135119	-0.103884
H106	H	-0.430219	0.173849	-0.103827
H107	H	-0.359560	0.133882	-0.103681
H108	H	-0.442642	0.116475	-0.138323
H109	H	-0.995497	-0.202819	-0.097282
C110	C	-0.997551	-0.086565	0.112628
H111	H	-0.998249	-0.046934	0.104945
H112	H	-1.046362	-0.100647	0.134668
H113	H	-0.948375	-0.091944	0.134654
C114	C	-1.112257	-0.003528	0.849825
H115	H	-1.104019	0.002012	0.891136
H116	H	-1.168265	0.002666	0.839683
H117	H	-1.103454	-0.041541	0.839672
C118	C	-0.987855	-0.633075	-0.112629
H119	H	-0.987389	-0.659277	-0.144562
H120	H	-1.037253	-0.614251	-0.114859
H121	H	-0.939266	-0.605553	-0.114860
C122	C	-0.564362	0.020529	-0.103872
H123	H	-0.541399	0.039608	-0.138304
H124	H	-0.552179	-0.018011	-0.104215
H125	H	-0.623818	0.021169	-0.103276
H126	H	-0.997434	-0.095065	-0.097269
H127	H	-0.995493	-0.202826	0.097304
H128	H	-0.990597	-0.476048	0.150909
C129	C	-0.813496	0.197810	0.565037
H130	H	-0.779281	0.220863	0.537729
H131	H	-0.843504	0.221525	0.589194
H132	H	-0.778699	0.177314	0.589188
C133	C	-1.112263	-0.003439	0.150154
H134	H	-1.104048	0.002110	0.108844
H135	H	-1.103487	-0.041456	0.160293
H136	H	-1.168263	0.002775	0.160310
H137	H	-0.992566	-0.368318	-0.150912
H138	H	-1.095831	0.007590	0.271326
C139	C	-0.529123	0.194654	0.000043
H140	H	-0.506144	0.213601	0.034546
H141	H	-0.505281	0.213850	-0.034064
H142	H	-0.588651	0.194942	-0.000306
H143	H	-1.153270	-0.031151	0.443832
H144	H	-1.153263	-0.031165	0.556154
C145	C	-0.990506	-0.484555	-0.166241
H146	H	-0.990984	-0.458354	-0.198168
H147	H	-0.941110	-0.503380	-0.168484
H148	H	-1.039097	-0.512077	-0.168469
H149	H	-0.992492	-0.368290	0.150912
H150	H	-0.887357	0.148076	0.159023
H151	H	-0.985791	-0.749334	-0.097309
H152	H	-0.887358	0.148017	0.728688
H153	H	-0.985786	-0.749314	0.097267
H154	H	-1.095852	0.007547	0.728644
C155	C	-0.870964	0.159066	0.849861
H156	H	-0.879196	0.153525	0.891170
H157	H	-0.814961	0.152867	0.839712
H158	H	-0.879762	0.197081	0.839717
C159	C	-0.987840	-0.633071	0.112597
H160	H	-0.987382	-0.659273	0.144527
H161	H	-0.939262	-0.605545	0.114833
H162	H	-1.037249	-0.614254	0.114829
