data_functionalizedCrystal
_audit_creation_method	'MofGen! by Chris Wilmer'
_symmetry_space_group_name_H-M	'P1'
_symmetry_Int_Tables_number	1
_symmetry_cell_setting	triclinic
loop_
_symmetry_equiv_pos_as_xyz
  x,y,z
_cell_length_a	12.759394
_cell_length_b	17.077404
_cell_length_c	17.077396
_cell_angle_alpha	90.017258
_cell_angle_beta	89.972081
_cell_angle_gamma	89.988094
loop_
_atom_site_label
_atom_site_type_symbol
_atom_site_fract_x
_atom_site_fract_y
_atom_site_fract_z
Zn1	Zn	-0.418332	-1.200080	-0.443859
Zn2	Zn	0.081668	-0.700080	0.056141
Zn3	Zn	-0.594038	-1.200011	-0.312598
Zn4	Zn	-0.094038	-0.700011	0.187402
Zn5	Zn	-0.418364	-1.068817	-0.312606
Zn6	Zn	0.081636	-0.568817	0.187394
Zn7	Zn	-0.593961	-1.068798	-0.443821
Zn8	Zn	-0.093961	-0.568798	0.056179
O9	O	-0.506174	-1.134426	-0.378221
O10	O	-0.006174	-0.634426	0.121779
O11	O	-0.441659	-1.309917	-0.426459
O12	O	0.058341	-0.809917	0.073541
O13	O	-0.570780	-1.182587	-0.202752
O14	O	-0.070780	-0.682587	0.297248
O15	O	-0.271339	-1.086266	-0.330037
O16	O	0.228661	-0.586266	0.169963
O17	O	-0.570749	-1.309867	-0.330022
O18	O	-0.070749	-0.809867	0.169978
O19	O	-0.271315	-1.182704	-0.426467
O20	O	0.228685	-0.682704	0.073533
O21	O	-0.441713	-1.086199	-0.202758
O22	O	0.058287	-0.586199	0.297242
O23	O	-0.441639	-0.958968	-0.330000
O24	O	0.058361	-0.458968	0.170000
O25	O	-0.570617	-1.086233	-0.553673
O26	O	-0.070617	-0.586233	-0.053673
O27	O	-0.570649	-0.958953	-0.426403
O28	O	-0.070649	-0.458953	0.073597
O29	O	-0.441584	-1.182686	-0.553701
O30	O	0.058416	-0.682686	-0.053701
O31	O	-0.741048	-1.182568	-0.329985
O32	O	-0.241048	-0.682568	0.170015
O33	O	-0.740992	-1.086167	-0.426394
O34	O	-0.240992	-0.586167	0.073606
C35	C	-0.506140	-0.930478	-0.378198
C36	C	-0.006140	-0.430478	0.121802
C37	C	-0.506150	-0.843229	-0.378207
C38	C	-0.006150	-0.343229	0.121793
C39	C	-0.439052	-0.802266	-0.428498
C40	C	0.060948	-0.302266	0.071502
C41	C	-0.439057	-0.720285	-0.428500
C42	C	0.060943	-0.220285	0.071500
C43	C	-0.506166	-0.679269	-0.378214
C44	C	-0.006166	-0.179269	0.121786
C45	C	-0.573268	-0.720238	-0.327918
C46	C	-0.073268	-0.220238	0.172082
C47	C	-0.573257	-0.802217	-0.327913
C48	C	-0.073257	-0.302217	0.172087
C49	C	-0.573288	-0.549368	-0.327934
C50	C	-0.073288	-0.049368	0.172066
C51	C	-0.573301	-0.467383	-0.327940
C52	C	-0.073301	0.032617	0.172060
C53	C	-0.439088	-0.467436	-0.428520
C54	C	0.060912	0.032564	0.071480
C55	C	-0.439077	-0.549415	-0.428515
C56	C	0.060923	-0.049415	0.071485
C57	C	-0.506180	-0.590378	-0.378220
C58	C	-0.006180	-0.090378	0.121780
C59	C	-0.779141	-1.134379	-0.378202
C60	C	-0.279141	-0.634379	0.121798
C61	C	-0.895918	-1.134431	-0.378220
C62	C	-0.395918	-0.634431	0.121780
C63	C	-0.895923	-1.234889	-0.277904
C64	C	-0.395923	-0.734889	0.222096
C65	C	-0.950787	-1.285139	-0.227756
C66	C	-0.450787	-0.785139	0.272244
C67	C	-1.060508	-1.285185	-0.227777
C68	C	-0.560508	-0.785185	0.272223
C69	C	-1.115369	-1.234977	-0.277954
C70	C	-0.615369	-0.734977	0.222046
C71	C	-1.060505	-1.184728	-0.328103
C72	C	-0.560505	-0.684728	0.171897
C73	C	-0.950781	-1.184686	-0.328074
C74	C	-0.450781	-0.684686	0.171926
C75	C	-1.060500	-1.084275	-0.428421
C76	C	-0.560500	-0.584275	0.071579
C77	C	-0.950778	-1.084224	-0.428397
C78	C	-0.450778	-0.584224	0.071603
C79	C	-1.115360	-1.034067	-0.478598
C80	C	-0.615360	-0.534067	0.021402
C81	C	-1.060497	-0.983813	-0.528744
C82	C	-0.560497	-0.483813	-0.028744
C83	C	-0.950769	-0.983768	-0.528720
C84	C	-0.450769	-0.483768	-0.028720
C85	C	-0.895915	-1.033974	-0.478545
C86	C	-0.395915	-0.533974	0.021455
C87	C	-0.232140	-1.134495	-0.378257
C88	C	0.267860	-0.634495	0.121743
C89	C	-0.115363	-1.134524	-0.378272
C90	C	0.384637	-0.634524	0.121728
C91	C	-0.506089	-1.134465	-0.582965
C92	C	-0.006089	-0.634465	-0.082965
C93	C	-0.506052	-1.134482	-0.670215
C94	C	-0.006052	-0.634482	-0.170215
C95	C	-0.506203	-0.339171	-0.378238
C96	C	-0.006203	0.160829	0.121762
C97	C	-0.506202	-0.426420	-0.378230
C98	C	-0.006202	0.073580	0.121770
C99	C	-0.573135	-1.184742	-1.046029
C100	C	-0.073135	-0.684742	-0.546029
C101	C	-0.573165	-1.184722	-0.964048
C102	C	-0.073165	-0.684722	-0.464048
C103	C	-0.505978	-1.134532	-0.923064
C104	C	-0.005978	-0.634532	-0.423064
C105	C	-0.438763	-1.084353	-0.964065
C106	C	0.061237	-0.584353	-0.464065
C107	C	-0.438739	-1.084370	-1.046044
C108	C	0.061261	-0.584370	-0.546044
C109	C	-0.438817	-1.084324	-0.793195
C110	C	0.061183	-0.584324	-0.293195
C111	C	-0.438840	-1.084308	-0.711210
C112	C	0.061160	-0.584308	-0.211210
C113	C	-0.573244	-1.184676	-0.711199
C114	C	-0.073244	-0.684676	-0.211199
C115	C	-0.573220	-1.184693	-0.793178
C116	C	-0.073220	-0.684693	-0.293178
C117	C	-0.506003	-1.134514	-0.834173
C118	C	-0.006003	-0.634514	-0.334173
C119	C	-0.506183	-1.134433	-0.174273
C120	C	-0.006183	-0.634433	0.325727
C121	C	-0.505923	-1.134568	-0.087024
C122	C	-0.005923	-0.634568	0.412976
H123	H	-0.384436	-0.582808	-0.469466
H124	H	0.115564	-0.082808	0.030534
O125	O	-0.645667	-0.423139	-0.273695
O126	O	-0.145667	0.076861	0.226305
H127	H	-0.728149	-0.438871	-0.287033
H128	H	-0.228149	0.061129	0.212967
O129	O	-0.645703	-1.238817	-0.837378
O130	O	-0.145703	-0.738817	-0.337378
H131	H	-0.627721	-1.300430	-0.821653
H132	H	-0.127721	-0.800430	-0.321653
O133	O	-1.119685	-1.339399	-0.173705
O134	O	-0.619685	-0.839399	0.326295
H135	H	-1.205196	-1.331002	-0.182163
H136	H	-0.705196	-0.831002	0.317837
H137	H	-0.906110	-1.326019	-0.186904
H138	H	-0.406110	-0.826019	0.313096
O139	O	-0.645664	-0.593555	-0.273691
O140	O	-0.145664	-0.093555	0.226309
H141	H	-0.692341	-0.551263	-0.238731
H142	H	-0.192341	-0.051263	0.261269
H143	H	-1.204710	-1.235026	-0.277974
H144	H	-0.704710	-0.735026	0.222026
O145	O	-0.645599	-1.238877	-1.090233
O146	O	-0.145599	-0.738877	-0.590233
H147	H	-0.699024	-1.203733	-1.127573
H148	H	-0.199024	-0.703733	-0.627573
O149	O	-1.233703	-1.034106	-0.478620
O150	O	-0.733703	-0.534106	0.021380
H151	H	-1.262639	-1.077474	-0.435312
H152	H	-0.762639	-0.577474	0.064688
H153	H	-0.806582	-1.234847	-0.277872
H154	H	-0.306582	-0.734847	0.222128
O155	O	-1.119662	-0.929657	-0.582852
O156	O	-0.619662	-0.429657	-0.082852
H157	H	-1.205175	-0.938129	-0.574439
H158	H	-0.705175	-0.438129	-0.074439
O159	O	-0.891594	-0.929562	-0.582801
O160	O	-0.391594	-0.429562	-0.082801
H161	H	-0.948179	-0.894655	-0.617685
H162	H	-0.448179	-0.394655	-0.117685
H163	H	-0.384406	-0.835655	-0.469448
H164	H	0.115594	-0.335655	0.030552
O165	O	-0.777572	-1.033912	-0.478525
O166	O	-0.277572	-0.533912	0.021475
H167	H	-0.748556	-1.093094	-0.494437
H168	H	-0.248556	-0.593094	0.005563
H169	H	-0.627909	-1.225569	-0.930674
H170	H	-0.127909	-0.725569	-0.430674
O171	O	-0.645753	-1.238794	-0.666991
O172	O	-0.145753	-0.738794	-0.166991
H173	H	-0.634497	-1.230345	-0.603100
H174	H	-0.134497	-0.730345	-0.103100
H175	H	-0.384420	-0.686937	-0.469453
H176	H	0.115580	-0.186937	0.030547
H177	H	-0.627905	-0.686836	-0.286971
H178	H	-0.127905	-0.186836	0.213029
O179	O	-0.645626	-0.846398	-0.273667
O180	O	-0.145626	-0.346398	0.226333
H181	H	-0.634335	-0.910294	-0.282103
H182	H	-0.134335	-0.410294	0.217897
H183	H	-0.384063	-1.043484	-0.930689
H184	H	0.115937	-0.543484	-0.430689
O185	O	-0.366374	-1.030174	-0.667007
O186	O	0.133626	-0.530174	-0.167007
H187	H	-0.377676	-1.038603	-0.603115
H188	H	0.122324	-0.538603	-0.103115
O189	O	-0.366316	-1.030209	-0.837415
O190	O	0.133684	-0.530209	-0.337415
H191	H	-0.319589	-0.995313	-0.795146
H192	H	0.180411	-0.495313	-0.295146
H193	H	-0.384007	-1.043514	-1.079421
H194	H	0.115993	-0.543514	-0.579421
H195	H	-0.384448	-0.434080	-0.469471
H196	H	0.115552	0.065920	0.030529
