data_functionalizedCrystal
_audit_creation_method	'MofGen! by Chris Wilmer'
_symmetry_space_group_name_H-M	'P1'
_symmetry_Int_Tables_number	1
_symmetry_cell_setting	triclinic
loop_
_symmetry_equiv_pos_as_xyz
  x,y,z
_cell_length_a	29.839134
_cell_length_b	19.805405
_cell_length_c	19.805399
_cell_angle_alpha	90.030709
_cell_angle_beta	90.025669
_cell_angle_gamma	90.021271
loop_
_atom_site_label
_atom_site_type_symbol
_atom_site_fract_x
_atom_site_fract_y
_atom_site_fract_z
Zn1	Zn	-0.686783	0.269562	-0.382870
Zn2	Zn	-0.436783	0.519562	-0.132870
Zn3	Zn	-0.186783	0.769562	0.117130
Zn4	Zn	0.063217	1.019562	0.367130
Zn5	Zn	-0.686730	0.382753	-0.269678
Zn6	Zn	-0.436730	0.632753	-0.019678
Zn7	Zn	-0.186730	0.882753	0.230322
Zn8	Zn	0.063270	1.132753	0.480322
Zn9	Zn	-0.611661	0.269574	-0.269677
Zn10	Zn	-0.361661	0.519574	-0.019677
Zn11	Zn	-0.111661	0.769574	0.230323
Zn12	Zn	0.138339	1.019574	0.480323
Zn13	Zn	-0.611633	0.382704	-0.382808
Zn14	Zn	-0.361633	0.632704	-0.132808
Zn15	Zn	-0.111633	0.882704	0.117192
Zn16	Zn	0.138367	1.132704	0.367192
O17	O	-0.649202	0.326148	-0.326258
O18	O	-0.399202	0.576148	-0.076258
O19	O	-0.149202	0.826148	0.173742
O20	O	0.100798	1.076148	0.423742
O21	O	-0.749643	0.284593	-0.367881
O22	O	-0.499643	0.534593	-0.117881
O23	O	-0.249643	0.784593	0.132119
O24	O	0.000357	1.034593	0.382119
O25	O	-0.676761	0.367765	-0.174962
O26	O	-0.426761	0.617765	0.075038
O27	O	-0.176761	0.867765	0.325038
O28	O	0.073239	1.117765	0.575038
O29	O	-0.621660	0.174855	-0.284718
O30	O	-0.371660	0.424855	-0.034718
O31	O	-0.121660	0.674855	0.215282
O32	O	0.128340	0.924855	0.465282
O33	O	-0.749604	0.367754	-0.284720
O34	O	-0.499604	0.617754	-0.034720
O35	O	-0.249604	0.867754	0.215280
O36	O	0.000396	1.117754	0.465280
O37	O	-0.676852	0.174847	-0.367880
O38	O	-0.426852	0.424847	-0.117880
O39	O	-0.176852	0.674847	0.132120
O40	O	0.073148	0.924847	0.382120
O41	O	-0.621608	0.284612	-0.174961
O42	O	-0.371608	0.534612	0.075039
O43	O	-0.121608	0.784612	0.325039
O44	O	0.128392	1.034612	0.575039
O45	O	-0.548790	0.284565	-0.284658
O46	O	-0.298790	0.534565	-0.034658
O47	O	-0.048790	0.784565	0.215342
O48	O	0.201210	1.034565	0.465342
O49	O	-0.621612	0.367671	-0.477533
O50	O	-0.371612	0.617671	-0.227533
O51	O	-0.121612	0.867671	0.022467
O52	O	0.128388	1.117671	0.272467
O53	O	-0.548770	0.367682	-0.367774
O54	O	-0.298770	0.617682	-0.117774
O55	O	-0.048770	0.867682	0.132226
O56	O	0.201230	1.117682	0.382226
O57	O	-0.676825	0.284546	-0.477578
O58	O	-0.426825	0.534546	-0.227578
O59	O	-0.176825	0.784546	0.022422
O60	O	0.073175	1.034546	0.272422
O61	O	-0.676734	0.477463	-0.284660
O62	O	-0.426734	0.727463	-0.034660
O63	O	-0.176734	0.977463	0.215340
O64	O	0.073266	1.227463	0.465340
O65	O	-0.621561	0.477428	-0.367775
O66	O	-0.371561	0.727428	-0.117775
O67	O	-0.121561	0.977428	0.132225
O68	O	0.128439	1.227428	0.382225
C69	C	-0.649151	0.502004	-0.326226
C70	C	-0.399151	0.752004	-0.076226
C71	C	-0.149151	1.002004	0.173774
C72	C	0.100849	1.252004	0.423774
C73	C	-0.649171	0.577236	-0.326234
C74	C	-0.399171	0.827236	-0.076234
C75	C	-0.149171	1.077236	0.173766
C76	C	0.100829	1.327236	0.423766
C77	C	-0.532479	0.326120	-0.326210
C78	C	-0.282479	0.576120	-0.076210
C79	C	-0.032479	0.826120	0.173790
C80	C	0.217521	1.076120	0.423790
C81	C	-0.482545	0.326124	-0.326205
C82	C	-0.232545	0.576124	-0.076205
C83	C	0.017455	0.826124	0.173795
C84	C	0.267455	1.076124	0.423795
C85	C	-0.766380	0.326178	-0.326308
C86	C	-0.516380	0.576178	-0.076308
C87	C	-0.266380	0.826178	0.173692
C88	C	-0.016380	1.076178	0.423692
C89	C	-0.816314	0.326190	-0.326329
C90	C	-0.566314	0.576190	-0.076329
C91	C	-0.316314	0.826190	0.173671
C92	C	-0.066314	1.076190	0.423671
C93	C	-0.172900	0.369491	-0.369484
C94	C	0.077100	0.619491	-0.119484
C95	C	0.327100	0.869491	0.130516
C96	C	0.577100	1.119491	0.380516
C97	C	0.014773	0.369510	-0.369514
C98	C	0.264773	0.619510	-0.119514
C99	C	0.514773	0.869510	0.130486
C100	C	0.764773	1.119510	0.380486
O101	O	0.039039	0.406351	-0.406283
O102	O	0.289039	0.656351	-0.156283
O103	O	0.539039	0.906351	0.093717
O104	O	0.789039	1.156351	0.343717
N105	N	0.038240	0.326173	-0.326309
N106	N	0.288240	0.576173	-0.076309
N107	N	0.538240	0.826173	0.173691
N108	N	0.788240	1.076173	0.423691
C109	C	0.014787	0.282825	-0.283097
C110	C	0.264787	0.532825	-0.033097
C111	C	0.514787	0.782825	0.216903
C112	C	0.764787	1.032825	0.466903
O113	O	0.039054	0.245960	-0.246354
O114	O	0.289054	0.495960	0.003646
O115	O	0.539054	0.745960	0.253646
O116	O	0.789054	0.995960	0.503646
C117	C	-0.172885	0.282803	-0.283071
C118	C	0.077115	0.532803	-0.033071
C119	C	0.327115	0.782803	0.216929
C120	C	0.577115	1.032803	0.466929
C121	C	-0.196350	0.326148	-0.326274
C122	C	0.053650	0.576148	-0.076274
C123	C	0.303650	0.826148	0.173726
C124	C	0.553650	1.076148	0.423726
C125	C	-0.196365	0.412832	-0.412684
C126	C	0.053635	0.662832	-0.162684
C127	C	0.303635	0.912832	0.087316
C128	C	0.553635	1.162832	0.337316
C129	C	-0.243281	0.412830	-0.412673
C130	C	0.006719	0.662830	-0.162673
C131	C	0.256719	0.912830	0.087327
C132	C	0.506719	1.162830	0.337327
C133	C	-0.266731	0.369486	-0.369463
C134	C	-0.016731	0.619486	-0.119463
C135	C	0.233269	0.869486	0.130537
C136	C	0.483269	1.119486	0.380537
C137	C	-0.243266	0.326145	-0.326263
C138	C	0.006734	0.576145	-0.076263
C139	C	0.256734	0.826145	0.173737
C140	C	0.506734	1.076145	0.423737
C141	C	-0.196338	0.239452	-0.239863
C142	C	0.053662	0.489452	0.010137
C143	C	0.303662	0.739452	0.260137
C144	C	0.553662	0.989452	0.510137
C145	C	-0.243259	0.239449	-0.239861
C146	C	0.006741	0.489449	0.010139
C147	C	0.256741	0.739449	0.260139
C148	C	0.506741	0.989449	0.510139
C149	C	-0.266724	0.282794	-0.283064
C150	C	-0.016724	0.532794	-0.033064
C151	C	0.233276	0.782794	0.216936
C152	C	0.483276	1.032794	0.466936
C153	C	-0.313632	0.282799	-0.283042
C154	C	-0.063632	0.532799	-0.033042
C155	C	0.186368	0.782799	0.216958
C156	C	0.436368	1.032799	0.466958
N157	N	-0.337099	0.326136	-0.326247
N158	N	-0.087099	0.576136	-0.076247
N159	N	0.162901	0.826136	0.173753
N160	N	0.412901	1.076136	0.423753
C161	C	-0.313649	0.369480	-0.369457
C162	C	-0.063649	0.619480	-0.119457
C163	C	0.186351	0.869480	0.130543
C164	C	0.436351	1.119480	0.380543
C165	C	0.113317	0.282841	-0.283113
C166	C	0.363317	0.532841	-0.033113
C167	C	0.613317	0.782841	0.216887
C168	C	0.863317	1.032841	0.466887
C169	C	0.160235	0.282847	-0.283119
C170	C	0.410235	0.532847	-0.033119
C171	C	0.660235	0.782847	0.216881
C172	C	0.910235	1.032847	0.466881
C173	C	0.160218	0.369531	-0.369537
C174	C	0.410218	0.619531	-0.119537
C175	C	0.660218	0.869531	0.130463
C176	C	0.910218	1.119531	0.380463
C177	C	0.113299	0.369528	-0.369527
C178	C	0.363299	0.619528	-0.119527
C179	C	0.613299	0.869528	0.130473
C180	C	0.863299	1.119528	0.380473
C181	C	0.089850	0.326178	-0.326318
C182	C	0.339850	0.576178	-0.076318
C183	C	0.589850	0.826178	0.173682
C184	C	0.839850	1.076178	0.423682
C185	C	-0.412175	0.369472	-0.369432
C186	C	-0.162175	0.619472	-0.119432
C187	C	0.087825	0.869472	0.130568
C188	C	0.337825	1.119472	0.380568
C189	C	-0.459094	0.369467	-0.369415
C190	C	-0.209094	0.619467	-0.119415
C191	C	0.040906	0.869467	0.130585
C192	C	0.290906	1.119467	0.380585
C193	C	-0.459073	0.282780	-0.283000
C194	C	-0.209073	0.532780	-0.033000
C195	C	0.040927	0.782780	0.217000
C196	C	0.290927	1.032780	0.467000
C197	C	-0.412158	0.282787	-0.283013
C198	C	-0.162158	0.532787	-0.033013
C199	C	0.087842	0.782787	0.216987
C200	C	0.337842	1.032787	0.466987
C201	C	-0.388710	0.326135	-0.326235
C202	C	-0.138710	0.576135	-0.076235
C203	C	0.111290	0.826135	0.173765
C204	C	0.361290	1.076135	0.423765
O205	O	-0.337926	0.245972	-0.246298
O206	O	-0.087926	0.495972	0.003702
O207	O	0.162074	0.745972	0.253702
O208	O	0.412074	0.995972	0.503702
O209	O	-0.337924	0.406329	-0.406205
O210	O	-0.087924	0.656329	-0.156205
O211	O	0.162076	0.906329	0.093795
O212	O	0.412076	1.156329	0.343795
C213	C	-0.125985	0.369494	-0.369495
C214	C	0.124015	0.619494	-0.119495
C215	C	0.374015	0.869494	0.130505
C216	C	0.624015	1.119494	0.380505
C217	C	-0.102520	0.326153	-0.326295
C218	C	0.147480	0.576153	-0.076295
C219	C	0.397480	0.826153	0.173705
C220	C	0.647480	1.076153	0.423705
C221	C	-0.125970	0.282810	-0.283084
C222	C	0.124030	0.532810	-0.033084
C223	C	0.374030	0.782810	0.216916
C224	C	0.624030	1.032810	0.466916
C225	C	-0.055602	0.326159	-0.326300
C226	C	0.194398	0.576159	-0.076300
C227	C	0.444398	0.826159	0.173700
C228	C	0.694398	1.076159	0.423700
C229	C	-0.032151	0.369503	-0.369511
C230	C	0.217849	0.619503	-0.119511
C231	C	0.467849	0.869503	0.130489
C232	C	0.717849	1.119503	0.380489
C233	C	-0.055619	0.412840	-0.412716
C234	C	0.194381	0.662840	-0.162716
C235	C	0.444381	0.912840	0.087284
C236	C	0.694381	1.162840	0.337284
C237	C	-0.102534	0.412837	-0.412705
C238	C	0.147466	0.662837	-0.162705
C239	C	0.397466	0.912837	0.087295
C240	C	0.647466	1.162837	0.337295
C241	C	-0.102502	0.239473	-0.239880
C242	C	0.147498	0.489473	0.010120
C243	C	0.397498	0.739473	0.260120
C244	C	0.647498	0.989473	0.510120
C245	C	-0.055587	0.239479	-0.239893
C246	C	0.194413	0.489479	0.010107
C247	C	0.444413	0.739479	0.260107
C248	C	0.694413	0.989479	0.510107
C249	C	-0.032137	0.282823	-0.283104
C250	C	0.217863	0.532823	-0.033104
C251	C	0.467863	0.782823	0.216896
C252	C	0.717863	1.032823	0.466896
C253	C	-0.649221	0.326101	-0.502801
C254	C	-0.399221	0.576101	-0.252801
C255	C	-0.149221	0.826101	-0.002801
C256	C	0.100779	1.076101	0.247199
C257	C	-0.649230	0.326081	-0.578033
C258	C	-0.399230	0.576081	-0.328033
C259	C	-0.149230	0.826081	-0.078033
C260	C	0.100770	1.076081	0.171967
C261	C	-0.649265	0.149606	-0.326306
C262	C	-0.399265	0.399606	-0.076306
C263	C	-0.149265	0.649606	0.173694
C264	C	0.100735	0.899606	0.423694
C265	C	-0.649291	0.074374	-0.326326
C266	C	-0.399291	0.324374	-0.076326
C267	C	-0.149291	0.574374	0.173674
C268	C	0.100709	0.824374	0.423674
C269	C	-0.677927	0.612577	-0.283001
C270	C	-0.427927	0.862577	-0.033001
C271	C	-0.177927	1.112577	0.216999
C272	C	0.072073	1.362577	0.466999
C273	C	-0.677946	0.683265	-0.283016
C274	C	-0.427946	0.933265	-0.033016
C275	C	-0.177946	1.183265	0.216984
C276	C	0.072054	1.433265	0.466984
C277	C	-0.649206	0.718612	-0.326261
C278	C	-0.399206	0.968612	-0.076261
C279	C	-0.149206	1.218612	0.173739
C280	C	0.100794	1.468612	0.423739
C281	C	-0.620448	0.683267	-0.369499
C282	C	-0.370448	0.933267	-0.119499
C283	C	-0.120448	1.183267	0.130501
C284	C	0.129552	1.433267	0.380501
C285	C	-0.620432	0.612579	-0.369487
C286	C	-0.370432	0.862579	-0.119487
C287	C	-0.120432	1.112579	0.130513
C288	C	0.129568	1.362579	0.380513
C289	C	-0.620514	0.968340	-0.369549
C290	C	-0.370514	1.218340	-0.119549
C291	C	-0.120514	1.468340	0.130451
C292	C	0.129486	1.718340	0.380451
C293	C	-0.620532	1.039032	-0.369557
C294	C	-0.370532	1.289032	-0.119557
C295	C	-0.120532	1.539032	0.130443
C296	C	0.129468	1.789032	0.380443
C297	C	-0.678029	1.039026	-0.283078
C298	C	-0.428029	1.289026	-0.033078
C299	C	-0.178029	1.539026	0.216922
C300	C	0.071971	1.789026	0.466922
C301	C	-0.678013	0.968338	-0.283066
C302	C	-0.428013	1.218338	-0.033066
C303	C	-0.178013	1.468338	0.216934
C304	C	0.071987	1.718338	0.466934
C305	C	-0.649257	0.932999	-0.326306
C306	C	-0.399257	1.182999	-0.076306
C307	C	-0.149257	1.432999	0.173694
C308	C	0.100743	1.682999	0.423694
C309	C	-0.649237	0.856351	-0.326291
C310	C	-0.399237	1.106351	-0.076291
C311	C	-0.149237	1.356351	0.173709
C312	C	0.100763	1.606351	0.423709
C313	C	-0.649223	0.795259	-0.326274
C314	C	-0.399223	1.045259	-0.076274
C315	C	-0.149223	1.295259	0.173726
C316	C	0.100777	1.545259	0.423726
C317	C	-0.620520	0.282780	-0.613376
C318	C	-0.370520	0.532780	-0.363376
C319	C	-0.120520	0.782780	-0.113376
C320	C	0.129480	1.032780	0.136624
C321	C	-0.620526	0.282767	-0.684065
C322	C	-0.370526	0.532767	-0.434065
C323	C	-0.120526	0.782767	-0.184065
C324	C	0.129474	1.032767	0.065935
C325	C	-0.649245	0.326052	-0.719409
C326	C	-0.399245	0.576052	-0.469409
C327	C	-0.149245	0.826052	-0.219409
C328	C	0.100755	1.076052	0.030591
C329	C	-0.677956	0.369359	-0.684061
C330	C	-0.427956	0.619359	-0.434061
C331	C	-0.177956	0.869359	-0.184061
C332	C	0.072044	1.119359	0.065939
C333	C	-0.677947	0.369375	-0.613374
C334	C	-0.427947	0.619375	-0.363374
C335	C	-0.177947	0.869375	-0.113374
C336	C	0.072053	1.119375	0.136626
C337	C	-0.677992	0.369295	-0.969134
C338	C	-0.427992	0.619295	-0.719134
C339	C	-0.177992	0.869295	-0.469134
C340	C	0.072008	1.119295	-0.219134
C341	C	-0.677999	0.369274	-1.039826
C342	C	-0.427999	0.619274	-0.789826
C343	C	-0.177999	0.869274	-0.539826
C344	C	0.072001	1.119274	-0.289826
C345	C	-0.620570	0.282687	-1.039826
C346	C	-0.370570	0.532687	-0.789826
C347	C	-0.120570	0.782687	-0.539826
C348	C	0.129430	1.032687	-0.289826
C349	C	-0.620562	0.282703	-0.969138
C350	C	-0.370562	0.532703	-0.719138
C351	C	-0.120562	0.782703	-0.469138
C352	C	0.129438	1.032703	-0.219138
C353	C	-0.649271	0.326012	-0.933796
C354	C	-0.399271	0.576012	-0.683796
C355	C	-0.149271	0.826012	-0.433796
C356	C	0.100729	1.076012	-0.183796
C357	C	-0.649263	0.326027	-0.857148
C358	C	-0.399263	0.576027	-0.607148
C359	C	-0.149263	0.826027	-0.357148
C360	C	0.100737	1.076027	-0.107148
C361	C	-0.649255	0.326035	-0.796056
C362	C	-0.399255	0.576035	-0.546056
C363	C	-0.149255	0.826035	-0.296056
C364	C	0.100745	1.076035	-0.046056
C365	C	-0.649208	0.326146	-0.150402
C366	C	-0.399208	0.576146	0.099598
C367	C	-0.149208	0.826146	0.349598
C368	C	0.100792	1.076146	0.599598
C369	C	-0.649287	0.325976	-0.075171
C370	C	-0.399287	0.575976	0.174829
C371	C	-0.149287	0.825976	0.424829
C372	C	0.100713	1.075976	0.674829
H373	H	-0.478197	0.404766	-0.404597
H374	H	-0.228197	0.654766	-0.154597
H375	H	0.021803	0.904766	0.095403
H376	H	0.271803	1.154766	0.345403
Br377	Br	-0.716978	0.731225	-0.224344
Br378	Br	-0.466978	0.981225	0.025656
Br379	Br	-0.216978	1.231225	0.275656
Br380	Br	0.033022	1.481225	0.525656
H381	H	0.179337	0.247558	-0.247932
H382	H	0.429337	0.497558	0.002068
H383	H	0.679337	0.747558	0.252068
H384	H	0.929337	0.997558	0.502068
H385	H	-0.393089	0.404768	-0.404628
H386	H	-0.143089	0.654768	-0.154628
H387	H	0.106911	0.904768	0.095372
H388	H	0.356911	1.154768	0.345372
H389	H	0.094229	0.247539	-0.247923
H390	H	0.344229	0.497539	0.002077
H391	H	0.594229	0.747539	0.252077
H392	H	0.844229	0.997539	0.502077
H393	H	-0.597146	0.247508	-0.712838
H394	H	-0.347146	0.497508	-0.462838
H395	H	-0.097146	0.747508	-0.212838
H396	H	0.152854	0.997508	0.037162
H397	H	-0.701414	0.939561	-0.247850
H398	H	-0.451414	1.189561	0.002150
H399	H	-0.201414	1.439561	0.252150
H400	H	0.048586	1.689561	0.502150
Br401	Br	-0.717057	1.086989	-0.224396
Br402	Br	-0.467057	1.336989	0.025604
Br403	Br	-0.217057	1.586989	0.275604
Br404	Br	0.032943	1.836989	0.525604
Br405	Br	-0.023784	0.471667	-0.471353
Br406	Br	0.226216	0.721667	-0.221353
Br407	Br	0.476216	0.971667	0.028647
Br408	Br	0.726216	1.221667	0.278647
H409	H	-0.701329	0.583802	-0.247783
H410	H	-0.451329	0.833802	0.002217
H411	H	-0.201329	1.083802	0.252217
H412	H	0.048671	1.333802	0.502217
H413	H	-0.036486	0.204183	-0.204706
H414	H	0.213514	0.454183	0.045294
H415	H	0.463514	0.704183	0.295294
H416	H	0.713514	0.954183	0.545294
H417	H	-0.597136	0.247528	-0.584605
H418	H	-0.347136	0.497528	-0.334605
H419	H	-0.097136	0.747528	-0.084605
H420	H	0.152864	0.997528	0.165395
Br421	Br	-0.134373	0.471666	-0.471340
Br422	Br	0.115627	0.721666	-0.221340
Br423	Br	0.365627	0.971666	0.028660
Br424	Br	0.615627	1.221666	0.278660
H425	H	-0.121591	0.204176	-0.204692
H426	H	0.128409	0.454176	0.045308
H427	H	0.378409	0.704176	0.295308
H428	H	0.628409	0.954176	0.545308
H429	H	-0.597129	1.067809	-0.404777
H430	H	-0.347129	1.317809	-0.154777
H431	H	-0.097129	1.567809	0.095223
H432	H	0.152871	1.817809	0.345223
Br433	Br	-0.581489	0.920388	-0.428232
Br434	Br	-0.331489	1.170388	-0.178232
Br435	Br	-0.081489	1.420388	0.071768
Br436	Br	0.168511	1.670388	0.321768
H437	H	-0.597049	0.712052	-0.404713
H438	H	-0.347049	0.962052	-0.154713
H439	H	-0.097049	1.212052	0.095287
H440	H	0.152951	1.462052	0.345287
H441	H	0.094197	0.404822	-0.404708
H442	H	0.344197	0.654822	-0.154708
H443	H	0.594197	0.904822	0.095292
H444	H	0.844197	1.154822	0.345292
H445	H	-0.597016	0.583806	-0.404693
H446	H	-0.347016	0.833806	-0.154693
H447	H	-0.097016	1.083806	0.095307
H448	H	0.152984	1.333806	0.345307
Br449	Br	-0.581588	0.223953	-0.921175
Br450	Br	-0.331588	0.473953	-0.671175
Br451	Br	-0.081588	0.723953	-0.421175
Br452	Br	0.168412	0.973953	-0.171175
Br453	Br	-0.716909	0.428149	-0.565407
Br454	Br	-0.466909	0.678149	-0.315407
Br455	Br	-0.216909	0.928149	-0.065407
Br456	Br	0.033091	1.178149	0.184593
H457	H	-0.597193	0.247425	-1.068610
H458	H	-0.347193	0.497425	-0.818610
H459	H	-0.097193	0.747425	-0.568610
H460	H	0.152807	0.997425	-0.318610
Br461	Br	-0.716977	0.428023	-1.087793
Br462	Br	-0.466977	0.678023	-0.837793
Br463	Br	-0.216977	0.928023	-0.587793
Br464	Br	0.033023	1.178023	-0.337793
Br465	Br	-0.716957	0.428067	-0.921179
Br466	Br	-0.466957	0.678067	-0.671179
Br467	Br	-0.216957	0.928067	-0.421179
Br468	Br	0.033043	1.178067	-0.171179
Br469	Br	-0.716928	0.428111	-0.732027
Br470	Br	-0.466928	0.678111	-0.482027
Br471	Br	-0.216928	0.928111	-0.232027
Br472	Br	0.033072	1.178111	0.017973
H473	H	-0.262382	0.448124	-0.447855
H474	H	-0.012382	0.698124	-0.197855
H475	H	0.237618	0.948124	0.052145
H476	H	0.487618	1.198124	0.302145
Br477	Br	0.192052	0.428351	-0.428183
Br478	Br	0.442052	0.678351	-0.178183
Br479	Br	0.692052	0.928351	0.071817
Br480	Br	0.942052	1.178351	0.321817
H481	H	-0.177241	0.204158	-0.204680
H482	H	0.072759	0.454158	0.045320
H483	H	0.322759	0.704158	0.295320
H484	H	0.572759	0.954158	0.545320
Br485	Br	-0.380311	0.223975	-0.224368
Br486	Br	-0.130311	0.473975	0.025632
Br487	Br	0.119689	0.723975	0.275632
Br488	Br	0.369689	0.973975	0.525632
Br489	Br	-0.275081	0.180611	-0.181218
Br490	Br	-0.025081	0.430611	0.068782
Br491	Br	0.224919	0.680611	0.318782
Br492	Br	0.474919	0.930611	0.568782
H493	H	-0.177277	0.448128	-0.447875
H494	H	0.072723	0.698128	-0.197875
H495	H	0.322723	0.948128	0.052125
H496	H	0.572723	1.198128	0.302125
Br497	Br	-0.490908	0.223960	-0.224359
Br498	Br	-0.240908	0.473960	0.025641
Br499	Br	0.009092	0.723960	0.275641
Br500	Br	0.259092	0.973960	0.525641
