data_functionalizedCrystal
_audit_creation_method	'MofGen! by Chris Wilmer'
_symmetry_space_group_name_H-M	'P1'
_symmetry_Int_Tables_number	1
_symmetry_cell_setting	triclinic
loop_
_symmetry_equiv_pos_as_xyz
  x,y,z
_cell_length_a	25.639242
_cell_length_b	25.639239
_cell_length_c	10.685910
_cell_angle_alpha	94.382110
_cell_angle_beta	94.388297
_cell_angle_gamma	90.034213
loop_
_atom_site_label
_atom_site_type_symbol
_atom_site_fract_x
_atom_site_fract_y
_atom_site_fract_z
Zn1	Zn	0.821887	-0.185630	0.713777
Zn2	Zn	0.815110	-0.279744	0.502750
Zn3	Zn	0.727763	-0.192318	0.502749
Zn4	Zn	0.734404	-0.273033	0.713666
O5	O	0.774791	-0.232681	0.608236
O6	O	0.894154	-0.198124	0.685830
O7	O	0.797908	-0.273754	0.326165
O8	O	0.740305	-0.118264	0.530788
O9	O	0.889176	-0.267269	0.530789
O10	O	0.809457	-0.113350	0.685829
O11	O	0.733734	-0.209523	0.326164
O12	O	0.655477	-0.203015	0.530681
O13	O	0.751625	-0.255831	0.890266
O14	O	0.660357	-0.262316	0.685641
O15	O	0.815897	-0.191616	0.890347
O16	O	0.804348	-0.352020	0.530682
O17	O	0.745054	-0.347090	0.685642
C18	C	0.638946	-0.232663	0.608150
C19	C	0.580832	-0.232667	0.608143
C20	C	0.223019	-0.263617	0.688847
C21	C	0.168415	-0.263620	0.688866
O22	O	0.142344	-0.289912	0.757411
N23	N	0.138555	-0.232693	0.608318
C24	C	0.163301	-0.201757	0.527753
O25	O	0.132888	-0.175451	0.459243
C26	C	0.217904	-0.201752	0.527740
C27	C	0.247761	-0.232685	0.608285
C28	C	0.252876	-0.294547	0.769386
C29	C	0.307476	-0.294545	0.769364
C30	C	0.332218	-0.263613	0.688803
C31	C	0.302361	-0.232683	0.608263
C32	C	0.242649	-0.170814	0.447183
C33	C	0.297256	-0.170811	0.447178
C34	C	0.327114	-0.201744	0.527723
C35	C	0.381703	-0.201749	0.527680
N36	N	0.411564	-0.232676	0.608229
C37	C	0.386821	-0.263608	0.688790
C38	C	0.048631	-0.201769	0.527787
C39	C	-0.005971	-0.201777	0.527792
C40	C	-0.000853	-0.263639	0.688908
C41	C	0.053750	-0.263634	0.688895
C42	C	0.078492	-0.232696	0.608336
C43	C	0.501485	-0.263602	0.688737
C44	C	0.556089	-0.263599	0.688705
C45	C	0.550966	-0.201735	0.527594
C46	C	0.496367	-0.201740	0.527622
C47	C	0.471627	-0.232675	0.608204
O48	O	0.407810	-0.175469	0.459175
O49	O	0.417240	-0.289905	0.757301
C50	C	0.774701	-0.368525	0.608178
C51	C	0.774712	-0.426639	0.608195
C52	C	0.805757	-0.789551	0.527686
C53	C	0.805778	-0.844155	0.527703
O54	O	0.832080	-0.874561	0.459187
N55	N	0.774886	-0.868917	0.608319
C56	C	0.743974	-0.839073	0.688933
O57	O	0.717700	-0.865149	0.757506
C58	C	0.743957	-0.784470	0.688922
C59	C	0.774847	-0.759711	0.608291
C60	C	0.836645	-0.764792	0.447062
C61	C	0.836624	-0.710192	0.447044
C62	C	0.805714	-0.680351	0.527649
C63	C	0.774826	-0.705111	0.608273
C64	C	0.713049	-0.754626	0.769541
C65	C	0.713034	-0.700019	0.769523
C66	C	0.743925	-0.675260	0.688893
C67	C	0.743894	-0.620670	0.688859
N68	N	0.774786	-0.595908	0.608243
C69	C	0.805696	-0.625748	0.527638
C70	C	0.744014	-0.953743	0.688953
C71	C	0.744029	-1.008345	0.688959
C72	C	0.805833	-1.013423	0.527729
C73	C	0.805816	-0.958820	0.527718
C74	C	0.774907	-0.928980	0.608336
C75	C	0.805648	-0.511084	0.527605
C76	C	0.805622	-0.456479	0.527590
C77	C	0.743820	-0.451406	0.688823
C78	C	0.743844	-0.506006	0.688834
C79	C	0.774762	-0.535844	0.608221
O80	O	0.717607	-0.590230	0.757344
O81	O	0.831971	-0.599665	0.459088
C82	C	0.911167	-0.232699	0.608322
C83	C	0.969282	-0.232707	0.608359
C84	C	0.785258	-0.222229	0.937373
C85	C	0.789718	-0.217775	1.077632
C86	C	0.774896	-0.096305	0.608321
C87	C	0.774941	-0.038190	0.608358
C88	C	0.764362	-0.243105	1.280378
C89	C	0.759905	-0.247562	1.140119
H90	H	0.317398	-0.145614	0.381583
H91	H	0.818658	-0.188865	1.131443
H92	H	0.718692	-0.526166	0.754494
Cl93	Cl	0.705187	-1.039464	0.790313
H94	H	0.580397	-0.288791	0.754295
Cl95	Cl	0.345003	-0.333432	0.870634
Cl96	Cl	0.875468	-0.679074	0.345693
Cl97	Cl	0.715230	-0.292201	1.057054
Cl98	Cl	0.458830	-0.162861	0.426344
H99	H	0.481349	-0.288791	0.754358
Cl100	Cl	0.582082	-0.162850	0.426324
H101	H	0.232737	-0.319736	0.834995
Cl102	Cl	0.079729	-0.162877	0.426492
H103	H	0.078056	-0.288822	0.754484
H104	H	-0.021008	-0.288824	0.754509
H105	H	-0.030277	-0.176594	0.462192
H106	H	0.830969	-0.938665	0.462062
H107	H	0.830776	-0.436323	0.461926
H108	H	0.687892	-0.774775	0.835194
H109	H	0.218348	-0.145626	0.381591
H110	H	0.831004	-1.037729	0.462101
Cl111	Cl	0.844516	-0.548587	0.426258
H112	H	0.718840	-0.929449	0.754598
Cl113	Cl	0.674176	-0.662509	0.870880
Cl114	Cl	0.875509	-0.802296	0.345716
Cl115	Cl	0.704967	-0.413882	0.790157
