data_functionalizedCrystal
_audit_creation_method	'MofGen! by Chris Wilmer'
_symmetry_space_group_name_H-M	'P1'
_symmetry_Int_Tables_number	1
_symmetry_cell_setting	triclinic
loop_
_symmetry_equiv_pos_as_xyz
  x,y,z
_cell_length_a	16.109301
_cell_length_b	27.731996
_cell_length_c	26.809956
_cell_angle_alpha	90.025346
_cell_angle_beta	90.018047
_cell_angle_gamma	83.041486
loop_
_atom_site_label
_atom_site_type_symbol
_atom_site_fract_x
_atom_site_fract_y
_atom_site_fract_z
O1	O	1.102360	0.062142	0.041459
O2	O	0.860200	0.069874	0.041467
O3	O	0.988823	-0.004359	0.041452
O4	O	0.973736	0.136375	0.041474
O5	O	0.988778	-0.004380	-0.041508
O6	O	0.860154	0.069853	-0.041493
O7	O	1.102314	0.062121	-0.041500
Zn8	Zn	0.981227	0.065984	-0.054668
Zn9	Zn	0.981287	0.066011	0.054634
O10	O	0.973691	0.136354	-0.041485
C11	C	0.829206	0.069550	-0.000012
C12	C	0.736923	0.068611	-0.000010
C13	C	0.427404	0.109590	-0.000012
C14	C	0.514113	0.110477	-0.000009
C15	C	0.535105	0.022402	-0.000016
C16	C	0.448397	0.021515	-0.000015
C17	C	0.394549	0.065111	-0.000016
C18	C	0.567965	0.066884	-0.000013
C19	C	0.661979	0.067845	-0.000010
C20	C	0.300529	0.064150	-0.000018
C21	C	0.988490	-0.022378	-0.000030
C22	C	0.987557	-0.076038	-0.000035
C23	C	0.981709	-0.408768	0.045211
C24	C	0.978164	-0.610441	0.045220
O25	O	0.977691	-0.636504	0.083679
N26	N	0.977699	-0.635671	-0.000001
C27	C	0.978114	-0.610479	-0.045227
O28	O	0.977629	-0.636566	-0.083690
C29	C	0.981653	-0.408807	-0.045235
C30	C	0.982127	-0.383580	-0.000012
C31	C	0.982181	-0.383541	0.090431
C32	C	0.983072	-0.333126	0.090428
C33	C	0.983490	-0.307938	0.045206
C34	C	0.983017	-0.333165	-0.000014
C35	C	0.982063	-0.383616	-0.090461
C36	C	0.982946	-0.333194	-0.090459
C37	C	0.983419	-0.307967	-0.045235
C38	C	0.984326	-0.257562	-0.045240
N39	N	0.984791	-0.232332	-0.000019
C40	C	0.984373	-0.257520	0.045204
C41	C	0.976258	-0.716361	-0.045219
C42	C	0.975375	-0.766779	-0.045217
C43	C	0.975423	-0.766737	0.045230
C44	C	0.976312	-0.716318	0.045227
C45	C	0.976723	-0.691130	0.000001
C46	C	0.986245	-0.151645	0.045195
C47	C	0.987139	-0.101226	0.045188
C48	C	0.987086	-0.101272	-0.045259
C49	C	0.986197	-0.151687	-0.045252
C50	C	0.985773	-0.176872	-0.000022
O51	O	0.984790	-0.231467	-0.083678
O52	O	0.984840	-0.231423	0.083661
C53	C	0.980818	-0.459183	0.045214
C54	C	0.980345	-0.484410	-0.000006
C55	C	0.980763	-0.459222	-0.045229
C56	C	0.979462	-0.534828	-0.000004
C57	C	0.979044	-0.560016	0.045218
C58	C	0.979509	-0.534786	0.090439
C59	C	0.980400	-0.484371	0.090436
C60	C	0.980298	-0.484452	-0.090449
C61	C	0.979409	-0.534867	-0.090443
C62	C	0.978990	-0.560055	-0.045221
C63	C	1.133308	0.062445	-0.000021
C64	C	1.225591	0.063384	-0.000020
C65	C	0.974023	0.154373	-0.000003
C66	C	0.974957	0.208033	0.000005
N67	N	0.981192	0.065966	-0.129264
C68	C	0.931237	0.036661	-0.526160
C69	C	0.931198	0.036648	-0.317283
O70	O	0.888668	0.011691	-0.290293
N71	N	0.981225	0.065973	-0.291143
C72	C	1.031271	0.095301	-0.317225
O73	O	1.073828	0.120240	-0.290199
C74	C	1.031314	0.095312	-0.526102
C75	C	0.981276	0.065989	-0.552239
C76	C	0.881204	0.007340	-0.552298
C77	C	0.881211	0.007346	-0.604514
C78	C	0.931251	0.036673	-0.630593
C79	C	0.981283	0.065994	-0.604456
C80	C	1.081363	0.124637	-0.552184
C81	C	1.081371	0.124636	-0.604406
C82	C	1.031334	0.095313	-0.630543
C83	C	1.031330	0.095327	-0.682751
N84	N	0.981302	0.066002	-0.708891
C85	C	0.931262	0.036675	-0.682812
C86	C	1.031243	0.095295	-0.207562
C87	C	1.031232	0.095293	-0.155343
C88	C	0.931159	0.036638	-0.155404
C89	C	0.931167	0.036643	-0.207624
C90	C	0.981215	0.065969	-0.233702
C91	C	0.931280	0.036689	-0.792470
C92	C	0.931289	0.036699	-0.844691
C93	C	1.031364	0.095351	-0.844625
C94	C	1.031352	0.095343	-0.792409
C95	C	0.981308	0.066008	-0.766332
O96	O	1.073844	0.120266	-0.709773
O97	O	0.888725	0.011732	-0.709847
C98	C	0.931230	0.036656	-0.473944
C99	C	0.981263	0.065977	-0.447807
C100	C	1.031302	0.095304	-0.473886
C101	C	0.981251	0.065975	-0.395588
C102	C	0.931211	0.036648	-0.369509
C103	C	0.881183	0.007323	-0.395649
C104	C	0.881190	0.007329	-0.447865
C105	C	1.081330	0.124629	-0.447746
C106	C	1.081318	0.124622	-0.395529
C107	C	1.031279	0.095295	-0.369450
N108	N	0.981328	0.066026	0.129230
H109	H	0.987526	-0.080689	0.082016
H110	H	1.072103	0.119229	-0.865868
C111	C	0.594346	-0.025551	-0.000024
N112	N	0.638965	-0.061669	-0.000034
C113	C	0.987538	-0.073555	-0.095001
N114	N	0.987870	-0.052677	-0.132468
H115	H	0.890529	0.012802	-0.771245
C116	C	0.983401	-0.305491	-0.140212
N117	N	0.983748	-0.284626	-0.177686
C118	C	0.974956	-0.794452	0.094975
N119	N	0.974597	-0.815329	0.132441
C120	C	1.086270	0.127554	-0.126598
N121	N	1.127732	0.151852	-0.104949
C122	C	0.826147	-0.024931	-0.476609
N123	N	0.784687	-0.049231	-0.498256
H124	H	0.421648	-0.014707	-0.000017
H125	H	0.981679	-0.404147	-0.127287
H126	H	0.985819	-0.172229	-0.082077
H127	H	0.890539	0.012820	-0.865969
C128	C	0.980915	-0.456628	0.140186
N129	N	0.981300	-0.435734	0.177661
C130	C	0.985793	-0.179343	0.094951
N131	N	0.985462	-0.200205	0.132427
C132	C	0.978886	-0.562611	-0.140196
N133	N	0.978483	-0.583505	-0.177669
H134	H	0.980640	-0.463949	-0.127276
H135	H	1.122129	0.148517	-0.625636
H136	H	0.983454	-0.312591	0.127254
H137	H	1.122063	0.148505	-0.374253
H138	H	0.981838	-0.404044	0.127259
C139	C	0.826169	-0.024915	-0.633258
N140	N	0.784710	-0.049216	-0.654905
H141	H	1.072001	0.119177	-0.228790
C142	C	0.976716	-0.688661	-0.094975
N143	N	0.977065	-0.667800	-0.132451
C144	C	0.976825	-0.688573	0.094976
N145	N	0.977209	-0.667677	0.132449
H146	H	1.122111	0.148515	-0.530912
H147	H	0.979172	-0.555303	0.127261
C148	C	0.550248	0.159407	-0.000008
N149	N	0.577465	0.196264	-0.000009
C150	C	0.826198	-0.024970	-0.366952
N151	N	0.784810	-0.049306	-0.345335
C152	C	0.974862	-0.794523	-0.094967
N153	N	0.974470	-0.815418	-0.132440
C154	C	0.876128	0.004383	-0.236370
N155	N	0.834671	-0.019918	-0.258019
H156	H	0.840456	-0.016544	-0.531070
C157	C	1.136359	0.156906	-0.476425
N158	N	1.177799	0.181225	-0.498025
C159	C	0.876125	0.004373	-0.126708
N160	N	0.834682	-0.019932	-0.105091
H161	H	1.072085	0.119228	-0.771127
H162	H	0.383562	0.145088	-0.000012
