data_functionalizedCrystal
_audit_creation_method	'MofGen! by Chris Wilmer'
_symmetry_space_group_name_H-M	'P1'
_symmetry_Int_Tables_number	1
_symmetry_cell_setting	triclinic
loop_
_symmetry_equiv_pos_as_xyz
  x,y,z
_cell_length_a	14.853567
_cell_length_b	15.944551
_cell_length_c	13.330367
_cell_angle_alpha	89.994404
_cell_angle_beta	89.995418
_cell_angle_gamma	83.566834
loop_
_atom_site_label
_atom_site_type_symbol
_atom_site_fract_x
_atom_site_fract_y
_atom_site_fract_z
O1	O	1.196228	0.109665	-0.083357
O2	O	0.933752	0.122728	-0.083374
O3	O	1.072158	-0.006070	-0.083356
O4	O	1.057822	0.238463	-0.083375
O5	O	1.072137	-0.006073	0.083491
O6	O	0.933732	0.122725	0.083473
O7	O	1.196208	0.109662	0.083491
Cu8	Cu	1.064968	0.116193	0.098716
Cu9	Cu	1.064992	0.116197	-0.098600
O10	O	1.057802	0.238460	0.083472
C11	C	0.900154	0.122135	0.000047
C12	C	0.800072	0.120361	0.000041
C13	C	0.387646	0.036354	0.000070
C14	C	0.366169	0.189369	0.000057
C15	C	0.460201	0.191037	0.000054
C16	C	0.517960	0.115362	0.000057
C17	C	0.481687	0.038019	0.000064
C18	C	0.496480	0.268379	0.000037
C19	C	0.590517	0.270050	0.000033
C20	C	0.648278	0.194374	0.000043
C21	C	0.612000	0.117028	0.000051
C22	C	0.669759	0.041353	0.000054
C23	C	0.633483	-0.035994	0.000069
C24	C	0.539448	-0.037657	0.000074
C25	C	0.742313	0.196036	0.000038
C26	C	0.763800	0.043018	0.000048
C27	C	1.071552	-0.037367	0.000068
C28	C	1.069768	-0.130615	0.000068
C29	C	0.979713	-0.345572	0.000049
C30	C	1.021522	-0.406544	0.082317
C31	C	1.066541	-0.301344	0.000060
C32	C	1.021562	-0.406524	-0.082181
C33	C	1.063416	-0.466260	0.000048
C34	C	1.108373	-0.361088	0.082397
C35	C	1.108401	-0.361062	-0.082175
C36	C	1.150273	-0.422017	0.000113
C37	C	1.068338	-0.206340	0.000068
C38	C	1.061626	-0.561263	0.000048
C39	C	1.229806	0.110255	0.000067
C40	C	1.329887	0.112029	0.000067
C41	C	1.058407	0.269756	0.000046
C42	C	1.060191	0.363004	0.000039
N43	N	1.064958	0.116190	0.237498
N44	N	1.065009	0.116193	-0.237381
C45	C	1.003703	0.173206	0.710113
C46	C	1.126305	0.059180	0.710097
C47	C	1.126295	0.059178	0.605078
C48	C	1.064989	0.116191	0.552572
C49	C	1.003693	0.173207	0.605085
C50	C	1.187595	0.002169	0.552558
C51	C	1.187588	0.002164	0.447534
C52	C	1.126277	0.059174	0.395026
C53	C	1.064978	0.116192	0.447544
C54	C	1.003672	0.173205	0.395038
C55	C	0.942368	0.230220	0.447555
C56	C	0.942382	0.230217	0.552577
C57	C	1.126264	0.059177	0.290004
C58	C	1.003662	0.173206	0.290010
H59	H	0.509903	-0.100629	0.000110
C60	C	0.775584	-0.108403	0.000058
C61	C	0.827286	-0.040169	0.000046
H62	H	0.814779	-0.159757	0.000050
H63	H	0.738466	-0.105871	0.058243
H64	H	0.738453	-0.105862	-0.058124
H65	H	0.864411	-0.042706	0.058232
H66	H	0.864420	-0.042702	-0.058145
H67	H	0.358106	-0.026620	0.000086
H68	H	0.892471	0.276637	0.595342
H69	H	0.953736	0.219631	0.247266
C70	C	1.242035	-0.048461	0.713544
C71	C	1.254980	-0.060497	0.610273
H72	H	1.283634	-0.087155	0.749175
H73	H	1.251827	0.007609	0.730741
H74	H	1.181868	-0.057690	0.730752
H75	H	1.315145	-0.051262	0.593063
H76	H	1.245196	-0.116581	0.593068
H77	H	1.237504	-0.044260	0.404781
C78	C	0.950751	0.318529	0.742429
C79	C	0.936315	0.235875	0.767827
H80	H	0.909142	0.357216	0.778055
H81	H	1.010906	0.327753	0.759641
H82	H	0.941978	0.326676	0.672364
H83	H	0.945095	0.227726	0.837892
H84	H	0.876145	0.226647	0.750621
C85	C	0.212485	0.254753	0.000064
C86	C	0.302683	0.272548	0.000057
H87	H	0.173290	0.306108	0.000072
H88	H	0.201494	0.223055	-0.058116
H89	H	0.201496	0.223039	0.058252
H90	H	0.313674	0.304258	-0.058135
H91	H	0.313678	0.304260	0.058242
H92	H	1.176223	0.012766	0.752851
C93	C	0.449203	0.398279	-0.085756
C94	C	0.432988	0.351554	0.000026
H95	H	0.409996	0.449627	-0.085764
H96	H	0.510389	0.410346	-0.085757
H97	H	0.438207	0.366556	-0.143925
H98	H	0.443991	0.383275	0.058195
H99	H	0.371788	0.339489	0.000036
H100	H	1.176181	0.012761	0.247250
C101	C	0.882692	-0.394711	-0.175911
C102	C	0.971984	-0.433692	-0.176075
H103	H	0.852084	-0.411477	-0.233879
H104	H	0.852437	-0.411051	-0.117505
H105	H	0.883001	-0.335167	-0.176256
H106	H	0.971675	-0.493237	-0.175723
H107	H	1.002248	-0.417357	-0.234497
C108	C	0.683788	0.360701	-0.085769
C109	C	0.630379	0.355071	0.000008
H110	H	0.708389	0.413194	-0.085787
H111	H	0.731646	0.315883	-0.085754
H112	H	0.647542	0.356859	-0.143941
H113	H	0.666627	0.358908	0.058180
H114	H	0.582514	0.399902	0.000002
H115	H	0.892456	0.276644	0.404792
H116	H	0.680523	-0.097609	0.000065
C117	C	0.882641	-0.394787	0.176047
C118	C	0.971938	-0.433755	0.176200
H119	H	0.852026	-0.411588	0.234002
H120	H	0.882937	-0.335249	0.176417
H121	H	0.852395	-0.411109	0.117624
H122	H	1.002186	-0.417427	0.234620
H123	H	0.971646	-0.493305	0.175840
C124	C	0.835605	0.286674	-0.085753
C125	C	0.782189	0.281047	0.000020
H126	H	0.860216	0.339162	-0.085763
H127	H	0.883456	0.241850	-0.085738
H128	H	0.799361	0.282841	-0.143928
H129	H	0.818435	0.284874	0.058195
H130	H	0.734331	0.325884	0.000014
H131	H	0.907643	-0.312344	0.000126
C132	C	1.159074	-0.246369	0.175574
C133	C	1.157892	-0.334055	0.176398
H134	H	1.189637	-0.229680	0.233610
H135	H	1.189717	-0.230445	0.117238
H136	H	1.098664	-0.219514	0.175332
H137	H	1.218302	-0.360910	0.176633
H138	H	1.127251	-0.349988	0.234749
H139	H	1.222407	-0.455095	0.000165
C140	C	1.112356	-0.356490	-0.262132
C141	C	1.157945	-0.333818	-0.176063
H142	H	1.142936	-0.339663	-0.320098
H143	H	1.111110	-0.415912	-0.263141
H144	H	1.052107	-0.329256	-0.261534
H145	H	1.218192	-0.361057	-0.176656
H146	H	1.159201	-0.274384	-0.175054
