data_functionalizedCrystal
_audit_creation_method	'MofGen! by Chris Wilmer'
_symmetry_space_group_name_H-M	'P1'
_symmetry_Int_Tables_number	1
_symmetry_cell_setting	triclinic
loop_
_symmetry_equiv_pos_as_xyz
  x,y,z
_cell_length_a	16.974800
_cell_length_b	23.532357
_cell_length_c	15.455313
_cell_angle_alpha	92.642146
_cell_angle_beta	90.973911
_cell_angle_gamma	83.110074
loop_
_atom_site_label
_atom_site_type_symbol
_atom_site_fract_x
_atom_site_fract_y
_atom_site_fract_z
O1	O	1.048489	0.072598	0.001487
O2	O	0.818986	0.081295	-0.014633
O3	O	0.940678	-0.005947	-0.006068
O4	O	0.926797	0.159840	-0.007078
O5	O	0.933719	-0.000979	0.137705
O6	O	0.812027	0.086264	0.129140
O7	O	1.041530	0.077566	0.145259
Cu8	Cu	0.926143	0.082369	0.150327
Cu9	Cu	0.934373	0.076493	-0.019700
O10	O	0.919838	0.164809	0.136694
C11	C	0.786151	0.083358	0.055192
C12	C	0.698679	0.082094	0.049049
C13	C	0.653796	0.084207	0.124536
C14	C	0.571609	0.083011	0.118766
C15	C	0.534306	0.079705	0.037510
C16	C	0.579195	0.077590	-0.037982
C17	C	0.661381	0.078782	-0.032212
C18	C	0.288913	0.075845	0.011848
C19	C	0.206720	0.074654	0.006084
C20	C	0.199140	0.080074	0.162833
C21	C	0.281328	0.081270	0.168596
C22	C	0.326210	0.079151	0.093104
N23	N	0.450297	0.078484	0.031610
N24	N	0.410218	0.080368	0.099004
C25	C	0.936851	-0.024681	0.065797
C26	C	0.935807	-0.087905	0.065732
C27	C	0.933048	-0.482664	-0.013146
C28	C	0.932056	-0.542069	-0.013220
O29	O	0.934742	-0.575092	-0.079909
N30	N	0.927770	-0.569075	0.065114
C31	C	0.924469	-0.536671	0.143528
O32	O	0.920732	-0.565097	0.210151
C33	C	0.925456	-0.477267	0.143602
C34	C	0.929749	-0.450265	0.065262
C35	C	0.937340	-0.455662	-0.091478
C36	C	0.938334	-0.396261	-0.091403
C37	C	0.935035	-0.363862	-0.012995
C38	C	0.930743	-0.390864	0.065338
C39	C	0.922149	-0.444864	0.222014
C40	C	0.923135	-0.385455	0.222081
C41	C	0.927429	-0.358454	0.143742
C42	C	0.928438	-0.299064	0.143821
N43	N	0.932723	-0.272058	0.065486
C44	C	0.936022	-0.304457	-0.012922
C45	C	0.922396	-0.661425	0.143368
C46	C	0.921415	-0.720829	0.143296
C47	C	0.929000	-0.726223	-0.013453
C48	C	0.929987	-0.666818	-0.013379
C49	C	0.926681	-0.634420	0.065034
C50	C	0.938109	-0.179710	-0.012758
C51	C	0.939105	-0.120304	-0.012676
C52	C	0.931516	-0.114916	0.144072
C53	C	0.930523	-0.174317	0.143990
C54	C	0.933818	-0.206713	0.065568
O55	O	0.925751	-0.266005	0.210475
O56	O	0.939748	-0.276023	-0.079534
C57	C	1.074365	0.075504	0.075433
C58	C	1.161837	0.076768	0.081570
C59	C	0.923665	0.183543	0.064828
C60	C	0.924710	0.246767	0.064887
N61	N	0.920361	0.086501	0.269916
N62	N	0.940161	0.072356	-0.139288
C63	C	0.972077	0.049451	0.318950
C64	C	0.967712	0.052581	0.409450
C65	C	0.911632	0.092765	0.450915
C66	C	0.859910	0.129816	0.401875
C67	C	0.864273	0.126683	0.311375
C68	C	0.892802	0.106274	0.721172
C69	C	0.888445	0.109406	0.811677
C70	C	0.996246	0.032170	0.819247
C71	C	1.000606	0.029043	0.728746
C72	C	0.948882	0.066092	0.679713
N73	N	0.907170	0.095966	0.543422
N74	N	0.953341	0.062887	0.587208
H75	H	0.311695	0.083958	0.234764
Br76	Br	0.941817	-0.499621	-0.197904
Br77	Br	0.783795	0.184348	0.458145
H78	H	1.009823	0.022412	0.449374
H79	H	0.931684	-0.752613	-0.077297
H80	H	0.917931	-0.742810	0.207089
Br81	Br	0.704413	0.088699	0.234818
Br82	Br	0.510698	0.085888	0.221217
H83	H	0.918654	-0.466838	0.285807
Br84	Br	0.935814	-0.630179	-0.119700
H85	H	0.919707	-0.635050	0.207226
Br86	Br	1.066439	-0.018110	0.885794
Br87	Br	0.812334	0.163948	0.867946
H88	H	0.548817	0.074895	-0.104143
Br89	Br	0.942579	-0.223667	-0.119190
H90	H	0.920431	-0.359078	0.285935
H91	H	0.927035	-0.196304	0.207781
Br92	Br	0.927041	-0.070935	0.250478
Br93	Br	0.794078	0.176963	0.244828
H94	H	1.017746	0.016732	0.285195
H95	H	0.850687	0.136443	0.681256
H96	H	1.046271	-0.003678	0.694987
H97	H	0.162588	0.081797	0.224294
Br98	Br	0.156093	0.070172	-0.104201
H99	H	0.325447	0.074118	-0.049623
H100	H	0.697924	0.077063	-0.093681
Br101	Br	0.944155	-0.359624	-0.197727
Br102	Br	0.944937	-0.083663	-0.119001
