data_functionalizedCrystal
_audit_creation_method	'MofGen! by Chris Wilmer'
_symmetry_space_group_name_H-M	'P1'
_symmetry_Int_Tables_number	1
_symmetry_cell_setting	triclinic
loop_
_symmetry_equiv_pos_as_xyz
  x,y,z
_cell_length_a	17.077404
_cell_length_b	19.121063
_cell_length_c	17.077396
_cell_angle_alpha	87.591200
_cell_angle_beta	90.018362
_cell_angle_gamma	92.466911
loop_
_atom_site_label
_atom_site_type_symbol
_atom_site_fract_x
_atom_site_fract_y
_atom_site_fract_z
Zn1	Zn	1.186695	-0.279652	0.457130
Zn2	Zn	1.686695	0.220348	0.957130
Zn3	Zn	1.180991	-0.397108	0.331455
Zn4	Zn	1.680991	0.102892	0.831455
Zn5	Zn	1.055426	-0.279672	0.325881
Zn6	Zn	1.555426	0.220328	0.825881
Zn7	Zn	1.049786	-0.397062	0.462679
Zn8	Zn	1.549786	0.102938	0.962679
O9	O	1.118225	-0.338373	0.394286
O10	O	1.618225	0.161627	0.894286
O11	O	1.295785	-0.295243	0.440469
O12	O	1.795785	0.204757	0.940469
O13	O	1.164308	-0.381558	0.220870
O14	O	1.664308	0.118442	0.720870
O15	O	1.077587	-0.181384	0.338637
O16	O	1.577587	0.318616	0.838637
O17	O	1.291594	-0.381538	0.348136
O18	O	1.791594	0.118462	0.848136
O19	O	1.174030	-0.181370	0.435065
O20	O	1.674030	0.318630	0.935065
O21	O	1.072056	-0.295278	0.216775
O22	O	1.572056	0.204722	0.716775
O23	O	0.944832	-0.295233	0.344018
O24	O	1.444832	0.204767	0.844018
O25	O	1.067974	-0.381460	0.571788
O26	O	1.567974	0.118540	1.071788
O27	O	0.940688	-0.381479	0.444522
O28	O	1.440688	0.118521	0.944522
O29	O	1.168561	-0.295199	0.567712
O30	O	1.668561	0.204801	1.067712
O31	O	1.158839	-0.495387	0.353517
O32	O	1.658839	0.004613	0.853517
O33	O	1.062443	-0.495353	0.449926
O34	O	1.562443	0.004647	0.949926
C35	C	0.914278	-0.338353	0.394268
C36	C	1.414278	0.161647	0.894268
C37	C	0.827028	-0.338362	0.394279
C38	C	1.327028	0.161638	0.894279
C39	C	0.788217	-0.293508	0.442437
C40	C	1.288217	0.206492	0.942437
C41	C	0.706236	-0.293512	0.442441
C42	C	1.206236	0.206488	0.942441
C43	C	0.663068	-0.338375	0.394290
C44	C	1.163068	0.161625	0.894290
C45	C	0.701884	-0.383231	0.346127
C46	C	1.201884	0.116769	0.846127
C47	C	0.783864	-0.383222	0.346119
C48	C	1.283864	0.116778	0.846119
C49	C	0.531014	-0.383247	0.346147
C50	C	1.031014	0.116753	0.846147
C51	C	0.449029	-0.383257	0.346155
C52	C	0.949029	0.116743	0.846155
C53	C	0.453386	-0.293537	0.442469
C54	C	0.953386	0.206463	0.942469
C55	C	0.535365	-0.293528	0.442462
C56	C	1.035365	0.206472	0.942462
C57	C	0.574176	-0.338385	0.394299
C58	C	1.074176	0.161615	0.894299
C59	C	1.109432	-0.520854	0.402945
C60	C	1.609432	-0.020854	0.902945
C61	C	1.105742	-0.598919	0.406676
C62	C	1.605742	-0.098919	0.906676
C63	C	1.154235	-0.635589	0.358275
C64	C	1.654235	-0.135589	0.858275
C65	C	1.150770	-0.708941	0.361788
C66	C	1.650770	-0.208941	0.861788
C67	C	1.098806	-0.745620	0.413699
C68	C	1.598806	-0.245620	0.913699
C69	C	1.050310	-0.708945	0.462106
C70	C	1.550310	-0.208945	0.962106
C71	C	1.053780	-0.635596	0.458596
C72	C	1.553780	-0.135596	0.958596
C73	C	1.085819	-0.967090	0.426810
C74	C	1.585819	-0.467090	0.926810
C75	C	1.082351	-1.040445	0.430314
C76	C	1.582351	-0.540445	0.930314
C77	C	1.182812	-1.040435	0.329998
C78	C	1.682812	-0.540435	0.829998
C79	C	1.186274	-0.967084	0.326489
C80	C	1.686274	-0.467084	0.826489
C81	C	1.137781	-0.930415	0.374898
C82	C	1.637781	-0.430415	0.874898
C83	C	1.095260	-0.820597	0.417290
C84	C	1.595260	-0.320597	0.917290
C85	C	1.141331	-0.855440	0.371311
C86	C	1.641331	-0.355440	0.871311
C87	C	1.322968	-0.338394	0.394305
C88	C	1.822968	0.161606	0.894305
C89	C	1.410217	-0.338403	0.394314
C90	C	1.910217	0.161597	0.894314
C91	C	1.118275	-0.338322	0.599028
C92	C	1.618275	0.161678	1.099028
C93	C	1.118296	-0.338300	0.686277
C94	C	1.618296	0.161700	1.186277
C95	C	1.127074	-0.155180	0.385610
C96	C	1.627074	0.344820	0.885610
C97	C	1.130844	-0.077115	0.381913
C98	C	1.630844	0.422885	0.881913
C99	C	1.118223	-0.338374	0.190338
C100	C	1.618223	0.161626	0.690338
C101	C	1.118363	-0.338198	0.103081
C102	C	1.618363	0.161802	0.603081
C103	C	1.170673	-0.293380	0.725145
C104	C	1.670673	0.206620	1.225145
C105	C	1.170684	-0.293356	0.807125
C106	C	1.670684	0.206644	1.307125
C107	C	1.118320	-0.338257	0.850234
C108	C	1.618320	0.161743	1.350234
C109	C	1.065937	-0.383179	0.811360
C110	C	1.565937	0.116821	1.311360
C111	C	1.065924	-0.383198	0.729382
C112	C	1.565924	0.116802	1.229382
C113	C	1.065971	-0.383136	0.982228
C114	C	1.565971	0.116864	1.482228
C115	C	1.065985	-0.383118	1.064212
C116	C	1.565985	0.116882	1.564212
C117	C	1.170731	-0.293295	1.059971
C118	C	1.670731	0.206705	1.559971
C119	C	1.170718	-0.293314	0.977993
C120	C	1.670718	0.206686	1.477993
C121	C	1.118335	-0.338237	0.939125
C122	C	1.618335	0.161763	1.439125
H123	H	0.562611	-0.419772	0.306926
H124	H	1.062611	0.080228	0.806926
Cl125	Cl	1.251614	-0.920977	0.261238
Cl126	Cl	1.751614	-0.420977	0.761238
Cl127	Cl	0.984988	-0.755057	0.527370
Cl128	Cl	1.484988	-0.255057	1.027370
Cl129	Cl	1.024855	-0.921002	0.487666
Cl130	Cl	1.524855	-0.421002	0.987666
H131	H	1.183643	-0.825573	0.329048
H132	H	1.683643	-0.325573	0.829048
H133	H	1.014293	-0.605740	0.498010
H134	H	1.514293	-0.105740	0.998010
H135	H	1.213382	-0.256716	1.091622
H136	H	1.713382	0.243284	1.591622
Cl137	Cl	0.842477	-0.237109	0.502977
Cl138	Cl	1.342477	0.262891	1.002977
H139	H	0.413883	-0.419788	0.306947
H140	H	0.913883	0.080212	0.806947
H141	H	0.815463	-0.419747	0.306903
H142	H	1.315463	0.080253	0.806903
Cl143	Cl	1.029936	-0.866715	0.482547
Cl144	Cl	1.529936	-0.366715	0.982547
H145	H	1.222293	-1.070298	0.290587
H146	H	1.722293	-0.570298	0.790587
Cl147	Cl	1.017010	-1.086556	0.495569
Cl148	Cl	1.517010	-0.586556	0.995569
H149	H	1.023299	-0.419735	0.846467
H150	H	1.523299	0.080265	1.346467
H151	H	1.196546	-0.605729	0.316000
H152	H	1.696546	-0.105729	0.816000
H153	H	1.190258	-0.738794	0.322374
H154	H	1.690258	-0.238794	0.822374
Cl155	Cl	1.000073	-0.439669	0.680519
Cl156	Cl	1.500073	0.060331	1.180519
H157	H	1.213316	-0.256819	0.690051
H158	H	1.713316	0.243181	1.190051
Cl159	Cl	1.236566	-0.236914	0.855986
Cl160	Cl	1.736566	0.263086	1.355986
H161	H	1.023345	-0.419679	1.099310
H162	H	1.523345	0.080321	1.599310
Cl163	Cl	1.236552	-0.236871	0.923799
Cl164	Cl	1.736552	0.263129	1.423799
H165	H	0.674640	-0.256989	0.481658
H166	H	1.174640	0.243011	0.981658
H167	H	0.570510	-0.257001	0.481675
H168	H	1.070510	0.242999	0.981675
Cl169	Cl	0.404595	-0.237143	0.503014
Cl170	Cl	0.904595	0.262857	1.003014
Cl171	Cl	0.647616	-0.439626	0.285589
Cl172	Cl	1.147616	0.060374	0.785589
Cl173	Cl	1.000117	-0.439611	0.933366
Cl174	Cl	1.500117	0.060389	1.433366
