data_functionalizedCrystal
_audit_creation_method	'MofGen! by Chris Wilmer'
_symmetry_space_group_name_H-M	'P1'
_symmetry_Int_Tables_number	1
_symmetry_cell_setting	triclinic
loop_
_symmetry_equiv_pos_as_xyz
  x,y,z
_cell_length_a	13.635800
_cell_length_b	11.102244
_cell_length_c	11.168136
_cell_angle_alpha	88.017217
_cell_angle_beta	108.508683
_cell_angle_gamma	71.395130
loop_
_atom_site_label
_atom_site_type_symbol
_atom_site_fract_x
_atom_site_fract_y
_atom_site_fract_z
V1	V	2.055191	-0.175858	0.393696
O2	O	2.034721	0.008431	0.386205
O3	O	2.043580	-0.348677	0.391000
O4	O	2.043332	-0.173161	0.565402
O5	O	2.034971	-0.168300	0.210596
V6	V	2.293774	-0.153813	0.371796
O7	O	2.192791	-0.224213	0.441735
O8	O	2.381273	-0.105458	0.323757
O9	O	2.193782	0.019006	0.374492
O10	O	2.372942	-0.338102	0.379287
O11	O	2.372693	-0.161371	0.554896
O12	O	2.194030	-0.156510	0.200090
V13	V	2.555191	-0.175858	0.393696
O14	O	2.534721	0.008431	0.386205
O15	O	2.543580	-0.348677	0.391000
O16	O	2.543332	-0.173161	0.565402
O17	O	2.534971	-0.168300	0.210596
V18	V	2.793774	-0.153813	0.371796
O19	O	2.692791	-0.224213	0.441735
O20	O	2.881273	-0.105458	0.323757
O21	O	2.693782	0.019006	0.374492
O22	O	2.872942	-0.338102	0.379287
O23	O	2.872693	-0.161371	0.554896
O24	O	2.694030	-0.156510	0.200090
C25	C	1.968744	-0.390806	0.384788
C26	C	1.999976	-0.532089	0.383729
C27	C	1.984732	-0.580318	0.267603
C28	C	2.014085	-0.713070	0.266622
C29	C	2.073925	-0.749353	0.497903
C30	C	2.044578	-0.616604	0.498883
C31	C	1.940130	-0.495802	0.152448
C32	C	1.924881	-0.544030	0.036313
C33	C	1.954235	-0.676782	0.035332
C34	C	1.998837	-0.761307	0.150487
C35	C	1.968427	-0.166917	0.607254
C36	C	1.999456	-0.165856	0.747624
C37	C	2.100289	0.061129	0.380700
C38	C	2.058676	0.202410	0.381768
C39	C	2.100606	-0.162758	0.158232
C40	C	2.059195	-0.163813	0.017860
C41	C	2.468744	-0.390806	0.384788
C42	C	2.499976	-0.532089	0.383729
C43	C	2.468427	-0.166917	0.607254
C44	C	2.499456	-0.165856	0.747624
C45	C	2.100718	-0.171410	0.816316
C46	C	2.132791	-0.170314	0.961396
C47	C	2.600289	0.061129	0.380700
C48	C	2.558676	0.202410	0.381768
C49	C	2.600606	-0.162758	0.158232
C50	C	2.559195	-0.163813	0.017860
C51	C	2.601329	-0.601227	0.389245
C52	C	2.633612	-0.747250	0.388150
C53	C	2.600718	-0.171410	0.816316
C54	C	2.632791	-0.170314	0.961396
H55	H	1.916219	-0.387707	0.153234
H56	H	2.720433	-0.806682	0.392857
Cl57	Cl	2.129988	-0.855612	0.642658
Cl58	Cl	1.868837	-0.437777	-0.108443
H59	H	2.472448	-0.159066	0.958819
H60	H	2.719540	-0.175075	1.020447
H61	H	1.941827	-0.716046	-0.059230
Cl62	Cl	2.035750	-0.928197	0.149250
Cl63	Cl	2.402255	-0.157250	0.822642
Cl64	Cl	1.925260	-0.156483	0.926708
Cl65	Cl	2.063749	-0.555968	0.644874
Cl66	Cl	2.266729	-0.177664	1.052559
Cl67	Cl	2.426045	-0.712332	0.374390
Cl68	Cl	2.402901	-0.607596	0.375196
Cl69	Cl	2.697918	-0.180013	0.741297
H70	H	2.163666	-0.176969	0.767717
Cl71	Cl	1.902255	-0.157250	0.822642
Cl72	Cl	2.698410	-0.525722	0.397797
