data_functionalizedCrystal
_audit_creation_method	'MofGen! by Chris Wilmer'
_symmetry_space_group_name_H-M	'P1'
_symmetry_Int_Tables_number	1
_symmetry_cell_setting	triclinic
loop_
_symmetry_equiv_pos_as_xyz
  x,y,z
_cell_length_a	11.792254
_cell_length_b	14.853567
_cell_length_c	13.330367
_cell_angle_alpha	90.000844
_cell_angle_beta	89.992500
_cell_angle_gamma	96.083236
loop_
_atom_site_label
_atom_site_type_symbol
_atom_site_fract_x
_atom_site_fract_y
_atom_site_fract_z
O1	O	1.506142	-0.123622	-0.083414
O2	O	1.175725	-0.136345	-0.083415
O3	O	1.349760	0.001212	-0.083417
O4	O	1.332108	-0.261178	-0.083411
O5	O	1.349734	0.001215	0.083430
O6	O	1.175700	-0.136342	0.083432
O7	O	1.506117	-0.123619	0.083434
Cu8	Cu	1.340906	-0.129980	0.098667
Cu9	Cu	1.340936	-0.129984	-0.098649
O10	O	1.332082	-0.261175	0.083436
C11	C	1.133426	-0.135542	0.000008
C12	C	1.007428	-0.133143	0.000008
C13	C	0.905104	-0.131194	0.000003
C14	C	0.776732	-0.128756	0.000003
C15	C	1.348947	0.034805	0.000003
C16	C	1.346550	0.134898	-0.000005
C17	C	1.548416	-0.124422	0.000008
C18	C	1.674414	-0.126821	0.000002
C19	C	1.332895	-0.294769	0.000013
C20	C	1.335292	-0.394862	0.000015
N21	N	1.340893	-0.129977	0.237449
C22	C	1.233038	0.547878	0.000013
C23	C	1.439796	0.568347	0.000014
C24	C	1.442049	0.474304	0.000008
C25	C	1.339796	0.417044	0.000006
C26	C	1.235289	0.453827	0.000011
C27	C	1.546554	0.437514	0.000014
C28	C	1.548812	0.343467	0.000010
C29	C	1.446557	0.286205	0.000001
C30	C	1.342046	0.322993	0.000004
C31	C	1.239793	0.265732	0.000002
C32	C	1.135280	0.302519	-0.000002
C33	C	1.133034	0.396565	0.000002
C34	C	1.448804	0.192158	-0.000003
C35	C	1.242043	0.171681	-0.000001
N36	N	1.340958	-0.129980	-0.237430
C37	C	1.263870	-0.190870	0.710073
C38	C	1.418032	-0.069091	0.710039
C39	C	1.418020	-0.069088	0.605020
C40	C	1.340932	-0.129978	0.552523
C41	C	1.263857	-0.190870	0.605045
C42	C	1.495101	-0.008202	0.552491
C43	C	1.495092	-0.008198	0.447466
C44	C	1.417998	-0.069084	0.394968
C45	C	1.340919	-0.129979	0.447495
C46	C	1.263831	-0.190868	0.394998
C47	C	1.186746	-0.251759	0.447524
C48	C	1.186763	-0.251757	0.552546
C49	C	1.417981	-0.069087	0.289946
C50	C	1.263818	-0.190869	0.289970
H51	H	1.158775	0.125065	-0.000007
H52	H	1.052026	0.255885	0.000003
C53	C	1.179072	-0.257840	0.767851
N54	N	1.115200	-0.308281	0.811371
H55	H	1.201040	-0.240450	0.247234
C56	C	1.502824	-0.002116	0.767789
N57	N	1.566690	0.048334	0.811291
H58	H	1.123985	-0.301340	0.404769
H59	H	1.124004	-0.301333	0.595319
H60	H	1.047946	0.426525	-0.000001
C61	C	1.579891	0.058772	0.610244
N62	N	1.643756	0.109221	0.653748
H63	H	1.633912	0.313524	0.000012
H64	H	1.480748	-0.019514	0.247184
H65	H	1.557857	0.041383	0.404706
C66	C	1.552268	0.631335	0.000021
N67	N	1.636986	0.678783	0.000025
C68	C	1.118080	0.588343	0.000018
N69	N	1.031492	0.618823	0.000026
H70	H	1.629803	0.484142	0.000025
H71	H	1.533896	0.162211	0.000007
