data_functionalizedCrystal
_audit_creation_method	'MofGen! by Chris Wilmer'
_symmetry_space_group_name_H-M	'P1'
_symmetry_Int_Tables_number	1
_symmetry_cell_setting	triclinic
loop_
_symmetry_equiv_pos_as_xyz
  x,y,z
_cell_length_a	25.639239
_cell_length_b	19.805384
_cell_length_c	19.805407
_cell_angle_alpha	90.068308
_cell_angle_beta	89.961314
_cell_angle_gamma	89.900224
loop_
_atom_site_label
_atom_site_type_symbol
_atom_site_fract_x
_atom_site_fract_y
_atom_site_fract_z
Zn1	Zn	-0.207796	-0.382715	-1.035004
Zn2	Zn	0.292204	0.117285	-0.535004
Zn3	Zn	-0.295339	-0.269524	-1.034798
Zn4	Zn	0.204661	0.230476	-0.534798
Zn5	Zn	-0.207919	-0.269540	-0.921722
Zn6	Zn	0.292081	0.230460	-0.421722
Zn7	Zn	-0.295202	-0.382672	-0.921758
Zn8	Zn	0.204798	0.117328	-0.421758
O9	O	-0.251564	-0.326113	-0.978320
O10	O	0.248436	0.173887	-0.478320
O11	O	-0.219414	-0.367712	-1.129693
O12	O	0.280586	0.132288	-0.629693
O13	O	-0.283851	-0.174810	-1.019697
O14	O	0.216149	0.325190	-0.519697
O15	O	-0.134737	-0.284577	-0.936820
O16	O	0.365263	0.215423	-0.436820
O17	O	-0.283732	-0.284551	-1.129542
O18	O	0.216268	0.215449	-0.629542
O19	O	-0.134647	-0.367727	-1.020048
O20	O	0.365353	0.132273	-0.520048
O21	O	-0.219624	-0.174821	-0.936621
O22	O	0.280376	0.325179	-0.436621
O23	O	-0.219492	-0.284535	-0.827010
O24	O	0.280508	0.215465	-0.327010
O25	O	-0.283499	-0.477394	-0.936881
O26	O	0.216501	0.022606	-0.436881
O27	O	-0.283619	-0.367652	-0.827036
O28	O	0.216381	0.132348	-0.327036
O29	O	-0.219282	-0.477426	-1.020082
O30	O	0.280718	0.022574	-0.520082
O31	O	-0.368486	-0.284509	-1.019732
O32	O	0.131514	0.215491	-0.519732
O33	O	-0.368386	-0.367638	-0.936681
O34	O	0.131614	0.132362	-0.436681
C35	C	-0.387407	-0.326082	-0.978207
C36	C	0.112593	0.173918	-0.478207
C37	C	-0.445521	-0.326091	-0.978220
C38	C	0.054479	0.173909	-0.478220
C39	C	-0.251554	-0.326091	-0.802464
C40	C	0.248446	0.173909	-0.302464
C41	C	-0.251562	-0.326098	-0.727232
C42	C	0.248438	0.173902	-0.227232
C43	C	-0.251362	-0.502656	-0.978509
C44	C	0.248638	-0.002656	-0.478509
C45	C	-0.251276	-0.577888	-0.978589
C46	C	0.248724	-0.077888	-0.478589
C47	C	-0.805923	-0.282901	-1.021678
C48	C	-0.305923	0.217099	-0.521678
C49	C	-0.860527	-0.282910	-1.021704
C50	C	-0.360527	0.217090	-0.521704
O51	O	-0.888798	-0.246155	-1.058535
O52	O	-0.388798	0.253845	-0.558535
N53	N	-0.887803	-0.326158	-0.978439
N54	N	-0.387803	0.173842	-0.478439
C55	C	-0.860471	-0.369403	-0.935151
C56	C	-0.360471	0.130597	-0.435151
O57	O	-0.888685	-0.406190	-0.898354
O58	O	-0.388685	0.093810	-0.398354
C59	C	-0.805868	-0.369397	-0.935128
C60	C	-0.305868	0.130603	-0.435128
C61	C	-0.778595	-0.326142	-0.978391
C62	C	-0.278595	0.173858	-0.478391
C63	C	-0.778650	-0.239651	-1.064937
C64	C	-0.278650	0.260349	-0.564937
C65	C	-0.724050	-0.239641	-1.064910
C66	C	-0.224050	0.260359	-0.564910
C67	C	-0.696722	-0.282882	-1.021623
C68	C	-0.196722	0.217118	-0.521623
C69	C	-0.723995	-0.326133	-0.978364
C70	C	-0.223995	0.173867	-0.478364
C71	C	-0.778538	-0.412646	-0.891844
C72	C	-0.278538	0.087354	-0.391844
C73	C	-0.723931	-0.412636	-0.891825
C74	C	-0.223931	0.087364	-0.391825
C75	C	-0.696658	-0.369382	-0.935088
C76	C	-0.196658	0.130618	-0.435088
C77	C	-0.642067	-0.369364	-0.935049
C78	C	-0.142067	0.130636	-0.435049
N79	N	-0.614791	-0.326117	-0.978314
N80	N	-0.114791	0.173883	-0.478314
C81	C	-0.642119	-0.282876	-1.021601
C82	C	-0.142119	0.217124	-0.521601
C83	C	-0.975142	-0.369414	-0.935202
C84	C	-0.475142	0.130586	-0.435202
C85	C	-1.029744	-0.369417	-0.935220
C86	C	-0.529744	0.130583	-0.435220
C87	C	-1.029797	-0.282925	-1.021774
C88	C	-0.529797	0.217075	-0.521774
C89	C	-0.975193	-0.282919	-1.021752
C90	C	-0.475193	0.217081	-0.521752
C91	C	-0.947866	-0.326167	-0.978466
C92	C	-0.447866	0.173833	-0.478466
C93	C	-0.527454	-0.282858	-1.021540
C94	C	-0.027454	0.217142	-0.521540
C95	C	-0.472848	-0.282850	-1.021507
C96	C	0.027152	0.217150	-0.521507
C97	C	-0.472801	-0.369344	-0.934955
C98	C	0.027199	0.130656	-0.434955
C99	C	-0.527402	-0.369350	-0.934985
C100	C	-0.027402	0.130650	-0.434985
C101	C	-0.554727	-0.326105	-0.978283
C102	C	-0.054727	0.173895	-0.478283
O103	O	-0.613762	-0.406102	-0.898239
O104	O	-0.113762	0.093898	-0.398239
O105	O	-0.613898	-0.246102	-1.058398
O106	O	-0.113898	0.253898	-0.558398
C107	C	-0.115191	-0.326159	-0.978453
C108	C	0.384809	0.173841	-0.478453
C109	C	-0.057077	-0.326178	-0.978510
C110	C	0.442923	0.173822	-0.478510
C111	C	-0.251728	-0.150256	-0.978172
C112	C	0.248272	0.349744	-0.478172
C113	C	-0.251666	-0.075024	-0.978223
C114	C	0.248334	0.424976	-0.478223
C115	C	-0.218444	-0.039718	-0.934681
C116	C	0.281556	0.460282	-0.434681
C117	C	-0.218387	0.030970	-0.934735
C118	C	0.281613	0.530970	-0.434735
C119	C	-0.251554	0.066351	-0.978328
C120	C	0.248446	0.566351	-0.478328
C121	C	-0.284778	0.031039	-1.021874
C122	C	0.215222	0.531039	-0.521874
C123	C	-0.284832	-0.039648	-1.021823
C124	C	0.215168	0.460352	-0.521823
C125	C	-0.284557	0.316112	-1.022082
C126	C	0.215443	0.816112	-0.522082
C127	C	-0.284501	0.386804	-1.022128
C128	C	0.215499	0.886804	-0.522128
C129	C	-0.218111	0.386730	-0.934993
C130	C	0.281889	0.886730	-0.434993
C131	C	-0.218166	0.316043	-0.934942
C132	C	0.281834	0.816043	-0.434942
C133	C	-0.251388	0.280738	-0.978491
C134	C	0.248612	0.780738	-0.478491
C135	C	-0.251449	0.204089	-0.978433
C136	C	0.248551	0.704089	-0.478433
C137	C	-0.251496	0.142998	-0.978383
C138	C	0.248504	0.642998	-0.478383
C139	C	-0.251574	-0.326135	-1.154863
C140	C	0.248426	0.173865	-0.654863
C141	C	-0.251579	-0.326145	-1.230095
C142	C	0.248421	0.173855	-0.730095
C143	C	-0.285004	-0.369307	-0.691919
C144	C	0.214996	0.130693	-0.191919
C145	C	-0.285004	-0.369316	-0.621231
C146	C	0.214996	0.130684	-0.121231
C147	C	-0.251566	-0.326113	-0.585857
C148	C	0.248434	0.173887	-0.085857
C149	C	-0.218122	-0.282902	-0.621175
C150	C	0.281878	0.217098	-0.121175
C151	C	-0.218118	-0.282896	-0.691862
C152	C	0.281882	0.217104	-0.191862
C153	C	-0.218133	-0.282924	-0.336101
C154	C	0.281867	0.217076	0.163899
C155	C	-0.218140	-0.282931	-0.265409
C156	C	0.281860	0.217069	0.234591
C157	C	-0.285019	-0.369344	-0.265471
C158	C	0.214981	0.130656	0.234529
C159	C	-0.285016	-0.369339	-0.336158
C160	C	0.214984	0.130661	0.163842
C161	C	-0.251569	-0.326130	-0.371469
C162	C	0.248431	0.173870	0.128531
C163	C	-0.251568	-0.326121	-0.448118
C164	C	0.248432	0.173879	0.051882
C165	C	-0.251570	-0.326118	-0.509210
C166	C	0.248430	0.173882	-0.009210
H167	H	-0.450645	-0.247625	-1.056736
H168	H	0.049355	0.252375	-0.556736
H169	H	-0.312234	-0.404486	-0.720716
H170	H	0.187766	0.095514	-0.220716
H171	H	-0.311610	0.287375	-1.057540
H172	H	0.188390	0.787375	-0.557540
C173	C	-0.862207	-0.451088	-0.853446
C174	C	-0.362207	0.048912	-0.353446
C175	C	-0.808507	-0.460200	-0.844294
C176	C	-0.308507	0.039800	-0.344294
H177	H	-0.880707	-0.480447	-0.824087
H178	H	-0.380707	0.019553	-0.324087
H179	H	-0.871104	-0.461032	-0.898925
H180	H	-0.371104	0.038968	-0.398925
H181	H	-0.871230	-0.405605	-0.843520
H182	H	-0.371230	0.094395	-0.343520
H183	H	-0.799483	-0.505682	-0.854224
H184	H	-0.299483	-0.005682	-0.354224
H185	H	-0.799606	-0.450261	-0.798804
H186	H	-0.299606	0.049739	-0.298804
C187	C	-0.211570	0.110613	-0.843688
C188	C	0.288430	0.610613	-0.343688
C189	C	-0.181870	0.069778	-0.886869
C190	C	0.318130	0.569778	-0.386869
H191	H	-0.189024	0.134573	-0.814139
H192	H	0.310976	0.634573	-0.314139
H193	H	-0.234513	0.083169	-0.817975
H194	H	0.265487	0.583169	-0.317975
H195	H	-0.231310	0.141800	-0.869666
H196	H	0.268690	0.641800	-0.369666
H197	H	-0.162133	0.038588	-0.860890
H198	H	0.337867	0.538588	-0.360890
H199	H	-0.158918	0.097225	-0.912583
H200	H	0.341082	0.597225	-0.412583
C201	C	-0.193349	0.294417	-0.820101
C202	C	0.306651	0.794417	-0.320101
C203	C	-0.181706	0.277158	-0.887022
C204	C	0.318294	0.777158	-0.387022
H205	H	-0.170836	0.270415	-0.790518
H206	H	0.329164	0.770415	-0.290518
H207	H	-0.228536	0.282970	-0.810487
H208	H	0.271464	0.782970	-0.310487
H209	H	-0.188562	0.341570	-0.813910
H210	H	0.311438	0.841570	-0.313910
H211	H	-0.186497	0.230005	-0.893214
H212	H	0.313503	0.730005	-0.393214
H213	H	-0.146510	0.288600	-0.896639
H214	H	0.353490	0.788600	-0.396639
H215	H	-1.052057	-0.247718	-1.057023
H216	H	-0.552057	0.252282	-0.557023
H217	H	-0.312251	-0.404529	-0.236711
H218	H	0.187749	0.095471	0.263289
H219	H	-0.312246	-0.404517	-0.364956
H220	H	0.187754	0.095483	0.135044
C221	C	-0.210848	-0.191866	-0.771252
C222	C	0.289152	0.308134	-0.271252
C223	C	-0.181362	-0.235399	-0.730684
C224	C	0.318638	0.264601	-0.230684
H225	H	-0.188153	-0.162547	-0.795222
H226	H	0.311847	0.337453	-0.295222
H227	H	-0.233621	-0.165924	-0.743625
H228	H	0.266379	0.334076	-0.243625
H229	H	-0.230760	-0.217605	-0.802430
H230	H	0.269240	0.282395	-0.302430
H231	H	-0.161452	-0.209659	-0.699503
H232	H	0.338548	0.290341	-0.199503
H233	H	-0.158579	-0.261343	-0.758314
H234	H	0.341421	0.238657	-0.258314
H235	H	-0.190903	-0.247736	-0.364844
H236	H	0.309097	0.252264	0.135156
H237	H	-0.190893	-0.247727	-0.592367
H238	H	0.309107	0.252273	-0.092367
C239	C	-0.522006	-0.197355	-1.107085
C240	C	-0.022006	0.302645	-0.607085
C241	C	-0.557484	-0.235317	-1.069128
C242	C	-0.057484	0.264683	-0.569128
H243	H	-0.540546	-0.168001	-1.136457
H244	H	-0.040546	0.331999	-0.636457
H245	H	-0.500648	-0.226867	-1.132971
H246	H	-0.000648	0.273133	-0.632971
H247	H	-0.500768	-0.171442	-1.077565
H248	H	-0.000768	0.328558	-0.577565
H249	H	-0.578719	-0.261234	-1.098647
H250	H	-0.078719	0.238766	-0.598647
H251	H	-0.578851	-0.205801	-1.043239
H252	H	-0.078851	0.294199	-0.543239
C253	C	-0.729603	-0.154161	-1.150475
C254	C	-0.229603	0.345839	-0.650475
C255	C	-0.694076	-0.192103	-1.112476
C256	C	-0.194076	0.307897	-0.612476
H257	H	-0.711100	-0.124818	-1.179847
H258	H	-0.211100	0.375182	-0.679847
H259	H	-0.750956	-0.128244	-1.120987
H260	H	-0.250956	0.371756	-0.620987
H261	H	-0.750841	-0.183692	-1.176371
H262	H	-0.250841	0.316308	-0.676371
H263	H	-0.672841	-0.162573	-1.086576
H264	H	-0.172841	0.337427	-0.586576
H265	H	-0.672714	-0.218022	-1.141968
H266	H	-0.172714	0.281978	-0.641968
H267	H	-0.311781	0.059852	-1.057371
H268	H	0.188219	0.559852	-0.557371
H269	H	-0.311509	0.415609	-1.057632
H270	H	0.188491	0.915609	-0.557632
C271	C	-0.913913	-0.191868	-1.031113
C272	C	-0.413913	0.308132	-0.531113
C273	C	-0.945218	-0.235375	-1.069310
C274	C	-0.445218	0.264625	-0.569310
H275	H	-0.895413	-0.162514	-1.060476
H276	H	-0.395413	0.337486	-0.560476
H277	H	-0.889821	-0.217620	-1.005341
H278	H	-0.389821	0.282380	-0.505341
H279	H	-0.935278	-0.165957	-1.001624
H280	H	-0.435278	0.334043	-0.501624
H281	H	-0.923852	-0.261290	-1.098795
H282	H	-0.423852	0.238710	-0.598795
H283	H	-0.969313	-0.209621	-1.095093
H284	H	-0.469313	0.290379	-0.595093
C285	C	-0.129743	0.408234	-0.901279
C286	C	0.370257	0.908234	-0.401279
C287	C	-0.181588	0.425537	-0.887125
C288	C	0.318412	0.925537	-0.387125
H289	H	-0.107199	0.432188	-0.871723
H290	H	0.392801	0.932188	-0.371723
H291	H	-0.121830	0.419709	-0.946692
H292	H	0.378170	0.919709	-0.446692
H293	H	-0.125039	0.361071	-0.895011
H294	H	0.374961	0.861071	-0.395011
H295	H	-0.186294	0.472700	-0.893398
H296	H	0.313706	0.972700	-0.393398
H297	H	-0.189504	0.414067	-0.841701
H298	H	0.310496	0.914067	-0.341701
C299	C	-1.024194	-0.454909	-0.849665
C300	C	-0.524194	0.045091	-0.349665
C301	C	-1.059719	-0.416960	-0.887661
C302	C	-0.559719	0.083040	-0.387661
H303	H	-1.042699	-0.484266	-0.820309
H304	H	-0.542699	0.015734	-0.320309
H305	H	-1.002963	-0.425389	-0.823760
H306	H	-0.502963	0.074611	-0.323760
H307	H	-1.002834	-0.480819	-0.879161
H308	H	-0.502834	0.019181	-0.379161
H309	H	-1.081077	-0.391047	-0.858164
H310	H	-0.581077	0.108953	-0.358164
H311	H	-1.080959	-0.446484	-0.913568
H312	H	-0.580959	0.053516	-0.413568
C313	C	-0.729368	-0.498141	-0.806280
C314	C	-0.229368	0.001859	-0.306280
C315	C	-0.693894	-0.460178	-0.844243
C316	C	-0.193894	0.039822	-0.344243
H317	H	-0.710824	-0.527487	-0.776903
H318	H	-0.210824	-0.027487	-0.276903
H319	H	-0.750603	-0.524056	-0.835791
H320	H	-0.250603	-0.024056	-0.335791
H321	H	-0.750729	-0.468623	-0.780392
H322	H	-0.250729	0.031377	-0.280392
H323	H	-0.672536	-0.489695	-0.870136
H324	H	-0.172536	0.010305	-0.370136
H325	H	-0.672650	-0.434261	-0.814729
H326	H	-0.172650	0.065739	-0.314729
C327	C	-0.839946	-0.230384	-1.156066
C328	C	-0.339946	0.269616	-0.656066
C329	C	-0.808662	-0.192139	-1.112571
C330	C	-0.308662	0.307861	-0.612571
H331	H	-0.858462	-0.201054	-1.185488
H332	H	-0.358462	0.298946	-0.685488
H333	H	-0.864025	-0.256106	-1.130310
H334	H	-0.364025	0.243894	-0.630310
H335	H	-0.818565	-0.259921	-1.181904
H336	H	-0.318565	0.240079	-0.681904
H337	H	-0.830043	-0.162605	-1.086728
H338	H	-0.330043	0.337395	-0.586728
H339	H	-0.784580	-0.166405	-1.138329
H340	H	-0.284580	0.333595	-0.638329
H341	H	-0.190907	-0.247750	-0.236610
H342	H	0.309093	0.252250	0.263390
C343	C	-0.350456	-0.032479	-1.107955
C344	C	0.149544	0.467521	-0.607955
C345	C	-0.321353	-0.078459	-1.069683
C346	C	0.178647	0.421541	-0.569683
H347	H	-0.373004	-0.056441	-1.137501
H348	H	0.126996	0.443559	-0.637501
H349	H	-0.327512	-0.005040	-1.133671
H350	H	0.172488	0.494960	-0.633671
H351	H	-0.370597	-0.004780	-1.078647
H352	H	0.129403	0.495220	-0.578647
H353	H	-0.301209	-0.106155	-1.098991
H354	H	0.198791	0.393845	-0.598991
H355	H	-0.344300	-0.105910	-1.043966
H356	H	0.155700	0.394090	-0.543966
C357	C	-0.310500	-0.483865	-0.599605
C358	C	0.189500	0.016135	-0.099605
C359	C	-0.321772	-0.416808	-0.582421
C360	C	0.178228	0.083192	-0.082421
H361	H	-0.333204	-0.513183	-0.575649
H362	H	0.166796	-0.013183	-0.075649
H363	H	-0.275379	-0.493859	-0.588053
H364	H	0.224621	0.006141	-0.088053
H365	H	-0.315281	-0.490031	-0.646769
H366	H	0.184719	0.009969	-0.146769
H367	H	-0.316987	-0.410640	-0.535258
H368	H	0.183013	0.089360	-0.035258
H369	H	-0.356902	-0.406810	-0.593968
H370	H	0.143098	0.093190	-0.093968
C371	C	-0.521862	-0.454847	-0.849432
C372	C	-0.021862	0.045153	-0.349432
C373	C	-0.557383	-0.416896	-0.887431
C374	C	-0.057383	0.083104	-0.387431
H375	H	-0.540370	-0.484206	-0.820081
H376	H	-0.040370	0.015794	-0.320081
H377	H	-0.500635	-0.425328	-0.823520
H378	H	-0.000635	0.074672	-0.323520
H379	H	-0.500498	-0.480754	-0.878926
H380	H	-0.000498	0.019246	-0.378926
H381	H	-0.578745	-0.390985	-0.857938
H382	H	-0.078745	0.109015	-0.357938
H383	H	-0.578620	-0.446419	-0.913345
H384	H	-0.078620	0.053581	-0.413345
C385	C	-0.411269	-0.460364	-0.925569
C386	C	0.088731	0.039636	-0.425569
C387	C	-0.442754	-0.416878	-0.887381
C388	C	0.057246	0.083122	-0.387381
H389	H	-0.392720	-0.489714	-0.896201
H390	H	0.107280	0.010286	-0.396201
H391	H	-0.387219	-0.434597	-0.951326
H392	H	0.112781	0.065403	-0.451326
H393	H	-0.432517	-0.486281	-0.955072
H394	H	0.067483	0.013719	-0.455072
H395	H	-0.421504	-0.390957	-0.857881
H396	H	0.078496	0.109043	-0.357881
H397	H	-0.466806	-0.442647	-0.861613
H398	H	0.033194	0.057353	-0.361613
C399	C	-0.152810	-0.032683	-0.848559
C400	C	0.347190	0.467317	-0.348559
C401	C	-0.181984	-0.078605	-0.886763
C402	C	0.318016	0.421395	-0.386763
H403	H	-0.130297	-0.056691	-0.818980
H404	H	0.369703	0.443309	-0.318980
H405	H	-0.175711	-0.004984	-0.822882
H406	H	0.324289	0.495016	-0.322882
H407	H	-0.132628	-0.005239	-0.877909
H408	H	0.367372	0.494761	-0.377909
H409	H	-0.202169	-0.106046	-0.857413
H410	H	0.297831	0.393954	-0.357413
H411	H	-0.159080	-0.106315	-0.912442
H412	H	0.340920	0.393685	-0.412442
H413	H	-0.952895	-0.404629	-0.899948
H414	H	-0.452895	0.095371	-0.399948
