data_functionalizedCrystal
_audit_creation_method	'MofGen! by Chris Wilmer'
_symmetry_space_group_name_H-M	'P1'
_symmetry_Int_Tables_number	1
_symmetry_cell_setting	triclinic
loop_
_symmetry_equiv_pos_as_xyz
  x,y,z
_cell_length_a	29.839134
_cell_length_b	11.169416
_cell_length_c	11.169409
_cell_angle_alpha	89.969184
_cell_angle_beta	90.033640
_cell_angle_gamma	89.994798
loop_
_atom_site_label
_atom_site_type_symbol
_atom_site_fract_x
_atom_site_fract_y
_atom_site_fract_z
Zn1	Zn	0.686868	0.477875	0.678974
Zn2	Zn	0.686826	0.678615	0.478296
Zn3	Zn	0.611736	0.477927	0.478262
Zn4	Zn	0.611740	0.678497	0.678895
O5	O	0.649293	0.578228	0.578607
O6	O	0.749730	0.504531	0.652400
O7	O	0.676846	0.652065	0.310341
O8	O	0.621719	0.309970	0.504906
O9	O	0.749699	0.652015	0.504963
O10	O	0.676918	0.309932	0.652368
O11	O	0.621677	0.504620	0.310317
O12	O	0.548869	0.504505	0.504830
O13	O	0.621725	0.651812	0.846855
O14	O	0.548872	0.651863	0.652233
O15	O	0.676922	0.504417	0.846913
O16	O	0.676850	0.846549	0.504887
O17	O	0.621684	0.846462	0.652266
C18	C	0.532570	0.578178	0.578520
C19	C	0.482636	0.578185	0.578511
C20	C	0.649329	0.578095	0.891649
C21	C	0.649344	0.578039	1.025049
C22	C	0.649275	0.890053	0.578597
C23	C	0.649308	1.023453	0.578634
C24	C	0.173003	0.655071	0.655266
C25	C	-0.014670	0.655105	0.655319
O26	O	-0.038926	0.720420	0.720527
N27	N	-0.038150	0.578272	0.578697
C28	C	-0.014708	0.501420	0.502062
O29	O	-0.038985	0.436062	0.436900
C30	C	0.172964	0.501381	0.502015
C31	C	0.196441	0.578228	0.578634
C32	C	0.196480	0.731910	0.731879
C33	C	0.243396	0.731906	0.731860
C34	C	0.266834	0.655062	0.655228
C35	C	0.243357	0.578223	0.578615
C36	C	0.196405	0.424524	0.425387
C37	C	0.243326	0.424519	0.425384
C38	C	0.266803	0.501365	0.502003
C39	C	0.313711	0.501375	0.501964
N40	N	0.337190	0.578207	0.578586
C41	C	0.313752	0.655051	0.655218
C42	C	-0.113239	0.501448	0.502090
C43	C	-0.160156	0.501459	0.502100
C44	C	-0.160115	0.655142	0.655359
C45	C	-0.113197	0.655136	0.655342
C46	C	-0.089759	0.578281	0.578712
C47	C	0.412278	0.655036	0.655172
C48	C	0.459197	0.655028	0.655143
C49	C	0.459152	0.501341	0.501889
C50	C	0.412236	0.501353	0.501913
C51	C	0.388800	0.578204	0.578564
O52	O	0.337995	0.436084	0.436800
O53	O	0.338037	0.720381	0.720389
C54	C	0.126088	0.655076	0.655284
C55	C	0.102610	0.578237	0.578671
C56	C	0.126049	0.501393	0.502039
C57	C	0.055693	0.578248	0.578681
C58	C	0.032254	0.655091	0.655313
C59	C	0.055734	0.731924	0.731935
C60	C	0.102649	0.731919	0.731916
C61	C	0.102569	0.424561	0.425417
C62	C	0.055654	0.424573	0.425441
C63	C	0.032215	0.501416	0.502073
C64	C	0.766471	0.578280	0.578694
C65	C	0.816405	0.578303	0.578732
C66	C	0.649323	0.265186	0.578642
C67	C	0.649335	0.131786	0.578657
C68	C	0.649282	0.578274	0.266782
C69	C	0.649354	0.577993	0.133382
H70	H	0.478310	0.717610	0.717536
H71	H	0.177402	0.794486	0.794288
H72	H	0.121760	0.794495	0.794308
H73	H	0.036543	0.361997	0.363038
H74	H	0.262507	0.794479	0.794253
H75	H	0.393202	0.717613	0.717592
H76	H	-0.094085	0.717710	0.717734
H77	H	-0.094160	0.438861	0.439682
H78	H	-0.179207	0.717711	0.717756
H79	H	-0.179268	0.438895	0.439697
H80	H	0.478244	0.438781	0.439493
H81	H	0.121648	0.361984	0.363013
H82	H	0.177298	0.361951	0.362992
H83	H	0.262406	0.361925	0.362988
H84	H	0.036642	0.794496	0.794328
H85	H	0.393120	0.438781	0.439522
