data_functionalizedCrystal
_audit_creation_method	'MofGen! by Chris Wilmer'
_symmetry_space_group_name_H-M	'P1'
_symmetry_Int_Tables_number	1
_symmetry_cell_setting	triclinic
loop_
_symmetry_equiv_pos_as_xyz
  x,y,z
_cell_length_a	23.532355
_cell_length_b	14.853559
_cell_length_c	13.930277
_cell_angle_alpha	89.997639
_cell_angle_beta	89.998607
_cell_angle_gamma	83.229476
loop_
_atom_site_label
_atom_site_type_symbol
_atom_site_fract_x
_atom_site_fract_y
_atom_site_fract_z
O1	O	0.755756	0.109215	-0.079696
O2	O	0.589957	0.125099	-0.079726
O3	O	0.677288	-0.014123	-0.079709
O4	O	0.668425	0.248437	-0.079713
O5	O	0.677275	-0.014126	0.079953
O6	O	0.589945	0.125096	0.079936
O7	O	0.755743	0.109212	0.079966
Zn8	Zn	0.672842	0.117154	0.105301
Zn9	Zn	0.672858	0.117157	-0.105061
O10	O	0.668413	0.248434	0.079949
C11	C	0.568733	0.124700	0.000101
C12	C	0.505509	0.123507	0.000090
C13	C	0.676881	-0.047709	0.000120
C14	C	0.675680	-0.147779	0.000114
C15	C	0.670593	-0.570896	-0.086918
C16	C	0.670579	-0.570894	0.087151
C17	C	0.671712	-0.476873	0.087152
C18	C	0.672285	-0.429859	0.000117
C19	C	0.671724	-0.476866	-0.086920
C20	C	0.672267	-0.429858	0.174187
C21	C	0.673400	-0.335831	0.174192
C22	C	0.673976	-0.288817	0.087155
C23	C	0.673416	-0.335830	0.000115
C24	C	0.673988	-0.288816	-0.086921
C25	C	0.673432	-0.335828	-0.173962
C26	C	0.672300	-0.429852	-0.173957
C27	C	0.675108	-0.194793	0.087150
C28	C	0.675119	-0.194786	-0.086922
C29	C	0.113456	0.116005	0.087162
C30	C	0.054051	0.114869	0.087165
O31	O	0.023325	0.114250	0.161181
N32	N	0.024347	0.114308	0.000134
C33	C	0.054051	0.114873	-0.086907
O34	O	0.023331	0.114290	-0.160933
C35	C	0.113455	0.116002	-0.086910
C36	C	0.143155	0.116572	0.000127
C37	C	0.143156	0.116575	0.174191
C38	C	0.202557	0.117712	0.174187
C39	C	0.232256	0.118279	0.087153
C40	C	0.202555	0.117710	0.000123
C41	C	0.143158	0.116560	-0.173949
C42	C	0.202566	0.117689	-0.173945
C43	C	0.232266	0.118259	-0.086908
C44	C	0.291655	0.119415	-0.086915
N45	N	0.321359	0.119976	0.000117
C46	C	0.291660	0.119409	0.087151
C47	C	-0.070701	0.112500	-0.086894
C48	C	-0.130104	0.111377	-0.086893
C49	C	-0.130099	0.111372	0.087180
C50	C	-0.070696	0.112501	0.087177
C51	C	-0.040997	0.113061	0.000137
C52	C	0.416404	0.121798	0.087135
C53	C	0.475809	0.122939	0.087124
C54	C	0.475800	0.122939	-0.086948
C55	C	0.416400	0.121803	-0.086937
C56	C	0.386704	0.121229	0.000113
O57	O	0.322420	0.120031	-0.160893
O58	O	0.322389	0.119980	0.161165
C59	C	0.776968	0.109611	0.000137
C60	C	0.840192	0.110804	0.000142
C61	C	0.668820	0.282020	0.000118
C62	C	0.670020	0.382090	0.000117
N63	N	0.672835	0.117150	0.248867
N64	N	0.672869	0.117153	-0.248627
C65	C	0.634187	0.178781	0.701129
C66	C	0.711545	0.055527	0.701113
C67	C	0.711539	0.055524	0.600617
C68	C	0.672856	0.117151	0.550372
C69	C	0.634180	0.178782	0.600624
C70	C	0.750218	-0.006099	0.550358
C71	C	0.750213	-0.006104	0.449857
C72	C	0.711527	0.055520	0.399610
C73	C	0.672849	0.117152	0.449867
C74	C	0.634166	0.178780	0.399623
C75	C	0.595485	0.240408	0.449878
C76	C	0.595494	0.240406	0.550377
C77	C	0.711518	0.055523	0.299111
C78	C	0.634160	0.178781	0.299118
H79	H	0.673894	-0.297536	-0.244826
C80	C	0.671740	-0.480793	0.268756
C81	C	0.720962	-0.468487	0.321276
C82	C	0.720495	-0.515385	0.408409
H83	H	0.671020	-0.543546	0.256438
H84	H	0.638755	-0.458186	0.304563
H85	H	0.753938	-0.491099	0.285477
H86	H	0.721692	-0.405745	0.333620
H87	H	0.687510	-0.492778	0.444217
H88	H	0.719773	-0.578136	0.396082
H89	H	0.753888	-0.507035	0.444059
H90	H	-0.046524	0.112964	-0.157777
C91	C	-0.162392	0.110955	-0.181362
C92	C	-0.202840	0.187887	-0.186465
C93	C	-0.232586	0.187530	-0.273484
H94	H	-0.181310	0.057993	-0.185078
H95	H	-0.136213	0.111505	-0.233220
H96	H	-0.229015	0.187328	-0.134621
H97	H	-0.183937	0.240861	-0.182766
H98	H	-0.206407	0.188080	-0.325342
H99	H	-0.251500	0.134565	-0.277192
H100	H	-0.260029	0.239731	-0.276962
H101	H	0.743043	0.005356	0.742025
H102	H	0.673854	-0.297563	0.245066
C103	C	0.110819	0.115908	0.268595
C104	C	0.052438	0.114775	0.249995
C105	C	0.022637	0.114153	0.336942
H106	H	0.116187	0.168657	0.304422
H107	H	0.124833	0.063491	0.304362
H108	H	0.038428	0.167186	0.214244
H109	H	0.047053	0.062029	0.214182
H110	H	0.036651	0.061736	0.372708
H111	H	0.028009	0.166903	0.372763
H112	H	-0.016977	0.113376	0.324334
C113	C	0.553463	0.307420	0.395495
C114	C	0.519598	0.361407	0.461008
C115	C	0.480888	0.423154	0.410941
H116	H	0.529681	0.275291	0.356287
H117	H	0.573964	0.344828	0.356309
H118	H	0.499099	0.324003	0.500177
H119	H	0.543365	0.393556	0.500217
H120	H	0.501389	0.460562	0.371755
H121	H	0.457110	0.391017	0.371735
H122	H	0.457910	0.459796	0.455384
H123	H	0.118986	0.116094	-0.244824
C124	C	0.592164	0.245545	0.755810
C125	C	0.557281	0.197807	0.813531
C126	C	0.518568	0.259280	0.863928
H127	H	0.569071	0.282274	0.711602
H128	H	0.612664	0.282891	0.795067
H129	H	0.536783	0.160478	0.774277
H130	H	0.580358	0.161082	0.857757
H131	H	0.539068	0.296625	0.903185
H132	H	0.495479	0.296006	0.819713
H133	H	0.494899	0.226899	0.903104
C134	C	0.675725	-0.143918	0.181740
C135	C	0.674986	-0.205216	0.257962
C136	C	0.675558	-0.158384	0.345118
H137	H	0.642988	-0.100057	0.185471
H138	H	0.709361	-0.114440	0.185434
H139	H	0.641354	-0.234679	0.254271
H140	H	0.707721	-0.249077	0.254263
H141	H	0.709194	-0.128906	0.348811
H142	H	0.642820	-0.114525	0.348838
H143	H	0.675062	-0.199968	0.396844
H144	H	-0.046517	0.112967	0.158050
H145	H	0.781715	-0.056270	0.591271
H146	H	0.499989	0.123407	0.158003
C147	C	0.792229	-0.073119	0.395472
C148	C	0.826097	-0.127103	0.460986
C149	C	0.864801	-0.188857	0.410921
H150	H	0.816010	-0.040995	0.356251
H151	H	0.771725	-0.110528	0.356299
H152	H	0.846600	-0.089698	0.500142
H153	H	0.802331	-0.159246	0.500208
H154	H	0.844297	-0.226267	0.371748
H155	H	0.888579	-0.156725	0.371702
H156	H	0.887782	-0.225498	0.455364
H157	H	0.392232	0.121339	0.158020
C158	C	0.234916	0.118257	-0.268349
C159	C	0.293299	0.119351	-0.249735
C160	C	0.323116	0.119865	-0.336675
H161	H	0.220941	0.170637	-0.304184
H162	H	0.229520	0.065470	-0.304113
H163	H	0.298690	0.172133	-0.213986
H164	H	0.307290	0.066976	-0.213915
H165	H	0.317721	0.067078	-0.372438
H166	H	0.309137	0.172246	-0.372502
H167	H	0.362732	0.120599	-0.324057
C168	C	0.671786	-0.480846	-0.268492
C169	C	0.721018	-0.468604	-0.321018
C170	C	0.720554	-0.515569	-0.408107
H171	H	0.638820	-0.458271	-0.304341
H172	H	0.671050	-0.543593	-0.256085
H173	H	0.721748	-0.405870	-0.333428
H174	H	0.753992	-0.491183	-0.285198
H175	H	0.719819	-0.578316	-0.395700
H176	H	0.687587	-0.492990	-0.443947
H177	H	0.753960	-0.507276	-0.443752
C178	C	0.669884	-0.621806	-0.181480
C179	C	0.621205	-0.588315	-0.233987
C180	C	0.620529	-0.635187	-0.321103
H181	H	0.669095	-0.684541	-0.169141
H182	H	0.703234	-0.613568	-0.217308
H183	H	0.587863	-0.596561	-0.198167
H184	H	0.621983	-0.525585	-0.246352
H185	H	0.653879	-0.626950	-0.356931
H186	H	0.619742	-0.697921	-0.308755
H187	H	0.587504	-0.612465	-0.356744
H188	H	0.675588	-0.156515	-0.157798
H189	H	0.392215	0.121353	-0.157810
H190	H	0.670110	-0.609177	0.158011
C191	C	0.753590	-0.011224	0.244511
C192	C	0.788487	0.036532	0.186836
C193	C	0.827263	-0.024923	0.136541
H194	H	0.733158	-0.048624	0.205227
H195	H	0.776663	-0.047899	0.288810
H196	H	0.765417	0.073192	0.142542
H197	H	0.808932	0.073929	0.226096
H198	H	0.850336	-0.061598	0.180840
H199	H	0.806826	-0.062320	0.097263
H200	H	0.850949	0.007470	0.097410
H201	H	0.226734	0.118171	0.245062
C202	C	0.592251	0.245738	0.244448
C203	C	0.622624	0.300664	0.186729
C204	C	0.584038	0.362348	0.136345
H205	H	0.569202	0.282526	0.288663
H206	H	0.568528	0.213530	0.205190
H207	H	0.646337	0.332870	0.225983
H208	H	0.645671	0.263902	0.142495
H209	H	0.560314	0.330139	0.097087
H210	H	0.560990	0.399128	0.180567
H211	H	0.604640	0.399616	0.097170
H212	H	-0.154291	0.110908	0.158048
H213	H	0.499992	0.123405	-0.157809
H214	H	0.564002	0.290582	0.591301
