data_functionalizedCrystal
_audit_creation_method	'MofGen! by Chris Wilmer'
_symmetry_space_group_name_H-M	'P1'
_symmetry_Int_Tables_number	1
_symmetry_cell_setting	triclinic
loop_
_symmetry_equiv_pos_as_xyz
  x,y,z
_cell_length_a	29.839131
_cell_length_b	19.805407
_cell_length_c	19.805399
_cell_angle_alpha	89.980427
_cell_angle_beta	89.970435
_cell_angle_gamma	90.041420
loop_
_atom_site_label
_atom_site_type_symbol
_atom_site_fract_x
_atom_site_fract_y
_atom_site_fract_z
Zn1	Zn	-0.178864	1.034665	-0.382710
Zn2	Zn	0.154470	1.367998	-0.049377
Zn3	Zn	0.487803	1.701332	0.283956
Zn4	Zn	-0.253991	1.034550	-0.269518
Zn5	Zn	0.079342	1.367884	0.063815
Zn6	Zn	0.412675	1.701217	0.397149
Zn7	Zn	-0.178876	0.921480	-0.269535
Zn8	Zn	0.154457	1.254813	0.063798
Zn9	Zn	0.487791	1.588146	0.397132
Zn10	Zn	-0.253967	0.921414	-0.382665
Zn11	Zn	0.079366	1.254747	-0.049332
Zn12	Zn	0.412699	1.588080	0.284002
O13	O	-0.216425	0.978027	-0.326107
O14	O	0.116909	1.311360	0.007226
O15	O	0.450242	1.644694	0.340560
O16	O	-0.188834	1.129366	-0.367707
O17	O	0.144499	1.462700	-0.034374
O18	O	0.477832	1.796033	0.298960
O19	O	-0.244042	1.019531	-0.174804
O20	O	0.089291	1.352864	0.158530
O21	O	0.422624	1.686197	0.491863
O22	O	-0.116007	0.936570	-0.284574
O23	O	0.217326	1.269903	0.048759
O24	O	0.550659	1.603236	0.382093
O25	O	-0.244030	1.129282	-0.284545
O26	O	0.089303	1.462615	0.048788
O27	O	0.422636	1.795949	0.382121
O28	O	-0.115998	1.019727	-0.367723
O29	O	0.217335	1.353060	-0.034390
O30	O	0.550668	1.686393	0.298943
O31	O	-0.188856	0.936458	-0.174816
O32	O	0.144478	1.269792	0.158517
O33	O	0.477811	1.603125	0.491851
O34	O	-0.188832	0.826754	-0.284530
O35	O	0.144501	1.160088	0.048804
O36	O	0.477834	1.493421	0.382137
O37	O	-0.243990	0.936457	-0.477388
O38	O	0.089344	1.269790	-0.144054
O39	O	0.422677	1.603124	0.189279
O40	O	-0.244002	0.826706	-0.367646
O41	O	0.089332	1.160039	-0.034313
O42	O	0.422665	1.493372	0.299021
O43	O	-0.188811	1.019662	-0.477421
O44	O	0.144522	1.352996	-0.144088
O45	O	0.477855	1.686329	0.189246
O46	O	-0.316855	1.019467	-0.284501
O47	O	0.016478	1.352800	0.048832
O48	O	0.349811	1.686133	0.382165
O49	O	-0.316838	0.936346	-0.367630
O50	O	0.016496	1.269679	-0.034296
O51	O	0.349829	1.603012	0.299037
C52	C	-0.216416	0.802171	-0.326085
C53	C	0.116917	1.135504	0.007248
C54	C	0.450251	1.468838	0.340582
C55	C	-0.216423	0.726939	-0.326092
C56	C	0.116910	1.060272	0.007241
C57	C	0.450243	1.393606	0.340575
C58	C	-0.333147	0.977905	-0.326073
C59	C	0.000186	1.311238	0.007260
C60	C	0.333519	1.644572	0.340593
C61	C	-0.383082	0.977915	-0.326082
C62	C	-0.049748	1.311248	0.007252
C63	C	0.283585	1.644581	0.340585
C64	C	-0.245193	0.691587	-0.369300
C65	C	0.088140	1.024921	-0.035967
C66	C	0.421474	1.358254	0.297366
C67	C	-0.245194	0.620899	-0.369310
C68	C	0.088139	0.954232	-0.035977
C69	C	0.421473	1.287566	0.297357
C70	C	-0.216427	0.585564	-0.326107
C71	C	0.116907	0.918897	0.007226
C72	C	0.450240	1.252230	0.340560
C73	C	-0.187654	0.620920	-0.282897
C74	C	0.145680	0.954254	0.050437
C75	C	0.479013	1.287587	0.383770
C76	C	-0.187651	0.691607	-0.282891
C77	C	0.145682	1.024941	0.050442
C78	C	0.479016	1.358274	0.383776
C79	C	-0.187664	0.335847	-0.282919
C80	C	0.145670	0.669180	0.050414
C81	C	0.479003	1.002514	0.383748
C82	C	-0.187669	0.265155	-0.282927
C83	C	0.145664	0.598488	0.050407
C84	C	0.478997	0.931822	0.383740
C85	C	-0.245207	0.265139	-0.369338
C86	C	0.088127	0.598472	-0.036005
C87	C	0.421460	0.931805	0.297329
C88	C	-0.245204	0.335826	-0.369332
C89	C	0.088130	0.669159	-0.035999
C90	C	0.421463	1.002492	0.297334
C91	C	-0.216429	0.371176	-0.326125
C92	C	0.116904	0.704510	0.007209
C93	C	0.450237	1.037843	0.340542
C94	C	-0.216428	0.447825	-0.326116
C95	C	0.116905	0.781158	0.007218
C96	C	0.450238	1.114491	0.340551
C97	C	-0.216430	0.508916	-0.326112
C98	C	0.116904	0.842250	0.007221
C99	C	0.450237	1.175583	0.340555
C100	C	-0.692722	1.021387	-0.282885
C101	C	-0.359388	1.354720	0.050448
C102	C	-0.026055	1.688054	0.383781
C103	C	-0.880395	1.021471	-0.282912
C104	C	-0.547061	1.354804	0.050422
C105	C	-0.213728	1.688137	0.383755
O106	O	-0.904656	1.058335	-0.246159
O107	O	-0.571323	1.391669	0.087175
O108	O	-0.237990	1.725002	0.420508
N109	N	-0.903867	0.978168	-0.326158
N110	N	-0.570533	1.311501	0.007175
N111	N	-0.237200	1.644834	0.340509
C112	C	-0.880418	0.934844	-0.369404
C113	C	-0.547084	1.268177	-0.036071
C114	C	-0.213751	1.601510	0.297262
O115	O	-0.904688	0.898019	-0.406194
O116	O	-0.571355	1.231352	-0.072860
O117	O	-0.238022	1.564685	0.260473
C118	C	-0.692746	0.934764	-0.369381
C119	C	-0.359412	1.268097	-0.036048
C120	C	-0.026079	1.601431	0.297286
C121	C	-0.669276	0.978065	-0.326127
C122	C	-0.335942	1.311398	0.007207
C123	C	-0.002609	1.644732	0.340540
C124	C	-0.669252	1.064685	-0.239635
C125	C	-0.335918	1.398018	0.093698
C126	C	-0.002585	1.731352	0.427031
C127	C	-0.622336	1.064661	-0.239626
C128	C	-0.289003	1.397994	0.093707
C129	C	0.044330	1.731328	0.427040
C130	C	-0.598891	1.021339	-0.282868
C131	C	-0.265557	1.354672	0.050465
C132	C	0.067776	1.688006	0.383799
C133	C	-0.622360	0.978041	-0.326118
C134	C	-0.289027	1.311374	0.007215
C135	C	0.044306	1.644708	0.340549
C136	C	-0.669297	0.891444	-0.412630
C137	C	-0.335964	1.224777	-0.079297
C138	C	-0.002631	1.558111	0.254037
C139	C	-0.622376	0.891429	-0.412621
C140	C	-0.289043	1.224763	-0.079288
C141	C	0.044290	1.558096	0.254045
C142	C	-0.598907	0.934730	-0.369367
C143	C	-0.265573	1.268064	-0.036034
C144	C	0.067760	1.601397	0.297299
C145	C	-0.551999	0.934695	-0.369351
C146	C	-0.218666	1.268029	-0.036017
C147	C	0.114667	1.601362	0.297316
N148	N	-0.528527	0.977998	-0.326104
N149	N	-0.195194	1.311332	0.007229
N150	N	0.138140	1.644665	0.340563
C151	C	-0.551973	1.021320	-0.282863
C152	C	-0.218639	1.354654	0.050471
C153	C	0.114694	1.687987	0.383804
C154	C	-0.978948	0.934888	-0.369412
C155	C	-0.645615	1.268221	-0.036079
C156	C	-0.312282	1.601554	0.297254
C157	C	-1.025866	0.934907	-0.369418
C158	C	-0.692533	1.268240	-0.036084
C159	C	-0.359199	1.601573	0.297249
C160	C	-1.025840	1.021534	-0.282926
C161	C	-0.692506	1.354868	0.050408
C162	C	-0.359173	1.688201	0.383741
C163	C	-0.978921	1.021512	-0.282918
C164	C	-0.645588	1.354845	0.050416
C165	C	-0.312254	1.688178	0.383749
C166	C	-0.955476	0.978191	-0.326166
C167	C	-0.622143	1.311524	0.007167
C168	C	-0.288810	1.644857	0.340501
C169	C	-0.453447	1.021266	-0.282847
C170	C	-0.120114	1.354600	0.050486
C171	C	0.213220	1.687933	0.383819
C172	C	-0.406527	1.021237	-0.282840
C173	C	-0.073194	1.354570	0.050493
C174	C	0.260139	1.687903	0.383826
C175	C	-0.406558	0.934611	-0.369334
C176	C	-0.073225	1.267945	-0.036001
C177	C	0.260109	1.601278	0.297332
C178	C	-0.453473	0.934638	-0.369339
C179	C	-0.120140	1.267972	-0.036006
C180	C	0.213193	1.601305	0.297328
C181	C	-0.476917	0.977971	-0.326093
C182	C	-0.143583	1.311305	0.007240
C183	C	0.189750	1.644638	0.340573
O184	O	-0.527708	0.897855	-0.406090
O185	O	-0.194375	1.231188	-0.072756
O186	O	0.138958	1.564522	0.260577
O187	O	-0.527694	1.058150	-0.246090
O188	O	-0.194361	1.391484	0.087244
O189	O	0.138973	1.724817	0.420577
C190	C	-0.739637	1.021411	-0.282894
C191	C	-0.406304	1.354744	0.050439
C192	C	-0.072970	1.688078	0.383773
C193	C	-0.763107	0.978113	-0.326144
C194	C	-0.429773	1.311446	0.007189
C195	C	-0.096440	1.644780	0.340522
C196	C	-0.739661	0.934791	-0.369386
C197	C	-0.406328	1.268124	-0.036052
C198	C	-0.072994	1.601458	0.297281
C199	C	-0.810025	0.978132	-0.326149
C200	C	-0.476691	1.311465	0.007184
C201	C	-0.143358	1.644798	0.340517
C202	C	-0.833470	1.021454	-0.282908
C203	C	-0.500137	1.354787	0.050425
C204	C	-0.166804	1.688120	0.383759
C205	C	-0.809998	1.064757	-0.239661
C206	C	-0.476665	1.398090	0.093672
C207	C	-0.143331	1.731423	0.427005
C208	C	-0.763083	1.064733	-0.239653
C209	C	-0.429749	1.398066	0.093681
C210	C	-0.096416	1.731399	0.427014
C211	C	-0.763133	0.891488	-0.412632
C212	C	-0.429800	1.224821	-0.079299
C213	C	-0.096466	1.558155	0.254035
C214	C	-0.810049	0.891515	-0.412637
C215	C	-0.476715	1.224848	-0.079303
C216	C	-0.143382	1.558182	0.254030
C217	C	-0.833494	0.934837	-0.369395
C218	C	-0.500161	1.268170	-0.036062
C219	C	-0.166828	1.601503	0.297271
C220	C	-0.099246	0.978168	-0.326156
C221	C	0.234087	1.311502	0.007178
C222	C	0.567420	1.644835	0.340511
C223	C	-0.049312	0.978228	-0.326176
C224	C	0.284022	1.311562	0.007157
C225	C	0.617355	1.644895	0.340490
C226	C	-0.216396	0.978065	-0.502650
C227	C	0.116937	1.311398	-0.169317
C228	C	0.450270	1.644732	0.164017
C229	C	-0.216384	0.978081	-0.577882
C230	C	0.116949	1.311415	-0.244549
C231	C	0.450282	1.644748	0.088785
C232	C	-0.216434	1.154570	-0.326129
C233	C	0.116900	1.487903	0.007204
C234	C	0.450233	1.821237	0.340537
C235	C	-0.216437	1.229802	-0.326139
C236	C	0.116896	1.563135	0.007194
C237	C	0.450229	1.896468	0.340528
C238	C	-0.187652	1.021407	-0.613244
C239	C	0.145682	1.354741	-0.279911
C240	C	0.479015	1.688074	0.053422
C241	C	-0.187638	1.021414	-0.683933
C242	C	0.145695	1.354748	-0.350600
C243	C	0.479028	1.688081	-0.017266
C244	C	-0.216361	0.978098	-0.719258
C245	C	0.116972	1.311431	-0.385924
C246	C	0.450306	1.644765	-0.052591
C247	C	-0.245095	0.934767	-0.683890
C248	C	0.088238	1.268101	-0.350557
C249	C	0.421572	1.601434	-0.017223
C250	C	-0.245105	0.934757	-0.613203
C251	C	0.088228	1.268091	-0.279869
C252	C	0.421561	1.601424	0.053464
C253	C	-0.245053	0.934806	-0.968963
C254	C	0.088280	1.268139	-0.635630
C255	C	0.421614	1.601472	-0.302297
C256	C	-0.245041	0.934820	-1.039656
C257	C	0.088292	1.268154	-0.706322
C258	C	0.421625	1.601487	-0.372989
C259	C	-0.187586	1.021462	-1.039694
C260	C	0.145747	1.354796	-0.706360
C261	C	0.479081	1.688129	-0.373027
C262	C	-0.187597	1.021453	-0.969006
C263	C	0.145737	1.354786	-0.635673
C264	C	0.479070	1.688119	-0.302340
C265	C	-0.216329	0.978120	-0.933645
C266	C	0.117005	1.311453	-0.600312
C267	C	0.450338	1.644786	-0.266978
C268	C	-0.216342	0.978112	-0.856997
C269	C	0.116991	1.311445	-0.523663
C270	C	0.450325	1.644778	-0.190330
C271	C	-0.216350	0.978109	-0.795905
C272	C	0.116983	1.311442	-0.462571
C273	C	0.450316	1.644776	-0.129238
C274	C	-0.216420	0.978028	-0.150251
C275	C	0.116913	1.311362	0.183082
C276	C	0.450246	1.644695	0.516416
C277	C	-0.216306	0.978143	-0.075019
C278	C	0.117027	1.311477	0.258314
C279	C	0.450361	1.644810	0.591647
H280	H	-0.268620	0.720352	-0.404479
H281	H	0.064713	1.053686	-0.071146
H282	H	0.398046	1.387019	0.262188
H283	H	-0.603230	1.099922	-0.204407
H284	H	-0.269897	1.433256	0.128926
H285	H	0.063437	1.766589	0.462259
Cl286	Cl	-0.151535	1.075914	-0.728386
Cl287	Cl	0.181798	1.409247	-0.395053
Cl288	Cl	0.515131	1.742580	-0.061719
Cl289	Cl	-0.698718	1.119155	-0.185267
Cl290	Cl	-0.365385	1.452488	0.148066
Cl291	Cl	-0.032051	1.785821	0.481400
H292	H	-0.164209	1.056727	-0.940249
H293	H	0.169124	1.390061	-0.606915
H294	H	0.502457	1.723394	-0.273582
Cl295	Cl	-0.281202	0.880310	-0.728298
Cl296	Cl	0.052132	1.213643	-0.394965
Cl297	Cl	0.385465	1.546977	-0.061631
H298	H	-1.044971	0.899640	-0.404633
H299	H	-0.711638	1.232973	-0.071300
H300	H	-0.378305	1.566307	0.262033
Cl301	Cl	-0.281227	0.880286	-0.568747
Cl302	Cl	0.052107	1.213619	-0.235413
Cl303	Cl	0.385440	1.546953	0.097920
H304	H	-0.268634	0.236348	-0.404522
H305	H	0.064699	0.569681	-0.071189
H306	H	0.398032	0.903014	0.262145
Cl307	Cl	-0.151489	0.380278	-0.228603
Cl308	Cl	0.181845	0.713612	0.104731
Cl309	Cl	0.515178	1.046945	0.438064
Cl310	Cl	-0.949481	0.880419	-0.423786
Cl311	Cl	-0.616148	1.213753	-0.090453
Cl312	Cl	-0.282815	1.547086	0.242881
H313	H	-0.959815	1.056771	-0.247697
H314	H	-0.626481	1.390105	0.085636
H315	H	-0.293148	1.723438	0.418970
Cl316	Cl	-0.151501	0.220734	-0.228611
Cl317	Cl	0.181832	0.554067	0.104722
Cl318	Cl	0.515165	0.887401	0.438055
H319	H	-0.743977	1.099993	-0.204431
H320	H	-0.410644	1.433326	0.128902
H321	H	-0.077310	1.766659	0.462235
H322	H	-0.688398	0.856180	-0.447849
H323	H	-0.355065	1.189514	-0.114516
H324	H	-0.021732	1.522847	0.218818
Cl325	Cl	-0.151486	0.576498	-0.228588
Cl326	Cl	0.181847	0.909832	0.104745
Cl327	Cl	0.515181	1.243165	0.438078
H328	H	-0.829096	1.100029	-0.204451
H329	H	-0.495762	1.433362	0.128883
H330	H	-0.162429	1.766696	0.462216
H331	H	-0.472583	0.899381	-0.404562
H332	H	-0.139250	1.232715	-0.071229
H333	H	0.194083	1.566048	0.262104
H334	H	-0.387461	0.899337	-0.404539
H335	H	-0.054128	1.232670	-0.071206
H336	H	0.279206	1.566004	0.262127
H337	H	-0.472529	1.056554	-0.247634
H338	H	-0.139196	1.389887	0.085699
H339	H	0.194138	1.723220	0.419033
H340	H	-0.164264	1.056683	-0.584488
H341	H	0.169070	1.390016	-0.251155
H342	H	0.502403	1.723349	0.082178
H343	H	-0.603290	0.856153	-0.447842
H344	H	-0.269956	1.189486	-0.114508
H345	H	0.063377	1.522819	0.218825
Cl346	Cl	-0.839548	0.837073	-0.467019
Cl347	Cl	-0.506214	1.170406	-0.133685
Cl348	Cl	-0.172881	1.503739	0.199648
Cl349	Cl	-0.281363	0.576460	-0.423632
Cl350	Cl	0.051970	0.909793	-0.090298
Cl351	Cl	0.385303	1.243126	0.243035
Cl352	Cl	-0.151463	1.075937	-1.084152
Cl353	Cl	0.181870	1.409270	-0.750819
Cl354	Cl	0.515203	1.742603	-0.417486
Cl355	Cl	-0.281152	0.880361	-1.084063
Cl356	Cl	0.052181	1.213694	-0.750729
Cl357	Cl	0.385515	1.547027	-0.417396
Cl358	Cl	-0.281371	0.380243	-0.423644
Cl359	Cl	0.051962	0.713577	-0.090311
Cl360	Cl	0.385295	1.046910	0.243023
H361	H	-0.164221	0.720390	-0.247710
H362	H	0.169112	1.053723	0.085624
H363	H	0.502445	1.387057	0.418957
Cl364	Cl	-0.377026	1.075676	-0.228460
Cl365	Cl	-0.043692	1.409010	0.104874
Cl366	Cl	0.289641	1.742343	0.438207
Cl367	Cl	-0.281174	0.880330	-0.924518
Cl368	Cl	0.052159	1.213663	-0.591185
Cl369	Cl	0.385493	1.546997	-0.257852
H370	H	-1.044937	1.056809	-0.247717
H371	H	-0.711604	1.390142	0.085616
H372	H	-0.378271	1.723476	0.418950
H373	H	-0.744047	0.856211	-0.447845
H374	H	-0.410714	1.189544	-0.114512
H375	H	-0.077381	1.522877	0.218821
