data_functionalizedCrystal
_audit_creation_method	'MofGen! by Chris Wilmer'
_symmetry_space_group_name_H-M	'P1'
_symmetry_Int_Tables_number	1
_symmetry_cell_setting	triclinic
loop_
_symmetry_equiv_pos_as_xyz
  x,y,z
_cell_length_a	10.654550
_cell_length_b	14.519731
_cell_length_c	9.130313
_cell_angle_alpha	89.997760
_cell_angle_beta	89.996220
_cell_angle_gamma	84.086878
loop_
_atom_site_label
_atom_site_type_symbol
_atom_site_fract_x
_atom_site_fract_y
_atom_site_fract_z
O1	O	1.666602	0.129527	-0.121923
O2	O	1.301006	0.141868	-0.121900
O3	O	1.493484	0.001510	-0.121899
O4	O	1.474125	0.269884	-0.121925
O5	O	1.493481	0.001514	0.121700
O6	O	1.301004	0.141872	0.121699
O7	O	1.666600	0.129531	0.121675
Cu8	Cu	1.483802	0.135701	0.143930
Cu9	Cu	1.483804	0.135697	-0.144154
O10	O	1.474122	0.269888	0.121674
C11	C	1.254216	0.140964	-0.000098
C12	C	1.114798	0.138253	-0.000088
C13	C	1.034527	0.220893	-0.000118
C14	C	0.903530	0.218340	-0.000143
C15	C	0.933090	0.050499	-0.000116
C16	C	1.064084	0.053053	-0.000080
C17	C	1.017459	0.317794	-0.000140
C18	C	0.886463	0.315241	-0.000165
C19	C	1.492575	-0.032852	-0.000099
C20	C	1.489857	-0.135246	-0.000098
C21	C	1.487649	-0.218402	-0.000102
C22	C	1.484889	-0.322725	-0.000113
C23	C	1.482699	-0.405875	-0.000122
C24	C	1.479939	-0.510205	-0.000130
C25	C	1.713390	0.130435	-0.000130
C26	C	1.852808	0.133146	-0.000149
C27	C	1.475031	0.304250	-0.000129
C28	C	1.477749	0.406645	-0.000139
N29	N	1.483809	0.135704	0.346552
N30	N	1.483807	0.135687	-0.346777
C31	C	1.569059	0.073575	0.423205
C32	C	1.569056	0.073564	0.576541
C33	C	1.398547	0.197819	0.576560
C34	C	1.398546	0.197825	0.423226
C35	C	1.667505	0.001840	0.423195
C36	C	1.667502	0.001829	0.576532
H37	H	1.052822	0.348647	-0.105314
C38	C	0.917275	0.383348	0.235056
C39	C	0.824417	0.354778	0.141795
H40	H	0.878965	0.407759	0.322690
H41	H	0.976512	0.331929	0.257897
H42	H	0.959307	0.429746	0.187835
H43	H	0.782391	0.308376	0.189013
H44	H	0.765157	0.406203	0.118956
H45	H	0.891782	-0.018867	-0.000131
H46	H	1.046429	0.355694	0.101808
H47	H	0.844384	0.351751	-0.102122
H48	H	1.763863	0.017630	0.618141
H49	H	1.129437	-0.014241	-0.000035
C50	C	1.600769	-0.147995	0.526527
C51	C	1.627227	-0.088611	0.640746
H52	H	1.575925	-0.203832	0.566176
H53	H	1.534407	-0.118924	0.468004
H54	H	1.674043	-0.161515	0.467954
H55	H	1.553950	-0.075086	0.699313
H56	H	1.693595	-0.117688	0.699294
C57	C	1.229999	0.320637	0.438652
C58	C	1.304828	0.266113	0.338968
H59	H	1.172145	0.362799	0.386632
H60	H	1.184752	0.281932	0.498458
H61	H	1.282355	0.354169	0.498457
H62	H	1.252473	0.232576	0.279170
H63	H	1.350079	0.304823	0.279138
H64	H	1.329128	0.248395	0.639004
H65	H	1.646736	-0.069045	0.381584
C66	C	1.784080	0.030709	0.205805
C67	C	1.790280	0.032206	0.358964
H68	H	1.859865	0.049477	0.166154
H69	H	1.773715	-0.030261	0.173666
H70	H	1.714465	0.071909	0.173724
H71	H	1.859890	-0.008999	0.391046
H72	H	1.800659	0.093185	0.391116
