data_functionalizedCrystal
_audit_creation_method	'MofGen! by Chris Wilmer'
_symmetry_space_group_name_H-M	'P1'
_symmetry_Int_Tables_number	1
_symmetry_cell_setting	triclinic
loop_
_symmetry_equiv_pos_as_xyz
  x,y,z
_cell_length_a	19.288864
_cell_length_b	10.723024
_cell_length_c	18.366186
_cell_angle_alpha	89.994974
_cell_angle_beta	89.977106
_cell_angle_gamma	83.802058
loop_
_atom_site_label
_atom_site_type_symbol
_atom_site_fract_x
_atom_site_fract_y
_atom_site_fract_z
O1	O	0.922366	0.155659	-0.060782
O2	O	1.422366	0.655659	0.439218
O3	O	0.720242	0.176657	-0.060732
O4	O	1.220242	0.676657	0.439268
O5	O	0.825966	-0.015516	-0.060755
O6	O	1.325966	0.484484	0.439245
O7	O	0.816641	0.347832	-0.060758
O8	O	1.316641	0.847832	0.439242
O9	O	0.825948	-0.015526	0.060344
O10	O	1.325948	0.484474	0.560344
O11	O	0.720223	0.176647	0.060368
O12	O	1.220223	0.676647	0.560368
O13	O	0.922347	0.155649	0.060318
O14	O	1.422347	0.655649	0.560318
Zn15	Zn	0.821282	0.166147	0.079570
Zn16	Zn	1.321282	0.666147	0.579570
Zn17	Zn	0.821306	0.166159	-0.079984
Zn18	Zn	1.321306	0.666159	0.420016
O19	O	0.816623	0.347822	0.060341
O20	O	1.316623	0.847822	0.560341
C21	C	0.694352	0.175976	-0.000176
C22	C	1.194352	0.675976	0.499824
C23	C	0.617235	0.173948	-0.000156
C24	C	1.117235	0.673948	0.499844
C25	C	0.573272	0.286707	-0.000169
C26	C	1.073272	0.786707	0.499831
C27	C	0.500813	0.284801	-0.000177
C28	C	1.000813	0.784801	0.499823
C29	C	0.472319	0.170131	-0.000187
C30	C	0.972319	0.670131	0.499813
C31	C	0.516291	0.057358	-0.000171
C32	C	1.016291	0.557358	0.499829
C33	C	0.588749	0.059266	-0.000155
C34	C	1.088749	0.559266	0.499845
C35	C	0.363477	0.079991	-0.042637
C36	C	0.863477	0.579991	0.457363
C37	C	0.291020	0.078087	-0.042657
C38	C	0.791020	0.578087	0.457343
C39	C	0.248835	0.164239	-0.000231
C40	C	0.748835	0.664239	0.499769
C41	C	0.279115	0.252317	0.042205
C42	C	0.779115	0.752317	0.542205
C43	C	0.351573	0.254226	0.042221
C44	C	0.851573	0.754226	0.542221
C45	C	0.393752	0.168049	-0.000203
C46	C	0.893752	0.668049	0.499797
C47	C	0.126303	0.274939	-0.000251
C48	C	0.626303	0.774939	0.499749
C49	C	0.053843	0.273029	-0.000255
C50	C	0.553843	0.773029	0.499745
C51	C	0.069323	0.045582	-0.000256
C52	C	0.569323	0.545582	0.499744
C53	C	0.141782	0.047496	-0.000245
C54	C	0.641782	0.547496	0.499755
C55	C	0.170267	0.162178	-0.000246
C56	C	0.670267	0.662178	0.499754
C57	C	0.825278	-0.062006	-0.000206
C58	C	1.325278	0.437994	0.499794
C59	C	0.823248	-0.200518	-0.000208
C60	C	1.323248	0.299482	0.499792
C61	C	0.882406	-0.276743	-0.000224
C62	C	1.382406	0.223257	0.499776
C63	C	0.880309	-0.419902	-0.000226
C64	C	1.380309	0.080098	0.499774
C65	C	0.948237	0.156330	-0.000240
C66	C	1.448237	0.656330	0.499760
C67	C	1.025354	0.158358	-0.000264
C68	C	1.525354	0.658358	0.499736
C69	C	0.817311	0.394313	-0.000209
C70	C	1.317311	0.894313	0.499791
C71	C	0.819341	0.532824	-0.000212
C72	C	1.319341	1.032824	0.499788
N73	N	0.821271	0.166138	0.188461
N74	N	1.321271	0.666138	0.688461
N75	N	0.821323	0.166159	-0.188875
N76	N	1.321323	0.666159	0.311125
C77	C	0.868102	0.081085	0.226551
C78	C	1.368102	0.581085	0.726551
C79	C	0.868106	0.081079	0.302779
C80	C	1.368106	0.581079	0.802779
C81	C	0.821287	0.166148	0.340914
C82	C	1.321287	0.666148	0.840914
C83	C	0.774447	0.251207	0.302815
C84	C	1.274447	0.751207	0.802815
C85	C	0.774440	0.251202	0.226588
C86	C	1.274440	0.751202	0.726588
C87	C	0.812728	0.279840	0.461675
C88	C	1.312728	0.779840	0.961675
C89	C	0.812741	0.279847	0.537899
C90	C	1.312741	0.779847	1.037899
C91	C	0.821307	0.166164	0.576021
C92	C	1.321307	0.666164	1.076021
C93	C	0.829874	0.052468	0.537909
C94	C	1.329874	0.552468	1.037909
C95	C	0.829867	0.052463	0.461682
C96	C	1.329867	0.552463	0.961682
C97	C	0.821290	0.166162	0.423569
C98	C	1.321290	0.666162	0.923569
C99	C	0.868144	0.081098	0.696766
C100	C	1.368144	0.581098	1.196766
C101	C	0.868144	0.081091	0.772995
C102	C	1.368144	0.581091	1.272995
C103	C	0.774489	0.251229	0.773030
C104	C	1.274489	0.751229	1.273030
C105	C	0.774486	0.251225	0.696802
C106	C	1.274486	0.751225	1.196802
C107	C	0.821317	0.166161	0.658675
C108	C	1.321317	0.666161	1.158675
H109	H	0.266372	0.006374	-0.077214
H110	H	0.766372	0.506374	0.422786
H111	H	0.768695	-0.401687	-0.000194
H112	H	1.268695	0.098313	0.499806
H113	H	0.244769	0.322470	0.076753
H114	H	0.744769	0.822470	0.576753
H115	H	0.771048	-0.241244	-0.000200
H116	H	1.271048	0.258756	0.499800
H117	H	0.376223	0.325938	0.076776
H118	H	0.876223	0.825938	0.576776
H119	H	0.046124	-0.047784	-0.000309
H120	H	0.546124	0.452216	0.499691
H121	H	0.805769	0.372425	0.568925
H122	H	1.305769	0.872425	1.068925
H123	H	0.930952	-0.485398	-0.000236
H124	H	1.430952	0.014602	0.499764
H125	H	0.906233	0.011818	0.195510
H126	H	1.406233	0.511818	0.695510
H127	H	0.596460	0.380090	-0.000171
H128	H	1.096460	0.880090	0.499829
H129	H	0.906277	0.011824	0.804009
H130	H	1.406277	0.511824	1.304009
H131	H	0.736365	0.320489	0.804079
H132	H	1.236365	0.820489	1.304079
H133	H	0.906242	0.011817	0.333797
H134	H	1.406242	0.511817	0.833797
H135	H	0.149497	0.368320	-0.000241
H136	H	0.649497	0.868320	0.499759
H137	H	0.736355	0.320488	0.665787
H138	H	1.236355	0.820488	1.165787
H139	H	0.836841	-0.040112	0.430654
H140	H	1.336841	0.459888	0.930654
H141	H	0.736325	0.320469	0.333868
H142	H	1.236325	0.820469	0.833868
H143	H	0.906275	0.011829	0.665722
H144	H	1.406275	0.511829	1.165722
H145	H	0.836849	-0.040104	0.568946
H146	H	1.336849	0.459896	1.068946
H147	H	0.805741	0.372421	0.430642
H148	H	1.305741	0.872421	0.930642
H149	H	0.465012	0.376626	-0.000185
H150	H	0.965012	0.876626	0.499815
H151	H	0.934605	-0.236017	-0.000232
H152	H	1.434605	0.263983	0.499768
H153	H	0.736304	0.320463	0.195575
H154	H	1.236304	0.820463	0.695575
H155	H	0.397819	0.009832	-0.077190
H156	H	0.897819	0.509832	0.422810
H157	H	0.018048	0.364855	-0.000261
H158	H	0.518048	0.864855	0.499739
H159	H	0.493087	-0.036008	-0.000189
H160	H	0.993087	0.463992	0.499811
H161	H	0.177577	-0.044325	-0.000239
H162	H	0.677577	0.455675	0.499761
H163	H	0.624544	-0.032558	-0.000146
H164	H	1.124544	0.467442	0.499854
