data_functionalizedCrystal
_audit_creation_method	'MofGen! by Chris Wilmer'
_symmetry_space_group_name_H-M	'P1'
_symmetry_Int_Tables_number	1
_symmetry_cell_setting	triclinic
loop_
_symmetry_equiv_pos_as_xyz
  x,y,z
_cell_length_a	13.185407
_cell_length_b	17.666332
_cell_length_c	13.339070
_cell_angle_alpha	90.002141
_cell_angle_beta	96.198611
_cell_angle_gamma	89.990487
loop_
_atom_site_label
_atom_site_type_symbol
_atom_site_fract_x
_atom_site_fract_y
_atom_site_fract_z
O1	O	1.373303	-0.062931	0.243487
O2	O	1.084470	-0.062935	0.148750
O3	O	1.195738	-0.062931	0.334357
O4	O	1.262035	-0.062935	0.057879
O5	O	1.195708	0.062966	0.334357
O6	O	1.084440	0.062962	0.148749
O7	O	1.373272	0.062966	0.243487
Cu8	Cu	1.228853	0.074459	0.196118
Cu9	Cu	1.228889	-0.074428	0.196118
O10	O	1.262005	0.062962	0.057879
C11	C	1.046733	0.000013	0.139145
C12	C	0.934328	0.000011	0.110538
N13	N	1.228835	0.179179	0.196120
C14	C	0.562466	0.000018	0.383552
C15	C	0.668075	0.000024	0.410433
C16	C	0.734643	0.000021	0.335461
C17	C	0.695592	0.000011	0.233605
C18	C	0.589973	0.000010	0.206722
C19	C	0.762150	0.000013	0.158631
C20	C	0.723099	0.000004	0.056775
C21	C	0.617490	0.000003	0.029896
C22	C	0.550922	0.000006	0.104867
C23	C	0.867770	0.000014	0.185514
C24	C	0.895277	0.000007	0.008684
C25	C	0.789668	0.000000	-0.018197
C26	C	1.278136	0.218790	0.278282
C27	C	1.278140	0.298038	0.278288
C28	C	1.228858	0.337671	0.196118
C29	C	1.179546	0.298050	0.113948
C30	C	1.179535	0.218804	0.113949
N31	N	1.241055	0.462088	0.109926
N32	N	1.241071	0.537369	0.109929
C33	C	1.228887	0.576435	0.196111
N34	N	1.216705	0.537377	0.282297
N35	N	1.216695	0.462089	0.282294
C36	C	1.228864	0.423600	0.196108
C37	C	1.278194	0.701976	0.278285
C38	C	1.278190	0.781225	0.278290
C39	C	1.179603	0.781235	0.113944
C40	C	1.179599	0.701988	0.113946
C41	C	1.228900	0.662363	0.196117
C42	C	1.411010	0.000017	0.253091
C43	C	1.523415	0.000013	0.281698
N44	N	1.228906	0.820852	0.196121
C45	C	1.184524	0.000016	0.368997
C46	C	1.151143	0.000012	0.472211
C47	C	1.273219	0.000013	0.023239
C48	C	1.306600	0.000012	-0.079975
C49	C	1.410698	0.000017	0.907668
C50	C	1.442064	0.000024	0.810695
C51	C	1.369336	0.000021	0.726070
C52	C	1.265237	0.000011	0.738426
C53	C	1.233867	0.000009	0.835409
C54	C	1.192506	0.000014	0.653810
C55	C	1.088406	0.000003	0.666167
C56	C	1.057042	0.000001	0.763141
C57	C	1.129770	0.000004	0.847766
C58	C	1.223876	0.000015	0.556828
C59	C	1.047045	0.000008	0.484568
C60	C	1.015679	-0.000000	0.581541
H61	H	0.899554	0.000021	0.268447
H62	H	0.820635	0.000026	0.357354
H63	H	1.394881	0.000028	0.647112
C64	C	0.943973	-0.000041	0.776350
C65	C	0.886993	-0.000062	0.681487
C66	C	0.782832	-0.000110	0.693613
H67	H	0.927910	0.043850	0.812626
H68	H	0.928028	-0.043962	0.812636
H69	H	0.902932	0.043854	0.645215
H70	H	0.903024	-0.043950	0.645195
H71	H	0.766886	-0.044031	0.729900
H72	H	0.766780	0.043781	0.729893
H73	H	0.744158	-0.000132	0.629253
H74	H	1.318334	0.669712	0.345196
C75	C	1.555046	-0.000088	0.797135
C76	C	1.578235	-0.064847	0.743547
C77	C	1.682307	-0.064973	0.731029
H78	H	1.593981	-0.000127	0.861350
H79	H	1.570973	0.043794	0.760759
H80	H	1.562319	-0.108717	0.779924
H81	H	1.539326	-0.064821	0.679324
H82	H	1.698234	-0.021091	0.694653
H83	H	1.721233	-0.065010	0.795247
H84	H	1.698053	-0.108907	0.694660
H85	H	0.930919	-0.000008	0.591617
C86	C	1.331763	0.340920	0.367572
C87	C	1.374949	0.289256	0.439525
C88	C	1.424361	0.328729	0.521782
H89	H	1.283837	0.371846	0.396751
H90	H	1.383930	0.371808	0.345382
H91	H	1.322789	0.258381	0.461715
H92	H	1.422889	0.258329	0.410379
H93	H	1.476528	0.359617	0.499592
H94	H	1.376429	0.359654	0.550952
H95	H	1.453677	0.293681	0.570608
H96	H	0.757857	-0.000007	-0.101129
H97	H	0.699863	0.000035	0.493364
H98	H	0.464925	-0.000003	0.082986
C99	C	1.126140	0.341213	0.024806
C100	C	1.136726	0.419093	0.042376
C101	C	1.087548	0.458877	-0.039726
H102	H	1.055792	0.328333	0.016615
H103	H	1.155965	0.328259	-0.034619
H104	H	1.106898	0.432041	0.101783
H105	H	1.207063	0.431995	0.050556
H106	H	1.117373	0.445923	-0.099150
H107	H	1.017202	0.445991	-0.047910
H108	H	1.094732	0.511722	-0.027820
H109	H	0.508258	0.000042	0.444582
C110	C	1.125999	0.175929	0.024619
C111	C	1.082856	0.227595	-0.047353
C112	C	1.033545	0.188125	-0.129664
H113	H	1.073818	0.145020	0.046711
H114	H	1.174005	0.145023	-0.004500
H115	H	1.034853	0.258487	-0.018239
H116	H	1.135015	0.258505	-0.069473
H117	H	1.081551	0.157220	-0.158783
H118	H	0.981369	0.157218	-0.107562
H119	H	1.004275	0.223174	-0.178511
C120	C	1.331823	0.824098	0.367572
C121	C	1.375018	0.772430	0.439515
C122	C	1.424447	0.811898	0.521768
H123	H	1.283906	0.855025	0.396761
H124	H	1.383987	0.854985	0.345374
H125	H	1.322860	0.741556	0.461711
H126	H	1.422950	0.741502	0.410357
H127	H	1.476611	0.842785	0.499570
H128	H	1.376523	0.842823	0.550948
H129	H	1.453769	0.776848	0.570587
H130	H	0.585698	0.000003	-0.053042
H131	H	1.139472	0.813504	0.047042
H132	H	0.949477	0.000007	-0.052364
H133	H	1.139459	0.669734	0.047039
H134	H	1.318277	0.186530	0.345192
H135	H	1.469901	0.000026	0.976575
H136	H	1.308634	0.000024	0.546778
H137	H	1.104236	-0.000005	0.926733
H138	H	0.987824	0.000009	0.415664
