data_functionalizedCrystal
_audit_creation_method	'MofGen! by Chris Wilmer'
_symmetry_space_group_name_H-M	'P1'
_symmetry_Int_Tables_number	1
_symmetry_cell_setting	triclinic
loop_
_symmetry_equiv_pos_as_xyz
  x,y,z
_cell_length_a	14.519709
_cell_length_b	14.044190
_cell_length_c	12.996460
_cell_angle_alpha	89.989157
_cell_angle_beta	90.000034
_cell_angle_gamma	88.435961
loop_
_atom_site_label
_atom_site_type_symbol
_atom_site_fract_x
_atom_site_fract_y
_atom_site_fract_z
O1	O	1.233896	0.124273	-0.085444
O2	O	0.966600	0.138908	-0.085477
O3	O	1.096232	-0.006401	-0.085440
O4	O	1.104263	0.269582	-0.085480
O5	O	1.096217	-0.006409	0.085693
O6	O	0.966584	0.138899	0.085657
O7	O	1.233880	0.124265	0.085690
Cu8	Cu	1.100231	0.131581	0.101300
Cu9	Cu	1.100249	0.131591	-0.101086
O10	O	1.104248	0.269574	0.085654
C11	C	0.932177	0.138221	0.000086
C12	C	0.829631	0.136178	0.000075
C13	C	1.092711	-0.041726	0.000129
C14	C	1.082231	-0.146970	0.000137
C15	C	0.454128	0.128654	0.000123
C16	C	0.558604	0.130743	0.000109
C17	C	0.641876	0.132415	0.000098
C18	C	0.746359	0.134505	0.000086
C19	C	1.137397	-0.397162	0.000103
C20	C	1.063087	-0.339659	0.000101
C21	C	1.073741	-0.232437	0.000121
C22	C	1.126744	-0.504395	0.000083
C23	C	1.268303	0.124951	0.000125
C24	C	1.370849	0.126995	0.000130
C25	C	1.107769	0.304898	0.000082
C26	C	1.118248	0.410142	0.000068
N27	N	1.100225	0.131574	0.243647
N28	N	1.100262	0.131591	-0.243433
C29	C	1.100248	0.131592	0.663461
C30	C	1.100239	0.131590	0.546656
C31	C	1.100237	0.131584	0.453557
C32	C	1.100227	0.131581	0.336745
H33	H	0.991467	-0.370956	0.000087
H34	H	1.209011	-0.365868	0.000123
