data_functionalizedCrystal
_audit_creation_method	'MofGen! by Chris Wilmer'
_symmetry_space_group_name_H-M	'P1'
_symmetry_Int_Tables_number	1
_symmetry_cell_setting	triclinic
loop_
_symmetry_equiv_pos_as_xyz
  x,y,z
_cell_length_a	12.759401
_cell_length_b	16.625545
_cell_length_c	12.759393
_cell_angle_alpha	90.032195
_cell_angle_beta	90.020459
_cell_angle_gamma	90.027083
loop_
_atom_site_label
_atom_site_type_symbol
_atom_site_fract_x
_atom_site_fract_y
_atom_site_fract_z
Zn1	Zn	1.606182	-0.320935	0.594003
Zn2	Zn	1.606041	-0.455788	0.418316
Zn3	Zn	1.430482	-0.320976	0.418338
Zn4	Zn	1.430439	-0.455733	0.593953
O5	O	1.518286	-0.388358	0.506153
O6	O	1.753184	-0.338829	0.570709
O7	O	1.582712	-0.437945	0.271298
O8	O	1.453866	-0.208138	0.441671
O9	O	1.753081	-0.437905	0.441633
O10	O	1.582952	-0.208108	0.570731
O11	O	1.453730	-0.338900	0.271314
O12	O	1.283456	-0.338846	0.441622
O13	O	1.453793	-0.437811	0.740981
O14	O	1.283424	-0.437851	0.570646
O15	O	1.582910	-0.338776	0.741018
O16	O	1.582671	-0.568613	0.441585
O17	O	1.453657	-0.568572	0.570624
C18	C	1.245319	-0.388348	0.506132
C19	C	1.128542	-0.388363	0.506148
C20	C	1.518172	-0.597849	0.506120
C21	C	1.518219	-0.687470	0.506141
C22	C	1.073691	-0.439994	0.573225
C23	C	0.963967	-0.439997	0.573245
C24	C	0.963955	-0.336737	0.439104
C25	C	1.073677	-0.336730	0.439089
C26	C	1.518260	-0.760252	0.506161
C27	C	1.518321	-0.851561	0.506185
C28	C	1.518376	-0.924337	0.506198
C29	C	1.518436	-1.015651	0.506219
C30	C	1.792320	-0.388368	0.506174
C31	C	1.909096	-0.388373	0.506183
C32	C	1.518363	-0.388283	0.780186
C33	C	1.518395	-0.388251	0.896963
C34	C	1.518430	-0.178049	0.506209
C35	C	1.518491	-0.088428	0.506233
C36	C	1.518271	-0.388374	0.233185
C37	C	1.518442	-0.388179	0.116409
C38	C	1.585584	-0.439764	1.061552
C39	C	1.585559	-0.439802	0.951828
C40	C	1.451246	-0.336664	0.951828
C41	C	1.451267	-0.336631	1.061550
H42	H	1.118360	-0.482035	0.627831
N43	N	0.907893	-0.284003	0.370615
N44	N	0.809928	-0.284015	0.370635
H45	H	0.770333	-0.246771	0.322263
H46	H	1.640233	-0.481807	0.907168
N47	N	1.129697	-0.283977	0.370568
N48	N	1.080700	-0.237884	0.310697
H49	H	1.120264	-0.200625	0.262309
N50	N	1.654214	-0.492416	1.117574
N51	N	1.714161	-0.538466	1.068575
H52	H	1.762636	-0.575653	1.108137
H53	H	0.919313	-0.482038	0.627868
N54	N	1.382682	-0.283944	1.117612
N55	N	1.315731	-0.312295	1.178824
H56	H	1.267295	-0.275089	1.218421
H57	H	1.396555	-0.294694	0.907148
