data_functionalizedCrystal
_audit_creation_method	'MofGen! by Chris Wilmer'
_symmetry_space_group_name_H-M	'P1'
_symmetry_Int_Tables_number	1
_symmetry_cell_setting	triclinic
loop_
_symmetry_equiv_pos_as_xyz
  x,y,z
_cell_length_a	19.188930
_cell_length_b	17.699083
_cell_length_c	16.176319
_cell_angle_alpha	90.002310
_cell_angle_beta	89.998695
_cell_angle_gamma	96.786101
loop_
_atom_site_label
_atom_site_type_symbol
_atom_site_fract_x
_atom_site_fract_y
_atom_site_fract_z
O1	O	0.088281	-1.003960	0.068640
O2	O	0.099769	-0.783567	0.068668
O3	O	-0.007624	-0.900123	0.068637
O4	O	0.195674	-0.887403	0.068671
O5	O	-0.007604	-0.900112	-0.068856
O6	O	0.099788	-0.783555	-0.068825
O7	O	0.088301	-1.003949	-0.068853
Cu8	Cu	0.094046	-0.893751	-0.081393
Cu9	Cu	0.094023	-0.893764	0.081208
O10	O	0.195693	-0.887392	-0.068822
C11	C	-0.033625	-0.899706	-0.000112
C12	C	-0.111131	-0.898469	-0.000119
C13	C	0.099367	-0.755365	-0.000075
C14	C	0.098132	-0.671348	-0.000065
C15	C	0.088703	-1.032151	-0.000108
C16	C	0.089938	-1.116167	-0.000113
C17	C	-0.155978	-0.966861	-0.000131
C18	C	-0.228804	-0.965699	-0.000118
C19	C	-0.256778	-0.896142	-0.000108
C20	C	-0.211921	-0.827741	-0.000091
C21	C	-0.139097	-0.828905	-0.000096
N22	N	-0.364836	-0.842970	-0.046893
N23	N	-0.434016	-0.841869	-0.046890
C24	C	-0.476191	-0.892632	-0.000091
N25	N	-0.446574	-0.944548	0.046694
N26	N	-0.377388	-0.945651	0.046687
C27	C	-0.335742	-0.894873	-0.000102
C28	C	-0.600004	-0.959769	-0.000088
C29	C	-0.672830	-0.958604	-0.000070
C30	C	-0.655946	-0.820644	-0.000051
C31	C	-0.583121	-0.821811	-0.000061
C32	C	-0.555155	-0.891375	-0.000084
C33	C	0.221695	-0.887810	-0.000071
C34	C	0.299201	-0.889046	-0.000059
N35	N	0.094062	-0.893747	-0.195758
C36	C	0.161169	-0.622644	-0.000055
C37	C	0.160004	-0.543702	-0.000065
C38	C	0.095802	-0.513466	-0.000081
C39	C	0.032761	-0.562176	-0.000093
C40	C	0.033926	-0.641117	-0.000088
C41	C	0.028060	-0.243819	-0.000115
C42	C	0.026900	-0.164873	-0.000117
C43	C	0.154139	-0.146405	-0.000092
C44	C	0.155304	-0.225345	-0.000087
C45	C	0.092263	-0.274049	-0.000104
C46	C	0.093526	-0.359646	-0.000094
C47	C	0.094538	-0.427870	-0.000085
C48	C	0.051714	-0.848012	-0.761150
C49	C	0.051720	-0.848011	-0.674603
C50	C	0.094017	-0.893768	-0.631334
C51	C	0.136307	-0.939535	-0.674617
C52	C	0.136297	-0.939540	-0.761162
C53	C	0.136346	-0.939516	-0.325588
C54	C	0.136354	-0.939506	-0.239037
C55	C	0.051769	-0.847987	-0.239029
C56	C	0.051759	-0.847992	-0.325574
C57	C	0.094045	-0.893762	-0.368850
C58	C	0.094038	-0.893764	-0.462694
C59	C	0.094029	-0.893762	-0.537491
N60	N	0.094002	-0.893774	0.195574
H61	H	-0.133213	-1.023506	-0.000147
O62	O	-0.029545	-0.532681	-0.000073
C63	C	-0.017058	-0.452563	-0.000094
H64	H	0.037455	-0.433841	0.025947
H65	H	-0.058139	-0.428459	0.039815
H66	H	-0.020394	-0.430602	-0.066058
H67	H	-0.017406	-0.680771	-0.000096
H68	H	0.017274	-0.810747	-0.796373
O69	O	0.221259	-0.496425	0.000095
C70	C	0.260239	-0.510106	0.071305
H71	H	0.223322	-0.537203	0.121069
H72	H	0.288331	-0.454002	0.095210
H73	H	0.300584	-0.550175	0.055221
O74	O	0.177541	-0.983917	-0.197096
C75	C	0.248436	-0.962706	-0.218241
H76	H	0.251464	-0.933351	-0.281082
H77	H	0.276965	-1.015603	-0.221201
H78	H	0.274207	-0.922015	-0.169540
H79	H	-0.265325	-1.021394	-0.000125
H80	H	-0.102582	-0.773210	-0.000086
O81	O	0.010681	-0.803604	-0.632436
C82	C	0.019778	-0.813386	-0.546770
H83	H	0.039588	-0.870655	-0.534945
H84	H	-0.032538	-0.811616	-0.513861
H85	H	0.059639	-0.765800	-0.522234
H86	H	-0.234702	-0.771107	-0.000081
O87	O	0.010606	-0.803525	-0.367478
C88	C	-0.026707	-0.763118	-0.310724
H89	H	-0.030812	-0.794454	-0.249028
H90	H	-0.081608	-0.758613	-0.335724
H91	H	0.002124	-0.703613	-0.301529
H92	H	-0.577233	-1.016412	-0.000103
H93	H	-0.709345	-1.014299	-0.000076
H94	H	-0.678722	-0.764009	-0.000039
O95	O	-0.539652	-0.755304	-0.000096
C96	C	-0.579956	-0.693660	-0.000064
H97	H	-0.634343	-0.713050	-0.026092
H98	H	-0.553013	-0.645751	-0.039979
H99	H	-0.585102	-0.672331	0.065901
H100	H	0.170779	-0.976784	-0.360813
H101	H	0.213450	-0.647256	-0.000042
H102	H	0.207584	-0.249959	-0.000070
O103	O	0.215315	-0.098986	-0.000120
C104	C	0.200525	-0.022826	-0.000110
H105	H	0.145695	-0.019981	-0.026155
H106	H	0.240724	0.013069	-0.040020
H107	H	0.203198	0.000019	0.065852
O108	O	0.010785	-0.803485	-0.196900
C109	C	0.053426	-0.751685	-0.146861
H110	H	0.105204	-0.775067	-0.133899
H111	H	0.025372	-0.743341	-0.086000
H112	H	0.064183	-0.694763	-0.180220
H113	H	-0.025384	-0.140258	-0.000131
O114	O	0.177475	-0.983870	-0.632550
C115	C	0.225165	-0.937560	-0.582484
H116	H	0.232730	-0.877314	-0.608569
H117	H	0.277732	-0.961569	-0.581510
H118	H	0.203599	-0.936349	-0.516889
O119	O	-0.033240	-0.291015	-0.000091
C120	C	-0.090153	-0.247397	-0.000124
H121	H	-0.072333	-0.188418	0.025911
H122	H	-0.134321	-0.276661	0.039784
H123	H	-0.109827	-0.241840	-0.066091
O124	O	0.177441	-0.984013	-0.803076
C125	C	0.214763	-1.024413	-0.746330
H126	H	0.218885	-0.993064	-0.684639
H127	H	0.269658	-1.028928	-0.771347
H128	H	0.185929	-1.083914	-0.737117
