data_functionalizedCrystal
_audit_creation_method	'MofGen! by Chris Wilmer'
_symmetry_space_group_name_H-M	'P1'
_symmetry_Int_Tables_number	1
_symmetry_cell_setting	triclinic
loop_
_symmetry_equiv_pos_as_xyz
  x,y,z
_cell_length_a	19.288840
_cell_length_b	19.188930
_cell_length_c	18.366186
_cell_angle_alpha	90.011368
_cell_angle_beta	90.016271
_cell_angle_gamma	83.135398
loop_
_atom_site_label
_atom_site_type_symbol
_atom_site_fract_x
_atom_site_fract_y
_atom_site_fract_z
O1	O	0.921370	0.087016	0.060679
O2	O	1.171370	0.337016	0.310679
O3	O	1.421370	0.587016	0.560679
O4	O	1.671370	0.837016	0.810679
O5	O	0.719108	0.098784	0.060655
O6	O	0.969108	0.348784	0.310655
O7	O	1.219108	0.598784	0.560655
O8	O	1.469108	0.848784	0.810655
O9	O	0.826076	-0.008757	0.060654
O10	O	1.076076	0.241243	0.310654
O11	O	1.326076	0.491243	0.560654
O12	O	1.576076	0.741243	0.810654
O13	O	0.814402	0.194556	0.060681
O14	O	1.064402	0.444556	0.310681
O15	O	1.314402	0.694556	0.560681
O16	O	1.564402	0.944556	0.810681
O17	O	0.826058	-0.008762	-0.060446
O18	O	1.076058	0.241238	0.189554
O19	O	1.326058	0.491238	0.439554
O20	O	1.576058	0.741238	0.689554
O21	O	0.719090	0.098778	-0.060444
O22	O	0.969090	0.348778	0.189556
O23	O	1.219090	0.598778	0.439556
O24	O	1.469090	0.848778	0.689556
O25	O	0.921352	0.087011	-0.060420
O26	O	1.171352	0.337011	0.189580
O27	O	1.421352	0.587011	0.439580
O28	O	1.671352	0.837011	0.689580
Zn29	Zn	0.820218	0.092894	-0.079659
Zn30	Zn	1.070218	0.342894	0.170341
Zn31	Zn	1.320218	0.592894	0.420341
Zn32	Zn	1.570218	0.842894	0.670341
Zn33	Zn	0.820242	0.092901	0.079894
Zn34	Zn	1.070242	0.342901	0.329894
Zn35	Zn	1.320242	0.592901	0.579894
Zn36	Zn	1.570242	0.842901	0.829894
O37	O	0.814384	0.194551	-0.060419
O38	O	1.064384	0.444551	0.189581
O39	O	1.314384	0.694551	0.439581
O40	O	1.564384	0.944551	0.689581
C41	C	0.693222	0.098405	0.000102
C42	C	0.943222	0.348405	0.250102
C43	C	1.193222	0.598405	0.500102
C44	C	1.443222	0.848405	0.750102
C45	C	0.616118	0.097277	0.000092
C46	C	0.866118	0.347277	0.250092
C47	C	1.116118	0.597277	0.500092
C48	C	1.366118	0.847277	0.750092
C49	C	0.579924	0.096738	0.066105
C50	C	0.829924	0.346738	0.316105
C51	C	1.079924	0.596738	0.566105
C52	C	1.329924	0.846738	0.816105
C53	C	0.507477	0.095671	0.066114
C54	C	0.757477	0.345671	0.316114
C55	C	1.007477	0.595671	0.566114
C56	C	1.257477	0.845671	0.816114
C57	C	0.471228	0.095128	0.000106
C58	C	0.721228	0.345128	0.250106
C59	C	0.971228	0.595128	0.500106
C60	C	1.221228	0.845128	0.750106
C61	C	0.507430	0.095671	-0.065916
C62	C	0.757430	0.345671	0.184084
C63	C	1.007430	0.595671	0.434084
C64	C	1.257430	0.845671	0.684084
C65	C	0.579875	0.096746	-0.065922
C66	C	0.829875	0.346746	0.184078
C67	C	1.079875	0.596746	0.434078
C68	C	1.329875	0.846746	0.684078
C69	C	0.361890	0.052528	-0.050461
C70	C	0.611890	0.302528	0.199539
C71	C	0.861890	0.552528	0.449539
C72	C	1.111890	0.802528	0.699539
C73	C	0.289447	0.051449	-0.050451
C74	C	0.539447	0.301449	0.199549
C75	C	0.789447	0.551449	0.449549
C76	C	1.039447	0.801449	0.699549
C77	C	0.247784	0.091817	0.000125
C78	C	0.497784	0.341817	0.250125
C79	C	0.747784	0.591817	0.500125
C80	C	0.997784	0.841817	0.750125
C81	C	0.278575	0.133255	0.050703
C82	C	0.528575	0.383255	0.300703
C83	C	0.778575	0.633255	0.550703
C84	C	1.028575	0.883255	0.800703
C85	C	0.351019	0.134330	0.050696
C86	C	0.601019	0.384330	0.300696
C87	C	0.851019	0.634330	0.550696
C88	C	1.101019	0.884330	0.800696
C89	C	0.392674	0.093963	0.000106
C90	C	0.642674	0.343963	0.250106
C91	C	0.892674	0.593963	0.500106
C92	C	1.142674	0.843963	0.750106
C93	C	0.133035	0.090121	0.066152
C94	C	0.383035	0.340121	0.316152
C95	C	0.633035	0.590121	0.566152
C96	C	0.883035	0.840121	0.816152
C97	C	0.060586	0.089058	0.066158
C98	C	0.310586	0.339058	0.316158
C99	C	0.560586	0.589058	0.566158
C100	C	0.810586	0.839058	0.816158
C101	C	0.060542	0.089052	-0.065874
C102	C	0.310542	0.339052	0.184126
C103	C	0.560542	0.589052	0.434126
C104	C	0.810542	0.839052	0.684126
C105	C	0.132989	0.090122	-0.065878
C106	C	0.382989	0.340122	0.184122
C107	C	0.632989	0.590122	0.434122
C108	C	0.882989	0.840122	0.684122
C109	C	0.169231	0.090653	0.000137
C110	C	0.419231	0.340653	0.250137
C111	C	0.669231	0.590653	0.500137
C112	C	0.919231	0.840653	0.750137
C113	C	0.825689	-0.034770	0.000102
C114	C	1.075689	0.215230	0.250102
C115	C	1.325689	0.465230	0.500102
C116	C	1.575689	0.715230	0.750102
C117	C	0.824554	-0.112275	0.000096
C118	C	1.074554	0.137725	0.250096
C119	C	1.324554	0.387725	0.500096
C120	C	1.574554	0.637725	0.750096
C121	C	0.887319	-0.157209	0.000100
C122	C	1.137319	0.092791	0.250100
C123	C	1.387319	0.342791	0.500100
C124	C	1.637319	0.592791	0.750100
C125	C	0.886253	-0.230033	0.000111
C126	C	1.136253	0.019967	0.250111
C127	C	1.386253	0.269967	0.500111
C128	C	1.636253	0.519967	0.750111
C129	C	0.822418	-0.257919	0.000104
C130	C	1.072418	-0.007919	0.250104
C131	C	1.322418	0.242081	0.500104
C132	C	1.572418	0.492081	0.750104
C133	C	0.759645	-0.212975	0.000104
C134	C	1.009645	0.037025	0.250104
C135	C	1.259645	0.287025	0.500104
C136	C	1.509645	0.537025	0.750104
C137	C	0.760713	-0.140153	0.000100
C138	C	1.010713	0.109847	0.250100
C139	C	1.260713	0.359847	0.500100
C140	C	1.510713	0.609847	0.750100
N141	N	0.773618	-0.365917	-0.041114
N142	N	1.023618	-0.115917	0.208886
N143	N	1.273618	0.134083	0.458886
N144	N	1.523618	0.384083	0.708886
N145	N	0.772608	-0.435096	-0.041112
N146	N	1.022608	-0.185096	0.208888
N147	N	1.272608	0.064904	0.458888
N148	N	1.522608	0.314904	0.708888
C149	C	0.819197	-0.477327	0.000118
C150	C	1.069197	-0.227327	0.250118
C151	C	1.319197	0.022673	0.500118
C152	C	1.569197	0.272673	0.750118
N153	N	0.866845	-0.447767	0.041337
N154	N	1.116845	-0.197767	0.291337
N155	N	1.366845	0.052233	0.541337
N156	N	1.616845	0.302233	0.791337
N157	N	0.867857	-0.378583	0.041331
N158	N	1.117857	-0.128583	0.291331
N159	N	1.367857	0.121417	0.541331
N160	N	1.617857	0.371417	0.791331
C161	C	0.821253	-0.336881	0.000109
C162	C	1.071253	-0.086881	0.250109
C163	C	1.321253	0.163119	0.500109
C164	C	1.571253	0.413119	0.750109
C165	C	0.880811	-0.601225	0.000136
C166	C	1.130811	-0.351225	0.250136
C167	C	1.380811	-0.101225	0.500136
C168	C	1.630811	0.148775	0.750136
C169	C	0.879742	-0.674050	0.000152
C170	C	1.129742	-0.424050	0.250152
C171	C	1.379742	-0.174050	0.500152
C172	C	1.629742	0.075950	0.750152
C173	C	0.753131	-0.656990	0.000138
C174	C	1.003131	-0.406990	0.250138
C175	C	1.253131	-0.156990	0.500138
C176	C	1.503131	0.093010	0.750138
C177	C	0.754202	-0.584167	0.000129
C178	C	1.004202	-0.334167	0.250129
C179	C	1.254202	-0.084167	0.500129
C180	C	1.504202	0.165833	0.750129
C181	C	0.818043	-0.556289	0.000125
C182	C	1.068043	-0.306289	0.250125
C183	C	1.318043	-0.056289	0.500125
C184	C	1.568043	0.193711	0.750125
C185	C	0.947238	0.087389	0.000135
C186	C	1.197238	0.337389	0.250135
C187	C	1.447238	0.587389	0.500135
C188	C	1.697238	0.837389	0.750135
C189	C	1.024343	0.088517	0.000149
C190	C	1.274343	0.338517	0.250149
C191	C	1.524343	0.588517	0.500149
C192	C	1.774343	0.838517	0.750149
C193	C	0.814771	0.220565	0.000135
C194	C	1.064771	0.470565	0.250135
C195	C	1.314771	0.720565	0.500135
C196	C	1.564771	0.970565	0.750135
C197	C	0.815906	0.298069	0.000146
C198	C	1.065906	0.548069	0.250146
C199	C	1.315906	0.798069	0.500146
C200	C	1.565906	1.048069	0.750146
N201	N	0.820207	0.092888	-0.188550
N202	N	1.070207	0.342888	0.061450
N203	N	1.320207	0.592888	0.311450
N204	N	1.570207	0.842888	0.561450
C205	C	0.867588	0.045293	-0.226651
C206	C	1.117588	0.295293	0.023349
C207	C	1.367588	0.545293	0.273349
C208	C	1.617588	0.795293	0.523349
C209	C	0.867592	0.045290	-0.302879
C210	C	1.117592	0.295290	-0.052879
C211	C	1.367592	0.545290	0.197121
C212	C	1.617592	0.795290	0.447121
C213	C	0.820222	0.092894	-0.341003
C214	C	1.070222	0.342894	-0.091003
C215	C	1.320222	0.592894	0.158997
C216	C	1.570222	0.842894	0.408997
C217	C	0.772833	0.140494	-0.302893
C218	C	1.022833	0.390494	-0.052893
C219	C	1.272833	0.640494	0.197107
C220	C	1.522833	0.890494	0.447107
C221	C	0.772825	0.140491	-0.226666
C222	C	1.022825	0.390491	0.023334
C223	C	1.272825	0.640491	0.273334
C224	C	1.522825	0.890491	0.523334
C225	C	0.810929	0.156512	-0.461756
C226	C	1.060929	0.406512	-0.211756
C227	C	1.310929	0.656512	0.038244
C228	C	1.560929	0.906512	0.288244
C229	C	0.810941	0.156516	-0.537981
C230	C	1.060941	0.406516	-0.287981
C231	C	1.310941	0.656516	-0.037981
C232	C	1.560941	0.906516	0.212019
C233	C	0.820242	0.092903	-0.576111
C234	C	1.070242	0.342903	-0.326111
C235	C	1.320242	0.592903	-0.076111
C236	C	1.570242	0.842903	0.173889
C237	C	0.829545	0.029284	-0.538006
C238	C	1.079545	0.279284	-0.288006
C239	C	1.329545	0.529284	-0.038006
C240	C	1.579545	0.779284	0.211994
C241	C	0.829537	0.029281	-0.461780
C242	C	1.079537	0.279281	-0.211780
C243	C	1.329537	0.529281	0.038220
C244	C	1.579537	0.779281	0.288220
C245	C	0.820225	0.092902	-0.423658
C246	C	1.070225	0.342902	-0.173658
C247	C	1.320225	0.592902	0.076342
C248	C	1.570225	0.842902	0.326342
C249	C	0.867630	0.045300	-0.696867
C250	C	1.117630	0.295300	-0.446867
C251	C	1.367630	0.545300	-0.196867
C252	C	1.617630	0.795300	0.053133
C253	C	0.867630	0.045296	-0.773096
C254	C	1.117630	0.295296	-0.523096
C255	C	1.367630	0.545296	-0.273096
C256	C	1.617630	0.795296	-0.023096
C257	C	0.772874	0.140506	-0.773108
C258	C	1.022874	0.390506	-0.523108
C259	C	1.272874	0.640506	-0.273108
C260	C	1.522874	0.890506	-0.023108
C261	C	0.772871	0.140504	-0.696880
C262	C	1.022871	0.390504	-0.446880
C263	C	1.272871	0.640504	-0.196880
C264	C	1.522871	0.890504	0.053120
C265	C	0.820253	0.092902	-0.658764
C266	C	1.070253	0.342902	-0.408764
C267	C	1.320253	0.592902	-0.158764
C268	C	1.570253	0.842902	0.091236
N269	N	0.820259	0.092900	0.188786
N270	N	1.070259	0.342900	0.438786
N271	N	1.320259	0.592900	0.688786
N272	N	1.570259	0.842900	0.938786
H273	H	0.244654	0.166129	0.091885
H274	H	0.494654	0.416129	0.341885
H275	H	0.744654	0.666129	0.591885
H276	H	0.994654	0.916129	0.841885
H277	H	0.930855	-0.710636	0.000159
H278	H	1.180855	-0.460636	0.250159
H279	H	1.430855	-0.210636	0.500159
H280	H	1.680855	0.039364	0.750159
H281	H	0.939304	-0.134516	0.000099
H282	H	1.189304	0.115484	0.250099
H283	H	1.439304	0.365484	0.500099
H284	H	1.689304	0.615484	0.750099
H285	H	0.837118	-0.022516	-0.569050
H286	H	1.087118	0.227484	-0.319050
H287	H	1.337118	0.477484	-0.069050
H288	H	1.587118	0.727484	0.180950
H289	H	0.906210	0.006537	-0.665831
H290	H	1.156210	0.256537	-0.415831
H291	H	1.406210	0.506537	-0.165831
H292	H	1.656210	0.756537	0.084169
H293	H	0.701156	-0.679694	0.000135
H294	H	0.951156	-0.429694	0.250135
H295	H	1.201156	-0.179694	0.500135
H296	H	1.451156	0.070306	0.750135
H297	H	0.162458	0.090556	-0.119633
H298	H	0.412458	0.340556	0.130367
H299	H	0.662458	0.590556	0.380367
H300	H	0.912458	0.840556	0.630367
H301	H	0.703092	-0.547580	0.000122
H302	H	0.953092	-0.297580	0.250122
H303	H	1.203092	-0.047580	0.500122
H304	H	1.453092	0.202420	0.750122
H305	H	0.937366	-0.266625	0.000117
H306	H	1.187366	-0.016625	0.250117
H307	H	1.437366	0.233375	0.500117
H308	H	1.687366	0.483375	0.750117
H309	H	0.906177	0.006530	-0.333907
H310	H	1.156177	0.256530	-0.083907
H311	H	1.406177	0.506530	0.166093
H312	H	1.656177	0.756530	0.416093
H313	H	0.478002	0.095233	0.119872
H314	H	0.728002	0.345233	0.369872
H315	H	0.978002	0.595233	0.619872
H316	H	1.228002	0.845233	0.869872
H317	H	0.734241	0.179249	-0.195644
H318	H	0.984241	0.429249	0.054356
H319	H	1.234241	0.679249	0.304356
H320	H	1.484241	0.929249	0.554356
H321	H	0.707670	-0.235684	0.000100
H322	H	0.957670	0.014316	0.250100
H323	H	1.207670	0.264316	0.500100
H324	H	1.457670	0.514316	0.750100
H325	H	0.906167	0.006531	-0.195619
H326	H	1.156167	0.256531	0.054381
H327	H	1.406167	0.506531	0.304381
H328	H	1.656167	0.756531	0.554381
H329	H	0.837110	-0.022520	-0.430758
H330	H	1.087110	0.227480	-0.180758
H331	H	1.337110	0.477480	0.069242
H332	H	1.587110	0.727480	0.319242
H333	H	0.162545	0.090562	0.119905
H334	H	0.412545	0.340562	0.369905
H335	H	0.662545	0.590562	0.619905
H336	H	0.912545	0.840562	0.869905
H337	H	0.031118	0.088624	0.119916
H338	H	0.281118	0.338624	0.369916
H339	H	0.531118	0.588624	0.619916
H340	H	0.781118	0.838624	0.869916
H341	H	0.709600	-0.103566	0.000096
H342	H	0.959600	0.146434	0.250096
H343	H	1.209600	0.396434	0.500096
H344	H	1.459600	0.646434	0.750096
H345	H	0.734302	0.179264	-0.804148
H346	H	0.984302	0.429264	-0.554148
H347	H	1.234302	0.679264	-0.304148
H348	H	1.484302	0.929264	-0.054148
H349	H	0.906211	0.006534	-0.804118
H350	H	1.156211	0.256534	-0.554118
H351	H	1.406211	0.506534	-0.304118
H352	H	1.656211	0.756534	-0.054118
H353	H	0.734292	0.179263	-0.665856
H354	H	0.984292	0.429263	-0.415856
H355	H	1.234292	0.679263	-0.165856
H356	H	1.484292	0.929263	0.084144
H357	H	0.477912	0.095231	-0.119660
H358	H	0.727912	0.345231	0.130340
H359	H	0.977912	0.595231	0.380340
H360	H	1.227912	0.845231	0.630340
H361	H	0.031029	0.088614	-0.119619
H362	H	0.281029	0.338614	0.130381
H363	H	0.531029	0.588614	0.380381
H364	H	0.781029	0.838614	0.630381
H365	H	0.609343	0.097185	-0.119680
H366	H	0.859343	0.347185	0.130320
H367	H	1.109343	0.597185	0.380320
H368	H	1.359343	0.847185	0.630320
H369	H	0.264384	0.017704	-0.091632
H370	H	0.514384	0.267704	0.158368
H371	H	0.764384	0.517704	0.408368
H372	H	1.014384	0.767704	0.658368
H373	H	0.932794	-0.578526	0.000136
H374	H	1.182794	-0.328526	0.250136
H375	H	1.432794	-0.078526	0.500136
H376	H	1.682794	0.171474	0.750136
H377	H	0.395807	0.019654	-0.091649
H378	H	0.645807	0.269654	0.158351
H379	H	0.895807	0.519654	0.408351
H380	H	1.145807	0.769654	0.658351
H381	H	0.803371	0.208318	-0.568999
H382	H	1.053371	0.458318	-0.318999
H383	H	1.303371	0.708318	-0.068999
H384	H	1.553371	0.958318	0.181001
H385	H	0.734262	0.179253	-0.333937
H386	H	0.984262	0.429253	-0.083937
H387	H	1.234262	0.679253	0.166063
H388	H	1.484262	0.929253	0.416063
H389	H	0.609428	0.097171	0.119860
H390	H	0.859428	0.347171	0.369860
H391	H	1.109428	0.597171	0.619860
H392	H	1.359428	0.847171	0.869860
H393	H	0.376085	0.168071	0.091877
H394	H	0.626085	0.418071	0.341877
H395	H	0.876085	0.668071	0.591877
H396	H	1.126085	0.918071	0.841877
H397	H	0.803343	0.208317	-0.430716
H398	H	1.053343	0.458317	-0.180716
H399	H	1.303343	0.708317	0.069284
H400	H	1.553343	0.958317	0.319284
