data_functionalizedCrystal
_audit_creation_method	'MofGen! by Chris Wilmer'
_symmetry_space_group_name_H-M	'P1'
_symmetry_Int_Tables_number	1
_symmetry_cell_setting	triclinic
loop_
_symmetry_equiv_pos_as_xyz
  x,y,z
_cell_length_a	14.908571
_cell_length_b	12.759394
_cell_length_c	14.908308
_cell_angle_alpha	86.729849
_cell_angle_beta	89.824947
_cell_angle_gamma	86.710219
loop_
_atom_site_label
_atom_site_type_symbol
_atom_site_fract_x
_atom_site_fract_y
_atom_site_fract_z
Zn1	Zn	1.345348	-0.548283	0.587607
Zn2	Zn	1.353944	-0.714463	0.437254
Zn3	Zn	1.203661	-0.528103	0.428603
Zn4	Zn	1.194972	-0.713215	0.578906
O5	O	1.274481	-0.626016	0.508093
O6	O	1.472315	-0.579295	0.574924
O7	O	1.341243	-0.681819	0.310282
O8	O	1.222495	-0.383763	0.449716
O9	O	1.478631	-0.701387	0.464460
O10	O	1.326592	-0.398589	0.566535
O11	O	1.230831	-0.544901	0.303926
O12	O	1.076682	-0.543691	0.441280
O13	O	1.207686	-0.699260	0.705885
O14	O	1.070298	-0.679692	0.551706
O15	O	1.318166	-0.578085	0.712277
O16	O	1.332817	-0.861315	0.456024
O17	O	1.216021	-0.860398	0.560095
C18	C	1.040864	-0.609367	0.494611
C19	C	0.940921	-0.602271	0.488864
C20	C	0.746525	-0.730754	0.592899
C21	C	0.652619	-0.724090	0.587503
C22	C	0.659200	-0.582275	0.472682
C23	C	0.753106	-0.588939	0.478078
C24	C	0.796766	-0.663182	0.538187
C25	C	0.890674	-0.669850	0.543578
C26	C	0.897253	-0.528031	0.428762
C27	C	0.803346	-0.521367	0.423366
C28	C	1.274432	-0.898979	0.508075
C29	C	1.274492	-1.015762	0.508102
C30	C	1.382797	-1.031041	0.629827
C31	C	1.436977	-1.093544	0.690698
C32	C	1.437029	-1.203271	0.690720
C33	C	1.382893	-1.250496	0.629867
C34	C	1.328713	-1.187993	0.568996
C35	C	1.328669	-1.078265	0.568979
C36	C	1.220405	-1.172714	0.447277
C37	C	1.220356	-1.062987	0.447249
C38	C	1.166269	-1.219939	0.386424
C39	C	1.112092	-1.157436	0.325548
C40	C	1.112043	-1.047703	0.325527
C41	C	1.166176	-1.000484	0.386378
C42	C	1.509011	-0.642731	0.521628
C43	C	1.608953	-0.649854	0.527395
C44	C	1.260998	-0.640784	0.742618
C45	C	1.255252	-0.647077	0.842559
C46	C	1.274554	-0.351990	0.508131
C47	C	1.274585	-0.235217	0.508148
C48	C	1.287964	-0.611234	0.274482
C49	C	1.293885	-0.604657	0.174552
C50	C	1.359495	-0.532698	1.037017
C51	C	1.354099	-0.538608	1.130921
C52	C	1.239060	-0.664799	1.124272
C53	C	1.244456	-0.658890	1.030368
C54	C	1.304677	-0.592838	0.986744
C55	C	1.310077	-0.586935	0.892839
C56	C	1.195033	-0.713120	0.886192
C57	C	1.189637	-0.719030	0.980095
H58	H	0.767786	-0.460919	0.374429
H59	H	1.382768	-0.941697	0.629807
H60	H	1.408534	-0.478922	1.001498
H61	H	1.068015	-1.195896	0.276010
H62	H	0.938168	-0.473011	0.384209
H63	H	1.481052	-1.055084	0.740246
H64	H	1.398736	-0.489633	1.171849
H65	H	1.190031	-0.718575	1.159807
H66	H	0.623636	-0.521825	0.423749
H67	H	1.481137	-1.254161	0.740295
H68	H	1.382933	-1.339842	0.629898
H69	H	0.926220	-0.730304	0.592521
H70	H	1.150398	-0.762094	0.845250
H71	H	1.140605	-0.772805	1.015627
H72	H	0.611717	-0.779112	0.632057
H73	H	1.067919	-0.996818	0.275962
H74	H	0.782074	-0.791210	0.641838
H75	H	1.166145	-0.911140	0.386364
H76	H	1.166312	-1.309285	0.386450
H77	H	1.359113	-0.533154	0.857322
