data_functionalizedCrystal
_audit_creation_method	'MofGen! by Chris Wilmer'
_symmetry_space_group_name_H-M	'P1'
_symmetry_Int_Tables_number	1
_symmetry_cell_setting	triclinic
loop_
_symmetry_equiv_pos_as_xyz
  x,y,z
_cell_length_a	21.295419
_cell_length_b	21.295417
_cell_length_c	17.639306
_cell_angle_alpha	101.182150
_cell_angle_beta	78.772373
_cell_angle_gamma	90.045308
loop_
_atom_site_label
_atom_site_type_symbol
_atom_site_fract_x
_atom_site_fract_y
_atom_site_fract_z
Zn1	Zn	1.034217	-0.322293	-0.446872
Zn2	Zn	1.534217	0.177707	0.053128
Zn3	Zn	1.012864	-0.406289	-0.314692
Zn4	Zn	1.512864	0.093711	0.185308
Zn5	Zn	0.907689	-0.301069	-0.314717
Zn6	Zn	1.407689	0.198931	0.185283
Zn7	Zn	0.928901	-0.427547	-0.446818
Zn8	Zn	1.428901	0.072453	0.053182
O9	O	0.970918	-0.364299	-0.380775
O10	O	1.470918	0.135701	0.119225
O11	O	1.119476	-0.333421	-0.429350
O12	O	1.619476	0.166579	0.070650
O13	O	0.981098	-0.374553	-0.204093
O14	O	1.481098	0.125447	0.295907
O15	O	0.924532	-0.215800	-0.332280
O16	O	1.424532	0.284200	0.167720
O17	O	1.103788	-0.395133	-0.332238
O18	O	1.603788	0.104867	0.167762
O19	O	1.017492	-0.231393	-0.429374
O20	O	1.517492	0.268607	0.070626
O21	O	0.903826	-0.297248	-0.204111
O22	O	1.403826	0.202752	0.295889
O23	O	0.822411	-0.317860	-0.332228
O24	O	1.322411	0.182140	0.167772
O25	O	0.960686	-0.431363	-0.557428
O26	O	1.460686	0.068637	-0.057428
O27	O	0.837996	-0.410783	-0.429282
O28	O	1.337996	0.089217	0.070718
O29	O	1.038061	-0.354034	-0.557467
O30	O	1.538061	0.145966	-0.057467
O31	O	1.001667	-0.497193	-0.332186
O32	O	1.501667	0.002807	0.167814
O33	O	0.939980	-0.512811	-0.429258
O34	O	1.439980	-0.012811	0.070742
C35	C	0.807363	-0.364326	-0.380753
C36	C	1.307363	0.135674	0.119247
C37	C	0.737396	-0.364356	-0.380762
C38	C	1.237396	0.135644	0.119238
C39	C	0.712733	-0.332301	-0.431406
C40	C	1.212733	0.167699	0.068594
C41	C	0.646991	-0.332284	-0.431409
C42	C	1.146991	0.167716	0.068591
C43	C	0.605916	-0.364335	-0.380776
C44	C	1.105916	0.135665	0.119224
C45	C	0.630585	-0.396391	-0.330122
C46	C	1.130585	0.103609	0.169878
C47	C	0.696325	-0.396402	-0.330115
C48	C	1.196325	0.103598	0.169885
N49	N	0.501647	-0.418419	-0.374599
N50	N	1.001647	0.081581	0.125401
N51	N	0.439197	-0.418409	-0.374611
N52	N	0.939197	0.081591	0.125389
C53	C	0.407844	-0.364306	-0.380794
C54	C	0.907844	0.135694	0.119206
N55	N	0.441302	-0.310215	-0.386980
N56	N	0.941302	0.189785	0.113020
N57	N	0.503758	-0.310227	-0.386973
N58	N	1.003758	0.189773	0.113027
C59	C	0.534631	-0.364328	-0.380778
C60	C	1.034631	0.135672	0.119222
C61	C	0.311897	-0.332230	-0.431444
C62	C	0.811897	0.167770	0.068556
C63	C	0.246152	-0.332211	-0.431442
C64	C	0.746152	0.167789	0.068558
C65	C	0.229748	-0.396325	-0.330159
C66	C	0.729748	0.103675	0.169841
C67	C	0.295490	-0.396337	-0.330157
C68	C	0.795490	0.103663	0.169843
C69	C	0.336561	-0.364291	-0.380804
C70	C	0.836561	0.135709	0.119196
C71	C	0.970828	-0.527844	-0.380731
C72	C	1.470828	-0.027844	0.119269
C73	C	0.970852	-0.597813	-0.380739
C74	C	1.470852	-0.097813	0.119261
C75	C	1.003016	-0.622535	-0.330245
C76	C	1.503016	-0.122535	0.169755
C77	C	1.003049	-0.688281	-0.330263
C78	C	1.503049	-0.188281	0.169737
C79	C	0.970904	-0.729300	-0.380766
C80	C	1.470904	-0.229300	0.119234
C81	C	0.938738	-0.704572	-0.431270
C82	C	1.438738	-0.204572	0.068730
C83	C	0.938712	-0.638828	-0.431256
C84	C	1.438712	-0.138828	0.068744
N85	N	0.916805	-0.833549	-0.386784
N86	N	1.416805	-0.333549	0.113216
N87	N	0.916830	-0.896001	-0.386792
N88	N	1.416830	-0.396001	0.113208
C89	C	0.970982	-0.927382	-0.380811
C90	C	1.470982	-0.427382	0.119189
N91	N	1.025105	-0.893948	-0.374806
N92	N	1.525105	-0.393948	0.125194
N93	N	1.025078	-0.831489	-0.374794
N94	N	1.525078	-0.331489	0.125206
C95	C	0.970929	-0.800589	-0.380787
C96	C	1.470929	-0.300589	0.119213
C97	C	1.003184	-1.023392	-0.330334
C98	C	1.503184	-0.523392	0.169666
C99	C	1.003218	-1.089140	-0.330357
C100	C	1.503218	-0.589140	0.169643
C101	C	0.938902	-1.105429	-0.431360
C102	C	1.438902	-0.605429	0.068640
C103	C	0.938874	-1.039684	-0.431341
C104	C	1.438874	-0.539684	0.068659
C105	C	0.971013	-0.998668	-0.380824
C106	C	1.471013	-0.498668	0.119176
C107	C	1.135112	-0.364273	-0.380797
C108	C	1.635112	0.135727	0.119203
C109	C	1.205081	-0.364262	-0.380807
C110	C	1.705081	0.135738	0.119193
C111	C	1.004121	-0.397437	-0.586927
C112	C	1.504121	0.102563	-0.086927
C113	C	1.018271	-0.411558	-0.674777
C114	C	1.518271	0.088442	-0.174777
C115	C	0.971028	-0.200119	-0.380836
C116	C	1.471028	0.299881	0.119164
C117	C	0.971074	-0.130155	-0.380862
C118	C	1.471074	0.369845	0.119138
C119	C	0.863670	-0.256787	-0.963776
C120	C	1.363670	0.243213	-0.463776
C121	C	0.876980	-0.270069	-1.046324
C122	C	1.376980	0.229931	-0.546324
C123	C	0.957435	-0.350558	-1.046286
C124	C	1.457435	0.149442	-0.546286
C125	C	0.944134	-0.337280	-0.963736
C126	C	1.444134	0.162720	-0.463736
C127	C	0.897251	-0.290395	-0.922487
C128	C	1.397251	0.209605	-0.422487
C129	C	0.977714	-0.370888	-0.922447
C130	C	1.477714	0.129112	-0.422447
C131	C	0.964412	-0.357614	-0.839904
C132	C	1.464412	0.142386	-0.339904
C133	C	0.917529	-0.310731	-0.798650
C134	C	1.417529	0.189269	-0.298650
C135	C	0.883948	-0.277120	-0.839944
C136	C	1.383948	0.222880	-0.339944
C137	C	1.024594	-0.417777	-0.963697
C138	C	1.524594	0.082223	-0.463697
C139	C	1.058175	-0.451385	-0.922408
C140	C	1.558175	0.048615	-0.422408
C141	C	1.044876	-0.438107	-0.839863
C142	C	1.544876	0.061893	-0.339863
C143	C	0.997993	-0.391225	-0.798609
C144	C	1.497993	0.108775	-0.298609
C145	C	1.078457	-0.471719	-0.798569
C146	C	1.578457	0.028281	-0.298569
C147	C	1.065154	-0.458444	-0.716026
C148	C	1.565154	0.041556	-0.216026
C149	C	0.984691	-0.377950	-0.716066
C150	C	1.484691	0.122050	-0.216066
C151	C	0.937879	-0.331245	-0.175424
C152	C	1.437879	0.168755	0.324576
C153	C	0.923852	-0.316947	-0.087575
C154	C	1.423852	0.183053	0.412425
H155	H	0.716404	-0.422505	-0.288873
H156	H	1.216404	0.077495	0.211127
H157	H	1.035425	-0.428582	-1.030908
H158	H	1.535425	0.071418	-0.530908
O159	O	1.037872	-0.979156	-0.275874
O160	O	1.537872	-0.479156	0.224126
H161	H	1.032449	-0.929286	-0.284346
H162	H	1.532449	-0.429286	0.215654
H163	H	0.912679	-1.019553	-0.472454
H164	H	1.412679	-0.519553	0.027546
O165	O	0.813105	-0.206215	-0.919275
O166	O	1.313105	0.293785	-0.419275
H167	H	0.791985	-0.185074	-0.961852
H168	H	1.291985	0.314926	-0.461852
O169	O	1.037753	-0.714944	-0.275801
O170	O	1.537753	-0.214944	0.224199
H171	H	1.075479	-0.750530	-0.311225
H172	H	1.575479	-0.250530	0.188775
H173	H	1.116624	-0.509898	-0.832165
H174	H	1.616624	-0.009898	-0.332165
H175	H	0.345338	-0.306131	-0.472679
H176	H	0.845338	0.193869	0.027321
O177	O	0.903184	-0.296410	-0.709620
O178	O	1.403184	0.203590	-0.209620
H179	H	0.864941	-0.258164	-0.687876
H180	H	1.364941	0.241836	-0.187876
O181	O	1.101375	-0.494685	-0.671483
O182	O	1.601375	0.005315	-0.171483
H183	H	1.136216	-0.529511	-0.714033
H184	H	1.636216	-0.029511	-0.214033
O185	O	1.037910	-1.115809	-0.275892
O186	O	1.537910	-0.615809	0.224108
H187	H	1.060247	-1.076240	-0.240759
H188	H	1.560247	-0.576240	0.259241
O189	O	0.904233	-1.149663	-0.485836
O190	O	1.404233	-0.649663	0.014164
H191	H	0.852640	-1.134915	-0.472224
H192	H	1.352640	-0.634915	0.027776
O193	O	0.219547	-0.297634	-0.486065
O194	O	0.719547	0.202366	0.013935
H195	H	0.259153	-0.275358	-0.521283
H196	H	0.759153	0.224642	-0.021283
O197	O	0.833386	-0.226543	-0.795450
O198	O	1.333386	0.273457	-0.295450
H199	H	0.829784	-0.222957	-0.731117
H200	H	1.329784	0.277043	-0.231117
O201	O	0.934125	-0.327376	-0.671574
O202	O	1.434125	0.172624	-0.171574
H203	H	0.956267	-0.289299	-0.633989
H204	H	1.456267	0.210701	-0.133989
O205	O	0.185453	-0.430889	-0.275538
O206	O	0.685453	0.069111	0.224462
H207	H	0.200191	-0.482473	-0.288969
H208	H	0.700191	0.017527	0.211031
O209	O	0.757030	-0.297725	-0.486015
O210	O	1.257030	0.202275	0.013985
H211	H	0.728830	-0.275424	-0.521225
H212	H	1.228830	0.224576	-0.021225
O213	O	0.904005	-0.612156	-0.485704
O214	O	1.404005	-0.112156	0.014296
H215	H	0.881652	-0.651721	-0.520821
H216	H	1.381652	-0.151721	-0.020821
H217	H	0.849634	-0.242696	-1.079939
H218	H	1.349634	0.257304	-0.579939
H219	H	0.995605	-0.388735	-1.079881
H220	H	1.495605	0.111265	-0.579881
H221	H	1.096345	-0.489562	-0.956003
H222	H	1.596345	0.010438	-0.456003
O223	O	0.322098	-0.430914	-0.275536
O224	O	0.822098	0.069086	0.224464
H225	H	0.282493	-0.453201	-0.240330
H226	H	0.782493	0.046799	0.259670
H227	H	0.912567	-0.737975	-0.472391
H228	H	1.412567	-0.237975	0.027609
O229	O	1.037692	-0.578302	-0.275771
O230	O	1.537692	-0.078302	0.224229
H231	H	1.016952	-0.580986	-0.213729
H232	H	1.516952	-0.080986	0.286271
O233	O	0.620379	-0.297715	-0.486040
O234	O	1.120379	0.202285	0.013960
H235	H	0.659984	-0.275438	-0.521260
H236	H	1.159984	0.224562	-0.021260
H237	H	0.597137	-0.422487	-0.288896
H238	H	1.097137	0.077513	0.211104
