data_functionalizedCrystal
_audit_creation_method	'MofGen! by Chris Wilmer'
_symmetry_space_group_name_H-M	'P1'
_symmetry_Int_Tables_number	1
_symmetry_cell_setting	triclinic
loop_
_symmetry_equiv_pos_as_xyz
  x,y,z
_cell_length_a	38.077490
_cell_length_b	38.067025
_cell_length_c	38.067077
_cell_angle_alpha	89.997143
_cell_angle_beta	59.997307
_cell_angle_gamma	59.999941
loop_
_atom_site_label
_atom_site_type_symbol
_atom_site_fract_x
_atom_site_fract_y
_atom_site_fract_z
O1	O	0.309784	0.240981	-0.010460
O2	O	0.237867	0.189898	0.010394
O3	O	0.309781	0.189897	-0.061542
O4	O	0.237870	0.240982	0.061476
O5	O	0.251370	0.248324	-0.061541
O6	O	0.179456	0.248325	0.010394
O7	O	0.251373	0.299408	-0.010459
Cu8	Cu	0.210081	0.279201	-0.000033
Cu9	Cu	0.279159	0.210104	-0.000033
O10	O	0.179460	0.299409	0.061476
C11	C	0.386304	0.424684	-0.025339
C12	C	0.365366	0.403349	-0.025633
C13	C	0.449899	0.361071	-0.025339
C14	C	0.428865	0.339833	-0.025633
C15	C	0.386301	0.361072	-0.025335
C16	C	0.428868	0.403348	-0.025638
C17	C	0.381311	0.493435	-0.020181
C18	C	0.358036	0.536879	-0.016924
C19	C	0.314521	0.558668	-0.015288
C20	C	0.289281	0.605773	-0.011754
C21	C	0.294278	0.537018	-0.016912
C22	C	0.317553	0.493576	-0.020171
C23	C	0.361068	0.471787	-0.021803
C24	C	0.317399	0.361239	-0.020168
C25	C	0.293984	0.341215	-0.016907
C26	C	0.314080	0.299325	-0.015271
C27	C	0.288692	0.277613	-0.011733
C28	C	0.357595	0.277450	-0.016900
C29	C	0.381010	0.297472	-0.020163
C30	C	0.360910	0.339366	-0.021795
C31	C	0.513476	0.361235	-0.020182
C32	C	0.553648	0.341212	-0.016919
C33	C	0.573796	0.299321	-0.015283
C34	C	0.617355	0.277608	-0.011750
C35	C	0.553775	0.277450	-0.016906
C36	C	0.513603	0.297471	-0.020166
C37	C	0.493455	0.339363	-0.021804
C38	C	0.057329	0.025601	0.031595
C39	C	0.014767	0.046936	0.031891
C40	C	0.057327	0.089215	0.031598
C41	C	0.014765	0.110453	0.031894
C42	C	-0.006266	0.089214	0.031595
C43	C	0.078264	0.046937	0.031894
C44	C	0.171857	-0.127802	0.020077
C45	C	0.195271	-0.171244	0.016820
C46	C	0.175175	-0.193037	0.015183
C47	C	0.200565	-0.240142	0.011644
C48	C	0.131662	-0.171384	0.016807
C49	C	0.108248	-0.127944	0.020070
C50	C	0.128347	-0.106152	0.021705
C51	C	-0.148109	0.128058	0.020073
C52	C	-0.188283	0.148080	0.016815
C53	C	-0.208436	0.189973	0.015180
C54	C	-0.251989	0.211684	0.011642
C55	C	-0.188414	0.211846	0.016807
C56	C	-0.148248	0.191828	0.020072
C57	C	-0.128095	0.149929	0.021702
C58	C	0.171849	0.128062	0.020088
C59	C	0.195265	0.148083	0.016828
C60	C	0.175168	0.189978	0.015195
C61	C	0.200556	0.211688	0.011658
C62	C	0.131659	0.211849	0.016817
C63	C	0.108247	0.191826	0.020075
C64	C	0.128344	0.149932	0.021714
C65	C	0.102957	-0.059049	0.025239
C66	C	0.082719	-0.021503	0.028058
C67	C	0.082715	0.110923	0.028063
C68	C	0.102952	0.128226	0.025247
C69	C	-0.049820	0.110921	0.028057
C70	C	-0.084538	0.128224	0.025238
C71	C	0.431917	0.088944	-0.406428
C72	C	0.474480	0.046667	-0.427667
C73	C	0.431917	0.088944	-0.342816
C74	C	0.474480	0.046667	-0.364151
C75	C	0.495512	0.025331	-0.406428
C76	C	0.410981	0.110183	-0.364151
C77	C	0.317391	0.191985	-0.445274
C78	C	0.293978	0.212148	-0.465296
C79	C	0.314074	0.190412	-0.507190
C80	C	0.288685	0.212269	-0.528899
C81	C	0.357588	0.148511	-0.529062
C82	C	0.381001	0.128353	-0.509042
C83	C	0.360901	0.150092	-0.467146
C84	C	0.637357	-0.128070	-0.509466
C85	C	0.677531	-0.171512	-0.529629
C86	C	0.697684	-0.193306	-0.507893
C87	C	0.741238	-0.240409	-0.529748
C88	C	0.677661	-0.171653	-0.465993
C89	C	0.637495	-0.128211	-0.445834
C90	C	0.617342	-0.106423	-0.467575
C91	C	0.317391	0.191985	-0.189414
C92	C	0.293974	0.212147	-0.145970
C93	C	0.314070	0.190410	-0.124177
C94	C	0.288681	0.212267	-0.077072
C95	C	0.357580	0.148511	-0.145828
C96	C	0.380993	0.128352	-0.189270
C97	C	0.360897	0.150094	-0.211061
C98	C	0.386290	0.128229	-0.445439
C99	C	0.406528	0.110803	-0.428136
C100	C	0.406528	0.110803	-0.295712
C101	C	0.386290	0.128229	-0.258166
C102	C	0.539066	-0.021772	-0.428286
C103	C	0.573785	-0.059318	-0.445711
O104	O	0.733751	0.248319	0.010373
O105	O	0.631615	0.299402	-0.010481
O106	O	0.631605	0.299399	0.061455
O107	O	0.733760	0.248322	-0.061562
O108	O	0.631610	0.240970	0.061449
O109	O	0.631620	0.240973	-0.010487
O110	O	0.733755	0.189890	0.010368
Cu111	Cu	0.682688	0.210096	-0.000060
Cu112	Cu	0.682682	0.279196	-0.000053
O113	O	0.733765	0.189893	-0.061568
O114	O	0.179469	0.744326	0.010375
O115	O	0.251385	0.621308	-0.010480
O116	O	0.179475	0.693233	0.061456
O117	O	0.251379	0.672401	-0.061561
O118	O	0.237889	0.693231	0.061451
O119	O	0.309799	0.621307	-0.010485
O120	O	0.237882	0.744324	0.010371
Cu121	Cu	0.279174	0.682815	-0.000057
Cu122	Cu	0.210093	0.682817	-0.000052
O123	O	0.309792	0.672400	-0.061566
O124	O	0.857637	-0.378957	-0.558456
O125	O	0.755495	-0.255941	-0.507375
O126	O	0.755492	-0.327870	-0.507369
O127	O	0.857640	-0.307028	-0.558462
O128	O	0.755493	-0.327872	-0.565796
O129	O	0.755496	-0.255943	-0.565803
O130	O	0.857638	-0.378959	-0.616883
Cu131	Cu	0.806568	-0.317451	-0.596678
Cu132	Cu	0.806566	-0.317449	-0.527581
O133	O	0.857642	-0.307029	-0.616890
O134	O	0.237866	0.240986	-0.616616
O135	O	0.309780	0.189897	-0.565534
O136	O	0.237865	0.189900	-0.565528
O137	O	0.309781	0.240983	-0.616622
O138	O	0.179455	0.248326	-0.507101
O139	O	0.251371	0.248323	-0.507107
O140	O	0.179457	0.299412	-0.558190
Cu141	Cu	0.210080	0.279202	-0.527313
Cu142	Cu	0.279156	0.210107	-0.596410
O143	O	0.251372	0.299409	-0.558195
C144	C	0.039354	0.424691	0.321712
C145	C	0.060386	0.403356	0.342952
C146	C	0.102949	0.361078	0.258101
C147	C	0.123884	0.339840	0.279437
C148	C	0.102948	0.361079	0.321714
C149	C	0.060386	0.403355	0.279435
C150	C	-0.024219	0.493443	0.321545
C151	C	-0.064393	0.536887	0.341568
C152	C	-0.084542	0.558676	0.383459
C153	C	-0.128100	0.605781	0.405170
C154	C	-0.064524	0.537025	0.405334
C155	C	-0.024353	0.493583	0.385313
C156	C	-0.004201	0.471794	0.343418
C157	C	0.107943	0.361245	0.385470
C158	C	0.131219	0.341221	0.405632
C159	C	0.174732	0.299330	0.383896
C160	C	0.199972	0.277618	0.405754
C161	C	0.194974	0.277455	0.341998
C162	C	0.171698	0.297477	0.321838
C163	C	0.128185	0.339372	0.343574
C164	C	0.107945	0.361243	0.189347
C165	C	0.131225	0.341220	0.145901
C166	C	0.174739	0.299329	0.124113
C167	C	0.199980	0.277616	0.077008
C168	C	0.194980	0.277457	0.145764
C169	C	0.171703	0.297478	0.189207
C170	C	0.128186	0.339371	0.210997
C171	C	0.386278	0.361052	0.321686
C172	C	0.365339	0.403329	0.342927
C173	C	0.449877	0.361056	0.258076
C174	C	0.428841	0.403333	0.279414
C175	C	0.386275	0.424666	0.321691
C176	C	0.428845	0.339815	0.279409
C177	C	0.381287	0.297294	0.321516
C178	C	0.358011	0.277130	0.341538
C179	C	0.314494	0.298864	0.383428
C180	C	0.289254	0.277004	0.405138
C181	C	0.294249	0.340763	0.405305
C182	C	0.317525	0.360924	0.385285
C183	C	0.361042	0.339190	0.343391
C184	C	0.317368	0.493417	0.385448
C185	C	0.293952	0.536860	0.405611
C186	C	0.314049	0.558651	0.383877
C187	C	0.288660	0.605756	0.405736
C188	C	0.357566	0.537002	0.341979
C189	C	0.380982	0.493560	0.321817
C190	C	0.360882	0.471769	0.343552
C191	C	0.513458	0.297303	0.189322
C192	C	0.553633	0.277145	0.145876
C193	C	0.573782	0.298884	0.124089
C194	C	0.617345	0.277029	0.076985
C195	C	0.553760	0.340780	0.145741
C196	C	0.513585	0.360940	0.189185
C197	C	0.493436	0.339199	0.210973
C198	C	0.103006	0.708036	0.321679
C199	C	0.060446	0.708328	0.342920
C200	C	0.102996	0.708050	0.258072
C201	C	0.060435	0.708342	0.279409
C202	C	0.039409	0.708035	0.321684
C203	C	0.123936	0.708343	0.279404
C204	C	0.171908	0.702875	0.321509
C205	C	0.195325	0.699612	0.341529
C206	C	0.175236	0.697968	0.383418
C207	C	0.200626	0.694428	0.405126
C208	C	0.131724	0.699590	0.405293
C209	C	0.108306	0.702854	0.385275
C210	C	0.128400	0.704494	0.343382
C211	C	-0.024154	0.702857	0.385438
C212	C	-0.064326	0.699593	0.405600
C213	C	-0.084479	0.697963	0.383866
C214	C	-0.128034	0.694422	0.405724
C215	C	-0.064467	0.699600	0.341970
C216	C	-0.024299	0.702865	0.321810
C217	C	-0.004142	0.704492	0.343544
C218	C	0.171886	0.702904	0.189319
C219	C	0.195297	0.699650	0.145875
C220	C	0.175196	0.698020	0.124089
C221	C	0.200575	0.694495	0.076986
C222	C	0.131688	0.699639	0.145740
C223	C	0.108277	0.702892	0.189183
C224	C	0.128378	0.704524	0.210970
C225	C	1.057377	0.025622	-0.406453
C226	C	1.078313	0.046960	-0.427690
C227	C	0.993774	0.089232	-0.342838
C228	C	1.014806	0.110474	-0.364171
C229	C	1.057373	0.089237	-0.406448
C230	C	1.014811	0.046955	-0.364176
C231	C	1.107736	-0.127782	-0.445307
C232	C	1.131011	-0.171223	-0.465331
C233	C	1.174532	-0.193013	-0.507225
C234	C	1.199777	-0.240118	-0.528936
C235	C	1.194774	-0.171358	-0.529095
C236	C	1.171494	-0.127918	-0.509072
C237	C	1.127973	-0.106130	-0.467176
C238	C	1.171901	0.128092	-0.509480
C239	C	1.195313	0.148117	-0.529640
C240	C	1.175216	0.190009	-0.507903
C241	C	1.200601	0.211723	-0.529756
C242	C	1.131699	0.211879	-0.466003
C243	C	1.108283	0.191858	-0.445846
C244	C	1.128391	0.149960	-0.467589
C245	C	0.851916	0.128067	-0.189439
C246	C	0.811741	0.148085	-0.145996
C247	C	0.791585	0.189979	-0.124201
C248	C	0.748026	0.211685	-0.077096
C249	C	0.811607	0.211852	-0.145850
C250	C	0.851782	0.191832	-0.189291
C251	C	0.871931	0.149940	-0.211084
C252	C	1.102736	-0.059027	-0.445467
C253	C	1.082618	-0.021481	-0.428163
C254	C	0.950215	0.110937	-0.295735
C255	C	0.915493	0.128237	-0.258189
C256	C	1.082761	0.110947	-0.428305
C257	C	1.102999	0.128252	-0.445728
O258	O	0.237830	0.744309	0.434460
O259	O	0.309752	0.621293	0.383368
O260	O	0.237841	0.693223	0.383366
O261	O	0.309741	0.672379	0.434462
O262	O	0.179428	0.693217	0.441789
O263	O	0.251338	0.621287	0.441791
O264	O	0.179417	0.744303	0.492883
Cu265	Cu	0.210044	0.682795	0.472672
Cu266	Cu	0.279124	0.682801	0.403579
O267	O	0.251327	0.672374	0.492885
C268	C	0.495201	0.651259	-0.406441
C269	C	0.474163	0.650969	-0.427676
C270	C	0.431613	0.651247	-0.342828
C271	C	0.410671	0.650957	-0.364160
C272	C	0.431601	0.651264	-0.406435
C273	C	0.474175	0.650952	-0.364165
C274	C	0.637052	0.662776	-0.445293
C275	C	0.677226	0.666034	-0.465316
C276	C	0.697372	0.667679	-0.507208
C277	C	0.740926	0.671220	-0.528919
C278	C	0.677344	0.666061	-0.529077
C279	C	0.637177	0.662797	-0.509056
C280	C	0.617031	0.661154	-0.467161
C281	C	0.381229	0.662813	-0.509459
C282	C	0.357950	0.666076	-0.529618
C283	C	0.314433	0.667710	-0.507881
C284	C	0.289186	0.671255	-0.529732
C285	C	0.294198	0.666075	-0.465983
C286	C	0.317480	0.662804	-0.445828
C287	C	0.360997	0.661176	-0.467571
C288	C	0.381289	0.662727	-0.189434
C289	C	0.358020	0.665979	-0.145992
C290	C	0.314503	0.667611	-0.124197
C291	C	0.289269	0.671139	-0.077094
C292	C	0.294255	0.665995	-0.145845
C293	C	0.317525	0.662745	-0.189285
C294	C	0.361046	0.661107	-0.211078
C295	C	0.573474	0.657618	-0.445453
C296	C	0.538755	0.654799	-0.428149
C297	C	0.406382	0.654773	-0.295726
C298	C	0.386272	0.657583	-0.258181
C299	C	0.406357	0.654809	-0.428289
C300	C	0.386237	0.657633	-0.445711
H301	H	0.497075	0.395345	-0.021517
H302	H	0.570181	0.243339	-0.015570
C303	C	0.615190	-0.104103	-0.533379
C304	C	0.570999	-0.056321	-0.511203
C305	C	0.548828	-0.032354	-0.535112
C306	C	0.570848	-0.056168	-0.581196
C307	C	0.615041	-0.103952	-0.603374
C308	C	0.637212	-0.127920	-0.579465
H309	H	0.554697	-0.038690	-0.477087
H310	H	0.516113	0.003020	-0.518695
H311	H	0.554435	-0.038425	-0.598895
H312	H	0.631343	-0.121583	-0.637490
H313	H	0.669927	-0.163293	-0.595883
C314	C	0.991032	0.023817	-0.341021
C315	C	1.021193	-0.017870	-0.334342
C316	C	0.997417	-0.041005	-0.311179
C317	C	0.943479	-0.022452	-0.294695
C318	C	0.913314	0.019238	-0.301374
C319	C	0.937091	0.042372	-0.324537
H320	H	1.061124	-0.031606	-0.346544
H321	H	1.019747	-0.071866	-0.306235
H322	H	0.925878	-0.039577	-0.277548
H323	H	0.873383	0.032974	-0.289171
H324	H	0.914761	0.073234	-0.329481
C325	C	-0.125945	0.081974	0.021872
C326	C	-0.125544	0.073060	0.061174
C327	C	-0.103377	0.026977	0.062972
C328	C	-0.081611	-0.010193	0.025467
C329	C	-0.082010	-0.001280	-0.013838
C330	C	-0.104177	0.044803	-0.015636
H331	H	-0.141658	0.100576	0.088940
H332	H	-0.103082	0.020379	0.092069
H333	H	-0.065201	-0.044307	0.026798
H334	H	-0.065896	-0.028797	-0.041604
H335	H	-0.104472	0.051401	-0.044733
C336	C	0.242844	0.231372	0.318086
C337	C	0.242506	0.194202	0.302692
C338	C	0.290375	0.148119	0.278779
C339	C	0.338580	0.139206	0.270259
C340	C	0.338919	0.176377	0.285653
C341	C	0.291051	0.222460	0.309567
H342	H	0.206820	0.200799	0.308999
H343	H	0.290123	0.120603	0.267384
H344	H	0.374015	0.105093	0.252557
H345	H	0.374605	0.169780	0.279347
H346	H	0.291302	0.249976	0.320962
H347	H	0.188177	0.279665	0.287726
H348	H	0.997195	0.145212	-0.347041
H349	H	1.115332	0.245992	-0.448306
C350	C	0.108959	0.365286	0.122091
C351	C	0.056026	0.380723	0.137935
C352	C	0.033763	0.404793	0.114122
C353	C	0.064432	0.413427	0.074465
C354	C	0.117368	0.397990	0.058619
C355	C	0.139632	0.373919	0.082432
H356	H	0.033320	0.374332	0.167293
H357	H	-0.005424	0.416221	0.125853
H358	H	0.047952	0.431245	0.056838
H359	H	0.140074	0.404380	0.029261
H360	H	0.178818	0.362492	0.070702
C361	C	0.364399	0.650315	-0.341018
C362	C	0.341263	0.649999	-0.364480
C363	C	0.294992	0.649360	-0.341339
C364	C	0.271856	0.649035	-0.294735
C365	C	0.294992	0.649351	-0.271270
C366	C	0.341264	0.649990	-0.294411
H367	H	0.358390	0.650239	-0.398981
H368	H	0.277865	0.649126	-0.358709
H369	H	0.237603	0.648562	-0.277605
H370	H	0.277865	0.649111	-0.236769
H371	H	0.358390	0.650224	-0.277041
C372	C	0.699251	0.667819	-0.441260
C373	C	0.754087	0.633000	-0.459882
C374	C	0.776110	0.634785	-0.435824
C375	C	0.743298	0.671389	-0.393145
C376	C	0.688459	0.706211	-0.374522
C377	C	0.666435	0.704426	-0.398579
H378	H	0.778379	0.605901	-0.491477
H379	H	0.816706	0.609008	-0.449611
H380	H	0.759601	0.672711	-0.375337
H381	H	0.664167	0.733310	-0.342926
H382	H	0.625840	0.730203	-0.384792
C383	C	0.124527	0.023804	0.032547
C384	C	0.172879	0.017148	-0.004278
C385	C	0.219139	-0.005982	-0.003624
C386	C	0.217048	-0.022455	0.033856
C387	C	0.168695	-0.015800	0.070684
C388	C	0.122435	0.007330	0.070029
H389	H	0.174428	0.029343	-0.032025
H390	H	0.254933	-0.010908	-0.030886
H391	H	0.251293	-0.039577	0.034340
H392	H	0.167145	-0.027995	0.098431
H393	H	0.086640	0.012256	0.097291
C394	C	0.379673	0.560975	0.318069
C395	C	0.432559	0.545245	0.302676
C396	C	0.454669	0.569215	0.278764
C397	C	0.423892	0.608914	0.270246
C398	C	0.371002	0.624646	0.285638
C399	C	0.348892	0.600677	0.309550
H400	H	0.455345	0.515855	0.308982
H401	H	0.493822	0.557569	0.267370
H402	H	0.440259	0.626658	0.252545
H403	H	0.348216	0.654036	0.279332
H404	H	0.309739	0.612323	0.320945
H405	H	0.072852	0.704210	0.206810
H406	H	0.373941	0.130811	-0.128081
C407	C	-0.001987	0.704653	0.409347
C408	C	0.052884	0.669835	0.390611
C409	C	0.075054	0.671628	0.414520
C410	C	0.042352	0.708240	0.457164
C411	C	-0.012522	0.743061	0.475902
C412	C	-0.034692	0.741268	0.451994
H413	H	0.077095	0.642731	0.359042
H414	H	0.115676	0.645851	0.400648
H415	H	0.058764	0.709567	0.474863
H416	H	-0.036733	0.770165	0.507472
H417	H	-0.075314	0.767045	0.465865
H418	H	-0.002836	0.145190	0.032372
C419	C	0.498263	0.023525	-0.341013
C420	C	0.475130	0.046984	-0.294410
C421	C	0.498914	0.023842	-0.271274
C422	C	0.545831	-0.022758	-0.294742
C423	C	0.568966	-0.046219	-0.341348
C424	C	0.545182	-0.023078	-0.364484
H425	H	0.440397	0.081483	-0.277035
H426	H	0.481788	0.041210	-0.236773
H427	H	0.563437	-0.039888	-0.277616
H428	H	0.603699	-0.080718	-0.358723
H429	H	0.562309	-0.040446	-0.398985
C430	C	0.295281	0.215890	-0.213386
C431	C	0.242395	0.231275	-0.197651
C432	C	0.220286	0.255173	-0.221625
C433	C	0.251063	0.263685	-0.261334
C434	C	0.303953	0.248299	-0.277070
C435	C	0.326061	0.224402	-0.253096
H436	H	0.219609	0.224974	-0.168255
H437	H	0.181134	0.266562	-0.209976
H438	H	0.234697	0.281375	-0.279081
H439	H	0.326738	0.254600	-0.306467
H440	H	0.365214	0.213012	-0.264746
C441	C	0.109574	0.697846	0.121775
C442	C	0.103553	0.661228	0.117867
C443	C	0.081440	0.659436	0.093902
C444	C	0.065348	0.694262	0.073844
C445	C	0.071368	0.730882	0.077752
C446	C	0.093481	0.732674	0.101718
H447	H	0.115466	0.635446	0.132715
H448	H	0.076984	0.632328	0.091009
H449	H	0.048978	0.692935	0.056104
H450	H	0.059455	0.756664	0.062904
H451	H	0.097938	0.759783	0.104610
C452	C	0.246385	0.667791	-0.121872
C453	C	0.199848	0.704413	-0.117958
C454	C	0.151979	0.706210	-0.093986
C455	C	0.150647	0.671386	-0.073927
C456	C	0.197186	0.634761	-0.077840
C457	C	0.245055	0.632964	-0.101812
H458	H	0.200832	0.730194	-0.132807
H459	H	0.117527	0.733322	-0.091089
H460	H	0.115212	0.672716	-0.056181
H461	H	0.196202	0.608980	-0.062990
H462	H	0.279507	0.605852	-0.104709
C463	C	0.243124	0.124027	0.015044
C464	C	0.289579	0.081350	-0.021561
C465	C	0.337437	0.057294	-0.023343
C466	C	0.338840	0.075915	0.011481
C467	C	0.292383	0.118594	0.048089
C468	C	0.244525	0.142650	0.049870
H469	H	0.288542	0.067564	-0.047342
H470	H	0.371827	0.025700	-0.050443
H471	H	0.374267	0.058108	0.010162
H472	H	0.293420	0.132381	0.073869
H473	H	0.210135	0.174244	0.076970
C474	C	0.497949	0.650307	-0.341020
C475	C	0.502798	0.687147	-0.334339
C476	C	0.526564	0.686506	-0.311189
C477	C	0.545481	0.649026	-0.294720
C478	C	0.540633	0.612183	-0.301401
C479	C	0.516866	0.612824	-0.324550
H480	H	0.488793	0.714895	-0.346531
H481	H	0.530153	0.713780	-0.306244
H482	H	0.563074	0.648551	-0.277584
H483	H	0.554637	0.584435	-0.289209
H484	H	0.513277	0.585550	-0.329495
H485	H	0.497282	0.395054	0.206812
C486	C	-0.002055	0.469473	0.275464
C487	C	-0.001652	0.429768	0.266552
C488	C	0.020514	0.405799	0.220469
C489	C	0.042278	0.421534	0.183297
C490	C	0.041875	0.461241	0.192207
C491	C	0.019709	0.485210	0.238291
H492	H	-0.017763	0.418118	0.294070
H493	H	0.020812	0.376405	0.213874
H494	H	0.058686	0.403790	0.149184
H495	H	0.057986	0.472891	0.164690
H496	H	0.019411	0.514604	0.244886
C497	C	0.242849	0.231374	0.121797
C498	C	0.291054	0.222459	0.082093
C499	C	0.338921	0.176376	0.058126
C500	C	0.338584	0.139207	0.073863
C501	C	0.290377	0.148121	0.113569
C502	C	0.242510	0.194204	0.137536
H503	H	0.291305	0.249974	0.070442
H504	H	0.374607	0.169778	0.028733
H505	H	0.374018	0.105093	0.056121
H506	H	0.290126	0.120605	0.125221
H507	H	0.206824	0.200802	0.166930
C508	C	0.109545	0.257934	0.015019
C509	C	0.093450	0.294093	0.049838
C510	C	0.071335	0.340176	0.048039
C511	C	0.065314	0.350100	0.011420
C512	C	0.081409	0.313940	-0.023402
C513	C	0.103524	0.267857	-0.021603
H514	H	0.097907	0.286748	0.076948
H515	H	0.059420	0.366944	0.073817
H516	H	0.048943	0.384213	0.010088
H517	H	0.076953	0.321285	-0.050512
H518	H	0.115439	0.241089	-0.047381
H519	H	0.373955	0.243338	-0.015567
H520	H	0.693752	0.667397	-0.563187
H521	H	1.072299	-0.110045	-0.411194
H522	H	-0.080884	0.698275	0.324277
C523	C	1.242643	-0.195325	-0.575176
C524	C	1.289173	-0.199224	-0.585102
C525	C	1.337044	-0.223190	-0.631185
C526	C	1.338386	-0.243256	-0.667342
C527	C	1.291855	-0.239358	-0.657417
C528	C	1.243983	-0.215392	-0.611335
H529	H	1.288181	-0.184368	-0.558335
H530	H	1.371490	-0.226075	-0.638531
H531	H	1.373823	-0.260998	-0.701455
H532	H	1.292846	-0.254213	-0.684184
H533	H	1.209538	-0.212506	-0.603988
H534	H	0.446446	0.420463	0.262285
C535	C	0.193966	0.273419	0.213024
C536	C	0.163296	0.264797	0.252691
C537	C	0.185560	0.240738	0.276508
C538	C	0.238494	0.225301	0.260657
C539	C	0.269168	0.233923	0.220988
C540	C	0.246904	0.257982	0.197172
H541	H	0.124107	0.276225	0.264427
H542	H	0.162853	0.234356	0.305874
H543	H	0.254976	0.207491	0.278287
H544	H	0.308356	0.222495	0.209252
H545	H	0.269611	0.264364	0.167806
H546	H	0.331110	0.420483	-0.026102
C547	C	0.615147	0.661018	-0.533108
C548	C	0.614782	0.621720	-0.541737
C549	C	0.592751	0.619943	-0.565790
C550	C	0.571084	0.657464	-0.581214
C551	C	0.571449	0.696765	-0.572585
C552	C	0.593480	0.698542	-0.548532
H553	H	0.630822	0.593942	-0.530320
H554	H	0.592481	0.590850	-0.572177
H555	H	0.554775	0.656149	-0.599019
H556	H	0.555409	0.724542	-0.584002
H557	H	0.593750	0.727635	-0.542145
H558	H	0.416420	0.094237	-0.206896
H559	H	0.416416	0.475934	0.287705
C560	C	0.789718	0.124025	-0.122181
C561	C	0.822529	0.081348	-0.118394
C562	C	0.800505	0.057288	-0.094580
C563	C	0.745670	0.075906	-0.074553
C564	C	0.712857	0.118586	-0.078339
C565	C	0.734881	0.142645	-0.102154
H566	H	0.863123	0.067563	-0.133220
H567	H	0.824796	0.025694	-0.091777
H568	H	0.729367	0.058096	-0.056924
H569	H	0.672262	0.132370	-0.063513
H570	H	0.710590	0.174240	-0.104957
C571	C	1.124584	0.023825	-0.474616
C572	C	1.147727	-0.022778	-0.498083
C573	C	1.193995	-0.045911	-0.545008
C574	C	1.217121	-0.022440	-0.568466
C575	C	1.193977	0.024167	-0.544999
C576	C	1.147709	0.047299	-0.498074
H577	H	1.130608	-0.040155	-0.480718
H578	H	1.211127	-0.080412	-0.562380
H579	H	1.251371	-0.039564	-0.603203
H580	H	1.211096	0.041544	-0.562365
H581	H	1.130577	0.081800	-0.480703
C582	C	0.295261	0.407009	0.409343
C583	C	0.279069	0.443240	0.390723
C584	C	0.256807	0.489326	0.414781
C585	C	0.250737	0.499180	0.457459
C586	C	0.266929	0.462947	0.476082
C587	C	0.289192	0.416862	0.452024
H588	H	0.283563	0.435947	0.359128
H589	H	0.244821	0.516147	0.400995
H590	H	0.234257	0.533295	0.475268
H591	H	0.262436	0.470241	0.507677
H592	H	0.301178	0.390041	0.465810
C593	C	0.036647	0.708992	0.256276
C594	C	-0.017293	0.746470	0.274846
C595	C	-0.041082	0.747120	0.251716
C596	C	-0.010931	0.710292	0.210016
C597	C	0.043011	0.672812	0.191444
C598	C	0.066800	0.672161	0.214574
H599	H	-0.039615	0.773734	0.305716
H600	H	-0.081014	0.774866	0.265464
H601	H	-0.028541	0.710773	0.192894
H602	H	0.065333	0.645547	0.160574
H603	H	0.106732	0.644416	0.200825
H604	H	0.416662	0.661484	-0.527166
H605	H	0.301032	0.395350	-0.021499
C606	C	0.246113	0.258232	-0.441237
C607	C	0.199663	0.268083	-0.398561
C608	C	0.151797	0.314167	-0.374500
C609	C	0.150383	0.350401	-0.393116
C610	C	0.196835	0.340552	-0.435794
C611	C	0.244700	0.294468	-0.459855
H612	H	0.200709	0.241259	-0.384778
H613	H	0.117410	0.321458	-0.342907
H614	H	0.114950	0.384515	-0.375305
H615	H	0.195789	0.367375	-0.449577
H616	H	0.279087	0.287177	-0.491448
C617	C	0.380204	0.667880	-0.575700
C618	C	0.386260	0.704496	-0.585543
C619	C	0.408514	0.706302	-0.631625
C620	C	0.424711	0.671491	-0.667863
C621	C	0.418655	0.634872	-0.658021
C622	C	0.396401	0.633067	-0.611939
H623	H	0.374270	0.730267	-0.558717
H624	H	0.412997	0.733409	-0.638911
H625	H	0.441184	0.672827	-0.701976
H626	H	0.430645	0.609101	-0.684848
H627	H	0.391918	0.605960	-0.604654
H628	H	0.258768	0.667400	-0.448286
C629	C	0.575665	0.365274	-0.015133
C630	C	0.597330	0.380705	-0.052648
C631	C	0.619345	0.404770	-0.050857
C632	C	0.619695	0.413403	-0.011551
C633	C	0.598030	0.397971	0.025967
C634	C	0.576015	0.373906	0.024176
H635	H	0.597072	0.374315	-0.081748
H636	H	0.635384	0.416193	-0.078631
H637	H	0.635992	0.431216	-0.010225
H638	H	0.598288	0.404361	0.055066
H639	H	0.559976	0.362483	0.051950
C640	C	-0.086409	0.560703	0.317507
C641	C	-0.141242	0.580729	0.336122
C642	C	-0.163262	0.604548	0.312062
C643	C	-0.130448	0.608341	0.269389
C644	C	-0.075612	0.588314	0.250772
C645	C	-0.053592	0.564496	0.274831
H646	H	-0.165536	0.577922	0.367713
H647	H	-0.203856	0.619373	0.325844
H648	H	-0.146749	0.625973	0.251578
H649	H	-0.051319	0.591122	0.219180
H650	H	-0.012999	0.549671	0.261050
C651	C	1.108751	-0.195044	-0.441274
C652	C	1.102686	-0.198834	-0.398599
C653	C	1.080427	-0.222655	-0.374541
C654	C	1.064232	-0.242686	-0.393160
C655	C	1.070296	-0.238896	-0.435838
C656	C	1.092556	-0.215075	-0.459895
H657	H	1.114675	-0.184006	-0.384814
H658	H	1.075937	-0.225460	-0.342948
H659	H	1.047754	-0.260320	-0.375351
H660	H	1.058308	-0.253725	-0.449623
H661	H	1.097045	-0.212270	-0.491489
C662	C	0.243135	-0.195061	0.015027
C663	C	0.289585	-0.198847	-0.021584
C664	C	0.337450	-0.222664	-0.023378
C665	C	0.338865	-0.242696	0.011440
C666	C	0.292414	-0.238911	0.048054
C667	C	0.244548	-0.215094	0.049848
H668	H	0.288539	-0.184017	-0.047361
H669	H	0.371837	-0.225466	-0.050483
H670	H	0.374298	-0.260328	0.010112
H671	H	0.293460	-0.253741	0.073831
H672	H	0.210162	-0.212292	0.076953
H673	H	0.188217	0.093950	0.021422
C674	C	0.246120	0.365278	-0.015114
C675	C	0.244708	0.346664	-0.049935
C676	C	0.196843	0.370723	-0.048142
C677	C	0.150391	0.413395	-0.011530
C678	C	0.151801	0.432011	0.023293
C679	C	0.199666	0.407952	0.021501
H680	H	0.279096	0.315074	-0.077040
H681	H	0.195800	0.356942	-0.073921
H682	H	0.114959	0.431205	-0.010203
H683	H	0.117413	0.463602	0.050399
H684	H	0.200709	0.421733	0.047280
H685	H	0.497302	0.279661	-0.021486
H686	H	0.042848	0.708801	0.377656
C687	C	0.380279	0.231046	0.317474
C688	C	0.396484	0.194812	0.336087
C689	C	0.418753	0.148726	0.312024
C690	C	0.424817	0.138875	0.269349
C691	C	0.408612	0.175110	0.250734
C692	C	0.386343	0.221196	0.274796
H693	H	0.391995	0.202103	0.367680
H694	H	0.430749	0.121902	0.325805
H695	H	0.441302	0.104759	0.251536
H696	H	0.413100	0.167819	0.219141
H697	H	0.374346	0.248020	0.261016
C698	C	0.036611	0.426493	0.389878
C699	C	0.031754	0.468187	0.401409
C700	C	0.007983	0.491321	0.448333
C701	C	-0.010932	0.472762	0.483725
C702	C	-0.006076	0.431065	0.472195
C703	C	0.017695	0.407931	0.425271
H704	H	0.045757	0.481928	0.375209
H705	H	0.004389	0.522188	0.456868
H706	H	-0.028529	0.489887	0.518461
H707	H	-0.020079	0.417324	0.498395
H708	H	0.021289	0.377065	0.416735
C709	C	0.109626	0.697778	0.451374
C710	C	0.140414	0.658468	0.460275
C711	C	0.118313	0.656657	0.506355
C712	C	0.065424	0.694156	0.543533
C713	C	0.034633	0.733469	0.534632
C714	C	0.056734	0.735280	0.488553
H715	H	0.179568	0.630707	0.432753
H716	H	0.141107	0.627555	0.512944
H717	H	0.049064	0.692816	0.577644
H718	H	-0.004522	0.761231	0.562155
H719	H	0.033940	0.764382	0.481964
C720	C	0.170204	0.708991	0.256257
C721	C	0.168110	0.746474	0.239791
C722	C	0.214377	0.747120	0.216641
C723	C	0.262738	0.710282	0.209957
C724	C	0.264834	0.672796	0.226423
C725	C	0.218567	0.672150	0.249573
H726	H	0.132308	0.773746	0.244738
H727	H	0.212825	0.774870	0.204452
H728	H	0.296988	0.710760	0.192820
H729	H	0.300636	0.645523	0.221476
H730	H	0.220119	0.644400	0.261762
H731	H	0.301003	0.661472	-0.411716
C732	C	1.243182	0.124060	-0.575724
C733	C	1.242782	0.108621	-0.612830
C734	C	1.290651	0.084563	-0.658914
C735	C	1.338921	0.075943	-0.667891
C736	C	1.339322	0.091383	-0.630784
C737	C	1.291453	0.115441	-0.584701
H738	H	1.207048	0.115001	-0.606185
H739	H	1.290354	0.073133	-0.686383
H740	H	1.374357	0.058134	-0.702005
H741	H	1.375056	0.085003	-0.637429
H742	H	1.291751	0.126870	-0.557232
C743	C	0.452637	0.292887	0.256261
C744	C	0.422497	0.281343	0.249577
C745	C	0.446293	0.234417	0.226427
C746	C	0.500229	0.199036	0.209961
C747	C	0.530373	0.210579	0.216645
C748	C	0.506577	0.257505	0.239795
H749	H	0.382567	0.307536	0.261767
H750	H	0.423978	0.225873	0.221480
H751	H	0.517844	0.164298	0.192824
H752	H	0.570303	0.184386	0.204455
H753	H	0.528891	0.266050	0.244742
H754	H	0.569935	0.243031	0.128252
C755	C	1.060418	0.215912	-0.399761
C756	C	1.038307	0.261993	-0.375846
C757	C	0.990443	0.286047	-0.329759
C758	C	0.964691	0.264020	-0.307587
C759	C	0.986802	0.217937	-0.331502
C760	C	1.034666	0.193883	-0.377589
H761	H	1.057370	0.278300	-0.392258
H762	H	0.974075	0.320161	-0.312055
H763	H	0.929259	0.281826	-0.273470
H764	H	0.967739	0.201629	-0.315089
H765	H	1.051035	0.159769	-0.395292
C766	C	-0.086336	0.697793	0.451683
C767	C	-0.053518	0.661177	0.461527
C768	C	-0.075532	0.659377	0.507611
C769	C	-0.130364	0.694193	0.543850
C770	C	-0.163186	0.730812	0.534007
C771	C	-0.141172	0.732612	0.487923
H772	H	-0.012924	0.635401	0.434700
H773	H	-0.051234	0.632269	0.514897
H774	H	-0.146660	0.692860	0.577964
H775	H	-0.203780	0.756588	0.560834
H776	H	-0.165470	0.759720	0.480636
H777	H	0.230751	0.698292	0.323715
C778	C	0.789437	0.257938	-0.121879
C779	C	0.734568	0.294091	-0.101818
C780	C	0.712400	0.340175	-0.077850
C781	C	0.745101	0.350105	-0.073943
C782	C	0.799973	0.313951	-0.094004
C783	C	0.822141	0.267867	-0.117973
H784	H	0.710358	0.286740	-0.104710
H785	H	0.671780	0.366938	-0.062999
H786	H	0.728691	0.384219	-0.056200
H787	H	0.824183	0.321302	-0.091112
H788	H	0.862761	0.241104	-0.132824
H789	H	-0.008006	0.704198	0.287698
C790	C	0.060384	0.215884	0.021865
C791	C	0.013931	0.258557	0.058477
C792	C	-0.033932	0.282616	0.060267
C793	C	-0.035342	0.264003	0.025446
C794	C	0.011113	0.221328	-0.011169
C795	C	0.058976	0.197268	-0.012959
H796	H	0.014974	0.272338	0.084257
H797	H	-0.068320	0.314207	0.087372
H798	H	-0.070773	0.281813	0.026771
H799	H	0.010070	0.207547	-0.036949
H800	H	0.093364	0.165677	-0.040064
C801	C	0.380290	0.667758	-0.122179
C802	C	0.386360	0.704363	-0.118388
C803	C	0.408631	0.706140	-0.094576
C804	C	0.424833	0.671313	-0.074555
C805	C	0.418763	0.634705	-0.078345
C806	C	0.396492	0.632927	-0.102157
H807	H	0.374366	0.730147	-0.133210
H808	H	0.413124	0.733240	-0.091770
H809	H	0.441320	0.672629	-0.056928
H810	H	0.430757	0.608921	-0.063524
H811	H	0.391999	0.605828	-0.104963
H812	H	0.868311	0.093960	-0.207184
C813	C	-0.086688	0.560997	0.451416
C814	C	-0.087080	0.600695	0.460324
C815	C	-0.109242	0.624663	0.506406
C816	C	-0.131012	0.608933	0.543580
C817	C	-0.130621	0.569233	0.534673
C818	C	-0.108459	0.545264	0.488591
H819	H	-0.070964	0.612341	0.432805
H820	H	-0.109531	0.654052	0.512999
H821	H	-0.147417	0.626676	0.577693
H822	H	-0.146737	0.557586	0.562193
H823	H	-0.108169	0.515875	0.481998
C824	C	0.575923	0.364697	0.121776
C825	C	0.543220	0.407340	0.117873
C826	C	0.565386	0.431255	0.093908
C827	C	0.620255	0.412526	0.073846
C828	C	0.652961	0.369882	0.077749
C829	C	0.630795	0.345967	0.101714
H830	H	0.502600	0.421206	0.132724
H831	H	0.541174	0.462823	0.091018
H832	H	0.636663	0.430229	0.056105
H833	H	0.693581	0.356016	0.062897
H834	H	0.655007	0.314398	0.104603
H835	H	0.446467	0.305097	-0.026108
C836	C	0.246114	0.258233	-0.122155
C837	C	0.197835	0.267225	-0.082489
C838	C	0.149977	0.313313	-0.058675
C839	C	0.150398	0.350410	-0.074525
C840	C	0.198678	0.341419	-0.114193
C841	C	0.246537	0.295331	-0.138008
H842	H	0.197522	0.239763	-0.070754
H843	H	0.114236	0.319969	-0.029310
H844	H	0.114970	0.384527	-0.056896
H845	H	0.198991	0.368881	-0.125928
H846	H	0.282278	0.288676	-0.167372
H847	H	0.072510	0.395356	0.403172
H848	H	0.446468	0.420479	-0.026115
H849	H	0.416745	0.475696	-0.021513
C850	C	0.108953	0.365283	0.451717
C851	C	0.102896	0.407955	0.461566
C852	C	0.080634	0.432014	0.507652
C853	C	0.064429	0.413401	0.543887
C854	C	0.070485	0.370727	0.534039
C855	C	0.092747	0.346668	0.487953
H856	H	0.114893	0.421736	0.434741
H857	H	0.076151	0.463605	0.514942
H858	H	0.047949	0.431211	0.578002
H859	H	0.058489	0.356946	0.560863
H860	H	0.097231	0.315077	0.480663
C861	C	0.380299	0.560694	-0.015135
C862	C	0.433235	0.544843	-0.052646
C863	C	0.455500	0.568660	-0.050860
C864	C	0.424828	0.608327	-0.011562
C865	C	0.371889	0.624180	0.025952
C866	C	0.349624	0.600363	0.024165
H867	H	0.455943	0.515478	-0.081739
H868	H	0.494689	0.556925	-0.078630
H869	H	0.441309	0.625958	-0.010240
H870	H	0.349181	0.653546	0.055045
H871	H	0.310435	0.612098	0.051936
H872	H	-0.002836	0.029806	0.032371
H873	H	0.072510	0.395353	0.207087
H874	H	0.258839	0.554767	-0.015575
C875	C	0.246374	0.364673	0.451387
C876	C	0.246702	0.380070	0.488562
C877	C	0.198829	0.403982	0.534644
C878	C	0.150628	0.412497	0.543550
C879	C	0.150298	0.397099	0.506375
C880	C	0.198171	0.373187	0.460293
H881	H	0.282385	0.373767	0.481969
H882	H	0.199073	0.415380	0.562164
H883	H	0.115189	0.430198	0.577663
H884	H	0.114615	0.403402	0.512967
H885	H	0.197927	0.361789	0.432773
C886	C	0.109559	-0.195355	0.015008
C887	C	0.140343	-0.235055	-0.024298
C888	C	0.118238	-0.259026	-0.026098
C889	C	0.065348	-0.243297	0.011407
C890	C	0.034561	-0.203595	0.050715
C891	C	0.056667	-0.179624	0.052515
H892	H	0.179498	-0.246701	-0.052064
H893	H	0.141029	-0.288416	-0.055197
H894	H	0.048985	-0.261041	0.010074
H895	H	-0.004593	-0.191949	0.078481
H896	H	0.033876	-0.150234	0.081614
H897	H	0.620654	0.661437	-0.411182
H898	H	0.230720	0.698333	0.128251
H899	H	-0.204828	0.245960	0.015481
H900	H	0.301068	0.475950	-0.021491
H901	H	0.416438	0.279661	-0.021487
C902	C	-0.210299	0.124019	0.015020
C903	C	-0.177481	0.081347	-0.021594
C904	C	-0.199497	0.057285	-0.023391
C905	C	-0.254331	0.075896	0.011426
C906	C	-0.287152	0.118571	0.048043
C907	C	-0.265137	0.142632	0.049840
H908	H	-0.136887	0.067568	-0.047371
H909	H	-0.175200	0.025694	-0.050498
H910	H	-0.270628	0.058084	0.010096
H911	H	-0.327747	0.132350	0.073819
H912	H	-0.289434	0.174223	0.076946
C913	C	0.246085	0.560671	0.451696
C914	C	0.244669	0.580696	0.487932
C915	C	0.196802	0.604511	0.534018
C916	C	0.150352	0.608301	0.543866
C917	C	0.151767	0.588276	0.507629
C918	C	0.199633	0.564461	0.461543
H919	H	0.279056	0.577891	0.480643
H920	H	0.195755	0.619335	0.560843
H921	H	0.114918	0.625930	0.577981
H922	H	0.117380	0.591081	0.514918
H923	H	0.200680	0.549637	0.434718
H924	H	0.188226	-0.110063	0.021409
C925	C	0.699550	-0.195330	-0.575713
C926	C	0.721209	-0.179485	-0.612817
C927	C	0.743227	-0.203302	-0.658901
C928	C	0.743586	-0.242965	-0.667881
C929	C	0.721927	-0.258812	-0.630776
C930	C	0.699909	-0.234995	-0.584692
H931	H	0.720944	-0.150122	-0.606170
H932	H	0.759261	-0.191571	-0.686369
H933	H	0.759886	-0.260596	-0.701995
H934	H	0.722192	-0.288175	-0.637422
H935	H	0.683875	-0.246726	-0.557224
C936	C	0.699828	-0.195622	-0.442083
C937	C	0.721598	-0.179892	-0.426688
C938	C	0.743764	-0.203862	-0.402776
C939	C	0.744159	-0.243562	-0.394259
C940	C	0.722389	-0.259295	-0.409654
C941	C	0.700223	-0.235325	-0.433566
H942	H	0.721306	-0.150501	-0.432993
H943	H	0.759880	-0.192215	-0.391380
H944	H	0.760568	-0.261306	-0.376559
H945	H	0.722681	-0.288685	-0.403349
H946	H	0.684107	-0.246971	-0.444962
H947	H	0.072820	-0.110317	0.021395
H948	H	0.301000	0.475676	0.403149
H949	H	0.868081	0.209645	-0.206915
H950	H	0.491765	0.650494	-0.462412
H951	H	-0.008059	0.475955	0.403126
H952	H	-0.131952	0.209640	0.021399
H953	H	1.187976	-0.110289	-0.526882
H954	H	0.492081	0.029540	-0.462404
H955	H	0.376723	0.144916	-0.347020
H956	H	1.188274	0.093979	-0.527187
H957	H	0.301021	0.209690	-0.411161
H958	H	0.373948	0.130818	-0.563173
H959	H	0.416430	0.094240	-0.526853
H960	H	0.621197	-0.110584	-0.411721
H961	H	0.158134	0.305103	0.262306
H962	H	0.042781	0.420486	0.262308
H963	H	0.331087	0.420454	0.377664
H964	H	0.497057	0.279597	0.207061
H965	H	0.416723	0.279592	0.287405
H966	H	0.188254	0.704235	0.207058
H967	H	0.188270	0.704213	0.287399
H968	H	0.072877	0.704177	0.403088
H969	H	0.416728	0.661390	-0.207177
H970	H	0.301035	0.661431	-0.206908
