data_functionalizedCrystal
_audit_creation_method	'MofGen! by Chris Wilmer'
_symmetry_space_group_name_H-M	'P1'
_symmetry_Int_Tables_number	1
_symmetry_cell_setting	triclinic
loop_
_symmetry_equiv_pos_as_xyz
  x,y,z
_cell_length_a	19.288864
_cell_length_b	15.995350
_cell_length_c	17.766277
_cell_angle_alpha	89.995869
_cell_angle_beta	89.976791
_cell_angle_gamma	83.314311
loop_
_atom_site_label
_atom_site_type_symbol
_atom_site_fract_x
_atom_site_fract_y
_atom_site_fract_z
O1	O	0.921624	0.104452	-0.062832
O2	O	0.719400	0.118542	-0.062780
O3	O	0.826040	-0.010412	-0.062807
O4	O	0.814984	0.233405	-0.062805
O5	O	0.826021	-0.010418	0.062382
O6	O	0.719381	0.118535	0.062408
O7	O	0.921605	0.104445	0.062357
Cu8	Cu	0.820492	0.111490	0.073813
Cu9	Cu	0.820514	0.111497	-0.074237
O10	O	0.814965	0.233399	0.062383
C11	C	0.693513	0.118085	-0.000179
C12	C	0.616406	0.116724	-0.000159
C13	C	0.571906	0.192388	-0.000171
C14	C	0.499456	0.191110	-0.000179
C15	C	0.471508	0.114163	-0.000191
C16	C	0.516018	0.038489	-0.000176
C17	C	0.588467	0.039769	-0.000160
C18	C	0.363096	0.053676	-0.044076
C19	C	0.290648	0.052398	-0.044097
C20	C	0.248053	0.110209	-0.000237
C21	C	0.277912	0.169312	0.043634
C22	C	0.350361	0.170593	0.043650
C23	C	0.392951	0.112765	-0.000208
C24	C	0.124993	0.184492	-0.000256
C25	C	0.052542	0.183210	-0.000260
C26	C	0.069106	0.030587	-0.000264
C27	C	0.141556	0.031871	-0.000253
C28	C	0.169495	0.108826	-0.000252
C29	C	0.825574	-0.041608	-0.000214
C30	C	0.824203	-0.134553	-0.000218
C31	C	0.819282	-0.472282	-0.000214
C32	C	0.743335	-0.424562	-0.000475
C33	C	0.744706	-0.327877	-0.000193
C34	C	0.821723	-0.304731	-0.000216
C35	C	0.859172	-0.345953	0.071262
C36	C	0.857264	-0.442582	0.071322
C37	C	0.858855	-0.442939	-0.071041
C38	C	0.858837	-0.345993	-0.071986
C39	C	0.823107	-0.210039	-0.000215
C40	C	0.817901	-0.566975	-0.000210
C41	C	0.947492	0.104902	-0.000246
C42	C	1.024600	0.106263	-0.000271
C43	C	0.815432	0.264595	-0.000211
C44	C	0.816802	0.357540	-0.000212
N45	N	0.820481	0.111484	0.177944
N46	N	0.820530	0.111497	-0.178367
C47	C	0.867717	0.054411	0.217319
C48	C	0.867721	0.054407	0.296120
C49	C	0.820496	0.111490	0.335544
C50	C	0.773251	0.168567	0.296160
C51	C	0.773244	0.168564	0.217359
C52	C	0.811395	0.187781	0.460384
C53	C	0.811407	0.187785	0.539183
C54	C	0.820514	0.111500	0.578590
C55	C	0.829624	0.035208	0.539190
C56	C	0.829617	0.035204	0.460389
C57	C	0.820498	0.111500	0.420990
C58	C	0.867757	0.054419	0.703411
C59	C	0.867756	0.054414	0.782215
C60	C	0.773290	0.168581	0.782252
C61	C	0.773288	0.168579	0.703451
C62	C	0.820525	0.111499	0.664035
H63	H	0.493259	-0.024162	-0.000196
O64	O	0.801562	0.270073	0.417895
H65	H	0.754290	0.272142	0.382030
O66	O	0.824705	-0.308234	0.141745
H67	H	0.769054	-0.319706	0.142469
H68	H	0.734799	0.215044	0.328262
H69	H	0.243232	0.216387	0.079349
H70	H	0.734836	0.215056	0.814350
H71	H	0.046352	-0.032065	-0.000320
H72	H	0.266342	0.004277	-0.079822
O73	O	0.918675	-0.007151	0.338598
H74	H	0.910740	0.002440	0.400015
H75	H	0.594649	0.255051	-0.000172
H76	H	0.147742	0.247153	-0.000245
H77	H	0.914850	-0.474911	-0.071538
O78	O	0.918693	-0.007152	0.660890
H79	H	0.951532	-0.046852	0.701512
H80	H	0.734778	0.215040	0.185299
O81	O	0.918659	-0.007163	0.174812
H82	H	0.952416	0.027976	0.138892
H83	H	0.715268	-0.299341	-0.051431
O84	O	0.189559	-0.049738	-0.000247
H85	H	0.157957	-0.103461	-0.000261
H86	H	0.624700	-0.021848	-0.000151
H87	H	0.837032	-0.026916	0.428312
H88	H	0.463217	0.252727	-0.000186
H89	H	0.906219	0.007934	0.814274
O90	O	0.409037	-0.008676	-0.091389
H91	H	0.376104	-0.049977	-0.121907
H92	H	0.715054	-0.299903	0.051147
H93	H	0.374670	0.218713	0.079373
H94	H	0.837040	-0.026911	0.571273
H95	H	0.712988	-0.442976	-0.051732
O96	O	0.703290	-0.450350	0.067067
H97	H	0.737244	-0.497005	0.100823
O98	O	0.933237	-0.325935	-0.077725
H99	H	0.940069	-0.291668	-0.131050
H100	H	0.734827	0.215056	0.671389
O101	O	0.004539	0.264823	-0.000269
H102	H	0.036142	0.318546	-0.000273
O103	O	0.801586	0.270067	0.581678
H104	H	0.847985	0.275302	0.617544
O105	O	0.821065	-0.466702	0.142111
H106	H	0.805081	-0.409375	0.175977
O107	O	0.931117	-0.485589	0.075620
H108	H	0.961144	-0.467185	0.026210
O109	O	0.934120	-0.327522	0.074777
H110	H	0.945499	-0.288689	0.025499
H111	H	0.831457	-0.318638	-0.124863
O112	O	0.825976	-0.470006	-0.142810
H113	H	0.781058	-0.504680	-0.128795
