data_functionalizedCrystal
_audit_creation_method	'MofGen! by Chris Wilmer'
_symmetry_space_group_name_H-M	'P1'
_symmetry_Int_Tables_number	1
_symmetry_cell_setting	triclinic
loop_
_symmetry_equiv_pos_as_xyz
  x,y,z
_cell_length_a	23.532407
_cell_length_b	23.532407
_cell_length_c	8.965430
_cell_angle_alpha	90.004227
_cell_angle_beta	89.998440
_cell_angle_gamma	82.848678
loop_
_atom_site_label
_atom_site_type_symbol
_atom_site_fract_x
_atom_site_fract_y
_atom_site_fract_z
O1	O	0.755259	0.069131	0.123868
O2	O	1.255259	0.569131	0.623868
O3	O	0.589396	0.079134	0.123914
O4	O	1.089396	0.579134	0.623914
O5	O	0.677329	-0.008800	0.123862
O6	O	1.177329	0.491200	0.623862
O7	O	0.667326	0.157064	0.123920
O8	O	1.167326	0.657064	0.623920
O9	O	0.677322	-0.008794	-0.124216
O10	O	1.177322	0.491206	0.375784
O11	O	0.589389	0.079140	-0.124165
O12	O	1.089389	0.579140	0.375835
O13	O	0.755252	0.069136	-0.124211
O14	O	1.255252	0.569136	0.375789
Cu15	Cu	0.672320	0.074139	-0.146839
Cu16	Cu	1.172320	0.574139	0.353161
Cu17	Cu	0.672328	0.074132	0.146543
Cu18	Cu	1.172328	0.574132	0.646543
O19	O	0.667319	0.157070	-0.124159
O20	O	1.167319	0.657070	0.375841
C21	C	0.568176	0.078882	-0.000120
C22	C	1.068176	0.578882	0.499880
C23	C	0.504959	0.078116	-0.000104
C24	C	1.004959	0.578116	0.499896
C25	C	0.105856	0.125350	-0.000155
C26	C	0.605856	0.625350	0.499845
C27	C	0.046456	0.124638	-0.000164
C28	C	0.546456	0.624638	0.499836
O29	O	0.009711	0.168424	-0.000203
O30	O	0.509711	0.668424	0.499797
N31	N	0.023830	0.072362	-0.000180
N32	N	0.523830	0.572362	0.499820
C33	C	0.060607	0.020794	-0.000201
C34	C	0.560607	0.520794	0.499799
O35	O	0.035908	-0.023737	-0.000217
O36	O	0.535908	0.476263	0.499783
C37	C	0.120006	0.021506	-0.000202
C38	C	0.620006	0.521506	0.499798
C39	C	0.142629	0.073785	-0.000172
C40	C	0.642629	0.573785	0.499828
C41	C	0.128479	0.177625	-0.000126
C42	C	0.628479	0.677625	0.499874
C43	C	0.187876	0.178336	-0.000113
C44	C	0.687876	0.678336	0.499887
C45	C	0.224649	0.126772	-0.000130
C46	C	0.724649	0.626772	0.499870
C47	C	0.202025	0.074497	-0.000159
C48	C	0.702025	0.574497	0.499841
C49	C	0.156783	-0.030062	-0.000235
C50	C	0.656783	0.469938	0.499765
C51	C	0.216185	-0.029345	-0.000237
C52	C	0.716185	0.470655	0.499763
C53	C	0.238808	0.022934	-0.000206
C54	C	0.738808	0.522934	0.499794
C55	C	0.298194	0.023643	-0.000164
C56	C	0.798194	0.523643	0.499836
N57	N	0.320820	0.075920	-0.000149
N58	N	0.820820	0.575920	0.499851
C59	C	0.284048	0.127484	-0.000132
C60	C	0.784048	0.627484	0.499868
C61	C	-0.064135	0.019302	-0.000201
C62	C	0.435865	0.519302	0.499799
C63	C	-0.123533	0.018589	-0.000189
C64	C	0.376467	0.518589	0.499811
C65	C	-0.137680	0.122434	-0.000155
C66	C	0.362320	0.622434	0.499845
C67	C	-0.078281	0.123146	-0.000156
C68	C	0.421719	0.623146	0.499844
C69	C	-0.041509	0.071578	-0.000185
C70	C	0.458491	0.571578	0.499815
C71	C	0.408784	0.128974	-0.000105
C72	C	0.908784	0.628974	0.499895
C73	C	0.468186	0.129680	-0.000087
C74	C	0.968186	0.629680	0.499913
C75	C	0.482329	0.025836	-0.000129
C76	C	0.982329	0.525836	0.499871
C77	C	0.422932	0.025129	-0.000139
C78	C	0.922932	0.525129	0.499861
C79	C	0.386160	0.076702	-0.000132
C80	C	0.886160	0.576702	0.499868
O81	O	0.334974	-0.020119	-0.000131
O82	O	0.834974	0.479881	0.499869
O83	O	0.308755	0.172007	-0.000136
O84	O	0.808755	0.672007	0.499864
C85	C	0.677071	-0.030013	-0.000181
C86	C	1.177071	0.469987	0.499819
C87	C	0.676305	-0.093230	-0.000192
C88	C	1.176305	0.406770	0.499808
C89	C	0.723539	-0.492333	-0.000123
C90	C	1.223539	0.007667	0.499877
C91	C	0.722827	-0.551733	-0.000112
C92	C	1.222827	-0.051733	0.499888
O93	O	0.766613	-0.588478	-0.000069
O94	O	1.266613	-0.088478	0.499931
N95	N	0.670551	-0.574359	-0.000098
N96	N	1.170551	-0.074359	0.499902
C97	C	0.618983	-0.537582	-0.000081
C98	C	1.118983	-0.037582	0.499919
O99	O	0.574452	-0.562281	-0.000067
O100	O	1.074452	-0.062281	0.499933
C101	C	0.619695	-0.478182	-0.000082
C102	C	1.119695	0.021818	0.499918
C103	C	0.671974	-0.455560	-0.000111
C104	C	1.171974	0.044440	0.499889
C105	C	0.775814	-0.469710	-0.000150
C106	C	1.275814	0.030290	0.499850
C107	C	0.776525	-0.410313	-0.000164
C108	C	1.276525	0.089687	0.499836
C109	C	0.724961	-0.373540	-0.000152
C110	C	1.224961	0.126460	0.499848
C111	C	0.672685	-0.396164	-0.000125
C112	C	1.172685	0.103836	0.499875
C113	C	0.568127	-0.441406	-0.000054
C114	C	1.068127	0.058594	0.499946
C115	C	0.568844	-0.382004	-0.000054
C116	C	1.068844	0.117996	0.499946
C117	C	0.621123	-0.359381	-0.000083
C118	C	1.121123	0.140619	0.499917
C119	C	0.621832	-0.299995	-0.000127
C120	C	1.121832	0.200005	0.499873
N121	N	0.674109	-0.277368	-0.000140
N122	N	1.174109	0.222632	0.499860
C123	C	0.725673	-0.314141	-0.000153
C124	C	1.225673	0.185859	0.499847
C125	C	0.617491	-0.662324	-0.000077
C126	C	1.117491	-0.162324	0.499923
C127	C	0.616778	-0.721722	-0.000087
C128	C	1.116778	-0.221722	0.499913
C129	C	0.720623	-0.735869	-0.000114
C130	C	1.220623	-0.235869	0.499886
C131	C	0.721335	-0.676470	-0.000115
C132	C	1.221335	-0.176470	0.499885
C133	C	0.669767	-0.639698	-0.000090
C134	C	1.169767	-0.139698	0.499910
C135	C	0.727163	-0.189405	-0.000184
C136	C	1.227163	0.310595	0.499816
C137	C	0.727869	-0.130003	-0.000205
C138	C	1.227869	0.369997	0.499795
C139	C	0.624025	-0.115860	-0.000169
C140	C	1.124025	0.384140	0.499831
C141	C	0.623318	-0.175257	-0.000156
C142	C	1.123318	0.324743	0.499844
C143	C	0.674891	-0.212029	-0.000159
C144	C	1.174891	0.287971	0.499841
O145	O	0.578070	-0.263215	-0.000164
O146	O	1.078070	0.236785	0.499836
O147	O	0.770196	-0.289433	-0.000147
O148	O	1.270196	0.210567	0.499853
C149	C	0.776472	0.069388	-0.000173
C150	C	1.276472	0.569388	0.499827
C151	C	0.839689	0.070154	-0.000180
C152	C	1.339689	0.570154	0.499820
C153	C	0.667577	0.178283	-0.000113
C154	C	1.167577	0.678283	0.499887
C155	C	0.668343	0.241500	-0.000091
C156	C	1.168343	0.741500	0.499909
N157	N	0.672318	0.074143	-0.353188
N158	N	1.172318	0.574143	0.146812
C159	C	0.631639	0.114796	-0.450470
C160	C	1.131639	0.614796	0.049530
C161	C	0.683041	0.125556	-0.549894
C162	C	1.183041	0.625556	-0.049894
C163	C	0.620937	0.063388	-0.549892
C164	C	1.120937	0.563388	-0.049892
C165	C	0.723745	0.084928	-0.450423
C166	C	1.223745	0.584928	0.049577
C167	C	0.661608	0.022738	-0.450413
C168	C	1.161608	0.522738	0.049587
C169	C	0.713047	0.033476	-0.549791
C170	C	1.213047	0.533476	-0.049791
N171	N	0.672335	0.074123	0.352892
N172	N	1.172335	0.574123	0.852892
H173	H	0.246123	-0.071339	-0.000262
H174	H	0.746123	0.428661	0.499738
N175	N	0.650218	-0.031766	-0.395513
N176	N	1.150218	0.468234	0.104487
N177	N	0.686353	-0.061006	-0.315744
N178	N	1.186353	0.438994	0.184256
H179	H	0.678304	-0.099500	-0.276965
H180	H	1.178304	0.400500	0.223035
H181	H	0.575496	-0.632386	-0.000069
H182	H	1.075496	-0.132386	0.499931
H183	H	0.577479	0.054300	-0.593589
H184	H	1.077479	0.554300	-0.093589
H185	H	0.486602	0.172255	-0.000061
H186	H	0.986602	0.672255	0.499939
H187	H	-0.141947	-0.023982	-0.000191
H188	H	0.358053	0.476018	0.499809
N189	N	0.371237	0.181659	-0.000106
N190	N	0.871237	0.681659	0.499894
N191	N	0.391454	0.228326	-0.000081
N192	N	0.891454	0.728326	0.499919
H193	H	0.364937	0.265536	-0.000075
H194	H	0.864937	0.765536	0.499925
H195	H	0.206289	0.220908	-0.000088
H196	H	0.706289	0.720908	0.499912
H197	H	0.098544	0.219617	-0.000117
H198	H	0.598544	0.719617	0.499883
H199	H	0.817806	-0.499645	-0.000155
H200	H	1.317806	0.000355	0.499845
H201	H	-0.059867	0.165717	-0.000139
H202	H	0.440133	0.665717	0.499861
H203	H	0.582043	-0.085909	-0.000164
H204	H	1.082043	0.414091	0.499836
H205	H	0.692112	0.169019	-0.593590
H206	H	1.192112	0.669019	-0.093590
N207	N	0.588524	0.157965	-0.395775
N208	N	1.088524	0.657965	0.104225
N209	N	0.590542	0.209381	-0.427699
N210	N	1.090542	0.709381	0.072301
H211	H	0.560093	0.239870	-0.389072
H212	H	1.060093	0.739870	0.110928
N213	N	0.779848	-0.226952	-0.000182
N214	N	1.279848	0.273048	0.499818
N215	N	0.826515	-0.206735	-0.000207
N216	N	1.326515	0.293265	0.499793
H217	H	0.863725	-0.233252	-0.000213
H218	H	1.363725	0.266748	0.499787
H219	H	0.767213	0.094069	-0.406914
H220	H	1.267213	0.594069	0.093086
H221	H	-0.167632	0.164421	-0.000148
H222	H	0.332368	0.664421	0.499852
H223	H	0.747493	-0.000914	-0.593127
H224	H	1.247493	0.499086	-0.093127
H225	H	-0.034198	-0.022693	-0.000212
H226	H	0.465802	0.477307	0.499788
H227	H	0.138375	-0.072634	-0.000261
H228	H	0.638375	0.427366	0.499739
N229	N	0.399829	-0.028277	-0.000146
N230	N	0.899829	0.471723	0.499854
N231	N	0.432672	-0.074312	-0.000152
N232	N	0.932672	0.425688	0.499848
H233	H	0.416360	-0.112032	-0.000169
H234	H	0.916360	0.387968	0.499831
H235	H	0.512280	-0.016146	-0.000137
H236	H	1.012280	0.483854	0.499863
N237	N	0.563371	-0.744817	-0.000092
N238	N	1.063371	-0.244817	0.499908
N239	N	0.517338	-0.711971	-0.000090
N240	N	1.017338	-0.211971	0.499910
H241	H	0.479617	-0.728279	-0.000089
H242	H	0.979617	-0.228279	0.499911
N243	N	0.781274	-0.106895	-0.000261
N244	N	1.281274	0.393105	0.499739
N245	N	0.815954	-0.118275	-0.104846
N246	N	1.315954	0.381725	0.395154
H247	H	0.853671	-0.101957	-0.104887
H248	H	1.353671	0.398043	0.395113
N249	N	0.829933	-0.387219	-0.000188
N250	N	1.329933	0.112781	0.499812
N251	N	0.875964	-0.420068	-0.000193
N252	N	1.375964	0.079932	0.499807
H253	H	0.913687	-0.403762	-0.000204
H254	H	1.413687	0.096238	0.499796
N255	N	0.514719	-0.464495	-0.000022
N256	N	1.014719	0.035505	0.499978
N257	N	0.468688	-0.431645	0.000006
N258	N	0.968688	0.068355	0.500006
H259	H	0.430965	-0.447949	0.000034
H260	H	0.930965	0.052051	0.500034
N261	N	0.516167	-0.344441	0.000002
N262	N	1.016167	0.155559	0.500002
N263	N	0.481331	-0.346335	0.104598
N264	N	0.981331	0.153665	0.604598
H265	H	0.444129	-0.319807	0.104640
H266	H	0.944129	0.180193	0.604640
N267	N	0.774737	-0.653364	-0.000166
N268	N	1.274737	-0.153364	0.499834
N269	N	0.809416	-0.664740	-0.104755
N270	N	1.309416	-0.164740	0.395245
H271	H	0.847133	-0.648423	-0.104792
H272	H	1.347133	-0.148423	0.395208
N273	N	0.773302	-0.773431	-0.000096
N274	N	1.273302	-0.273431	0.499904
N275	N	0.819977	-0.753230	-0.000101
N276	N	1.319977	-0.253230	0.499899
H277	H	0.857180	-0.779757	-0.000087
H278	H	1.357180	-0.279757	0.499913
N279	N	0.569912	-0.198360	-0.000173
N280	N	1.069912	0.301640	0.499827
N281	N	0.523877	-0.165517	-0.000185
N282	N	1.023877	0.334483	0.499815
H283	H	0.486157	-0.181829	-0.000193
H284	H	0.986157	0.318171	0.499807
