data_functionalizedCrystal
_audit_creation_method	'MofGen! by Chris Wilmer'
_symmetry_space_group_name_H-M	'P1'
_symmetry_Int_Tables_number	1
_symmetry_cell_setting	triclinic
loop_
_symmetry_equiv_pos_as_xyz
  x,y,z
_cell_length_a	16.992695
_cell_length_b	16.974829
_cell_length_c	16.053789
_cell_angle_alpha	96.542606
_cell_angle_beta	92.721521
_cell_angle_gamma	87.025716
loop_
_atom_site_label
_atom_site_type_symbol
_atom_site_fract_x
_atom_site_fract_y
_atom_site_fract_z
O1	O	0.105947	1.061887	0.141178
O2	O	0.118010	0.831777	0.125632
O3	O	-0.002166	0.945909	0.133336
O4	O	0.226123	0.947755	0.133474
O5	O	-0.008078	0.939559	-0.005953
O6	O	0.112098	0.825427	-0.013656
O7	O	0.100035	1.055537	0.001889
Zn8	Zn	0.105128	0.939474	-0.027999
Zn9	Zn	0.112917	0.947840	0.155520
O10	O	0.220211	0.941405	-0.005815
C11	C	0.114484	0.799022	0.053989
C12	C	0.112777	0.710883	0.048035
C13	C	-0.034339	0.940361	0.063532
C14	C	-0.121396	0.933280	0.063053
C15	C	0.102848	0.214377	0.006366
C16	C	0.104452	0.297194	0.011962
C17	C	0.108471	0.342064	0.090688
C18	C	0.110894	0.304113	0.163822
C19	C	0.109295	0.221297	0.158225
C20	C	0.113602	0.590116	0.115571
C21	C	0.115197	0.672938	0.121163
C22	C	0.108757	0.666013	-0.030697
C23	C	0.107154	0.583196	-0.036288
C24	C	0.109582	0.545252	0.036846
N25	N	0.110108	0.426716	0.096411
N26	N	0.107950	0.460601	0.031122
C27	C	-0.171512	1.001605	0.067668
C28	C	-0.253310	0.994947	0.067227
C29	C	-0.284991	0.919963	0.062164
C30	C	-0.234868	0.851632	0.057551
C31	C	-0.153071	0.858291	0.057999
C32	C	-0.528639	0.892364	0.060311
C33	C	-0.610442	0.885709	0.059860
C34	C	-0.628879	1.029025	0.069538
C35	C	-0.547079	1.035678	0.069980
C36	C	-0.496964	0.967347	0.065372
N37	N	-0.368602	0.913155	0.061709
N38	N	-0.413354	0.974156	0.065832
C39	C	0.252384	0.946953	0.063992
C40	C	0.339441	0.954035	0.064475
C41	C	0.103561	1.088292	0.073534
C42	C	0.105269	1.176432	0.079494
N43	N	0.099812	0.933770	-0.153245
C44	C	0.145631	0.982889	-0.193614
C45	C	0.141906	0.978909	-0.281291
C46	C	0.092367	0.925806	-0.328596
C47	C	0.046543	0.876686	-0.288221
C48	C	0.050263	0.880670	-0.200546
C49	C	0.076124	0.908414	-0.591183
C50	C	0.072409	0.904432	-0.678864
C51	C	0.167771	1.006656	-0.671927
C52	C	0.171491	1.010632	-0.584251
C53	C	0.125664	0.961515	-0.543884
N54	N	0.088561	0.921736	-0.418215
N55	N	0.129466	0.965590	-0.454266
N56	N	0.118228	0.953550	0.280767
H57	H	0.099579	0.177849	-0.057742
C58	C	0.236554	1.080339	-0.265629
C59	C	0.192279	1.032895	-0.325665
H60	H	0.267657	1.113664	-0.293025
H61	H	0.201997	1.112108	-0.229391
H62	H	0.270045	1.047416	-0.233763
H63	H	0.158783	1.065818	-0.357526
H64	H	0.226840	1.001123	-0.361917
C65	C	-0.018501	0.806963	-0.606859
C66	C	0.025759	0.854417	-0.546819
H67	H	-0.049591	0.773622	-0.579466
H68	H	-0.051997	0.839872	-0.638722
H69	H	0.016071	0.775201	-0.643099
H70	H	-0.008814	0.886183	-0.510582
H71	H	0.059258	0.821504	-0.514941
H72	H	0.118477	0.709469	0.185275
H73	H	0.032068	0.861185	-0.717378
H74	H	-0.487844	0.836724	0.056558
H75	H	0.006203	0.833452	-0.326744
H76	H	-0.521292	1.096738	0.074103
C77	C	0.101816	0.453175	-0.112295
C78	C	0.102720	0.533877	-0.122826
H79	H	0.099065	0.422730	-0.165721
H80	H	0.148569	0.437873	-0.082242
H81	H	0.057190	0.444190	-0.081791
H82	H	0.147349	0.542863	-0.153325
H83	H	0.055962	0.549184	-0.152892
C84	C	0.114022	0.466249	0.174429
C85	C	0.116266	0.548414	0.195958
H86	H	0.115672	0.440503	0.224060
H87	H	0.066751	0.454403	0.142530
H88	H	0.158131	0.448115	0.142106
H89	H	0.072153	0.566549	0.228276
H90	H	0.163543	0.560266	0.227871
C91	C	0.109710	0.097419	0.217072
C92	C	0.111956	0.179584	0.238609
H93	H	0.111360	0.071669	0.266701
H94	H	0.062438	0.085576	0.185173
H95	H	0.153818	0.079287	0.184747
H96	H	0.067844	0.197716	0.270929
H97	H	0.159234	0.191432	0.270522
C98	C	-0.044364	0.779219	-0.216203
C99	C	-0.000099	0.826674	-0.156169
H100	H	-0.075454	0.745883	-0.188806
H101	H	-0.077860	0.812128	-0.248067
H102	H	-0.009795	0.747454	-0.252444
H103	H	-0.034668	0.858444	-0.119932
H104	H	0.033400	0.793762	-0.124292
C105	C	-0.197960	1.142597	0.077204
C106	C	-0.136693	1.084032	0.073240
H107	H	-0.176463	1.193484	0.080652
H108	H	-0.231541	1.134808	0.028256
H109	H	-0.227416	1.139222	0.125402
H110	H	-0.107239	1.087403	0.025038
H111	H	-0.103097	1.091824	0.122192
H112	H	0.106783	0.696916	-0.090239
H113	H	0.205081	1.046645	-0.704804
H114	H	-0.669691	1.084656	0.073291
C115	C	-0.616885	0.764776	0.123094
C116	C	-0.645272	0.803283	0.054305
H117	H	-0.638394	0.713895	0.119666
H118	H	-0.561004	0.758955	0.122696
H119	H	-0.632017	0.795358	0.173573
H120	H	-0.630135	0.772703	0.003826
H121	H	-0.701165	0.809100	0.054696
C122	C	0.032093	0.321432	-0.115439
C123	C	0.101786	0.338902	-0.068424
H124	H	0.030448	0.347184	-0.165066
H125	H	0.030570	0.265695	-0.130032
H126	H	-0.012004	0.339582	-0.083104
H127	H	0.145884	0.320746	-0.100757
H128	H	0.103317	0.394650	-0.053832
C129	C	0.183778	0.396628	0.257904
C130	C	0.115312	0.353436	0.250358
H131	H	0.186499	0.427081	0.311327
H132	H	0.228703	0.361031	0.252362
H133	H	0.182555	0.431076	0.215146
H134	H	0.116537	0.318984	0.293113
H135	H	0.070375	0.389038	0.255908
C136	C	-0.143059	0.715962	0.048381
C137	C	-0.097980	0.783185	0.052923
H138	H	-0.109047	0.669594	0.045246
H139	H	-0.173281	0.718561	0.096977
H140	H	-0.177412	0.714134	-0.000169
H141	H	-0.063631	0.785016	0.101478
H142	H	-0.067745	0.780585	0.004323
H143	H	-0.260669	0.790578	0.053434
H144	H	0.185976	1.026126	-0.155104
C145	C	-0.352937	1.073876	0.143950
C146	C	-0.308394	1.070057	0.072303
H147	H	-0.386938	1.120252	0.147087
H148	H	-0.383512	1.028274	0.140867
H149	H	-0.318566	1.075706	0.192487
H150	H	-0.342765	1.068221	0.023765
H151	H	-0.277816	1.115670	0.075379
C152	C	0.265368	1.111288	-0.586205
C153	C	0.225940	1.069011	-0.532255
H154	H	0.298980	1.147330	-0.554102
H155	H	0.295965	1.075273	-0.622729
H156	H	0.227897	1.139943	-0.618361
H157	H	0.263411	1.040351	-0.500103
H158	H	0.195341	1.105031	-0.495716
