data_functionalizedCrystal
_audit_creation_method	'MofGen! by Chris Wilmer'
_symmetry_space_group_name_H-M	'P1'
_symmetry_Int_Tables_number	1
_symmetry_cell_setting	triclinic
loop_
_symmetry_equiv_pos_as_xyz
  x,y,z
_cell_length_a	18.366186
_cell_length_b	19.288835
_cell_length_c	10.489711
_cell_angle_alpha	96.174515
_cell_angle_beta	90.002491
_cell_angle_gamma	89.982476
loop_
_atom_site_label
_atom_site_type_symbol
_atom_site_fract_x
_atom_site_fract_y
_atom_site_fract_z
O1	O	0.060687	-0.922423	0.158929
O2	O	0.560687	-0.422423	0.658929
O3	O	0.060656	-0.720302	0.180433
O4	O	0.560656	-0.220302	0.680433
O5	O	0.060674	-0.825972	-0.016024
O6	O	0.560674	-0.325972	0.483976
O7	O	0.060669	-0.816752	0.355386
O8	O	0.560669	-0.316752	0.855386
O9	O	-0.060425	-0.825954	-0.016034
O10	O	0.439575	-0.325954	0.483966
O11	O	-0.060443	-0.720284	0.180423
O12	O	0.439557	-0.220284	0.680423
O13	O	-0.060413	-0.922404	0.158919
O14	O	0.439587	-0.422404	0.658919
Zn15	Zn	-0.079655	-0.821341	0.169670
Zn16	Zn	0.420345	-0.321341	0.669670
Zn17	Zn	0.079899	-0.821365	0.169683
Zn18	Zn	0.579899	-0.321365	0.669683
O19	O	-0.060431	-0.816734	0.355377
O20	O	0.439569	-0.316734	0.855377
C21	C	0.000103	-0.694411	0.179743
C22	C	0.500103	-0.194411	0.679743
C23	C	0.000091	-0.617293	0.177685
C24	C	0.500091	-0.117293	0.677685
N25	N	-0.188546	-0.821330	0.169660
N26	N	0.311454	-0.321330	0.669660
C27	C	0.066103	-0.581093	0.176702
C28	C	0.566103	-0.081093	0.676702
C29	C	0.066111	-0.508633	0.174754
C30	C	0.566111	-0.008633	0.674754
C31	C	0.000102	-0.472378	0.173764
C32	C	0.500102	0.027622	0.673764
C33	C	-0.065919	-0.508586	0.174754
C34	C	0.434081	-0.008586	0.674754
C35	C	-0.065924	-0.581044	0.176715
C36	C	0.434076	-0.081044	0.676715
C37	C	-0.050461	-0.362525	0.095945
C38	C	0.449539	0.137475	0.595945
C39	C	-0.050453	-0.290069	0.093977
C40	C	0.449547	0.209931	0.593977
C41	C	0.000116	-0.248893	0.167722
C42	C	0.500116	0.251107	0.667722
C43	C	0.050689	-0.280184	0.243420
C44	C	0.550689	0.219816	0.743420
C45	C	0.050683	-0.352641	0.245380
C46	C	0.550683	0.147359	0.745380
C47	C	0.000100	-0.393809	0.171638
C48	C	0.500100	0.106191	0.671638
C49	C	0.066141	-0.134123	0.164629
C50	C	0.566141	0.365877	0.664629
C51	C	0.066145	-0.061661	0.162689
C52	C	0.566145	0.438339	0.662689
C53	C	-0.065886	-0.061617	0.162677
C54	C	0.434114	0.438383	0.662677
C55	C	-0.065889	-0.134077	0.164629
C56	C	0.434111	0.365923	0.664629
C57	C	0.000126	-0.170326	0.165599
C58	C	0.500126	0.329674	0.665599
C59	C	-0.226639	-0.868136	0.082712
C60	C	0.273361	-0.368136	0.582712
C61	C	-0.302866	-0.868141	0.082706
C62	C	0.197134	-0.368141	0.582706
C63	C	-0.340999	-0.821345	0.169671
C64	C	0.159001	-0.321345	0.669671
C65	C	-0.302897	-0.774530	0.256626
C66	C	0.197103	-0.274530	0.756626
C67	C	-0.226671	-0.774522	0.256621
C68	C	0.273329	-0.274522	0.756621
C69	C	-0.461762	-0.812820	0.285888
C70	C	0.038238	-0.312820	0.785888
C71	C	-0.537987	-0.812832	0.285894
C72	C	-0.037987	-0.312832	0.785894
C73	C	-0.576106	-0.821365	0.169687
C74	C	-0.076106	-0.321365	0.669687
C75	C	-0.537992	-0.829900	0.053468
C76	C	-0.037992	-0.329900	0.553468
C77	C	-0.461765	-0.829893	0.053462
C78	C	0.038235	-0.329893	0.553462
C79	C	-0.423654	-0.821348	0.169686
C80	C	0.076346	-0.321348	0.669686
C81	C	-0.696854	-0.868179	0.082725
C82	C	-0.196854	-0.368179	0.582725
C83	C	-0.773083	-0.868179	0.082717
C84	C	-0.273083	-0.368179	0.582717
C85	C	-0.773112	-0.774571	0.256649
C86	C	-0.273112	-0.274571	0.756649
C87	C	-0.696885	-0.774568	0.256645
C88	C	-0.196885	-0.274568	0.756645
C89	C	-0.658760	-0.821376	0.169685
C90	C	-0.158760	-0.321376	0.669685
N91	N	0.188790	-0.821382	0.169682
N92	N	0.688790	-0.321382	0.669682
C93	C	0.000126	-0.825271	-0.063546
C94	C	0.500126	-0.325271	0.436454
C95	C	0.000132	-0.823201	-0.205130
C96	C	0.500132	-0.323201	0.294870
C97	C	0.000137	0.051706	0.159618
C98	C	0.500137	0.551706	0.659618
C99	C	0.000136	-0.025411	0.161701
C100	C	0.500136	0.474589	0.661701
C101	C	0.000135	-0.886748	-0.388966
C102	C	0.500135	-0.386748	0.111034
C103	C	-0.059578	-0.854996	-0.296102
C104	C	0.440422	-0.354996	0.203898
C105	C	0.059817	-0.854997	-0.296117
C106	C	0.559817	-0.354997	0.203883
C107	C	-0.059644	-0.787726	-0.364519
C108	C	0.440356	-0.287726	0.135481
C109	C	0.059804	-0.787736	-0.364543
C110	C	0.559804	-0.287736	0.135457
C111	C	0.000077	-0.755936	-0.271706
C112	C	0.500077	-0.255936	0.228294
C113	C	0.000119	-0.817435	0.402898
C114	C	0.500119	-0.317435	0.902898
C115	C	0.000118	-0.819505	0.544482
C116	C	0.500118	-0.319505	1.044482
H117	H	0.119859	-0.610603	0.177491
H118	H	0.619859	-0.110603	0.677491
F119	F	-0.104287	-0.406340	0.017452
F120	F	0.395713	0.093660	0.517452
H121	H	-0.804159	-0.736467	0.327453
H122	H	-0.304159	-0.236467	0.827453
H123	H	-0.119681	-0.610518	0.177517
H124	H	0.380319	-0.110518	0.677517
H125	H	0.119868	-0.479153	0.173955
H126	H	0.619868	0.020847	0.673955
F127	F	0.000070	-0.958986	-0.455566
F128	F	0.500070	-0.458986	0.044434
H129	H	0.091859	-0.378115	0.307018
H130	H	0.591859	0.121885	0.807018
H131	H	-0.091628	-0.264598	0.032333
H132	H	0.408372	0.235402	0.532333
F133	F	0.104510	-0.236367	0.321915
F134	F	0.604510	0.263633	0.821915
H135	H	0.110281	-0.759315	-0.394910
H136	H	0.610281	-0.259315	0.105090
H137	H	0.119895	-0.163638	0.165432
H138	H	0.619895	0.336362	0.665432
F139	F	0.125799	-0.892210	-0.256491
F140	F	0.625799	-0.392210	0.243509
H141	H	-0.665811	-0.906291	0.011912
H142	H	-0.165811	-0.406291	0.511912
H143	H	-0.333887	-0.906257	0.011899
H144	H	0.166113	-0.406257	0.511899
F145	F	-0.136149	-0.172606	0.165669
F146	F	0.363851	0.327394	0.665669
H147	H	-0.665868	-0.736457	0.327452
H148	H	-0.165868	-0.236457	0.827452
H149	H	-0.110052	-0.883441	-0.265768
H150	H	0.389948	-0.383441	0.234232
F151	F	-0.125704	-0.750560	-0.403942
F152	F	0.374296	-0.250560	0.096058
H153	H	0.119903	-0.032188	0.161896
H154	H	0.619903	0.467812	0.661896
F155	F	-0.136139	-0.023036	0.161634
F156	F	0.363861	0.476964	0.661634
F157	F	-0.136170	-0.469999	0.173707
F158	F	0.363830	0.030001	0.673707
F159	F	-0.421204	-0.838970	-0.070223
F160	F	0.078796	-0.338970	0.429777
H161	H	0.000035	-0.700618	-0.220978
H162	H	0.500035	-0.200618	0.279022
H163	H	-0.569014	-0.805887	0.380527
H164	H	-0.069014	-0.305887	0.880527
H165	H	-0.195600	-0.906248	0.011900
H166	H	0.304400	-0.406248	0.511900
H167	H	-0.430731	-0.805859	0.380524
H168	H	0.069269	-0.305859	0.880524
H169	H	-0.804098	-0.906292	0.011906
H170	H	-0.304098	-0.406292	0.511906
H171	H	-0.569027	-0.836848	-0.041160
H172	H	-0.069027	-0.336848	0.458840
F173	F	-0.343481	-0.724725	0.349177
F174	F	0.156519	-0.224725	0.849177
H175	H	-0.195655	-0.736406	0.327426
H176	H	0.304345	-0.236406	0.827426
