data_functionalizedCrystal
_audit_creation_method	'MofGen! by Chris Wilmer'
_symmetry_space_group_name_H-M	'P1'
_symmetry_Int_Tables_number	1
_symmetry_cell_setting	triclinic
loop_
_symmetry_equiv_pos_as_xyz
  x,y,z
_cell_length_a	13.897449
_cell_length_b	13.897447
_cell_length_c	17.077396
_cell_angle_alpha	90.026095
_cell_angle_beta	90.018441
_cell_angle_gamma	90.020810
loop_
_atom_site_label
_atom_site_type_symbol
_atom_site_fract_x
_atom_site_fract_y
_atom_site_fract_z
Zn1	Zn	1.474668	-0.383982	0.443834
Zn2	Zn	1.974668	0.116018	0.943834
Zn3	Zn	1.474564	-0.545295	0.312573
Zn4	Zn	1.974564	-0.045295	0.812573
Zn5	Zn	1.313364	-0.384019	0.312584
Zn6	Zn	1.813364	0.115981	0.812584
Zn7	Zn	1.313334	-0.545240	0.443799
Zn8	Zn	1.813334	-0.045240	0.943799
O9	O	1.393983	-0.464634	0.378197
O10	O	1.893983	0.035366	0.878197
O11	O	1.609636	-0.405388	0.426431
O12	O	2.109636	0.094612	0.926431
O13	O	1.453149	-0.523939	0.202727
O14	O	1.953149	-0.023939	0.702727
O15	O	1.334818	-0.249032	0.330013
O16	O	1.834818	0.250968	0.830013
O17	O	1.609559	-0.523903	0.329995
O18	O	2.109559	-0.023903	0.829995
O19	O	1.453327	-0.249005	0.426442
O20	O	1.953327	0.250995	0.926442
O21	O	1.334716	-0.405451	0.202735
O22	O	1.834716	0.094549	0.702735
O23	O	1.178378	-0.405398	0.329980
O24	O	1.678378	0.094602	0.829980
O25	O	1.334767	-0.523811	0.553651
O26	O	1.834767	-0.023811	1.053651
O27	O	1.178357	-0.523847	0.426383
O28	O	1.678357	-0.023847	0.926383
O29	O	1.453298	-0.405335	0.553676
O30	O	1.953298	0.094665	1.053676
O31	O	1.453120	-0.680269	0.329961
O32	O	1.953120	-0.180269	0.829961
O33	O	1.334665	-0.680229	0.426373
O34	O	1.834665	-0.180229	0.926373
C35	C	1.143368	-0.464621	0.378179
C36	C	1.643368	0.035379	0.878179
C37	C	1.036154	-0.464639	0.378190
C38	C	1.536154	0.035361	0.878190
C39	C	0.839859	-0.464642	0.378211
C40	C	1.339859	0.035358	0.878211
C41	C	0.949092	-0.464637	0.378197
C42	C	1.449092	0.035363	0.878197
C43	C	1.393904	-0.715248	0.378179
C44	C	1.893904	-0.215248	0.878179
C45	C	1.393959	-0.822462	0.378198
C46	C	1.893959	-0.322462	0.878198
C47	C	1.394005	-0.909532	0.378216
C48	C	1.894005	-0.409532	0.878216
C49	C	1.394073	-1.018764	0.378236
C50	C	1.894073	-0.518764	0.878236
C51	C	1.645576	-0.464648	0.378216
C52	C	2.145576	0.035352	0.878216
C53	C	1.752789	-0.464653	0.378224
C54	C	2.252789	0.035347	0.878224
C55	C	1.394041	-0.464563	0.582942
C56	C	1.894041	0.035437	1.082942
C57	C	1.394066	-0.464533	0.670192
C58	C	1.894066	0.035467	1.170192
C59	C	1.394088	-0.213041	0.378233
C60	C	1.894088	0.286959	0.878233
C61	C	1.394132	-0.105827	0.378248
C62	C	1.894132	0.394173	0.878248
C63	C	1.393980	-0.464635	0.174250
C64	C	1.893980	0.035365	0.674250
C65	C	1.394142	-0.464394	0.087000
C66	C	1.894142	0.035606	0.587000
C67	C	1.455787	-0.402837	0.711196
C68	C	1.955787	0.097163	1.211196
C69	C	1.455799	-0.402805	0.793177
C70	C	1.955799	0.097195	1.293177
C71	C	1.394093	-0.464474	0.834151
C72	C	1.894093	0.035526	1.334151
C73	C	1.332365	-0.526172	0.793141
C74	C	1.832365	-0.026172	1.293141
C75	C	1.332349	-0.526199	0.711162
C76	C	1.832349	-0.026199	1.211162
C77	C	1.332404	-0.526114	0.964011
C78	C	1.832404	-0.026114	1.464011
C79	C	1.332420	-0.526089	1.045996
C80	C	1.832420	-0.026089	1.545996
C81	C	1.455854	-0.402720	1.046026
C82	C	1.955854	0.097280	1.546026
C83	C	1.455838	-0.402747	0.964047
C84	C	1.955838	0.097253	1.464047
C85	C	1.394110	-0.464447	0.923042
C86	C	1.894110	0.035553	1.423042
H87	H	1.506039	-0.352622	0.677841
H88	H	2.006039	0.147378	1.177841
C89	C	1.264488	-0.594008	0.838207
C90	C	1.764488	-0.094008	1.338207
H91	H	1.227720	-0.630750	0.802042
H92	H	1.727720	-0.130750	1.302042
H93	H	1.301374	-0.636029	0.870184
H94	H	1.801374	-0.136029	1.370184
H95	H	1.222478	-0.557092	0.870187
H96	H	1.722478	-0.057092	1.370187
C97	C	1.264479	-0.594087	0.666057
C98	C	1.764479	-0.094087	1.166057
H99	H	1.227744	-0.630824	0.702199
H100	H	1.727744	-0.130824	1.202199
H101	H	1.222454	-0.557217	0.634068
H102	H	1.722454	-0.057217	1.134068
H103	H	1.301379	-0.636125	0.634085
H104	H	1.801379	-0.136125	1.134085
H105	H	1.282172	-0.576303	1.079355
H106	H	1.782172	-0.076303	1.579355
C107	C	1.523698	-0.334945	0.838279
C108	C	2.023698	0.165055	1.338279
H109	H	1.560454	-0.298230	0.802135
H110	H	2.060454	0.201770	1.302135
H111	H	1.486828	-0.292900	0.870260
H112	H	1.986828	0.207100	1.370260
H113	H	1.565717	-0.371844	0.870258
H114	H	2.065717	0.128156	1.370258
H115	H	1.506090	-0.352536	0.930688
H116	H	2.006090	0.147464	1.430688
C117	C	1.523764	-0.334863	1.091127
C118	C	2.023764	0.165137	1.591127
H119	H	1.514934	-0.343674	1.145819
H120	H	2.014934	0.156326	1.645819
H121	H	1.588559	-0.349005	1.077694
H122	H	2.088559	0.150995	1.577694
H123	H	1.509683	-0.270048	1.077704
H124	H	2.009683	0.229952	1.577704
H125	H	1.282123	-0.576342	0.930627
H126	H	1.782123	-0.076342	1.430627
