data_functionalizedCrystal
_audit_creation_method	'MofGen! by Chris Wilmer'
_symmetry_space_group_name_H-M	'P1'
_symmetry_Int_Tables_number	1
_symmetry_cell_setting	triclinic
loop_
_symmetry_equiv_pos_as_xyz
  x,y,z
_cell_length_a	15.538191
_cell_length_b	10.723024
_cell_length_c	9.798715
_cell_angle_alpha	89.997773
_cell_angle_beta	89.995125
_cell_angle_gamma	65.869982
loop_
_atom_site_label
_atom_site_type_symbol
_atom_site_fract_x
_atom_site_fract_y
_atom_site_fract_z
O1	O	-1.247300	0.404096	0.113514
O2	O	-0.973969	0.260435	0.113511
O3	O	-1.116939	0.516769	0.113508
O4	O	-1.104330	0.147762	0.113518
O5	O	-1.116929	0.516766	-0.113475
O6	O	-0.973959	0.260432	-0.113471
O7	O	-1.247289	0.404092	-0.113468
Zn8	Zn	-1.110622	0.332262	-0.149508
Zn9	Zn	-1.110636	0.332266	0.149551
O10	O	-1.104319	0.147759	-0.113465
C11	C	-0.938965	0.245403	0.000019
C12	C	-0.834681	0.200632	0.000018
C13	C	-1.116016	0.562841	0.000018
C14	C	-1.113271	0.700121	0.000023
C15	C	-1.282293	0.419125	0.000027
C16	C	-1.386577	0.463896	0.000037
C17	C	-0.544016	0.645424	0.000027
C18	C	-0.446022	0.603323	0.000029
C19	C	-0.425110	0.366515	0.000035
C20	C	-0.523104	0.408596	0.000027
C21	C	-0.582550	0.548052	0.000024
C22	C	-0.561637	0.311224	0.000023
C23	C	-0.659623	0.353303	0.000022
C24	C	-0.719075	0.492753	0.000023
C25	C	-0.680535	0.590131	0.000022
C26	C	-0.502190	0.171769	0.000036
C27	C	-0.540723	0.074397	0.000032
C28	C	-0.638710	0.116475	0.000021
C29	C	-0.698162	0.255925	0.000023
C30	C	-0.677250	0.019097	0.000022
C31	C	-0.775235	0.061175	0.000020
C32	C	-0.796148	0.298003	0.000021
C33	C	-1.105242	0.101687	0.000028
C34	C	-1.107987	-0.035593	0.000032
N35	N	-1.110619	0.332262	-0.353608
C36	C	-1.193269	0.812246	0.000026
C37	C	-1.190434	0.954133	0.000031
C38	C	-1.165387	0.285330	-0.421383
C39	C	-1.165402	0.285338	-0.578545
N40	N	-1.110646	0.332279	0.353651
H41	H	-0.844552	0.411562	0.000011
H42	H	-1.063745	0.372454	-0.411935
O43	O	-1.286781	0.800286	0.000033
H44	H	-1.291989	0.744052	-0.092486
O45	O	-1.227485	0.232097	-0.344130
H46	H	-1.267611	0.197728	-0.417684
H47	H	-1.063751	0.372454	-0.588073
O48	O	-0.824762	0.538154	0.000003
H49	H	-0.846102	0.498134	0.092508
O50	O	-0.744665	0.740545	0.000016
H51	H	-0.701411	0.801192	0.000023
H52	H	-1.039499	0.868183	0.000020
O53	O	-1.281159	1.081590	0.000031
H54	H	-1.264695	1.173031	0.000042
O55	O	-1.019761	0.712086	0.000027
H56	H	-0.979241	0.661683	-0.092485
O57	O	-1.227523	0.232127	-0.655742
H58	H	-1.183026	0.144854	-0.720867
O59	O	-0.608149	0.795837	0.000011
H60	H	-0.594375	0.844554	0.092526
O61	O	-0.404459	0.708353	0.000014
H62	H	-0.428288	0.773220	0.092520
O63	O	-0.360987	0.216108	0.000017
H64	H	-0.315841	0.191262	0.092524
H65	H	-0.422404	0.137514	0.000041
H66	H	-0.492309	-0.039148	0.000040
H67	H	-0.806609	-0.018115	0.000005
H68	H	-0.628835	-0.094448	0.000038
