data_functionalizedCrystal
_audit_creation_method	'MofGen! by Chris Wilmer'
_symmetry_space_group_name_H-M	'P1'
_symmetry_Int_Tables_number	1
_symmetry_cell_setting	triclinic
loop_
_symmetry_equiv_pos_as_xyz
  x,y,z
_cell_length_a	19.188925
_cell_length_b	19.188930
_cell_length_c	13.330367
_cell_angle_alpha	89.990231
_cell_angle_beta	89.991499
_cell_angle_gamma	83.143665
loop_
_atom_site_label
_atom_site_type_symbol
_atom_site_fract_x
_atom_site_fract_y
_atom_site_fract_z
O1	O	0.926150	0.087149	-0.083456
O2	O	0.722839	0.098887	-0.083455
O3	O	0.830362	-0.008638	-0.083436
O4	O	0.818627	0.194674	-0.083475
O5	O	0.830346	-0.008640	0.083411
O6	O	0.722823	0.098885	0.083392
O7	O	0.926135	0.087147	0.083391
Cu8	Cu	0.824477	0.093016	0.098626
Cu9	Cu	0.824496	0.093018	-0.098690
O10	O	0.818612	0.194672	0.083372
C11	C	0.696820	0.098507	-0.000031
C12	C	0.619315	0.097367	-0.000030
C13	C	0.829974	-0.034650	-0.000010
C14	C	0.828833	-0.112154	-0.000001
C15	C	0.057545	0.152831	-0.000043
C16	C	0.130368	0.153908	-0.000048
C17	C	0.175302	0.090816	-0.000034
C18	C	0.147408	0.026642	-0.000041
C19	C	0.074586	0.025568	-0.000045
N20	N	0.295974	0.045139	0.056770
N21	N	0.365152	0.046164	0.056777
C22	C	0.394712	0.094050	-0.000023
N23	N	0.352480	0.140882	-0.056817
N24	N	0.283296	0.139859	-0.056819
C25	C	0.254267	0.091974	-0.000030
C26	C	0.501561	0.159386	-0.000030
C27	C	0.574385	0.160460	-0.000042
C28	C	0.591425	0.033193	-0.000024
C29	C	0.518601	0.032121	-0.000022
C30	C	0.473673	0.095220	-0.000021
C31	C	0.891924	-0.157079	0.000003
C32	C	0.890852	-0.229903	-0.000013
C33	C	0.826686	-0.257799	-0.000013
C34	C	0.763587	-0.212864	-0.000023
C35	C	0.764660	-0.140041	-0.000017
N36	N	0.777633	-0.365803	0.056769
N37	N	0.776618	-0.434982	0.056765
C38	C	0.823448	-0.477207	-0.000033
N39	N	0.871343	-0.447642	-0.056815
N40	N	0.872360	-0.378457	-0.056807
C41	C	0.825515	-0.336761	-0.000020
C42	C	0.885381	-0.601097	-0.000048
C43	C	0.884307	-0.673922	-0.000070
C44	C	0.757040	-0.656880	-0.000070
C45	C	0.758116	-0.584057	-0.000058
C46	C	0.822289	-0.556170	-0.000042
C47	C	0.952154	0.087527	-0.000035
C48	C	1.029658	0.088666	-0.000043
C49	C	0.819000	0.220684	-0.000057
C50	C	0.820140	0.298188	-0.000072
N51	N	0.824470	0.093013	0.237407
N52	N	0.824509	0.093015	-0.237472
C53	C	0.776883	0.140612	0.710022
C54	C	0.872128	0.045419	0.710007
C55	C	0.872120	0.045417	0.604988
C56	C	0.824493	0.093014	0.552482
C57	C	0.776875	0.140612	0.604994
C58	C	0.919743	-0.002176	0.552469
C59	C	0.919737	-0.002179	0.447444
C60	C	0.872107	0.045414	0.394935
C61	C	0.824485	0.093015	0.447454
C62	C	0.776859	0.140611	0.394947
C63	C	0.729234	0.188208	0.447464
C64	C	0.729244	0.188206	0.552486
C65	C	0.872096	0.045417	0.289914
C66	C	0.776851	0.140612	0.289919
H67	H	0.020968	0.204211	-0.000046
H68	H	0.495896	-0.020129	-0.000017
H69	H	0.942230	-0.266488	-0.000013
Cl70	Cl	0.165434	0.234579	-0.000045
Cl71	Cl	0.966054	-0.566035	-0.000022
Cl72	Cl	0.717011	0.200443	0.776037
H73	H	0.935686	-0.710500	-0.000072
Cl74	Cl	0.203896	-0.052674	-0.000027
Cl75	Cl	0.685339	-0.083561	-0.000022
H76	H	0.910907	0.006671	0.752761
Cl77	Cl	0.972598	-0.122025	-0.000005
H78	H	0.711342	-0.235581	-0.000026
H79	H	0.704794	-0.679592	-0.000076
H80	H	0.706740	-0.547478	-0.000056
H81	H	0.738065	0.179368	0.247175
H82	H	0.464978	0.210765	-0.000031
Cl83	Cl	0.669367	0.248046	0.381445
Cl84	Cl	0.669380	0.248040	0.618508
Cl85	Cl	0.979618	-0.062005	0.618474
Cl86	Cl	0.979604	-0.062016	0.381430
Cl87	Cl	0.039528	-0.055104	-0.000048
Cl88	Cl	0.931967	-0.014411	0.223900
H89	H	0.597088	0.212713	-0.000050
H90	H	0.628010	-0.018178	-0.000021
