data_functionalizedCrystal
_audit_creation_method	'MofGen! by Chris Wilmer'
_symmetry_space_group_name_H-M	'P1'
_symmetry_Int_Tables_number	1
_symmetry_cell_setting	triclinic
loop_
_symmetry_equiv_pos_as_xyz
  x,y,z
_cell_length_a	17.077404
_cell_length_b	25.639240
_cell_length_c	17.077396
_cell_angle_alpha	90.026057
_cell_angle_beta	90.019501
_cell_angle_gamma	90.032284
loop_
_atom_site_label
_atom_site_type_symbol
_atom_site_fract_x
_atom_site_fract_y
_atom_site_fract_z
Zn1	Zn	1.200005	-0.208148	0.443856
Zn2	Zn	1.700005	0.291852	0.943856
Zn3	Zn	1.199891	-0.295585	0.312595
Zn4	Zn	1.699891	0.204415	0.812595
Zn5	Zn	1.068736	-0.208166	0.312604
Zn6	Zn	1.568736	0.291834	0.812604
Zn7	Zn	1.068683	-0.295554	0.443819
Zn8	Zn	1.568683	0.204446	0.943819
O9	O	1.134329	-0.251863	0.378219
O10	O	1.634329	0.248137	0.878219
O11	O	1.309836	-0.219752	0.426456
O12	O	1.809836	0.280248	0.926456
O13	O	1.182467	-0.284010	0.202750
O14	O	1.682467	0.215990	0.702750
O15	O	1.086219	-0.134998	0.330034
O16	O	1.586219	0.365002	0.830034
O17	O	1.309753	-0.283992	0.330019
O18	O	1.809753	0.216008	0.830019
O19	O	1.182661	-0.134985	0.426464
O20	O	1.682661	0.365015	0.926464
O21	O	1.086109	-0.219783	0.202756
O22	O	1.586109	0.280217	0.702756
O23	O	0.958882	-0.219753	0.329998
O24	O	1.458882	0.280247	0.829998
O25	O	1.086129	-0.283939	0.553671
O26	O	1.586129	0.216061	1.053671
O27	O	0.958844	-0.283957	0.426401
O28	O	1.458844	0.216043	0.926401
O29	O	1.182610	-0.219722	0.553698
O30	O	1.682610	0.280278	1.053698
O31	O	1.182416	-0.368746	0.329984
O32	O	1.682416	0.131254	0.829984
O33	O	1.086018	-0.368724	0.426393
O34	O	1.586018	0.131276	0.926393
C35	C	0.930381	-0.251854	0.378197
C36	C	1.430381	0.248146	0.878197
C37	C	0.843131	-0.251862	0.378206
C38	C	1.343131	0.248138	0.878206
C39	C	0.802141	-0.285344	0.428323
C40	C	1.302141	0.214656	0.928323
C41	C	0.720161	-0.285345	0.428335
C42	C	1.220161	0.214655	0.928335
C43	C	0.679172	-0.251867	0.378227
C44	C	1.179172	0.248133	0.878227
C45	C	0.720167	-0.218382	0.328108
C46	C	1.220167	0.281618	0.828108
C47	C	0.802146	-0.218378	0.328100
C48	C	1.302146	0.281622	0.828100
C49	C	0.549297	-0.218392	0.328127
C50	C	1.049297	0.281608	0.828127
C51	C	0.467313	-0.218396	0.328134
C52	C	0.967313	0.281604	0.828134
C53	C	0.467312	-0.285358	0.428362
C54	C	0.967312	0.214642	0.928362
C55	C	0.549291	-0.285355	0.428354
C56	C	1.049291	0.214645	0.928354
C57	C	0.590281	-0.251871	0.378234
C58	C	1.090281	0.248129	0.878234
C59	C	1.134220	-0.387706	0.378201
C60	C	1.634220	0.112294	0.878201
C61	C	1.134246	-0.445820	0.378219
C62	C	1.634246	0.054180	0.878219
C63	C	1.184542	-0.696955	0.428481
C64	C	1.684542	-0.196955	0.928481
C65	C	1.184518	-0.642351	0.428475
C66	C	1.684518	-0.142351	0.928475
O67	O	1.227191	-0.614064	0.471184
O68	O	1.727191	-0.114064	0.971184
N69	N	1.134332	-0.615094	0.378229
N70	N	1.634332	-0.115094	0.878229
C71	C	1.084171	-0.642444	0.327979
C72	C	1.584171	-0.142444	0.827979
O73	O	1.041482	-0.614246	0.285240
O74	O	1.541482	-0.114246	0.785240
C75	C	1.084199	-0.697047	0.327982
C76	C	1.584199	-0.197047	0.827982
C77	C	1.134383	-0.724301	0.378237
C78	C	1.634383	-0.224301	0.878237
C79	C	1.234722	-0.724209	0.478732
C80	C	1.734722	-0.224209	0.978732
C81	C	1.234745	-0.778810	0.478739
C82	C	1.734745	-0.278810	0.978739
C83	C	1.184586	-0.806156	0.428495
C84	C	1.684586	-0.306156	0.928495
C85	C	1.134406	-0.778902	0.378244
C86	C	1.634406	-0.278902	0.878244
C87	C	1.034043	-0.724396	0.277729
C88	C	1.534043	-0.224396	0.777729
C89	C	1.034076	-0.779003	0.277736
C90	C	1.534076	-0.279003	0.777736
C91	C	1.084260	-0.806258	0.327991
C92	C	1.584260	-0.306258	0.827991
C93	C	1.084270	-0.860849	0.328007
C94	C	1.584270	-0.360849	0.828007
N95	N	1.134456	-0.888106	0.378253
N96	N	1.634456	-0.388106	0.878253
C97	C	1.184615	-0.860759	0.428497
C98	C	1.684615	-0.360759	0.928497
C99	C	1.084117	-0.527773	0.327977
C100	C	1.584117	-0.027773	0.827977
C101	C	1.084084	-0.473171	0.327978
C102	C	1.584084	0.026829	0.827978
C103	C	1.184432	-0.473082	0.428473
C104	C	1.684432	0.026918	0.928473
C105	C	1.184461	-0.527685	0.428475
C106	C	1.684461	-0.027685	0.928475
C107	C	1.134303	-0.555030	0.378223
C108	C	1.634303	-0.055030	0.878223
C109	C	1.184657	-0.975424	0.428508
C110	C	1.684657	-0.475424	0.928508
C111	C	1.184673	-1.030030	0.428513
C112	C	1.684673	-0.530030	0.928513
C113	C	1.084328	-1.030114	0.328015
C114	C	1.584328	-0.530114	0.828015
C115	C	1.084309	-0.975514	0.328013
C116	C	1.584309	-0.475514	0.828013
C117	C	1.134480	-0.948170	0.378262
C118	C	1.634480	-0.448170	0.878262
O119	O	1.041621	-0.889170	0.285318
O120	O	1.541621	-0.389170	0.785318
O121	O	1.227304	-0.888964	0.471222
O122	O	1.727304	-0.388964	0.971222
C123	C	1.339073	-0.251873	0.378241
C124	C	1.839073	0.248127	0.878241
C125	C	1.426323	-0.251877	0.378250
C126	C	1.926323	0.248123	0.878250
C127	C	1.134376	-0.251825	0.582963
C128	C	1.634376	0.248175	1.082963
C129	C	1.134397	-0.251808	0.670213
C130	C	1.634397	0.248192	1.170213
C131	C	1.134459	-0.115490	0.378254
C132	C	1.634459	0.384510	0.878254
C133	C	1.134514	-0.057376	0.378269
C134	C	1.634514	0.442624	0.878269
C135	C	1.134327	-0.251864	0.174271
C136	C	1.634327	0.248136	0.674271
C137	C	1.134459	-0.251733	0.087021
C138	C	1.634459	0.248267	0.587021
C139	C	1.184636	-0.218368	0.711218
C140	C	1.684636	0.281632	1.211218
C141	C	1.184646	-0.218350	0.793199
C142	C	1.684646	0.281650	1.293199
C143	C	1.134419	-0.251777	0.834172
C144	C	1.634419	0.248223	1.334172
C145	C	1.084174	-0.285219	0.793161
C146	C	1.584174	0.214781	1.293161
C147	C	1.084161	-0.285233	0.711182
C148	C	1.584161	0.214767	1.211182
C149	C	1.084205	-0.285187	0.964031
C150	C	1.584205	0.214813	1.464031
C151	C	1.084219	-0.285174	1.046016
C152	C	1.584219	0.214826	1.546016
C153	C	1.184690	-0.218304	1.046048
C154	C	1.684690	0.281696	1.546048
C155	C	1.184677	-0.218319	0.964069
C156	C	1.684677	0.281681	1.464069
C157	C	1.134433	-0.251762	0.923063
C158	C	1.634433	0.248238	1.423063
H159	H	0.686788	-0.191121	0.287312
H160	H	1.186788	0.308879	0.787312
H161	H	0.835519	-0.191112	0.287294
H162	H	1.335519	0.308888	0.787294
N163	N	1.030014	-0.321261	0.919808
N164	N	1.530014	0.178739	1.419808
H165	H	1.061888	-0.345497	0.885795
H166	H	1.561888	0.154503	1.385795
H167	H	0.993660	-0.299982	0.885840
H168	H	1.493660	0.200018	1.385840
N169	N	1.238763	-0.945934	0.482705
N170	N	1.738763	-0.445934	0.982705
H171	H	1.294860	-0.955411	0.470571
H172	H	1.794860	-0.455411	0.970571
H173	H	1.226470	-0.955438	0.538757
H174	H	1.726470	-0.455438	1.038757
H175	H	1.043275	-0.312433	0.826528
H176	H	1.543275	0.187567	1.326528
N177	N	1.238784	-1.059425	0.482736
N178	N	1.738784	-0.559425	0.982736
H179	H	1.270551	-1.033813	0.514567
H180	H	1.770551	-0.533813	1.014567
H181	H	1.275146	-1.082078	0.450838
H182	H	1.775146	-0.582078	0.950838
H183	H	0.433942	-0.191129	0.287340
H184	H	0.933942	0.308871	0.787340
H185	H	0.835509	-0.312607	0.469125
H186	H	1.335509	0.187393	0.969125
N187	N	1.029980	-0.321306	0.666953
N188	N	1.529980	0.178694	1.166953
H189	H	1.037591	-0.316243	0.608803
H190	H	1.537591	0.183757	1.108803
H191	H	0.973928	-0.313163	0.681276
H192	H	1.473928	0.186837	1.181276
H193	H	0.686790	-0.312609	0.469145
H194	H	1.186790	0.187391	0.969145
N195	N	1.030013	-0.321203	1.090209
N196	N	1.530013	0.178797	1.590209
H197	H	1.037641	-0.316114	1.148364
H198	H	1.537641	0.183886	1.648364
H199	H	1.042157	-0.358555	1.075887
H200	H	1.542157	0.141445	1.575887
N201	N	0.593495	-0.321464	0.482403
N202	N	1.093495	0.178536	0.982403
H203	H	0.627540	-0.300244	0.518830
H204	H	1.127540	0.199756	1.018830
H205	H	0.627431	-0.345658	0.450381
H206	H	1.127431	0.154342	0.950381
N207	N	0.423107	-0.321476	0.482420
N208	N	0.923107	0.178524	0.982420
H209	H	0.364954	-0.316398	0.474826
H210	H	0.864954	0.183602	0.974826
H211	H	0.437470	-0.313388	0.538502
H212	H	0.937470	0.186612	1.038502
N213	N	1.238817	-0.182272	0.837427
N214	N	1.738817	0.317728	1.337427
H215	H	1.270632	-0.161098	0.799031
H216	H	1.770632	0.338902	1.299031
H217	H	1.275131	-0.203541	0.871452
H218	H	1.775131	0.296459	1.371452
N219	N	1.238886	-0.182234	1.090269
N220	N	1.738886	0.317766	1.590269
H221	H	1.231272	-0.187294	1.148420
H222	H	1.731272	0.312706	1.648420
H223	H	1.226707	-0.144895	1.075946
H224	H	1.726707	0.355105	1.575946
N225	N	0.593511	-0.182275	0.274074
N226	N	1.093511	0.317725	0.774074
H227	H	0.555106	-0.161068	0.242329
H228	H	1.055106	0.338932	0.742329
H229	H	0.627493	-0.203526	0.237689
H230	H	1.127493	0.296474	0.737689
N231	N	1.288846	-0.808201	0.532969
N232	N	1.788846	-0.308201	1.032969
H233	H	1.320604	-0.782585	0.564801
H234	H	1.820604	-0.282585	1.064801
H235	H	1.325215	-0.830856	0.501083
H236	H	1.825215	-0.330856	1.001083
H237	H	1.225539	-0.191150	0.677864
H238	H	1.725539	0.308850	1.177864
H239	H	1.275571	-0.701949	0.519646
H240	H	1.775571	-0.201949	1.019646
N241	N	1.030178	-0.946121	0.273809
N242	N	1.530178	-0.446121	0.773809
H243	H	1.062093	-0.923465	0.237456
H244	H	1.562093	-0.423465	0.737456
H245	H	0.993781	-0.923502	0.305721
H246	H	1.493781	-0.423502	0.805721
N247	N	1.029951	-0.443783	0.273775
N248	N	1.529951	0.056217	0.773775
H249	H	1.061861	-0.421123	0.237423
H250	H	1.561861	0.078877	0.737423
H251	H	0.993552	-0.421167	0.305690
H252	H	1.493552	0.078833	0.805690
N253	N	1.238577	-0.557078	0.482687
N254	N	1.738577	-0.057078	0.982687
H255	H	1.270341	-0.531464	0.514518
H256	H	1.770341	-0.031464	1.014518
H257	H	1.274942	-0.579725	0.450781
H258	H	1.774942	-0.079725	0.950781
H259	H	1.225581	-0.191103	0.930711
H260	H	1.725581	0.308897	1.430711
N261	N	1.030235	-1.059615	0.273821
N262	N	1.530235	-0.559615	0.773821
H263	H	1.037874	-1.098340	0.281450
H264	H	1.537874	-0.598340	0.781450
H265	H	1.042492	-1.050082	0.217772
H266	H	1.542492	-0.550082	0.717772
H267	H	1.225275	-0.450806	0.469383
H268	H	1.725275	0.049194	0.969383
H269	H	0.993179	-0.702214	0.236807
H270	H	1.493179	-0.202214	0.736807
N271	N	1.030012	-0.557266	0.273777
N272	N	1.530012	-0.057266	0.773777
H273	H	0.998218	-0.531709	0.241950
H274	H	1.498218	-0.031709	0.741950
H275	H	0.993675	-0.579932	0.305696
H276	H	1.493675	-0.079932	0.805696
N277	N	0.979980	-0.808497	0.223531
N278	N	1.479980	-0.308497	0.723531
H279	H	0.948189	-0.782943	0.191698
H280	H	1.448189	-0.282943	0.691698
H281	H	0.943641	-0.831162	0.255448
H282	H	1.443641	-0.331162	0.755448
