data_functionalizedCrystal
_audit_creation_method	'MofGen! by Chris Wilmer'
_symmetry_space_group_name_H-M	'P1'
_symmetry_Int_Tables_number	1
_symmetry_cell_setting	triclinic
loop_
_symmetry_equiv_pos_as_xyz
  x,y,z
_cell_length_a	12.837943
_cell_length_b	10.489741
_cell_length_c	11.295483
_cell_angle_alpha	94.137284
_cell_angle_beta	85.461227
_cell_angle_gamma	89.684057
loop_
_atom_site_label
_atom_site_type_symbol
_atom_site_fract_x
_atom_site_fract_y
_atom_site_fract_z
O1	O	1.384854	0.324137	-0.099003
O2	O	1.082927	0.307742	-0.099010
O3	O	1.240760	0.131100	-0.098999
O4	O	1.227021	0.500780	-0.099013
O5	O	1.226897	0.146588	0.099051
O6	O	1.069064	0.323231	0.099040
O7	O	1.370991	0.339626	0.099047
Cu8	Cu	1.218762	0.332842	0.117127
Cu9	Cu	1.235156	0.314526	-0.117090
O10	O	1.213158	0.516268	0.099036
C11	C	1.037334	0.309948	0.000014
C12	C	0.922133	0.293430	0.000012
C13	C	0.682657	0.492006	0.000021
C14	C	0.574415	0.476492	0.000020
C15	C	0.597406	0.246889	0.000016
C16	C	0.705648	0.262403	0.000017
C17	C	0.748269	0.384966	0.000018
C18	C	0.856513	0.400478	0.000011
C19	C	0.879501	0.170877	0.000016
C20	C	0.771260	0.155363	0.000014
C21	C	1.232791	0.091198	0.000025
C22	C	1.229686	-0.050774	0.000023
C23	C	1.129262	-0.129987	0.000012
C24	C	1.169867	-0.209242	0.097662
C25	C	1.183558	-0.224485	-0.097600
C26	C	1.270327	-0.128153	0.097754
C27	C	1.284011	-0.143394	-0.097596
C28	C	1.324687	-0.222613	0.000078
C29	C	1.416585	0.337420	0.000020
C30	C	1.531786	0.353937	0.000015
C31	C	1.221127	0.556170	0.000010
C32	C	1.224233	0.698141	0.000004
N33	N	1.207238	0.345726	0.281863
N34	N	1.246688	0.301633	-0.281825
C35	C	1.329641	0.208822	0.531161
C36	C	1.320940	0.218568	0.655824
C37	C	1.181131	0.374956	0.655854
C38	C	1.189832	0.365210	0.531191
C39	C	1.264090	0.282142	0.468849
C40	C	1.272796	0.272403	0.344183
C41	C	1.132982	0.428784	0.344216
C42	C	1.124281	0.438530	0.468879
H43	H	0.520997	0.563656	0.000025
Cl44	Cl	0.961993	0.036302	-0.000006
H45	H	0.736541	0.055577	0.000027
Cl46	Cl	1.423002	0.104410	0.452786
Cl47	Cl	1.326946	-0.063354	0.225356
Cl48	Cl	1.452273	-0.284853	0.000160
Cl49	Cl	1.095344	-0.254388	0.225120
Cl50	Cl	1.403348	0.126387	0.734155
Cl51	Cl	1.087772	0.479364	0.734240
Cl52	Cl	0.543805	0.092825	0.000031
H53	H	1.146833	-0.266591	-0.180163
H54	H	1.332246	-0.114126	-0.180154
Cl55	Cl	0.910093	0.554554	0.000009
H56	H	1.333263	0.204769	0.293425
H57	H	1.063819	0.506159	0.519653
Cl58	Cl	1.050579	0.520969	0.265870
H59	H	0.717359	0.591801	0.000020
H60	H	1.046686	-0.089431	0.000108
