data_functionalizedCrystal
_audit_creation_method	'MofGen! by Chris Wilmer'
_symmetry_space_group_name_H-M	'P1'
_symmetry_Int_Tables_number	1
_symmetry_cell_setting	triclinic
loop_
_symmetry_equiv_pos_as_xyz
  x,y,z
_cell_length_a	18.101398
_cell_length_b	18.101395
_cell_length_c	18.101389
_cell_angle_alpha	90.016841
_cell_angle_beta	89.975673
_cell_angle_gamma	89.973629
loop_
_atom_site_label
_atom_site_type_symbol
_atom_site_fract_x
_atom_site_fract_y
_atom_site_fract_z
Zn1	Zn	1.132121	0.295001	-0.418847
Zn2	Zn	1.465454	0.628334	-0.085514
Zn3	Zn	1.798788	0.961667	0.247820
Zn4	Zn	1.132017	0.418826	-0.295009
Zn5	Zn	1.465350	0.752160	0.038325
Zn6	Zn	1.798684	1.085493	0.371658
Zn7	Zn	1.008280	0.294993	-0.295008
Zn8	Zn	1.341613	0.628326	0.038325
Zn9	Zn	1.674947	0.961660	0.371659
Zn10	Zn	1.008231	0.418795	-0.418797
Zn11	Zn	1.341564	0.752128	-0.085464
Zn12	Zn	1.674897	1.085461	0.247869
O13	O	1.070162	0.356904	-0.356915
O14	O	1.403495	0.690237	-0.023582
O15	O	1.736829	1.023570	0.309751
O16	O	1.235740	0.311443	-0.402440
O17	O	1.569073	0.644776	-0.069107
O18	O	1.902407	0.978110	0.264226
O19	O	1.115580	0.402410	-0.191376
O20	O	1.448913	0.735743	0.141958
O21	O	1.782247	1.069076	0.475291
O22	O	1.024772	0.191361	-0.311456
O23	O	1.358105	0.524695	0.021877
O24	O	1.691439	0.858028	0.355211
O25	O	1.235664	0.402417	-0.311457
O26	O	1.568997	0.735751	0.021876
O27	O	1.902330	1.069084	0.355210
O28	O	1.115757	0.191367	-0.402440
O29	O	1.449091	0.524700	-0.069106
O30	O	1.782424	0.858034	0.264227
O31	O	1.024671	0.311430	-0.191375
O32	O	1.358004	0.644763	0.141958
O33	O	1.691338	0.978097	0.475292
O34	O	0.904641	0.311399	-0.311408
O35	O	1.237974	0.644732	0.021925
O36	O	1.571307	0.978066	0.355259
O37	O	1.024688	0.402363	-0.522437
O38	O	1.358021	0.735697	-0.189103
O39	O	1.691355	1.069030	0.144230
O40	O	0.904604	0.402356	-0.402355
O41	O	1.237938	0.735689	-0.069022
O42	O	1.571271	1.069022	0.264311
O43	O	1.115710	0.311412	-0.522473
O44	O	1.449043	0.644746	-0.189140
O45	O	1.782376	0.978079	0.144193
O46	O	1.115532	0.522455	-0.311409
O47	O	1.448866	0.855788	0.021924
O48	O	1.782199	1.189122	0.355258
O49	O	1.024587	0.522432	-0.402356
O50	O	1.357920	0.855765	-0.069023
O51	O	1.691254	1.189099	0.264311
C52	C	0.877752	0.356874	-0.356877
C53	C	1.211085	0.690207	-0.023543
C54	C	1.544418	1.023540	0.309790
C55	C	0.795437	0.356879	-0.356878
C56	C	1.128771	0.690212	-0.023544
C57	C	1.462104	1.023545	0.309789
C58	C	1.070205	0.356885	-0.550077
C59	C	1.403538	0.690218	-0.216744
C60	C	1.736872	1.023552	0.116589
C61	C	1.070223	0.356877	-0.632391
C62	C	1.403556	0.690210	-0.299058
C63	C	1.736890	1.023544	0.034275
C64	C	1.070063	0.549314	-0.356893
C65	C	1.403396	0.882648	-0.023560
C66	C	1.736730	1.215981	0.309773
C67	C	1.070088	0.631628	-0.356909
C68	C	1.403422	0.964962	-0.023576
C69	C	1.736755	1.298295	0.309758
C70	C	0.496347	0.356925	-0.356940
C71	C	0.829680	0.690258	-0.023606
C72	C	1.163013	1.023592	0.309727
C73	C	0.527670	0.299412	-0.299997
C74	C	0.861003	0.632745	0.033336
C75	C	1.194336	0.966078	0.366669
C76	C	0.613288	0.299566	-0.299754
C77	C	0.946621	0.632899	0.033579
C78	C	1.279955	0.966232	0.366912
C79	C	0.644729	0.356901	-0.356909
C80	C	0.978062	0.690235	-0.023576
C81	C	1.311396	1.023568	0.309758
C82	C	0.613611	0.434909	-0.335587
C83	C	0.946944	0.768243	-0.002253
C84	C	1.280278	1.101576	0.331080
C85	C	0.527966	0.434590	-0.335191
C86	C	0.861299	0.767923	-0.001857
C87	C	1.194632	1.101256	0.331476
C88	C	0.527961	0.337109	-0.435339
C89	C	0.861294	0.670442	-0.102005
C90	C	1.194628	1.003775	0.231328
C91	C	0.613612	0.335371	-0.434911
C92	C	0.946945	0.668705	-0.101577
C93	C	1.280279	1.002038	0.231756
C94	C	0.728589	0.356893	-0.356893
C95	C	1.061922	0.690226	-0.023559
C96	C	1.395255	1.023559	0.309774
C97	C	0.412487	0.356939	-0.356954
C98	C	0.745820	0.690272	-0.023621
C99	C	1.079154	1.023605	0.309712
C100	C	1.263324	0.356934	-0.356954
C101	C	1.596657	0.690268	-0.023621
C102	C	1.929991	1.023601	0.309712
C103	C	1.345638	0.356948	-0.356971
C104	C	1.678971	0.690281	-0.023638
C105	C	2.012305	1.023614	0.309696
C106	C	1.070282	0.163742	-0.356953
C107	C	1.403615	0.497075	-0.023620
C108	C	1.736948	0.830409	0.309713
C109	C	1.070333	0.081428	-0.356970
C110	C	1.403666	0.414761	-0.023636
C111	C	1.736999	0.748094	0.309697
C112	C	1.070251	0.930719	-0.356949
C113	C	1.403584	1.264053	-0.023615
C114	C	1.736918	1.597386	0.309718
C115	C	1.013163	0.899410	-0.414312
C116	C	1.346497	1.232744	-0.080979
C117	C	1.679830	1.566077	0.252354
C118	C	1.012892	0.813792	-0.414133
C119	C	1.346225	1.147126	-0.080799
C120	C	1.679559	1.480459	0.252534
C121	C	1.070170	0.782337	-0.356930
C122	C	1.403504	1.115670	-0.023596
C123	C	1.736837	1.449003	0.309737
C124	C	1.049041	0.813472	-0.278878
C125	C	1.382374	1.146806	0.054455
C126	C	1.715708	1.480139	0.387789
C127	C	1.048673	0.899117	-0.279221
C128	C	1.382006	1.232451	0.054112
C129	C	1.715340	1.565784	0.387445
C130	C	1.148593	0.899073	-0.376950
C131	C	1.481926	1.232407	-0.043617
C132	C	1.815259	1.565740	0.289717
C133	C	1.148132	0.813422	-0.378661
C134	C	1.481465	1.146756	-0.045328
C135	C	1.814799	1.480089	0.288005
C136	C	1.070126	0.698477	-0.356914
C137	C	1.403459	1.031811	-0.023581
C138	C	1.736793	1.365144	0.309753
C139	C	1.070293	1.014579	-0.356959
C140	C	1.403627	1.347912	-0.023626
C141	C	1.736960	1.681245	0.309707
C142	C	1.070266	0.356738	-0.931482
C143	C	1.403600	0.690072	-0.598149
C144	C	1.736933	1.023405	-0.264816
C145	C	1.012801	0.413780	-0.900134
C146	C	1.346134	0.747113	-0.566801
C147	C	1.679467	1.080447	-0.233468
C148	C	1.012956	0.414045	-0.814516
C149	C	1.346289	0.747378	-0.481183
C150	C	1.679623	1.080711	-0.147849
C151	C	1.070244	0.356807	-0.783100
C152	C	1.403578	0.690140	-0.449767
C153	C	1.736911	1.023474	-0.116433
C154	C	1.148270	0.377998	-0.814206
C155	C	1.481603	0.711331	-0.480873
C156	C	1.814936	1.044664	-0.147539
C157	C	1.147949	0.378372	-0.899851
C158	C	1.481283	0.711705	-0.566518
C159	C	1.814616	1.045039	-0.233184
C160	C	1.050385	0.278379	-0.899905
C161	C	1.383718	0.611712	-0.566571
C162	C	1.717052	0.945046	-0.233238
C163	C	1.048649	0.278832	-0.814254
C164	C	1.381982	0.612165	-0.480920
C165	C	1.715315	0.945498	-0.147587
C166	C	1.070237	0.356845	-0.699240
C167	C	1.403570	0.690178	-0.365907
C168	C	1.736903	1.023511	-0.032574
C169	C	1.070279	0.356702	-1.015342
C170	C	1.403613	0.690036	-0.682009
C171	C	1.736946	1.023369	-0.348675
C172	C	1.070162	0.356869	-0.164505
C173	C	1.403495	0.690202	0.168829
C174	C	1.736829	1.023536	0.502162
C175	C	1.070287	0.356668	-0.082191
C176	C	1.403621	0.690002	0.251142
C177	C	1.736954	1.023335	0.584476
H178	H	0.634329	0.241719	-0.313119
H179	H	0.967662	0.575052	0.020214
H180	H	1.300995	0.908386	0.353547
H181	H	1.026252	0.919970	-0.472374
H182	H	1.359585	1.253303	-0.139040
H183	H	1.692918	1.586636	0.194293
H184	H	1.164065	0.793071	-0.436103
H185	H	1.497399	1.126404	-0.102770
H186	H	1.830732	1.459738	0.230564
H187	H	1.167856	0.920633	-0.432895
H188	H	1.501190	1.253966	-0.099562
H189	H	1.834523	1.587300	0.233771
H190	H	1.165415	0.434671	-0.792765
H191	H	1.498749	0.768004	-0.459432
H192	H	1.832082	1.101337	-0.126099
H193	H	0.506389	0.281216	-0.454725
H194	H	0.839723	0.614549	-0.121392
H195	H	1.173056	0.947883	0.211941
H196	H	1.025796	0.471508	-0.921661
H197	H	1.359130	0.804841	-0.588328
H198	H	1.692463	1.138174	-0.254995
H199	H	0.507099	0.241388	-0.313215
H200	H	0.840433	0.574722	0.020118
H201	H	1.173766	0.908055	0.353452
H202	H	0.954823	0.793362	-0.400884
H203	H	1.288157	1.126695	-0.067550
H204	H	1.621490	1.460029	0.265783
H205	H	0.955097	0.400784	-0.793483
H206	H	1.288430	0.734117	-0.460150
H207	H	1.621764	1.067450	-0.126816
H208	H	0.633975	0.478909	-0.375763
H209	H	0.967309	0.812242	-0.042430
H210	H	1.300642	1.145575	0.290904
H211	H	1.192236	0.337757	-0.793859
H212	H	1.525569	0.671090	-0.460526
H213	H	1.858902	1.004423	-0.127192
H214	H	0.507705	0.378999	-0.477766
H215	H	0.841038	0.712333	-0.144433
H216	H	1.174371	1.045666	0.188900
H217	H	1.192217	0.338629	-0.920590
H218	H	1.525550	0.671962	-0.587257
H219	H	1.858884	1.005296	-0.253924
H220	H	1.087450	0.234076	-0.792868
H221	H	1.420783	0.567409	-0.459535
H222	H	1.754117	0.900742	-0.126202
H223	H	1.026082	0.472127	-0.794035
H224	H	1.359415	0.805460	-0.460702
H225	H	1.692749	1.138794	-0.127369
H226	H	0.633741	0.312665	-0.241661
H227	H	0.967075	0.645998	0.091672
H228	H	1.300408	0.979332	0.425005
H229	H	0.994478	0.259074	-0.921490
H230	H	1.327811	0.592407	-0.588157
H231	H	1.661144	0.925741	-0.254823
H232	H	0.992380	0.792080	-0.261633
H233	H	1.325714	1.125413	0.071701
H234	H	1.659047	1.458746	0.405034
H235	H	1.164804	0.435654	-0.919836
H236	H	1.498137	0.768987	-0.586503
H237	H	1.831471	1.102320	-0.253169
H238	H	1.026111	0.792740	-0.472007
H239	H	1.359445	1.126073	-0.138674
H240	H	1.692778	1.459407	0.194660
H241	H	0.955448	0.920990	-0.401230
H242	H	1.288781	1.254323	-0.067896
H243	H	1.622114	1.587656	0.265437
H244	H	0.506120	0.312363	-0.242242
H245	H	0.839454	0.645696	0.091091
H246	H	1.172787	0.979029	0.424424
H247	H	0.991229	0.262852	-0.793921
H248	H	1.324562	0.596185	-0.460588
H249	H	1.657896	0.929518	-0.127255
H250	H	0.507954	0.451397	-0.277877
H251	H	0.841287	0.784730	0.055456
H252	H	1.174621	1.118063	0.388789
H253	H	1.092240	0.235880	-0.920179
H254	H	1.425574	0.569213	-0.586846
H255	H	1.758907	0.902547	-0.253513
H256	H	1.192915	0.792007	-0.339927
H257	H	1.526248	1.125340	-0.006593
H258	H	1.859582	1.458673	0.326740
H259	H	1.089313	0.793097	-0.234972
H260	H	1.422646	1.126431	0.098361
H261	H	1.755980	1.459764	0.431694
H262	H	0.507244	0.478892	-0.374857
H263	H	0.840577	0.812225	-0.041523
H264	H	1.173910	1.145558	0.291810
H265	H	0.633956	0.277966	-0.450989
H266	H	0.967289	0.611299	-0.117655
H267	H	1.300623	0.944633	0.215678
H268	H	0.635026	0.452008	-0.278892
H269	H	0.968359	0.785341	0.054441
H270	H	1.301692	1.118675	0.387774
H271	H	1.088449	0.919830	-0.235023
H272	H	1.421783	1.253163	0.098310
H273	H	1.755116	1.586497	0.431643
H274	H	0.635017	0.374209	-0.479611
H275	H	0.968350	0.707543	-0.146277
H276	H	1.301684	1.040876	0.187056
H277	H	1.191125	0.919319	-0.335170
H278	H	1.524458	1.252652	-0.001837
H279	H	1.857792	1.585986	0.331497
H280	H	0.991406	0.919153	-0.262279
H281	H	1.324739	1.252486	0.071054
H282	H	1.658072	1.585819	0.404387
H283	H	0.954768	0.400655	-0.920720
H284	H	1.288101	0.733988	-0.587386
H285	H	1.621434	1.067321	-0.254053
