data_functionalizedCrystal
_audit_creation_method	'MofGen! by Chris Wilmer'
_symmetry_space_group_name_H-M	'P1'
_symmetry_Int_Tables_number	1
_symmetry_cell_setting	triclinic
loop_
_symmetry_equiv_pos_as_xyz
  x,y,z
_cell_length_a	16.625547
_cell_length_b	16.625545
_cell_length_c	11.169409
_cell_angle_alpha	90.036260
_cell_angle_beta	89.972593
_cell_angle_gamma	89.976026
loop_
_atom_site_label
_atom_site_type_symbol
_atom_site_fract_x
_atom_site_fract_y
_atom_site_fract_z
Zn1	Zn	1.232692	0.320938	-0.678753
Zn2	Zn	1.482692	0.570938	-0.428753
Zn3	Zn	1.732692	0.820938	-0.178753
Zn4	Zn	1.982692	1.070938	0.071247
Zn5	Zn	1.232586	0.455800	-0.478056
Zn6	Zn	1.482586	0.705800	-0.228056
Zn7	Zn	1.732586	0.955800	0.021944
Zn8	Zn	1.982586	1.205800	0.271944
Zn9	Zn	1.097848	0.320985	-0.478061
Zn10	Zn	1.347848	0.570985	-0.228061
Zn11	Zn	1.597848	0.820985	0.021939
Zn12	Zn	1.847848	1.070985	0.271939
Zn13	Zn	1.097821	0.455732	-0.678674
Zn14	Zn	1.347821	0.705732	-0.428674
Zn15	Zn	1.597821	0.955732	-0.178674
Zn16	Zn	1.847821	1.205732	0.071326
O17	O	1.165237	0.388363	-0.578386
O18	O	1.415237	0.638363	-0.328386
O19	O	1.665237	0.888363	-0.078386
O20	O	1.915237	1.138363	0.171614
O21	O	1.345511	0.338836	-0.652161
O22	O	1.595511	0.588836	-0.402161
O23	O	1.845511	0.838836	-0.152161
O24	O	2.095511	1.088836	0.097839
O25	O	1.214679	0.437964	-0.310107
O26	O	1.464679	0.687964	-0.060107
O27	O	1.714679	0.937964	0.189893
O28	O	1.964679	1.187964	0.439893
O29	O	1.115791	0.208146	-0.504718
O30	O	1.365791	0.458146	-0.254718
O31	O	1.615791	0.708146	-0.004718
O32	O	1.865791	0.958146	0.245282
O33	O	1.345432	0.437919	-0.504710
O34	O	1.595432	0.687919	-0.254710
O35	O	1.845432	0.937919	-0.004710
O36	O	2.095432	1.187919	0.245290
O37	O	1.214861	0.208111	-0.652165
O38	O	1.464861	0.458111	-0.402165
O39	O	1.714861	0.708111	-0.152165
O40	O	1.964861	0.958111	0.097835
O41	O	1.115688	0.338916	-0.310110
O42	O	1.365688	0.588916	-0.060110
O43	O	1.615688	0.838916	0.189890
O44	O	1.865688	1.088916	0.439890
O45	O	0.985012	0.338850	-0.504642
O46	O	1.235012	0.588850	-0.254642
O47	O	1.485012	0.838850	-0.004642
O48	O	1.735012	1.088850	0.245358
O49	O	1.115745	0.437803	-0.846635
O50	O	1.365745	0.687803	-0.596635
O51	O	1.615745	0.937803	-0.346635
O52	O	1.865745	1.187803	-0.096635
O53	O	0.984992	0.437849	-0.652032
O54	O	1.234992	0.687849	-0.402032
O55	O	1.484992	0.937849	-0.152032
O56	O	1.734992	1.187849	0.097968
O57	O	1.214835	0.338770	-0.846692
O58	O	1.464835	0.588770	-0.596692
O59	O	1.714835	0.838770	-0.346692
O60	O	1.964835	1.088770	-0.096692
O61	O	1.214653	0.568623	-0.504634
O62	O	1.464653	0.818623	-0.254634
O63	O	1.714653	1.068623	-0.004634
O64	O	1.964653	1.318623	0.245366
O65	O	1.115642	0.568573	-0.652027
O66	O	1.365642	0.818573	-0.402027
O67	O	1.615642	1.068573	-0.152027
O68	O	1.865642	1.318573	0.097973
C69	C	0.955746	0.388348	-0.578329
C70	C	1.205746	0.638348	-0.328329
C71	C	1.455746	0.888348	-0.078329
C72	C	1.705746	1.138348	0.171671
C73	C	0.866125	0.388360	-0.578333
C74	C	1.116125	0.638360	-0.328333
C75	C	1.366125	0.888360	-0.078333
C76	C	1.616125	1.138360	0.171667
C77	C	0.793342	0.388362	-0.578348
C78	C	1.043342	0.638362	-0.328348
C79	C	1.293342	0.888362	-0.078348
C80	C	1.543342	1.138362	0.171652
C81	C	0.702034	0.388366	-0.578378
C82	C	0.952034	0.638366	-0.328378
C83	C	1.202034	0.888366	-0.078378
C84	C	1.452034	1.138366	0.171622
C85	C	0.629257	0.388374	-0.578409
C86	C	0.879257	0.638374	-0.328409
C87	C	1.129257	0.888374	-0.078409
C88	C	1.379257	1.138374	0.171591
C89	C	0.537943	0.388379	-0.578438
C90	C	0.787943	0.638379	-0.328438
C91	C	1.037943	0.888379	-0.078438
C92	C	1.287943	1.138379	0.171562
C93	C	1.165155	0.597854	-0.578347
C94	C	1.415155	0.847854	-0.328347
C95	C	1.665155	1.097854	-0.078347
C96	C	1.915155	1.347854	0.171653
C97	C	1.165193	0.687475	-0.578371
C98	C	1.415193	0.937475	-0.328371
C99	C	1.665193	1.187475	-0.078371
C100	C	1.915193	1.437475	0.171629
C101	C	1.165325	1.015651	-0.578515
C102	C	1.415325	1.265651	-0.328515
C103	C	1.665325	1.515651	-0.078515
C104	C	1.915325	1.765651	0.171485
C105	C	1.165286	0.924342	-0.578478
C106	C	1.415286	1.174342	-0.328478
C107	C	1.665286	1.424342	-0.078478
C108	C	1.915286	1.674342	0.171522
C109	C	1.165259	0.851566	-0.578442
C110	C	1.415259	1.101566	-0.328442
C111	C	1.665259	1.351566	-0.078442
C112	C	1.915259	1.601566	0.171558
C113	C	1.165221	0.760252	-0.578407
C114	C	1.415221	1.010252	-0.328407
C115	C	1.665221	1.260252	-0.078407
C116	C	1.915221	1.510252	0.171593
C117	C	1.375546	0.388380	-0.578444
C118	C	1.625546	0.638380	-0.328444
C119	C	1.875546	0.888380	-0.078444
C120	C	2.125546	1.138380	0.171556
C121	C	1.465167	0.388387	-0.578468
C122	C	1.715167	0.638387	-0.328468
C123	C	1.965167	0.888387	-0.078468
C124	C	2.215167	1.138387	0.171532
C125	C	1.165299	0.388274	-0.891429
C126	C	1.415299	0.638274	-0.641429
C127	C	1.665299	0.888274	-0.391429
C128	C	1.915299	1.138274	-0.141429
C129	C	1.165325	0.388236	-1.024829
C130	C	1.415325	0.638236	-0.774829
C131	C	1.665325	0.888236	-0.524829
C132	C	1.915325	1.138236	-0.274829
C133	C	1.165334	1.178054	-0.578465
C134	C	1.415334	1.428054	-0.328465
C135	C	1.665334	1.678054	-0.078465
C136	C	1.915334	1.928054	0.171535
C137	C	1.165358	1.088433	-0.578535
C138	C	1.415358	1.338433	-0.328535
C139	C	1.665358	1.588433	-0.078535
C140	C	1.915358	1.838433	0.171465
C141	C	1.165221	0.388394	-0.266561
C142	C	1.415221	0.638394	-0.016561
C143	C	1.665221	0.888394	0.233439
C144	C	1.915221	1.138394	0.483439
C145	C	1.165351	0.388205	-0.133162
C146	C	1.415351	0.638205	0.116838
C147	C	1.665351	0.888205	0.366838
C148	C	1.915351	1.138205	0.616838
