data_functionalizedCrystal
_audit_creation_method	'MofGen! by Chris Wilmer'
_symmetry_space_group_name_H-M	'P1'
_symmetry_Int_Tables_number	1
_symmetry_cell_setting	triclinic
loop_
_symmetry_equiv_pos_as_xyz
  x,y,z
_cell_length_a	10.268362
_cell_length_b	10.654550
_cell_length_c	10.654550
_cell_angle_alpha	84.484931
_cell_angle_beta	89.994874
_cell_angle_gamma	89.998669
loop_
_atom_site_label
_atom_site_type_symbol
_atom_site_fract_x
_atom_site_fract_y
_atom_site_fract_z
O1	O	0.108203	-1.667841	-0.176400
O2	O	0.108227	-1.302363	-0.193206
O3	O	0.108206	-1.493505	-0.002064
O4	O	0.108223	-1.476699	-0.367542
O5	O	-0.108395	-1.493488	-0.002056
O6	O	-0.108374	-1.302346	-0.193198
O7	O	-0.108398	-1.667824	-0.176392
Cu8	Cu	-0.128163	-1.485084	-0.184794
Cu9	Cu	0.127992	-1.485104	-0.184804
O10	O	-0.108377	-1.476682	-0.367534
C11	C	-0.000071	-1.255556	-0.191968
C12	C	-0.000062	-1.116113	-0.188276
N13	N	-0.308329	-1.485079	-0.184787
C14	C	-0.000094	-1.492263	0.044738
C15	C	-0.000091	-1.488571	0.184181
C16	C	-0.574000	-1.485097	-0.184801
C17	C	-0.426162	-1.485083	-0.184797
N18	N	0.308158	-1.485118	-0.184801
C19	C	-0.000098	-1.714631	-0.177630
C20	C	-0.000098	-1.854074	-0.181322
C21	C	-0.000060	-1.036628	-0.300818
C22	C	-0.000083	-0.905607	-0.297341
C23	C	-0.000104	-0.933570	-0.068772
C24	C	-0.000090	-1.064588	-0.072250
C25	C	-0.000075	-1.477925	-0.414336
C26	C	-0.000069	-1.481616	-0.553779
C27	C	-0.000098	-1.601112	0.263667
C28	C	-0.000082	-1.597636	0.394688
C29	C	-0.000058	-1.369066	0.366725
C30	C	-0.000065	-1.372544	0.235706
H31	H	-0.000047	-1.078574	-0.395294
H32	H	-0.000085	-1.689279	0.459401
H33	H	-0.000084	-0.840894	-0.388984
Br34	Br	-0.000137	-0.863635	0.088685
H35	H	-0.000117	-1.695588	0.221720
H36	H	-0.000038	-1.274601	0.408693
Br37	Br	-0.000038	-1.219798	0.127823
H38	H	-0.000095	-1.129309	0.019401
