data_functionalizedCrystal
_audit_creation_method	'MofGen! by Chris Wilmer'
_symmetry_space_group_name_H-M	'P1'
_symmetry_Int_Tables_number	1
_symmetry_cell_setting	triclinic
loop_
_symmetry_equiv_pos_as_xyz
  x,y,z
_cell_length_a	16.109301
_cell_length_b	15.995292
_cell_length_c	15.186229
_cell_angle_alpha	89.999448
_cell_angle_beta	89.999006
_cell_angle_gamma	83.465100
loop_
_atom_site_label
_atom_site_type_symbol
_atom_site_fract_x
_atom_site_fract_y
_atom_site_fract_z
O1	O	1.103137	0.107628	-0.073174
O2	O	1.436471	0.440961	0.260159
O3	O	1.769804	0.774295	0.593493
O4	O	0.861076	0.121022	-0.073185
O5	O	1.194409	0.454355	0.260148
O6	O	1.527743	0.787688	0.593481
O7	O	0.988749	-0.007568	-0.073181
O8	O	1.322082	0.325765	0.260153
O9	O	1.655415	0.659099	0.593486
O10	O	0.975465	0.236218	-0.073179
O11	O	1.308798	0.569551	0.260155
O12	O	1.642131	0.902884	0.593488
O13	O	0.988740	-0.007570	0.073277
O14	O	1.322074	0.325764	0.406610
O15	O	1.655407	0.659097	0.739943
O16	O	0.861068	0.121020	0.073272
O17	O	1.194401	0.454353	0.406605
O18	O	1.527734	0.787687	0.739938
O19	O	1.103129	0.107626	0.073283
O20	O	1.436462	0.440960	0.406617
O21	O	1.769795	0.774293	0.739950
Zn22	Zn	0.982097	0.114323	0.096531
Zn23	Zn	1.315430	0.447656	0.429864
Zn24	Zn	1.648763	0.780989	0.763198
Zn25	Zn	0.982108	0.114325	-0.096433
Zn26	Zn	1.315441	0.447659	0.236900
Zn27	Zn	1.648775	0.780992	0.570234
O28	O	0.975456	0.236216	0.073279
O29	O	1.308789	0.569549	0.406612
O30	O	1.642123	0.902883	0.739945
C31	C	0.830097	0.120478	0.000042
C32	C	1.163430	0.453812	0.333375
C33	C	1.496764	0.787145	0.666708
C34	C	0.737802	0.118852	0.000037
C35	C	1.071135	0.452185	0.333370
C36	C	1.404468	0.785518	0.666704
C37	C	0.428808	0.189837	0.000053
C38	C	0.762141	0.523170	0.333386
C39	C	1.095474	0.856503	0.666720
C40	C	0.515528	0.191373	0.000048
C41	C	0.848861	0.524706	0.333381
C42	C	1.182195	0.858039	0.666714
C43	C	0.535392	0.038805	0.000035
C44	C	0.868725	0.372139	0.333368
C45	C	1.202058	0.705472	0.666701
C46	C	0.448673	0.037270	0.000034
C47	C	0.782006	0.370603	0.333367
C48	C	1.115340	0.703937	0.666700
C49	C	0.395383	0.112788	0.000047
C50	C	0.728716	0.446122	0.333380
C51	C	1.062049	0.779455	0.666714
C52	C	0.568822	0.115860	0.000043
C53	C	0.902155	0.449193	0.333376
C54	C	1.235489	0.782526	0.666710
C55	C	0.662848	0.117525	0.000038
C56	C	0.996181	0.450858	0.333371
C57	C	1.329515	0.784192	0.666704
C58	C	0.301351	0.111123	0.000051
C59	C	0.634684	0.444457	0.333384
C60	C	0.968017	0.777790	0.666718
C61	C	0.988204	-0.038764	0.000046
C62	C	1.321537	0.294569	0.333379
C63	C	1.654870	0.627902	0.666712
C64	C	0.986583	-0.131717	0.000039
C65	C	1.319916	0.201617	0.333372
C66	C	1.653250	0.534950	0.666706
C67	C	0.980624	-0.469454	0.000047
C68	C	1.313957	-0.136120	0.333380
C69	C	1.647291	0.197213	0.666713
C70	C	1.072775	-0.446166	0.000378
C71	C	1.406108	-0.112833	0.333712
C72	C	1.739441	0.220500	0.667045
C73	C	1.074526	-0.349491	0.000045
C74	C	1.407859	-0.016158	0.333379
C75	C	1.741193	0.317175	0.666712
C76	C	0.983581	-0.301898	0.000043
C77	C	1.316914	0.031435	0.333377
C78	C	1.650247	0.364768	0.666710
C79	C	0.937515	-0.330986	-0.083590
C80	C	1.270848	0.002347	0.249743
C81	C	1.604181	0.335681	0.583076
C82	C	0.936405	-0.427776	-0.083657
C83	C	1.269739	-0.094443	0.249676
C84	C	1.603072	0.238891	0.583009
C85	C	0.934514	-0.427635	0.082892
C86	C	1.267847	-0.094301	0.416225
C87	C	1.601181	0.239032	0.749559
C88	C	0.937929	-0.331143	0.083994
C89	C	1.271262	0.002190	0.417328
C90	C	1.604595	0.335523	0.750661
C91	C	0.985247	-0.207203	0.000039
C92	C	1.318580	0.126131	0.333372
C93	C	1.651914	0.459464	0.666705
C94	C	0.978955	-0.564149	0.000046
C95	C	1.312288	-0.230816	0.333379
C96	C	1.645622	0.102518	0.666712
C97	C	1.134108	0.108170	0.000054
C98	C	1.467441	0.441503	0.333388
C99	C	1.800774	0.774836	0.666721
C100	C	1.226403	0.109796	0.000053
C101	C	1.559737	0.443130	0.333387
C102	C	1.893070	0.776463	0.666720
C103	C	0.976001	0.267412	0.000050
C104	C	1.309334	0.600746	0.333384
C105	C	1.642668	0.934079	0.666717
C106	C	0.977622	0.360365	0.000051
C107	C	1.310955	0.693698	0.333385
C108	C	1.644289	1.027031	0.666718
N109	N	0.982095	0.114321	0.228224
N110	N	1.315429	0.447654	0.561557
N111	N	1.648762	0.780987	0.894890
N112	N	0.982116	0.114321	-0.228126
N113	N	1.315449	0.447654	0.105208
N114	N	1.648783	0.780987	0.438541
C115	C	1.038648	0.057400	0.453948
C116	C	1.371981	0.390734	0.787282
C117	C	1.705315	0.724067	1.120615
C118	C	1.038650	0.057398	0.546138
C119	C	1.371984	0.390732	0.879471
C120	C	1.705317	0.724065	1.212805
C121	C	0.925557	0.171244	0.546143
C122	C	1.258891	0.504577	0.879476
C123	C	1.592224	0.837910	1.212810
C124	C	0.925552	0.171241	0.453955
C125	C	1.258885	0.504574	0.787288
C126	C	1.592218	0.837908	1.120622
C127	C	0.982101	0.114320	0.407860
C128	C	1.315435	0.447654	0.741193
C129	C	1.648768	0.780987	1.074527
C130	C	0.982110	0.114321	0.592238
C131	C	1.315443	0.447654	0.925571
C132	C	1.648777	0.780988	1.258904
C133	C	0.982112	0.114319	0.692194
C134	C	1.315446	0.447653	1.025527
C135	C	1.648779	0.780986	1.358861
C136	C	0.982098	0.114321	0.307898
C137	C	1.315431	0.447654	0.641231
C138	C	1.648765	0.780987	0.974564
H139	H	0.421459	-0.025476	0.000026
H140	H	0.754792	0.307858	0.333359
H141	H	1.088126	0.641191	0.666693
H142	H	0.868840	-0.442308	-0.087448
H143	H	1.202173	-0.108975	0.245886
H144	H	1.535507	0.224359	0.579219
H145	H	0.578791	-0.022679	0.000026
H146	H	0.912124	0.310655	0.333359
H147	H	1.245457	0.643988	0.666692
Br148	Br	1.134634	-0.317791	0.099983
Br149	Br	1.467967	0.015543	0.433317
Br150	Br	1.801301	0.348876	0.766650
H151	H	0.385421	0.251328	0.000063
H152	H	0.718754	0.584662	0.333397
H153	H	1.052087	0.917995	0.666730
Br154	Br	0.848816	0.248492	0.608703
Br155	Br	1.182149	0.581826	0.942037
Br156	Br	1.515482	0.915159	1.275370
H157	H	1.108290	-0.474174	0.060356
H158	H	1.441624	-0.140841	0.393689
H159	H	1.774957	0.192493	0.727023
Br160	Br	0.560887	0.295943	0.000048
Br161	Br	0.894220	0.629276	0.333382
Br162	Br	1.227554	0.962610	0.666715
H163	H	1.108100	-0.475193	-0.059259
H164	H	1.441433	-0.141860	0.274074
H165	H	1.774767	0.191474	0.607407
Br166	Br	0.990843	-0.297570	-0.187329
Br167	Br	1.324176	0.035764	0.146005
Br168	Br	1.657509	0.369097	0.479338
H169	H	1.110824	-0.331096	-0.060008
H170	H	1.444157	0.002238	0.273325
H171	H	1.777491	0.335571	0.606658
H172	H	0.879501	0.217593	0.416427
H173	H	1.212834	0.550926	0.749761
H174	H	1.546167	0.884259	1.083094
Br175	Br	0.982555	-0.474817	0.188547
Br176	Br	1.315889	-0.141484	0.521881
Br177	Br	1.649222	0.191849	0.855214
Br178	Br	0.989596	-0.472491	-0.187852
Br179	Br	1.322930	-0.139157	0.145482
Br180	Br	1.656263	0.194176	0.478815
H181	H	0.870591	-0.299100	-0.086701
H182	H	1.203924	0.034233	0.246632
H183	H	1.537258	0.367567	0.579966
Br184	Br	0.993828	-0.300210	0.187122
Br185	Br	1.327162	0.033123	0.520455
Br186	Br	1.660495	0.366457	0.853789
H187	H	0.871547	-0.298156	0.089044
H188	H	1.204881	0.035178	0.422377
H189	H	1.538214	0.368511	0.755710
H190	H	0.866684	-0.441607	0.083454
H191	H	1.200017	-0.108273	0.416787
H192	H	1.533351	0.225060	0.750121
H193	H	1.084693	0.011051	0.416420
H194	H	1.418026	0.344384	0.749754
H195	H	1.751360	0.677717	1.083087
H196	H	1.084695	0.011048	0.583661
H197	H	1.418028	0.344381	0.916994
H198	H	1.751361	0.677715	1.250327
