data_functionalizedCrystal
_audit_creation_method	'MofGen! by Chris Wilmer'
_symmetry_space_group_name_H-M	'P1'
_symmetry_Int_Tables_number	1
_symmetry_cell_setting	triclinic
loop_
_symmetry_equiv_pos_as_xyz
  x,y,z
_cell_length_a	16.992694
_cell_length_b	7.540329
_cell_length_c	9.065215
_cell_angle_alpha	89.997358
_cell_angle_beta	87.841460
_cell_angle_gamma	90.002664
loop_
_atom_site_label
_atom_site_type_symbol
_atom_site_fract_x
_atom_site_fract_y
_atom_site_fract_z
O1	O	1.042611	-0.147254	0.313083
O2	O	0.814302	-0.147307	0.309648
O3	O	0.933177	-0.147272	0.097161
O4	O	0.923736	-0.147289	0.525570
O5	O	0.933170	0.147693	0.097157
O6	O	0.814295	0.147659	0.309644
O7	O	1.042604	0.147711	0.313079
Cu8	Cu	0.928449	0.174617	0.311361
Cu9	Cu	0.928457	-0.174213	0.311366
O10	O	0.923729	0.147676	0.525567
C11	C	0.785054	0.000169	0.305228
C12	C	0.697917	0.000149	0.292044
C13	C	0.932267	0.000209	0.042088
C14	C	0.929555	0.000203	-0.122007
N15	N	0.928448	0.419966	0.311358
C16	C	0.648579	0.000146	0.419250
C17	C	0.566704	0.000171	0.406853
C18	C	0.534169	0.000187	0.267250
C19	C	0.583513	0.000196	0.140034
C20	C	0.665386	0.000183	0.152432
C21	C	0.290207	0.000236	0.215866
C22	C	0.208327	0.000243	0.203477
C23	C	0.191524	0.000221	0.470298
C24	C	0.273399	0.000198	0.482684
C25	C	0.322736	0.000217	0.355468
N26	N	0.450480	0.000207	0.254575
N27	N	0.406423	0.000210	0.368144
C28	C	1.071852	0.000231	0.317500
C29	C	1.158989	0.000239	0.330683
N30	N	0.928464	-0.419561	0.311358
C31	C	0.924639	0.000192	0.580639
C32	C	0.927351	0.000186	0.744734
H33	H	0.526536	0.000166	0.510438
H34	H	0.181841	0.000254	0.089790
C35	C	0.684364	0.000127	0.572818
C36	C	0.666183	0.153295	0.681170
C37	C	0.701966	0.153283	0.834741
C38	C	0.755931	0.000103	0.879961
C39	C	0.774115	-0.153076	0.771606
C40	C	0.738332	-0.153064	0.618035
H41	H	0.626233	0.266698	0.647698
H42	H	0.688504	0.266677	0.914952
H43	H	0.782419	0.000094	0.993643
H44	H	0.814065	-0.266479	0.805078
H45	H	0.751793	-0.266458	0.537824
C46	C	0.137252	0.000221	0.610227
C47	C	0.078645	-0.152934	0.638402
C48	C	0.024373	-0.152926	0.778338
C49	C	0.028708	0.000237	0.890099
C50	C	0.087317	0.153403	0.861928
C51	C	0.141589	0.153395	0.721992
H52	H	0.075434	-0.266325	0.555667
H53	H	-0.019014	-0.266311	0.799192
H54	H	-0.011468	0.000242	0.993688
H55	H	0.090528	0.266794	0.944663
H56	H	0.184975	0.266780	0.701138
C57	C	0.344467	0.000231	0.075927
C58	C	0.340141	0.153394	-0.035847
C59	C	0.394404	0.153383	-0.175795
C60	C	0.452992	0.000209	-0.203970
C61	C	0.457321	-0.152966	-0.092193
C62	C	0.403058	-0.152955	0.047755
H63	H	0.296768	0.266794	-0.014993
H64	H	0.391199	0.266774	-0.258539
H65	H	0.493161	0.000200	-0.307568
H66	H	0.500694	-0.266366	-0.113047
H67	H	0.406262	-0.266346	0.130499
H68	H	0.557017	0.000234	0.026365
H69	H	0.705557	0.000185	0.048847
H70	H	0.299883	0.000165	0.596364
