data_functionalizedCrystal
_audit_creation_method	'MofGen! by Chris Wilmer'
_symmetry_space_group_name_H-M	'P1'
_symmetry_Int_Tables_number	1
_symmetry_cell_setting	triclinic
loop_
_symmetry_equiv_pos_as_xyz
  x,y,z
_cell_length_a	23.096457
_cell_length_b	23.096457
_cell_length_c	23.096457
_cell_angle_alpha	60.008701
_cell_angle_beta	90.011518
_cell_angle_gamma	60.000185
loop_
_atom_site_label
_atom_site_type_symbol
_atom_site_fract_x
_atom_site_fract_y
_atom_site_fract_z
Zr1	Zr	0.557763	0.633740	-0.075976
O2	O	0.465295	0.754526	-0.168417
O3	O	0.586107	0.512954	-0.047641
O4	O	0.586081	0.633742	-0.168427
O5	O	0.465344	0.633736	0.047651
O6	O	0.681361	0.633743	-0.168430
O7	O	0.465321	0.633738	-0.047631
O8	O	0.681407	0.417676	0.047634
O9	O	0.465298	0.849804	-0.168413
O10	O	0.669304	0.562636	-0.035555
O11	O	0.598215	0.562634	0.035556
O12	O	0.598184	0.704846	-0.106654
O13	O	0.527095	0.704844	-0.035543
Zr14	Zr	0.709760	0.633740	0.075983
Zr15	Zr	0.709724	0.633742	-0.075981
Zr16	Zr	0.557799	0.633737	0.075988
Zr17	Zr	0.557767	0.785697	-0.075969
Zr18	Zr	0.709756	0.481782	0.075976
O19	O	0.681416	0.754526	0.047648
O20	O	0.681365	0.754529	-0.168425
O21	O	0.465347	0.754522	0.047656
O22	O	0.802227	0.512954	0.168424
O23	O	0.802176	0.512958	-0.047649
O24	O	0.586158	0.512950	0.168432
O25	O	0.802179	0.633743	-0.047644
O26	O	0.681442	0.633738	0.168434
O27	O	0.586161	0.633736	0.168437
O28	O	0.802202	0.633742	0.047638
O29	O	0.586087	0.849806	-0.168418
O30	O	0.681436	0.417674	0.168425
O31	O	0.802225	0.417676	0.168420
O32	O	0.802196	0.417678	0.047629
O33	O	0.465326	0.849802	-0.047622
O34	O	0.586115	0.849804	-0.047627
O35	O	0.669338	0.562634	0.106661
O36	O	0.740428	0.562636	0.035551
O37	O	0.669308	0.704846	-0.035549
O38	O	0.598218	0.704844	0.035562
C39	C	0.633757	0.443664	-0.000004
C40	C	0.633755	0.379154	-0.000007
C41	C	0.443681	0.633737	0.000011
C42	C	0.379170	0.633736	0.000013
C43	C	0.670858	0.348855	-0.037129
C44	C	0.670865	0.288232	-0.037123
C45	C	0.633755	0.257924	-0.000005
C46	C	0.596650	0.288228	0.037124
C47	C	0.596650	0.348843	0.037123
N48	N	0.573349	0.195527	-0.005150
N49	N	0.573351	0.137946	-0.005153
C50	C	0.633754	0.075292	0.000001
N51	N	0.694155	0.072401	0.005145
N52	N	0.694152	0.129989	0.005144
C53	C	0.633751	0.192196	0.000000
C54	C	0.670868	-0.020742	-0.037116
C55	C	0.670877	-0.081369	-0.037105
C56	C	0.596655	-0.081367	0.037138
C57	C	0.596653	-0.020747	0.037132
C58	C	0.633758	0.009564	0.000001
C59	C	0.385988	0.559506	0.037119
C60	C	0.325372	0.559505	0.037122
C61	C	0.257939	0.633737	0.000005
C62	C	0.251123	0.707977	-0.037103
C63	C	0.311739	0.707976	-0.037099
N64	N	0.135130	0.688994	-0.060404
N65	N	0.077551	0.688989	-0.060406
C66	C	0.075306	0.633745	-0.000007
N67	N	0.132823	0.578492	0.060393
N68	N	0.190408	0.578494	0.060394
C69	C	0.192208	0.633747	-0.000003
C70	C	0.016401	0.559509	0.037106
C71	C	-0.044217	0.559511	0.037111
C72	C	-0.118466	0.707985	-0.037121
C73	C	-0.057848	0.707981	-0.037119
C74	C	0.009583	0.633741	-0.000008
C75	C	0.823842	0.633743	-0.000003
C76	C	0.888353	0.633744	-0.000006
C77	C	0.633716	0.633743	-0.190080
C78	C	0.633701	0.633744	-0.254593
C79	C	0.633766	0.823815	0.000012
C80	C	0.633768	0.888325	0.000014
C81	C	0.596581	0.707974	-0.322009
C82	C	0.596599	0.707975	-0.382626
C83	C	0.633727	0.633742	-0.375821
C84	C	0.670856	0.559503	-0.308392
C85	C	0.670843	0.559504	-0.247778
N86	N	0.628604	0.578486	-0.443379
N87	N	0.628613	0.578490	-0.500963
C88	C	0.633771	0.633735	-0.558447
N89	N	0.638907	0.688988	-0.556178
N90	N	0.638894	0.688986	-0.498590
C91	C	0.633746	0.633733	-0.441543
C92	C	0.596668	0.707971	-0.691593
C93	C	0.596692	0.707969	-0.752209
C94	C	0.670944	0.559495	-0.677974
C95	C	0.670926	0.559499	-0.617360
C96	C	0.633784	0.633739	-0.624174
C97	C	0.633806	0.633737	0.190087
C98	C	0.633822	0.633736	0.254600
C99	C	0.823837	0.443668	-0.000011
C100	C	0.888347	0.379159	-0.000017
C101	C	0.633802	0.443661	0.190079
C102	C	0.633815	0.379150	0.254589
C103	C	0.823882	0.443664	0.190072
C104	C	0.888407	0.379154	0.254580
C105	C	0.443641	0.823815	-0.190065
C106	C	0.379115	0.888325	-0.254573
C107	C	0.443686	0.823812	0.000019
C108	C	0.379176	0.888321	0.000024
C109	C	0.633721	0.823819	-0.190072
C110	C	0.633707	0.888329	-0.254582
C111	C	0.881515	0.348865	-0.037141
C112	C	0.942124	0.288260	-0.037160
C113	C	1.009562	0.257947	-0.000050
C114	C	1.016392	0.288247	0.037076
C115	C	0.955785	0.348854	0.037091
C116	C	0.670948	0.348855	0.322006
C117	C	0.670958	0.288249	0.382626
C118	C	0.633839	0.257934	0.375827
C119	C	0.596703	0.288235	0.308403
C120	C	0.596689	0.348845	0.247784
C121	C	0.955823	0.348861	0.247754
C122	C	1.016458	0.288256	0.308360
C123	C	1.009674	0.257941	0.375791
C124	C	0.942250	0.288240	0.382615
C125	C	0.881618	0.348848	0.322010
C126	C	0.311699	0.918626	-0.247747
C127	C	0.251065	0.979250	-0.308353
C128	C	0.257849	1.009568	-0.375784
C129	C	0.325272	0.979265	-0.382608
C130	C	0.385905	0.918646	-0.322003
C131	C	0.386007	0.918621	0.037142
C132	C	0.325399	0.979242	0.037145
C133	C	0.257960	1.009558	0.000032
C134	C	0.251131	0.979255	-0.037091
C135	C	0.311738	0.918639	-0.037097
C136	C	0.670833	0.918625	-0.247760
C137	C	0.670834	0.979232	-0.308368
C138	C	0.633705	1.009546	-0.375797
C139	C	0.596578	0.979245	-0.382618
C140	C	0.596582	0.918635	-0.322010
H141	H	0.701073	0.373531	-0.067361
H142	H	0.633856	0.208582	0.425192
N143	N	0.556531	0.788044	-0.329357
H144	H	0.533021	0.835069	-0.381268
H145	H	0.590612	0.791274	-0.305812
N146	N	0.710987	0.381539	0.329356
H147	H	0.691518	0.406690	0.356130
H148	H	0.705340	0.424501	0.280706
N149	N	0.458619	0.885950	-0.329364
H150	H	0.485445	0.896486	-0.305873
H151	H	0.453654	0.914367	-0.381291
H152	H	0.566369	0.768424	-0.437527
H153	H	0.566348	1.003937	-0.437526
H154	H	1.058907	0.208596	-0.000067
N155	N	0.178395	0.788044	-0.077131
H156	H	0.141029	0.776781	-0.071504
H157	H	0.172772	0.820466	-0.129037
H158	H	0.306181	0.768425	-0.067314
N159	N	0.710881	1.011904	-0.301003
H160	H	0.734395	0.983505	-0.249089
H161	H	0.676801	1.072751	-0.324533
H162	H	0.330924	0.499056	0.067339
H163	H	0.936549	0.263597	-0.067393
N164	N	0.458740	0.885932	0.077173
H165	H	0.453860	0.914336	0.100682
H166	H	0.485496	0.896480	0.043088
N167	N	0.710891	0.885922	-0.175036
H168	H	0.676860	0.896469	-0.148225
H169	H	0.734411	0.914326	-0.179978
N170	N	0.458718	0.479440	0.077154
H171	H	0.485517	0.476132	0.043112
H172	H	0.453782	0.432457	0.100663
H173	H	0.566434	0.373513	0.067352
H174	H	0.071307	0.499058	0.067339
N175	N	1.089131	0.255549	0.077100
H176	H	1.126483	0.212556	0.071455
H177	H	1.094764	0.230435	0.129009
N178	N	0.304372	0.885930	-0.175023
H179	H	0.252460	0.914333	-0.179906
H180	H	0.327916	0.896472	-0.148254
H181	H	-0.038659	0.499061	0.067332
H182	H	0.566466	0.768418	-0.807105
N183	N	0.633712	1.074911	-0.441164
H184	H	0.662868	1.089497	-0.426604
H185	H	0.583420	1.125172	-0.470315
N186	N	0.710901	0.479439	-0.301054
H187	H	0.691437	0.446980	-0.274290
H188	H	0.762818	0.447055	-0.274287
N189	N	-0.191190	0.788053	-0.077149
H190	H	-0.228556	0.776791	-0.071520
H191	H	-0.196814	0.820473	-0.129055
N192	N	-0.065198	0.788044	-0.077151
H193	H	-0.117113	0.835071	-0.100668
H194	H	-0.041670	0.791271	-0.114464
H195	H	0.566346	0.893975	-0.327574
N196	N	0.556674	0.255531	0.301075
H197	H	0.562327	0.212535	0.349710
H198	H	0.576164	0.230420	0.274277
N199	N	0.808909	0.381501	0.329385
H200	H	0.782105	0.370942	0.305899
H201	H	0.782144	0.442336	0.305909
H202	H	0.701080	0.263558	-0.067353
N203	N	0.556599	0.381525	0.175084
H204	H	0.576047	0.335283	0.169402
H205	H	0.562203	0.424547	0.137733
H206	H	1.071351	0.263592	0.302791
H207	H	0.196214	1.003948	-0.067308
H208	H	0.961357	0.373512	0.067326
N209	N	0.710882	0.479438	-0.175058
H210	H	0.734410	0.432410	-0.179942
H211	H	0.676796	0.476203	-0.148307
N212	N	0.332580	1.011964	-0.455340
H213	H	0.384488	0.983574	-0.450475
H214	H	0.309041	1.072811	-0.482100
H215	H	0.701201	0.263585	0.437519
H216	H	0.566426	0.768422	-0.697143
N217	N	0.332775	1.011917	0.077187
H218	H	0.384694	0.983505	0.100701
H219	H	0.309249	1.001373	0.114503
N220	N	0.963150	0.381544	0.175030
H221	H	1.015063	0.353150	0.179913
H222	H	0.939610	0.442391	0.148262
H223	H	0.701176	0.499053	-0.672432
N224	N	0.178351	1.011925	-0.300983
H225	H	0.183259	0.983510	-0.249069
H226	H	0.151573	1.001383	-0.324519
N227	N	0.710888	0.011954	-0.077158
H228	H	0.734400	-0.016447	-0.100670
H229	H	0.748209	0.001412	-0.043081
N230	N	1.075074	0.192570	0.441155
H231	H	1.118809	0.177982	0.426592
H232	H	1.075050	0.142312	0.470302
H233	H	0.701150	0.499053	-0.562465
N234	N	0.192449	1.074950	-0.441148
H235	H	0.148714	1.089538	-0.426585
H236	H	0.192470	1.053812	-0.470298
H237	H	0.566435	0.263546	0.067347
N238	N	0.934939	0.255538	0.455345
H239	H	0.983583	0.212544	0.492697
H240	H	0.908144	0.230425	0.460965
N241	N	0.808783	0.381551	-0.077169
H242	H	0.813663	0.353159	-0.100690
H243	H	0.782010	0.442398	-0.114479
H244	H	0.701096	-0.106043	-0.067331
N245	N	0.192594	1.074937	0.000041
H246	H	0.207161	1.089526	0.029191
H247	H	0.163450	1.053797	0.021152
H248	H	0.566440	-0.106044	0.067360
H249	H	0.566437	0.003926	0.067357
N250	N	0.304365	0.885961	-0.077134
H251	H	0.252445	0.914367	-0.100640
H252	H	0.327896	0.825116	-0.043057
