data_functionalizedCrystal
_audit_creation_method	'MofGen! by Chris Wilmer'
_symmetry_space_group_name_H-M	'P1'
_symmetry_Int_Tables_number	1
_symmetry_cell_setting	triclinic
loop_
_symmetry_equiv_pos_as_xyz
  x,y,z
_cell_length_a	19.121102
_cell_length_b	25.639239
_cell_length_c	25.639234
_cell_angle_alpha	90.024905
_cell_angle_beta	92.459073
_cell_angle_gamma	87.592882
loop_
_atom_site_label
_atom_site_type_symbol
_atom_site_fract_x
_atom_site_fract_y
_atom_site_fract_z
Zn1	Zn	1.073656	-0.242337	0.329673
Zn2	Zn	1.573656	0.257663	0.829673
Zn3	Zn	1.073539	-0.329761	0.242233
Zn4	Zn	1.573539	0.170239	0.742233
Zn5	Zn	0.956204	-0.238609	0.238525
Zn6	Zn	1.456204	0.261391	0.738525
Zn7	Zn	0.956145	-0.326005	0.325913
Zn8	Zn	1.456145	0.173995	0.825913
O9	O	1.014886	-0.284178	0.284086
O10	O	1.514886	0.215822	0.784086
O11	O	1.171924	-0.257066	0.321199
O12	O	1.671924	0.242934	0.821199
O13	O	1.057950	-0.317682	0.168576
O14	O	1.557950	0.182318	0.668576
O15	O	0.971859	-0.165941	0.250637
O16	O	1.471859	0.334059	0.750637
O17	O	1.171838	-0.321296	0.256958
O18	O	1.671838	0.178704	0.756958
O19	O	1.058150	-0.168680	0.317603
O20	O	1.558150	0.331320	0.817603
O21	O	0.971745	-0.250713	0.165851
O22	O	1.471745	0.249287	0.665851
O23	O	0.857913	-0.247070	0.246992
O24	O	1.357913	0.252930	0.746992
O25	O	0.971758	-0.314894	0.399578
O26	O	1.471758	0.185106	0.899578
O27	O	0.857870	-0.311280	0.311196
O28	O	1.357870	0.188720	0.811196
O29	O	1.058093	-0.253424	0.402340
O30	O	1.558093	0.246576	0.902340
O31	O	1.057892	-0.402426	0.253312
O32	O	1.557892	0.097574	0.753312
O33	O	0.971644	-0.399666	0.314792
O34	O	1.471644	0.100334	0.814792
C35	C	0.832408	-0.278363	0.278284
C36	C	1.332408	0.221637	0.778284
C37	C	0.754343	-0.275888	0.275814
C38	C	1.254343	0.224112	0.775814
C39	C	0.717663	-0.308206	0.308029
C40	C	1.217663	0.191794	0.808029
C41	C	0.644313	-0.305874	0.305711
C42	C	1.144313	0.194126	0.805711
C43	C	0.607643	-0.271226	0.271175
C44	C	1.107643	0.228774	0.771175
C45	C	0.644327	-0.238904	0.238959
C46	C	1.144327	0.261096	0.738959
C47	C	0.717677	-0.241234	0.241280
C48	C	1.217677	0.258766	0.741280
C49	C	0.386176	-0.262513	0.262499
C50	C	0.886176	0.237487	0.762499
C51	C	0.312822	-0.260186	0.260179
C52	C	0.812822	0.239814	0.760179
C53	C	0.312812	-0.327155	0.326932
C54	C	0.812812	0.172845	0.826932
C55	C	0.386163	-0.329485	0.329248
C56	C	0.886163	0.170515	0.829248
C57	C	0.422841	-0.297161	0.297034
C58	C	0.922841	0.202839	0.797034
C59	C	0.532667	-0.268842	0.268803
C60	C	1.032667	0.231158	0.768803
C61	C	0.497815	-0.299543	0.299408
C62	C	0.997815	0.200457	0.799408
C63	C	1.014768	-0.420017	0.284059
C64	C	1.514768	0.079983	0.784059
C65	C	1.014782	-0.478131	0.284066
C66	C	1.514782	0.021869	0.784066
C67	C	1.059913	-0.839926	0.252135
C68	C	1.559913	-0.339926	0.752135
C69	C	1.059940	-0.894531	0.252143
C70	C	1.559940	-0.394531	0.752143
O71	O	1.098190	-0.923981	0.224963
O72	O	1.598190	-0.423981	0.724963
N73	N	1.015010	-0.920421	0.284125
N74	N	1.515010	-0.420421	0.784125
C75	C	0.970054	-0.891703	0.316105
C76	C	1.470054	-0.391703	0.816105
O77	O	0.931840	-0.918739	0.343310
O78	O	1.431840	-0.418739	0.843310
C79	C	0.970031	-0.837099	0.316100
C80	C	1.470031	-0.337099	0.816100
C81	C	1.014959	-0.811212	0.284111
C82	C	1.514959	-0.311212	0.784111
C83	C	1.104838	-0.814039	0.220149
C84	C	1.604838	-0.314039	0.720149
C85	C	1.104810	-0.759437	0.220141
C86	C	1.604810	-0.259437	0.720141
C87	C	1.059856	-0.730723	0.252118
C88	C	1.559856	-0.230723	0.752118
C89	C	1.014931	-0.756610	0.284103
C90	C	1.514931	-0.256610	0.784103
C91	C	0.925079	-0.808382	0.348083
C92	C	1.425079	-0.308382	0.848083
C93	C	0.925060	-0.753775	0.348075
C94	C	1.425060	-0.253775	0.848075
C95	C	0.969989	-0.727887	0.316086
C96	C	1.469989	-0.227887	0.816086
C97	C	0.969949	-0.673295	0.316071
C98	C	1.469949	-0.173295	0.816071
N99	N	1.014880	-0.647405	0.284089
N100	N	1.514880	-0.147405	0.784089
C101	C	1.059833	-0.676119	0.252112
C102	C	1.559833	-0.176119	0.752112
C103	C	0.970107	-1.006375	0.316115
C104	C	1.470107	-0.506375	0.816115
C105	C	0.970126	-1.060978	0.316118
C106	C	1.470126	-0.560978	0.816118
C107	C	1.060013	-1.063803	0.252156
C108	C	1.560013	-0.563803	0.752156
C109	C	1.059990	-1.009199	0.252150
C110	C	1.559990	-0.509199	0.752150
C111	C	1.015037	-0.980485	0.284133
C112	C	1.515037	-0.480485	0.784133
C113	C	1.059770	-0.561452	0.252097
C114	C	1.559770	-0.061452	0.752097
C115	C	1.059735	-0.506846	0.252089
C116	C	1.559735	-0.006846	0.752089
C117	C	0.969851	-0.504026	0.316053
C118	C	1.469851	-0.004026	0.816053
C119	C	0.969883	-0.558628	0.316059
C120	C	1.469883	-0.058628	0.816059
C121	C	1.014848	-0.587339	0.284079
C122	C	1.514848	-0.087339	0.784079
O123	O	0.931721	-0.643811	0.343239
O124	O	1.431721	-0.143811	0.843239
O125	O	1.098047	-0.649077	0.224917
O126	O	1.598047	-0.149077	0.724917
C127	C	1.198077	-0.290016	0.289911
C128	C	1.698077	0.209984	0.789911
C129	C	1.276142	-0.292504	0.292394
C130	C	1.776142	0.207496	0.792394
C131	C	1.014932	-0.284156	0.420461
C132	C	1.514932	0.215844	0.920461
C133	C	1.014951	-0.284146	0.478575
C134	C	1.514951	0.215854	0.978575
C135	C	1.015024	-0.147809	0.284126
C136	C	1.515024	0.352191	0.784126
C137	C	1.015083	-0.089697	0.284143
C138	C	1.515083	0.410303	0.784143
C139	C	1.014881	-0.284164	0.148244
C140	C	1.514881	0.215836	0.648244
C141	C	1.014998	-0.284031	0.090134
C142	C	1.514998	0.215969	0.590134
C143	C	0.970084	-0.249214	0.837526
C144	C	1.470084	0.250786	1.337526
C145	C	0.970088	-0.249204	0.892131
C146	C	1.470088	0.250796	1.392131
O147	O	0.931905	-0.219560	0.919165
O148	O	1.431905	0.280440	1.419165
N149	N	1.014975	-0.284065	0.920859
N150	N	1.514975	0.215935	1.420859
C151	C	1.059856	-0.318941	0.894980
C152	C	1.559856	0.181059	1.394980
O153	O	1.098035	-0.348592	0.924429
O154	O	1.598035	0.151408	1.424429
C155	C	1.059848	-0.318952	0.840376
C156	C	1.559848	0.181048	1.340376
C157	C	1.014963	-0.284086	0.811651
C158	C	1.514963	0.215914	1.311651
C159	C	0.925203	-0.214351	0.808801
C160	C	1.425203	0.285649	1.308801
C161	C	0.925200	-0.214359	0.754200
C162	C	1.425200	0.285641	1.254200
C163	C	0.970079	-0.249231	0.728325
C164	C	1.470079	0.250769	1.228325
C165	C	1.014960	-0.284095	0.757050
C166	C	1.514960	0.215905	1.257050
C167	C	1.104724	-0.353830	0.814498
C168	C	1.604724	0.146170	1.314498
C169	C	1.104712	-0.353839	0.759891
C170	C	1.604712	0.146161	1.259891
C171	C	1.059828	-0.318972	0.731165
C172	C	1.559828	0.181028	1.231165
C173	C	1.059837	-0.318975	0.676574
C174	C	1.559837	0.181025	1.176574
N175	N	1.014950	-0.284115	0.647846
N176	N	1.514950	0.215885	1.147846
C177	C	0.970071	-0.249243	0.673721
C178	C	1.470071	0.250757	1.173721
C179	C	1.059868	-0.318915	1.009651
C180	C	1.559868	0.181085	1.509651
C181	C	1.059880	-0.318901	1.064254
C182	C	1.559880	0.181099	1.564254
C183	C	0.970111	-0.249165	1.061401
C184	C	1.470111	0.250835	1.561401
C185	C	0.970103	-0.249177	1.006797
C186	C	1.470103	0.250823	1.506797
C187	C	1.014981	-0.284054	0.980923
C188	C	1.514981	0.215946	1.480923
C189	C	0.970069	-0.249264	0.559056
C190	C	1.470069	0.250736	1.059056
C191	C	0.970072	-0.249274	0.504451
C192	C	1.470072	0.250726	1.004451
C193	C	1.059838	-0.319012	0.507308
C194	C	1.559838	0.180988	1.007308
C195	C	1.059838	-0.319000	0.561909
C196	C	1.559838	0.181000	1.061909
C197	C	1.014948	-0.284124	0.587781
C198	C	1.514948	0.215876	1.087781
O199	O	1.097998	-0.348606	0.649504
O200	O	1.597998	0.151394	1.149504
O201	O	0.931891	-0.219601	0.644265
O202	O	1.431891	0.280399	1.144265
H203	H	0.614465	-0.210691	0.210841
H204	H	1.114465	0.289309	0.710841
O205	O	1.153281	-0.731522	0.185647
O206	O	1.653281	-0.231522	0.685647
H207	H	1.141281	-0.741657	0.144224
H208	H	1.641281	-0.241657	0.644224
H209	H	0.502802	-0.240632	0.240683
H210	H	1.002802	0.259368	0.740683
H211	H	1.141274	-0.382223	0.837877
H212	H	1.641274	0.117777	1.337877
O213	O	0.273256	-0.222829	0.222918
O214	O	0.773256	0.277171	0.722918
H215	H	0.239855	-0.195207	0.245303
H216	H	0.739855	0.304793	0.745303
O217	O	0.425709	-0.366863	0.366492
O218	O	0.925709	0.133137	0.866492
H219	H	0.482875	-0.363059	0.362688
H220	H	0.982875	0.136941	0.862688
H221	H	0.747514	-0.336422	0.336150
H222	H	1.247514	0.163578	0.836150
H223	H	0.933534	-1.082051	0.342161
H224	H	1.433534	-0.582051	0.842161
H225	H	0.416031	-0.236196	0.236264
H226	H	0.916031	0.263804	0.736264
O227	O	0.921602	-0.975406	0.350598
O228	O	1.421602	-0.475406	0.850598
H229	H	0.890359	-1.002586	0.372830
H230	H	1.390359	-0.502586	0.872830
O231	O	0.921370	-0.473046	0.350541
O232	O	1.421370	0.026954	0.850541
H233	H	0.866257	-0.481812	0.339790
H234	H	1.366257	0.018188	0.839790
O235	O	0.757244	-0.206384	0.206529
O236	O	1.257244	0.293616	0.706529
H237	H	0.719424	-0.181904	0.182118
H238	H	1.219424	0.318096	0.682118
H239	H	1.096380	-0.347402	0.486231
H240	H	1.596380	0.152598	0.986231
O241	O	0.921661	-0.211663	0.473471
O242	O	1.421661	0.288337	0.973471
H243	H	0.885903	-0.233924	0.447440
H244	H	1.385903	0.266076	0.947440
H245	H	0.527675	-0.327751	0.327529
H246	H	1.027675	0.172249	0.827529
O247	O	0.604748	-0.340830	0.340355
O248	O	1.104748	0.159170	0.840355
H249	H	0.642570	-0.365356	0.364719
H250	H	1.142570	0.134644	0.864719
O251	O	0.876567	-0.722810	0.382569
O252	O	1.376567	-0.222810	0.882569
H253	H	0.907966	-0.698896	0.410189
H254	H	1.407966	-0.198896	0.910189
H255	H	0.933516	-0.220864	0.580115
H256	H	1.433516	0.279136	1.080115
O257	O	0.876784	-0.176757	0.723220
O258	O	1.376784	0.323243	1.223220
H259	H	0.908241	-0.151159	0.699357
H260	H	1.408241	0.348841	1.199357
O261	O	0.921702	-0.211551	1.089313
O262	O	1.421702	0.288449	1.589313
H263	H	0.929248	-0.217407	1.132107
H264	H	1.429248	0.282593	1.632107
H265	H	1.096321	-0.485770	0.226039
H266	H	1.596321	0.014230	0.726039
O267	O	1.153118	-0.391457	0.731983
O268	O	1.653118	0.108543	1.231983
H269	H	1.188871	-0.369201	0.708251
H270	H	1.688871	0.130799	1.208251
O271	O	1.108260	-0.592416	0.217601
O272	O	1.608260	-0.092416	0.717601
H273	H	1.139485	-0.565234	0.195357
H274	H	1.639485	-0.065234	0.695357
O275	O	0.876625	-0.836296	0.382588
O276	O	1.376625	-0.336296	0.882588
H277	H	0.845374	-0.807148	0.404824
H278	H	1.345374	-0.307148	0.904824
H279	H	1.141449	-0.837412	0.194110
H280	H	1.641449	-0.337412	0.694110
H281	H	1.096575	-0.988125	0.226103
H282	H	1.596575	-0.488125	0.726103
H283	H	1.096421	-0.347313	0.988588
H284	H	1.596421	0.152687	1.488588
H285	H	0.282941	-0.353470	0.353159
H286	H	0.782941	0.146530	0.853159
H287	H	1.096619	-1.087192	0.226120
H288	H	1.596619	-0.587192	0.726120
O289	O	0.921413	-0.586546	0.350555
O290	O	1.421413	-0.086546	0.850555
H291	H	0.885707	-0.610326	0.326000
H292	H	1.385707	-0.110326	0.826000
H293	H	0.888653	-0.185953	0.829862
H294	H	1.388653	0.314047	1.329862
O295	O	0.921692	-0.211572	0.975815
O296	O	1.421692	0.288428	1.475815
H297	H	0.890488	-0.187325	1.002987
H298	H	1.390488	0.312675	1.502987
H299	H	1.096437	-0.347287	1.087638
H300	H	1.596437	0.152713	1.587638
H301	H	1.096394	-0.347385	0.585299
H302	H	1.596394	0.152615	1.085299
