data_functionalizedCrystal
_audit_creation_method	'MofGen! by Chris Wilmer'
_symmetry_space_group_name_H-M	'P1'
_symmetry_Int_Tables_number	1
_symmetry_cell_setting	triclinic
loop_
_symmetry_equiv_pos_as_xyz
  x,y,z
_cell_length_a	11.792241
_cell_length_b	10.654550
_cell_length_c	9.130313
_cell_angle_alpha	89.997153
_cell_angle_beta	90.000475
_cell_angle_gamma	84.339173
loop_
_atom_site_label
_atom_site_type_symbol
_atom_site_fract_x
_atom_site_fract_y
_atom_site_fract_z
O1	O	-1.507305	-0.172132	0.121657
O2	O	-1.177005	-0.189873	0.121691
O3	O	-1.349750	0.001758	0.121664
O4	O	-1.334561	-0.363763	0.121684
O5	O	-1.349737	0.001758	-0.121935
O6	O	-1.176992	-0.189873	-0.121908
O7	O	-1.507292	-0.172132	-0.121942
Cu8	Cu	-1.342141	-0.181003	-0.144168
Cu9	Cu	-1.342157	-0.181002	0.143916
O10	O	-1.334548	-0.363763	-0.121915
C11	C	-1.134705	-0.188758	-0.000104
C12	C	-1.008684	-0.185423	-0.000092
C13	C	-1.348628	0.048553	-0.000135
C14	C	-1.345291	0.187987	-0.000132
C15	C	-1.549592	-0.173247	-0.000144
C16	C	-1.675614	-0.176582	-0.000147
C17	C	-0.777958	-0.179290	-0.000134
C18	C	-0.906351	-0.182697	-0.000111
C19	C	-1.335670	-0.410558	-0.000113
C20	C	-1.339006	-0.549992	-0.000106
N21	N	-1.342138	-0.181002	-0.346790
C22	C	-1.447000	0.267760	-0.000142
C23	C	-1.443859	0.398772	-0.000124
C24	C	-1.237290	0.370225	-0.000092
C25	C	-1.240433	0.239215	-0.000100
C26	C	-1.411574	-0.257688	-0.423440
C27	C	-1.411593	-0.257680	-0.576777
C28	C	-1.272729	-0.104299	-0.576801
C29	C	-1.272718	-0.104300	-0.423467
N30	N	-1.342168	-0.180993	0.346539
H31	H	-1.526681	0.463719	-0.000129
H32	H	-1.151917	0.411951	-0.000068
H33	H	-1.216174	-0.041847	-0.361057
H34	H	-1.157604	0.174260	-0.000087
H35	H	-1.532383	0.226055	-0.000166
O36	O	-1.479119	-0.332219	-0.349182
C37	C	-1.616809	-0.484401	-0.365350
C38	C	-1.540385	-0.400036	-0.449622
H39	H	-1.666344	-0.539273	-0.446519
H40	H	-1.679080	-0.423159	-0.293598
H41	H	-1.561509	-0.553299	-0.293526
H42	H	-1.595593	-0.331126	-0.521525
H43	H	-1.478107	-0.461357	-0.521281
H44	H	-1.468136	-0.320124	-0.639178
H45	H	-1.216208	-0.041853	-0.639249
