data_functionalizedCrystal
_audit_creation_method	'MofGen! by Chris Wilmer'
_symmetry_space_group_name_H-M	'P1'
_symmetry_Int_Tables_number	1
_symmetry_cell_setting	triclinic
loop_
_symmetry_equiv_pos_as_xyz
  x,y,z
_cell_length_a	12.827893
_cell_length_b	18.050589
_cell_length_c	12.827885
_cell_angle_alpha	90.029551
_cell_angle_beta	90.019272
_cell_angle_gamma	90.028191
loop_
_atom_site_label
_atom_site_type_symbol
_atom_site_fract_x
_atom_site_fract_y
_atom_site_fract_z
Zn1	Zn	1.597576	-0.295624	0.590850
Zn2	Zn	1.597431	-0.419832	0.416111
Zn3	Zn	1.422818	-0.295660	0.416124
Zn4	Zn	1.422764	-0.419777	0.590811
O5	O	1.510147	-0.357723	0.503474
O6	O	1.743793	-0.312109	0.567682
O7	O	1.574230	-0.403399	0.269877
O8	O	1.446083	-0.191731	0.439323
O9	O	1.743687	-0.403364	0.439302
O10	O	1.574478	-0.191704	0.567694
O11	O	1.445943	-0.312170	0.269886
O12	O	1.276575	-0.312117	0.439286
O13	O	1.445991	-0.403269	0.737053
O14	O	1.276535	-0.403304	0.567628
O15	O	1.574425	-0.312055	0.737081
O16	O	1.574178	-0.523749	0.439264
O17	O	1.445851	-0.523709	0.567615
C18	C	1.238638	-0.357709	0.503454
C19	C	1.122484	-0.357721	0.503471
C20	C	1.070708	-0.402914	0.566880
C21	C	0.950657	-0.402927	0.566899
C22	C	1.510021	-0.550675	0.503457
C23	C	1.510063	-0.633221	0.503484
C24	C	1.440347	-0.832677	0.573257
C25	C	1.414870	-0.882124	0.477900
C26	C	1.510166	-0.784351	0.503498
C27	C	1.535694	-0.881986	0.598866
C28	C	1.510263	-0.930337	0.503520
C29	C	1.484639	-0.832712	0.408091
C30	C	1.605506	-0.832569	0.529120
C31	C	1.580066	-0.881994	0.433698
C32	C	1.510107	-0.700253	0.503487
C33	C	1.510322	-1.014433	0.503520
C34	C	1.782718	-0.357738	0.503495
C35	C	1.898871	-0.357745	0.503504
C36	C	1.510219	-0.357652	0.776045
C37	C	1.510249	-0.357622	0.892198
C38	C	1.510303	-0.164018	0.503515
C39	C	1.510369	-0.081472	0.503532
C40	C	1.510137	-0.357741	0.231964
C41	C	1.510309	-0.357562	0.115812
C42	C	1.573809	-0.312477	0.943997
C43	C	1.573842	-0.312444	1.064047
H44	H	0.906131	-0.441621	0.621183
Br45	Br	1.571615	-0.918068	0.733272
Br46	Br	1.678550	-0.917860	0.335281
Br47	Br	0.973071	-0.293256	0.413003
Br48	Br	1.419612	-0.421994	1.041580
H49	H	1.455850	-0.396243	0.936728
H50	H	1.334289	-0.903907	0.456249
Br51	Br	1.739786	-0.796263	0.565283
H52	H	1.115256	-0.441593	0.621158
H53	H	1.077936	-0.319036	0.449201
Br54	Br	1.341800	-0.796581	0.671448
Br55	Br	1.664440	-0.248071	0.869789
H56	H	1.462993	-0.811157	0.327426
Br57	Br	1.664554	-0.248027	1.138286
