data_functionalizedCrystal
_audit_creation_method	'MofGen! by Chris Wilmer'
_symmetry_space_group_name_H-M	'P1'
_symmetry_Int_Tables_number	1
_symmetry_cell_setting	triclinic
loop_
_symmetry_equiv_pos_as_xyz
  x,y,z
_cell_length_a	19.121424
_cell_length_b	12.759399
_cell_length_c	12.759393
_cell_angle_alpha	90.030906
_cell_angle_beta	92.410897
_cell_angle_gamma	87.541192
loop_
_atom_site_label
_atom_site_type_symbol
_atom_site_fract_x
_atom_site_fract_y
_atom_site_fract_z
Zn1	Zn	1.073771	0.349641	-0.525776
Zn2	Zn	1.073697	0.525361	-0.350100
Zn3	Zn	0.956316	0.357193	-0.357576
Zn4	Zn	0.956310	0.532780	-0.533197
O5	O	1.015024	0.441244	-0.441662
O6	O	1.172043	0.366685	-0.496238
O7	O	1.058098	0.503109	-0.204072
O8	O	0.971930	0.209168	-0.379911
O9	O	1.171989	0.495786	-0.367169
O10	O	1.058224	0.203620	-0.503487
O11	O	0.971859	0.379557	-0.209565
O12	O	0.858033	0.386750	-0.387107
O13	O	0.971920	0.508430	-0.679232
O14	O	0.858029	0.515753	-0.516135
O15	O	1.058218	0.373879	-0.673780
O16	O	1.058092	0.673368	-0.374365
O17	O	0.971848	0.678819	-0.508886
C18	C	0.832548	0.452877	-0.453238
C19	C	0.754484	0.457879	-0.458215
C20	C	0.312970	0.489510	-0.489813
C21	C	0.386320	0.484818	-0.485117
C22	C	0.422974	0.415199	-0.415702
C23	C	0.386275	0.350276	-0.350972
C24	C	0.312927	0.354974	-0.355664
C25	C	0.644437	0.397654	-0.398177
C26	C	0.717790	0.392958	-0.393492
C27	C	0.717830	0.527503	-0.527636
C28	C	0.644480	0.532190	-0.532326
C29	C	0.607787	0.467271	-0.467592
C30	C	0.497949	0.410399	-0.410903
C31	C	0.532814	0.472077	-0.472387
C32	C	1.014981	0.714214	-0.441641
C33	C	1.015026	0.830988	-0.441663
C34	C	1.015076	0.441140	-0.715692
C35	C	1.015099	0.441095	-0.832468
C36	C	1.198212	0.429566	-0.430042
C37	C	1.276276	0.424589	-0.425090
C38	C	1.015086	0.167206	-0.441705
C39	C	1.015113	0.050428	-0.441724
C40	C	1.059985	0.882973	-0.371691
C41	C	1.060030	0.992694	-0.371724
C42	C	0.970152	0.998435	-0.511703
C43	C	0.970111	0.888715	-0.511675
C44	C	1.060037	0.371023	-0.884492
C45	C	1.060049	0.370977	-0.994216
C46	C	0.970182	0.511084	-0.999881
C47	C	0.970167	0.511124	-0.890159
C48	C	1.015012	0.441269	-0.168696
C49	C	1.015125	0.441009	-0.051912
H50	H	0.747713	0.580357	-0.580338
H51	H	1.096559	0.835974	-0.314685
O52	O	0.921698	1.060707	-0.587192
H53	H	0.953128	1.108622	-0.638696
H54	H	0.933567	0.568185	-0.847800
H55	H	0.283132	0.546196	-0.546344
O56	O	0.493311	0.547196	-0.547252
H57	H	0.459919	0.502407	-0.602949
H58	H	0.933501	0.846386	-0.568660
O59	O	1.108491	0.295489	-0.822263
H60	H	1.139737	0.246749	-0.876878
O61	O	1.108516	1.048769	-0.296249
H62	H	1.139736	0.990191	-0.247559
O63	O	1.108522	0.295406	-1.050332
H64	H	1.139765	0.246727	-0.991778
O65	O	0.921722	0.586616	-1.062103
H66	H	0.929284	0.574823	-1.147140
O67	O	0.604868	0.607291	-0.607098
H68	H	0.571439	0.662735	-0.561994
O69	O	0.425899	0.554830	-0.554934
H70	H	0.388089	0.604017	-0.604002
H71	H	0.614570	0.344796	-0.345462
O72	O	0.757329	0.317872	-0.318615
H73	H	0.719492	0.273525	-0.274381
H74	H	0.283051	0.302105	-0.302962
O75	O	0.425801	0.275186	-0.276096
H76	H	0.459238	0.219640	-0.321073
O77	O	0.537481	0.335305	-0.336037
H78	H	0.570921	0.279770	-0.381022
