data_functionalizedCrystal
_audit_creation_method	'MofGen! by Chris Wilmer'
_symmetry_space_group_name_H-M	'P1'
_symmetry_Int_Tables_number	1
_symmetry_cell_setting	triclinic
loop_
_symmetry_equiv_pos_as_xyz
  x,y,z
_cell_length_a	19.805407
_cell_length_b	21.295417
_cell_length_c	19.805399
_cell_angle_alpha	89.969157
_cell_angle_beta	89.980427
_cell_angle_gamma	90.030507
loop_
_atom_site_label
_atom_site_type_symbol
_atom_site_fract_x
_atom_site_fract_y
_atom_site_fract_z
Zn1	Zn	1.034716	-0.250624	-0.382704
Zn2	Zn	1.368050	0.082710	-0.049371
Zn3	Zn	1.701383	0.416043	0.283962
Zn4	Zn	1.034623	-0.355893	-0.269510
Zn5	Zn	1.367956	-0.022559	0.063824
Zn6	Zn	1.701290	0.310774	0.397157
Zn7	Zn	0.921531	-0.250641	-0.269529
Zn8	Zn	1.254864	0.082692	0.063804
Zn9	Zn	1.588198	0.416026	0.397138
Zn10	Zn	0.921486	-0.355859	-0.382656
Zn11	Zn	1.254820	-0.022526	-0.049323
Zn12	Zn	1.588153	0.310808	0.284010
O13	O	0.978089	-0.303254	-0.326100
O14	O	1.311423	0.030079	0.007234
O15	O	1.644756	0.363413	0.340567
O16	O	1.129421	-0.264595	-0.367701
O17	O	1.462754	0.068739	-0.034367
O18	O	1.796087	0.402072	0.298966
O19	O	1.019601	-0.341952	-0.174796
O20	O	1.352934	-0.008619	0.158538
O21	O	1.686268	0.324715	0.491871
O22	O	0.936603	-0.162549	-0.284570
O23	O	1.269936	0.170784	0.048763
O24	O	1.603270	0.504117	0.382097
O25	O	1.129352	-0.341935	-0.284537
O26	O	1.462685	-0.008602	0.048796
O27	O	1.796019	0.324732	0.382130
O28	O	1.019760	-0.162537	-0.367719
O29	O	1.353093	0.170797	-0.034386
O30	O	1.686426	0.504130	0.298947
O31	O	0.936513	-0.264624	-0.174810
O32	O	1.269846	0.068709	0.158524
O33	O	1.603179	0.402042	0.491857
O34	O	0.826809	-0.264592	-0.284523
O35	O	1.160142	0.068742	0.048810
O36	O	1.493475	0.402075	0.382143
O37	O	0.936527	-0.341878	-0.477379
O38	O	1.269860	-0.008545	-0.144046
O39	O	1.603194	0.324789	0.189287
O40	O	0.826776	-0.341895	-0.367638
O41	O	1.160109	-0.008562	-0.034304
O42	O	1.493442	0.324772	0.299029
O43	O	1.019717	-0.264562	-0.477415
O44	O	1.353050	0.068771	-0.144081
O45	O	1.686383	0.402104	0.189252
O46	O	1.019558	-0.443977	-0.284491
O47	O	1.352891	-0.110644	0.048843
O48	O	1.686224	0.222689	0.382176
O49	O	0.936437	-0.443953	-0.367619
O50	O	1.269770	-0.110620	-0.034286
O51	O	1.603103	0.222714	0.299048
C52	C	0.802233	-0.303242	-0.326078
C53	C	1.135567	0.030091	0.007255
C54	C	1.468900	0.363425	0.340589
C55	C	0.727001	-0.303252	-0.326085
C56	C	1.060335	0.030081	0.007249
C57	C	1.393668	0.363415	0.340582
C58	C	0.691658	-0.343564	-0.369292
C59	C	1.024991	-0.010231	-0.035959
C60	C	1.358324	0.323102	0.297375
C61	C	0.620969	-0.343566	-0.369302
C62	C	0.954303	-0.010232	-0.035968
C63	C	1.287636	0.323101	0.297365
C64	C	0.585626	-0.303257	-0.326100
C65	C	0.918959	0.030076	0.007234
C66	C	1.252292	0.363410	0.340567
C67	C	0.620974	-0.262940	-0.282890
C68	C	0.954307	0.070393	0.050443
C69	C	1.287641	0.403726	0.383776
C70	C	0.691661	-0.262936	-0.282885
C71	C	1.024995	0.070397	0.050449
C72	C	1.358328	0.403730	0.383782
C73	C	0.335901	-0.262954	-0.282913
C74	C	0.669234	0.070379	0.050421
C75	C	1.002568	0.403713	0.383754
C76	C	0.265209	-0.262962	-0.282920
C77	C	0.598542	0.070371	0.050413
C78	C	0.931875	0.403704	0.383746
C79	C	0.265209	-0.343583	-0.369330
C80	C	0.598542	-0.010250	-0.035996
C81	C	0.931876	0.323083	0.297337
C82	C	0.335896	-0.343579	-0.369324
C83	C	0.669229	-0.010246	-0.035991
C84	C	1.002563	0.323087	0.297343
C85	C	0.371238	-0.303261	-0.326117
C86	C	0.704572	0.030073	0.007216
C87	C	1.037905	0.363406	0.340549
C88	C	0.447887	-0.303259	-0.326109
C89	C	0.781220	0.030074	0.007225
C90	C	1.114553	0.363408	0.340558
C91	C	0.508979	-0.303261	-0.326105
C92	C	0.842312	0.030072	0.007229
C93	C	1.175645	0.363405	0.340562
C94	C	0.978001	-0.466806	-0.326062
C95	C	1.311334	-0.133472	0.007271
C96	C	1.644667	0.199861	0.340604
C97	C	0.978024	-0.536774	-0.326069
C98	C	1.311358	-0.203441	0.007264
C99	C	1.644691	0.129893	0.340598
C100	C	1.021344	-0.569632	-0.282828
C101	C	1.354677	-0.236299	0.050505
C102	C	1.688011	0.097034	0.383838
C103	C	1.021376	-0.635375	-0.282844
C104	C	1.354709	-0.302042	0.050490
C105	C	1.688042	0.031292	0.383823
C106	C	0.978076	-0.668256	-0.326092
C107	C	1.311409	-0.334923	0.007241
C108	C	1.644743	-0.001590	0.340574
C109	C	0.934753	-0.635390	-0.369341
C110	C	1.268087	-0.302057	-0.036008
C111	C	1.601420	0.031277	0.297325
C112	C	0.934728	-0.569649	-0.369330
C113	C	1.268061	-0.236315	-0.035996
C114	C	1.601394	0.097018	0.297337
N115	N	0.918865	-0.771522	-0.331245
N116	N	1.252199	-0.438189	0.002089
N117	N	1.585532	-0.104856	0.335422
N118	N	0.918892	-0.833974	-0.331252
N119	N	1.252225	-0.500640	0.002081
N120	N	1.585558	-0.167307	0.335415
C121	C	0.978152	-0.866331	-0.326131
C122	C	1.311485	-0.532998	0.007202
C123	C	1.644818	-0.199664	0.340536
N124	N	1.037386	-0.833878	-0.320989
N125	N	1.370719	-0.500544	0.012344
N126	N	1.704052	-0.167211	0.345677
N127	N	1.037358	-0.771421	-0.320979
N128	N	1.370692	-0.438087	0.012354
N129	N	1.704025	-0.104754	0.345688
C130	C	0.978099	-0.739542	-0.326110
C131	C	1.311433	-0.406208	0.007223
C132	C	1.644766	-0.072875	0.340557
C133	C	1.021509	-0.970475	-0.282905
C134	C	1.354843	-0.637142	0.050429
C135	C	1.688176	-0.303808	0.383762
C136	C	1.021542	-1.036219	-0.282925
C137	C	1.354875	-0.702885	0.050409
C138	C	1.688209	-0.369552	0.383742
C139	C	0.934914	-1.036233	-0.369419
C140	C	1.268247	-0.702899	-0.036085
C141	C	1.601580	-0.369566	0.297248
C142	C	0.934887	-0.970490	-0.369402
C143	C	1.268220	-0.637157	-0.036069
C144	C	1.601553	-0.303823	0.297264
C145	C	0.978184	-0.937615	-0.326142
C146	C	1.311517	-0.604282	0.007192
C147	C	1.644850	-0.270949	0.340525
C148	C	1.154632	-0.303267	-0.326122
C149	C	1.487965	0.030067	0.007211
C150	C	1.821299	0.363400	0.340545
C151	C	1.229864	-0.303272	-0.326132
C152	C	1.563197	0.030061	0.007202
C153	C	1.896531	0.363395	0.340535
C154	C	0.978127	-0.303214	-0.502643
C155	C	1.311461	0.030119	-0.169309
C156	C	1.644794	0.363452	0.164024
C157	C	0.978143	-0.303198	-0.577875
C158	C	1.311477	0.030136	-0.244541
C159	C	1.644810	0.363469	0.088792
C160	C	0.978197	-0.139064	-0.326152
C161	C	1.311530	0.194269	0.007181
C162	C	1.644863	0.527603	0.340514
C163	C	0.978243	-0.069096	-0.326175
C164	C	1.311576	0.264238	0.007159
C165	C	1.644909	0.597571	0.340492
C166	C	1.021461	-0.262937	-0.613238
C167	C	1.354795	0.070396	-0.279905
C168	C	1.688128	0.403729	0.053428
C169	C	1.021468	-0.262919	-0.683927
C170	C	1.354801	0.070414	-0.350593
C171	C	1.688135	0.403748	-0.017260
C172	C	0.978160	-0.303165	-0.719250
C173	C	1.311494	0.030169	-0.385917
C174	C	1.644827	0.363502	-0.052584
C175	C	0.934838	-0.343427	-0.683882
C176	C	1.268171	-0.010094	-0.350548
C177	C	1.601504	0.323240	-0.017215
C178	C	0.934828	-0.343442	-0.613195
C179	C	1.268161	-0.010108	-0.279861
C180	C	1.601494	0.323225	0.053472
C181	C	0.934876	-0.343368	-0.968955
C182	C	1.268209	-0.010035	-0.635622
C183	C	1.601543	0.323298	-0.302289
C184	C	0.934891	-0.343352	-1.039647
C185	C	1.268224	-0.010018	-0.706314
C186	C	1.601557	0.323315	-0.372981
C187	C	1.021516	-0.262846	-1.039687
C188	C	1.354850	0.070488	-0.706354
C189	C	1.688183	0.403821	-0.373021
C190	C	1.021506	-0.262860	-0.969000
C191	C	1.354840	0.070473	-0.635667
C192	C	1.688173	0.403806	-0.302333
C193	C	0.978182	-0.303120	-0.933638
C194	C	1.311515	0.030214	-0.600304
C195	C	1.644848	0.363547	-0.266971
C196	C	0.978174	-0.303138	-0.856989
C197	C	1.311507	0.030195	-0.523656
C198	C	1.644840	0.363528	-0.190323
C199	C	0.978171	-0.303150	-0.795897
C200	C	1.311504	0.030183	-0.462564
C201	C	1.644838	0.363517	-0.129231
C202	C	0.978090	-0.303248	-0.150244
C203	C	1.311424	0.030085	0.183090
C204	C	1.644757	0.363418	0.516423
C205	C	0.978205	-0.303088	-0.075012
C206	C	1.311539	0.030246	0.258321
C207	C	1.644872	0.363579	0.591654
H208	H	0.236434	-0.230134	-0.247740
H209	H	0.569767	0.103199	0.085593
H210	H	0.903101	0.436532	0.418927
N211	N	1.068235	-0.219416	-1.077835
N212	N	1.401568	0.113918	-0.744502
N213	N	1.734902	0.447251	-0.411169
H214	H	1.057751	-0.174441	-1.065543
H215	H	1.391085	0.158892	-0.732210
H216	H	1.724418	0.492226	-0.398877
H217	H	1.116570	-0.229252	-1.065529
H218	H	1.449903	0.104081	-0.732195
H219	H	1.783237	0.437415	-0.398862
N220	N	1.068052	-0.534175	-0.236181
N221	N	1.401385	-0.200842	0.097152
N222	N	1.734718	0.132492	0.430485
H223	H	1.057578	-0.545655	-0.187811
H224	H	1.390911	-0.212322	0.145522
H225	H	1.724245	0.121012	0.478855
H226	H	1.116389	-0.545589	-0.246805
H227	H	1.449722	-0.212256	0.086528
H228	H	1.783056	0.121077	0.419861
H229	H	0.592192	-0.230118	-0.247718
H230	H	0.925525	0.103216	0.085616
H231	H	1.258858	0.436549	0.418949
N232	N	0.888143	-0.386797	-0.930838
N233	N	1.221476	-0.053464	-0.597505
N234	N	1.554810	0.279870	-0.264172
H235	H	0.915614	-0.415984	-0.901503
H236	H	1.248947	-0.082651	-0.568169
H237	H	1.582280	0.250683	-0.234836
H238	H	0.856790	-0.361178	-0.901557
H239	H	1.190123	-0.027845	-0.568224
H240	H	1.523456	0.305488	-0.234890
H241	H	0.899661	-1.063004	-0.404636
H242	H	1.232994	-0.729671	-0.071302
H243	H	1.566328	-0.396337	0.262031
N244	N	0.888100	-0.386864	-0.575056
N245	N	1.221433	-0.053530	-0.241722
N246	N	1.554766	0.279803	0.091611
H247	H	0.898581	-0.431840	-0.587342
H248	H	1.231914	-0.098507	-0.254009
H249	H	1.565247	0.234827	0.079324
H250	H	0.894680	-0.380713	-0.524928
H251	H	1.228014	-0.047380	-0.191594
H252	H	1.561347	0.285954	0.141739
N253	N	1.068101	-0.670826	-0.236205
N254	N	1.401435	-0.337493	0.097129
N255	N	1.734768	-0.004159	0.430462
H256	H	1.095526	-0.640024	-0.208799
H257	H	1.428859	-0.306691	0.124534
H258	H	1.762193	0.026642	0.457868
H259	H	1.040574	-0.698145	-0.204865
H260	H	1.373907	-0.364812	0.128469
H261	H	1.707240	-0.031478	0.461802
H262	H	0.899573	-0.376193	-0.712648
H263	H	1.232907	-0.042860	-0.379314
H264	H	1.566240	0.290473	-0.045981
H265	H	0.592196	-0.376393	-0.404485
H266	H	0.925529	-0.043059	-0.071152
H267	H	1.258862	0.290274	0.262182
H268	H	0.364668	-0.230129	-0.247726
H269	H	0.698001	0.103205	0.085607
H270	H	1.031335	0.436538	0.418941
N271	N	1.068208	-0.935007	-0.236255
N272	N	1.401541	-0.601673	0.097078
N273	N	1.734874	-0.268340	0.430412
H274	H	1.057732	-0.946490	-0.187886
H275	H	1.391065	-0.613157	0.145447
H276	H	1.724398	-0.279823	0.478780
H277	H	1.116549	-0.946410	-0.246874
H278	H	1.449882	-0.613077	0.086460
H279	H	1.783216	-0.279743	0.419793
H280	H	1.056743	-0.230136	-0.712717
H281	H	1.390077	0.103197	-0.379383
H282	H	1.723410	0.436530	-0.046050
H283	H	0.720437	-0.230107	-0.247704
H284	H	1.053770	0.103227	0.085629
H285	H	1.387104	0.436560	0.418962
N286	N	0.227090	-0.387071	-0.415934
N287	N	0.560423	-0.053738	-0.082601
N288	N	0.893757	0.279595	0.250733
H289	H	0.176947	-0.380958	-0.409386
H290	H	0.510280	-0.047625	-0.076053
H291	H	0.843613	0.285708	0.257280
H292	H	0.239473	-0.377335	-0.464293
H293	H	0.572807	-0.044002	-0.130959
H294	H	0.906140	0.289331	0.202374
H295	H	0.899499	-0.662166	-0.404556
H296	H	1.232833	-0.328833	-0.071223
H297	H	1.566166	0.004501	0.262111
H298	H	0.899451	-0.542895	-0.404542
H299	H	1.232784	-0.209561	-0.071209
H300	H	1.566118	0.123772	0.262125
H301	H	1.056822	-1.062971	-0.247714
H302	H	1.390156	-0.729638	0.085619
H303	H	1.723489	-0.396304	0.418952
N304	N	0.374017	-0.387059	-0.415916
N305	N	0.707350	-0.053725	-0.082582
N306	N	1.040683	0.279608	0.250751
H307	H	0.340900	-0.412597	-0.443290
H308	H	0.674233	-0.079263	-0.109957
H309	H	1.007567	0.254070	0.223376
H310	H	0.403372	-0.361471	-0.447287
H311	H	0.736706	-0.028138	-0.113953
H312	H	1.070039	0.305196	0.219380
H313	H	0.720429	-0.376391	-0.404470
H314	H	1.053763	-0.043057	-0.071137
H315	H	1.387096	0.290276	0.262197
H316	H	0.899609	-0.943735	-0.404610
H317	H	1.232942	-0.610402	-0.071277
H318	H	1.566276	-0.277068	0.262057
H319	H	1.056730	-0.230166	-0.584483
H320	H	1.390063	0.103167	-0.251149
H321	H	1.723396	0.436500	0.082184
N322	N	1.068220	-0.219456	-0.930901
N323	N	1.401553	0.113877	-0.597568
N324	N	1.734887	0.447211	-0.264234
H325	H	1.095663	-0.193947	-0.964031
H326	H	1.428996	0.139386	-0.630697
H327	H	1.762330	0.472720	-0.297364
H328	H	1.040683	-0.190330	-0.901576
H329	H	1.374016	0.143004	-0.568243
H330	H	1.707349	0.476337	-0.234910
H331	H	0.899621	-0.376126	-1.068406
H332	H	1.232954	-0.042793	-0.735073
H333	H	1.566288	0.290541	-0.401739
