data_functionalizedCrystal
_audit_creation_method	'MofGen! by Chris Wilmer'
_symmetry_space_group_name_H-M	'P1'
_symmetry_Int_Tables_number	1
_symmetry_cell_setting	triclinic
loop_
_symmetry_equiv_pos_as_xyz
  x,y,z
_cell_length_a	12.759401
_cell_length_b	29.839131
_cell_length_c	12.759393
_cell_angle_alpha	90.037890
_cell_angle_beta	90.018496
_cell_angle_gamma	90.041581
loop_
_atom_site_label
_atom_site_type_symbol
_atom_site_fract_x
_atom_site_fract_y
_atom_site_fract_z
Zn1	Zn	1.606060	-0.178825	0.593935
Zn2	Zn	1.605873	-0.253963	0.418236
Zn3	Zn	1.430362	-0.178848	0.418275
Zn4	Zn	1.430269	-0.253929	0.593877
O5	O	1.518141	-0.216391	0.506081
O6	O	1.753056	-0.188797	0.570636
O7	O	1.582551	-0.244024	0.271220
O8	O	1.453787	-0.115978	0.441617
O9	O	1.752919	-0.244001	0.441551
O10	O	1.582871	-0.115961	0.570674
O11	O	1.453605	-0.188837	0.271248
O12	O	1.283329	-0.188803	0.441561
O13	O	1.453628	-0.243942	0.740906
O14	O	1.283260	-0.243965	0.570575
O15	O	1.582781	-0.188763	0.740949
O16	O	1.582461	-0.316826	0.441495
O17	O	1.453446	-0.316801	0.570538
C18	C	1.245174	-0.216383	0.506066
C19	C	1.128397	-0.216390	0.506085
C20	C	1.073527	-0.245159	0.573152
C21	C	0.963803	-0.245165	0.573163
C22	C	0.963829	-0.187632	0.439032
C23	C	1.073551	-0.187624	0.439027
C24	C	1.073511	-0.278376	0.650588
C25	C	0.963787	-0.278382	0.650600
C26	C	1.517951	-0.333114	0.506029
C27	C	1.517966	-0.383048	0.506041
C28	C	1.585441	-0.692692	0.438986
C29	C	1.585571	-0.880365	0.439027
O30	O	1.642790	-0.904631	0.381974
N31	N	1.518359	-0.903833	0.506160
C32	C	1.451114	-0.880380	0.573292
O33	O	1.393957	-0.904648	0.630402
C34	C	1.450991	-0.692708	0.573256
C35	C	1.518200	-0.669243	0.506111
C36	C	1.652646	-0.669227	0.371848
C37	C	1.652609	-0.622311	0.371834
C38	C	1.585367	-0.598861	0.438959
C39	C	1.518163	-0.622327	0.506098
C40	C	1.383752	-0.669256	0.640393
C41	C	1.383729	-0.622335	0.640380
C42	C	1.450938	-0.598869	0.573235
C43	C	1.450884	-0.551962	0.573209
N44	N	1.518096	-0.528494	0.506076
C45	C	1.585338	-0.551944	0.438951
C46	C	1.451183	-0.978911	0.573305
C47	C	1.451212	-1.025829	0.573313
C48	C	1.585670	-1.025811	0.439049
C49	C	1.585635	-0.978892	0.439036
C50	C	1.518395	-0.955443	0.506172
C51	C	1.585254	-0.453418	0.438927
C52	C	1.585208	-0.406498	0.438916
C53	C	1.450754	-0.406521	0.573184
C54	C	1.450796	-0.453436	0.573191
C55	C	1.518054	-0.476884	0.506059
O56	O	1.393703	-0.527668	0.630240
O57	O	1.642503	-0.527668	0.381867
C58	C	1.585479	-0.739608	0.439000
C59	C	1.518274	-0.763073	0.506138
C60	C	1.451033	-0.739624	0.573263
C61	C	1.518304	-0.809991	0.506146
C62	C	1.585545	-0.833441	0.439021
C63	C	1.652757	-0.809973	0.371888
C64	C	1.652720	-0.763058	0.371875
C65	C	1.383820	-0.763092	0.640396
C66	C	1.383862	-0.810007	0.640404
C67	C	1.451104	-0.833457	0.573279
C68	C	1.792174	-0.216400	0.506096
C69	C	1.908951	-0.216404	0.506102
C70	C	1.518215	-0.216346	0.780114
C71	C	1.518246	-0.216327	0.896891
C72	C	1.518360	-0.099213	0.506156
C73	C	1.518454	-0.049279	0.506188
C74	C	1.518128	-0.216404	0.233113
C75	C	1.518301	-0.216297	0.116337
C76	C	1.585505	-0.187593	0.951777
C77	C	1.585530	-0.187576	1.061501
C78	C	1.451034	-0.245032	1.061444
C79	C	1.451004	-0.245046	0.951722
C80	C	1.663159	-0.154422	0.951811
C81	C	1.663184	-0.154406	1.061535
H82	H	1.103329	-0.269097	0.731998
H83	H	1.707339	-0.603208	0.317162
H84	H	1.396232	-0.268443	0.907038
H85	H	0.919160	-0.164212	0.384437
H86	H	1.107489	-0.311410	0.621295
H87	H	1.707408	-0.688315	0.317186
H88	H	1.329065	-0.744003	0.695059
H89	H	1.640422	-1.044911	0.384393
H90	H	1.396425	-0.959822	0.627977
H91	H	1.396286	-0.268414	1.106100
H92	H	1.640025	-0.472503	0.384264
N93	N	0.921160	-0.262798	0.747639
N94	N	0.980992	-0.251124	0.820302
H95	H	0.950887	-0.240117	0.888834
H96	H	1.328975	-0.603245	0.695053
H97	H	1.118222	-0.164195	0.384422
N98	N	0.926368	-0.322020	0.623072
N99	N	0.989985	-0.352759	0.603660
H100	H	0.963559	-0.383577	0.584218
N101	N	1.635878	-0.110778	0.914501
N102	N	1.616673	-0.080018	0.978194
H103	H	1.597396	-0.049195	0.951844
H104	H	1.639938	-0.387394	0.384235
H105	H	1.396003	-0.387420	0.627834
N106	N	1.765248	-0.166086	1.098906
N107	N	1.842558	-0.142415	1.075261
H108	H	1.914639	-0.150661	1.101657
N109	N	1.654291	-0.954931	0.370441
N110	N	1.714315	-0.975880	0.310511
H111	H	1.762807	-0.958960	0.262063
N112	N	1.382536	-1.049788	0.641890
N113	N	1.322507	-1.028840	0.701814
H114	H	1.274003	-1.045759	0.750252
H115	H	1.740417	-0.166895	0.917772
H116	H	1.329018	-0.688354	0.695065
H117	H	1.396072	-0.472543	0.627869
H118	H	1.634107	-0.121348	1.095591
N119	N	1.721377	-0.739099	0.303278
N120	N	1.781403	-0.760049	0.243354
H121	H	1.829897	-0.743131	0.194903
H122	H	1.707505	-0.829074	0.317230
N123	N	1.315189	-0.833967	0.708994
N124	N	1.255161	-0.813018	0.768919
H125	H	1.206665	-0.829938	0.817365
