data_functionalizedCrystal
_audit_creation_method	'MofGen! by Chris Wilmer'
_symmetry_space_group_name_H-M	'P1'
_symmetry_Int_Tables_number	1
_symmetry_cell_setting	triclinic
loop_
_symmetry_equiv_pos_as_xyz
  x,y,z
_cell_length_a	12.784890
_cell_length_b	12.837942
_cell_length_c	16.053802
_cell_angle_alpha	92.838962
_cell_angle_beta	87.691149
_cell_angle_gamma	83.967749
loop_
_atom_site_label
_atom_site_type_symbol
_atom_site_fract_x
_atom_site_fract_y
_atom_site_fract_z
O1	O	1.414973	0.001703	-0.069404
O2	O	1.914973	0.501703	0.430596
O3	O	1.109974	0.045697	-0.069411
O4	O	1.609974	0.545697	0.430589
O5	O	1.255710	-0.126593	-0.069402
O6	O	1.755710	0.373407	0.430598
O7	O	1.269237	0.173992	-0.069412
O8	O	1.769237	0.673992	0.430588
O9	O	1.247685	-0.117146	0.069456
O10	O	1.747685	0.382854	0.569456
O11	O	1.101949	0.055144	0.069448
O12	O	1.601949	0.555144	0.569448
O13	O	1.406948	0.011150	0.069455
O14	O	1.906948	0.511150	0.569455
Zn15	Zn	1.253174	0.034647	0.091498
Zn16	Zn	1.753174	0.534647	0.591498
Zn17	Zn	1.263748	0.022200	-0.091454
Zn18	Zn	1.763748	0.522200	0.408546
O19	O	1.261212	0.183440	0.069446
O20	O	1.761212	0.683440	0.569446
C21	C	1.066652	0.053282	0.000018
C22	C	1.566652	0.553282	0.500018
C23	C	0.949520	0.061795	0.000015
C24	C	1.449520	0.561795	0.500015
C25	C	0.781351	0.168496	0.000010
C26	C	1.281351	0.668496	0.500010
C27	C	0.891406	0.160503	0.000011
C28	C	1.391406	0.660503	0.500011
C29	C	0.897571	-0.028926	0.000017
C30	C	1.397571	0.471074	0.500017
C31	C	0.787515	-0.020934	0.000016
C32	C	1.287515	0.479066	0.500016
C33	C	0.729409	0.077781	0.000015
C34	C	1.229409	0.577781	0.500015
C35	C	0.619351	0.085773	0.000020
C36	C	1.119351	0.585773	0.500020
C37	C	0.625518	-0.103656	0.000020
C38	C	1.125518	0.396344	0.500020
C39	C	0.735574	-0.111649	0.000021
C40	C	1.235574	0.388351	0.500021
C41	C	1.247128	-0.160078	0.000027
C42	C	1.747128	0.339922	0.500027
C43	C	1.233501	-0.273927	0.000025
C44	C	1.733501	0.226073	0.500025
C45	C	1.397333	-0.529655	0.000011
C46	C	1.897333	-0.029655	0.500011
C47	C	1.384534	-0.636627	0.000010
C48	C	1.884534	-0.136627	0.500010
C49	C	1.195103	-0.594846	0.000014
C50	C	1.695103	-0.094846	0.500014
C51	C	1.207903	-0.487874	0.000016
C52	C	1.707903	0.012126	0.500016
C53	C	1.309021	-0.455283	0.000016
C54	C	1.809021	0.044717	0.500016
C55	C	1.321819	-0.348308	0.000023
C56	C	1.821819	0.151692	0.500023
C57	C	1.132390	-0.306529	0.000021
C58	C	1.632390	0.193471	0.500021
C59	C	1.119590	-0.413502	0.000020
C60	C	1.619590	0.086498	0.500020
C61	C	1.450270	0.003565	0.000025
C62	C	1.950270	0.503565	0.500025
C63	C	1.567402	-0.004949	0.000022
C64	C	2.067402	0.495051	0.500022
C65	C	1.269794	0.216925	0.000016
C66	C	1.769794	0.716925	0.500016
C67	C	1.283422	0.330773	0.000012
C68	C	1.783422	0.830773	0.500012
N69	N	1.245965	0.043141	0.216358
N70	N	1.745965	0.543141	0.716358
N71	N	1.270964	0.013697	-0.216314
N72	N	1.770964	0.513697	0.283686
C73	C	1.308004	-0.030147	0.260056
C74	C	1.808004	0.469853	0.760056
C75	C	1.302972	-0.024197	0.347462
C76	C	1.802972	0.475803	0.847462
C77	C	1.235907	0.055047	0.391169
C78	C	1.735907	0.555047	0.891169
C79	C	1.173861	0.128339	0.347466
C80	C	1.673861	0.628339	0.847466
C81	C	1.178888	0.122383	0.260061
C82	C	1.678888	0.622383	0.760061
C83	C	1.213945	0.081033	0.652578
C84	C	1.713945	0.581033	1.152578
C85	C	1.208925	0.086985	0.739989
C86	C	1.708925	0.586985	1.239989
C87	C	1.338036	-0.065552	0.739979
C88	C	1.838036	0.434448	1.239979
C89	C	1.343061	-0.071497	0.652573
C90	C	1.843061	0.428503	1.152573
C91	C	1.281012	0.001791	0.608876
C92	C	1.781012	0.501791	1.108876
N93	N	1.230764	0.061133	0.480513
N94	N	1.730764	0.561133	0.980513
N95	N	1.286149	-0.004300	0.519535
N96	N	1.786149	0.495700	1.019535
H97	H	0.782899	-0.192019	0.000019
H98	H	1.282899	0.307981	0.500019
H99	H	1.154310	0.151519	0.775571
H100	H	1.654310	0.651519	1.275571
Br101	Br	1.399035	-0.137691	0.200748
Br102	Br	1.899035	0.362309	0.700748
Br103	Br	1.459048	-0.304076	0.000032
Br104	Br	1.959048	0.195924	0.500032
Br105	Br	1.534558	-0.485416	0.000037
Br106	Br	2.034558	0.014584	0.500037
Br107	Br	1.129740	0.180494	0.593281
Br108	Br	1.629740	0.680494	1.093281
Br109	Br	0.961897	0.283621	-0.000001
Br110	Br	1.461897	0.783621	0.499999
Br111	Br	0.702486	0.302461	0.000027
Br112	Br	1.202486	0.802461	0.500027
H113	H	0.944900	-0.109295	0.000012
H114	H	1.444900	0.390705	0.500012
H115	H	1.456447	-0.697179	0.000003
H116	H	1.956447	-0.197179	0.500003
Br117	Br	0.540493	0.219740	0.000024
Br118	Br	1.040493	0.719740	0.500024
H119	H	1.397671	-0.136023	0.616988
H120	H	1.897671	0.363977	1.116988
H121	H	1.037263	-0.440053	0.000017
H122	H	1.537263	0.059947	0.500017
H123	H	0.583220	-0.177527	-0.000043
H124	H	1.083220	0.322473	0.499957
H125	H	1.112778	-0.621402	0.000005
H126	H	1.612778	-0.121402	0.500005
H127	H	1.119249	0.192858	0.383057
H128	H	1.619249	0.692858	0.883057
Br129	Br	1.012529	-0.205588	0.000042
Br130	Br	1.512529	0.294412	0.500042
Br131	Br	1.387164	-0.123663	0.406769
Br132	Br	1.887164	0.376337	0.906769
Br133	Br	1.422239	-0.165012	0.799284
Br134	Br	1.922239	0.334988	1.299284
H135	H	1.128368	0.182061	0.224483
H136	H	1.628368	0.682061	0.724483
