data_functionalizedCrystal
_audit_creation_method	'MofGen! by Chris Wilmer'
_symmetry_space_group_name_H-M	'P1'
_symmetry_Int_Tables_number	1
_symmetry_cell_setting	triclinic
loop_
_symmetry_equiv_pos_as_xyz
  x,y,z
_cell_length_a	16.625548
_cell_length_b	16.625546
_cell_length_c	16.625539
_cell_angle_alpha	90.030397
_cell_angle_beta	90.020568
_cell_angle_gamma	90.023536
loop_
_atom_site_label
_atom_site_type_symbol
_atom_site_fract_x
_atom_site_fract_y
_atom_site_fract_z
Zn1	Zn	1.232680	-0.320977	0.455898
Zn2	Zn	1.232584	-0.455820	0.321060
Zn3	Zn	1.097842	-0.321008	0.321078
Zn4	Zn	1.097813	-0.455774	0.455850
O5	O	1.165230	-0.388395	0.388471
O6	O	1.345500	-0.338871	0.438024
O7	O	1.214682	-0.437969	0.208230
O8	O	1.115782	-0.208171	0.338990
O9	O	1.345429	-0.437940	0.338959
O10	O	1.214847	-0.208149	0.438041
O11	O	1.115688	-0.338923	0.208243
O12	O	0.985006	-0.338878	0.338944
O13	O	1.115731	-0.437861	0.568689
O14	O	0.984984	-0.437890	0.437960
O15	O	1.214818	-0.338826	0.568724
O16	O	1.214653	-0.568647	0.338912
O17	O	1.115637	-0.568613	0.437942
C18	C	0.955739	-0.388383	0.388449
C19	C	0.866118	-0.388398	0.388458
C20	C	1.165153	-0.597886	0.388438
C21	C	1.165195	-0.687507	0.388450
C22	C	0.537942	-0.388403	0.388493
C23	C	0.629251	-0.388399	0.388481
C24	C	0.702027	-0.388401	0.388475
C25	C	0.793341	-0.388396	0.388464
C26	C	1.165335	-1.015682	0.388534
C27	C	1.165294	-0.924374	0.388513
C28	C	1.165264	-0.851598	0.388492
C29	C	1.165224	-0.760283	0.388471
C30	C	1.375539	-0.388407	0.388494
C31	C	1.465160	-0.388412	0.388504
C32	C	1.165282	-0.388335	0.598780
C33	C	1.165305	-0.388309	0.688402
C34	C	1.165328	-0.178086	0.388523
C35	C	1.165370	-0.088465	0.388545
C36	C	1.165224	-0.388397	0.178981
C37	C	1.165358	-0.388195	0.089360
C38	C	1.165342	-0.388219	1.016577
C39	C	1.165329	-0.388247	0.925269
C40	C	1.165324	-0.388265	0.852492
C41	C	1.165310	-0.388291	0.761178
