data_functionalizedCrystal
_audit_creation_method	'MofGen! by Chris Wilmer'
_symmetry_space_group_name_H-M	'P1'
_symmetry_Int_Tables_number	1
_symmetry_cell_setting	triclinic
loop_
_symmetry_equiv_pos_as_xyz
  x,y,z
_cell_length_a	12.594517
_cell_length_b	14.908520
_cell_length_c	14.908308
_cell_angle_alpha	83.639235
_cell_angle_beta	86.722292
_cell_angle_gamma	93.320537
loop_
_atom_site_label
_atom_site_type_symbol
_atom_site_fract_x
_atom_site_fract_y
_atom_site_fract_z
Zn1	Zn	1.564384	-0.389881	0.532581
Zn2	Zn	1.564263	-0.532526	0.389952
Zn3	Zn	1.397293	-0.381183	0.381238
Zn4	Zn	1.375457	-0.541199	0.541259
O5	O	1.475349	-0.461197	0.461257
O6	O	1.713311	-0.408814	0.513676
O7	O	1.551202	-0.505181	0.262135
O8	O	1.428647	-0.255672	0.394035
O9	O	1.713223	-0.513615	0.408887
O10	O	1.551408	-0.262063	0.505227
O11	O	1.428530	-0.393989	0.255733
O12	O	1.245452	-0.402398	0.402450
O13	O	1.391430	-0.528396	0.666768
O14	O	1.229409	-0.519961	0.520017
O15	O	1.530234	-0.417223	0.660393
O16	O	1.530028	-0.660341	0.417301
O17	O	1.391313	-0.666713	0.528466
C18	C	1.458315	-0.696371	0.474791
C19	C	1.451123	-0.796981	0.480611
C20	C	1.198811	-0.461178	0.461230
C21	C	1.080504	-0.461192	0.461241
C22	C	1.582186	-0.979348	0.375884
C23	C	1.575433	-1.073880	0.381350
C24	C	1.430869	-1.080579	0.497011
C25	C	1.437622	-0.986047	0.491545
C26	C	1.513283	-0.935435	0.430979
C27	C	1.520030	-0.840901	0.425510
C28	C	1.375472	-0.847602	0.541175
C29	C	1.368718	-0.942134	0.546640
C30	C	1.019943	-0.397174	0.397406
C31	C	0.944781	-0.478454	0.379900
C32	C	0.944863	-0.379953	0.478764
C33	C	1.006900	-0.542514	0.443694
C34	C	1.006990	-0.443959	0.542593
C35	C	0.931853	-0.525298	0.525122
C36	C	1.752966	-0.461218	0.461286
C37	C	1.871270	-0.461226	0.461298
C38	C	1.458410	-0.474747	0.697340
C39	C	1.451191	-0.480521	0.797945
C40	C	1.492477	-0.225106	0.447691
C41	C	1.499775	-0.124498	0.441910
C42	C	1.492288	-0.447635	0.226089
C43	C	1.499731	-0.441606	0.125470
C44	C	1.582162	-0.375587	0.980354
C45	C	1.575383	-0.381009	1.074880
C46	C	1.430851	-0.496783	1.081527
C47	C	1.437629	-0.491360	0.987000
C48	C	1.513289	-0.430761	0.936417
C49	C	1.520072	-0.425344	0.841888
C50	C	1.375535	-0.541113	0.848536
C51	C	1.368756	-0.546535	0.943063
H52	H	1.643785	-0.938138	0.326562
O53	O	1.655520	-0.316680	0.931109
C54	C	1.603086	-0.255063	0.873079
H55	H	1.521122	-0.286165	0.860750
H56	H	1.652086	-0.239128	0.805912
H57	H	1.593652	-0.190071	0.905648
H58	H	0.893649	-0.579510	0.579132
H59	H	1.631543	-1.109630	0.336487
H60	H	1.369252	-0.546119	1.122728
H61	H	1.631464	-0.336078	1.110650
O62	O	1.308680	-0.804911	0.594794
C63	C	1.368925	-0.753499	0.650125
H64	H	1.450315	-0.782242	0.657433
H65	H	1.325434	-0.756428	0.719686
H66	H	1.379740	-0.680256	0.618000
H67	H	1.034487	-0.429335	0.611344
O68	O	1.065705	-0.332737	0.332822
C69	C	1.034100	-0.351261	0.247192
H70	H	1.008954	-0.426238	0.249686
H71	H	1.103612	-0.333107	0.194689
H72	H	0.964180	-0.309420	0.227958
O73	O	1.039302	-0.624510	0.425814
C74	C	1.006884	-0.642701	0.340323
H75	H	0.936191	-0.601407	0.322108
H76	H	0.982581	-0.717801	0.342439
H77	H	1.075663	-0.623607	0.287293
H78	H	1.369276	-1.121804	0.546327
O79	O	0.912321	-0.297902	0.496316
C80	C	0.957486	-0.230604	0.428803
H81	H	1.032543	-0.255375	0.395802
H82	H	0.978816	-0.166345	0.460577
H83	H	0.897623	-0.215671	0.375440
H84	H	0.917312	-0.493052	0.311127
H85	H	1.581679	-0.376003	0.800705
H86	H	1.307155	-0.595871	0.984261
O87	O	1.308774	-0.594753	0.805762
C88	C	1.369053	-0.650101	0.754472
H89	H	1.453043	-0.617367	0.738477
H90	H	1.329584	-0.658424	0.688697
H91	H	1.373274	-0.719266	0.794766
H92	H	1.581634	-0.799693	0.376191
O93	O	1.295362	-0.991405	0.605519
C94	C	1.347799	-1.049361	0.667205
H95	H	1.429774	-1.061644	0.636171
H96	H	1.298814	-1.116559	0.683141
H97	H	1.357209	-1.016746	0.732183
