data_functionalizedCrystal
_audit_creation_method	'MofGen! by Chris Wilmer'
_symmetry_space_group_name_H-M	'P1'
_symmetry_Int_Tables_number	1
_symmetry_cell_setting	triclinic
loop_
_symmetry_equiv_pos_as_xyz
  x,y,z
_cell_length_a	10.686220
_cell_length_b	19.121063
_cell_length_c	19.120904
_cell_angle_alpha	94.741613
_cell_angle_beta	96.594686
_cell_angle_gamma	96.652836
loop_
_atom_site_label
_atom_site_type_symbol
_atom_site_fract_x
_atom_site_fract_y
_atom_site_fract_z
Zn1	Zn	1.887718	-0.212808	-0.325674
Zn2	Zn	2.387718	0.287192	0.174326
Zn3	Zn	1.887561	-0.325462	-0.213032
Zn4	Zn	2.387561	0.174538	0.286968
Zn5	Zn	1.684730	-0.216874	-0.217070
Zn6	Zn	2.184730	0.283126	0.282930
Zn7	Zn	1.665723	-0.340349	-0.340535
Zn8	Zn	2.165723	0.159651	0.159465
O9	O	1.781433	-0.273873	-0.274078
O10	O	2.281433	0.226127	0.225922
O11	O	2.065489	-0.219820	-0.302822
O12	O	2.565489	0.280180	0.197178
O13	O	1.868543	-0.306529	-0.114756
O14	O	2.368543	0.193471	0.385244
O15	O	1.719677	-0.117513	-0.226947
O16	O	2.219677	0.382487	0.273053
O17	O	2.065373	-0.302586	-0.220065
O18	O	2.565373	0.197414	0.279935
O19	O	1.868811	-0.114526	-0.306738
O20	O	2.368811	0.385474	0.193262
O21	O	1.719524	-0.226749	-0.117722
O22	O	2.219524	0.273251	0.382278
O23	O	1.504417	-0.241185	-0.241357
O24	O	2.004417	0.258815	0.258643
O25	O	1.687283	-0.327959	-0.437375
O26	O	2.187283	0.172041	0.062625
O27	O	1.490453	-0.331902	-0.332066
O28	O	1.990453	0.168098	0.167934
O29	O	1.850382	-0.234255	-0.426457
O30	O	2.350382	0.265745	0.073543
O31	O	1.850114	-0.426257	-0.234475
O32	O	2.350114	0.073743	0.265525
O33	O	1.687130	-0.437195	-0.328151
O34	O	2.187130	0.062805	0.171849
C35	C	1.451336	-0.288600	-0.288763
C36	C	1.951336	0.211400	0.211237
C37	C	1.310116	-0.294919	-0.295063
C38	C	1.810116	0.205081	0.204937
C39	C	1.766576	-0.457349	-0.282501
C40	C	2.266576	0.042651	0.217499
C41	C	1.760334	-0.535836	-0.286123
C42	C	2.260334	-0.035836	0.213877
C43	C	1.842318	-0.566991	-0.239087
C44	C	2.342318	-0.066991	0.260913
C45	C	1.836455	-0.640738	-0.242497
C46	C	2.336455	-0.140738	0.257503
C47	C	1.748601	-0.683330	-0.292941
C48	C	2.248601	-0.183330	0.207059
C49	C	1.666613	-0.652171	-0.339982
C50	C	2.166613	-0.152171	0.160018
C51	C	1.672483	-0.578424	-0.336574
C52	C	2.172483	-0.078424	0.163426
C53	C	1.726634	-0.906282	-0.305671
C54	C	2.226634	-0.406282	0.194329
C55	C	1.720768	-0.980034	-0.309073
C56	C	2.220768	-0.480034	0.190927
C57	C	1.890612	-0.968596	-0.211590
C58	C	2.390612	-0.468596	0.288410
C59	C	1.896470	-0.894849	-0.208184
C60	C	2.396470	-0.394849	0.291816
C61	C	1.814486	-0.863696	-0.255227
C62	C	2.314486	-0.363696	0.244773
C63	C	1.742603	-0.758712	-0.296426
C64	C	2.242603	-0.258712	0.203574
C65	C	1.820491	-0.788315	-0.251744
C66	C	2.320491	-0.288315	0.248256
C67	C	2.112819	-0.259089	-0.259335
C68	C	2.612819	0.240911	0.240665
C69	C	2.254036	-0.252788	-0.253053
C70	C	2.754036	0.247212	0.246947
C71	C	1.766730	-0.282314	-0.458253
C72	C	2.266730	0.217686	0.041747
C73	C	1.760464	-0.285911	-0.536738
C74	C	2.260464	0.214089	-0.036738
C75	C	1.796382	-0.089680	-0.265635
C76	C	2.296382	0.410320	0.234365
C77	C	1.802752	-0.011188	-0.262038
C78	C	2.302752	0.488812	0.237962
C79	C	1.842433	-0.238817	-0.567927
C80	C	2.342433	0.261183	-0.067927
C81	C	1.836530	-0.242195	-0.641672
C82	C	2.336530	0.257805	-0.141672
C83	C	1.748664	-0.292671	-0.684227
C84	C	2.248664	0.207329	-0.184227
C85	C	1.666686	-0.339767	-0.653033
C86	C	2.166686	0.160233	-0.153033
C87	C	1.672584	-0.336386	-0.579289
C88	C	2.172584	0.163614	-0.079289
C89	C	1.726604	-0.305319	-0.907171
C90	C	2.226604	0.194681	-0.407171
C91	C	1.720715	-0.308698	-0.980919
C92	C	2.220715	0.191302	-0.480919
C93	C	1.890558	-0.211124	-0.969553
C94	C	2.390558	0.288876	-0.469553
C95	C	1.896453	-0.207750	-0.895808
C96	C	2.396453	0.292250	-0.395808
C97	C	1.814471	-0.254844	-0.864621
C98	C	2.314471	0.245156	-0.364621
C99	C	1.742631	-0.296126	-0.759607
C100	C	2.242631	0.203874	-0.259607
C101	C	1.820499	-0.251385	-0.789243
C102	C	2.320499	0.248615	-0.289243
C103	C	1.796156	-0.265411	-0.090613
C104	C	2.296156	0.234589	0.409387
C105	C	1.802684	-0.261604	-0.012108
C106	C	2.302684	0.238396	0.487892
H107	H	1.314061	-0.211886	-0.212266
H108	H	1.814061	0.288114	0.287734
H109	H	1.659878	-0.880924	-0.343974
H110	H	2.159878	-0.380924	0.156026
H111	H	1.250084	-0.335828	-0.335848
H112	H	1.750084	0.164172	0.164152
H113	H	1.649240	-1.014710	-0.350162
H114	H	2.149240	-0.514710	0.149838
H115	H	1.605824	-0.374728	-0.553897
H116	H	2.105824	0.125272	-0.053897
H117	H	1.649160	-0.349804	-1.015566
H118	H	2.149160	0.150196	-0.515566
H119	H	1.913854	-0.532317	-0.198008
H120	H	2.413854	-0.032317	0.301992
H121	H	1.659866	-0.343676	-0.881787
H122	H	2.159866	0.156324	-0.381787
H123	H	1.903215	-0.666100	-0.204195
H124	H	2.403215	-0.166100	0.295805
H125	H	1.671069	-0.793399	-0.337496
H126	H	2.171069	-0.293399	0.162504
H127	H	1.903281	-0.203847	-0.667063
H128	H	2.403281	0.296153	-0.167063
H129	H	1.913987	-0.197716	-0.533284
H130	H	2.413987	0.302284	-0.033284
H131	H	1.957302	-0.172782	-0.994954
H132	H	2.457302	0.327218	-0.494954
H133	H	1.968008	-0.860172	-0.167109
H134	H	2.468008	-0.360172	0.332891
H135	H	1.957360	-0.993969	-0.173291
H136	H	2.457360	-0.493969	0.326709
H137	H	1.968006	-0.166649	-0.861164
H138	H	2.468006	0.333351	-0.361164
H139	H	1.595085	-0.686855	-0.381057
H140	H	2.095085	-0.186855	0.118943
H141	H	1.892034	-0.210285	-0.754592
H142	H	2.392034	0.289715	-0.254592
H143	H	1.605724	-0.553059	-0.374876
H144	H	2.105724	-0.053059	0.125124
H145	H	1.892027	-0.753635	-0.210675
H146	H	2.392027	-0.253635	0.289325
H147	H	1.595139	-0.380864	-0.687688
H148	H	2.095139	0.119136	-0.187688
H149	H	1.671096	-0.337227	-0.794263
H150	H	2.171096	0.162773	-0.294263
