data_functionalizedCrystal
_audit_creation_method	'MofGen! by Chris Wilmer'
_symmetry_space_group_name_H-M	'P1'
_symmetry_Int_Tables_number	1
_symmetry_cell_setting	triclinic
loop_
_symmetry_equiv_pos_as_xyz
  x,y,z
_cell_length_a	18.215407
_cell_length_b	15.299816
_cell_length_c	18.215399
_cell_angle_alpha	80.342622
_cell_angle_beta	90.019833
_cell_angle_gamma	80.351325
loop_
_atom_site_label
_atom_site_type_symbol
_atom_site_fract_x
_atom_site_fract_y
_atom_site_fract_z
Zn1	Zn	1.175767	-0.359060	0.466870
Zn2	Zn	1.675767	0.140940	0.966870
Zn3	Zn	1.196971	-0.509888	0.365123
Zn4	Zn	1.696971	-0.009888	0.865123
Zn5	Zn	1.052704	-0.359090	0.343821
Zn6	Zn	1.552704	0.140910	0.843821
Zn7	Zn	1.073954	-0.509838	0.488141
Zn8	Zn	1.573954	-0.009838	0.988141
O9	O	1.124849	-0.434469	0.415989
O10	O	1.624849	0.065531	0.915989
O11	O	1.281565	-0.379077	0.453386
O12	O	1.781565	0.120923	0.953386
O13	O	1.177814	-0.489918	0.259318
O14	O	1.677814	0.010082	0.759318
O15	O	1.051262	-0.232875	0.342327
O16	O	1.551262	0.267125	0.842327
O17	O	1.297144	-0.489889	0.378633
O18	O	1.797144	0.010111	0.878633
O19	O	1.141676	-0.232854	0.432730
O20	O	1.641676	0.267146	0.932730
O21	O	1.071822	-0.379127	0.243667
O22	O	1.571822	0.120873	0.743667
O23	O	0.952537	-0.379078	0.362953
O24	O	1.452537	0.120922	0.862953
O25	O	1.087479	-0.489804	0.588299
O26	O	1.587479	0.010196	1.088299
O27	O	0.968149	-0.489832	0.468984
O28	O	1.468149	0.010168	0.968984
O29	O	1.162281	-0.379028	0.572671
O30	O	1.662281	0.120972	1.072671
O31	O	1.198419	-0.636092	0.399259
O32	O	1.698419	-0.136092	0.899259
O33	O	1.108039	-0.636055	0.489639
O34	O	1.608039	-0.136055	0.989639
C35	C	0.933640	-0.434454	0.415965
C36	C	1.433640	0.065546	0.915965
C37	C	0.851844	-0.434469	0.415976
C38	C	1.351844	0.065531	0.915976
C39	C	0.671811	-0.492229	0.471140
C40	C	1.171811	0.007771	0.971140
C41	C	0.594953	-0.492232	0.471150
C42	C	1.094953	0.007768	0.971150
C43	C	0.578641	-0.376725	0.360856
C44	C	1.078641	0.123275	0.860856
C45	C	0.655497	-0.376719	0.360850
C46	C	1.155497	0.123281	0.860850
C47	C	0.702081	-0.434476	0.415992
C48	C	1.202081	0.065524	0.915992
C49	C	0.548366	-0.434485	0.416007
C50	C	1.048366	0.065515	0.916007
C51	C	0.465033	-0.434488	0.416017
C52	C	0.965033	0.065512	0.916017
C53	C	0.785420	-0.434472	0.415983
C54	C	1.285420	0.065528	0.915983
C55	C	1.157856	-0.668798	0.449085
C56	C	1.657856	-0.168798	0.949085
C57	C	1.172044	-0.769046	0.463268
C58	C	1.672044	-0.269046	0.963268
C59	C	1.023929	-1.051970	0.314869
C60	C	1.523929	-0.551970	0.814869
C61	C	1.010595	-0.957782	0.301545
C62	C	1.510595	-0.457782	0.801545
C63	C	1.050956	-0.910594	0.341974
C64	C	1.550956	-0.410594	0.841974
C65	C	1.104653	-0.957601	0.395730
C66	C	1.604653	-0.457601	0.895730
C67	C	1.117984	-1.051798	0.409060
C68	C	1.617984	-0.551798	0.909060
C69	C	1.145012	-0.910422	0.436165
C70	C	1.645012	-0.410422	0.936165
C71	C	1.198709	-0.957429	0.489922
C72	C	1.698709	-0.457429	0.989922
C73	C	1.212038	-1.051616	0.503248
C74	C	1.712038	-0.551616	1.003248
C75	C	1.171677	-1.098805	0.462819
C76	C	1.671677	-0.598805	0.962819
C77	C	1.131680	-0.816225	0.422836
C78	C	1.631680	-0.316225	0.922836
C79	C	1.225736	-0.816053	0.517027
C80	C	1.725736	-0.316053	1.017027
C81	C	1.239070	-0.910240	0.530351
C82	C	1.739070	-0.410240	1.030351
C83	C	1.316804	-0.434485	0.416013
C84	C	1.816804	0.065515	0.916013
C85	C	1.398604	-0.434492	0.416023
C86	C	1.898604	0.065508	0.916023
C87	C	1.124885	-0.434407	0.607933
C88	C	1.624885	0.065593	1.107933
C89	C	1.124900	-0.434380	0.689728
C90	C	1.624900	0.065620	1.189728
C91	C	1.091733	-0.199224	0.382779
C92	C	1.591733	0.300776	0.882779
C93	C	1.077621	-0.098977	0.368628
C94	C	1.577621	0.401023	0.868628
C95	C	1.124846	-0.434466	0.224782
C96	C	1.624846	0.065534	0.724782
C97	C	1.124938	-0.434238	0.142951
C98	C	1.624938	0.065762	0.642951
C99	C	1.163859	-0.376645	0.869778
C100	C	1.663859	0.123355	1.369778
C101	C	1.163864	-0.376619	0.946633
C102	C	1.663864	0.123381	1.446633
C103	C	1.085974	-0.491976	0.962896
C104	C	1.585974	0.008024	1.462896
C105	C	1.085965	-0.491997	0.886042
C106	C	1.585965	0.008003	1.386042
C107	C	1.124912	-0.434333	0.839485
C108	C	1.624912	0.065667	1.339485
C109	C	1.124926	-0.434286	0.993194
C110	C	1.624926	0.065714	1.493194
C111	C	1.124931	-0.434258	1.076524
C112	C	1.624931	0.065742	1.576524
C113	C	1.124906	-0.434360	0.756150
C114	C	1.624906	0.065640	1.256150
H115	H	0.540704	-0.329703	0.315960
H116	H	1.040704	0.170297	0.815960
C117	C	0.796870	-0.543511	0.520104
C118	C	1.296870	-0.043511	1.020104
C119	C	0.723017	-0.555707	0.531755
C120	C	1.223017	-0.055707	1.031755
H121	H	0.828480	-0.582705	0.557526
H122	H	1.328480	-0.082705	1.057526
H123	H	0.800932	-0.482935	0.522397
H124	H	1.300932	0.017065	1.022397
H125	H	0.811288	-0.556639	0.472492
H126	H	1.311288	-0.056639	0.972492
H127	H	0.708597	-0.542574	0.579365
H128	H	1.208597	-0.042574	1.079365
H129	H	0.718951	-0.616297	0.529469
H130	H	1.218951	-0.116297	1.029469
C131	C	1.051407	-0.543169	1.087931
C132	C	1.551407	-0.043169	1.587931
C133	C	1.043172	-0.555365	1.014075
C134	C	1.543172	-0.055365	1.514075
H135	H	1.024986	-0.582310	1.119525
H136	H	1.524986	-0.082310	1.619525
H137	H	1.032105	-0.482575	1.091970
H138	H	1.532105	0.017425	1.591970
H139	H	1.102717	-0.556369	1.102390
H140	H	1.602717	-0.056369	1.602390
H141	H	0.991862	-0.542159	0.999614
H142	H	1.491862	-0.042159	1.499614
H143	H	1.062471	-0.615973	1.010033
H144	H	1.562471	-0.115973	1.510033
C145	C	0.740110	-0.364029	0.260078
C146	C	1.240110	0.135971	0.760078
C147	C	0.688778	-0.313233	0.300226
C148	C	1.188778	0.186767	0.800226
H149	H	0.760658	-0.324834	0.222658
H150	H	1.260658	0.175166	0.722658
H151	H	0.715644	-0.403273	0.237420
H152	H	1.215644	0.096727	0.737420
H153	H	0.778847	-0.398418	0.292928
H154	H	1.278847	0.101582	0.792928
H155	H	0.650038	-0.278849	0.267377
H156	H	1.150038	0.221151	0.767377
H157	H	0.713244	-0.273973	0.322884
H158	H	1.213244	0.226027	0.822884
H159	H	1.182533	-1.175500	0.473662
H160	H	1.682533	-0.675500	0.973662
H161	H	1.054244	-0.538972	0.861377
H162	H	1.554244	-0.038972	1.361377
C163	C	1.303682	-1.041984	0.595002
C164	C	1.803682	-0.541984	1.095002
C165	C	1.271065	-1.103289	0.562335
C166	C	1.771065	-0.603289	1.062335
H167	H	1.340127	-1.073885	0.631474
H168	H	1.840127	-0.573885	1.131474
H169	H	1.266408	-1.005262	0.617933
H170	H	1.766408	-0.505262	1.117933
H171	H	1.326642	-1.005237	0.557753
H172	H	1.826642	-0.505237	1.057753
H173	H	1.248100	-1.140032	0.599583
H174	H	1.748100	-0.640032	1.099583
H175	H	1.308345	-1.140026	0.539404
H176	H	1.808345	-0.640026	1.039404
H177	H	0.570311	-0.539259	0.516058
H178	H	1.070311	-0.039259	1.016058
H179	H	1.087960	-0.777960	0.379067
H180	H	1.587960	-0.277960	0.879067
C181	C	0.980655	-0.775766	0.271600
C182	C	1.480655	-0.275766	0.771600
C183	C	1.036306	-0.807061	0.327323
C184	C	1.536306	-0.307061	0.827323
H185	H	0.971616	-0.711847	0.262550
H186	H	1.471616	-0.211847	0.762550
H187	H	0.936184	-0.797107	0.287311
H188	H	1.436184	-0.297107	0.787311
H189	H	0.996430	-0.797109	0.227144
H190	H	1.496430	-0.297109	0.727144
H191	H	1.020528	-0.785723	0.371782
H192	H	1.520528	-0.285723	0.871782
H193	H	1.080786	-0.785711	0.311616
H194	H	1.580786	-0.285711	0.811616
C195	C	0.918976	-0.967421	0.209774
C196	C	1.418976	-0.467421	0.709774
C197	C	0.951582	-0.906114	0.242451
C198	C	1.451582	-0.406114	0.742451
H199	H	0.882547	-0.935520	0.173285
H200	H	1.382547	-0.435520	0.673285
H201	H	0.896004	-1.004157	0.247009
H202	H	1.396004	-0.504157	0.747009
H203	H	0.956264	-1.004152	0.186856
H204	H	1.456264	-0.504152	0.686856
H205	H	0.914295	-0.869387	0.265374
H206	H	1.414295	-0.369387	0.765374
H207	H	0.974554	-0.869362	0.205209
H208	H	1.474554	-0.369362	0.705209
H209	H	0.991069	-1.090399	0.281960
H210	H	1.491069	-0.590399	0.781960
C211	C	1.247072	-0.671592	0.538415
C212	C	1.747072	-0.171592	1.038415
C213	C	1.270108	-0.764193	0.561470
C214	C	1.770108	-0.264193	1.061470
H215	H	1.274465	-0.639573	0.565849
H216	H	1.774465	-0.139573	1.065849
H217	H	1.195447	-0.656204	0.546965
H218	H	1.695447	-0.156204	1.046965
H219	H	1.255692	-0.656197	0.486797
H220	H	1.755692	-0.156197	0.986797
H221	H	1.261482	-0.779589	0.613088
H222	H	1.761482	-0.279589	1.113088
H223	H	1.321745	-0.779587	0.552927
H224	H	1.821745	-0.279587	1.052927
H225	H	1.282791	-0.948527	0.574121
H226	H	1.782791	-0.448527	1.074121
C227	C	1.240842	-0.262610	0.861424
C228	C	1.740842	0.237390	1.361424
C229	C	1.206660	-0.313253	0.818601
C230	C	1.706660	0.186747	1.318601
H231	H	1.267260	-0.223469	0.829829
H232	H	1.767260	0.276531	1.329829
H233	H	1.274529	-0.301897	0.896949
H234	H	1.774529	0.198103	1.396949
H235	H	1.203914	-0.228108	0.886528
H236	H	1.703914	0.271892	1.386528
H237	H	1.243588	-0.347762	0.793502
H238	H	1.743588	0.152238	1.293502
H239	H	1.172970	-0.273961	0.783063
H240	H	1.672970	0.226039	1.283063
H241	H	1.195577	-0.329643	0.971294
H242	H	1.695577	0.170357	1.471294
