data_functionalizedCrystal
_audit_creation_method	'MofGen! by Chris Wilmer'
_symmetry_space_group_name_H-M	'P1'
_symmetry_Int_Tables_number	1
_symmetry_cell_setting	triclinic
loop_
_symmetry_equiv_pos_as_xyz
  x,y,z
_cell_length_a	14.971486
_cell_length_b	19.288865
_cell_length_c	13.448316
_cell_angle_alpha	89.988163
_cell_angle_beta	89.998199
_cell_angle_gamma	83.375189
loop_
_atom_site_label
_atom_site_type_symbol
_atom_site_fract_x
_atom_site_fract_y
_atom_site_fract_z
O1	O	1.186458	0.090517	-0.082589
O2	O	1.686458	0.590517	0.417411
O3	O	0.925999	0.101357	-0.082618
O4	O	1.425999	0.601357	0.417382
O5	O	1.063755	-0.005169	-0.082583
O6	O	1.563755	0.494831	0.417417
O7	O	1.048703	0.197043	-0.082624
O8	O	1.548703	0.697043	0.417376
O9	O	1.063737	-0.005175	0.082801
O10	O	1.563737	0.494825	0.582801
O11	O	0.925982	0.101350	0.082766
O12	O	1.425982	0.601350	0.582766
O13	O	1.186441	0.090511	0.082794
O14	O	1.686441	0.590511	0.582794
Cu15	Cu	1.056210	0.095930	0.097881
Cu16	Cu	1.556210	0.595930	0.597881
Cu17	Cu	1.056230	0.095938	-0.097704
Cu18	Cu	1.556230	0.595938	0.402296
O19	O	1.048685	0.197036	0.082760
O20	O	1.548685	0.697036	0.582760
C21	C	0.892669	0.100869	0.000071
C22	C	1.392669	0.600869	0.500071
C23	C	0.793379	0.099416	0.000061
C24	C	1.293379	0.599416	0.500061
C25	C	0.735816	0.161997	0.000049
C26	C	1.235816	0.661997	0.500049
C27	C	0.642524	0.160628	0.000065
C28	C	1.142524	0.660628	0.500065
C29	C	0.606797	0.096677	0.000084
C30	C	1.106797	0.596677	0.500084
C31	C	0.664368	0.034092	0.000098
C32	C	1.164368	0.534092	0.500098
C33	C	0.757658	0.035461	0.000090
C34	C	1.257658	0.535461	0.500090
C35	C	0.469921	0.031241	0.000112
C36	C	0.969921	0.531241	0.500112
C37	C	0.376624	0.029871	0.000118
C38	C	0.876624	0.529871	0.500118
C39	C	0.354786	0.156407	0.000087
C40	C	0.854786	0.656407	0.500087
C41	C	0.448077	0.157777	0.000079
C42	C	0.948077	0.657777	0.500079
C43	C	0.505641	0.095191	0.000091
C44	C	1.005641	0.595191	0.500091
C45	C	1.063262	-0.031050	0.000112
C46	C	1.563262	0.468950	0.500112
C47	C	1.061808	-0.108158	0.000120
C48	C	1.561808	0.391842	0.500120
C49	C	1.142636	-0.152591	0.000134
C50	C	1.642636	0.347409	0.500134
C51	C	1.141271	-0.225043	0.000118
C52	C	1.641271	0.274957	0.500118
C53	C	1.059071	-0.253058	0.000109
C54	C	1.559071	0.246942	0.500109
C55	C	0.978232	-0.208615	0.000089
C56	C	1.478232	0.291385	0.500089
C57	C	0.979600	-0.136166	0.000095
C58	C	1.479600	0.363834	0.500095
C59	C	0.994447	-0.361558	0.058032
C60	C	1.494447	0.138442	0.558032
C61	C	0.993083	-0.434007	0.058032
C62	C	1.493083	0.065993	0.558032
C63	C	1.054848	-0.476517	0.000086
C64	C	1.554848	0.023483	0.500086
C65	C	1.117994	-0.446571	-0.057848
C66	C	1.617994	0.053429	0.442152
C67	C	1.119362	-0.374121	-0.057842
C68	C	1.619362	0.125879	0.442158
C69	C	1.057579	-0.331617	0.000101
C70	C	1.557579	0.168383	0.500101
C71	C	1.134201	-0.599511	0.000081
C72	C	1.634201	-0.099511	0.500081
C73	C	1.132832	-0.671963	0.000059
C74	C	1.632832	-0.171963	0.500059
C75	C	0.969791	-0.655535	0.000040
C76	C	1.469791	-0.155535	0.500040
C77	C	0.971163	-0.583084	0.000052
C78	C	1.471163	-0.083084	0.500052
C79	C	1.053370	-0.555077	0.000077
C80	C	1.553370	-0.055077	0.500077
C81	C	1.219771	0.090999	0.000104
C82	C	1.719771	0.590999	0.500104
C83	C	1.319061	0.092452	0.000107
C84	C	1.819061	0.592452	0.500107
C85	C	1.049178	0.222918	0.000063
C86	C	1.549178	0.722918	0.500063
C87	C	1.050632	0.300026	0.000048
C88	C	1.550632	0.800026	0.500048
N89	N	1.056202	0.095924	0.235445
N90	N	1.556202	0.595924	0.735445
N91	N	1.056245	0.095938	-0.235269
N92	N	1.556245	0.595938	0.264731
C93	C	1.117219	0.048774	0.287501
C94	C	1.617219	0.548774	0.787501
C95	C	1.117224	0.048773	0.391604
C96	C	1.617224	0.548773	0.891604
C97	C	1.056217	0.095927	0.443650
C98	C	1.556217	0.595927	0.943650
C99	C	0.995193	0.143079	0.391587
C100	C	1.495193	0.643079	0.891587
C101	C	0.995184	0.143076	0.287486
C102	C	1.495184	0.643076	0.787486
C103	C	0.995218	0.143084	0.608567
C104	C	1.495218	0.643084	1.108567
C105	C	0.995228	0.143088	0.712675
C106	C	1.495228	0.643088	1.212675
C107	C	1.117258	0.048781	0.712686
C108	C	1.617258	0.548781	1.212686
C109	C	1.117249	0.048778	0.608584
C110	C	1.617249	0.548778	1.108584
C111	C	1.056227	0.095932	0.556529
C112	C	1.556227	0.595932	1.056529
H113	H	1.209576	-0.129793	0.000151
H114	H	1.709576	0.370207	0.500151
H115	H	1.166902	0.010379	0.245132
H116	H	1.666902	0.510379	0.745132
O117	O	1.176593	0.002954	0.442017
O118	O	1.676593	0.502954	0.942017
C119	C	1.230431	-0.038670	0.373757
C120	C	1.730431	0.461330	0.873757
H121	H	1.231305	-0.010194	0.299538
H122	H	1.731305	0.489806	0.799538
H123	H	1.301907	-0.049161	0.403824
H124	H	1.801907	0.450839	0.903824
H125	H	1.201617	-0.090314	0.362714
H126	H	1.701617	0.409686	0.862714
O127	O	1.176501	0.002879	0.763135
O128	O	1.676501	0.502879	1.263135
C129	C	1.162237	-0.065901	0.737738
C130	C	1.662237	0.434099	1.237738
H131	H	1.127751	-0.065862	0.662161
H132	H	1.627751	0.434138	1.162161
H133	H	1.229611	-0.100015	0.734173
H134	H	1.729611	0.399985	1.234173
H135	H	1.117817	-0.087444	0.796343
H136	H	1.617817	0.412556	1.296343
O137	O	0.525713	-0.029619	0.000075
O138	O	1.025713	0.470381	0.500075
C139	C	0.474178	-0.086358	0.000112
C140	C	0.974178	0.413642	0.500112
H141	H	0.404472	-0.068784	-0.031190
H142	H	0.904472	0.431216	0.468810
H143	H	0.508767	-0.130206	-0.047904
H144	H	1.008767	0.369794	0.452096
H145	H	0.467623	-0.105966	0.079458
H146	H	0.967623	0.394034	0.579458
H147	H	0.945549	0.181485	0.755046
H148	H	1.445549	0.681485	1.255046
H149	H	1.166930	0.010386	0.566209
H150	H	1.666930	0.510386	1.066209
H151	H	0.941662	-0.458383	0.105199
H152	H	1.441662	0.041617	0.605199
H153	H	1.170776	-0.349742	-0.105015
H154	H	1.670776	0.150258	0.394985
H155	H	0.945524	0.181479	0.566187
H156	H	1.445524	0.681479	1.066187
O157	O	1.214131	-0.572414	0.000044
O158	O	1.714131	-0.072414	0.500044
C159	C	1.285183	-0.627173	0.000063
C160	C	1.785183	-0.127173	0.500063
H161	H	1.260310	-0.676404	-0.031252
H162	H	1.760310	-0.176404	0.468748
H163	H	1.342591	-0.611975	-0.047951
H164	H	1.842591	-0.111975	0.452049
H165	H	1.310102	-0.637418	0.079405
H166	H	1.810102	-0.137418	0.579405
H167	H	0.944148	-0.326952	0.105224
H168	H	1.444148	0.173048	0.605224
O169	O	0.935893	0.188788	0.442253
O170	O	1.435893	0.688788	0.942253
C171	C	0.880861	0.151519	0.502475
C172	C	1.380861	0.651519	1.002475
H173	H	0.916709	0.097213	0.518084
H174	H	1.416709	0.597213	1.018084
H175	H	0.866602	0.180494	0.575672
H176	H	1.366602	0.680494	1.075672
H177	H	0.814773	0.146713	0.462371
H178	H	1.314773	0.646713	0.962371
O179	O	1.178088	-0.487757	-0.114166
O180	O	1.678088	0.012243	0.385834
C181	C	1.234096	-0.445790	-0.165314
C182	C	1.734096	0.054210	0.334686
H183	H	1.234957	-0.394142	-0.124331
H184	H	1.734957	0.105858	0.375669
H185	H	1.305282	-0.473934	-0.169051
H186	H	1.805282	0.026066	0.330949
H187	H	1.207340	-0.435356	-0.243916
H188	H	1.707340	0.064644	0.256084
H189	H	0.945497	0.181469	0.245103
H190	H	1.445497	0.681469	0.745103
O191	O	1.211331	-0.715155	-0.000108
O192	O	1.711331	-0.215155	0.499892
C193	C	1.215424	-0.757548	-0.085757
C194	C	1.715424	-0.257548	0.414243
H195	H	1.169586	-0.731041	-0.145629
H196	H	1.669586	-0.231041	0.354371
H197	H	1.287511	-0.765625	-0.114494
H198	H	1.787511	-0.265625	0.385506
H199	H	1.192486	-0.810255	-0.066407
H200	H	1.692486	-0.310255	0.433593
H201	H	0.764896	0.214073	0.000033
H202	H	1.264896	0.714073	0.500033
H203	H	0.902863	-0.678344	0.000027
H204	H	1.402863	-0.178344	0.500027
O205	O	0.629815	-0.028091	0.000158
O206	O	1.129815	0.471909	0.500158
C207	C	0.700631	-0.083033	0.000140
C208	C	1.200631	0.416967	0.500140
H209	H	0.763929	-0.063511	0.031447
H210	H	1.263929	0.436489	0.531447
H211	H	0.681315	-0.127681	0.048163
H212	H	1.181315	0.372319	0.548163
H213	H	0.713911	-0.102335	-0.079200
H214	H	1.213911	0.397665	0.420800
O215	O	0.586734	0.221484	0.000008
O216	O	1.086734	0.721484	0.500008
C217	C	0.638272	0.278221	0.000008
C218	C	1.138272	0.778221	0.500008
H219	H	0.707971	0.260649	-0.031307
H220	H	1.207971	0.760649	0.468693
H221	H	0.603675	0.322075	-0.048015
H222	H	1.103675	0.822075	0.451985
H223	H	0.644843	0.297819	0.079345
H224	H	1.144843	0.797819	0.579345
H225	H	1.207093	-0.261227	0.000125
H226	H	1.707093	0.238773	0.500125
H227	H	0.477162	0.209852	0.000054
H228	H	0.977162	0.709852	0.500054
H229	H	0.911305	-0.231430	0.000079
H230	H	1.411305	0.268570	0.500079
O231	O	0.901103	-0.092971	-0.000089
O232	O	1.401103	0.407029	0.499911
C233	C	0.897038	-0.050542	-0.085724
C234	C	1.397038	0.449458	0.414276
H235	H	0.942892	-0.077024	-0.145588
H236	H	1.442892	0.422976	0.354412
H237	H	0.824960	-0.042449	-0.114485
H238	H	1.324960	0.457551	0.385515
H239	H	0.919975	0.002155	-0.066347
H240	H	1.419975	0.502155	0.433653
H241	H	0.905343	-0.546906	0.000046
H242	H	1.405343	-0.046906	0.500046
O243	O	0.341769	-0.032189	0.000107
O244	O	0.841769	0.467811	0.500107
C245	C	0.247085	-0.019974	0.000135
C246	C	0.747085	0.480026	0.500135
H247	H	0.224961	0.034209	-0.031202
H248	H	0.724961	0.534209	0.468798
H249	H	0.218598	-0.060903	-0.047855
H250	H	0.718598	0.439097	0.452145
H251	H	0.221131	-0.023351	0.079483
H252	H	0.721131	0.476649	0.579483
H253	H	0.307912	0.207367	0.000081
H254	H	0.807912	0.707367	0.500081
O255	O	0.813615	-0.025312	0.000273
O256	O	1.313615	0.474688	0.500273
C257	C	0.868249	-0.028301	0.085911
C258	C	1.368249	0.471699	0.585911
H259	H	0.833939	0.007187	0.145772
H260	H	1.333939	0.507187	0.645772
H261	H	0.878967	-0.084242	0.114675
H262	H	1.378967	0.415758	0.614675
H263	H	0.936017	-0.010265	0.066537
H264	H	1.436017	0.489735	0.566537
