data_functionalizedCrystal
_audit_creation_method	'MofGen! by Chris Wilmer'
_symmetry_space_group_name_H-M	'P1'
_symmetry_Int_Tables_number	1
_symmetry_cell_setting	triclinic
loop_
_symmetry_equiv_pos_as_xyz
  x,y,z
_cell_length_a	10.654550
_cell_length_b	10.540539
_cell_length_c	9.130313
_cell_angle_alpha	89.997616
_cell_angle_beta	89.999724
_cell_angle_gamma	84.505211
loop_
_atom_site_label
_atom_site_type_symbol
_atom_site_fract_x
_atom_site_fract_y
_atom_site_fract_z
O1	O	1.667902	0.178301	-0.121682
O2	O	1.302430	0.195288	-0.121709
O3	O	1.493504	0.002085	-0.121693
O4	O	1.476828	0.371504	-0.121698
O5	O	1.493491	0.002079	0.121906
O6	O	1.302416	0.195282	0.121890
O7	O	1.667889	0.178295	0.121916
Cu8	Cu	1.485152	0.186788	0.144146
Cu9	Cu	1.485167	0.186795	-0.143938
O10	O	1.476815	0.371498	0.121901
C11	C	1.255625	0.194038	0.000087
C12	C	1.116180	0.190306	0.000077
C13	C	1.036735	0.304061	0.000080
C14	C	0.905712	0.300547	0.000105
C15	C	0.933594	0.069513	0.000119
C16	C	1.064614	0.073029	0.000104
C17	C	1.492247	-0.045221	0.000104
C18	C	1.488505	-0.186167	0.000095
C19	C	1.345134	-0.369543	-0.000462
C20	C	1.348927	-0.222926	0.000087
C21	C	1.555669	-0.247852	0.139207
C22	C	1.550905	-0.394395	0.139324
C23	C	1.553759	-0.394908	-0.137693
C24	C	1.555045	-0.247926	-0.139532
C25	C	1.714694	0.179545	0.000117
C26	C	1.854139	0.183277	0.000118
C27	C	1.478072	0.418804	0.000101
C28	C	1.481813	0.559750	0.000099
N29	N	1.485150	0.186783	0.346768
N30	N	1.485179	0.186790	-0.346561
C31	C	1.569786	0.101269	0.423427
C32	C	1.569798	0.101269	0.576764
C33	C	1.400533	0.272308	0.576770
C34	C	1.400516	0.272301	0.423436
H35	H	1.296078	-0.180301	-0.099634
C36	C	0.818322	0.425674	0.000101
H37	H	0.732905	0.406789	0.000129
H38	H	0.834058	0.473710	-0.084854
H39	H	0.834077	0.473714	0.085053
H40	H	1.078715	0.399556	0.000069
H41	H	1.638698	0.031633	0.361008
H42	H	1.656809	-0.223741	-0.147925
C43	C	1.270643	-0.408139	-0.135222
H44	H	1.188429	-0.364424	-0.133516
H45	H	1.264585	-0.497454	-0.133382
H46	H	1.312955	-0.386331	-0.221921
C47	C	1.686502	-0.459258	0.147898
H48	H	1.684512	-0.549175	0.148024
H49	H	1.725409	-0.433752	0.235305
H50	H	1.733233	-0.434873	0.065641
C51	C	1.152010	-0.052108	0.000095
H52	H	1.102536	-0.122458	0.000091
H53	H	1.203708	-0.055538	0.085036
H54	H	1.203690	-0.055533	-0.084871
H55	H	1.505902	-0.207048	-0.242443
C56	C	0.876866	-0.059481	0.000130
H57	H	0.787457	-0.045285	0.000124
H58	H	0.904070	-0.106373	0.085076
H59	H	0.904063	-0.106362	-0.084831
C60	C	1.307414	0.366374	0.339105
H61	H	1.257025	0.417319	0.406724
H62	H	1.254726	0.320211	0.279303
H63	H	1.353065	0.419644	0.279278
H64	H	1.290216	-0.399733	0.098732
C65	C	1.483821	-0.432475	0.279779
H66	H	1.459725	-0.358415	0.336226
H67	H	1.539408	-0.489550	0.335403
H68	H	1.410918	-0.472930	0.254353
C69	C	1.694136	-0.217700	0.146221
H70	H	1.712258	-0.167097	0.064179
H71	H	1.747896	-0.294978	0.144937
H72	H	1.707672	-0.172395	0.233871
H73	H	1.295697	-0.181153	0.099967
H74	H	1.509003	-0.205238	0.242723
H75	H	1.508590	-0.426442	-0.243131
H76	H	1.654576	-0.442170	-0.138622
C77	C	1.662903	0.007208	0.661083
H78	H	1.713308	-0.043714	0.593457
H79	H	1.617269	-0.046065	0.720911
H80	H	1.715595	0.053381	0.720883
H81	H	1.331628	0.341937	0.639208
