data_functionalizedCrystal
_audit_creation_method	'MofGen! by Chris Wilmer'
_symmetry_space_group_name_H-M	'P1'
_symmetry_Int_Tables_number	1
_symmetry_cell_setting	triclinic
loop_
_symmetry_equiv_pos_as_xyz
  x,y,z
_cell_length_a	13.262397
_cell_length_b	13.101039
_cell_length_c	13.185407
_cell_angle_alpha	87.785773
_cell_angle_beta	111.130166
_cell_angle_gamma	102.509423
loop_
_atom_site_label
_atom_site_type_symbol
_atom_site_fract_x
_atom_site_fract_y
_atom_site_fract_z
O1	O	-1.326276	-0.284455	0.166715
O2	O	-1.023587	-0.200086	0.176731
O3	O	-1.226791	-0.256729	0.014232
O4	O	-1.123072	-0.227812	0.329213
O5	O	-1.212206	-0.423093	0.025911
O6	O	-1.009002	-0.366450	0.188410
O7	O	-1.311691	-0.450819	0.178393
Zn8	Zn	-1.158031	-0.435048	0.185256
Zn9	Zn	-1.177247	-0.215856	0.169868
O10	O	-1.108487	-0.394176	0.340892
C11	C	-0.978370	-0.272697	0.180933
C12	C	-0.865371	-0.241201	0.176041
C13	C	-0.820234	-0.135716	0.167375
C14	C	-0.714061	-0.106124	0.162789
C15	C	-0.653018	-0.182015	0.166860
C16	C	-0.698158	-0.287503	0.175519
C17	C	-0.804338	-0.317097	0.180114
C18	C	-0.637123	-0.363396	0.179599
C19	C	-0.682262	-0.468884	0.188258
C20	C	-0.788432	-0.498473	0.192851
C21	C	-0.849475	-0.422582	0.188780
C22	C	-0.530943	-0.333802	0.175004
C23	C	-0.515047	-0.515183	0.187743
C24	C	-0.621220	-0.544775	0.192329
N25	N	-1.144924	-0.584643	0.195757
C26	C	-1.127088	-0.788714	0.210054
C27	C	-1.208196	-0.862199	0.145066
C28	C	-1.198272	-0.975751	0.153021
C29	C	-1.137010	-0.675151	0.202100
C30	C	-0.356909	-0.378206	0.174190
C31	C	-0.469910	-0.409698	0.179077
C32	C	-1.230013	-0.342840	-0.020302
C33	C	-1.261332	-0.351566	-0.140603
N34	N	-1.190365	-0.066264	0.159359
C35	C	-0.962436	-0.268245	-0.437108
C36	C	-0.933007	-0.260036	-0.324080
C37	C	-1.015086	-0.282918	-0.278205
C38	C	-1.126598	-0.314010	-0.345370
C39	C	-1.156030	-0.322213	-0.458410
C40	C	-1.208680	-0.336885	-0.299506
C41	C	-1.320193	-0.367978	-0.366671
C42	C	-1.349619	-0.376179	-0.479700
C43	C	-1.267541	-0.353297	-0.525575
C44	C	-1.179248	-0.328683	-0.186466
C45	C	-1.372843	-0.382651	-0.207768
C46	C	-1.402271	-0.390860	-0.320796
C47	C	-1.105265	-0.308062	0.375426
C48	C	-1.073946	-0.299330	0.495727
H49	H	-0.566568	-0.157914	0.163126
H50	H	-1.285088	-0.839830	0.083454
N51	N	-1.058980	-0.295178	-0.114034
H52	H	-1.052783	-0.293456	-0.035465
H53	H	-1.027252	-0.223157	-0.133463
H54	H	-1.050202	-0.811079	0.271663
N55	N	-0.837113	-0.612243	0.202214
H56	H	-0.782335	-0.655831	0.204097
H57	H	-0.907719	-0.635977	0.137493
N58	N	-0.964004	-0.454486	0.193702
H59	H	-0.965820	-0.418504	0.259204
H60	H	-0.983286	-0.532832	0.199762
H61	H	-0.657988	-0.630664	0.199380
N62	N	-0.449216	-0.597043	0.192143
H63	H	-0.374510	-0.562127	0.189434
H64	H	-0.490481	-0.648499	0.127986
H65	H	-0.991118	-0.276233	-0.186171
N66	N	-0.812744	-0.226502	-0.251641
H67	H	-0.765213	-0.213253	-0.297851
H68	H	-0.790908	-0.283595	-0.199949
H69	H	-0.895620	-0.249610	-0.474471
H70	H	-1.439683	-0.401232	-0.170421
H71	H	-1.291495	-0.359991	-0.617610
H72	H	-0.494200	-0.247913	0.167956
N73	N	-0.665385	0.007642	0.153436
H74	H	-0.588862	0.014875	0.151146
H75	H	-0.660519	0.049573	0.218365
N76	N	-1.469891	-0.409704	-0.552146
H77	H	-1.517423	-0.422958	-0.505936
H78	H	-1.480905	-0.475955	-0.595179
N79	N	-1.522539	-0.424395	-0.393251
H80	H	-1.544471	-0.367331	-0.444953
H81	H	-1.569997	-0.437666	-0.346973
H82	H	-0.869940	-0.073936	0.164069
