data_functionalizedCrystal
_audit_creation_method	'MofGen! by Chris Wilmer'
_symmetry_space_group_name_H-M	'P1'
_symmetry_Int_Tables_number	1
_symmetry_cell_setting	triclinic
loop_
_symmetry_equiv_pos_as_xyz
  x,y,z
_cell_length_a	19.288864
_cell_length_b	19.288865
_cell_length_c	18.366186
_cell_angle_alpha	89.993214
_cell_angle_beta	89.979786
_cell_angle_gamma	83.136245
loop_
_atom_site_label
_atom_site_type_symbol
_atom_site_fract_x
_atom_site_fract_y
_atom_site_fract_z
O1	O	-0.921351	-0.086644	0.060791
O2	O	-0.421351	0.413356	0.560791
O3	O	-0.719090	-0.098333	0.060743
O4	O	-0.219090	0.401667	0.560743
O5	O	-0.826065	0.008642	0.060754
O6	O	-0.326065	0.508642	0.560754
O7	O	-0.814376	-0.193619	0.060780
O8	O	-0.314376	0.306381	0.560780
O9	O	-0.826051	0.008638	-0.060345
O10	O	-0.326051	0.508638	0.439655
O11	O	-0.719076	-0.098337	-0.060357
O12	O	-0.219076	0.401663	0.439643
O13	O	-0.921337	-0.086648	-0.060308
O14	O	-0.421337	0.413352	0.439692
Zn15	Zn	-0.820204	-0.092493	-0.079559
Zn16	Zn	-0.320204	0.407507	0.420441
Zn17	Zn	-0.820222	-0.092488	0.079994
Zn18	Zn	-0.320222	0.407512	0.579994
O19	O	-0.814362	-0.193623	-0.060319
O20	O	-0.314362	0.306377	0.439681
C21	C	-0.825682	0.034516	0.000202
C22	C	-0.325682	0.534516	0.500202
C23	C	-0.824553	0.111620	0.000195
C24	C	-0.324553	0.611620	0.500195
C25	C	-0.693207	-0.097959	0.000187
C26	C	-0.193207	0.402041	0.500187
C27	C	-0.616103	-0.096830	0.000167
C28	C	-0.116103	0.403170	0.500167
C29	C	-0.947220	-0.087022	0.000250
C30	C	-0.447220	0.412978	0.500250
C31	C	-1.024324	-0.088151	0.000274
C32	C	-0.524324	0.411849	0.500274
C33	C	-0.571407	-0.159598	0.000187
C34	C	-0.071407	0.340402	0.500187
C35	C	-0.498960	-0.158537	0.000195
C36	C	0.001040	0.341463	0.500195
C37	C	-0.471212	-0.094705	0.000198
C38	C	0.028788	0.405295	0.500198
C39	C	-0.515918	-0.031929	0.000174
C40	C	-0.015918	0.468071	0.500174
C41	C	-0.588364	-0.032991	0.000159
C42	C	-0.088364	0.467009	0.500159
C43	C	-0.362955	-0.044524	0.042642
C44	C	0.137045	0.455476	0.542642
C45	C	-0.290510	-0.043464	0.042662
C46	C	0.209490	0.456536	0.542662
C47	C	-0.247767	-0.091425	0.000241
C48	C	0.252233	0.408575	0.500241
C49	C	-0.277474	-0.140457	-0.042189
C50	C	0.222526	0.359543	0.457811
C51	C	-0.349920	-0.141520	-0.042205
C52	C	0.150080	0.358480	0.457795
C53	C	-0.392658	-0.093546	0.000214
C54	C	0.107342	0.406454	0.500214
C55	C	-0.124514	-0.153047	0.000269
C56	C	0.375486	0.346953	0.500269
C57	C	-0.052066	-0.151984	0.000272
C58	C	0.447934	0.348016	0.500272
C59	C	-0.069026	-0.025374	0.000259
C60	C	0.430974	0.474626	0.500259
C61	C	-0.141473	-0.026439	0.000248
C62	C	0.358527	0.473561	0.500248
C63	C	-0.169212	-0.090278	0.000256
C64	C	0.330788	0.409722	0.500256
C65	C	-0.814745	-0.219497	0.000234
C66	C	-0.314745	0.280503	0.500234
C67	C	-0.815874	-0.296601	0.000246
C68	C	-0.315874	0.203399	0.500246
N69	N	-0.820197	-0.092496	-0.188451
N70	N	-0.320197	0.407504	0.311549
C71	C	-0.887321	0.156316	0.000207
C72	C	-0.387321	0.656316	0.500207
C73	C	-0.886260	0.228763	0.000218
C74	C	-0.386260	0.728763	0.500218
C75	C	-0.822428	0.256511	0.000203
C76	C	-0.322428	0.756511	0.500203
C77	C	-0.759652	0.211805	0.000196
C78	C	-0.259652	0.711805	0.500196
C79	C	-0.760714	0.139359	0.000192
C80	C	-0.260714	0.639359	0.500192
C81	C	-0.772243	0.364797	-0.042227
C82	C	-0.272243	0.864797	0.457773
C83	C	-0.771184	0.437241	-0.042228
C84	C	-0.271184	0.937241	0.457772
C85	C	-0.819148	0.479956	0.000219
C86	C	-0.319148	0.979956	0.500219
C87	C	-0.868184	0.450220	0.042657
C88	C	-0.368184	0.950220	0.542657
C89	C	-0.869247	0.377774	0.042653
C90	C	-0.369247	0.877774	0.542653
C91	C	-0.821269	0.335065	0.000208
C92	C	-0.321269	0.835065	0.500208
C93	C	-0.880770	0.603209	0.000244
C94	C	-0.380770	1.103209	0.500244
C95	C	-0.879707	0.675657	0.000259
C96	C	-0.379707	1.175657	0.500259
C97	C	-0.753097	0.658697	0.000230
C98	C	-0.253097	1.158697	0.500230
C99	C	-0.754162	0.586250	0.000221
C100	C	-0.254162	1.086250	0.500221
C101	C	-0.818001	0.558511	0.000225
C102	C	-0.318001	1.058511	0.500225
C103	C	-0.862228	-0.134494	-0.772984
C104	C	-0.362228	0.365506	-0.272984
C105	C	-0.862221	-0.134500	-0.696756
C106	C	-0.362221	0.365500	-0.196756
C107	C	-0.820229	-0.092480	-0.658662
C108	C	-0.320229	0.407520	-0.158662
C109	C	-0.778228	-0.050464	-0.696802
C110	C	-0.278228	0.449536	-0.196802
C111	C	-0.778231	-0.050463	-0.773028
C112	C	-0.278231	0.449537	-0.273028
C113	C	-0.818502	-0.029856	-0.537905
C114	C	-0.318502	0.470144	-0.037905
C115	C	-0.818504	-0.029855	-0.461680
C116	C	-0.318504	0.470145	0.038320
C117	C	-0.820215	-0.092482	-0.423554
C118	C	-0.320215	0.407518	0.076446
C119	C	-0.821939	-0.155112	-0.461663
C120	C	-0.321939	0.344888	0.038337
C121	C	-0.821942	-0.155111	-0.537889
C122	C	-0.321942	0.344889	-0.037889
C123	C	-0.820221	-0.092476	-0.576007
C124	C	-0.320221	0.407524	-0.076007
C125	C	-0.862202	-0.134507	-0.302769
C126	C	-0.362202	0.365493	0.197231
C127	C	-0.862190	-0.134515	-0.226539
C128	C	-0.362190	0.365485	0.273461
C129	C	-0.778201	-0.050472	-0.226587
C130	C	-0.278201	0.449528	0.273413
C131	C	-0.778209	-0.050470	-0.302815
C132	C	-0.278209	0.449530	0.197185
C133	C	-0.820214	-0.092487	-0.340901
C134	C	-0.320214	0.407513	0.159099
N135	N	-0.820235	-0.092480	0.188885
N136	N	-0.320235	0.407520	0.688885
H137	H	-0.593987	-0.211580	0.000195
H138	H	-0.093987	0.288420	0.500195
H139	H	-0.493322	0.020044	0.000187
H140	H	0.006678	0.520044	0.500187
H141	H	-0.823333	-0.206109	-0.430623
H142	H	-0.323333	0.293891	0.069377
H143	H	-0.896401	-0.168722	-0.333780
H144	H	-0.396401	0.331278	0.166220
H145	H	-0.397752	-0.005467	0.077191
H146	H	0.102248	0.494533	0.577191
H147	H	-0.624756	0.018124	0.000144
H148	H	-0.124756	0.518124	0.500144
H149	H	-0.930822	0.712049	0.000273
H150	H	-0.430822	1.212049	0.500273
H151	H	-0.896384	-0.168732	-0.195494
H152	H	-0.396384	0.331268	0.304506
Cl153	Cl	-0.915028	-0.187320	-0.820860
Cl154	Cl	-0.415028	0.312680	-0.320860
Cl155	Cl	-0.816331	0.048877	-0.413780
Cl156	Cl	-0.316331	0.548877	0.086220
Cl157	Cl	-0.681799	0.083166	0.000177
Cl158	Cl	-0.181799	0.583166	0.500177
H159	H	-0.374105	-0.181442	-0.076756
H160	H	0.125895	0.318558	0.423244
H161	H	-0.744006	-0.016263	-0.195571
H162	H	-0.244006	0.483737	0.304429
Cl163	Cl	-0.223747	-0.200756	-0.095522
Cl164	Cl	0.276253	0.299244	0.404478
H165	H	-0.046435	0.026600	0.000306
H166	H	0.453565	0.526600	0.500306
H167	H	-0.744018	-0.016255	-0.333861
H168	H	-0.244018	0.483745	0.166139
H169	H	-0.817102	0.021146	-0.568941
H170	H	-0.317102	0.521146	-0.068941
H171	H	-0.939303	0.133736	0.000212
H172	H	-0.439303	0.633736	0.500212
H173	H	-0.744036	-0.016252	-0.665781
H174	H	-0.244036	0.483748	-0.165781
Cl175	Cl	-0.915027	-0.187311	-0.648810
Cl176	Cl	-0.415027	0.312689	-0.148810
H177	H	-0.744034	-0.016250	-0.804074
H178	H	-0.244034	0.483750	-0.304074
H179	H	-0.462561	-0.209652	0.000209
H180	H	0.037439	0.290348	0.500209
Cl181	Cl	-0.675249	0.530057	0.000203
Cl182	Cl	-0.175249	1.030057	0.500203
H183	H	-0.177866	0.024674	0.000236
H184	H	0.322134	0.524674	0.500236
Cl185	Cl	-0.159390	-0.233300	0.000272
Cl186	Cl	0.340610	0.266700	0.500272
Cl187	Cl	-0.709541	0.474618	-0.095580
Cl188	Cl	-0.209541	0.974618	0.404420
H189	H	-0.701123	0.681288	0.000221
H190	H	-0.201123	1.181288	0.500221
Cl191	Cl	0.004125	-0.230900	0.000293
Cl192	Cl	0.504125	0.269100	0.500293
H193	H	-0.266328	-0.003542	0.077215
H194	H	0.233672	0.496458	0.577215
H195	H	-0.937375	0.265162	0.000231
H196	H	-0.437375	0.765162	0.500231
Cl197	Cl	-0.930885	0.340392	0.096005
Cl198	Cl	-0.430885	0.840392	0.596005
Cl199	Cl	-0.961023	0.568333	0.000244
Cl200	Cl	-0.461023	1.068333	0.500244
Cl201	Cl	-0.711940	0.311105	-0.095596
Cl202	Cl	-0.211940	0.811105	0.404404
Cl203	Cl	-0.928486	0.503911	0.096023
Cl204	Cl	-0.428486	1.003911	0.596023
H205	H	-0.823344	-0.206106	-0.568914
H206	H	-0.323344	0.293894	-0.068914
H207	H	-0.707679	0.234401	0.000185
H208	H	-0.207679	0.734401	0.500185
