data_functionalizedCrystal
_audit_creation_method	'MofGen! by Chris Wilmer'
_symmetry_space_group_name_H-M	'P1'
_symmetry_Int_Tables_number	1
_symmetry_cell_setting	triclinic
loop_
_symmetry_equiv_pos_as_xyz
  x,y,z
_cell_length_a	10.489689
_cell_length_b	16.098546
_cell_length_c	17.019234
_cell_angle_alpha	91.144101
_cell_angle_beta	96.049551
_cell_angle_gamma	87.243931
loop_
_atom_site_label
_atom_site_type_symbol
_atom_site_fract_x
_atom_site_fract_y
_atom_site_fract_z
O1	O	-1.698561	0.077009	0.107199
O2	O	-1.198561	0.577009	0.607199
O3	O	-1.327241	0.077747	0.117651
O4	O	-0.827241	0.577747	0.617651
O5	O	-1.522599	0.069168	-0.001936
O6	O	-1.022599	0.569168	0.498064
O7	O	-1.503203	0.085588	0.226786
O8	O	-1.003203	0.585588	0.726786
O9	O	-1.511232	-0.068844	0.005048
O10	O	-1.011232	0.431156	0.505048
O11	O	-1.315874	-0.060265	0.124635
O12	O	-0.815874	0.439735	0.624635
O13	O	-1.687193	-0.061003	0.114183
O14	O	-1.187193	0.438997	0.614183
Zn15	Zn	-1.499728	-0.082546	0.120518
Zn16	Zn	-0.999728	0.417454	0.620518
Zn17	Zn	-1.514706	0.099291	0.111317
Zn18	Zn	-1.014706	0.599291	0.611317
O19	O	-1.491835	-0.052424	0.233770
O20	O	-0.991835	0.447576	0.733770
C21	C	-1.274033	0.008684	0.120363
C22	C	-0.774033	0.508684	0.620363
C23	C	-1.132426	0.008512	0.118027
C24	C	-0.632426	0.508512	0.618027
C25	C	-0.949251	0.013681	0.189946
C26	C	-0.449251	0.513681	0.689946
C27	C	-1.047395	0.079149	0.150578
C28	C	-0.547395	0.579149	0.650578
C29	C	-1.036161	-0.056921	0.157444
C30	C	-0.536161	0.443079	0.657444
C31	C	-0.978282	0.073748	0.074455
C32	C	-0.478282	0.573748	0.574455
C33	C	-0.967033	-0.062383	0.081335
C34	C	-0.467033	0.437617	0.581335
C35	C	-1.065152	0.003098	0.041910
C36	C	-0.565152	0.503098	0.541910
N37	N	-1.489516	-0.206644	0.126797
N38	N	-0.989516	0.293356	0.626797
C39	C	-1.441991	-0.729385	0.155776
C40	C	-0.941991	-0.229385	0.655776
C41	C	-1.449163	-0.642510	0.151399
C42	C	-0.949163	-0.142510	0.651399
C43	C	-1.539280	-0.602863	0.096279
C44	C	-1.039280	-0.102863	0.596279
C45	C	-1.622221	-0.650096	0.045529
C46	C	-1.122221	-0.150096	0.545529
C47	C	-1.615042	-0.736970	0.049903
C48	C	-1.115042	-0.236970	0.549903
C49	C	-1.565279	-0.340751	0.080421
C50	C	-1.065279	0.159249	0.580421
C51	C	-1.572454	-0.253871	0.076052
C52	C	-1.072454	0.246129	0.576052
C53	C	-1.399393	-0.246291	0.181921
C54	C	-0.899393	0.253709	0.681921
C55	C	-1.392227	-0.333166	0.186294
C56	C	-0.892227	0.166834	0.686294
C57	C	-1.475164	-0.380392	0.135540
C58	C	-0.975164	0.119608	0.635540
C59	C	-1.546615	-0.514063	0.091805
C60	C	-1.046615	-0.014063	0.591805
C61	C	-1.467821	-0.469191	0.140011
C62	C	-0.967821	0.030809	0.640011
C63	C	-0.740399	0.008059	0.111484
C64	C	-0.240399	0.508059	0.611484
C65	C	-0.881998	0.008225	0.113857
C66	C	-0.381998	0.508225	0.613857
C67	C	-1.515960	-0.001939	-0.027732
C68	C	-1.015960	0.498061	0.472268
C69	C	-1.513099	-0.008199	-0.114999
C70	C	-1.013099	0.491801	0.385001
N71	N	-1.524929	0.223389	0.105031
N72	N	-1.024929	0.723389	0.605031
C73	C	-1.496490	-0.047342	-0.608372
C74	C	-0.996490	0.452658	-0.108372
C75	C	-1.499190	-0.041464	-0.526375
C76	C	-0.999190	0.458536	-0.026375
C77	C	-1.506747	0.036707	-0.489176
C78	C	-1.006747	0.536707	0.010824
C79	C	-1.511591	0.109005	-0.533976
C80	C	-1.011591	0.609005	-0.033976
C81	C	-1.508881	0.103126	-0.615971
C82	C	-1.008881	0.603126	-0.115971
C83	C	-1.515232	0.058221	-0.241795
C84	C	-1.015232	0.558221	0.258205
C85	C	-1.517946	0.064094	-0.159794
C86	C	-1.017946	0.564094	0.340206
C87	C	-1.505542	-0.086376	-0.152199
C88	C	-1.005542	0.413624	0.347801
C89	C	-1.502841	-0.092248	-0.234196
C90	C	-1.002841	0.407752	0.265804
C91	C	-1.507678	-0.019950	-0.278989
C92	C	-1.007678	0.480050	0.221011
C93	C	-1.509512	0.042717	-0.405362
C94	C	-1.009512	0.542717	0.094638
C95	C	-1.504903	-0.025961	-0.362800
C96	C	-1.004903	0.474039	0.137200
C97	C	-1.498474	0.018685	0.259566
C98	C	-0.998474	0.518685	0.759566
C99	C	-1.501337	0.024950	0.346833
C100	C	-1.001337	0.524950	0.846833
H101	H	-1.368613	-0.761659	0.200664
H102	H	-0.868613	-0.261659	0.700664
H103	H	-1.331868	-0.207832	0.223241
H104	H	-0.831868	0.292168	0.723241
H105	H	-1.495262	-0.100332	-0.489908
H106	H	-0.995262	0.399668	0.010092
H107	H	-1.619992	-0.481775	0.046927
H108	H	-1.119992	0.018225	0.546927
H109	H	-0.898881	0.018238	0.252487
H110	H	-0.398881	0.518238	0.752487
H111	H	-1.496693	-0.155903	-0.264478
H112	H	-0.996693	0.344097	0.235522
H113	H	-1.501603	-0.145236	-0.115719
H114	H	-1.001603	0.354764	0.384281
H115	H	-1.645843	-0.221595	0.031165
H116	H	-1.145843	0.278405	0.531165
H117	H	-1.632812	-0.379196	0.039096
H118	H	-1.132812	0.120804	0.539096
H119	H	-1.394444	-0.501474	0.184887
H120	H	-0.894444	-0.001474	0.684887
H121	H	-1.695592	-0.617811	0.000645
H122	H	-1.195592	-0.117811	0.500645
H123	H	-1.682577	-0.775421	0.008580
H124	H	-1.182577	-0.275421	0.508580
H125	H	-1.381627	-0.604058	0.192719
H126	H	-0.881627	-0.104058	0.692719
H127	H	-1.490341	-0.110997	-0.638654
H128	H	-0.990341	0.389003	-0.138654
H129	H	-1.524098	0.127753	-0.129510
H130	H	-1.024098	0.627753	0.370490
H131	H	-0.952569	0.129033	0.039376
H132	H	-0.452569	0.629033	0.539376
H133	H	-1.519181	0.117091	-0.278256
H134	H	-1.019181	0.617091	0.221744
H135	H	-1.115298	-0.001361	-0.020694
H136	H	-0.615298	0.498639	0.479306
H137	H	-1.517737	0.172654	-0.503682
H138	H	-1.017737	0.672654	-0.003682
H139	H	-1.318847	-0.365445	0.231176
H140	H	-0.818847	0.134555	0.731176
H141	H	-1.512821	0.161995	-0.652442
H142	H	-1.012821	0.661995	-0.152442
H143	H	-1.498743	-0.089607	-0.393090
H144	H	-0.998743	0.410393	0.106910
H145	H	-1.082776	0.138987	0.179864
H146	H	-0.582776	0.638987	0.679864
H147	H	-0.931623	-0.122224	0.052078
H148	H	-0.431623	0.377776	0.552078
H149	H	-1.062026	-0.112136	0.192563
H150	H	-0.562026	0.387864	0.692563
H151	H	-1.515672	0.106364	-0.375066
H152	H	-1.015672	0.606364	0.124934
