data_functionalizedCrystal
_audit_creation_method	'MofGen! by Chris Wilmer'
_symmetry_space_group_name_H-M	'P1'
_symmetry_Int_Tables_number	1
_symmetry_cell_setting	triclinic
loop_
_symmetry_equiv_pos_as_xyz
  x,y,z
_cell_length_a	17.699083
_cell_length_b	10.723023
_cell_length_c	16.776229
_cell_angle_alpha	89.994384
_cell_angle_beta	89.998886
_cell_angle_gamma	83.875281
loop_
_atom_site_label
_atom_site_type_symbol
_atom_site_fract_x
_atom_site_fract_y
_atom_site_fract_z
O1	O	1.005074	0.157797	-0.066175
O2	O	1.505074	0.657797	0.433825
O3	O	0.784825	0.178327	-0.066201
O4	O	1.284825	0.678327	0.433799
O5	O	0.900030	-0.013601	-0.066184
O6	O	1.400030	0.486399	0.433816
O7	O	0.889868	0.349725	-0.066191
O8	O	1.389868	0.849725	0.433809
O9	O	0.900014	-0.013613	0.066393
O10	O	1.400014	0.486387	0.566393
O11	O	0.784809	0.178315	0.066376
O12	O	1.284809	0.678315	0.566376
O13	O	1.005058	0.157785	0.066402
O14	O	1.505058	0.657785	0.566402
Zn15	Zn	0.894931	0.168048	0.087438
Zn16	Zn	1.394931	0.668048	0.587438
Zn17	Zn	0.894952	0.168064	-0.087237
Zn18	Zn	1.394952	0.668064	0.412763
O19	O	0.889853	0.349714	0.066385
O20	O	1.389853	0.849714	0.566385
C21	C	0.756615	0.177585	0.000084
C22	C	1.256615	0.677585	0.500084
C23	C	0.672583	0.175379	0.000075
C24	C	1.172583	0.675379	0.500075
C25	C	0.899283	-0.060094	0.000104
C26	C	1.399283	0.439906	0.500104
C27	C	0.897071	-0.198611	0.000101
C28	C	1.397071	0.301389	0.500101
C29	C	0.624673	0.288036	0.000072
C30	C	1.124673	0.788036	0.500072
C31	C	0.545716	0.285955	0.000083
C32	C	1.045716	0.785955	0.500083
C33	C	0.514672	0.171215	0.000090
C34	C	1.014672	0.671215	0.500090
C35	C	0.562589	0.058549	0.000094
C36	C	1.062589	0.558549	0.500094
C37	C	0.641544	0.060631	0.000089
C38	C	1.141544	0.560631	0.500089
C39	C	0.244173	0.050148	0.000114
C40	C	0.744173	0.550148	0.500114
C41	C	0.165212	0.048075	0.000116
C42	C	0.665212	0.548075	0.500116
C43	C	0.148345	0.275473	0.000107
C44	C	0.648345	0.775473	0.500107
C45	C	0.227300	0.277555	0.000103
C46	C	0.727300	0.777555	0.500103
C47	C	0.275210	0.164889	0.000111
C48	C	0.775210	0.664889	0.500111
C49	C	0.360823	0.167147	0.000102
C50	C	0.860823	0.667147	0.500102
C51	C	0.429060	0.168956	0.000094
C52	C	0.929060	0.668956	0.500094
C53	C	0.896093	-0.260353	-0.068579
C54	C	1.396093	0.239647	0.431421
C55	C	0.893806	-0.403517	-0.068584
C56	C	1.393806	0.096483	0.431416
C57	C	1.033267	0.158527	0.000115
C58	C	1.533267	0.658527	0.500115
C59	C	1.117299	0.160734	0.000120
C60	C	1.617299	0.660734	0.500120
C61	C	0.890600	0.396206	0.000096
C62	C	1.390600	0.896206	0.500096
C63	C	0.892812	0.534723	0.000094
C64	C	1.392812	1.034723	0.500094
N65	N	0.894923	0.168037	0.206650
N66	N	1.394923	0.668037	0.706650
N67	N	0.894966	0.168065	-0.206448
N68	N	1.394966	0.668065	0.293552
C69	C	0.945951	0.083086	0.248374
C70	C	1.445951	0.583086	0.748374
C71	C	0.945956	0.083085	0.331826
C72	C	1.445956	0.583085	0.831826
C73	C	0.894934	0.168042	0.373552
C74	C	1.394934	0.668042	0.873552
C75	C	0.843900	0.252997	0.331822
C76	C	1.343900	0.752997	0.831822
C77	C	0.843893	0.252991	0.248371
C78	C	1.343893	0.752991	0.748371
C79	C	0.843928	0.253021	0.668369
C80	C	1.343928	0.753021	1.168369
C81	C	0.843940	0.253023	0.751826
C82	C	1.343940	0.753023	1.251826
C83	C	0.945990	0.083115	0.751824
C84	C	1.445990	0.583115	1.251824
C85	C	0.945983	0.083109	0.668373
C86	C	1.445983	0.583109	1.168373
C87	C	0.894947	0.168060	0.626650
C88	C	1.394947	0.668060	1.126650
C89	C	0.894942	0.168058	0.536162
C90	C	1.394942	0.668058	1.036162
C91	C	0.894942	0.168050	0.464039
C92	C	1.394942	0.668050	0.964039
H93	H	0.649942	0.381471	0.000066
H94	H	1.149942	0.881471	0.500066
H95	H	0.139939	-0.045366	0.000123
H96	H	0.639939	0.454634	0.500123
O97	O	0.494042	0.407468	0.000076
O98	O	0.994042	0.907468	0.500076
H99	H	0.457676	0.411964	0.054120
H100	H	0.957676	0.911964	0.554120
H101	H	0.252572	0.370988	0.000093
H102	H	0.752572	0.870988	0.500093
H103	H	0.802339	0.322165	0.214400
H104	H	1.302339	0.822165	0.714400
O105	O	1.001037	-0.008512	0.796830
O106	O	1.501037	0.491488	1.296830
H107	H	1.036521	-0.067573	0.753794
H108	H	1.536521	0.432427	1.253794
H109	H	0.892969	-0.456615	-0.127383
H110	H	1.392969	0.043385	0.372617
H111	H	0.109327	0.367211	0.000104
H112	H	0.609327	0.867211	0.500104
H113	H	0.802373	0.322193	0.634405
H114	H	1.302373	0.822193	1.134405
H115	H	0.896211	-0.251738	0.058897
H116	H	1.396211	0.248262	0.558897
H117	H	0.987502	0.013910	0.214406
H118	H	1.487502	0.513910	0.714406
H119	H	0.987506	0.013911	0.365798
H120	H	1.487506	0.513911	0.865798
O121	O	1.001008	-0.008528	0.623366
O122	O	1.501008	0.491472	1.123366
H123	H	1.036488	-0.067612	0.666401
H124	H	1.536488	0.432388	1.166401
H125	H	0.680552	-0.031107	0.000091
H126	H	1.180552	0.468893	0.500091
O127	O	0.295843	-0.071363	0.000123
O128	O	0.795843	0.428637	0.500123
H129	H	0.260988	-0.151494	0.000122
H130	H	0.760988	0.348506	0.500122
H131	H	0.802390	0.322208	0.785798
H132	H	1.302390	0.822208	1.285798
O133	O	0.897223	-0.189997	-0.146468
O134	O	1.397223	0.310003	0.353532
H135	H	0.898845	-0.088592	-0.134242
H136	H	1.398845	0.411408	0.365758
H137	H	0.537306	-0.034875	0.000111
H138	H	1.037306	0.465125	0.500111
H139	H	0.802354	0.322166	0.365800
H140	H	1.302354	0.822166	0.865800
H141	H	0.893657	-0.412189	0.058896
H142	H	1.393657	0.087811	0.558896
