data_functionalizedCrystal
_audit_creation_method	'MofGen! by Chris Wilmer'
_symmetry_space_group_name_H-M	'P1'
_symmetry_Int_Tables_number	1
_symmetry_cell_setting	triclinic
loop_
_symmetry_equiv_pos_as_xyz
  x,y,z
_cell_length_a	16.120490
_cell_length_b	16.120484
_cell_length_c	16.120297
_cell_angle_alpha	84.385569
_cell_angle_beta	89.870317
_cell_angle_gamma	90.164100
loop_
_atom_site_label
_atom_site_type_symbol
_atom_site_fract_x
_atom_site_fract_y
_atom_site_fract_z
Zn1	Zn	1.224990	-0.422331	0.554787
Zn2	Zn	1.724990	0.077669	1.054787
Zn3	Zn	1.224886	-0.555015	0.422092
Zn4	Zn	1.724886	-0.055015	0.922092
Zn5	Zn	1.093729	-0.408239	0.408032
Zn6	Zn	1.593729	0.091761	0.908032
Zn7	Zn	1.078882	-0.554239	0.554027
Zn8	Zn	1.578882	-0.054239	1.054027
O9	O	1.155622	-0.484956	0.484735
O10	O	1.655622	0.015044	0.984735
O11	O	1.341012	-0.446153	0.543386
O12	O	1.841012	0.053847	1.043386
O13	O	1.213657	-0.529972	0.303594
O14	O	1.713657	-0.029972	0.803594
O15	O	1.117398	-0.293478	0.421933
O16	O	1.617398	0.206522	0.921933
O17	O	1.340936	-0.543636	0.445896
O18	O	1.840936	-0.043636	0.945896
O19	O	1.213835	-0.303831	0.529753
O20	O	1.713835	0.196169	1.029753
O21	O	1.117297	-0.422137	0.293264
O22	O	1.617297	0.077863	0.793264
O23	O	0.975724	-0.421385	0.421197
O24	O	1.475724	0.078615	0.921197
O25	O	1.092094	-0.542314	0.670761
O26	O	1.592094	-0.042314	1.170761
O27	O	0.964816	-0.528650	0.528459
O28	O	1.464816	-0.028650	1.028459
O29	O	1.199439	-0.445401	0.671319
O30	O	1.699439	0.054599	1.171319
O31	O	1.199261	-0.671542	0.445159
O32	O	1.699261	-0.171542	0.945159
O33	O	1.091993	-0.670972	0.542092
O34	O	1.591993	-0.170972	1.042092
C35	C	0.940183	-0.473405	0.473221
C36	C	1.440183	0.026595	0.973221
C37	C	0.848015	-0.468484	0.468316
C38	C	1.348015	0.031516	0.968316
C39	C	0.632820	-0.510474	0.510179
C40	C	1.132820	-0.010474	1.010179
C41	C	0.679267	-0.459508	0.459359
C42	C	1.179267	0.040492	0.959359
C43	C	0.773167	-0.464504	0.464344
C44	C	1.273167	0.035496	0.964344
C45	C	0.538912	-0.505479	0.505195
C46	C	1.038912	-0.005479	1.005195
C47	C	1.144026	-0.701500	0.495088
C48	C	1.644026	-0.201500	0.995088
C49	C	1.139140	-0.794144	0.499550
C50	C	1.639140	-0.294144	0.999550
C51	C	1.130223	-0.963767	0.507712
C52	C	1.630223	-0.463767	1.007712
C53	C	1.181169	-1.005313	0.461779
C54	C	1.681169	-0.505313	0.961779
C55	C	1.176207	-1.099697	0.466320
C56	C	1.676207	-0.599697	0.966320
C57	C	1.135183	-0.869375	0.503171
C58	C	1.635183	-0.369375	1.003171
C59	C	1.371902	-0.496553	0.496294
C60	C	1.871902	0.003447	0.996294
C61	C	1.464068	-0.501495	0.501220
C62	C	1.964068	-0.001495	1.001220
C63	C	1.144122	-0.495343	0.702127
C64	C	1.644122	0.004657	1.202127
C65	C	1.139222	-0.499770	0.794767
C66	C	1.639222	0.000230	1.294767
C67	C	1.167284	-0.267568	0.474360
C68	C	1.667284	0.232432	0.974360
C69	C	1.172254	-0.174931	0.469939
C70	C	1.672254	0.325069	0.969939
C71	C	1.167128	-0.474552	0.268187
C72	C	1.667128	0.025448	0.768187
C73	C	1.172201	-0.469899	0.175545
C74	C	1.672201	0.030101	0.675545
C75	C	1.130245	-0.507831	0.964378
C76	C	1.630245	-0.007831	1.464378
C77	C	1.181175	-0.461840	1.005939
C78	C	1.681175	0.038160	1.505939
C79	C	1.176180	-0.466326	1.100317
C80	C	1.676180	0.033674	1.600317
C81	C	1.135239	-0.503346	0.869992
C82	C	1.635239	-0.003346	1.369992
H83	H	0.648511	-0.412123	0.412108
H84	H	1.148511	0.087877	0.912108
H85	H	1.082897	-0.550570	0.999674
H86	H	1.582897	-0.050570	1.499674
H87	H	1.228511	-0.969997	0.419042
H88	H	1.728511	-0.469997	0.919042
C89	C	1.245154	-0.404104	0.958256
C90	C	1.745154	0.095896	1.458256
N91	N	1.293344	-0.360623	0.922337
N92	N	1.793344	0.139377	1.422337
C93	C	0.674369	-0.574492	0.574002
C94	C	1.174369	-0.074492	1.074002
N95	N	0.705673	-0.622714	0.622069
N96	N	1.205673	-0.122714	1.122069
H97	H	1.082883	-0.999080	0.550444
H98	H	1.582883	-0.499080	1.050444
