data_functionalizedCrystal
_audit_creation_method	'MofGen! by Chris Wilmer'
_symmetry_space_group_name_H-M	'P1'
_symmetry_Int_Tables_number	1
_symmetry_cell_setting	triclinic
loop_
_symmetry_equiv_pos_as_xyz
  x,y,z
_cell_length_a	21.295418
_cell_length_b	21.295417
_cell_length_c	21.295411
_cell_angle_alpha	90.021644
_cell_angle_beta	90.043738
_cell_angle_gamma	90.046319
loop_
_atom_site_label
_atom_site_type_symbol
_atom_site_fract_x
_atom_site_fract_y
_atom_site_fract_z
Zn1	Zn	0.962356	-0.250415	0.356234
Zn2	Zn	1.462356	0.249585	0.856234
Zn3	Zn	0.962258	-0.355667	0.250959
Zn4	Zn	1.462258	0.144333	0.750959
Zn5	Zn	0.857079	-0.250445	0.250943
Zn6	Zn	1.357079	0.249555	0.750943
Zn7	Zn	0.857048	-0.355680	0.356155
Zn8	Zn	1.357048	0.144320	0.856155
O9	O	0.909685	-0.303052	0.303573
O10	O	1.409685	0.196948	0.803573
O11	O	1.050432	-0.264360	0.342308
O12	O	1.550432	0.235640	0.842308
O13	O	0.948278	-0.341716	0.162867
O14	O	1.448278	0.158284	0.662867
O15	O	0.871098	-0.162351	0.264937
O16	O	1.371098	0.337649	0.764937
O17	O	1.050361	-0.341688	0.264963
O18	O	1.550361	0.158312	0.764963
O19	O	0.948444	-0.162330	0.342293
O20	O	1.448444	0.337670	0.842293
O21	O	0.871003	-0.264410	0.162856
O22	O	1.371003	0.235590	0.662856
O23	O	0.768985	-0.264422	0.264861
O24	O	1.268985	0.235578	0.764861
O25	O	0.871046	-0.341709	0.444255
O26	O	1.371046	0.158291	0.944255
O27	O	0.768963	-0.341738	0.342160
O28	O	1.268963	0.158262	0.842160
O29	O	0.948415	-0.264372	0.444313
O30	O	1.448415	0.235628	0.944313
O31	O	0.948248	-0.443758	0.264887
O32	O	1.448248	0.056242	0.764887
O33	O	0.870951	-0.443767	0.342175
O34	O	1.370951	0.056233	0.842175
C35	C	0.909603	-0.466603	0.303538
C36	C	1.409603	0.033397	0.803538
C37	C	0.909625	-0.536571	0.303544
C38	C	1.409625	-0.036571	0.803544
C39	C	0.746134	-0.303085	0.303500
C40	C	1.246134	0.196915	0.803500
C41	C	0.676166	-0.303114	0.303484
C42	C	1.176166	0.196886	0.803484
C43	C	0.643304	-0.343426	0.343674
C44	C	1.143304	0.156574	0.843674
C45	C	0.577561	-0.343410	0.343702
C46	C	1.077561	0.156590	0.843702
C47	C	0.544683	-0.303090	0.303530
C48	C	1.044683	0.196910	0.803530
C49	C	0.577553	-0.262770	0.263337
C50	C	1.077553	0.237230	0.763337
C51	C	0.643294	-0.262783	0.263315
C52	C	1.143294	0.237217	0.763315
N53	N	0.441407	-0.298163	0.248472
N54	N	0.941407	0.201837	0.748472
N55	N	0.378956	-0.298155	0.248495
N56	N	0.878956	0.201845	0.748495
C57	C	0.346608	-0.303050	0.303596
C58	C	0.846608	0.196950	0.803596
N59	N	0.379072	-0.307965	0.358675
N60	N	0.879072	0.192035	0.858675
N61	N	0.441529	-0.307976	0.358650
N62	N	0.941529	0.192024	0.858650
C63	C	0.473398	-0.303072	0.303550
C64	C	0.973398	0.196928	0.803550
C65	C	0.242461	-0.343346	0.343820
C66	C	0.742461	0.156654	0.843820
C67	C	0.176717	-0.343326	0.343849
C68	C	0.676717	0.156674	0.843849
C69	C	0.176710	-0.262690	0.263479
C70	C	0.676710	0.237310	0.763479
C71	C	0.242453	-0.262707	0.263455
C72	C	0.742453	0.237293	0.763455
C73	C	0.275324	-0.303038	0.303625
C74	C	0.775324	0.196962	0.803625
C75	C	0.949910	-0.569412	0.263342
C76	C	1.449910	-0.069412	0.763342
C77	C	0.949939	-0.635155	0.263356
C78	C	1.449939	-0.135155	0.763356
C79	C	0.909673	-0.668054	0.303566
C80	C	1.409673	-0.168054	0.803566
C81	C	0.869386	-0.635205	0.343776
C82	C	1.369386	-0.135205	0.843776
C83	C	0.869362	-0.569464	0.343765
C84	C	1.369362	-0.069464	0.843765
N85	N	0.854606	-0.771336	0.308340
N86	N	1.354606	-0.271336	0.808340
N87	N	0.854630	-0.833787	0.308347
N88	N	1.354630	-0.333787	0.808347
C89	C	0.909743	-0.866129	0.303602
C90	C	1.409743	-0.366129	0.803602
N91	N	0.964832	-0.833659	0.298838
N92	N	1.464832	-0.333659	0.798838
N93	N	0.964807	-0.771202	0.298828
N94	N	1.464807	-0.271202	0.798828
C95	C	0.909695	-0.739339	0.303582
C96	C	1.409695	-0.239339	0.803582
C97	C	0.950063	-0.970255	0.263413
C98	C	1.450063	-0.470255	0.763413
C99	C	0.950094	-1.035999	0.263431
C100	C	1.450094	-0.535999	0.763431
C101	C	0.869535	-1.036048	0.343848
C102	C	1.369535	-0.536048	0.843848
C103	C	0.869510	-0.970305	0.343833
C104	C	1.369510	-0.470305	0.843833
C105	C	0.909773	-0.937413	0.303612
C106	C	1.409773	-0.437413	0.803612
C107	C	1.073876	-0.303019	0.303646
C108	C	1.573876	0.196981	0.803646
C109	C	1.143844	-0.303005	0.303677
C110	C	1.643844	0.196995	0.803677
C111	C	0.909738	-0.303038	0.467763
C112	C	1.409738	0.196962	0.967763
C113	C	0.909760	-0.303033	0.537731
C114	C	1.409760	0.196967	1.037731
C115	C	0.909785	-0.138861	0.303622
C116	C	1.409785	0.361139	0.803622
C117	C	0.909828	-0.068893	0.303642
C118	C	1.409828	0.431107	0.803642
C119	C	0.909670	-0.303019	0.140021
C120	C	1.409670	0.196981	0.640021
C121	C	0.909769	-0.302848	0.070054
C122	C	1.409769	0.197152	0.570054
C123	C	0.950044	-0.262761	0.570629
C124	C	1.450044	0.237239	1.070629
C125	C	0.950043	-0.262734	0.636371
C126	C	1.450043	0.237266	1.136371
C127	C	0.909765	-0.302989	0.669214
C128	C	1.409765	0.197011	1.169214
C129	C	0.869473	-0.343263	0.636308
C130	C	1.369473	0.156737	1.136308
C131	C	0.869470	-0.343285	0.570567
C132	C	1.369470	0.156715	1.070567
N133	N	0.904908	-0.358058	0.772428
N134	N	1.404908	0.141942	1.272428
N135	N	0.904914	-0.358036	0.834879
N136	N	1.404914	0.141964	1.334879
C137	C	0.909769	-0.302926	0.867289
C138	C	1.409769	0.197074	1.367289
N139	N	0.914629	-0.247837	0.834888
N140	N	1.414629	0.252163	1.334888
N141	N	0.914627	-0.247860	0.772430
N142	N	1.414627	0.252140	1.272430
C143	C	0.909763	-0.302970	0.740499
C144	C	1.409763	0.197030	1.240499
C145	C	0.950054	-0.262621	0.971472
C146	C	1.450054	0.237379	1.471472
C147	C	0.950049	-0.262593	1.037216
C148	C	1.450049	0.237407	1.537216
C149	C	0.869482	-0.343128	1.037151
C150	C	1.369482	0.156872	1.537151
C151	C	0.869484	-0.343151	0.971409
C152	C	1.369484	0.156849	1.471409
C153	C	0.909773	-0.302898	0.938573
C154	C	1.409773	0.197102	1.438573
H155	H	0.670063	-0.376266	0.376384
H156	H	1.170063	0.123734	0.876384
O157	O	0.989086	-0.537559	0.224259
O158	O	1.489086	-0.037559	0.724259
C159	C	1.024639	-0.580649	0.188768
C160	C	1.524639	-0.080649	0.688768
H161	H	1.026818	-0.627496	0.214561
H162	H	1.526818	-0.127496	0.714561
H163	H	1.074234	-0.561603	0.182115
H164	H	1.574234	-0.061603	0.682115
H165	H	1.001615	-0.587691	0.140930
H166	H	1.501615	-0.087691	0.640930
H167	H	0.836676	-0.376038	0.663053
H168	H	1.336676	0.123962	1.163053
H169	H	0.982850	-0.943473	0.230664
H170	H	1.482850	-0.443473	0.730664
O171	O	0.830431	-0.938302	0.382860
O172	O	1.330431	-0.438302	0.882860
C173	C	0.839032	-0.873224	0.374217
C174	C	1.339032	-0.373224	0.874217
H175	H	0.887619	-0.864199	0.353661
H176	H	1.387619	-0.364199	0.853661
H177	H	0.834729	-0.848217	0.421359
H178	H	1.334729	-0.348217	0.921359
H179	H	0.801703	-0.854630	0.340644
H180	H	1.301703	-0.354630	0.840644
H181	H	0.836663	-0.376078	0.543782
H182	H	1.336663	0.123922	1.043782
H183	H	0.982850	-0.229984	0.543898
H184	H	1.482850	0.270016	1.043898
H185	H	0.550779	-0.229940	0.230630
H186	H	1.050779	0.270060	0.730630
H187	H	0.836680	-0.375898	1.063891
H188	H	1.336680	0.124102	1.563891
H189	H	0.269209	-0.229884	0.230726
H190	H	0.769209	0.270116	0.730726
O191	O	0.989125	-0.667101	0.224382
O192	O	1.489125	-0.167101	0.724382
C193	C	1.029770	-0.705086	0.260261
C194	C	1.529770	-0.205086	0.760261
H195	H	1.033656	-0.685243	0.309839
H196	H	1.533656	-0.185243	0.809839
H197	H	1.078216	-0.705805	0.237533
H198	H	1.578216	-0.205805	0.737533
H199	H	1.010308	-0.754925	0.262423
H200	H	1.510308	-0.254925	0.762423
H201	H	0.982857	-0.229842	0.944736
H202	H	1.482857	0.270158	1.444736
O203	O	0.989242	-0.223450	1.069077
O204	O	1.489242	0.276550	1.569077
C205	C	1.024789	-0.187920	1.025995
C206	C	1.524789	0.312080	1.525995
H207	H	1.026950	-0.213720	0.979133
H208	H	1.526950	0.286280	1.479133
H209	H	1.074391	-0.181193	1.045028
H210	H	1.574391	0.318807	1.545028
H211	H	1.001771	-0.140116	1.018986
H212	H	1.501771	0.359884	1.518986
O213	O	0.274424	-0.382584	0.382754
O214	O	0.774424	0.117416	0.882754
C215	C	0.312380	-0.423190	0.346828
C216	C	0.812380	0.076810	0.846828
H217	H	0.292508	-0.427002	0.297250
H218	H	0.792508	0.072998	0.797250
H219	H	0.313100	-0.471667	0.369508
H220	H	0.813100	0.028333	0.869508
H221	H	0.362222	-0.403735	0.344677
H222	H	0.862222	0.096265	0.844677
H223	H	0.550800	-0.376236	0.376431
H224	H	1.050800	0.123764	0.876431
O225	O	0.830334	-0.382333	0.939546
O226	O	1.330334	0.117667	1.439546
C227	C	0.794769	-0.417847	0.982628
C228	C	1.294769	0.082153	1.482628
H229	H	0.820554	-0.420008	1.029509
H230	H	1.320554	0.079992	1.529509
H231	H	0.788021	-0.467451	0.963625
H232	H	1.288021	0.032549	1.463625
H233	H	0.746976	-0.394799	0.989587
H234	H	1.246976	0.105201	1.489587
H235	H	0.836602	-0.661996	0.376516
H236	H	1.336602	-0.161996	0.876516
H237	H	0.149962	-0.376152	0.376580
H238	H	0.649962	0.123848	0.876580
H239	H	0.670050	-0.229954	0.230588
H240	H	1.170050	0.270046	0.730588
H241	H	0.836557	-0.542724	0.376503
H242	H	1.336557	-0.042724	0.876503
O243	O	0.144683	-0.223597	0.224460
O244	O	0.644683	0.276403	0.724460
C245	C	0.079611	-0.232224	0.233102
C246	C	0.579611	0.267776	0.733102
H247	H	0.070610	-0.280824	0.253652
H248	H	0.570610	0.219176	0.753652
H249	H	0.054585	-0.227906	0.185960
H250	H	0.554585	0.272094	0.685960
H251	H	0.061017	-0.194919	0.266679
H252	H	0.561017	0.305081	0.766679
O253	O	0.989249	-1.067805	0.224318
O254	O	1.489249	-0.567805	0.724318
C255	C	1.024789	-1.024673	0.188829
C256	C	1.524789	-0.524673	0.688829
H257	H	0.998987	-0.977843	0.186610
H258	H	1.498987	-0.477843	0.686610
H259	H	1.031532	-1.043688	0.139244
H260	H	1.531532	-0.543688	0.639244
H261	H	1.072586	-1.017609	0.211935
H262	H	1.572586	-0.517609	0.711935
H263	H	0.836752	-1.062833	0.376591
H264	H	1.336752	-0.562833	0.876591
O265	O	0.989239	-0.223595	0.668240
O266	O	1.489239	0.276405	1.168240
C267	C	1.024785	-0.188060	0.625161
C268	C	1.524785	0.311940	1.125161
H269	H	1.026945	-0.213855	0.578296
H270	H	1.526945	0.286145	1.078296
H271	H	1.074387	-0.181336	0.644194
H272	H	1.574387	0.318664	1.144194
H273	H	1.001768	-0.140254	0.618158
H274	H	1.501768	0.359746	1.118158
