data_functionalizedCrystal
_audit_creation_method	'MofGen! by Chris Wilmer'
_symmetry_space_group_name_H-M	'P1'
_symmetry_Int_Tables_number	1
_symmetry_cell_setting	triclinic
loop_
_symmetry_equiv_pos_as_xyz
  x,y,z
_cell_length_a	11.792241
_cell_length_b	14.853567
_cell_length_c	13.930277
_cell_angle_alpha	89.999243
_cell_angle_beta	89.996987
_cell_angle_gamma	83.914173
loop_
_atom_site_label
_atom_site_type_symbol
_atom_site_fract_x
_atom_site_fract_y
_atom_site_fract_z
O1	O	1.506151	0.123567	-0.079729
O2	O	1.175731	0.136302	-0.079750
O3	O	1.349767	-0.001261	-0.079742
O4	O	1.332115	0.261130	-0.079737
O5	O	1.349743	-0.001264	0.079920
O6	O	1.175707	0.136299	0.079911
O7	O	1.506127	0.123564	0.079933
Zn8	Zn	1.340913	0.129931	0.105272
Zn9	Zn	1.340945	0.129935	-0.105089
O10	O	1.332091	0.261127	0.079924
C11	C	1.133433	0.135501	0.000078
C12	C	1.007434	0.133106	0.000069
C13	C	1.348955	-0.034854	0.000086
C14	C	1.346558	-0.134947	0.000078
C15	C	1.233045	-0.547923	0.000088
C16	C	1.439804	-0.568399	0.000102
C17	C	1.442058	-0.474356	0.000096
C18	C	1.339804	-0.417093	0.000088
C19	C	1.235296	-0.453871	0.000086
C20	C	1.546563	-0.437570	0.000109
C21	C	1.548821	-0.343522	0.000104
C22	C	1.446566	-0.286257	0.000089
C23	C	1.342054	-0.323041	0.000086
C24	C	1.239800	-0.265777	0.000078
C25	C	1.135287	-0.302560	0.000067
C26	C	1.133041	-0.396606	0.000071
C27	C	1.448812	-0.192211	0.000086
C28	C	1.242051	-0.171726	0.000075
C29	C	0.776749	0.128704	0.000097
C30	C	0.905119	0.131150	0.000081
C31	C	1.548425	0.124366	0.000103
C32	C	1.674424	0.126760	0.000105
C33	C	1.332903	0.294720	0.000094
C34	C	1.335300	0.394813	0.000096
N35	N	1.340900	0.129928	0.248838
N36	N	1.340967	0.129931	-0.248656
C37	C	1.263879	0.190824	0.701104
C38	C	1.418042	0.069040	0.701080
C39	C	1.418029	0.069037	0.600585
C40	C	1.340940	0.129929	0.550344
C41	C	1.263865	0.190825	0.600599
C42	C	1.495110	0.008148	0.550322
C43	C	1.495100	0.008144	0.449820
C44	C	1.418006	0.069033	0.399578
C45	C	1.340927	0.129930	0.449839
C46	C	1.263838	0.190823	0.399598
C47	C	1.186753	0.251716	0.449857
C48	C	1.186770	0.251714	0.550356
C49	C	1.417988	0.069035	0.299079
C50	C	1.263824	0.190823	0.299093
H51	H	1.158782	-0.125107	0.000064
H52	H	1.201114	0.240401	0.742027
N53	N	1.103607	0.317395	0.395670
H54	H	1.147035	0.357546	0.353969
H55	H	1.053326	0.282607	0.354032
H56	H	1.557866	-0.041439	0.408906
H57	H	1.124011	0.301292	0.591283
N58	N	1.020323	-0.436275	0.000075
H59	H	0.975523	-0.415439	-0.059115
H60	H	1.034510	-0.504534	0.000121
H61	H	1.557879	-0.041424	0.591232
N62	N	1.120325	-0.587587	0.000072
H63	H	1.134408	-0.655854	0.000072
H64	H	1.075565	-0.566676	0.059258
N65	N	1.550087	-0.630156	0.000126
H66	H	1.532804	-0.695315	0.000132
H67	H	1.595638	-0.618197	-0.059060
H68	H	1.633922	-0.313583	0.000111
N69	N	1.501193	0.003373	0.755263
H70	H	1.489509	0.012615	0.826555
H71	H	1.487984	-0.060656	0.737704
H72	H	1.480755	0.019461	0.258162
H73	H	1.533905	-0.162267	0.000100
H74	H	1.629813	-0.484201	0.000124
H75	H	1.201045	0.240407	0.258193
N76	N	1.025001	-0.240793	0.000083
H77	H	1.042293	-0.175636	0.000093
H78	H	0.979458	-0.252745	-0.059105
