data_functionalizedCrystal
_audit_creation_method	'MofGen! by Chris Wilmer'
_symmetry_space_group_name_H-M	'P1'
_symmetry_Int_Tables_number	1
_symmetry_cell_setting	triclinic
loop_
_symmetry_equiv_pos_as_xyz
  x,y,z
_cell_length_a	12.811438
_cell_length_b	12.837942
_cell_length_c	9.798715
_cell_angle_alpha	89.997407
_cell_angle_beta	84.564853
_cell_angle_gamma	89.411773
loop_
_atom_site_label
_atom_site_type_symbol
_atom_site_fract_x
_atom_site_fract_y
_atom_site_fract_z
O1	O	1.406646	0.139683	-0.287574
O2	O	1.906646	0.639683	0.212426
O3	O	1.102581	0.154871	-0.249946
O4	O	1.602581	0.654871	0.250054
O5	O	1.247871	-0.003655	-0.267917
O6	O	1.747871	0.496345	0.232083
O7	O	1.261356	0.298209	-0.269603
O8	O	1.761356	0.798209	0.230397
O9	O	1.247859	-0.003655	-0.040934
O10	O	1.747859	0.496345	0.459066
O11	O	1.102569	0.154871	-0.022962
O12	O	1.602569	0.654871	0.477038
O13	O	1.406634	0.139682	-0.060590
O14	O	1.906634	0.639682	0.439410
Zn15	Zn	1.254600	0.147276	-0.005738
Zn16	Zn	1.754600	0.647276	0.494262
Zn17	Zn	1.254616	0.147277	-0.304798
Zn18	Zn	1.754616	0.647277	0.195202
O19	O	1.261344	0.298208	-0.042619
O20	O	1.761344	0.798208	0.457381
C21	C	1.063386	0.154020	-0.131605
C22	C	1.563386	0.654020	0.368395
C23	C	0.946613	0.151471	-0.117154
C24	C	1.446613	0.651471	0.382846
C25	C	1.243310	-0.042295	-0.153862
C26	C	1.743310	0.457705	0.346138
C27	C	1.229724	-0.157431	-0.152183
C28	C	1.729724	0.342569	0.347817
C29	C	0.782020	0.147879	0.026935
C30	C	1.282020	0.647879	0.526935
C31	C	0.891739	0.150274	0.013363
C32	C	1.391739	0.650274	0.513363
C33	C	0.891760	0.150276	-0.234108
C34	C	1.391760	0.650276	0.265892
C35	C	0.782042	0.147880	-0.220536
C36	C	1.282042	0.647880	0.279464
C37	C	0.727175	0.146681	-0.090011
C38	C	1.227175	0.646681	0.409989
C39	C	0.617455	0.144278	-0.076440
C40	C	1.117455	0.644278	0.423560
C41	C	0.617478	0.144286	-0.323910
C42	C	1.117478	0.644286	0.176090
C43	C	0.727197	0.146682	-0.337482
C44	C	1.227197	0.646682	0.162518
C45	C	1.393054	-0.397685	-0.172424
C46	C	1.893054	0.102315	0.327576
C47	C	1.380293	-0.505866	-0.170847
C48	C	1.880293	-0.005866	0.329153
C49	C	1.191443	-0.481976	-0.147463
C50	C	1.691443	0.018024	0.352537
C51	C	1.204204	-0.373795	-0.149040
C52	C	1.704204	0.126205	0.350960
C53	C	1.305012	-0.331654	-0.161518
C54	C	1.805012	0.168346	0.338482
C55	C	1.317772	-0.223471	-0.163085
C56	C	1.817772	0.276529	0.336915
C57	C	1.128923	-0.199583	-0.139711
C58	C	1.628923	0.300417	0.360289
C59	C	1.116162	-0.307764	-0.138134
C60	C	1.616162	0.192236	0.361866
C61	C	1.445830	0.140534	-0.178935
C62	C	1.945830	0.640534	0.321065
C63	C	1.562603	0.143082	-0.193394
C64	C	2.062603	0.643082	0.306606
C65	C	1.265905	0.336849	-0.156677
C66	C	1.765905	0.836849	0.343323
C67	C	1.279491	0.451985	-0.158365
C68	C	1.779491	0.951985	0.341635
N69	N	1.254597	0.147276	0.198362
N70	N	1.754597	0.647276	0.698362
N71	N	1.254626	0.147270	-0.508900
N72	N	1.754626	0.647270	-0.008900
C73	C	1.315573	0.080423	0.258597
C74	C	1.815573	0.580423	0.758597
C75	C	1.315590	0.080419	0.415758
C76	C	1.815590	0.580419	0.915758
H77	H	0.572784	0.143308	0.029840
H78	H	1.072784	0.643308	0.529840
H79	H	1.367799	0.023187	0.467585
H80	H	1.867799	0.523187	0.967585
H81	H	1.399855	-0.189162	-0.173241
H82	H	1.899855	0.310838	0.326759
H83	H	0.737347	0.146908	0.133214
H84	H	1.237347	0.646908	0.633214
H85	H	1.202423	0.204512	0.439281
H86	H	1.702423	0.704512	0.939281
H87	H	0.936389	0.151254	0.108593
H88	H	1.436389	0.651254	0.608593
C89	C	1.032071	-0.126939	-0.127713
C90	C	1.532071	0.373061	0.372287
N91	N	0.959124	-0.072222	-0.118673
N92	N	1.459124	0.427778	0.381327
H93	H	1.367762	0.023185	0.193819
H94	H	1.867762	0.523185	0.693819
H95	H	0.572812	0.143314	-0.419136
H96	H	1.072812	0.643314	0.080864
H97	H	1.475136	-0.363373	-0.182571
H98	H	1.975136	0.136627	0.317429
H99	H	1.034087	-0.342090	-0.127980
H100	H	1.534087	0.157910	0.372020
C101	C	1.184080	0.224593	0.285874
C102	C	1.684080	0.724593	0.785874
N103	N	1.130965	0.282831	0.351786
N104	N	1.630965	0.782831	0.851786
H105	H	0.936451	0.151262	-0.340376
H106	H	1.436451	0.651262	0.159624
C107	C	1.080562	-0.528351	-0.133724
C108	C	1.580562	-0.028351	0.366276
N109	N	0.997046	-0.563282	-0.123366
N110	N	1.497046	-0.063282	0.376634
H111	H	0.771884	0.147663	-0.443752
H112	H	1.271884	0.647663	0.056248
C113	C	1.477147	-0.578497	-0.182834
C114	C	1.977147	-0.078497	0.317166
N115	N	1.550101	-0.633204	-0.191862
N116	N	2.050101	-0.133204	0.308138
