data_functionalizedCrystal
_audit_creation_method	'MofGen! by Chris Wilmer'
_symmetry_space_group_name_H-M	'P1'
_symmetry_Int_Tables_number	1
_symmetry_cell_setting	triclinic
loop_
_symmetry_equiv_pos_as_xyz
  x,y,z
_cell_length_a	11.792241
_cell_length_b	10.723024
_cell_length_c	9.798715
_cell_angle_alpha	90.003391
_cell_angle_beta	89.996704
_cell_angle_gamma	95.669357
loop_
_atom_site_label
_atom_site_type_symbol
_atom_site_fract_x
_atom_site_fract_y
_atom_site_fract_z
O1	O	0.159192	-1.656766	-0.113483
O2	O	0.492526	-1.323433	0.219851
O3	O	0.825859	-0.990099	0.553184
O4	O	0.174430	-1.293573	-0.113488
O5	O	0.507763	-0.960240	0.219846
O6	O	0.841097	-0.626907	0.553179
O7	O	0.001660	-1.483983	-0.113475
O8	O	0.334993	-1.150650	0.219858
O9	O	0.668327	-0.817317	0.553191
O10	O	0.331962	-1.466356	-0.113495
O11	O	0.665296	-1.133023	0.219838
O12	O	0.998629	-0.799689	0.553172
O13	O	0.001659	-1.483969	0.113507
O14	O	0.334993	-1.150636	0.446840
O15	O	0.668326	-0.817302	0.780173
O16	O	0.174430	-1.293559	0.113495
O17	O	0.507763	-0.960226	0.446828
O18	O	0.841096	-0.626892	0.780161
O19	O	0.159192	-1.656752	0.113499
O20	O	0.492525	-1.323419	0.446833
O21	O	0.825858	-0.990085	0.780166
Zn22	Zn	0.166811	-1.475153	0.149535
Zn23	Zn	0.500144	-1.141820	0.482869
Zn24	Zn	0.833477	-0.808487	0.816202
Zn25	Zn	0.166811	-1.475172	-0.149523
Zn26	Zn	0.500144	-1.141839	0.183810
Zn27	Zn	0.833478	-0.808505	0.517143
O28	O	0.331962	-1.466342	0.113487
O29	O	0.665295	-1.133008	0.446821
O30	O	0.998629	-0.799675	0.780154
C31	C	0.173321	-1.247070	0.000003
C32	C	0.506654	-0.913736	0.333336
C33	C	0.839988	-0.580403	0.666670
C34	C	0.170003	-1.108524	0.000001
C35	C	0.503337	-0.775191	0.333335
C36	C	0.836670	-0.441857	0.666668
C37	C	-0.040634	-1.482869	0.000015
C38	C	0.292700	-1.149536	0.333348
C39	C	0.626033	-0.816202	0.666682
C40	C	-0.166655	-1.479555	0.000014
C41	C	0.166679	-1.146221	0.333347
C42	C	0.500012	-0.812888	0.666680
N43	N	0.166809	-1.475150	0.353635
N44	N	0.500143	-1.141816	0.686968
N45	N	0.833476	-0.808483	1.020302
C46	C	-0.397380	-1.473461	-0.000009
C47	C	-0.064047	-1.140127	0.333324
C48	C	0.269286	-0.806794	0.666658
C49	C	-0.268988	-1.476847	0.000003
C50	C	0.064346	-1.143513	0.333337
C51	C	0.397679	-0.810180	0.666670
C52	C	0.374255	-1.467456	-0.000006
C53	C	0.707589	-1.134123	0.333327
C54	C	1.040922	-0.800790	0.666660
C55	C	0.500276	-1.470770	-0.000014
C56	C	0.833610	-1.137437	0.333319
C57	C	1.166943	-0.804104	0.666653
C58	C	0.160301	-1.703256	0.000006
C59	C	0.493634	-1.369922	0.333339
C60	C	0.826967	-1.036589	0.666672
C61	C	0.163619	-1.841801	-0.000002
C62	C	0.496952	-1.508468	0.333332
C63	C	0.830285	-1.175134	0.666665
C64	C	0.266676	-1.033286	-0.000005
C65	C	0.600010	-0.699952	0.333328
C66	C	0.933343	-0.366619	0.666662
C67	C	0.263249	-0.890091	-0.000007
C68	C	0.596583	-0.556758	0.333327
C69	C	0.929916	-0.223425	0.666660
N70	N	0.166803	-1.475186	-0.353623
N71	N	0.500137	-1.141852	-0.020290
N72	N	0.833470	-0.808519	0.313043
C73	C	0.093948	-1.555098	0.421417
C74	C	0.427282	-1.221765	0.754750
C75	C	0.760615	-0.888432	1.088084
C76	C	0.093944	-1.555118	0.578580
C77	C	0.427278	-1.221785	0.911913
C78	C	0.760611	-0.888452	1.245246
H79	H	0.351978	-1.074882	-0.000002
H80	H	0.685312	-0.741549	0.333331
H81	H	1.018645	-0.408215	0.666664
H82	H	0.346009	-0.825440	-0.000018
H83	H	0.679342	-0.492106	0.333316
H84	H	1.012676	-0.158773	0.666649
Cl85	Cl	0.263113	-1.369483	0.443667
Cl86	Cl	0.596446	-1.036150	0.777001
Cl87	Cl	0.929779	-0.702816	1.110334
H88	H	0.229190	-1.406739	0.588096
H89	H	0.562523	-1.073406	0.921429
H90	H	0.895857	-0.740072	1.254763
Cl91	Cl	-0.002617	-1.660475	0.331385
Cl92	Cl	0.330717	-1.327141	0.664719
Cl93	Cl	0.664050	-0.993808	0.998052
H94	H	0.080854	-0.906445	-0.000005
H95	H	0.414188	-0.573112	0.333329
H96	H	0.747521	-0.239779	0.666662
Cl97	Cl	0.038296	-1.044314	0.000019
Cl98	Cl	0.371629	-0.710981	0.333352
Cl99	Cl	0.704963	-0.377647	0.666686
H100	H	0.031569	-1.623571	0.636869
H101	H	0.364902	-1.290237	0.970203
H102	H	0.698236	-0.956904	1.303536
