data_functionalizedCrystal
_audit_creation_method	'MofGen! by Chris Wilmer'
_symmetry_space_group_name_H-M	'P1'
_symmetry_Int_Tables_number	1
_symmetry_cell_setting	triclinic
loop_
_symmetry_equiv_pos_as_xyz
  x,y,z
_cell_length_a	15.995350
_cell_length_b	15.995350
_cell_length_c	15.072220
_cell_angle_alpha	90.008851
_cell_angle_beta	90.001101
_cell_angle_gamma	96.507625
loop_
_atom_site_label
_atom_site_type_symbol
_atom_site_fract_x
_atom_site_fract_y
_atom_site_fract_z
O1	O	0.107921	-1.110996	-0.073703
O2	O	0.607921	-0.610996	0.426297
O3	O	0.121249	-0.867221	-0.073721
O4	O	0.621249	-0.367221	0.426279
O5	O	-0.007303	-0.995772	-0.073710
O6	O	0.492697	-0.495772	0.426290
O7	O	0.236472	-0.982444	-0.073713
O8	O	0.736472	-0.482444	0.426287
O9	O	-0.007296	-0.995740	0.073855
O10	O	0.492704	-0.495740	0.573855
O11	O	0.121256	-0.867189	0.073844
O12	O	0.621256	-0.367189	0.573844
O13	O	0.107928	-1.110964	0.073862
O14	O	0.607928	-0.610964	0.573862
Zn15	Zn	0.114593	-0.989071	0.097283
Zn16	Zn	0.614593	-0.489071	0.597283
Zn17	Zn	0.114584	-0.989113	-0.097141
Zn18	Zn	0.614584	-0.489113	0.402859
O19	O	0.236480	-0.982413	0.073852
O20	O	0.736480	-0.482413	0.573852
C21	C	0.120701	-0.836010	0.000060
C22	C	0.620701	-0.336010	0.500060
C23	C	0.119049	-0.743060	0.000053
C24	C	0.619049	-0.243060	0.500053
C25	C	-0.038494	-0.995205	0.000070
C26	C	0.461506	-0.495205	0.500070
C27	C	-0.131444	-0.993553	0.000065
C28	C	0.368556	-0.493553	0.500065
C29	C	0.108476	-1.142175	0.000080
C30	C	0.608476	-0.642175	0.500080
C31	C	0.110127	-1.235125	0.000081
C32	C	0.610127	-0.735125	0.500081
C33	C	-0.469192	-0.987621	0.000068
C34	C	0.030808	-0.487621	0.500068
C35	C	-0.421758	-0.896069	-0.000270
C36	C	0.078242	-0.396069	0.499730
C37	C	-0.325068	-0.897721	0.000063
C38	C	0.174932	-0.397721	0.500063
C39	C	-0.301631	-0.990564	0.000066
C40	C	0.198369	-0.490564	0.500066
C41	C	-0.342705	-1.035702	0.084335
C42	C	0.157295	-0.535702	0.584335
C43	C	-0.439341	-1.033402	0.084405
C44	C	0.060659	-0.533402	0.584405
C45	C	-0.439707	-1.035330	-0.083404
C46	C	0.060293	-0.535330	0.416596
C47	C	-0.342761	-1.035308	-0.084518
C48	C	0.157239	-0.535308	0.415482
C49	C	-0.206934	-0.992231	0.000068
C50	C	0.293066	-0.492231	0.500068
C51	C	-0.563890	-0.985956	0.000072
C52	C	-0.063890	-0.485956	0.500072
C53	C	0.267671	-0.982980	0.000069
C54	C	0.767671	-0.482980	0.500069
C55	C	0.360621	-0.984631	0.000069
C56	C	0.860621	-0.484631	0.500069
N57	N	0.114599	-0.989049	0.229971
N58	N	0.614599	-0.489049	0.729971
C59	C	0.113117	-0.405312	0.000071
C60	C	0.613117	0.094688	0.500071
C61	C	0.021565	-0.452746	0.000401
C62	C	0.521565	0.047254	0.500401
C63	C	0.023217	-0.549436	0.000063
C64	C	0.523217	-0.049436	0.500063
C65	C	0.116060	-0.572873	0.000063
C66	C	0.616060	-0.072873	0.500063
C67	C	0.161212	-0.531804	-0.084201
C68	C	0.661212	-0.031804	0.415799
C69	C	0.158912	-0.435168	-0.084266
C70	C	0.658912	0.064832	0.415734
C71	C	0.160812	-0.434793	0.083543
C72	C	0.660812	0.065207	0.583543
C73	C	0.160790	-0.531738	0.084651
C74	C	0.660790	-0.031738	0.584651
C75	C	0.117727	-0.667570	0.000055
C76	C	0.617727	-0.167570	0.500055
C77	C	0.111452	-0.310614	0.000073
C78	C	0.611452	0.189386	0.500073
N79	N	0.114571	-0.989142	-0.229830
N80	N	0.614571	-0.489142	0.270170
C81	C	0.114580	-0.989112	0.589173
C82	C	0.614580	-0.489112	1.089173
C83	C	0.183135	-0.920095	0.551560
C84	C	0.683135	-0.420095	1.051560
C85	C	0.183385	-0.920254	0.448735
C86	C	0.683385	-0.420254	0.948735
C87	C	0.114590	-0.989080	0.410969
C88	C	0.614590	-0.489080	0.910969
C89	C	0.133671	-1.076445	0.448266
C90	C	0.633671	-0.576445	0.948266
C91	C	0.134159	-1.076058	0.551124
C92	C	0.634159	-0.576058	1.051124
C93	C	0.026741	-0.971542	0.551272
C94	C	0.526741	-0.471542	1.051272
C95	C	0.027327	-0.969537	0.448409
C96	C	0.527327	-0.469537	0.948409
C97	C	0.114593	-0.989067	0.310255
C98	C	0.614593	-0.489067	0.810255
C99	C	0.114579	-0.989130	0.689886
C100	C	0.614579	-0.489130	1.189886
H101	H	-0.296649	-0.862238	-0.060344
H102	H	0.203351	-0.362238	0.439656
H103	H	0.130885	-0.414244	0.147414
H104	H	0.630885	0.085756	0.647414
H105	H	-0.457639	-1.000460	0.147395
H106	H	0.042361	-0.500460	0.647395
H107	H	0.228312	-0.403031	0.084113
H108	H	0.728312	0.096969	0.584113
C109	C	0.116263	-0.568614	0.168867
C110	C	0.616263	-0.068614	0.668867
H111	H	0.070605	-0.608914	0.152555
H112	H	0.570605	-0.108914	0.652555
H113	H	0.095698	-0.524713	0.201961
H114	H	0.595698	-0.024713	0.701961
H115	H	0.155019	-0.594986	0.204033
H116	H	0.655019	-0.094986	0.704033
C117	C	0.219224	-1.097867	0.413463
C118	C	0.719224	-0.597867	0.913463
H119	H	0.230207	-1.150855	0.436401
H120	H	0.730207	-0.650855	0.936401
H121	H	0.262311	-1.055718	0.432019
H122	H	0.762311	-0.555718	0.932019
H123	H	0.217926	-1.100258	0.350493
H124	H	0.717926	-0.600258	0.850493
C125	C	-0.446790	-0.846645	-0.081903
C126	C	0.053210	-0.346645	0.418097
H127	H	-0.417477	-0.791568	-0.080868
H128	H	0.082523	-0.291568	0.419132
H129	H	-0.505669	-0.843139	-0.080788
H130	H	-0.005669	-0.343139	0.419212
H131	H	-0.432654	-0.874732	-0.134423
H132	H	0.067346	-0.374732	0.365577
H133	H	0.198219	-1.091540	0.575106
H134	H	0.698219	-0.591540	1.075106
H135	H	0.228494	-0.547102	0.089741
H136	H	0.728494	-0.047102	0.589741
C137	C	-0.482618	-1.126513	-0.084175
C138	C	0.017382	-0.626513	0.415825
H139	H	-0.518334	-1.135499	-0.033905
H140	H	-0.018334	-0.635499	0.466095
H141	H	-0.440956	-1.164340	-0.082326
H142	H	0.059044	-0.664340	0.417674
H143	H	-0.515057	-1.135944	-0.136767
H144	H	-0.015057	-0.635944	0.363233
H145	H	0.171953	-0.854945	0.576317
H146	H	0.671953	-0.354945	1.076317
H147	H	-0.471588	-1.100617	0.088231
H148	H	0.028412	-0.600617	0.588231
H149	H	-0.297200	-0.861974	0.060568
H150	H	0.202800	-0.361974	0.560568
H151	H	0.085068	-1.129029	0.423801
H152	H	0.585068	-0.629029	0.923801
H153	H	-0.328579	-1.103910	0.087471
H154	H	0.171421	-0.603910	0.587471
C155	C	0.168043	-0.832523	0.414666
C156	C	0.668043	-0.332523	0.914666
H157	H	0.161605	-0.796464	0.463689
H158	H	0.661605	-0.296464	0.963689
H159	H	0.118431	-0.837117	0.379529
H160	H	0.618431	-0.337117	0.879529
H161	H	0.214646	-0.809855	0.379774
H162	H	0.714646	-0.309855	0.879774
C163	C	-0.304375	-0.993310	0.169049
C164	C	0.195625	-0.493310	0.669049
H165	H	-0.263352	-0.948109	0.153244
H166	H	0.236648	-0.448109	0.653244
H167	H	-0.278635	-1.033289	0.203148
H168	H	0.221365	-0.533289	0.703148
H169	H	-0.347498	-0.972357	0.203012
H170	H	0.152502	-0.472357	0.703012
H171	H	-0.460250	-1.005411	-0.147274
H172	H	0.039750	-0.505411	0.352726
C173	C	-0.305885	-0.990792	-0.168738
C174	C	0.194115	-0.490792	0.331262
H175	H	-0.265587	-0.945130	-0.152430
H176	H	0.234413	-0.445130	0.347570
H177	H	-0.349787	-0.970233	-0.201827
H178	H	0.150213	-0.470233	0.298173
H179	H	-0.279511	-1.029551	-0.203907
H180	H	0.220489	-0.529551	0.296093
H181	H	-0.327400	-1.103014	-0.089603
H182	H	0.172600	-0.603014	0.410397
C183	C	-0.448211	-0.846837	0.080908
C184	C	0.051789	-0.346837	0.580908
H185	H	-0.488036	-0.881835	0.115007
H186	H	0.011964	-0.381835	0.615007
H187	H	-0.472757	-0.798643	0.061533
H188	H	0.027243	-0.298643	0.561533
H189	H	-0.400157	-0.829675	0.116279
H190	H	0.099843	-0.329675	0.616279
C191	C	0.270700	-0.935041	0.586457
C192	C	0.770700	-0.435041	1.086457
H193	H	0.265661	-0.983160	0.623846
H194	H	0.765661	-0.483160	1.123846
H195	H	0.294013	-0.887244	0.619200
H196	H	0.794013	-0.387244	1.119200
H197	H	0.306444	-0.943957	0.537846
H198	H	0.806444	-0.443957	1.037846
C199	C	0.007761	-0.882719	0.415484
C200	C	0.507761	-0.382719	0.915484
H201	H	0.052577	-0.858478	0.379068
H202	H	0.552577	-0.358478	0.879068
H203	H	0.001592	-0.847103	0.464933
H204	H	0.501592	-0.347103	0.964933
H205	H	-0.042953	-0.889019	0.382120
H206	H	0.457047	-0.389019	0.882120
C207	C	-0.027655	-0.426293	-0.080775
C208	C	0.472345	0.073707	0.419225
H209	H	0.007348	-0.386470	-0.114868
H210	H	0.507348	0.113530	0.385132
H211	H	-0.075851	-0.401747	-0.061396
H212	H	0.424149	0.098253	0.438604
H213	H	-0.044813	-0.474348	-0.116151
H214	H	0.455187	0.025652	0.383849
C215	C	0.271440	-0.935414	0.415477
C216	C	0.771440	-0.435414	0.915477
H217	H	0.307196	-0.941508	0.464830
H218	H	0.807196	-0.441508	0.964830
H219	H	0.294189	-0.888915	0.380495
H220	H	0.794189	-0.388915	0.880495
H221	H	0.267261	-0.985188	0.380599
H222	H	0.767261	-0.485188	0.880599
C223	C	0.069272	-1.147515	0.584739
C224	C	0.569272	-0.647515	1.084739
H225	H	0.042737	-1.176657	0.535530
H226	H	0.542737	-0.676657	1.035530
H227	H	0.028127	-1.124493	0.619768
H228	H	0.528127	-0.624493	1.119768
H229	H	0.096931	-1.185491	0.619645
H230	H	0.596931	-0.685491	1.119645
H231	H	-0.012275	-0.577852	0.060467
H232	H	0.487725	-0.077852	0.560467
H233	H	0.129845	-0.560191	-0.146912
H234	H	0.629845	-0.060191	0.353088
C235	C	-0.042184	-1.039521	0.584136
C236	C	0.457816	-0.539521	1.084136
H237	H	-0.095114	-1.028571	0.561012
H238	H	0.404886	-0.528571	1.061012
H239	H	-0.044091	-1.038701	0.647119
H240	H	0.455909	-0.538701	1.147119
H241	H	-0.029868	-1.093234	0.564537
H242	H	0.470132	-0.593234	1.064537
H243	H	0.008392	-0.909219	0.577258
H244	H	0.508392	-0.409219	1.077258
C245	C	-0.027871	-0.427703	0.082032
C246	C	0.472129	0.072297	0.582032
H247	H	0.006876	-0.388090	0.116643
H248	H	0.506876	0.111910	0.616643
H249	H	-0.044703	-0.476278	0.116728
H250	H	0.455297	0.023722	0.616728
H251	H	-0.076280	-0.403269	0.063085
H252	H	0.423720	0.096731	0.563085
H253	H	-0.026078	-1.016540	0.422704
H254	H	0.473922	-0.516540	0.922704
C255	C	-0.025046	-0.587096	-0.081684
C256	C	0.474954	-0.087096	0.418316
H257	H	-0.024205	-0.646388	-0.082168
H258	H	0.475795	-0.146388	0.417832
H259	H	0.000922	-0.563616	-0.134096
H260	H	0.500922	-0.063616	0.365904
H261	H	-0.081640	-0.574528	-0.079215
H262	H	0.418360	-0.074528	0.420785
C263	C	0.114417	-0.410449	-0.169352
C264	C	0.614417	0.089551	0.330648
H265	H	0.097910	-0.459445	-0.203550
H266	H	0.597910	0.040555	0.296450
H267	H	0.151823	-0.372482	-0.203041
H268	H	0.651823	0.127518	0.296959
H269	H	0.066051	-0.384185	-0.153952
H270	H	0.566051	0.115815	0.346048
H271	H	0.226128	-0.402920	-0.088090
H272	H	0.726128	0.097080	0.411910
C273	C	0.253353	-0.550889	-0.088445
C274	C	0.753353	-0.050889	0.411555
H275	H	0.265131	-0.584157	-0.038748
H276	H	0.765131	-0.084157	0.461252
H277	H	0.289659	-0.499603	-0.087661
H278	H	0.789659	0.000397	0.412339
H279	H	0.262109	-0.580702	-0.141542
H280	H	0.762109	-0.080702	0.358458
