data_functionalizedCrystal
_audit_creation_method	'MofGen! by Chris Wilmer'
_symmetry_space_group_name_H-M	'P1'
_symmetry_Int_Tables_number	1
_symmetry_cell_setting	triclinic
loop_
_symmetry_equiv_pos_as_xyz
  x,y,z
_cell_length_a	11.792241
_cell_length_b	14.519731
_cell_length_c	10.868271
_cell_angle_alpha	89.994076
_cell_angle_beta	90.000103
_cell_angle_gamma	96.058865
loop_
_atom_site_label
_atom_site_type_symbol
_atom_site_fract_x
_atom_site_fract_y
_atom_site_fract_z
O1	O	-1.506221	0.126403	-0.102187
O2	O	-1.175809	0.139430	-0.102220
O3	O	-1.349762	-0.001289	-0.102192
O4	O	-1.332267	0.267122	-0.102216
O5	O	-1.349746	-0.001294	0.102453
O6	O	-1.175792	0.139425	0.102424
O7	O	-1.506204	0.126398	0.102457
Zn8	Zn	-1.340995	0.132911	0.134933
Zn9	Zn	-1.341017	0.132917	-0.134696
O10	O	-1.332250	0.267117	0.102429
C11	C	-1.133514	0.138609	0.000098
C12	C	-1.007513	0.136160	0.000086
C13	C	-1.348934	-0.035654	0.000131
C14	C	-1.346478	-0.138043	0.000131
C15	C	-0.776826	0.131656	0.000119
C16	C	-0.905197	0.134159	0.000100
C17	C	-1.344482	-0.221194	0.000128
C18	C	-1.341988	-0.325512	0.000119
C19	C	-1.340008	-0.408658	0.000110
C20	C	-1.337514	-0.512983	0.000103
C21	C	-0.548499	0.127219	0.000133
C22	C	-0.674499	0.129668	0.000128
C23	C	-1.333078	0.301482	0.000104
C24	C	-1.335535	0.403871	0.000095
N25	N	-1.340989	0.132906	0.318947
C26	C	-1.341004	0.132918	0.569953
C27	C	-1.340992	0.132914	0.430275
N28	N	-1.341022	0.132918	0.681290
