data_functionalizedCrystal
_audit_creation_method	'MofGen! by Chris Wilmer'
_symmetry_space_group_name_H-M	'P1'
_symmetry_Int_Tables_number	1
_symmetry_cell_setting	triclinic
loop_
_symmetry_equiv_pos_as_xyz
  x,y,z
_cell_length_a	15.995350
_cell_length_b	14.044220
_cell_length_c	12.503572
_cell_angle_alpha	93.843168
_cell_angle_beta	86.485305
_cell_angle_gamma	88.340626
loop_
_atom_site_label
_atom_site_type_symbol
_atom_site_fract_x
_atom_site_fract_y
_atom_site_fract_z
O1	O	-1.124525	-0.116702	0.089231
O2	O	-0.881878	-0.131788	0.089254
O3	O	-0.999559	0.013739	0.089232
O4	O	-1.006844	-0.262229	0.089253
O5	O	-0.990710	0.002777	-0.089408
O6	O	-0.873029	-0.142751	-0.089386
O7	O	-1.115676	-0.127664	-0.089409
Cu8	Cu	-0.993545	-0.136208	-0.105709
Cu9	Cu	-1.004010	-0.123244	0.105554
O10	O	-0.997995	-0.273191	-0.089387
C11	C	-0.991946	0.043572	-0.000088
C12	C	-0.982435	0.148798	-0.000088
C13	C	-0.846212	-0.136645	-0.000064
C14	C	-0.753123	-0.134775	-0.000055
C15	C	-1.151342	-0.122807	-0.000089
C16	C	-1.244432	-0.124677	-0.000090
C17	C	-0.414873	-0.128061	-0.000078
C18	C	-0.454546	-0.024443	-0.000484
C19	C	-0.551396	-0.026288	-0.000074
C20	C	-0.582682	-0.131391	-0.000067
C21	C	-0.550467	-0.176251	0.101944
C22	C	-0.453640	-0.173643	0.102022
C23	C	-0.443398	-0.188250	-0.101125
C24	C	-0.540276	-0.188308	-0.102466
C25	C	-0.677521	-0.133279	-0.000058
C26	C	-0.320034	-0.126176	-0.000081
C27	C	-1.005609	-0.303024	-0.000065
C28	C	-1.015120	-0.408250	-0.000057
N29	N	-0.986190	-0.145326	-0.254300
C30	C	-0.965048	0.341460	-0.000071
C31	C	-1.032504	0.399093	-0.000074
C32	C	-1.022829	0.506297	-0.000065
C33	C	-0.974721	0.234246	-0.000081
C34	C	-0.975372	-0.158747	-0.473413
C35	C	-1.022186	-0.100701	-0.526749
C36	C	-1.016166	-0.108168	-0.648671
C37	C	-0.981391	-0.151281	-0.351480
N38	N	-1.011370	-0.114118	0.254145
H39	H	-0.429305	0.012496	-0.073642
O40	O	-0.585496	-0.128341	0.192595
C41	C	-0.561627	-0.035128	0.356132
C42	C	-0.521845	-0.089372	0.253528
H43	H	-0.510185	-0.003590	0.405414
H44	H	-0.598988	-0.086405	0.405731
H45	H	-0.605174	0.024829	0.333166
H46	H	-0.478261	-0.149328	0.276398
H47	H	-0.484535	-0.038034	0.203956
O48	O	-1.075290	-0.034520	-0.472153
C49	C	-1.113414	0.132479	-0.437900
C50	C	-1.053212	0.057587	-0.499708
H51	H	-1.095596	0.206963	-0.460172
H52	H	-1.108923	0.127040	-0.347856
H53	H	-1.180339	0.118863	-0.459970
H54	H	-0.986261	0.071154	-0.477729
H55	H	-1.057776	0.063044	-0.589737
H56	H	-0.900036	0.372630	-0.000063
O57	O	-0.922244	-0.224701	-0.528333
C58	C	-0.867678	-0.292308	-0.701703
C59	C	-0.927889	-0.217586	-0.639624
H60	H	-0.872209	-0.286567	-0.791692
H61	H	-0.885446	-0.366895	-0.679745
H62	H	-0.800750	-0.278733	-0.679616
H63	H	-0.994836	-0.231071	-0.661677
H64	H	-0.910049	-0.143023	-0.661587
H65	H	-0.579860	0.018662	0.073174
H66	H	-0.435475	0.021259	0.072263
O67	O	-0.577383	0.016460	-0.087223
C68	C	-0.581273	0.160100	-0.182197
C69	C	-0.551818	0.111804	-0.083439
H70	H	-0.560600	0.237187	-0.179182
H71	H	-0.652513	0.158913	-0.182082
H72	H	-0.552458	0.119921	-0.258488
H73	H	-0.580571	0.151944	-0.007096
H74	H	-0.480573	0.112979	-0.083649
O75	O	-0.432932	-0.123733	0.193059
C76	C	-0.360802	-0.126278	0.356526
C77	C	-0.384204	-0.182919	0.253481
H78	H	-0.321388	-0.174100	0.405395
H79	H	-0.420342	-0.100838	0.406293
H80	H	-0.323302	-0.061929	0.334131
H81	H	-0.421683	-0.247307	0.275779
H82	H	-0.324632	-0.208286	0.203741
O83	O	-0.422357	-0.264128	0.107620
C84	C	-0.453248	-0.430337	0.117548
C85	C	-0.488783	-0.327913	0.111223
H86	H	-0.506934	-0.481938	0.120440
H87	H	-0.417173	-0.434382	0.193058
H88	H	-0.409316	-0.450525	0.043745
H89	H	-0.532749	-0.307659	0.184971
H90	H	-0.524809	-0.323923	0.035667
H91	H	-0.570547	-0.253235	0.105743
H92	H	-0.561067	-0.155622	-0.177934
O93	O	-0.411514	-0.153523	-0.193491
C94	C	-0.441534	-0.086049	-0.359682
C95	C	-0.477718	-0.125373	-0.255116
H96	H	-0.495043	-0.063261	-0.409525
H97	H	-0.400753	-0.143864	-0.407579
H98	H	-0.402009	-0.021843	-0.339314
H99	H	-0.517281	-0.189565	-0.275388
H100	H	-0.518452	-0.067500	-0.207248
O101	O	-0.565156	-0.280160	-0.109960
C102	C	-0.632866	-0.401992	-0.215014
C103	C	-0.604750	-0.297942	-0.206664
H104	H	-0.664868	-0.416407	-0.293204
H105	H	-0.678655	-0.414198	-0.144116
H106	H	-0.575827	-0.452426	-0.213932
H107	H	-0.661737	-0.247442	-0.207776
H108	H	-0.558933	-0.285815	-0.277558
O109	O	-0.412371	-0.279513	-0.102091
C110	C	-0.403026	-0.436196	-0.194018
C111	C	-0.438238	-0.332888	-0.193053
H112	H	-0.423911	-0.479374	-0.267565
H113	H	-0.427385	-0.469748	-0.118120
H114	H	-0.331655	-0.435926	-0.197116
H115	H	-0.509609	-0.333073	-0.189993
H116	H	-0.413815	-0.299378	-0.268947
H117	H	-1.097524	0.367926	-0.000008
