data_functionalizedCrystal
_audit_creation_method	'MofGen! by Chris Wilmer'
_symmetry_space_group_name_H-M	'P1'
_symmetry_Int_Tables_number	1
_symmetry_cell_setting	triclinic
loop_
_symmetry_equiv_pos_as_xyz
  x,y,z
_cell_length_a	12.759401
_cell_length_b	29.839131
_cell_length_c	29.839125
_cell_angle_alpha	89.982291
_cell_angle_beta	89.990937
_cell_angle_gamma	90.041581
loop_
_atom_site_label
_atom_site_type_symbol
_atom_site_fract_x
_atom_site_fract_y
_atom_site_fract_z
Zn1	Zn	1.605962	-0.178914	-0.253970
Zn2	Zn	1.605804	-0.254026	-0.178840
Zn3	Zn	1.430293	-0.178911	-0.178857
Zn4	Zn	1.430171	-0.254018	-0.253946
O5	O	1.518058	-0.216468	-0.216403
O6	O	1.752962	-0.188883	-0.244008
O7	O	1.582507	-0.244064	-0.115975
O8	O	1.453714	-0.116045	-0.188838
O9	O	1.752846	-0.244067	-0.188810
O10	O	1.582777	-0.116047	-0.244024
O11	O	1.453560	-0.188878	-0.115987
O12	O	1.283256	-0.188870	-0.188814
O13	O	1.453505	-0.244053	-0.316816
O14	O	1.283166	-0.244051	-0.243981
O15	O	1.582659	-0.188875	-0.316834
O16	O	1.582388	-0.316893	-0.188786
O17	O	1.453352	-0.316887	-0.243965
C18	C	1.245090	-0.216459	-0.216397
C19	C	1.128314	-0.216467	-0.216405
C20	C	1.073432	-0.245245	-0.245083
C21	C	0.963708	-0.245251	-0.245088
C22	C	0.963756	-0.187698	-0.187733
C23	C	1.073479	-0.187691	-0.187731
C24	C	1.073404	-0.278474	-0.278196
C25	C	0.963680	-0.278480	-0.278200
C26	C	1.517868	-0.333190	-0.216381
C27	C	1.517883	-0.383125	-0.216386
C28	C	1.585369	-0.692758	-0.187713
C29	C	1.585499	-0.880432	-0.187731
O30	O	1.642727	-0.904688	-0.163334
N31	N	1.518275	-0.903910	-0.216437
C32	C	1.451020	-0.880467	-0.245143
O33	O	1.393853	-0.904743	-0.269564
C34	C	1.450896	-0.692795	-0.245128
C35	C	1.518116	-0.669319	-0.216416
C36	C	1.652585	-0.669283	-0.159004
C37	C	1.652548	-0.622367	-0.158998
C38	C	1.585295	-0.598928	-0.187702
C39	C	1.518079	-0.622403	-0.216410
C40	C	1.383647	-0.669352	-0.273836
C41	C	1.383624	-0.622431	-0.273830
C42	C	1.450844	-0.598956	-0.245119
C43	C	1.450789	-0.552048	-0.245108
N44	N	1.518013	-0.528570	-0.216401
C45	C	1.585265	-0.552010	-0.187698
C46	C	1.451088	-0.978997	-0.245149
C47	C	1.451117	-1.025915	-0.245152
C48	C	1.585598	-1.025877	-0.187740
C49	C	1.585563	-0.978958	-0.187735
C50	C	1.518311	-0.955519	-0.216442
C51	C	1.585182	-0.453484	-0.187688
C52	C	1.585136	-0.406564	-0.187683
C53	C	1.450659	-0.406607	-0.245097
C54	C	1.450701	-0.453522	-0.245100
C55	C	1.517971	-0.476960	-0.216394
O56	O	1.393599	-0.527763	-0.269495
O57	O	1.642440	-0.527726	-0.163289
C58	C	1.585406	-0.739674	-0.187719
C59	C	1.518191	-0.763150	-0.216428
C60	C	1.450938	-0.739710	-0.245131
C61	C	1.518220	-0.810068	-0.216431
C62	C	1.585473	-0.833507	-0.187728
C63	C	1.652696	-0.810029	-0.159022
C64	C	1.652659	-0.763114	-0.159016
C65	C	1.383715	-0.763188	-0.273837
C66	C	1.383756	-0.810104	-0.273840
C67	C	1.451009	-0.833543	-0.245137
C68	C	1.792091	-0.216476	-0.216410
C69	C	1.908868	-0.216480	-0.216412
C70	C	1.518086	-0.216464	-0.333582
C71	C	1.518098	-0.216462	-0.383516
C72	C	1.518277	-0.099289	-0.216435
C73	C	1.518370	-0.049355	-0.216449
C74	C	1.585419	-0.187655	-0.693172
C75	C	1.585471	-0.187617	-0.880845
O76	O	1.642631	-0.163167	-0.905121
N77	N	1.518238	-0.216342	-0.904301
C78	C	1.450981	-0.245076	-0.880836
O79	O	1.393789	-0.269504	-0.905094
C80	C	1.450925	-0.245112	-0.693164
C81	C	1.518170	-0.216388	-0.669710
C82	C	1.652658	-0.158934	-0.669718
C83	C	1.652648	-0.158945	-0.622803
C84	C	1.585400	-0.187678	-0.599341
C85	C	1.518160	-0.216400	-0.622795
C86	C	1.383664	-0.273843	-0.669700
C87	C	1.383654	-0.273849	-0.622779
C88	C	1.450899	-0.245125	-0.599325
C89	C	1.450902	-0.245144	-0.552418
N90	N	1.518135	-0.216420	-0.528961
C91	C	1.585384	-0.187687	-0.552423
C92	C	1.451017	-0.245056	-0.979367
C93	C	1.451033	-0.245047	-1.026285
C94	C	1.585521	-0.187588	-1.026290
C95	C	1.585510	-0.187599	-0.979372
C96	C	1.518251	-0.216331	-0.955911
C97	C	1.585360	-0.187713	-0.453897
C98	C	1.585347	-0.187729	-0.406978
C99	C	1.450855	-0.245187	-0.406976
C100	C	1.450871	-0.245173	-0.453892
C101	C	1.518127	-0.216433	-0.477351
O102	O	1.393763	-0.269578	-0.528113
O103	O	1.642552	-0.163255	-0.528158
C104	C	1.585429	-0.187644	-0.740087
C105	C	1.518189	-0.216365	-0.763541
C106	C	1.450941	-0.245098	-0.740080
C107	C	1.518205	-0.216357	-0.810459
C108	C	1.585454	-0.187624	-0.833921
C109	C	1.652687	-0.158899	-0.810465
C110	C	1.652677	-0.158911	-0.763549
C111	C	1.383707	-0.273823	-0.763536
C112	C	1.383723	-0.273809	-0.810451
C113	C	1.450972	-0.245076	-0.833913
C114	C	1.518090	-0.216439	-0.099681
C115	C	1.518281	-0.216314	-0.049746
H116	H	0.919096	-0.164269	-0.164387
H117	H	0.933850	-0.313262	-0.268818
H118	H	1.103209	-0.269208	-0.313007
H119	H	1.329008	-0.829214	-0.297220
H120	H	1.118159	-0.164253	-0.164381
H121	H	1.640299	-0.959847	-0.164355
Br122	Br	1.130055	-0.333541	-0.257365
Br123	Br	0.907004	-0.257799	-0.333329
H124	H	1.328861	-0.603350	-0.297209
Br125	Br	1.676367	-0.374707	-0.148714
H126	H	1.640122	-0.164309	-0.472992
H127	H	1.639961	-0.472561	-0.164314
H128	H	1.707405	-0.135555	-0.603711
H129	H	1.707287	-0.603256	-0.135620
Br130	Br	1.676866	-1.057697	-0.148784
H131	H	1.396321	-0.959917	-0.268527
Br132	Br	1.743871	-0.701085	-0.120046
Br133	Br	1.359871	-1.057769	-0.284113
H134	H	1.328904	-0.688458	-0.297214
Br135	Br	1.359448	-0.485383	-0.284055
H136	H	1.396286	-0.268442	-1.045377
H137	H	1.395900	-0.387515	-0.268465
Br138	Br	1.743962	-0.841849	-0.120066
H139	H	1.707396	-0.744003	-0.135636
H140	H	1.396106	-0.268582	-0.387865
H141	H	1.707435	-0.135521	-0.744457
H142	H	1.328951	-0.744107	-0.297211
H143	H	1.640110	-0.164339	-0.387884
Br144	Br	1.676775	-0.148616	-0.947546
H145	H	1.396124	-0.268566	-0.472989
H146	H	1.707420	-0.135534	-0.688816
Br147	Br	1.743958	-0.119907	-0.842315
H148	H	1.640279	-0.164193	-1.045401
H149	H	1.396247	-0.268456	-0.960269
H150	H	1.328905	-0.297233	-0.688788
Br151	Br	1.292461	-0.312799	-0.842275
Br152	Br	1.292364	-0.312843	-0.590942
Br153	Br	1.292429	-0.312820	-0.731702
