data_functionalizedCrystal
_audit_creation_method	'MofGen! by Chris Wilmer'
_symmetry_space_group_name_H-M	'P1'
_symmetry_Int_Tables_number	1
_symmetry_cell_setting	triclinic
loop_
_symmetry_equiv_pos_as_xyz
  x,y,z
_cell_length_a	15.944551
_cell_length_b	17.038272
_cell_length_c	14.421503
_cell_angle_alpha	90.004327
_cell_angle_beta	89.996859
_cell_angle_gamma	87.305147
loop_
_atom_site_label
_atom_site_type_symbol
_atom_site_fract_x
_atom_site_fract_y
_atom_site_fract_z
O1	O	1.121728	0.100827	-0.077015
O2	O	0.878066	0.113259	-0.077039
O3	O	0.998449	-0.006773	-0.077020
O4	O	1.001345	0.220859	-0.077034
O5	O	0.998429	-0.006755	0.077204
O6	O	0.878046	0.113277	0.077185
O7	O	1.121708	0.100845	0.077208
Cu8	Cu	0.999875	0.107062	0.091278
Cu9	Cu	0.999899	0.107041	-0.091109
O10	O	1.001325	0.220877	0.077189
C11	C	0.846725	0.112752	0.000070
C12	C	0.753369	0.111205	0.000062
C13	C	0.995805	-0.035893	0.000092
C14	C	0.987945	-0.122688	0.000091
C15	C	0.532936	0.033105	0.000085
C16	C	0.474515	0.069363	-0.075958
C17	C	0.582443	0.108405	0.000073
C18	C	0.474519	0.069398	0.076094
C19	C	0.417337	0.105696	0.000088
C20	C	0.525252	0.144684	-0.076033
C21	C	0.525261	0.144709	0.076088
C22	C	0.466862	0.181022	0.000027
C23	C	0.677557	0.109964	0.000063
C24	C	0.322225	0.104143	0.000090
C25	C	1.060103	-0.172781	0.000098
C26	C	1.052713	-0.254334	0.000089
C27	C	0.973165	-0.285792	0.000078
C28	C	0.901002	-0.235693	0.000068
C29	C	0.908393	-0.154142	0.000071
C30	C	0.947056	-0.531558	0.000063
C31	C	0.939671	-0.613115	0.000063
C32	C	1.091383	-0.631751	0.000083
C33	C	1.098766	-0.550197	0.000091
C34	C	1.026603	-0.500105	0.000075
C35	C	0.965610	-0.369152	0.000071
C36	C	1.034159	-0.416747	0.000076
C37	C	1.153049	0.101352	0.000097
C38	C	1.246405	0.102899	0.000100
C39	C	1.003969	0.249997	0.000076
C40	C	1.011829	0.336792	0.000071
N41	N	0.999865	0.107077	0.219560
N42	N	0.999916	0.107021	-0.219390
C43	C	0.944187	0.162555	0.469205
C44	C	1.021171	0.177734	0.531013
C45	C	0.999884	0.107058	0.408721
C46	C	0.922921	0.091897	0.531006
C47	C	0.999895	0.107042	0.591442
C48	C	1.076908	0.122272	0.469169
C49	C	0.978606	0.036405	0.469156
C50	C	1.055642	0.051554	0.530937
C51	C	0.999876	0.107070	0.303460
C52	C	0.999912	0.107030	0.696701
H53	H	0.452139	0.037506	-0.140243
O54	O	0.845229	0.076555	0.563252
C55	C	0.702517	0.049253	0.524477
C56	C	0.790467	0.066595	0.487838
H57	H	0.658214	0.041212	0.463523
H58	H	0.706464	-0.006700	0.567914
H59	H	0.677748	0.100469	0.569130
H60	H	0.815288	0.015427	0.443146
H61	H	0.786468	0.122575	0.444451
O62	O	1.111384	-0.386099	-0.000038
C63	C	1.207797	-0.304875	-0.079946
C64	C	1.120309	-0.339526	-0.079927
H65	H	1.215048	-0.267227	-0.144540
H66	H	1.215048	-0.267104	-0.015447
H67	H	1.258093	-0.354695	-0.079892
H68	H	1.069961	-0.289757	-0.080014
H69	H	1.113130	-0.377318	-0.144421
H70	H	0.849634	-0.113356	0.000064
H71	H	0.438170	0.243580	-0.000020
O72	O	1.154598	0.137774	0.437046
C73	C	1.265019	0.229531	0.432805
C74	C	1.177040	0.212055	0.469250
H75	H	1.283184	0.289593	0.458811
H76	H	1.312591	0.182547	0.458798
H77	H	1.264389	0.229408	0.353758
H78	H	1.177589	0.212190	0.548294
H79	H	1.129506	0.259042	0.443186
O80	O	0.823775	-0.266343	-0.000067
C81	C	0.727379	-0.347568	-0.080003
C82	C	0.814872	-0.312926	-0.079959
H83	H	0.720146	-0.385224	-0.144598
H84	H	0.720101	-0.385328	-0.015504
H85	H	0.677089	-0.297742	-0.079964
H86	H	0.865214	-0.362701	-0.080030
H87	H	0.822078	-0.275145	-0.144451
O88	O	0.567494	-0.041406	0.000048
C89	C	0.694795	-0.123433	0.000716
C90	C	0.655765	-0.039015	0.000785
H91	H	0.766167	-0.121528	0.001292
H92	H	0.673134	-0.155871	0.064906
H93	H	0.673970	-0.155401	-0.064174
H94	H	0.676572	-0.006980	0.065632
H95	H	0.677424	-0.006636	-0.063448
H96	H	1.163543	-0.524590	0.000100
O97	O	0.957246	-0.034873	0.436662
C98	C	0.999290	-0.148865	0.346046
C99	C	1.023608	-0.068166	0.382805
H100	H	1.052923	-0.175799	0.302478
H101	H	0.986486	-0.189280	0.406914
H102	H	0.940422	-0.141230	0.301477
H103	H	1.082488	-0.075725	0.427359
H104	H	1.036357	-0.027779	0.321895
O105	O	0.888159	0.218686	0.436900
C106	C	0.847300	0.356588	0.431815
C107	C	0.910817	0.293101	0.468446
H108	H	0.865586	0.416765	0.457321
H109	H	0.847392	0.355763	0.352770
H110	H	0.781856	0.344222	0.458291
H111	H	0.976291	0.305423	0.442040
H112	H	0.910651	0.293940	0.547490
H113	H	0.547656	0.176539	0.140376
O114	O	0.551955	0.182587	-0.152788
C115	C	0.670448	0.226608	-0.238874
C116	C	0.640321	0.183654	-0.151923
H117	H	0.741893	0.227499	-0.238195
H118	H	0.649167	0.194719	-0.303628
H119	H	0.642573	0.289461	-0.239141
H120	H	0.668182	0.120799	-0.151567
H121	H	0.661591	0.215603	-0.087209
O122	O	1.137395	-0.142263	-0.000057
C123	C	1.269349	-0.133287	-0.079921
C124	C	1.181833	-0.167883	-0.079866
H125	H	1.305308	-0.154000	-0.144430
H126	H	1.262288	-0.066392	-0.079980
H127	H	1.305262	-0.153900	-0.015349
H128	H	1.145872	-0.147329	-0.144428
H129	H	1.188953	-0.234774	-0.079760
O130	O	1.112015	-0.004363	0.563036
C131	C	1.256805	-0.051568	0.567730
C132	C	1.193053	0.011814	0.531331
H133	H	1.322335	-0.038520	0.542095
H134	H	1.256080	-0.051512	0.646777
H135	H	1.239178	-0.111634	0.541210
H136	H	1.210636	0.071911	0.557782
H137	H	1.193789	0.011689	0.452285
O138	O	0.447796	0.031289	0.152693
C139	C	0.372106	-0.076959	0.212302
C140	C	0.402332	-0.033880	0.125484
H141	H	0.335328	-0.129648	0.190334
H142	H	0.428645	-0.097956	0.255565
H143	H	0.329919	-0.035124	0.255287
H144	H	0.444503	-0.075670	0.082427
H145	H	0.345755	-0.012871	0.082290
O146	O	1.122744	-0.303076	0.000219
C147	C	1.202456	-0.405939	0.080143
C148	C	1.123100	-0.350795	0.080105
H149	H	1.202778	-0.444522	0.144733
H150	H	1.202804	-0.444638	0.015640
H151	H	1.260570	-0.369434	0.080110
H152	H	1.064943	-0.387237	0.080170
H153	H	1.122826	-0.312093	0.144602
O154	O	1.161452	-0.680442	-0.000076
C155	C	1.241141	-0.783368	-0.079946
C156	C	1.161759	-0.728257	-0.079888
H157	H	1.241406	-0.822051	-0.144458
H158	H	1.299294	-0.746914	-0.080000
H159	H	1.241460	-0.821976	-0.015376
H160	H	1.161358	-0.689638	-0.144447
H161	H	1.103641	-0.764757	-0.079786
H162	H	0.888296	-0.490782	0.000051
O163	O	0.862330	-0.643545	0.000001
C164	C	0.712632	-0.616460	0.000016
C165	C	0.800162	-0.581894	0.000065
H166	H	0.662345	-0.566632	0.000087
H167	H	0.705345	-0.654152	-0.064543
H168	H	0.705409	-0.654197	0.064541
H169	H	0.807445	-0.544121	-0.064417
H170	H	0.807409	-0.544247	0.064667
H171	H	1.039179	0.237476	0.558183
H172	H	0.900842	-0.394774	0.000065
