data_functionalizedCrystal
_audit_creation_method	'MofGen! by Chris Wilmer'
_symmetry_space_group_name_H-M	'P1'
_symmetry_Int_Tables_number	1
_symmetry_cell_setting	triclinic
loop_
_symmetry_equiv_pos_as_xyz
  x,y,z
_cell_length_a	11.026607
_cell_length_b	27.732048
_cell_length_c	9.482900
_cell_angle_alpha	99.251554
_cell_angle_beta	78.636152
_cell_angle_gamma	95.614336
loop_
_atom_site_label
_atom_site_type_symbol
_atom_site_fract_x
_atom_site_fract_y
_atom_site_fract_z
O1	O	1.625408	0.196163	-0.120955
O2	O	1.272533	0.173153	-0.120950
O3	O	1.459925	0.115249	-0.120925
O4	O	1.438015	0.254067	-0.120980
O5	O	1.421861	0.127071	0.120862
O6	O	1.234468	0.184975	0.120837
O7	O	1.587343	0.207985	0.120832
Cu8	Cu	1.407430	0.197559	0.142912
Cu9	Cu	1.452446	0.183578	-0.143030
O10	O	1.399950	0.265889	0.120807
C11	C	1.208369	0.174819	-0.000055
C12	C	1.073891	0.162164	-0.000052
C13	C	1.440432	0.103112	-0.000028
C14	C	1.439045	0.049333	-0.000016
C15	C	0.999433	0.197105	-0.000067
C16	C	0.860443	0.184027	-0.000064
C17	C	1.541074	-0.280305	-0.000092
C18	C	1.535937	-0.482429	-0.000112
O19	O	1.629234	-0.505292	-0.000177
N20	N	1.424818	-0.511552	-0.000109
C21	C	1.314976	-0.490142	-0.000110
O22	O	1.220347	-0.519552	-0.000123
C23	C	1.320117	-0.288020	-0.000101
C24	C	1.431241	-0.258899	-0.000089
C25	C	1.652189	-0.251184	-0.000082
C26	C	1.653471	-0.200656	-0.000069
C27	C	1.543638	-0.179249	-0.000066
C28	C	1.432523	-0.208371	-0.000076
C29	C	1.210279	-0.266612	-0.000113
C30	C	1.211574	-0.216078	-0.000114
C31	C	1.322698	-0.186957	-0.000102
C32	C	1.323971	-0.136436	-0.000060
N33	N	1.435090	-0.107312	-0.000063
C34	C	1.544923	-0.128719	-0.000066
C35	C	1.312285	-0.596259	-0.000113
C36	C	1.310999	-0.646789	-0.000113
C37	C	1.531960	-0.639072	-0.000117
C38	C	1.533243	-0.588540	-0.000106
C39	C	1.423404	-0.567135	-0.000116
C40	C	1.547607	-0.022606	-0.000037
C41	C	1.548878	0.027926	-0.000018
C42	C	1.327919	0.020204	-0.000022
C43	C	1.326646	-0.030324	-0.000033
C44	C	1.436501	-0.051728	-0.000046
O45	O	1.230726	-0.113540	-0.000011
O46	O	1.639544	-0.099302	-0.000085
C47	C	1.539792	-0.330833	-0.000105
C48	C	1.428677	-0.359955	-0.000115
C49	C	1.318844	-0.338548	-0.000112
C50	C	1.427391	-0.410485	-0.000115
C51	C	1.537224	-0.431892	-0.000117
C52	C	1.648343	-0.402768	-0.000120
C53	C	1.649625	-0.352240	-0.000107
C54	C	1.207725	-0.367672	-0.000109
C55	C	1.206451	-0.418199	-0.000120
C56	C	1.316285	-0.439606	-0.000123
C57	C	1.651507	0.206319	-0.000066
C58	C	1.785986	0.218973	-0.000079
C59	C	1.419444	0.278026	-0.000094
C60	C	1.420833	0.331805	-0.000115
N61	N	1.375777	0.207393	0.344028
N62	N	1.484109	0.173742	-0.344146
C63	C	1.443101	0.186476	0.416236
C64	C	1.416774	0.194662	0.583650
H65	H	1.038583	0.236702	-0.000074
N66	N	1.764380	-0.273054	-0.000088
N67	N	1.804379	-0.305368	-0.101998
H68	H	1.883618	-0.320811	-0.101993
H69	H	1.737772	-0.420206	-0.000116
N70	N	1.580873	0.143665	0.577973
N71	N	1.556093	0.106251	0.493040
H72	H	1.624436	0.085009	0.438045
N73	N	0.811324	0.134353	-0.000025
N74	N	0.698487	0.123800	-0.000014
H75	H	0.663792	0.088718	0.000016
H76	H	1.115952	-0.441906	-0.000117
H77	H	1.034746	0.122566	-0.000074
N78	N	1.319993	0.224730	0.661537
N79	N	1.210626	0.213600	0.644675
H80	H	1.142273	0.234834	0.699683
N81	N	1.095529	-0.345811	-0.000126
N82	N	1.037455	-0.359017	-0.102043
H83	H	0.958208	-0.343580	-0.102051
N84	N	1.279017	0.237467	0.421920
N85	N	1.215710	0.257138	0.354119
H86	H	1.147370	0.278379	0.409126
N87	N	1.659831	-0.044458	-0.000055
N88	N	1.759024	-0.018443	-0.000045
H89	H	1.838282	-0.033874	-0.000049
N90	N	0.835071	0.268653	-0.000064
N91	N	0.886161	0.289767	0.101858
H92	H	0.920826	0.324853	0.101873
N93	N	1.766994	-0.170920	-0.000062
N94	N	1.865043	-0.190048	-0.000071
H95	H	1.945226	-0.169050	-0.000071
N96	N	1.539793	0.156387	0.338230
N97	N	1.514869	0.118995	0.253296
H98	H	1.583138	0.097739	0.198172
H99	H	1.639372	0.051636	-0.000005
N100	N	1.646748	-0.558794	-0.000074
N101	N	1.704524	-0.556878	0.101853
H102	H	1.784692	-0.535871	0.101877
N103	N	1.644141	-0.660950	-0.000108
N104	N	1.642963	-0.706067	-0.000107
H105	H	1.722186	-0.721522	-0.000107
N106	N	1.197482	-0.676531	-0.000076
N107	N	1.107611	-0.668488	0.101847
H108	H	1.027435	-0.689493	0.101870
N109	N	1.200068	-0.574406	-0.000122
N110	N	1.100871	-0.600420	-0.000116
H111	H	1.021614	-0.584989	-0.000117
H112	H	1.122128	-0.198654	-0.000123
N113	N	1.096763	-0.296349	-0.000111
N114	N	1.006880	-0.288307	0.101798
H115	H	0.926702	-0.309309	0.101797
N116	N	1.213121	-0.060064	-0.000001
N117	N	1.115061	-0.040941	0.000024
H118	H	1.034881	-0.061943	0.000044
H119	H	1.238495	0.037643	-0.000014
H120	H	1.740114	-0.328533	-0.000098
