data_functionalizedCrystal
_audit_creation_method	'MofGen! by Chris Wilmer'
_symmetry_space_group_name_H-M	'P1'
_symmetry_Int_Tables_number	1
_symmetry_cell_setting	triclinic
loop_
_symmetry_equiv_pos_as_xyz
  x,y,z
_cell_length_a	17.699083
_cell_length_b	11.804783
_cell_length_c	17.699083
_cell_angle_alpha	76.686354
_cell_angle_beta	83.283015
_cell_angle_gamma	76.691073
loop_
_atom_site_label
_atom_site_type_symbol
_atom_site_fract_x
_atom_site_fract_y
_atom_site_fract_z
O1	O	0.990490	0.098857	0.082111
O2	O	0.770106	0.098896	0.094558
O3	O	0.886526	0.098865	-0.021854
O4	O	0.874070	0.098888	0.198522
O5	O	0.913733	-0.099178	0.005390
O6	O	0.797313	-0.099147	0.121801
O7	O	1.017697	-0.099186	0.109354
Cu8	Cu	0.909989	-0.117249	0.118065
Cu9	Cu	0.877814	0.116959	0.085847
O10	O	0.901277	-0.099155	0.225765
C11	C	0.755512	-0.000120	0.107732
C12	C	0.671492	-0.000106	0.106392
N13	N	0.932625	-0.281979	0.140725
C14	C	0.622870	-0.000099	0.174724
C15	C	0.543929	-0.000114	0.173464
C16	C	0.513610	-0.000128	0.103869
C17	C	0.562238	-0.000139	0.035532
C18	C	0.641179	-0.000132	0.036794
C19	C	0.243880	-0.000169	0.030441
C20	C	0.164932	-0.000172	0.029184
C21	C	0.146629	-0.000151	0.167111
C22	C	0.225570	-0.000144	0.168373
C23	C	0.274192	-0.000161	0.100037
C24	C	0.359790	-0.000146	0.101404
C25	C	0.428013	-0.000134	0.102500
C26	C	0.800800	-0.655991	0.008760
C27	C	0.783662	-0.531337	-0.008387
C28	C	0.820901	-0.468992	0.028890
C29	C	0.875282	-0.531312	0.083316
C30	C	0.892427	-0.655977	0.100460
C31	C	0.912527	-0.468978	0.120590
C32	C	0.966908	-0.531298	0.175015
C33	C	0.984050	-0.655952	0.192157
C34	C	0.946810	-0.718297	0.154880
C35	C	0.895382	-0.344313	0.103445
C36	C	0.987009	-0.344299	0.195145
C37	C	1.004147	-0.468953	0.212292
C38	C	1.032291	-0.000167	0.096179
C39	C	1.116310	-0.000174	0.097518
C40	C	0.899683	-0.000157	-0.036429
C41	C	0.898345	-0.000157	-0.120447
N42	N	0.855184	0.281689	0.063181
C43	C	0.966680	-0.000171	-0.169066
C44	C	0.965416	-0.000160	-0.248011
C45	C	0.895817	-0.000144	-0.278334
C46	C	0.827476	-0.000126	-0.229709
C47	C	0.828740	-0.000129	-0.150767
C48	C	0.822380	-0.000116	-0.548074
C49	C	0.821122	-0.000117	-0.627021
C50	C	0.959056	-0.000147	-0.645317
C51	C	0.960319	-0.000149	-0.566375
C52	C	0.891978	-0.000126	-0.517758
C53	C	0.893349	-0.000135	-0.432158
C54	C	0.894447	-0.000143	-0.363932
C55	C	0.888120	-0.000131	0.240340
C56	C	0.889457	-0.000123	0.324357
H57	H	0.647549	-0.000087	0.231396
Cl58	Cl	1.044972	-0.000172	-0.706442
Cl59	Cl	0.739978	-0.000092	-0.267832
H60	H	1.017333	-0.293538	0.225499
Cl61	Cl	1.052422	-0.734294	0.260570
H62	H	0.739387	-0.480605	-0.052702
H63	H	0.960759	-0.819801	0.168842
Cl64	Cl	1.047818	-0.000166	-0.528260
Cl65	Cl	0.733619	-0.000094	-0.665140
H66	H	0.504343	-0.000107	0.229107
H67	H	1.048425	-0.519711	0.256607
H68	H	0.766732	-0.000097	-0.508499
H69	H	0.283459	-0.000183	-0.025202
Cl70	Cl	0.126819	-0.000190	-0.058313
Cl71	Cl	0.263679	-0.000120	0.255865
H72	H	0.107032	-0.000144	0.222754
H73	H	1.021062	-0.000174	-0.287594
Cl74	Cl	0.524124	-0.000164	-0.051958
H75	H	0.680767	-0.000137	-0.018849
Cl76	Cl	0.827021	-0.265983	0.035027
H77	H	0.773094	-0.000117	-0.111182
H78	H	0.806943	-0.367493	0.014926
Cl79	Cl	0.753996	-0.734373	-0.038099
H80	H	1.023356	-0.000191	-0.144383
