data_functionalizedCrystal
_audit_creation_method	'MofGen! by Chris Wilmer'
_symmetry_space_group_name_H-M	'P1'
_symmetry_Int_Tables_number	1
_symmetry_cell_setting	triclinic
loop_
_symmetry_equiv_pos_as_xyz
  x,y,z
_cell_length_a	12.759401
_cell_length_b	18.050590
_cell_length_c	12.759393
_cell_angle_alpha	90.035753
_cell_angle_beta	90.018496
_cell_angle_gamma	90.018713
loop_
_atom_site_label
_atom_site_type_symbol
_atom_site_fract_x
_atom_site_fract_y
_atom_site_fract_z
Zn1	Zn	1.606227	-0.295612	0.593951
Zn2	Zn	1.606110	-0.419823	0.418258
Zn3	Zn	1.430529	-0.295651	0.418290
Zn4	Zn	1.430506	-0.419765	0.593900
O5	O	1.518343	-0.357713	0.506100
O6	O	1.753233	-0.312097	0.570653
O7	O	1.582779	-0.403391	0.271241
O8	O	1.453895	-0.191722	0.441627
O9	O	1.753146	-0.403354	0.441572
O10	O	1.582979	-0.191693	0.570684
O11	O	1.453781	-0.312163	0.271265
O12	O	1.283505	-0.312108	0.441577
O13	O	1.453855	-0.403256	0.740927
O14	O	1.283488	-0.403294	0.570597
O15	O	1.582957	-0.312041	0.740965
O16	O	1.582757	-0.523740	0.441522
O17	O	1.453741	-0.523698	0.570565
C18	C	1.245376	-0.357699	0.506085
C19	C	1.128599	-0.357711	0.506104
C20	C	1.073756	-0.405268	0.573173
C21	C	0.964032	-0.405277	0.573185
C22	C	0.964004	-0.310171	0.439049
C23	C	1.073726	-0.310159	0.439043
C24	C	1.128629	-0.452820	0.640234
C25	C	1.073785	-0.500382	0.707308
C26	C	0.964061	-0.500391	0.707320
C27	C	0.909181	-0.452839	0.640257
C28	C	1.518262	-0.550665	0.506058
C29	C	1.518324	-0.633211	0.506075
C30	C	1.588628	-0.832657	0.435999
C31	C	1.614296	-0.881981	0.531886
C32	C	1.518384	-0.784341	0.506117
C33	C	1.492823	-0.882099	0.410274
C34	C	1.518443	-0.930326	0.506149
C35	C	1.544100	-0.832578	0.602054
C36	C	1.422583	-0.832691	0.480377
C37	C	1.448214	-0.881993	0.576329
C38	C	1.518352	-0.700243	0.506097
C39	C	1.518475	-1.014423	0.506180
C40	C	1.792376	-0.357727	0.506115
C41	C	1.909153	-0.357733	0.506121
C42	C	1.518417	-0.357638	0.780133
C43	C	1.518448	-0.357606	0.896910
C44	C	1.518453	-0.164007	0.506165
C45	C	1.518500	-0.081462	0.506192
C46	C	1.518330	-0.357734	0.233132
C47	C	1.518502	-0.357557	0.116356
C48	C	1.585680	-0.310106	0.951793
C49	C	1.585705	-0.310079	1.061517
C50	C	1.451263	-0.405059	1.061465
C51	C	1.451233	-0.405081	0.951743
C52	C	1.652895	-0.262631	0.896960
C53	C	1.720134	-0.215128	0.951844
C54	C	1.720159	-0.215101	1.061568
C55	C	1.652945	-0.262577	1.116408
H56	H	0.919410	-0.539112	0.761942
Br57	Br	1.456749	-0.918357	0.275160
Br58	Br	1.811327	-0.150684	0.877421
Br59	Br	1.360052	-0.469488	1.135891
Br60	Br	1.749375	-0.918051	0.568231
Br61	Br	0.760268	-0.452845	0.640286
Br62	Br	1.287538	-0.796579	0.444015
Br63	Br	0.889524	-0.245642	0.348041
H64	H	1.396470	-0.443749	0.907056
H65	H	1.118381	-0.271429	0.384437
Br66	Br	1.580346	-0.796483	0.737208
Br67	Br	1.687664	-0.796548	0.337267
Br68	Br	1.349244	-0.917875	0.675291
H69	H	1.652885	-0.262649	0.807617
Br70	Br	1.652963	-0.262527	1.265321
Br71	Br	1.277539	-0.452815	0.640216
Br72	Br	1.148262	-0.564906	0.798326
H73	H	1.774900	-0.176416	1.106251
