data_functionalizedCrystal
_audit_creation_method	'MofGen! by Chris Wilmer'
_symmetry_space_group_name_H-M	'P1'
_symmetry_Int_Tables_number	1
_symmetry_cell_setting	triclinic
loop_
_symmetry_equiv_pos_as_xyz
  x,y,z
_cell_length_a	15.944551
_cell_length_b	23.532407
_cell_length_c	15.021413
_cell_angle_alpha	89.999348
_cell_angle_beta	89.997174
_cell_angle_gamma	83.173708
loop_
_atom_site_label
_atom_site_type_symbol
_atom_site_fract_x
_atom_site_fract_y
_atom_site_fract_z
O1	O	1.113910	0.073442	-0.073949
O2	O	0.869284	0.082498	-0.073972
O3	O	0.998974	-0.004933	-0.073943
O4	O	0.984220	0.160873	-0.073977
O5	O	0.998953	-0.004921	0.074121
O6	O	0.869263	0.082510	0.074092
O7	O	1.113889	0.073455	0.074116
Zn8	Zn	0.991573	0.077985	0.097612
Zn9	Zn	0.991600	0.077968	-0.097469
O10	O	0.984200	0.160886	0.074087
C11	C	0.837983	0.082128	0.000057
C12	C	0.744746	0.081001	0.000049
C13	C	0.530369	0.024113	0.000078
C14	C	0.469137	0.050524	-0.072931
C15	C	0.574038	0.078962	0.000060
C16	C	0.469138	0.050549	0.073049
C17	C	0.409142	0.076989	0.000075
C18	C	0.514033	0.105388	-0.073009
C19	C	0.514041	0.105405	0.073036
C20	C	0.452826	0.131856	0.000010
C21	C	0.669030	0.080097	0.000051
C22	C	0.314150	0.075858	0.000077
C23	C	0.998588	-0.026144	0.000091
C24	C	0.997458	-0.089366	0.000098
C25	C	1.067121	-0.488199	0.000056
C26	C	1.066072	-0.547603	0.000049
O27	O	1.130650	-0.584098	0.000022
N28	N	0.988971	-0.570528	0.000042
C29	C	0.912915	-0.534045	0.000033
O30	O	0.847239	-0.558999	0.000026
C31	C	0.913965	-0.474642	0.000034
C32	C	0.991071	-0.451721	0.000049
C33	C	1.144220	-0.465277	0.000070
C34	C	1.145269	-0.405877	0.000079
C35	C	1.069219	-0.369399	0.000073
C36	C	0.992120	-0.392320	0.000058
C37	C	0.837910	-0.438160	0.000018
C38	C	0.838967	-0.378754	0.000018
C39	C	0.916072	-0.355832	0.000034
C40	C	0.917118	-0.296442	0.000060
N41	N	0.994219	-0.273517	0.000067
C42	C	1.070269	-0.309995	0.000073
C43	C	0.910716	-0.658796	0.000031
C44	C	0.909664	-0.718198	0.000037
C45	C	1.062821	-0.731752	0.000050
C46	C	1.063872	-0.672349	0.000051
C47	C	0.987816	-0.635871	0.000037
C48	C	1.072466	-0.185250	0.000092
C49	C	1.073508	-0.125844	0.000104
C50	C	0.920352	-0.112295	0.000085
C51	C	0.919309	-0.171696	0.000078
C52	C	0.995373	-0.208173	0.000078
O53	O	0.852574	-0.259913	0.000083
O54	O	1.135935	-0.285033	0.000069
C55	C	1.145190	0.073824	0.000084
C56	C	1.238427	0.074951	0.000087
C57	C	0.984586	0.182097	0.000051
C58	C	0.985715	0.245318	0.000038
N59	N	0.991561	0.077995	0.230750
N60	N	0.991619	0.077953	-0.230606
C61	C	0.931583	0.118404	0.470420
C62	C	1.007390	0.129461	0.529759
C63	C	0.991582	0.077981	0.412357
C64	C	0.915796	0.066938	0.529760
C65	C	0.991596	0.077969	0.587781
C66	C	1.067428	0.089063	0.470389
C67	C	0.975783	0.026518	0.470385
C68	C	1.051645	0.037552	0.529697
C69	C	0.991573	0.077990	0.311300
C70	C	0.991614	0.077960	0.688836
H71	H	0.449239	0.027346	0.134770
C72	C	0.575459	-0.036545	0.000047
C73	C	0.662903	-0.034705	0.000851
C74	C	0.704469	-0.090570	0.000831
H75	H	0.560309	-0.056004	-0.051859
H76	H	0.559497	-0.056229	0.051410
H77	H	0.678859	-0.015029	-0.050506
H78	H	0.678078	-0.015257	0.052754
H79	H	0.688507	-0.110253	0.052194
H80	H	0.689312	-0.110024	-0.051076
H81	H	0.763804	-0.089328	0.001385
H82	H	0.880895	0.152617	0.444393
H83	H	1.136300	-0.107185	0.000119
C84	C	1.152984	0.101563	0.435946
C85	C	1.206108	0.109297	0.508047
C86	C	1.284929	0.120807	0.476351
H87	H	1.146085	0.135339	0.400768
H88	H	1.177325	0.070340	0.400723
H89	H	1.181773	0.140517	0.543255
H90	H	1.213032	0.075527	0.543233
H91	H	1.309269	0.089584	0.441128
H92	H	1.278021	0.154582	0.441173
H93	H	1.320985	0.126050	0.525266
H94	H	1.134405	-0.214943	0.000089
H95	H	0.775123	-0.456812	0.000000
C96	C	1.229072	-0.381106	0.000042
C97	C	1.295439	-0.425776	0.000021
C98	C	1.372654	-0.402984	-0.000028
H99	H	1.232787	-0.358225	0.051662
H100	H	1.232721	-0.358232	-0.051611
H101	H	1.291792	-0.448641	0.051669
H102	H	1.291752	-0.448661	-0.051595
H103	H	1.376304	-0.380110	-0.051681
H104	H	1.376360	-0.380103	0.051593
H105	H	1.417694	-0.433289	-0.000050
H106	H	0.858434	-0.082584	0.000084
C107	C	1.119248	-0.008110	0.564241
C108	C	1.081365	-0.047723	0.615494
C109	C	1.143614	-0.089797	0.647321
H110	H	1.158281	0.009277	0.599903
H111	H	1.148130	-0.027176	0.515394
H112	H	1.052497	-0.028660	0.664334
H113	H	1.042338	-0.065125	0.579851
H114	H	1.172496	-0.108862	0.598474
H115	H	1.182644	-0.072404	0.682979
H116	H	1.117919	-0.116682	0.682093
H117	H	1.020766	0.172977	0.555839
C118	C	0.957744	-0.031461	0.435622
C119	C	0.878270	-0.042793	0.465632
C120	C	0.861609	-0.096193	0.433615
H121	H	0.999743	-0.060310	0.456780
H122	H	0.958339	-0.031143	0.372381
H123	H	0.877682	-0.043116	0.528860
H124	H	0.836255	-0.013958	0.444477
H125	H	0.862204	-0.095876	0.370374
H126	H	0.903613	-0.125038	0.454775
H127	H	0.807682	-0.103887	0.453965
C128	C	1.147525	-0.647387	-0.000080
C129	C	1.152607	-0.613671	-0.076246
C130	C	1.229654	-0.590665	-0.076393
H131	H	1.192736	-0.677565	-0.000120
H132	H	1.151122	-0.624462	0.051526
H133	H	1.149018	-0.636595	-0.127838
H134	H	1.107414	-0.583484	-0.076222
H135	H	1.233252	-0.567740	-0.024788
H136	H	1.274859	-0.620846	-0.076431
H137	H	1.233110	-0.567782	-0.128067
H138	H	0.449230	0.027320	-0.134645
C139	C	0.540489	0.136409	0.155298
C140	C	0.499657	0.192473	0.155852
C141	C	0.523994	0.221042	0.231631
H142	H	0.599895	0.137264	0.154480
H143	H	0.525273	0.116905	0.207149
H144	H	0.514879	0.211971	0.104015
H145	H	0.440251	0.191634	0.156684
H146	H	0.508778	0.201538	0.283483
H147	H	0.583400	0.221893	0.230807
H148	H	0.496288	0.259082	0.232022
H149	H	1.206153	-0.494973	0.000072
C150	C	0.830249	0.054565	0.564407
C151	C	0.767675	0.097017	0.534351
C152	C	0.688857	0.085638	0.566235
H153	H	0.830906	0.054316	0.627638
H154	H	0.818564	0.018298	0.543175
H155	H	0.779357	0.133274	0.555586
H156	H	0.766991	0.097272	0.471123
H157	H	0.677172	0.049371	0.545004
H158	H	0.689523	0.085389	0.629465
H159	H	0.646391	0.114437	0.545840
H160	H	1.124746	-0.761464	0.000052
C161	C	0.540531	0.136351	-0.155298
C162	C	0.579913	0.183813	-0.129354
C163	C	0.604345	0.212343	-0.205134
H164	H	0.492112	0.148771	-0.190175
H165	H	0.578825	0.111090	-0.189419
H166	H	0.541620	0.209070	-0.095248
H167	H	0.628340	0.171410	-0.094488
H168	H	0.642639	0.187081	-0.239255
H169	H	0.555922	0.224759	-0.240005
H170	H	0.631075	0.244546	-0.187541
H171	H	0.419284	0.177423	-0.000040
C172	C	0.825863	-0.742970	-0.000016
C173	C	0.759492	-0.698302	-0.000041
C174	C	0.682279	-0.721097	-0.000107
H175	H	0.822138	-0.765855	0.051600
H176	H	0.822227	-0.765841	-0.051674
H177	H	0.763125	-0.675440	0.051612
H178	H	0.763189	-0.675413	-0.051652
H179	H	0.678644	-0.743969	-0.051765
H180	H	0.678563	-0.743982	0.051510
H181	H	0.637238	-0.690794	-0.000132
H182	H	0.848778	-0.629098	0.000027
H183	H	0.856524	-0.190359	0.000090
C184	C	0.756299	-0.339245	0.000049
C185	C	0.688557	-0.372038	0.000057
C186	C	0.612392	-0.335664	0.000099
H187	H	0.753413	-0.315775	-0.051568
H188	H	0.753465	-0.315799	0.051705
H189	H	0.691389	-0.395474	-0.051594
H190	H	0.691415	-0.395507	0.051670
H191	H	0.609558	-0.312219	0.051755
H192	H	0.609514	-0.312196	-0.051520
H193	H	0.566420	-0.357909	0.000112
