data_functionalizedCrystal
_audit_creation_method	'MofGen! by Chris Wilmer'
_symmetry_space_group_name_H-M	'P1'
_symmetry_Int_Tables_number	1
_symmetry_cell_setting	triclinic
loop_
_symmetry_equiv_pos_as_xyz
  x,y,z
_cell_length_a	8.597366
_cell_length_b	13.262508
_cell_length_c	7.681481
_cell_angle_alpha	100.048420
_cell_angle_beta	103.474720
_cell_angle_gamma	82.751576
loop_
_atom_site_label
_atom_site_type_symbol
_atom_site_fract_x
_atom_site_fract_y
_atom_site_fract_z
O1	O	2.107698	0.140569	0.240668
O2	O	1.644544	0.156768	0.178156
O3	O	1.880536	0.000690	0.139218
O4	O	1.871707	0.296648	0.279606
O5	O	1.909580	-0.018564	0.427262
O6	O	1.673588	0.137514	0.466200
O7	O	2.136742	0.121315	0.528712
Zn8	Zn	1.909777	0.126358	0.543189
Zn9	Zn	1.871510	0.151726	0.163679
O10	O	1.900751	0.277394	0.567650
C11	C	1.599646	0.146475	0.312843
C12	C	1.422590	0.144476	0.285023
C13	C	1.891892	-0.046809	0.264620
C14	C	1.882439	-0.159656	0.209135
C15	C	1.919114	-0.519747	0.680801
C16	C	1.927983	-0.413721	0.732932
C17	C	1.916598	-0.350200	0.601987
C18	C	1.896342	-0.392714	0.418902
C19	C	1.887459	-0.498749	0.366764
C20	C	1.884943	-0.329202	0.287951
C21	C	1.864687	-0.371716	0.104865
C22	C	1.855807	-0.477741	0.052737
C23	C	1.867191	-0.541262	0.183681
C24	C	1.893826	-0.223167	0.340089
C25	C	1.862171	-0.202169	0.026052
C26	C	1.853302	-0.308195	-0.026079
C27	C	2.181641	0.131609	0.394021
C28	C	2.358695	0.133608	0.421830
C29	C	1.889395	0.324893	0.442245
C30	C	1.898847	0.437740	0.497718
N31	N	1.935905	0.109044	0.802196
N32	N	1.845394	0.169031	-0.095330
H33	H	1.341841	0.152245	0.146598
C34	C	2.060741	0.026324	0.883107
C35	C	2.006441	-0.059639	0.960504
C36	C	2.131276	-0.142357	1.041415
C37	C	2.310410	-0.139111	1.044928
C38	C	2.364719	-0.053144	0.967528
C39	C	2.239884	0.029574	0.886617
H40	H	1.873828	-0.062045	0.957906
H41	H	2.091072	-0.205995	1.098711
H42	H	2.402819	-0.200344	1.104823
H43	H	2.497332	-0.050738	0.970126
H44	H	2.280088	0.093212	0.829321
H45	H	1.439454	0.125832	0.560261
H46	H	1.923818	-0.263869	0.644444
C47	C	1.931615	-0.589628	0.824803
C48	C	1.792167	-0.653856	0.816729
C49	C	1.804659	-0.723744	0.960735
C50	C	1.956599	-0.729405	1.112815
C51	C	2.096058	-0.665175	1.120894
C52	C	2.083566	-0.595287	0.976889
H53	H	1.679682	-0.649668	0.704146
H54	H	1.701421	-0.771291	0.954753
H55	H	1.965846	-0.781140	1.219416
H56	H	2.208543	-0.669363	1.233478
H57	H	2.186804	-0.547740	0.982871
H58	H	1.944493	-0.379115	0.882002
C59	C	1.720564	0.251747	0.823766
C60	C	1.700976	0.265210	0.624475
C61	C	1.576144	0.347927	0.543559
C62	C	1.470899	0.417180	0.661933
C63	C	1.490483	0.403718	0.861235
C64	C	1.615316	0.321002	0.942151
H65	H	1.778888	0.213943	0.536837
H66	H	1.561647	0.357891	0.396021
H67	H	1.378490	0.478412	0.602033
H68	H	1.412572	0.454986	0.948873
H69	H	1.629813	0.311037	1.089689
C70	C	1.849647	-0.132308	-0.118006
C71	C	1.973037	-0.149770	-0.239355
C72	C	1.960507	-0.079902	-0.383401
C73	C	1.824587	0.007429	-0.406097
C74	C	1.701187	0.024895	-0.284744
C75	C	1.713717	-0.044973	-0.140698
H76	H	2.073662	-0.214422	-0.222557
H77	H	2.051857	-0.092833	-0.473234
H78	H	1.815312	0.059149	-0.512728
H79	H	1.600563	0.089546	-0.301542
H80	H	1.622368	-0.032042	-0.050865
H81	H	1.839298	-0.512351	-0.096345
H82	H	1.910305	-0.188561	0.489156
H83	H	1.836807	-0.342825	-0.175151
H84	H	1.859979	-0.627599	0.141246
