data_functionalizedCrystal
_audit_creation_method	'MofGen! by Chris Wilmer'
_symmetry_space_group_name_H-M	'P1'
_symmetry_Int_Tables_number	1
_symmetry_cell_setting	triclinic
loop_
_symmetry_equiv_pos_as_xyz
  x,y,z
_cell_length_a	19.288859
_cell_length_b	17.699092
_cell_length_c	18.366186
_cell_angle_alpha	89.995439
_cell_angle_beta	89.990083
_cell_angle_gamma	83.210047
loop_
_atom_site_label
_atom_site_type_symbol
_atom_site_fract_x
_atom_site_fract_y
_atom_site_fract_z
O1	O	0.921470	0.094395	-0.060561
O2	O	0.719224	0.107136	-0.060559
O3	O	0.826058	-0.009432	-0.060559
O4	O	0.814636	0.210962	-0.060562
O5	O	0.826040	-0.009437	0.060541
O6	O	0.719206	0.107130	0.060540
O7	O	0.921452	0.094389	0.060538
Zn8	Zn	0.820326	0.100759	0.079766
Zn9	Zn	0.820350	0.100766	-0.079787
O10	O	0.814618	0.210957	0.060537
C11	C	0.693338	0.106724	-0.000009
C12	C	0.616233	0.105496	-0.000009
C13	C	0.052265	0.165583	-0.000011
C14	C	0.124712	0.166743	-0.000014
C15	C	0.169336	0.098347	-0.000012
C16	C	0.141507	0.028784	-0.000025
C17	C	0.069060	0.027625	-0.000028
C18	C	0.290539	0.047335	0.042418
C19	C	0.362984	0.048497	0.042426
C20	C	0.392787	0.101918	-0.000005
C21	C	0.350134	0.154191	-0.042434
C22	C	0.277687	0.153032	-0.042437
C23	C	0.247894	0.099596	-0.000009
C24	C	0.499164	0.172735	-0.000001
C25	C	0.571613	0.173893	-0.000010
C26	C	0.588407	0.035932	-0.000013
C27	C	0.515959	0.034776	-0.000012
C28	C	0.471341	0.103180	-0.000003
C29	C	0.825638	-0.037631	-0.000010
C30	C	0.824408	-0.121647	-0.000013
C31	C	0.823841	-0.161110	-0.066026
C32	C	0.822680	-0.240052	-0.066026
C33	C	0.822091	-0.279529	-0.000014
C34	C	0.822656	-0.240059	0.066003
C35	C	0.823812	-0.161119	0.066003
C36	C	0.817993	-0.558418	0.066004
C37	C	0.816839	-0.637364	0.065999
C38	C	0.816862	-0.637350	-0.066025
C39	C	0.818018	-0.558410	-0.066025
C40	C	0.818579	-0.518947	-0.000009
C41	C	0.819836	-0.433350	-0.000008
C42	C	0.820839	-0.365125	-0.000014
C43	C	0.947338	0.094801	-0.000013
C44	C	1.024443	0.096029	-0.000019
C45	C	0.815037	0.239156	-0.000013
C46	C	0.816268	0.323172	-0.000014
N47	N	0.820315	0.100753	0.188657
N48	N	0.820366	0.100766	-0.188679
C49	C	0.867636	0.049162	0.226758
C50	C	0.867640	0.049159	0.302986
C51	C	0.820330	0.100759	0.341110
C52	C	0.773000	0.152354	0.303000
C53	C	0.772992	0.152351	0.226774
C54	C	0.811115	0.169721	0.461869
C55	C	0.811128	0.169725	0.538094
C56	C	0.820350	0.100769	0.576218
C57	C	0.829574	0.031805	0.538107
C58	C	0.829566	0.031802	0.461880
C59	C	0.820333	0.100768	0.423765
C60	C	0.867679	0.049170	0.696973
C61	C	0.867678	0.049166	0.773202
C62	C	0.773041	0.152368	0.773215
C63	C	0.773038	0.152365	0.696988
C64	C	0.820360	0.100767	0.658871
H65	H	0.397706	0.005937	0.076978
H66	H	0.493307	-0.021862	-0.000014
H67	H	0.803594	0.225878	0.430836
N68	N	0.258398	-0.010291	0.088180
H69	H	0.296408	-0.043224	0.115063
H70	H	0.224941	0.017075	0.124418
H71	H	0.906210	0.007153	0.665938
N72	N	0.918732	-0.006469	0.814301
H73	H	0.948713	-0.039147	0.778584
H74	H	0.949379	0.022444	0.845908
N75	N	0.822028	-0.282636	0.137203
H76	H	0.778512	-0.309113	0.140150
H77	H	0.864623	-0.321626	0.140094
H78	H	0.177845	-0.026905	-0.000025
N79	N	0.039048	-0.047396	-0.000036
H80	H	0.078308	-0.090551	-0.000038
H81	H	0.009349	-0.050885	0.044857
H82	H	0.824263	-0.128987	0.119757
H83	H	0.462834	0.228434	0.000005
H84	H	0.734517	0.194379	0.804256
H85	H	0.906167	0.007146	0.195726
H86	H	0.803621	0.225880	0.569119
H87	H	0.816402	-0.669490	-0.119779
N88	N	0.816205	-0.679946	0.137200
H89	H	0.816734	-0.642968	0.179022
H90	H	0.772684	-0.706420	0.140070
H91	H	0.818501	-0.526272	-0.119779
N92	N	0.824483	-0.118535	-0.137225
H93	H	0.823946	-0.155516	-0.179043
H94	H	0.781921	-0.079498	-0.140101
N95	N	0.822169	-0.282631	-0.137225
H96	H	0.822756	-0.245650	-0.179042
H97	H	0.864765	-0.321629	-0.140024
N98	N	0.004169	0.239376	0.000044
H99	H	0.013108	0.269767	-0.044829
H100	H	-0.045938	0.228060	0.000085
N101	N	0.818607	-0.515861	0.137204
H102	H	0.818064	-0.552851	0.179020
H103	H	0.862129	-0.489392	0.140076
N104	N	0.918680	-0.006489	0.344093
H105	H	0.948656	-0.039177	0.308379
H106	H	0.949335	0.022408	0.375706
H107	H	0.147369	0.223384	-0.000001
H108	H	0.837075	-0.024350	0.430853
H109	H	0.837083	-0.024346	0.569145
N110	N	0.721997	0.208010	0.655887
H111	H	0.692025	0.240698	0.691603
H112	H	0.748524	0.241396	0.624247
N113	N	0.231684	0.209395	-0.088207
H114	H	0.197660	0.241420	-0.055714
H115	H	0.261602	0.243363	-0.115084
H116	H	0.734478	0.194367	0.334045
N117	N	0.721947	0.208000	0.185680
H118	H	0.729853	0.261696	0.198938
H119	H	0.729146	0.200105	0.131620
N120	N	0.382259	0.211818	-0.088206
H121	H	0.408357	0.244803	-0.055710
H122	H	0.415670	0.184453	-0.124487
N123	N	0.601616	0.248920	-0.000011
H124	H	0.585332	0.278868	0.044883
H125	H	0.654277	0.239219	-0.000043
N126	N	0.636527	-0.037841	-0.000018
H127	H	0.686644	-0.026554	-0.000017
H128	H	0.627524	-0.068171	0.044873
