data_functionalizedCrystal
_audit_creation_method	'MofGen! by Chris Wilmer'
_symmetry_space_group_name_H-M	'P1'
_symmetry_Int_Tables_number	1
_symmetry_cell_setting	triclinic
loop_
_symmetry_equiv_pos_as_xyz
  x,y,z
_cell_length_a	25.639242
_cell_length_b	25.639239
_cell_length_c	11.169409
_cell_angle_alpha	90.039281
_cell_angle_beta	90.031357
_cell_angle_gamma	90.033587
loop_
_atom_site_label
_atom_site_type_symbol
_atom_site_fract_x
_atom_site_fract_y
_atom_site_fract_z
Zn1	Zn	0.799276	-0.208179	0.678854
Zn2	Zn	0.799184	-0.295630	0.478146
Zn3	Zn	0.711837	-0.208202	0.478148
Zn4	Zn	0.711797	-0.295578	0.678751
O5	O	0.755523	-0.251897	0.578475
O6	O	0.872429	-0.219792	0.652272
O7	O	0.787576	-0.284063	0.310197
O8	O	0.723491	-0.135034	0.504816
O9	O	0.872361	-0.284041	0.504813
O10	O	0.787732	-0.135017	0.652274
O11	O	0.723402	-0.219831	0.310198
O12	O	0.638666	-0.219781	0.504716
O13	O	0.723423	-0.283953	0.846714
O14	O	0.638637	-0.283975	0.652098
O15	O	0.787693	-0.219742	0.846790
O16	O	0.787537	-0.368788	0.504713
O17	O	0.723334	-0.368750	0.652097
C18	C	0.619681	-0.251875	0.578397
C19	C	0.561567	-0.251878	0.578392
C20	C	0.310380	-0.218415	0.501866
C21	C	0.364984	-0.218411	0.501850
O22	O	0.393226	-0.189928	0.436718
N23	N	0.392293	-0.251885	0.578452
C24	C	0.364994	-0.285362	0.655083
O25	O	0.393237	-0.313834	0.720238
C26	C	0.310391	-0.285364	0.655103
C27	C	0.283085	-0.251891	0.578488
C28	C	0.283074	-0.184945	0.425257
C29	C	0.228473	-0.184951	0.425271
C30	C	0.201179	-0.218427	0.501894
C31	C	0.228485	-0.251897	0.578502
C32	C	0.283094	-0.318839	0.731739
C33	C	0.228487	-0.318837	0.731753
C34	C	0.201181	-0.285365	0.655138
C35	C	0.146590	-0.285379	0.655138
N36	N	0.119281	-0.251905	0.578536
C37	C	0.146575	-0.218429	0.501914
C38	C	0.479665	-0.285355	0.655035
C39	C	0.534267	-0.285357	0.655010
C40	C	0.534253	-0.218404	0.501779
C41	C	0.479650	-0.218406	0.501799
C42	C	0.452356	-0.251881	0.578434
C43	C	0.031910	-0.218443	0.501948
C44	C	-0.022695	-0.218453	0.501966
C45	C	-0.022676	-0.285404	0.655201
C46	C	0.031924	-0.285396	0.655179
C47	C	0.059216	-0.251911	0.578549
O48	O	0.118313	-0.313845	0.720241
O49	O	0.118327	-0.189957	0.436781
C50	C	0.755435	-0.387740	0.578420
C51	C	0.755446	-0.445854	0.578436
C52	C	0.789041	-0.806224	0.501863
C53	C	0.789061	-0.860828	0.501879
O54	O	0.817534	-0.889071	0.436714
N55	N	0.755615	-0.888136	0.578554
C56	C	0.722150	-0.860837	0.655227
O57	O	0.693704	-0.889079	0.720448
C58	C	0.722133	-0.806234	0.655216
C59	C	0.755578	-0.778929	0.578527
C60	C	0.822483	-0.778919	0.425182
C61	C	0.822462	-0.724318	0.425164
C62	C	0.788999	-0.697023	0.501829
C63	C	0.755557	-0.724328	0.578510
C64	C	0.688671	-0.778936	0.731894
C65	C	0.688657	-0.724329	0.731877
C66	C	0.722102	-0.697023	0.655188
C67	C	0.722072	-0.642432	0.655157
N68	N	0.755518	-0.615124	0.578482
C69	C	0.788982	-0.642420	0.501818
C70	C	0.722190	-0.975508	0.655246
C71	C	0.722204	-1.030110	0.655251
C72	C	0.789116	-1.030098	0.501905
C73	C	0.789099	-0.975494	0.501894
C74	C	0.755636	-0.948200	0.578570
C75	C	0.788935	-0.527755	0.501786
C76	C	0.788909	-0.473149	0.501772
C77	C	0.721999	-0.473167	0.655123
C78	C	0.722023	-0.527767	0.655133
C79	C	0.755495	-0.555060	0.578461
O80	O	0.693616	-0.614155	0.720293
O81	O	0.817428	-0.614172	0.436619
C82	C	0.891896	-0.251920	0.578554
C83	C	0.950010	-0.251929	0.578588
C84	C	0.755564	-0.251839	0.891517
C85	C	0.755581	-0.251815	1.024918
C86	C	0.755626	-0.115524	0.578556
C87	C	0.755670	-0.057410	0.578591
C88	C	0.755513	-0.251917	0.266650
C89	C	0.755598	-0.251795	0.133251
H90	H	0.206246	-0.157694	0.362883
H91	H	0.694936	-0.953287	0.717681
H92	H	0.054125	-0.191174	0.439554
H93	H	0.661435	-0.801158	0.794337
H94	H	0.694965	-1.052337	0.717688
H95	H	0.305291	-0.157682	0.362862
H96	H	0.661409	-0.702108	0.794320
H97	H	0.694791	-0.550000	0.717583
C98	C	0.685195	-0.443135	0.739452
H99	H	0.689980	-0.406705	0.728463
H100	H	0.650071	-0.452118	0.721819
H101	H	0.692840	-0.452047	0.820116
C102	C	0.449618	-0.181582	0.417534
H103	H	0.473699	-0.161644	0.371907
H104	H	0.428288	-0.201553	0.365162
H105	H	0.428348	-0.158820	0.463556
H106	H	-0.044925	-0.191195	0.439573
H107	H	0.556495	-0.312619	0.717385
C108	C	0.825693	-0.443114	0.417400
H109	H	0.820884	-0.406685	0.428352
H110	H	0.860823	-0.452020	0.435038
H111	H	0.818052	-0.452105	0.336747
C112	C	0.564284	-0.181575	0.417507
H113	H	0.600714	-0.186367	0.428484
H114	H	0.555312	-0.189182	0.336833
H115	H	0.555360	-0.146454	0.435236
C116	C	0.449647	-0.322179	0.739343
H117	H	0.473735	-0.342113	0.784954
H118	H	0.428376	-0.302203	0.791728
H119	H	0.428317	-0.344944	0.693355
C120	C	0.313118	-0.355655	0.816028
H121	H	0.289035	-0.375584	0.861668
H122	H	0.334396	-0.378417	0.770037
H123	H	0.334441	-0.335673	0.868404
C124	C	0.198467	-0.355642	0.816098
H125	H	0.222553	-0.375570	0.861728
H126	H	0.177202	-0.335650	0.868464
H127	H	0.177132	-0.378413	0.770141
C128	C	-0.052707	-0.322222	0.739484
H129	H	-0.089137	-0.317424	0.728524
H130	H	-0.043786	-0.357345	0.721786
H131	H	-0.043732	-0.314602	0.820156
C132	C	0.061962	-0.322217	0.739447
H133	H	0.037884	-0.342154	0.785085
H134	H	0.083242	-0.344973	0.693444
H135	H	0.083283	-0.302236	0.791827
H136	H	0.816192	-0.549970	0.439355
H137	H	0.849697	-0.702090	0.362721
H138	H	0.816332	-0.953266	0.439448
C139	C	0.859288	-0.808938	0.340830
H140	H	0.854516	-0.845370	0.351805
H141	H	0.851644	-0.800015	0.260180
H142	H	0.894414	-0.799951	0.358473
C143	C	0.825924	-1.060130	0.417571
H144	H	0.821144	-1.096559	0.428573
H145	H	0.818287	-1.051217	0.336911
H146	H	0.861050	-1.051146	0.435221
