data_functionalizedCrystal
_audit_creation_method	'MofGen! by Chris Wilmer'
_symmetry_space_group_name_H-M	'P1'
_symmetry_Int_Tables_number	1
_symmetry_cell_setting	triclinic
loop_
_symmetry_equiv_pos_as_xyz
  x,y,z
_cell_length_a	10.654550
_cell_length_b	10.654534
_cell_length_c	9.730223
_cell_angle_alpha	90.005829
_cell_angle_beta	90.002346
_cell_angle_gamma	84.481654
loop_
_atom_site_label
_atom_site_type_symbol
_atom_site_fract_x
_atom_site_fract_y
_atom_site_fract_z
O1	O	-0.176299	-1.667854	-0.114317
O2	O	-0.193126	-1.302373	-0.114314
O3	O	-0.001972	-1.493517	-0.114305
O4	O	-0.367452	-1.476711	-0.114325
O5	O	-0.001976	-1.493497	0.114274
O6	O	-0.193129	-1.302354	0.114266
O7	O	-0.176302	-1.667835	0.114263
Zn8	Zn	-0.184717	-1.485091	0.150556
Zn9	Zn	-0.184712	-1.485117	-0.150607
O10	O	-0.367456	-1.476691	0.114255
C11	C	-0.191896	-1.255565	-0.000024
C12	C	-0.188212	-1.116121	-0.000022
C13	C	-0.186480	-1.050605	0.124579
C14	C	-0.182998	-0.919585	0.124582
C15	C	-0.182985	-0.919607	-0.124628
C16	C	-0.186459	-1.050626	-0.124630
C17	C	-0.414252	-1.477935	-0.000038
C18	C	-0.553695	-1.481627	-0.000046
C19	C	-0.633187	-1.369084	-0.000032
C20	C	-0.764207	-1.372561	-0.000022
C21	C	-0.736231	-1.601132	-0.000035
C22	C	-0.605213	-1.597654	-0.000055
C23	C	-0.581669	-1.253057	-0.000024
C24	C	-0.661162	-1.140505	-0.000008
C25	C	-0.792183	-1.143982	0.000001
C26	C	-0.843710	-1.260010	-0.000004
C27	C	0.044824	-1.492273	-0.000016
C28	C	0.184267	-1.488581	-0.000017
N29	N	-0.184719	-1.485083	0.356093
C30	C	-0.177542	-0.714642	-0.000024
C31	C	-0.181257	-0.854082	-0.000017
C32	C	-0.269325	-1.400432	0.428050
C33	C	-0.269325	-1.400456	0.571933
C34	C	-0.100101	-1.569784	0.571889
C35	C	-0.100109	-1.569765	0.428008
C36	C	-0.353935	-1.315749	0.356135
C37	C	-0.438547	-1.231091	0.428093
C38	C	-0.438547	-1.231115	0.571976
C39	C	-0.353934	-1.315797	0.643901
N40	N	-0.184711	-1.485125	0.643856
H41	H	-0.181559	-0.866265	-0.226079
H42	H	-0.856903	-1.052337	0.000001
O43	O	-0.354138	-1.315830	0.216369
C44	C	-0.473606	-1.342333	0.168284
H45	H	-0.523172	-1.394852	0.251181
H46	H	-0.461674	-1.403296	0.072010
H47	H	-0.532577	-1.250286	0.142779
H48	H	-0.031216	-1.638697	0.369420
H49	H	-0.187866	-1.103971	-0.226101
O50	O	-0.610965	-1.027879	-0.000192
C51	C	-0.536053	-1.019024	-0.118599
H52	H	-0.504285	-1.117731	-0.158071
H53	H	-0.449838	-0.968209	-0.091980
H54	H	-0.593458	-0.963973	-0.201490
O55	O	-0.970991	-1.263332	0.000258
C56	C	-1.022416	-1.201772	0.118635
H57	H	-0.946647	-1.201768	0.201359
H58	H	-1.104026	-1.253344	0.158395
H59	H	-1.058159	-1.100428	0.091876
O60	O	-0.786489	-1.713726	0.000031
C61	C	-0.919175	-1.692662	0.000020
H62	H	-0.949081	-1.594915	0.043298
H63	H	-0.960027	-1.766963	0.066391
H64	H	-0.955712	-1.699075	-0.109635
H65	H	-0.353950	-1.315817	0.761060
H66	H	-0.540488	-1.689296	-0.000073
O67	O	-0.017732	-1.651971	0.641605
C68	C	0.106781	-1.630447	0.606476
H69	H	0.107064	-1.582036	0.502016
H70	H	0.167767	-1.724308	0.601539
H71	H	0.146195	-1.567597	0.687462
O72	O	-0.188109	-1.114043	0.245740
C73	C	-0.185862	-1.028111	0.355716
H74	H	-0.143696	-0.939576	0.319186
H75	H	-0.125996	-1.073405	0.442864
H76	H	-0.286071	-1.001867	0.394027
H77	H	-0.507443	-1.162153	0.369524
O78	O	-0.520783	-1.148766	0.641664
C79	C	-0.595481	-1.074048	0.547331
H80	H	-0.543975	-1.072174	0.444771
H81	H	-0.613706	-0.973924	0.588929
H82	H	-0.689161	-1.115623	0.532013
H83	H	-0.474987	-1.250213	-0.000030
O84	O	-0.181090	-0.855919	0.245587
C85	C	-0.070511	-0.793402	0.253043
H86	H	0.004331	-0.842178	0.182335
H87	H	-0.034029	-0.796375	0.363250
H88	H	-0.092419	-0.691101	0.219575
