data_functionalizedCrystal
_audit_creation_method	'MofGen! by Chris Wilmer'
_symmetry_space_group_name_H-M	'P1'
_symmetry_Int_Tables_number	1
_symmetry_cell_setting	triclinic
loop_
_symmetry_equiv_pos_as_xyz
  x,y,z
_cell_length_a	10.540539
_cell_length_b	17.699083
_cell_length_c	16.776229
_cell_angle_alpha	90.007545
_cell_angle_beta	89.994937
_cell_angle_gamma	96.095747
loop_
_atom_site_label
_atom_site_type_symbol
_atom_site_fract_x
_atom_site_fract_y
_atom_site_fract_z
O1	O	1.683941	-0.106662	-0.066252
O2	O	1.314344	-0.116711	-0.066262
O3	O	1.509585	-0.001565	-0.066250
O4	O	1.488701	-0.221808	-0.066265
O5	O	1.509559	-0.001558	0.066326
O6	O	1.314318	-0.116704	0.066314
O7	O	1.683915	-0.106654	0.066324
Zn8	Zn	1.499113	-0.111678	0.087368
Zn9	Zn	1.499147	-0.111687	-0.087307
O10	O	1.488675	-0.221800	0.066312
C11	C	1.508823	0.026641	0.000038
C12	C	1.506578	0.110673	0.000038
C13	C	1.267042	-0.115954	0.000025
C14	C	1.126135	-0.113699	0.000021
C15	C	1.489436	-0.250006	0.000022
C16	C	1.491681	-0.334038	0.000016
C17	C	0.944289	-0.027300	0.000336
C18	C	1.090865	-0.029586	0.000029
C19	C	1.063737	-0.154182	-0.075686
C20	C	0.917245	-0.151311	-0.075741
C21	C	0.916696	-0.153014	0.075023
C22	C	1.063664	-0.153789	0.076015
C23	C	1.731217	-0.107412	0.000035
C24	C	1.872124	-0.109666	0.000034
N25	N	1.499099	-0.111671	0.206580
C26	C	1.621180	0.158549	0.000043
C27	C	1.619064	0.237506	0.000036
C28	C	1.502343	0.268586	0.000030
C29	C	1.387732	0.220704	0.000023
C30	C	1.389851	0.141748	0.000025
C31	C	1.379187	0.539122	0.000017
C32	C	1.377078	0.618084	0.000018
C33	C	1.608400	0.634880	0.000027
C34	C	1.610518	0.555925	0.000029
C35	C	1.495908	0.508050	0.000018
C36	C	1.498205	0.422436	0.000024
C37	C	1.500045	0.354198	0.000029
N38	N	1.499171	-0.111688	-0.206518
C39	C	1.585577	-0.060705	0.248302
C40	C	1.585584	-0.060705	0.331754
C41	C	1.499118	-0.111674	0.373483
C42	C	1.412630	-0.162642	0.331754
C43	C	1.412618	-0.162638	0.248304
C44	C	1.412676	-0.162657	0.668301
C45	C	1.412697	-0.162658	0.751758
C46	C	1.585642	-0.060724	0.751752
C47	C	1.585630	-0.060720	0.668302
C48	C	1.499139	-0.111685	0.626581
C49	C	1.499130	-0.111684	0.536092
C50	C	1.499131	-0.111679	0.463969
H51	H	1.134051	0.002268	0.054300
C52	C	0.874749	-0.116230	0.152549
N53	N	0.843158	-0.088515	0.210937
H54	H	1.285864	0.500152	0.000008
H55	H	1.656065	-0.019223	0.785730
C56	C	1.263779	0.089085	0.000022
N57	N	1.168818	0.049419	0.000018
C58	C	1.119669	-0.113812	0.151681
N59	N	1.161851	-0.083695	0.208671
H60	H	1.086767	-0.215113	0.080582
C61	C	1.749584	0.124370	0.000049
N62	N	1.846302	0.098628	0.000050
H63	H	1.655994	-0.019204	0.214333
C64	C	0.904294	0.017405	-0.072589
N65	N	0.874165	0.051076	-0.127516
H66	H	1.701721	0.673870	0.000032
C67	C	1.317495	-0.218710	0.202409
N68	N	1.245845	-0.260946	0.167843
H69	H	1.656001	-0.019205	0.365725
H70	H	1.342254	-0.204155	0.634339
H71	H	0.868358	-0.213769	0.075530
C72	C	1.248670	0.652269	0.000005
N73	N	1.151959	0.678018	-0.000005
H74	H	1.106851	-0.126066	-0.132026
C75	C	1.259338	0.254894	0.000024
N76	N	1.162629	0.280646	0.000030
C77	C	1.317504	-0.218701	0.377658
N78	N	1.245852	-0.260926	0.412232
H79	H	1.712384	0.276484	0.000041
C80	C	1.092415	-0.237631	-0.079503
N81	N	1.114019	-0.300484	-0.082377
H82	H	1.342281	-0.204165	0.785732
H83	H	0.916300	0.005933	0.054631
C84	C	1.738919	0.521742	0.000035
N85	N	1.835634	0.495997	0.000036
C86	C	1.148073	0.013739	-0.073412
N87	N	1.191161	0.046372	-0.128732
C88	C	1.680747	-0.004649	0.622405
N89	N	1.752387	0.037589	0.587837
H90	H	0.868170	-0.211805	-0.079182
C91	C	0.879887	-0.110890	-0.152185
N92	N	0.851756	-0.080441	-0.209762
