data_functionalizedCrystal
_audit_creation_method	'MofGen! by Chris Wilmer'
_symmetry_space_group_name_H-M	'P1'
_symmetry_Int_Tables_number	1
_symmetry_cell_setting	triclinic
loop_
_symmetry_equiv_pos_as_xyz
  x,y,z
_cell_length_a	14.044220
_cell_length_b	12.503572
_cell_length_c	14.044220
_cell_angle_alpha	93.849209
_cell_angle_beta	86.811122
_cell_angle_gamma	93.847148
loop_
_atom_site_label
_atom_site_type_symbol
_atom_site_fract_x
_atom_site_fract_y
_atom_site_fract_z
O1	O	1.272120	-0.089212	-0.235211
O2	O	0.995447	-0.089239	-0.226907
O3	O	1.129631	-0.089215	-0.092722
O4	O	1.137936	-0.089236	-0.369395
O5	O	1.139726	0.089429	-0.082618
O6	O	1.005542	0.089405	-0.216802
O7	O	1.282215	0.089432	-0.225106
Cu8	Cu	1.144800	0.105730	-0.220031
Cu9	Cu	1.132862	-0.105537	-0.231981
O10	O	1.148031	0.089408	-0.359290
C11	C	0.964873	0.000080	-0.218219
C12	C	0.858729	0.000070	-0.207375
C13	C	0.664393	0.000092	-0.187547
C14	C	0.613263	0.000091	-0.264462
C15	C	0.505127	0.000104	-0.253429
C16	C	0.772538	0.000080	-0.198578
N17	N	1.124465	-0.254131	-0.240379
C18	C	1.112105	-0.473248	-0.252732
C19	C	1.165562	-0.526566	-0.199276
C20	C	1.158684	-0.648490	-0.206150
C21	C	1.118981	-0.351313	-0.245860
C22	C	1.312790	0.000111	-0.233794
C23	C	1.418932	0.000114	-0.244639
C24	C	1.131043	0.000107	-0.052048
C25	C	1.120199	0.000107	0.054094
N26	N	1.153204	0.254324	-0.211627
C27	C	1.146619	0.000084	-0.399965
C28	C	1.157463	0.000077	-0.506108
C29	C	1.100371	0.000090	0.248431
C30	C	1.177286	0.000094	0.299561
C31	C	1.166254	0.000084	0.407697
C32	C	1.111402	0.000099	0.140286
H33	H	0.626957	0.000104	-0.113419
H34	H	0.650702	0.000081	-0.338596
C35	C	1.234355	-0.464537	-0.130467
H36	H	1.230005	-0.389540	-0.134804
H37	H	1.297935	-0.482893	-0.147248
H38	H	1.217546	-0.482897	-0.066889
C39	C	1.043296	-0.535276	-0.321517
H40	H	1.047636	-0.610273	-0.317161
H41	H	1.060074	-0.516929	-0.385099
H42	H	0.979718	-0.516914	-0.304708
H43	H	1.026243	0.000080	0.285868
H44	H	1.251416	0.000029	0.262118
