data_functionalizedCrystal
_audit_creation_method	'MofGen! by Chris Wilmer'
_symmetry_space_group_name_H-M	'P1'
_symmetry_Int_Tables_number	1
_symmetry_cell_setting	triclinic
loop_
_symmetry_equiv_pos_as_xyz
  x,y,z
_cell_length_a	15.297475
_cell_length_b	15.297327
_cell_length_c	15.296720
_cell_angle_alpha	107.319222
_cell_angle_beta	88.382886
_cell_angle_gamma	88.374454
loop_
_atom_site_label
_atom_site_type_symbol
_atom_site_fract_x
_atom_site_fract_y
_atom_site_fract_z
Zn1	Zn	1.116342	0.695081	0.823122
Zn2	Zn	1.616342	1.195081	1.323122
Zn3	Zn	1.116246	0.823682	0.694497
Zn4	Zn	1.616246	1.323682	1.194497
Zn5	Zn	1.005113	0.644908	0.644396
Zn6	Zn	1.505113	1.144908	1.144396
Zn7	Zn	0.946204	0.814903	0.814406
Zn8	Zn	1.446204	1.314903	1.314406
O9	O	1.045976	0.744644	0.744105
O10	O	1.545976	1.244644	1.244105
O11	O	1.234042	0.736812	0.830675
O12	O	1.734042	1.236812	1.330675
O13	O	1.126118	0.782644	0.562870
O14	O	1.626118	1.282644	1.062870
O15	O	1.044561	0.526600	0.650785
O16	O	1.544561	1.026600	1.150785
O17	O	1.233972	0.831295	0.736174
O18	O	1.733972	1.331295	1.236174
O19	O	1.126281	0.563461	0.782095
O20	O	1.626281	1.063461	1.282095
O21	O	1.044469	0.651299	0.526062
O22	O	1.544469	1.151299	1.026062
O23	O	0.879585	0.642787	0.642333
O24	O	1.379585	1.142787	1.142333
O25	O	0.944159	0.816332	0.940543
O26	O	1.444159	1.316332	1.440543
O27	O	0.836305	0.767682	0.767239
O28	O	1.336305	1.267682	1.267239
O29	O	1.069159	0.728299	0.946946
O30	O	1.569159	1.228299	1.446946
O31	O	1.068996	0.947482	0.727722
O32	O	1.568996	1.447482	1.227722
O33	O	0.944066	0.941032	0.815819
O34	O	1.444066	1.441032	1.315819
C35	C	0.827423	0.698838	0.698404
C36	C	1.327423	1.198838	1.198404
C37	C	0.733917	0.679267	0.678877
C38	C	1.233917	1.179267	1.178877
C39	C	1.000147	0.976666	0.776286
C40	C	1.500147	1.476666	1.276286
C41	C	0.980613	1.075946	0.790099
C42	C	1.480613	1.575946	1.290099
C43	C	0.380296	0.884531	0.883671
C44	C	0.880296	1.384531	1.383671
C45	C	0.468149	0.902925	0.902016
C46	C	0.968149	1.402925	1.402016
C47	C	0.534595	0.847012	0.846233
C48	C	1.034595	1.347012	1.346233
C49	C	0.513180	0.772701	0.772102
C50	C	1.013180	1.272701	1.272102
C51	C	0.425318	0.754309	0.753750
C52	C	0.925318	1.254309	1.253750
C53	C	0.579617	0.716791	0.716312
C54	C	1.079617	1.216791	1.216312
C55	C	0.558202	0.642480	0.642181
C56	C	1.058202	1.142480	1.142181
C57	C	0.470348	0.624091	0.623833
C58	C	0.970348	1.124091	1.123833
C59	C	0.403902	0.680004	0.679616
C60	C	0.903902	1.180004	1.179616
C61	C	0.667479	0.735183	0.734664
C62	C	1.167479	1.235183	1.234664
C63	C	0.712501	0.604961	0.604743
C64	C	1.212501	1.104961	1.104743
C65	C	0.624648	0.586567	0.586398
C66	C	1.124648	1.086567	1.086398
C67	C	1.000098	0.776933	0.977057
C68	C	1.500098	1.276933	1.477057
C69	C	0.980548	0.790693	1.076327
C70	C	1.480548	1.290693	1.576327
C71	C	1.265382	0.790629	0.789986
C72	C	1.765382	1.290629	1.289986
C73	C	1.358880	0.810225	0.809537
C74	C	1.858880	1.310225	1.309537
C75	C	1.092003	0.511723	0.711823
C76	C	1.592003	1.011723	1.211823
C77	C	1.111617	0.412466	0.698067
C78	C	1.611617	0.912466	1.198067
C79	C	1.185880	1.369169	0.645759
C80	C	1.685880	1.869169	1.145759
C81	C	1.204235	1.275889	0.632777
C82	C	1.704235	1.775889	1.132777
C83	C	1.148331	1.225899	0.672106
C84	C	1.648331	1.725899	1.172106
C85	C	1.074069	1.269198	0.724420
C86	C	1.574069	1.769198	1.224420
C87	C	1.055710	1.362485	0.737398
C88	C	1.555710	1.862485	1.237398
C89	C	1.018160	1.219215	0.763745
C90	C	1.518160	1.719215	1.263745
C91	C	0.943898	1.262513	0.816059
C92	C	1.443898	1.762513	1.316059
C93	C	0.925542	1.355791	0.829035
C94	C	1.425542	1.855791	1.329035
C95	C	0.981446	1.405781	0.789706
C96	C	1.481446	1.905781	1.289706
C97	C	1.036520	1.125928	0.750767
C98	C	1.536520	1.625928	1.250767
C99	C	0.906349	1.119243	0.842406
C100	C	1.406349	1.619243	1.342406
C101	C	0.887995	1.212523	0.855389
C102	C	1.387995	1.712523	1.355389
C103	C	1.091736	0.712426	0.512061
C104	C	1.591736	1.212426	1.012061
C105	C	1.111499	0.698449	0.412791
C106	C	1.611499	1.198449	0.912791
C107	C	1.185768	0.646151	1.369491
C108	C	1.685768	1.146151	1.869491
C109	C	1.204141	0.633225	1.276224
C110	C	1.704141	1.133225	1.776224
C111	C	1.148244	0.672591	1.226245
C112	C	1.648244	1.172591	1.726245
C113	C	1.073971	0.724884	1.269543
C114	C	1.573971	1.224884	1.769543
C115	C	1.055600	0.737817	1.362821
C116	C	1.555600	1.237817	1.862821
C117	C	1.018076	0.764257	1.219575
C118	C	1.518076	1.264257	1.719575
C119	C	0.943803	0.816551	1.262873
C120	C	1.443803	1.316551	1.762873
C121	C	0.925434	0.829480	1.356142
C122	C	1.425434	1.329480	1.856142
C123	C	0.981331	0.790115	1.406121
C124	C	1.481331	1.290115	1.906121
C125	C	1.036448	0.751324	1.126296
C126	C	1.536448	1.251324	1.626296
C127	C	0.906280	0.842991	1.119626
C128	C	1.406280	1.342991	1.619626
C129	C	0.887906	0.855916	1.212894
C130	C	1.387906	1.355916	1.712894
H131	H	0.684906	0.795687	0.795023
H132	H	1.184906	1.295687	1.295023
H133	H	1.264697	1.240639	0.590182
H134	H	1.764697	1.740639	1.090182
H135	H	1.096984	1.090683	0.708172
H136	H	1.596984	1.590683	1.208172
H137	H	1.163209	0.662064	1.150302
H138	H	1.663209	1.162064	1.650302
O139	O	0.491242	0.983071	0.981967
O140	O	0.991242	1.483071	1.481967
H141	H	0.563496	0.986474	0.985349
H142	H	1.063496	1.486474	1.485349
O143	O	0.308642	0.944857	0.943820
O144	O	0.808642	1.444857	1.443820
H145	H	0.314701	0.942927	1.015364
H146	H	0.814701	1.442927	1.515364
H147	H	0.860765	0.875047	1.078934
H148	H	1.360765	1.375047	1.578934
H149	H	1.231385	1.409877	0.613736
H150	H	1.731385	1.909877	1.113736
H151	H	0.827432	0.898494	1.248160
H152	H	1.327432	1.398494	1.748160
O153	O	0.309151	0.660147	0.659800
O154	O	0.809151	1.160147	1.159800
H155	H	0.295728	0.663890	0.590047
H156	H	0.795728	1.163890	1.090047
H157	H	0.966375	0.800636	1.482068
H158	H	1.466375	1.300636	1.982068
O159	O	0.447245	0.543946	0.543876
O160	O	0.947245	1.043946	1.043876
H161	H	0.508205	0.508149	0.508174
H162	H	1.008205	1.008149	1.008174
H163	H	0.606128	0.861993	0.861175
H164	H	1.106128	1.361993	1.361175
H165	H	0.607199	0.526062	0.526039
H166	H	1.107199	1.026062	1.026039
H167	H	0.864962	0.872070	1.391395
H168	H	1.364962	1.372070	1.891395
O169	O	0.784157	0.544643	0.544571
O170	O	1.284157	1.044643	1.044571
H171	H	0.848846	0.569909	0.569792
H172	H	1.348846	1.069909	1.069792
H173	H	0.966508	1.481738	0.800276
H174	H	1.466508	1.981738	1.300276
O175	O	1.284247	0.576829	1.229530
O176	O	1.784247	1.076829	1.729530
H177	H	1.263953	0.517616	1.172859
H178	H	1.763953	1.017616	1.672859
O179	O	1.116551	0.694926	1.079598
O180	O	1.616551	1.194926	1.579598
H181	H	1.112447	0.624296	1.084766
H182	H	1.612447	1.124296	1.584766
H183	H	1.231275	0.614111	1.410194
H184	H	1.731275	1.114111	1.910194
H185	H	1.163279	1.149947	0.661531
H186	H	1.663279	1.649947	1.161531
H187	H	0.865066	1.391038	0.871621
H188	H	1.365066	1.891038	1.371621
H189	H	0.827530	1.247790	0.897983
H190	H	1.327530	1.747790	1.397983
H191	H	0.860826	1.078541	0.874430
H192	H	1.360826	1.578541	1.374430
