data_functionalizedCrystal
_audit_creation_method	'MofGen! by Chris Wilmer'
_symmetry_space_group_name_H-M	'P1'
_symmetry_Int_Tables_number	1
_symmetry_cell_setting	triclinic
loop_
_symmetry_equiv_pos_as_xyz
  x,y,z
_cell_length_a	10.654550
_cell_length_b	11.792241
_cell_length_c	9.730223
_cell_angle_alpha	89.995449
_cell_angle_beta	89.999957
_cell_angle_gamma	84.339173
loop_
_atom_site_label
_atom_site_type_symbol
_atom_site_fract_x
_atom_site_fract_y
_atom_site_fract_z
O1	O	1.667388	0.159420	-0.114188
O2	O	1.301867	0.174608	-0.114213
O3	O	1.493498	0.001864	-0.114190
O4	O	1.475757	0.332164	-0.114211
O5	O	1.493485	0.001859	0.114390
O6	O	1.301854	0.174603	0.114367
O7	O	1.667376	0.159415	0.114392
Zn8	Zn	1.484613	0.167008	0.150671
Zn9	Zn	1.484629	0.167015	-0.150493
O10	O	1.475745	0.332159	0.114369
C11	C	1.255066	0.173491	0.000074
C12	C	1.115632	0.170154	0.000064
C13	C	1.035859	0.271863	0.000062
C14	C	0.904847	0.268721	0.000086
C15	C	0.933394	0.062152	0.000109
C16	C	1.064403	0.065295	0.000095
C17	C	1.492377	-0.040432	0.000099
C18	C	1.489042	-0.166453	0.000098
C19	C	1.482908	-0.397180	0.000074
C20	C	1.486316	-0.268787	0.000087
C21	C	1.714177	0.160533	0.000102
C22	C	1.853611	0.163869	0.000103
C23	C	1.476865	0.374455	0.000077
C24	C	1.480201	0.500477	0.000069
N25	N	1.484611	0.167003	0.356208
N26	N	1.484641	0.167011	-0.356029
C27	C	1.569494	0.090545	0.428144
C28	C	1.569507	0.090545	0.572027
C29	C	1.399749	0.243473	0.572025
C30	C	1.399731	0.243466	0.428145
H31	H	0.839900	0.351543	0.000087
O32	O	0.883566	-0.039673	-0.000118
C33	C	0.808606	-0.047657	-0.118478
H34	H	0.839983	0.011900	-0.201229
H35	H	0.705484	-0.022290	-0.091707
C36	C	0.785102	-0.244248	-0.070511
C37	C	0.823648	-0.171106	-0.172152
H38	H	0.794375	-0.320397	-0.103618
H39	H	0.835600	-0.238869	0.009233
H40	H	0.699169	-0.223095	-0.048212
H41	H	0.909583	-0.192251	-0.194437
H42	H	0.773165	-0.176492	-0.251902
O43	O	1.085415	0.373815	0.000105
C44	C	0.986905	0.462911	0.000075
H45	H	0.897707	0.430389	0.043363
H46	H	0.968572	0.494336	-0.109586
C47	C	1.134111	0.601661	0.036538
C48	C	1.024558	0.561719	0.089716
H49	H	1.157337	0.662613	0.091826
H50	H	1.200480	0.541636	0.036552
H51	H	1.118818	0.627840	-0.054846
H52	H	1.039857	0.535527	0.181091
H53	H	0.958192	0.621742	0.089718
O54	O	1.651837	0.016328	0.358050
C55	C	1.633576	0.032669	0.215631
H56	H	1.587320	0.122538	0.195947
H57	H	1.570075	-0.032065	0.174873
C58	C	1.818706	-0.093808	0.165880
C59	C	1.761903	0.016573	0.141704
H60	H	1.897862	-0.103742	0.120277
H61	H	1.831007	-0.104822	0.261831
H62	H	1.765776	-0.147741	0.131916
H63	H	1.814826	0.070503	0.175684
H64	H	1.749614	0.027595	0.045757
H65	H	1.129359	-0.017534	0.000101
H66	H	1.330643	0.305729	0.630610
O67	O	1.317225	0.317853	0.358470
C68	C	1.242298	0.385330	0.452812
H69	H	1.293804	0.387057	0.555368
H70	H	1.148762	0.347688	0.468135
C71	C	1.153968	0.505431	0.270670
C72	C	1.217233	0.507561	0.396628
H73	H	1.138501	0.580828	0.236012
H74	H	1.204444	0.459969	0.207108
H75	H	1.076029	0.474058	0.283456
H76	H	1.295177	0.538920	0.383837
H77	H	1.166769	0.553031	0.460186
H78	H	1.638625	0.028285	0.630593
