data_functionalizedCrystal
_audit_creation_method	'MofGen! by Chris Wilmer'
_symmetry_space_group_name_H-M	'P1'
_symmetry_Int_Tables_number	1
_symmetry_cell_setting	triclinic
loop_
_symmetry_equiv_pos_as_xyz
  x,y,z
_cell_length_a	17.038275
_cell_length_b	16.098662
_cell_length_c	17.038272
_cell_angle_alpha	92.863855
_cell_angle_beta	88.888330
_cell_angle_gamma	87.130498
loop_
_atom_site_label
_atom_site_type_symbol
_atom_site_fract_x
_atom_site_fract_y
_atom_site_fract_z
O1	O	-1.052091	0.069135	0.173862
O2	O	-0.718758	0.402469	0.507195
O3	O	-0.385425	0.735802	0.840528
O4	O	-0.824281	0.069163	0.171155
O5	O	-0.490948	0.402497	0.504488
O6	O	-0.157615	0.735830	0.837821
O7	O	-0.936832	0.069143	0.058602
O8	O	-0.603499	0.402476	0.391935
O9	O	-0.270165	0.735810	0.725269
O10	O	-0.939541	0.069156	0.286414
O11	O	-0.606207	0.402489	0.619748
O12	O	-0.272874	0.735822	0.953081
O13	O	-0.930136	-0.069367	0.051941
O14	O	-0.596803	0.263966	0.385274
O15	O	-0.263469	0.597299	0.718607
O16	O	-0.817585	-0.069347	0.164493
O17	O	-0.484252	0.263986	0.497826
O18	O	-0.150918	0.597320	0.831160
O19	O	-1.045395	-0.069375	0.167200
O20	O	-0.712062	0.263958	0.500533
O21	O	-0.378729	0.597292	0.833867
Zn22	Zn	-0.930427	-0.091352	0.164789
Zn23	Zn	-0.597094	0.241981	0.498122
Zn24	Zn	-0.263760	0.575314	0.831456
Zn25	Zn	-0.939249	0.091141	0.173566
Zn26	Zn	-0.605916	0.424474	0.506899
Zn27	Zn	-0.272583	0.757807	0.840232
O28	O	-0.932844	-0.069354	0.279753
O29	O	-0.599511	0.263979	0.613086
O30	O	-0.266178	0.597312	0.946419
C31	C	-0.791641	-0.000088	0.165361
C32	C	-0.458307	0.333245	0.498694
C33	C	-0.124974	0.666578	0.832028
C34	C	-0.704358	-0.000078	0.158013
C35	C	-0.371024	0.333256	0.491347
C36	C	-0.037691	0.666589	0.824680
C37	C	-0.658749	-0.000074	0.225477
C38	C	-0.325415	0.333260	0.558810
C39	C	0.007918	0.666593	0.892144
C40	C	-0.576736	-0.000084	0.218568
C41	C	-0.243403	0.333249	0.551901
C42	C	0.089931	0.666582	0.885234
C43	C	-0.540335	-0.000093	0.144194
C44	C	-0.207001	0.333240	0.477527
C45	C	0.126332	0.666574	0.810860
C46	C	-0.585950	-0.000099	0.076725
C47	C	-0.252616	0.333234	0.410058
C48	C	0.080717	0.666567	0.743392
C49	C	-0.667960	-0.000095	0.083635
C50	C	-0.334627	0.333239	0.416968
C51	C	-0.001293	0.666572	0.750302
C52	C	-0.292946	-0.000113	0.119782
C53	C	0.040388	0.333221	0.453115
C54	C	0.373721	0.666554	0.786448
C55	C	-0.210929	-0.000115	0.112877
C56	C	0.122404	0.333218	0.446210
C57	C	0.455737	0.666552	0.779543
C58	C	-0.201721	-0.000102	0.254720
C59	C	0.131612	0.333232	0.588053
C60	C	0.464945	0.666565	0.921387
C61	C	-0.283734	-0.000092	0.261624
C62	C	0.049599	0.333241	0.594957
C63	C	0.382933	0.666575	0.928291
C64	C	-0.329342	-0.000103	0.194155
C65	C	0.003992	0.333231	0.527488
C66	C	0.337325	0.666564	0.860821
C67	C	-0.456505	-0.000101	0.137129
C68	C	-0.123172	0.333232	0.470463
C69	C	0.210162	0.666565	0.803796
C70	C	-0.413169	-0.000100	0.201220
C71	C	-0.079836	0.333233	0.534553
C72	C	0.253497	0.666566	0.867886
N73	N	-0.924412	-0.215899	0.158799
N74	N	-0.591078	0.117434	0.492132
N75	N	-0.257745	0.450768	0.825466
C76	C	-0.931021	-0.000112	0.025979
C77	C	-0.597688	0.333222	0.359312
C78	C	-0.264354	0.666555	0.692645
C79	C	-0.923673	-0.000111	-0.061305
C80	C	-0.590340	0.333223	0.272028
C81	C	-0.257006	0.666556	0.605362
C82	C	-0.078036	-0.000118	0.172993
C83	C	0.255297	0.333216	0.506327
C84	C	0.588631	0.666549	0.839660
C85	C	-0.165320	-0.000111	0.180341
C86	C	0.168013	0.333222	0.513674
C87	C	0.501347	0.666556	0.847007
C88	C	-0.896579	-0.740707	0.130834
C89	C	-0.563246	-0.407374	0.464167
C90	C	-0.229913	-0.074041	0.797501
C91	C	-0.900784	-0.653520	0.135055
C92	C	-0.567451	-0.320187	0.468388
C93	C	-0.234117	0.013146	0.801721
C94	C	-0.953677	-0.609940	0.187996
C95	C	-0.620343	-0.276606	0.521329
C96	C	-0.287010	0.056727	0.854662
C97	C	-1.002373	-0.653551	0.236714
C98	C	-0.669040	-0.320217	0.570047
C99	C	-0.335707	0.013116	0.903380
C100	C	-0.998172	-0.740736	0.232489
C101	C	-0.664839	-0.407403	0.565822
C102	C	-0.331505	-0.074070	0.899155
C103	C	-0.968907	-0.346696	0.203292
C104	C	-0.635574	-0.013363	0.536625
C105	C	-0.302240	0.319971	0.869958
C106	C	-0.973103	-0.259504	0.207515
C107	C	-0.639770	0.073829	0.540848
C108	C	-0.306436	0.407163	0.874181
C109	C	-0.871514	-0.259480	0.105854
C110	C	-0.538181	0.073854	0.439188
C111	C	-0.204848	0.407187	0.772521
C112	C	-0.867314	-0.346667	0.101637
C113	C	-0.533981	-0.013334	0.434971
C114	C	-0.200648	0.320000	0.768304
C115	C	-0.916014	-0.390270	0.150352
C116	C	-0.582680	-0.056937	0.483686
C117	C	-0.249347	0.276396	0.817019
C118	C	-0.957974	-0.520820	0.192313
C119	C	-0.624641	-0.187487	0.525646
C120	C	-0.291308	0.145846	0.858979
C121	C	-0.911720	-0.479388	0.146031
C122	C	-0.578386	-0.146055	0.479364
C123	C	-0.245053	0.187278	0.812697
N124	N	-0.945271	0.215687	0.179550
N125	N	-0.611937	0.549021	0.512883
N126	N	-0.278604	0.882354	0.846217
C127	C	-0.991136	-0.000120	-0.106914
C128	C	-0.657803	0.333213	0.226419
C129	C	-0.324470	0.666547	0.559752
C130	C	-0.984228	-0.000111	-0.188926
C131	C	-0.650894	0.333222	0.144407
C132	C	-0.317561	0.666556	0.477741
C133	C	-0.909855	-0.000099	-0.225327
C134	C	-0.576522	0.333234	0.108007
C135	C	-0.243188	0.666568	0.441340
C136	C	-0.842387	-0.000087	-0.179711
C137	C	-0.509054	0.333246	0.153622
C138	C	-0.175720	0.666579	0.486956
C139	C	-0.849297	-0.000090	-0.097701
C140	C	-0.515963	0.333243	0.235633
C141	C	-0.182630	0.666576	0.568966
C142	C	-0.885445	-0.000085	-0.472714
C143	C	-0.552112	0.333249	-0.139381
C144	C	-0.218778	0.666582	0.193953
C145	C	-0.878541	-0.000084	-0.554730
C146	C	-0.545207	0.333249	-0.221397
C147	C	-0.211874	0.666582	0.111936
C148	C	-1.020382	-0.000106	-0.563940
C149	C	-0.687049	0.333227	-0.230606
C150	C	-0.353716	0.666560	0.102727
C151	C	-1.027285	-0.000114	-0.481928
C152	C	-0.693952	0.333219	-0.148594
C153	C	-0.360618	0.666552	0.184739
C154	C	-0.959817	-0.000098	-0.436319
C155	C	-0.626484	0.333235	-0.102986
C156	C	-0.293150	0.666568	0.230348
C157	C	-0.902792	-0.000093	-0.309156
C158	C	-0.569458	0.333241	0.024178
C159	C	-0.236125	0.666574	0.357511
C160	C	-0.966882	-0.000099	-0.352491
C161	C	-0.633548	0.333235	-0.019158
C162	C	-0.300215	0.666568	0.314175
C163	C	-0.938655	-0.000098	0.312376
C164	C	-0.605322	0.333235	0.645710
C165	C	-0.271989	0.666569	0.979043
C166	C	-0.946004	-0.000094	0.399660
C167	C	-0.612670	0.333240	0.732993
C168	C	-0.279337	0.666573	1.066327
H169	H	-0.330070	-0.000122	0.064843
H170	H	0.003264	0.333211	0.398176
H171	H	0.336597	0.666544	0.731510
Cl172	Cl	-1.030124	-0.401500	0.264540
Cl173	Cl	-0.696791	-0.068167	0.597873
Cl174	Cl	-0.363457	0.265166	0.931207
Cl175	Cl	-0.839546	-0.598706	0.073832
Cl176	Cl	-0.506212	-0.265373	0.407165
Cl177	Cl	-0.172879	0.067961	0.740498
H178	H	-0.868657	-0.514875	0.102924
H179	H	-0.535324	-0.181542	0.436258
H180	H	-0.201990	0.151791	0.769591
H181	H	-0.824245	-0.382144	0.058526
H182	H	-0.490911	-0.048811	0.391859
H183	H	-0.157578	0.284522	0.725193
Cl184	Cl	-1.024464	-0.466026	0.258867
Cl185	Cl	-0.691130	-0.132693	0.592201
Cl186	Cl	-0.357797	0.200641	0.925534
Cl187	Cl	-0.519402	-0.000074	0.303384
Cl188	Cl	-0.186069	0.333259	0.636717
Cl189	Cl	0.147264	0.666592	0.970051
Cl190	Cl	-0.410736	-0.000108	0.043634
Cl191	Cl	-0.077403	0.333225	0.376967
Cl192	Cl	0.255930	0.666559	0.710300
Cl193	Cl	-1.084638	-0.000143	-0.061162
Cl194	Cl	-0.751305	0.333190	0.272171
Cl195	Cl	-0.417971	0.666523	0.605504
H196	H	-0.181294	-0.000121	0.052310
H197	H	0.152039	0.333212	0.385643
H198	H	0.485373	0.666546	0.718976
Cl199	Cl	-0.540187	-0.000115	-0.016775
Cl200	Cl	-0.206854	0.333218	0.316559
Cl201	Cl	0.126479	0.666551	0.649892
H202	H	-1.027436	-0.000090	-0.322849
H203	H	-0.694103	0.333243	0.010484
H204	H	-0.360770	0.666577	0.343817
H205	H	-0.830508	-0.000072	-0.435589
H206	H	-0.497174	0.333261	-0.102256
H207	H	-0.163841	0.666595	0.231078
Cl208	Cl	-0.809297	-0.000073	-0.354923
Cl209	Cl	-0.475964	0.333260	-0.021590
Cl210	Cl	-0.142631	0.666593	0.311743
Cl211	Cl	-1.059390	-0.795554	0.293731
Cl212	Cl	-0.726057	-0.462221	0.627064
Cl213	Cl	-0.392723	-0.128888	0.960398
Cl214	Cl	-0.830079	-0.795486	0.064280
Cl215	Cl	-0.496745	-0.462153	0.397613
Cl216	Cl	-0.163412	-0.128819	0.730946
Cl217	Cl	-1.069043	-0.000125	-0.246261
Cl218	Cl	-0.735710	0.333208	0.087073
Cl219	Cl	-0.402376	0.666542	0.420406
H220	H	-0.781831	-0.000072	-0.209355
H221	H	-0.448498	0.333261	0.123979
H222	H	-0.115165	0.666594	0.457312
Cl223	Cl	-0.725298	-0.000103	-0.001181
Cl224	Cl	-0.391964	0.333230	0.332153
Cl225	Cl	-0.058631	0.666563	0.665486
H226	H	-0.831867	-0.223968	0.066193
H227	H	-0.498534	0.109365	0.399526
H228	H	-0.165200	0.442698	0.732860
H229	H	-1.087847	-0.000124	-0.452296
H230	H	-0.754514	0.333209	-0.118963
H231	H	-0.421180	0.666542	0.214370
Cl232	Cl	-0.458933	-0.000092	0.294715
Cl233	Cl	-0.125599	0.333241	0.628048
Cl234	Cl	0.207734	0.666574	0.961381
H235	H	-0.794361	-0.000083	-0.060566
H236	H	-0.461027	0.333251	0.272767
H237	H	-0.127694	0.666584	0.606101
H238	H	-0.688380	-0.000066	0.286040
H239	H	-0.355047	0.333267	0.619374
H240	H	-0.021714	0.666600	0.952707
H241	H	-1.016173	-0.224023	0.250631
H242	H	-0.682840	0.109310	0.583965
H243	H	-0.349507	0.442643	0.917298
H244	H	-1.045443	-0.618060	0.279816
H245	H	-0.712110	-0.284727	0.613149
H246	H	-0.378777	0.048606	0.946482
H247	H	-0.313367	-0.000075	0.322187
H248	H	0.019967	0.333258	0.655521
H249	H	0.353300	0.666591	0.988854
H250	H	-0.164579	-0.000095	0.309649
H251	H	0.168754	0.333239	0.642983
H252	H	0.502088	0.666572	0.976316
Cl253	Cl	-0.785036	-0.000074	-0.600490
Cl254	Cl	-0.451703	0.333259	-0.267157
Cl255	Cl	-0.118369	0.666592	0.066176
Cl256	Cl	-1.105193	-0.000124	-0.621281
Cl257	Cl	-0.771860	0.333209	-0.287947
Cl258	Cl	-0.438527	0.666543	0.045386
