data_functionalizedCrystal
_audit_creation_method	'MofGen! by Chris Wilmer'
_symmetry_space_group_name_H-M	'P1'
_symmetry_Int_Tables_number	1
_symmetry_cell_setting	triclinic
loop_
_symmetry_equiv_pos_as_xyz
  x,y,z
_cell_length_a	12.645331
_cell_length_b	19.121111
_cell_length_c	12.645323
_cell_angle_alpha	87.589835
_cell_angle_beta	89.984262
_cell_angle_gamma	87.530722
loop_
_atom_site_label
_atom_site_type_symbol
_atom_site_fract_x
_atom_site_fract_y
_atom_site_fract_z
Zn1	Zn	1.602644	0.279622	-0.617209
Zn2	Zn	2.102644	0.779622	-0.117209
Zn3	Zn	1.594928	0.397081	-0.447493
Zn4	Zn	2.094928	0.897081	0.052507
Zn5	Zn	1.425357	0.279647	-0.439976
Zn6	Zn	1.925357	0.779647	0.060024
Zn7	Zn	1.417746	0.397036	-0.624727
Zn8	Zn	1.917746	0.897036	-0.124727
O9	O	1.510169	0.338346	-0.532351
O10	O	2.010169	0.838346	-0.032351
O11	O	1.749967	0.295212	-0.594695
O12	O	2.249967	0.795212	-0.094695
O13	O	1.572390	0.381532	-0.298150
O14	O	2.072390	0.881532	0.201850
O15	O	1.455289	0.181359	-0.457195
O16	O	1.955289	0.681359	0.042805
O17	O	1.744298	0.381509	-0.470006
O18	O	2.244298	0.881509	0.029994
O19	O	1.585541	0.181341	-0.587407
O20	O	2.085541	0.681341	-0.087407
O21	O	1.447807	0.295254	-0.292628
O22	O	1.947807	0.795254	0.207372
O23	O	1.276001	0.295210	-0.464485
O24	O	1.776001	0.795210	0.035515
O25	O	1.442317	0.381431	-0.772075
O26	O	1.942317	0.881431	-0.272075
O27	O	1.270409	0.381455	-0.600220
O28	O	1.770409	0.881455	-0.100220
O29	O	1.578161	0.295168	-0.766552
O30	O	2.078161	0.795168	-0.266552
O31	O	1.565010	0.495359	-0.477295
O32	O	2.065010	0.995359	0.022705
O33	O	1.434835	0.495326	-0.607508
O34	O	1.934835	0.995326	-0.107508
C35	C	1.234740	0.338330	-0.532353
C36	C	1.734740	0.838330	-0.032353
C37	C	1.116909	0.338341	-0.532380
C38	C	1.616909	0.838341	-0.032380
C39	C	0.945844	0.392895	-0.617363
C40	C	1.445844	0.892895	-0.117363
C41	C	1.068415	0.392719	-0.617693
C42	C	1.568415	0.892719	-0.117693
C43	C	1.077216	0.264366	-0.558150
C44	C	1.577216	0.764366	-0.058150
C45	C	0.954597	0.264699	-0.558746
C46	C	1.454597	0.764699	-0.058746
C47	C	0.948446	0.357165	-0.421330
C48	C	1.448446	0.857165	0.078670
C49	C	1.070947	0.358783	-0.422039
C50	C	1.570947	0.858783	0.077961
C51	C	1.498288	0.520827	-0.544057
C52	C	1.998288	1.020827	-0.044057
C53	C	1.493302	0.598893	-0.549099
C54	C	1.993302	1.098893	-0.049099
C55	C	1.558788	0.635562	-0.483730
C56	C	2.058788	1.135562	0.016270
C57	C	1.554105	0.708913	-0.488479
C58	C	2.054105	1.208913	0.011521
C59	C	1.483931	0.745594	-0.558593
C60	C	1.983931	1.245594	-0.058593
C61	C	1.418442	0.708919	-0.623970
C62	C	1.918442	1.208919	-0.123970
C63	C	1.423131	0.635569	-0.619225
C64	C	1.923131	1.135569	-0.119225
C65	C	1.466385	0.967063	-0.576312
C66	C	1.966385	1.467063	-0.076312
C67	C	1.461699	1.040418	-0.581050
C68	C	1.961699	1.540418	-0.081050
C69	C	1.597364	1.040407	-0.445560
C70	C	2.097364	1.540407	0.054440
C71	C	1.602042	0.967056	-0.440817
C72	C	2.102042	1.467056	0.059183
C73	C	1.536557	0.930388	-0.506197
C74	C	2.036557	1.430388	-0.006197
C75	C	1.479140	0.820570	-0.563447
C76	C	1.979140	1.320570	-0.063447
C77	C	1.541354	0.855412	-0.501348
C78	C	2.041354	1.355412	-0.001348
C79	C	1.786673	0.338363	-0.532350
C80	C	2.286673	0.838363	-0.032350
C81	C	1.904503	0.338370	-0.532350
C82	C	2.404503	0.838370	-0.032350
C83	C	1.510250	0.338292	-0.808853
C84	C	2.010250	0.838292	-0.308853
C85	C	1.510285	0.338269	-0.926682
C86	C	2.010285	0.838269	-0.426682
C87	C	1.522116	1.155153	-0.520637
C88	C	2.022116	1.655153	-0.020637
C89	C	1.527185	1.077088	-0.515680
C90	C	2.027185	1.577088	-0.015680
C91	C	1.424589	0.392281	-1.097704
C92	C	1.924589	0.892281	-0.597704
C93	C	1.424787	0.392549	-0.975162
C94	C	1.924787	0.892549	-0.475162
C95	C	1.620686	0.358357	-0.972478
C96	C	2.120686	0.858357	-0.472478
C97	C	1.620213	0.358696	-1.095099
C98	C	2.120213	0.858696	-0.595099
C99	C	1.486657	0.263867	-1.089105
C100	C	1.986657	0.763867	-0.589105
C101	C	1.484135	0.264313	-0.966527
C102	C	1.984135	0.764313	-0.466527
C103	C	1.510152	0.338350	-0.256922
C104	C	2.010152	0.838350	0.243078
C105	C	1.510335	0.338175	-0.139081
C106	C	2.010335	0.838175	0.360919
H107	H	1.096509	0.413218	-0.402516
H108	H	1.596509	0.913218	0.097484
Br109	Br	1.355235	0.233348	-1.138665
Br110	Br	1.855235	0.733348	-0.638665
Br111	Br	1.125939	0.297390	-0.311436
Br112	Br	1.625939	0.797390	0.188564
Br113	Br	1.590846	0.196679	-1.133130
Br114	Br	2.090846	0.696679	-0.633130
H115	H	1.440029	0.447637	-0.949383
H116	H	1.940029	0.947637	-0.449383
H117	H	0.921998	0.317449	-0.358046
H118	H	1.421998	0.817449	0.141954
Br119	Br	1.654020	0.585789	-0.388560
Br120	Br	2.154020	1.085789	0.111440
Br121	Br	1.636595	0.805631	-0.406203
Br122	Br	2.136595	1.305631	0.093797
H123	H	1.402914	0.249163	-0.936465
H124	H	1.902914	0.749163	-0.436465
H125	H	0.914095	0.410188	-0.396993
H126	H	1.414095	0.910188	0.103007
H127	H	1.542409	0.221869	-0.933173
H128	H	2.042409	0.721869	-0.433173
Br129	Br	1.697296	0.917281	-0.345672
Br130	Br	2.197296	1.417281	0.154328
Br131	Br	1.686235	1.090175	-0.356839
Br132	Br	2.186235	1.590175	0.143161
H133	H	1.439670	0.447025	-1.132037
H134	H	1.939670	0.947025	-0.632037
Br135	Br	1.366438	1.090198	-0.676193
Br136	Br	1.866438	1.590198	-0.176193
H137	H	0.915847	0.380617	-0.699247
H138	H	1.415847	0.880617	-0.199247
H139	H	1.342771	0.379978	-0.944262
H140	H	1.842771	0.879978	-0.444262
Br141	Br	1.377513	0.917308	-0.665044
Br142	Br	1.877513	1.417308	-0.165044
Br143	Br	1.112629	0.484157	-0.591731
Br144	Br	1.612629	0.984157	-0.091731
H145	H	1.422002	0.850444	-0.620532
H146	H	1.922002	1.350444	-0.120532
Br147	Br	1.654599	0.449233	-1.148601
Br148	Br	2.154599	0.949233	-0.648601
H149	H	1.369807	0.605713	-0.672458
H150	H	1.869807	1.105713	-0.172458
Br151	Br	1.287459	0.371529	-1.145498
Br152	Br	1.787459	0.871529	-0.645498
H153	H	0.912792	0.447933	-0.601981
H154	H	1.412792	0.947933	-0.101981
H155	H	1.361309	0.738790	-0.681063
H156	H	1.861309	1.238790	-0.181063
Br157	Br	1.118683	0.371988	-0.754961
Br158	Br	1.618683	0.871988	-0.254961
H159	H	1.686009	0.320998	-1.122348
H160	H	2.186009	0.820998	-0.622348
Br161	Br	1.729681	0.294752	-0.919828
Br162	Br	2.229681	0.794752	-0.419828
Br163	Br	0.908682	0.238128	-0.693782
Br164	Br	1.408682	0.738128	-0.193782
H165	H	1.607430	0.738766	-0.435247
H166	H	2.107430	1.238766	0.064753
H167	H	0.927638	0.222618	-0.499396
H168	H	1.427638	0.722618	0.000604
Br169	Br	1.130172	0.237306	-0.691675
Br170	Br	1.630172	0.737306	-0.191675
Br171	Br	1.130270	0.194810	-0.457828
Br172	Br	1.630270	0.694810	0.042172
Br173	Br	1.655830	0.447946	-0.927081
Br174	Br	2.155830	0.947946	-0.427081
