data_functionalizedCrystal
_audit_creation_method	'MofGen! by Chris Wilmer'
_symmetry_space_group_name_H-M	'P1'
_symmetry_Int_Tables_number	1
_symmetry_cell_setting	triclinic
loop_
_symmetry_equiv_pos_as_xyz
  x,y,z
_cell_length_a	17.699083
_cell_length_b	27.732048
_cell_length_c	16.776229
_cell_angle_alpha	89.988391
_cell_angle_beta	89.998886
_cell_angle_gamma	82.962835
loop_
_atom_site_label
_atom_site_type_symbol
_atom_site_fract_x
_atom_site_fract_y
_atom_site_fract_z
O1	O	1.003540	0.061127	-0.066185
O2	O	0.783091	0.069080	-0.066212
O3	O	0.900162	-0.005269	-0.066183
O4	O	0.886469	0.135475	-0.066215
O5	O	0.900147	-0.005273	0.066394
O6	O	0.783076	0.069075	0.066364
O7	O	1.003524	0.061122	0.066391
Zn8	Zn	0.893298	0.065098	0.087427
Zn9	Zn	0.893318	0.065104	-0.087248
O10	O	0.886453	0.135471	0.066362
C11	C	0.754889	0.068792	0.000073
C12	C	0.670878	0.067938	0.000063
C13	C	0.621873	0.111579	0.000053
C14	C	0.542936	0.110772	0.000064
C15	C	0.513007	0.066325	0.000078
C16	C	0.562019	0.022680	0.000090
C17	C	0.640954	0.023487	0.000085
C18	C	0.243685	0.019426	0.000111
C19	C	0.164744	0.018623	0.000113
C20	C	0.145667	0.106712	0.000089
C21	C	0.224602	0.107518	0.000084
C22	C	0.273607	0.063874	0.000100
C23	C	0.359199	0.064749	0.000090
C24	C	0.427418	0.065450	0.000082
C25	C	0.899867	-0.023279	0.000108
C26	C	0.899001	-0.076937	0.000114
C27	C	0.962734	-0.415523	0.000081
C28	C	0.959522	-0.617194	0.000070
O29	O	1.017801	-0.648240	0.000042
N30	N	0.890104	-0.636567	0.000062
C31	C	0.821484	-0.605520	0.000051
O32	O	0.762366	-0.626625	0.000036
C33	C	0.824696	-0.403849	0.000057
C34	C	0.894119	-0.384479	0.000073
C35	C	1.032151	-0.396152	0.000096
C36	C	1.032953	-0.345737	0.000103
C37	C	0.964338	-0.314693	0.000095
C38	C	0.894921	-0.334064	0.000080
C39	C	0.756076	-0.372802	0.000041
C40	C	0.756886	-0.322382	0.000041
C41	C	0.826308	-0.303012	0.000057
C42	C	0.827108	-0.252605	0.000080
N43	N	0.896526	-0.233232	0.000088
C44	C	0.965141	-0.264276	0.000095
C45	C	0.819802	-0.711400	0.000050
C46	C	0.818999	-0.761817	0.000050
C47	C	0.957038	-0.773488	0.000067
C48	C	0.957840	-0.723070	0.000072
C49	C	0.889220	-0.692026	0.000058
C50	C	0.966820	-0.158401	0.000111
C51	C	0.967616	-0.107981	0.000122
C52	C	0.829578	-0.096314	0.000101
C53	C	0.828781	-0.146730	0.000095
C54	C	0.897409	-0.177772	0.000097
O55	O	0.768860	-0.221531	0.000099
O56	O	1.024251	-0.243161	0.000093
C57	C	0.961931	-0.465938	0.000074
C58	C	0.892514	-0.485309	0.000059
C59	C	0.823899	-0.454265	0.000051
C60	C	0.891711	-0.535726	0.000059
C61	C	0.960326	-0.566770	0.000067
C62	C	1.029744	-0.547397	0.000074
C63	C	1.030546	-0.496982	0.000082
C64	C	0.754481	-0.473638	0.000043
C65	C	0.753685	-0.524053	0.000037
C66	C	0.822300	-0.555097	0.000045
C67	C	1.031726	0.061410	0.000105
C68	C	1.115737	0.062264	0.000109
C69	C	0.886748	0.153481	0.000069
C70	C	0.887614	0.207139	0.000058
N71	N	0.893289	0.065094	0.206638
N72	N	0.893332	0.065105	-0.206459
C73	C	0.945144	0.032186	0.248368
C74	C	0.945148	0.032185	0.331821
C75	C	0.893301	0.065095	0.373541
C76	C	0.841441	0.098005	0.331805
C77	C	0.841433	0.098003	0.248354
C78	C	0.841468	0.098015	0.668352
C79	C	0.841481	0.098015	0.751809
C80	C	0.945182	0.032197	0.751819
C81	C	0.945175	0.032195	0.668368
C82	C	0.893313	0.065102	0.626639
C83	C	0.893308	0.065102	0.536151
C84	C	0.893309	0.065099	0.464028
H85	H	1.024151	-0.092213	0.000137
C86	C	0.784428	0.134215	0.622461
H87	H	0.753559	0.153819	0.659262
H88	H	0.753122	0.116854	0.589918
H89	H	0.811418	0.154317	0.589896
C90	C	0.257520	0.156410	0.000072
H91	H	0.217028	0.182287	0.000075
H92	H	0.287916	0.158559	-0.046161
H93	H	0.287915	0.158552	0.046309
C94	C	0.784397	0.134202	0.202447
H95	H	0.791813	0.129484	0.146773
H96	H	0.792234	0.166457	0.216108
H97	H	0.733947	0.128988	0.216133
H98	H	0.799222	0.124800	0.365779
C99	C	1.109316	-0.324434	0.000116
H100	H	1.099978	-0.289960	0.000123
H101	H	1.137547	-0.335091	-0.046112
H102	H	1.137533	-0.335104	0.046358
H103	H	1.022703	-0.183670	0.000110
C104	C	0.654788	0.160472	0.000037
H105	H	0.614293	0.186347	0.000040
H106	H	0.685182	0.162620	-0.046197
H107	H	0.685184	0.162615	0.046273
H108	H	0.140380	-0.017574	0.000126
C109	C	0.489033	0.158777	0.000050
H110	H	0.518163	0.185364	0.000031
H111	H	0.457847	0.160295	0.046285
H112	H	0.457842	0.160294	-0.046186
C113	C	0.752419	-0.168038	0.000075
H114	H	0.711670	-0.142327	0.000067
H115	H	0.749223	-0.187475	0.046298
H116	H	0.749248	-0.187451	-0.046172
C117	C	0.784444	0.134215	0.797704
H118	H	0.791884	0.129506	0.853380
H119	H	0.733994	0.129004	0.784041
H120	H	0.792281	0.166471	0.784013
H121	H	0.762468	-0.777584	0.000051
H122	H	0.283576	-0.016112	0.000125
H123	H	0.537645	-0.013510	0.000113
H124	H	0.773714	-0.071029	0.000098
H125	H	0.987367	0.005388	0.214405
H126	H	0.105758	0.142249	0.000080
H127	H	1.087078	-0.481215	0.000094
C128	C	1.105219	-0.581551	0.000077
H129	H	1.094791	-0.614351	0.000064
H130	H	1.133712	-0.575699	0.046310
H131	H	1.133709	-0.575681	-0.046160
H132	H	0.763920	-0.686128	0.000038
C133	C	1.107634	-0.430293	0.000111
H134	H	1.149084	-0.411528	0.000126
H135	H	1.110209	-0.450202	-0.046118
H136	H	1.110185	-0.450206	0.046353
H137	H	0.987409	0.005400	0.785803
H138	H	0.680855	-0.012050	0.000093
H139	H	1.014370	-0.707302	0.000085
H140	H	0.699545	-0.388565	0.000024
C141	C	1.032512	-0.807642	0.000063
H142	H	1.022085	-0.840442	0.000052
H143	H	1.061011	-0.801790	0.046292
H144	H	1.060997	-0.801772	-0.046178
C145	C	1.002195	-0.004009	0.377721
H146	H	1.033080	-0.023604	0.340921
H147	H	0.975218	-0.024112	0.410289
H148	H	1.033496	0.013362	0.410261
C149	C	0.681402	-0.288237	0.000028
H150	H	0.639946	-0.306998	0.000024
H151	H	0.678850	-0.268319	-0.046201
H152	H	0.678837	-0.268335	0.046269
C153	C	0.677315	-0.545355	0.000017
H154	H	0.636569	-0.519641	0.000005
H155	H	0.674115	-0.564790	0.046242
H156	H	0.674141	-0.564769	-0.046228
C157	C	0.679000	-0.439496	0.000043
H158	H	0.637548	-0.458259	0.000044
H159	H	0.676438	-0.419575	-0.046184
H160	H	0.676440	-0.419596	0.046287
H161	H	0.987396	0.005398	0.634402
