data_functionalizedCrystal
_audit_creation_method	'MofGen! by Chris Wilmer'
_symmetry_space_group_name_H-M	'P1'
_symmetry_Int_Tables_number	1
_symmetry_cell_setting	triclinic
loop_
_symmetry_equiv_pos_as_xyz
  x,y,z
_cell_length_a	17.038272
_cell_length_b	15.500227
_cell_length_c	14.519709
_cell_angle_alpha	87.167568
_cell_angle_beta	87.395851
_cell_angle_gamma	93.043705
loop_
_atom_site_label
_atom_site_type_symbol
_atom_site_fract_x
_atom_site_fract_y
_atom_site_fract_z
O1	O	1.041317	0.071839	0.196296
O2	O	0.813683	0.071864	0.193115
O3	O	0.933535	0.071843	0.060929
O4	O	0.921465	0.071860	0.328482
O5	O	0.926262	-0.072044	0.068917
O6	O	0.806410	-0.072023	0.201102
O7	O	1.034044	-0.072049	0.204284
Cu8	Cu	0.919563	-0.085174	0.203422
Cu9	Cu	0.928164	0.084990	0.193976
O10	O	0.914192	-0.072027	0.336469
C11	C	0.780914	-0.000076	0.194216
C12	C	0.694107	-0.000067	0.185585
N13	N	0.913519	-0.204858	0.210066
C14	C	0.644122	-0.000063	0.264818
C15	C	0.562557	-0.000075	0.256704
C16	C	0.530980	-0.000086	0.169357
C17	C	0.580972	-0.000093	0.090119
C18	C	0.662535	-0.000086	0.098234
C19	C	0.285175	-0.000111	0.140689
C20	C	0.203606	-0.000114	0.132580
C21	C	0.185197	-0.000098	0.299167
C22	C	0.266762	-0.000087	0.307274
C23	C	0.316746	-0.000098	0.228036
C24	C	0.447609	-0.000096	0.161062
C25	C	0.400116	-0.000095	0.236332
C26	C	0.964322	-0.250143	0.154078
C27	C	0.959759	-0.340715	0.159112
C28	C	0.904395	-0.386000	0.220139
C29	C	0.853586	-0.340708	0.276129
C30	C	0.858147	-0.250138	0.271090
C31	C	0.887966	-0.659464	0.238277
C32	C	0.883411	-0.750041	0.243314
C33	C	0.989583	-0.750042	0.126294
C34	C	0.994142	-0.659470	0.121265
C35	C	0.943330	-0.614186	0.177251
C36	C	0.899730	-0.478579	0.225288
C37	C	0.947992	-0.521608	0.172097
C38	C	1.066814	-0.000106	0.203183
C39	C	1.153620	-0.000110	0.211813
C40	C	0.929336	-0.000101	0.030520
C41	C	0.927650	-0.000101	-0.071990
N42	N	0.934214	0.204673	0.187325
C43	C	0.921445	-0.000078	-0.447362
C44	C	0.923168	-0.000085	-0.342922
C45	C	0.924548	-0.000090	-0.259679
C46	C	0.926271	-0.000095	-0.155232
C47	C	0.918391	-0.000082	0.366878
C48	C	0.920077	-0.000076	0.469388
H49	H	0.669825	-0.000053	0.335945
C50	C	0.507576	-0.000067	0.343860
H51	H	0.538065	-0.000049	0.397042
H52	H	0.472848	-0.050247	0.346949
H53	H	0.477905	0.050113	0.341367
H54	H	0.846595	-0.622601	0.283865
H55	H	0.808504	-0.377584	0.325816
H56	H	0.421889	-0.000129	0.089944
C57	C	0.802266	-0.200324	0.332681
H58	H	0.768645	-0.240264	0.369755
H59	H	0.771452	-0.165002	0.294962
H60	H	0.832230	-0.164983	0.371339
C61	C	0.168869	-0.000133	0.036497
H62	H	0.113135	-0.000125	0.043016
H63	H	0.183485	-0.050314	0.006393
H64	H	0.188548	0.050046	0.000813
C65	C	0.301490	-0.000088	0.403356
H66	H	0.260037	-0.000096	0.449384
H67	H	0.335456	0.050089	0.407203
H68	H	0.330392	-0.050271	0.412763
C69	C	0.717522	-0.000090	0.011081
H70	H	0.770619	-0.000094	0.028423
H71	H	0.710470	0.050081	-0.027262
H72	H	0.705407	-0.050278	-0.021680
C73	C	0.546240	-0.000103	-0.005961
H74	H	0.490505	-0.000096	0.000552
H75	H	0.560859	-0.050280	-0.036070
H76	H	0.565921	0.050080	-0.041637
C77	C	1.008889	-0.471802	0.104970
H78	H	1.038494	-0.511741	0.072340
H79	H	1.043256	-0.436457	0.138763
H80	H	0.982483	-0.436484	0.062380
H81	H	1.001126	-0.377587	0.113522
C82	C	1.055037	-0.609663	0.054129
H83	H	1.084636	-0.649606	0.021498
H84	H	1.089409	-0.574319	0.087916
H85	H	1.028630	-0.574344	0.011541
H86	H	0.425829	-0.000091	0.307450
H87	H	0.144491	-0.000091	0.363678
H88	H	1.009409	-0.213278	0.104388
C89	C	0.340147	-0.000117	0.053530
H90	H	0.309658	-0.000115	0.000350
H91	H	0.369818	-0.050293	0.056016
H92	H	0.374877	0.050067	0.050444
C93	C	0.822467	-0.799853	0.310394
H94	H	0.792841	-0.759913	0.342996
H95	H	0.848825	-0.835196	0.352999
H96	H	0.788114	-0.835172	0.276548
H97	H	1.030950	-0.786920	0.080711
C98	C	0.838807	-0.528392	0.292384
H99	H	0.809189	-0.488453	0.324997
H100	H	0.865178	-0.563734	0.334977
H101	H	0.804445	-0.563712	0.258550
