data_functionalizedCrystal
_audit_creation_method	'MofGen! by Chris Wilmer'
_symmetry_space_group_name_H-M	'P1'
_symmetry_Int_Tables_number	1
_symmetry_cell_setting	triclinic
loop_
_symmetry_equiv_pos_as_xyz
  x,y,z
_cell_length_a	19.805407
_cell_length_b	19.805405
_cell_length_c	19.805399
_cell_angle_alpha	89.970699
_cell_angle_beta	89.980427
_cell_angle_gamma	90.026410
loop_
_atom_site_label
_atom_site_type_symbol
_atom_site_fract_x
_atom_site_fract_y
_atom_site_fract_z
Zn1	Zn	1.034736	-0.269479	-0.382712
Zn2	Zn	1.034651	-0.382667	-0.269520
Zn3	Zn	0.921550	-0.269498	-0.269536
Zn4	Zn	0.921514	-0.382631	-0.382667
O5	O	0.978113	-0.326069	-0.326109
O6	O	1.129441	-0.284501	-0.367708
O7	O	1.019627	-0.367678	-0.174805
O8	O	0.936616	-0.174778	-0.284575
O9	O	1.129378	-0.367660	-0.284547
O10	O	1.019772	-0.174765	-0.367724
O11	O	0.936533	-0.284533	-0.174817
O12	O	0.826829	-0.284498	-0.284531
O13	O	0.936553	-0.367598	-0.477389
O14	O	0.826802	-0.367617	-0.367648
O15	O	1.019737	-0.284466	-0.477422
O16	O	1.019592	-0.477379	-0.284503
O17	O	0.936471	-0.477353	-0.367632
C18	C	0.802257	-0.326056	-0.326087
C19	C	0.727025	-0.326067	-0.326093
C20	C	0.691684	-0.369412	-0.369302
C21	C	0.620996	-0.369413	-0.369312
C22	C	0.585649	-0.326072	-0.326109
C23	C	0.620994	-0.282722	-0.282898
C24	C	0.691681	-0.282718	-0.282892
C25	C	0.335921	-0.282737	-0.282920
C26	C	0.265229	-0.282746	-0.282928
C27	C	0.265235	-0.369432	-0.369340
C28	C	0.335922	-0.369428	-0.369334
C29	C	0.371262	-0.326076	-0.326126
C30	C	0.447910	-0.326074	-0.326117
C31	C	0.509002	-0.326076	-0.326114
C32	C	0.978036	-0.501925	-0.326076
C33	C	0.978066	-0.577157	-0.326084
C34	C	1.021389	-0.612492	-0.282845
C35	C	1.021418	-0.683181	-0.282860
C36	C	0.978119	-0.718532	-0.326111
C37	C	0.934794	-0.683192	-0.369356
C38	C	0.934769	-0.612505	-0.369344
C39	C	0.934894	-0.968265	-0.369406
C40	C	0.934921	-1.038957	-0.369413
C41	C	1.021542	-1.038941	-0.282922
C42	C	1.021517	-0.968254	-0.282910
C43	C	0.978195	-0.932920	-0.326157
C44	C	0.978166	-0.856271	-0.326141
C45	C	0.978145	-0.795179	-0.326124
C46	C	1.154655	-0.326082	-0.326131
C47	C	1.229887	-0.326088	-0.326140
C48	C	0.978151	-0.326026	-0.502651
C49	C	0.978167	-0.326008	-0.577883
C50	C	0.978207	-0.149526	-0.326156
C51	C	0.978248	-0.074294	-0.326177
C52	C	1.021481	-0.282719	-0.613246
C53	C	1.021488	-0.282699	-0.683934
C54	C	0.978184	-0.325973	-0.719259
C55	C	0.934864	-0.369264	-0.683892
C56	C	0.934854	-0.369279	-0.613204
C57	C	0.934902	-0.369201	-0.968965
C58	C	0.934917	-0.369183	-1.039657
C59	C	1.021536	-0.282620	-1.039695
C60	C	1.021527	-0.282636	-0.969008
C61	C	0.978205	-0.325924	-0.933647
C62	C	0.978197	-0.325944	-0.856998
C63	C	0.978194	-0.325957	-0.795906
C64	C	0.978114	-0.326062	-0.150253
C65	C	0.978229	-0.325890	-0.075021
H66	H	0.364698	-0.404723	-0.404512
H67	H	0.592225	-0.404709	-0.404496
H68	H	0.364686	-0.247442	-0.247733
C69	C	0.887111	-0.573636	-0.416911
N70	N	0.851215	-0.544361	-0.452742
C71	C	0.887163	-0.722081	-0.416931
N72	N	0.851284	-0.751372	-0.452763
H73	H	1.056761	-0.247450	-0.712723
H74	H	1.056820	-1.067719	-0.247711
C75	C	0.887291	-1.077843	-0.416999
N76	N	0.851417	-1.107131	-0.452840
H77	H	0.899618	-0.939502	-0.404618
C78	C	0.730559	-0.417091	-0.416829
N79	N	0.759838	-0.453003	-0.452631
C80	C	0.887222	-0.416859	-0.722751
N81	N	0.851336	-0.452708	-0.752020
C82	C	0.226356	-0.417115	-0.416875
N83	N	0.197073	-0.453030	-0.452677
H84	H	1.056773	-0.939473	-0.247688
C85	C	0.226349	-0.235060	-0.235404
N86	N	0.197065	-0.199144	-0.199612
C87	C	1.069120	-0.235113	-0.574395
N88	N	1.105001	-0.199252	-0.545135
C89	C	1.069162	-0.235029	-0.930154
N90	N	1.105040	-0.199167	-0.900891
C91	C	0.887271	-0.416785	-1.078513
N92	N	0.851386	-0.452636	-1.107779
C93	C	0.887206	-0.416902	-0.574306
N94	N	0.851314	-0.452772	-0.545009
H95	H	0.720455	-0.247418	-0.247711
C96	C	0.582110	-0.235044	-0.235376
N97	N	0.552824	-0.199134	-0.199579
H98	H	1.056809	-0.247370	-1.068495
H99	H	1.056644	-0.583713	-0.247621
H100	H	1.056695	-0.711948	-0.247649
C101	C	0.887245	-0.416817	-0.930077
N102	N	0.851346	-0.452683	-0.900784
