data_functionalizedCrystal
_audit_creation_method	'MofGen! by Chris Wilmer'
_symmetry_space_group_name_H-M	'P1'
_symmetry_Int_Tables_number	1
_symmetry_cell_setting	triclinic
loop_
_symmetry_equiv_pos_as_xyz
  x,y,z
_cell_length_a	10.489763
_cell_length_b	9.065215
_cell_length_c	7.540329
_cell_angle_alpha	89.997358
_cell_angle_beta	90.001061
_cell_angle_gamma	95.218471
loop_
_atom_site_label
_atom_site_type_symbol
_atom_site_fract_x
_atom_site_fract_y
_atom_site_fract_z
O1	O	-1.694785	0.208323	-0.147401
O2	O	-1.323663	0.227829	-0.147421
O3	O	-1.516897	0.003397	-0.147403
O4	O	-1.501551	0.432755	-0.147419
O5	O	-1.516885	0.003394	0.147562
O6	O	-1.323651	0.227826	0.147544
O7	O	-1.694773	0.208321	0.147564
Cu8	Cu	-1.509211	0.218073	0.174486
Cu9	Cu	-1.509225	0.218076	-0.174344
O10	O	-1.501539	0.432752	0.147546
C11	C	-1.276121	0.226347	0.000059
C12	C	-1.134477	0.221918	0.000051
C13	C	-1.065823	0.079101	0.000074
C14	C	-0.973946	0.146557	-0.145356
C15	C	-0.973968	0.146588	0.145457
C16	C	-1.044465	0.289433	-0.145500
C17	C	-1.044497	0.289444	0.145444
C18	C	-0.952648	0.357003	-0.000022
C19	C	-1.515417	-0.051584	0.000077
C20	C	-1.511010	-0.215406	0.000072
C21	C	-0.742318	0.209779	0.000085
C22	C	-0.883969	0.214138	0.000095
C23	C	-1.503019	0.487733	0.000061
C24	C	-1.507426	0.651556	0.000055
N25	N	-1.509211	0.218070	0.419835
N26	N	-1.509235	0.218068	-0.419693
H27	H	-0.942719	0.086129	-0.268305
H28	H	-0.942768	0.086131	0.268409
H29	H	-0.903648	0.474522	-0.000105
O30	O	-1.081634	0.361605	-0.292172
C31	C	-1.143859	0.486150	-0.240288
H32	H	-1.182770	0.468817	-0.099940
H33	H	-1.072857	0.589083	-0.243785
C34	C	-1.207390	0.527853	-0.540855
C35	C	-1.255191	0.506559	-0.368482
H36	H	-1.276061	0.540448	-0.619933
H37	H	-1.165464	0.443949	-0.575812
H38	H	-1.148221	0.613629	-0.543744
H39	H	-1.314346	0.420774	-0.365590
H40	H	-1.297130	0.590450	-0.333527
H41	H	-1.075756	0.349823	0.268399
O42	O	-1.124512	-0.060988	-0.000409
C43	C	-1.088737	-0.135742	-0.154015
H44	H	-1.056303	-0.051395	-0.260651
H45	H	-1.006872	-0.205575	-0.120824
C46	C	-1.243891	-0.340603	-0.091622
C47	C	-1.204066	-0.237006	-0.222600
H48	H	-1.315029	-0.403072	-0.133925
H49	H	-1.267991	-0.290243	0.011869
H50	H	-1.175660	-0.398782	-0.063975
H51	H	-1.272291	-0.178817	-0.250228
H52	H	-1.179980	-0.287358	-0.326098
