data_functionalizedCrystal
_audit_creation_method	'MofGen! by Chris Wilmer'
_symmetry_space_group_name_H-M	'P1'
_symmetry_Int_Tables_number	1
_symmetry_cell_setting	triclinic
loop_
_symmetry_equiv_pos_as_xyz
  x,y,z
_cell_length_a	10.540539
_cell_length_b	14.519709
_cell_length_c	12.996460
_cell_angle_alpha	90.007090
_cell_angle_beta	90.003509
_cell_angle_gamma	84.102818
loop_
_atom_site_label
_atom_site_type_symbol
_atom_site_fract_x
_atom_site_fract_y
_atom_site_fract_z
O1	O	-1.684562	-0.129969	-0.085521
O2	O	-1.315024	-0.142215	-0.085534
O3	O	-1.509591	-0.001906	-0.085518
O4	O	-1.489995	-0.270278	-0.085537
O5	O	-1.509571	-0.001899	0.085616
O6	O	-1.315004	-0.142207	0.085600
O7	O	-1.684542	-0.129961	0.085613
Cu8	Cu	-1.499771	-0.136083	0.101232
Cu9	Cu	-1.499795	-0.136093	-0.101153
O10	O	-1.489975	-0.270270	0.085597
C11	C	-1.267720	-0.141293	0.000032
C12	C	-1.126800	-0.138545	0.000027
C13	C	-1.508668	0.032462	0.000049
C14	C	-1.505931	0.134858	0.000050
C15	C	-1.731846	-0.130884	0.000045
C16	C	-1.872766	-0.133631	0.000043
C17	C	-0.944448	-0.033266	0.000434
C18	C	-1.091038	-0.036051	0.000037
C19	C	-1.064636	-0.187874	-0.097699
C20	C	-0.918127	-0.184376	-0.097770
C21	C	-0.917594	-0.186452	0.096841
C22	C	-1.064567	-0.187396	0.098122
C23	C	-1.490899	-0.304639	0.000028
C24	C	-1.493635	-0.407035	0.000020
N25	N	-1.499763	-0.136076	0.243579
C26	C	-1.495856	0.509808	0.000023
C27	C	-1.498654	0.405485	0.000031
C28	C	-1.500893	0.322337	0.000037
C29	C	-1.503692	0.218007	0.000043
N30	N	-1.499813	-0.136093	-0.243500
C31	C	-1.499793	-0.136094	0.663394
C32	C	-1.499781	-0.136092	0.546589
C33	C	-1.499779	-0.136086	0.453490
C34	C	-1.499766	-0.136083	0.336678
H35	H	-1.134040	0.002763	0.070092
H36	H	-1.107583	-0.153614	-0.170423
H37	H	-0.916268	0.007229	0.070519
H38	H	-0.886378	-0.153279	0.170917
C39	C	-1.160393	-0.304136	-0.193404
C40	C	-1.093775	-0.289484	-0.102630
H41	H	-1.178375	-0.366867	-0.196448
H42	H	-1.238049	-0.264667	-0.194303
H43	H	-1.109921	-0.290823	-0.251025
H44	H	-1.144251	-0.302790	-0.045009
H45	H	-1.016107	-0.328966	-0.101722
H46	H	-0.914661	0.007051	-0.069255
C47	C	-0.889531	-0.325986	-0.194309
C48	C	-0.852337	-0.283878	-0.103786
H49	H	-0.848910	-0.387410	-0.198031
H50	H	-0.979414	-0.327446	-0.194212
H51	H	-0.865474	-0.291666	-0.252078
H52	H	-0.876403	-0.318194	-0.046016
H53	H	-0.762435	-0.282423	-0.103873
H54	H	-1.133191	0.003030	-0.070132
C55	C	-1.022142	-0.104703	0.252279
C56	C	-1.120334	-0.138740	0.195722
H57	H	-1.056582	-0.074659	0.312527
H58	H	-0.961193	-0.154588	0.271188
H59	H	-0.982073	-0.061767	0.211482
H60	H	-1.160397	-0.181682	0.236517
H61	H	-1.181305	-0.088848	0.176815
C62	C	-0.893306	-0.332912	0.184201
C63	C	-0.852822	-0.286391	0.097735
H64	H	-0.853319	-0.394608	0.184741
H65	H	-0.870824	-0.301842	0.244817
H66	H	-0.983234	-0.333850	0.181673
H67	H	-0.762894	-0.285447	0.100266
H68	H	-0.875295	-0.317470	0.037103
H69	H	-0.890298	-0.147924	-0.170815
C70	C	-1.161849	-0.300192	0.198018
C71	C	-1.096237	-0.288274	0.106081
H72	H	-1.181408	-0.362471	0.202919
H73	H	-1.110023	-0.286460	0.254649
H74	H	-1.238627	-0.259737	0.198827
H75	H	-1.019455	-0.328725	0.105275
H76	H	-1.148065	-0.302016	0.049436
