data_functionalizedCrystal
_audit_creation_method	'MofGen! by Chris Wilmer'
_symmetry_space_group_name_H-M	'P1'
_symmetry_Int_Tables_number	1
_symmetry_cell_setting	triclinic
loop_
_symmetry_equiv_pos_as_xyz
  x,y,z
_cell_length_a	15.995343
_cell_length_b	15.995292
_cell_length_c	14.586319
_cell_angle_alpha	89.999401
_cell_angle_beta	90.000814
_cell_angle_gamma	83.478900
loop_
_atom_site_label
_atom_site_type_symbol
_atom_site_fract_x
_atom_site_fract_y
_atom_site_fract_z
O1	O	1.110966	0.107897	-0.076142
O2	O	1.610966	0.607897	0.423858
O3	O	0.867187	0.121232	-0.076163
O4	O	1.367187	0.621232	0.423837
O5	O	0.995766	-0.007326	-0.076153
O6	O	1.495766	0.492674	0.423847
O7	O	0.982387	0.236456	-0.076152
O8	O	1.482387	0.736456	0.423848
O9	O	0.995757	-0.007328	0.076328
O10	O	1.495757	0.492672	0.576328
O11	O	0.867178	0.121230	0.076318
O12	O	1.367178	0.621230	0.576318
O13	O	1.110957	0.107895	0.076339
O14	O	1.610957	0.607895	0.576339
Cu15	Cu	0.989067	0.114563	0.090251
Cu16	Cu	1.489067	0.614563	0.590251
Cu17	Cu	0.989077	0.114565	-0.090075
Cu18	Cu	1.489077	0.614565	0.409925
O19	O	0.982378	0.236454	0.076329
O20	O	1.482378	0.736454	0.576329
C21	C	0.835988	0.120681	0.000075
C22	C	1.335988	0.620681	0.500075
C23	C	0.743037	0.119032	0.000066
C24	C	1.243037	0.619032	0.500066
C25	C	0.572852	0.116038	0.000078
C26	C	1.072852	0.616038	0.500078
C27	C	0.549525	0.023238	0.000078
C28	C	1.049525	0.523238	0.500078
C29	C	0.452848	0.021493	0.000429
C30	C	0.952848	0.521493	0.500429
C31	C	0.405292	0.113089	0.000090
C32	C	0.905292	0.613089	0.500090
C33	C	0.434369	0.159750	0.086991
C34	C	0.934369	0.659750	0.586991
C35	C	0.531161	0.160850	0.087058
C36	C	1.031161	0.660850	0.587058
C37	C	0.531082	0.162211	-0.086347
C38	C	1.031082	0.662211	0.413653
C39	C	0.434588	0.158785	-0.087484
C40	C	0.934588	0.658785	0.412516
C41	C	0.310595	0.111428	0.000099
C42	C	0.810595	0.611428	0.500099
C43	C	0.667549	0.117702	0.000075
C44	C	1.167549	0.617702	0.500075
C45	C	0.995217	-0.038523	0.000085
C46	C	1.495217	0.461477	0.500085
C47	C	0.993584	-0.131476	0.000078
C48	C	1.493584	0.368524	0.500078
C49	C	0.987583	-0.469214	0.000086
C50	C	1.487583	0.030786	0.500086
C51	C	1.080388	-0.445904	0.000434
C52	C	1.580388	0.054096	0.500434
C53	C	1.082152	-0.349229	0.000088
C54	C	1.582152	0.150771	0.500088
C55	C	0.990561	-0.301658	0.000082
C56	C	1.490561	0.198342	0.500082
C57	C	0.944168	-0.330757	-0.086993
C58	C	1.444168	0.169243	0.413007
C59	C	0.943051	-0.427547	-0.087063
C60	C	1.443051	0.072453	0.412937
C61	C	0.941146	-0.427407	0.086336
C62	C	1.441146	0.072593	0.586336
C63	C	0.944585	-0.330914	0.087484
C64	C	1.444585	0.169086	0.587484
C65	C	0.992239	-0.206962	0.000077
C66	C	1.492239	0.293038	0.500077
C67	C	0.985902	-0.563910	0.000084
C68	C	1.485902	-0.063910	0.500084
C69	C	1.142156	0.108447	0.000099
C70	C	1.642156	0.608447	0.500099
C71	C	1.235107	0.110096	0.000102
C72	C	1.735107	0.610096	0.500102
C73	C	0.982927	0.267650	0.000089
C74	C	1.482927	0.767650	0.500089
C75	C	0.984560	0.360603	0.000090
C76	C	1.484560	0.860603	0.500090
N77	N	0.989065	0.114561	0.217083
N78	N	1.489065	0.614561	0.717083
N79	N	0.989085	0.114560	-0.216907
N80	N	1.489085	0.614560	0.283093
C81	C	1.046019	0.057654	0.452094
C82	C	1.546019	0.557654	0.952094
C83	C	1.046021	0.057652	0.548075
C84	C	1.546021	0.557652	1.048075
C85	C	0.932126	0.171470	0.548076
C86	C	1.432126	0.671470	1.048076
C87	C	0.932120	0.171467	0.452096
C88	C	1.432120	0.671467	0.952096
C89	C	0.989071	0.114560	0.404108
C90	C	1.489071	0.614560	0.904108
C91	C	0.989079	0.114561	0.596068
C92	C	1.489079	0.614561	1.096068
C93	C	0.989082	0.114559	0.700136
C94	C	1.489082	0.614559	1.200136
C95	C	0.989068	0.114561	0.300034
C96	C	1.489068	0.614561	0.800034
H97	H	0.577544	-0.012730	-0.062230
H98	H	1.077544	0.487270	0.437770
H99	H	0.402509	0.227162	0.089979
H100	H	0.902509	0.727162	0.589979
N101	N	0.548627	0.247904	-0.087399
N102	N	1.048627	0.747904	0.412601
N103	N	0.524932	0.295762	-0.022408
N104	N	1.024932	0.795762	0.477592
H105	H	0.537324	0.356282	-0.023144
H106	H	1.037324	0.856282	0.476856
H107	H	1.092391	0.011316	0.413024
H108	H	1.592391	0.511316	0.913024
N109	N	1.104194	-0.000486	0.597077
N110	N	1.604194	0.499514	1.097077
N111	N	1.155032	-0.051292	0.554215
N112	N	1.655032	0.448708	1.054215
H113	H	1.196118	-0.092356	0.588821
H114	H	1.696118	0.407644	1.088821
H115	H	0.885758	0.217803	0.587158
H116	H	1.385758	0.717803	1.087158
N117	N	0.409163	0.119583	0.168424
N118	N	0.909163	0.619583	0.668424
N119	N	0.369793	0.056604	0.162684
N120	N	0.869793	0.556604	0.662684
H121	H	0.351991	0.028231	0.220194
H122	H	0.851991	0.528231	0.720194
N123	N	1.125012	-0.482309	-0.077458
N124	N	1.625012	0.017691	0.422542
N125	N	1.088763	-0.525347	-0.133226
N126	N	1.588763	-0.025347	0.366774
H127	H	1.120276	-0.551059	-0.188239
H128	H	1.620276	-0.051059	0.311761
N129	N	0.857693	-0.445800	-0.092056
N130	N	1.357693	0.054200	0.407944
N131	N	0.834180	-0.487476	-0.157802
N132	N	1.334180	0.012524	0.342198
H133	H	0.773896	-0.500362	-0.161336
H134	H	1.273896	-0.000362	0.338664
N135	N	0.428983	-0.024342	-0.077684
N136	N	0.928983	0.475658	0.422316
N137	N	0.353329	-0.033485	-0.090781
N138	N	0.853329	0.466515	0.409219
H139	H	0.336478	-0.065864	-0.145946
H140	H	0.836478	0.434136	0.354054
N141	N	0.585899	-0.021148	0.078135
N142	N	1.085899	0.478852	0.578135
N143	N	0.628927	0.015268	0.133766
N144	N	1.128927	0.515268	0.633766
H145	H	0.654619	-0.016078	0.188895
H146	H	1.154619	0.483922	0.688895
N147	N	0.429730	-0.024119	0.079034
N148	N	0.929730	0.475881	0.579034
N149	N	0.485032	-0.054755	0.133808
N150	N	0.985032	0.445245	0.633808
H151	H	0.468707	-0.086970	0.189327
H152	H	0.968707	0.413030	0.689327
N153	N	0.393265	0.242644	-0.094403
N154	N	0.893265	0.742644	0.405597
N155	N	0.409105	0.288356	-0.160216
N156	N	0.909105	0.788356	0.339784
H157	H	0.379923	0.347586	-0.165098
H158	H	0.879923	0.847586	0.334902
H159	H	0.885742	0.217807	0.413023
H160	H	1.385742	0.717807	0.913023
N161	N	0.566616	0.125526	-0.168997
N162	N	1.066616	0.625526	0.331003
N163	N	0.623163	0.064895	-0.165205
N164	N	1.123163	0.564895	0.334795
H165	H	0.648282	0.038996	-0.223572
H166	H	1.148282	0.538996	0.276428
H167	H	0.876770	-0.298887	-0.090234
H168	H	1.376770	0.201113	0.409766
H169	H	0.416041	0.124806	-0.151775
H170	H	0.916041	0.624806	0.348225
H171	H	0.557950	0.128912	0.152265
H172	H	1.057950	0.628912	0.652265
H173	H	1.118486	-0.330206	0.062505
H174	H	1.618486	0.169794	0.562505
H175	H	0.545721	0.228902	0.090775
H176	H	1.045721	0.728902	0.590775
H177	H	1.116155	-0.473903	0.062880
H178	H	1.616155	0.026097	0.562880
N179	N	1.128012	-0.326147	-0.078348
N180	N	1.628012	0.173853	0.421652
N181	N	1.158808	-0.381472	-0.133007
N182	N	1.658808	0.118528	0.366993
H183	H	1.191197	-0.365172	-0.188408
H184	H	1.691197	0.134828	0.311592
H185	H	0.976392	-0.310697	-0.151790
H186	H	1.476392	0.189303	0.348210
N187	N	0.983366	-0.461181	-0.168716
N188	N	1.483366	0.038819	0.331284
N189	N	1.012131	-0.413145	-0.225253
N190	N	1.512131	0.086855	0.274747
H191	H	1.040606	-0.436895	-0.282923
H192	H	1.540606	0.063105	0.217077
N193	N	0.977612	-0.462867	0.169126
N194	N	1.477612	0.037133	0.669126
N195	N	1.038277	-0.519391	0.165563
N196	N	1.538277	-0.019391	0.665563
H197	H	1.064040	-0.544438	0.224029
H198	H	1.564040	-0.044438	0.724029
N199	N	0.986969	-0.307626	0.168291
N200	N	1.486969	0.192374	0.668291
N201	N	1.050799	-0.269620	0.161607
N202	N	1.550799	0.230380	0.661607
H203	H	1.080736	-0.253169	0.218675
H204	H	1.580736	0.246831	0.718675
H205	H	0.877732	-0.297943	0.092739
H206	H	1.377732	0.202057	0.592739
H207	H	0.872834	-0.441395	0.086919
H208	H	1.372834	0.058605	0.586919
