data_functionalizedCrystal
_audit_creation_method	'MofGen! by Chris Wilmer'
_symmetry_space_group_name_H-M	'P1'
_symmetry_Int_Tables_number	1
_symmetry_cell_setting	triclinic
loop_
_symmetry_equiv_pos_as_xyz
  x,y,z
_cell_length_a	23.532361
_cell_length_b	23.532407
_cell_length_c	22.010155
_cell_angle_alpha	90.002880
_cell_angle_beta	90.010098
_cell_angle_gamma	82.839173
loop_
_atom_site_label
_atom_site_type_symbol
_atom_site_fract_x
_atom_site_fract_y
_atom_site_fract_z
O1	O	0.755286	0.069002	0.050470
O2	O	1.255286	0.569002	0.550470
O3	O	0.589419	0.079033	0.050486
O4	O	1.089419	0.579033	0.550486
O5	O	0.677354	-0.008915	0.050466
O6	O	1.177354	0.491085	0.550466
O7	O	0.667350	0.156950	0.050490
O8	O	1.167350	0.656950	0.550490
O9	O	0.677328	-0.008905	-0.050584
O10	O	1.177328	0.491095	0.449416
O11	O	0.589393	0.079043	-0.050565
O12	O	1.089393	0.579043	0.449435
O13	O	0.755260	0.069012	-0.050580
O14	O	1.255260	0.569012	0.449420
Cu15	Cu	0.672324	0.074029	-0.059799
Cu16	Cu	1.172324	0.574029	0.440201
Cu17	Cu	0.672354	0.074017	0.059705
Cu18	Cu	1.172354	0.574017	0.559705
O19	O	0.667325	0.156960	-0.050561
O20	O	1.167325	0.656960	0.449439
C21	C	0.568189	0.078787	-0.000038
C22	C	1.068189	0.578787	0.499962
C23	C	0.504971	0.078032	-0.000032
C24	C	1.004971	0.578032	0.499968
C25	C	0.231741	0.074723	0.055046
C26	C	0.731741	0.574723	0.555046
C27	C	0.291141	0.075438	0.055048
C28	C	0.791141	0.575438	0.555048
O29	O	0.321878	0.075783	0.101892
O30	O	0.821878	0.575783	0.601892
N31	N	0.320832	0.075804	-0.000035
N32	N	0.820832	0.575804	0.499965
C33	C	0.291122	0.075450	-0.055123
C34	C	0.791122	0.575450	0.444877
O35	O	0.321832	0.075827	-0.101975
O36	O	0.821832	0.575827	0.398025
C37	C	0.231724	0.074731	-0.055124
C38	C	0.731724	0.574731	0.444876
C39	C	0.202035	0.074370	-0.000037
C40	C	0.702035	0.574370	0.499963
C41	C	0.202051	0.074361	0.110128
C42	C	0.702051	0.574361	0.610128
C43	C	0.142656	0.073647	0.110126
C44	C	0.642656	0.573647	0.610126
C45	C	0.112949	0.073295	0.055043
C46	C	0.612949	0.573295	0.555043
C47	C	0.142639	0.073657	-0.000039
C48	C	0.642639	0.573657	0.499961
C49	C	0.202015	0.074373	-0.110211
C50	C	0.702015	0.574373	0.389789
C51	C	0.142613	0.073654	-0.110207
C52	C	0.642613	0.573654	0.389793
C53	C	0.112924	0.073293	-0.055121
C54	C	0.612924	0.573293	0.444879
C55	C	0.053537	0.072590	-0.055125
C56	C	0.553537	0.572590	0.444875
N57	N	0.023845	0.072224	-0.000042
N58	N	0.523845	0.572224	0.499958
C59	C	0.053551	0.072576	0.055042
C60	C	0.553551	0.572576	0.555042
C61	C	0.415862	0.076959	-0.055117
C62	C	0.915862	0.576959	0.444883
C63	C	0.475259	0.077682	-0.055116
C64	C	0.975259	0.577682	0.444884
C65	C	0.475273	0.077668	0.055055
C66	C	0.975273	0.577668	0.555055
C67	C	0.415875	0.076949	0.055054
C68	C	0.915875	0.576949	0.555054
C69	C	0.386171	0.076593	-0.000034
C70	C	0.886171	0.576593	0.499966
C71	C	-0.071184	0.071077	0.055034
C72	C	0.428816	0.571077	0.555034
C73	C	-0.130586	0.070366	0.055027
C74	C	0.369414	0.570366	0.555027
C75	C	-0.130595	0.070377	-0.055144
C76	C	0.369405	0.570377	0.444856
C77	C	-0.071199	0.071091	-0.055137
C78	C	0.428801	0.571091	0.444863
C79	C	-0.041495	0.071440	-0.000044
C80	C	0.458505	0.571440	0.499956
O81	O	0.022762	0.072242	-0.101945
O82	O	0.522762	0.572242	0.398055
O83	O	0.022835	0.072191	0.101886
O84	O	0.522835	0.572191	0.601886
C85	C	0.677086	-0.030126	-0.000060
C86	C	1.177086	0.469874	0.499940
C87	C	0.676320	-0.093343	-0.000065
C88	C	1.176320	0.406657	0.499935
C89	C	0.723555	-0.492454	-0.000036
C90	C	1.223555	0.007546	0.499964
C91	C	0.722844	-0.551854	-0.000031
C92	C	1.222844	-0.051854	0.499969
O93	O	0.766630	-0.588606	-0.000013
O94	O	1.266630	-0.088606	0.499987
N95	N	0.670566	-0.574471	-0.000027
N96	N	1.170566	-0.074471	0.499973
C97	C	0.618997	-0.537685	-0.000021
C98	C	1.118997	-0.037685	0.499979
O99	O	0.574465	-0.562377	-0.000016
O100	O	1.074465	-0.062377	0.499984
C101	C	0.619709	-0.478286	-0.000021
C102	C	1.119709	0.021714	0.499979
C103	C	0.671990	-0.455672	-0.000032
C104	C	1.171990	0.044328	0.499968
C105	C	0.775832	-0.469839	-0.000046
C106	C	1.275832	0.030161	0.499954
C107	C	0.776543	-0.410443	-0.000052
C108	C	1.276543	0.089557	0.499948
C109	C	0.724977	-0.373662	-0.000048
C110	C	1.224977	0.126338	0.499952
C111	C	0.672701	-0.396276	-0.000038
C112	C	1.172701	0.103724	0.499962
C113	C	0.568140	-0.441501	-0.000011
C114	C	1.068140	0.058499	0.499989
C115	C	0.568857	-0.382099	-0.000011
C116	C	1.068857	0.117901	0.499989
C117	C	0.621137	-0.359485	-0.000021
C118	C	1.121137	0.140515	0.499979
C119	C	0.621847	-0.300099	-0.000039
C120	C	1.121847	0.199901	0.499961
N121	N	0.674124	-0.277481	-0.000044
N122	N	1.174124	0.222519	0.499956
C123	C	0.725690	-0.314263	-0.000048
C124	C	1.225690	0.185737	0.499952
C125	C	0.617505	-0.662427	-0.000019
C126	C	1.117505	-0.162427	0.499981
C127	C	0.616793	-0.721825	-0.000023
C128	C	1.116793	-0.221825	0.499977
C129	C	0.720640	-0.735990	-0.000032
C130	C	1.220640	-0.235990	0.499968
C131	C	0.721352	-0.676591	-0.000033
C132	C	1.221352	-0.176591	0.499967
C133	C	0.669783	-0.639810	-0.000024
C134	C	1.169783	-0.139810	0.499976
C135	C	0.727179	-0.189526	-0.000061
C136	C	1.227179	0.310474	0.499939
C137	C	0.727886	-0.130124	-0.000069
C138	C	1.227886	0.369876	0.499931
C139	C	0.624039	-0.115965	-0.000057
C140	C	1.124039	0.384035	0.499943
C141	C	0.623332	-0.175361	-0.000051
C142	C	1.123332	0.324639	0.499949
C143	C	0.674907	-0.212141	-0.000051
C144	C	1.174907	0.287859	0.499949
O145	O	0.578083	-0.263312	-0.000055
O146	O	1.078083	0.236688	0.499945
O147	O	0.770214	-0.289562	-0.000045
O148	O	1.270214	0.210438	0.499955
C149	C	0.776489	0.069258	-0.000055
C150	C	1.276489	0.569258	0.499945
C151	C	0.839708	0.070014	-0.000057
C152	C	1.339708	0.570014	0.499943
C153	C	0.667592	0.178171	-0.000033
C154	C	1.167592	0.678171	0.499967
C155	C	0.668358	0.241388	-0.000024
C156	C	1.168358	0.741388	0.499976
N157	N	0.672307	0.074037	-0.143851
N158	N	1.172307	0.574037	0.356149
C159	C	0.637997	0.039651	-0.436458
C160	C	1.137997	0.539651	0.063542
C161	C	0.637992	0.039654	-0.372851
C162	C	1.137992	0.539654	0.127149
O163	O	0.608799	0.010419	-0.339955
O164	O	1.108799	0.510419	0.160045
N165	N	0.672330	0.074019	-0.341036
N166	N	1.172330	0.574019	0.158964
C167	C	0.706679	0.108380	-0.372832
C168	C	1.206679	0.608380	0.127168
O169	O	0.735886	0.137610	-0.339930
O170	O	1.235886	0.637610	0.160070
C171	C	0.706687	0.108374	-0.436438
C172	C	1.206687	0.608374	0.063562
C173	C	0.672342	0.074011	-0.468250
C174	C	1.172342	0.574011	0.031750
C175	C	0.603656	0.005290	-0.468270
C176	C	1.103656	0.505290	0.031730
C177	C	0.603660	0.005288	-0.531873
C178	C	1.103660	0.505288	-0.031873
C179	C	0.638006	0.039648	-0.563665
C180	C	1.138006	0.539648	-0.063665
C181	C	0.672347	0.074009	-0.531853
C182	C	1.172347	0.574009	-0.031853
C183	C	0.741039	0.142731	-0.468233
C184	C	1.241039	0.642731	0.031767
C185	C	0.741044	0.142722	-0.531844
C186	C	1.241044	0.642722	-0.031844
C187	C	0.706700	0.108358	-0.563655
C188	C	1.206700	0.608358	-0.063655
C189	C	0.706697	0.108367	-0.627248
C190	C	1.206697	0.608367	-0.127248
N191	N	0.672359	0.074001	-0.659063
N192	N	1.172359	0.574001	-0.159063
C193	C	0.638014	0.039642	-0.627271
C194	C	1.138014	0.539642	-0.127271
C195	C	0.706661	0.108389	-0.239254
C196	C	1.206661	0.608389	0.260746
C197	C	0.706651	0.108399	-0.175649
C198	C	1.206651	0.608399	0.324351
C199	C	0.637964	0.039672	-0.175672
C200	C	1.137964	0.539672	0.324328
C201	C	0.637972	0.039666	-0.239278
C202	C	1.137972	0.539666	0.260722
C203	C	0.672323	0.074024	-0.271069
C204	C	1.172323	0.574024	0.228931
C205	C	0.638025	0.039641	-0.760842
C206	C	1.138025	0.539641	-0.260842
C207	C	0.638031	0.039644	-0.824451
C208	C	1.138031	0.539644	-0.324451
C209	C	0.706719	0.108369	-0.824422
C210	C	1.206719	0.608369	-0.324422
C211	C	0.706711	0.108368	-0.760819
C212	C	1.206711	0.608368	-0.260819
C213	C	0.672363	0.074000	-0.729031
C214	C	1.172363	0.574000	-0.229031
O215	O	0.735877	0.137585	-0.660184
O216	O	1.235877	0.637585	-0.160184
O217	O	0.608817	0.010411	-0.660180
O218	O	1.108817	0.510411	-0.160180
N219	N	0.672376	0.074004	0.143757
N220	N	1.172376	0.574004	0.643757
H221	H	0.118488	0.073351	0.154983
H222	H	0.618488	0.573351	0.654983
Br223	Br	0.515542	0.078187	-0.129879
Br224	Br	1.015542	0.578187	0.370121
Br225	Br	0.375554	0.076482	-0.129886
Br226	Br	0.875554	0.576482	0.370114
Br227	Br	0.242293	0.074864	-0.184976
Br228	Br	0.742293	0.574864	0.315024
H229	H	0.610055	0.011655	-0.734968
H230	H	1.110055	0.511655	-0.234968
Br231	Br	0.790622	-0.785919	-0.000035
Br232	Br	1.290622	-0.285919	0.499965
Br233	Br	0.753248	0.155051	-0.132484
Br234	Br	1.253248	0.655051	0.367516
H235	H	0.118430	0.073368	-0.155067
H236	H	0.618430	0.573368	0.344933
Br237	Br	0.787637	0.189386	-0.425076
Br238	Br	1.287637	0.689386	0.074924
Br239	Br	-0.030906	0.071590	-0.129898
Br240	Br	0.469094	0.571590	0.370102
H241	H	0.770461	-0.111716	-0.000079
H242	H	1.270461	0.388284	0.499921
Br243	Br	0.787669	0.189351	-0.574984
Br244	Br	1.287669	0.689351	-0.074984
H245	H	0.580761	-0.193774	-0.000060
H246	H	1.080761	0.306226	0.499940
H247	H	0.734632	0.136373	-0.265134
H248	H	1.234632	0.636373	0.234866
Br249	Br	0.591414	-0.006992	-0.867620
Br250	Br	1.091414	0.493008	-0.367620
H251	H	0.734681	0.136345	-0.850319
H252	H	1.234681	0.636345	-0.350319
H253	H	0.769176	-0.219466	-0.000058
H254	H	1.269176	0.280534	0.499942
H255	H	0.582056	-0.086007	-0.000055
H256	H	1.082056	0.413993	0.499945
H257	H	0.819115	-0.392037	-0.000058
H258	H	1.319115	0.107963	0.499942
Br259	Br	0.753329	0.154997	-0.717645
Br260	Br	1.253329	0.654997	-0.217645
Br261	Br	0.845823	-0.519747	-0.000051
Br262	Br	1.345823	-0.019747	0.499949
H263	H	0.391706	0.076656	0.099910
H264	H	0.891706	0.576656	0.599910
Br265	Br	0.591352	-0.006960	-0.132514
Br266	Br	1.091352	0.493040	0.367486
H267	H	0.763923	-0.658183	-0.000041
H268	H	1.263923	-0.158183	0.499959
Br269	Br	0.515600	0.078150	0.129812
Br270	Br	1.015600	0.578150	0.629812
H271	H	0.610006	0.011684	-0.265175
H272	H	1.110006	0.511684	0.234825
Br273	Br	0.547512	-0.612515	-0.000012
Br274	Br	1.047512	-0.112515	0.499988
Br275	Br	-0.030881	0.071550	0.129804
Br276	Br	0.469119	0.571550	0.629804
Br277	Br	0.242356	0.074837	0.184895
Br278	Br	0.742356	0.574837	0.684895
Br279	Br	-0.170876	0.069879	0.129792
Br280	Br	0.329124	0.569879	0.629792
H281	H	-0.154793	0.070092	-0.099991
H282	H	0.345207	0.570092	0.400009
H283	H	0.575696	-0.022696	-0.557768
H284	H	1.075696	0.477304	-0.057768
H285	H	0.574220	-0.740232	-0.000025
H286	H	1.074220	-0.240232	0.499975
Br287	Br	0.557033	-0.041342	-0.425136
Br288	Br	1.057033	0.458658	0.074864
Br289	Br	0.498866	-0.332184	0.000004
Br290	Br	0.998866	0.167816	0.500004
Br291	Br	0.497183	-0.472176	0.000006
Br292	Br	0.997183	0.027824	0.500006
