data_functionalizedCrystal
_audit_creation_method	'MofGen! by Chris Wilmer'
_symmetry_space_group_name_H-M	'P1'
_symmetry_Int_Tables_number	1
_symmetry_cell_setting	triclinic
loop_
_symmetry_equiv_pos_as_xyz
  x,y,z
_cell_length_a	29.839134
_cell_length_b	29.839131
_cell_length_c	12.827885
_cell_angle_alpha	89.963180
_cell_angle_beta	89.968826
_cell_angle_gamma	90.036281
loop_
_atom_site_label
_atom_site_type_symbol
_atom_site_fract_x
_atom_site_fract_y
_atom_site_fract_z
Zn1	Zn	0.686760	-0.178893	-0.591124
Zn2	Zn	0.686681	-0.254030	-0.416363
Zn3	Zn	0.611631	-0.178908	-0.416362
Zn4	Zn	0.611591	-0.253990	-0.591027
O5	O	0.649166	-0.216455	-0.503719
O6	O	0.749617	-0.188871	-0.567982
O7	O	0.676708	-0.244088	-0.270127
O8	O	0.621647	-0.116039	-0.439585
O9	O	0.749558	-0.244074	-0.439586
O10	O	0.676845	-0.116028	-0.567982
O11	O	0.621570	-0.188897	-0.270126
O12	O	0.548759	-0.188858	-0.439491
O13	O	0.621579	-0.244005	-0.737276
O14	O	0.548729	-0.244020	-0.567816
O15	O	0.676806	-0.188832	-0.737347
O16	O	0.676669	-0.316892	-0.439492
O17	O	0.621501	-0.316863	-0.567817
C18	C	0.532443	-0.216436	-0.503644
C19	C	0.482509	-0.216439	-0.503636
C20	C	0.649085	-0.333178	-0.503667
C21	C	0.649091	-0.383112	-0.503680
C22	C	0.172859	-0.245221	-0.570456
C23	C	-0.014814	-0.245234	-0.570503
O24	O	-0.039083	-0.269684	-0.627271
N25	N	-0.038276	-0.216472	-0.503798
C26	C	-0.014818	-0.187703	-0.437081
O27	O	-0.039081	-0.163236	-0.380353
C28	C	0.172854	-0.187688	-0.437041
C29	C	0.196315	-0.216455	-0.503743
C30	C	0.196320	-0.273985	-0.637154
C31	C	0.243235	-0.273983	-0.637137
C32	C	0.266690	-0.245217	-0.570424
C33	C	0.243230	-0.216453	-0.503726
C34	C	0.196312	-0.158917	-0.370330
C35	C	0.243233	-0.158916	-0.370328
C36	C	0.266693	-0.187682	-0.437030
C37	C	0.313601	-0.187686	-0.436996
N38	N	0.337063	-0.216448	-0.503701
C39	C	0.313608	-0.245213	-0.570415
C40	C	-0.113349	-0.187713	-0.437105
C41	C	-0.160266	-0.187717	-0.437114
C42	C	-0.160259	-0.245248	-0.570537
C43	C	-0.113340	-0.245245	-0.570523
C44	C	-0.089886	-0.216475	-0.503811
C45	C	0.412134	-0.245208	-0.570375
C46	C	0.459054	-0.245205	-0.570350
C47	C	0.459042	-0.187673	-0.436931
C48	C	0.412127	-0.187678	-0.436952
C49	C	0.388674	-0.216446	-0.503682
O50	O	0.337899	-0.163245	-0.380266
O51	O	0.337879	-0.269669	-0.627151
C52	C	0.125944	-0.245223	-0.570473
C53	C	0.102484	-0.216459	-0.503775
C54	C	0.125939	-0.187693	-0.437062
C55	C	0.055566	-0.216463	-0.503784
C56	C	0.032111	-0.245228	-0.570497
C57	C	0.055573	-0.273990	-0.637203
C58	C	0.102489	-0.273988	-0.637186
C59	C	0.102476	-0.158931	-0.370356
C60	C	0.055561	-0.158936	-0.370377
C61	C	0.032105	-0.187701	-0.437091
C62	C	0.677944	-0.692758	-0.436998
C63	C	0.677999	-0.880432	-0.437038
O64	O	0.702467	-0.904699	-0.380303
N65	N	0.649259	-0.903897	-0.503798
C66	C	0.620505	-0.880442	-0.570557
O67	O	0.596064	-0.904708	-0.627348
C68	C	0.620452	-0.692770	-0.570521
C69	C	0.649191	-0.669307	-0.503749
C70	C	0.706681	-0.669295	-0.370233
C71	C	0.706665	-0.622380	-0.370219
C72	C	0.677912	-0.598928	-0.436971
C73	C	0.649175	-0.622391	-0.503736
C74	C	0.591700	-0.669316	-0.637284
C75	C	0.591690	-0.622395	-0.637271
C76	C	0.620429	-0.598931	-0.570500
C77	C	0.620406	-0.552024	-0.570474
N78	N	0.649147	-0.528558	-0.503714
C79	C	0.677900	-0.552010	-0.436963
C80	C	0.620534	-0.978973	-0.570569
C81	C	0.620546	-1.025891	-0.570577
C82	C	0.678042	-1.025877	-0.437060
C83	C	0.678027	-0.978958	-0.437048
C84	C	0.649274	-0.955507	-0.503810
C85	C	0.677864	-0.453484	-0.436939
C86	C	0.677844	-0.406564	-0.436928
C87	C	0.620350	-0.406582	-0.570449
C88	C	0.620368	-0.453498	-0.570456
C89	C	0.649129	-0.476948	-0.503698
O90	O	0.595955	-0.527728	-0.627188
O91	O	0.702344	-0.527736	-0.380196
C92	C	0.677960	-0.739674	-0.437011
C93	C	0.649223	-0.763137	-0.503776
C94	C	0.620470	-0.739686	-0.570528
C95	C	0.649235	-0.810055	-0.503784
C96	C	0.677988	-0.833507	-0.437033
C97	C	0.706729	-0.810041	-0.370273
C98	C	0.706713	-0.763126	-0.370260
C99	C	0.591729	-0.763151	-0.637287
C100	C	0.591747	-0.810067	-0.637295
C101	C	0.620500	-0.833519	-0.570543
C102	C	0.766344	-0.216475	-0.503795
C103	C	0.816279	-0.216483	-0.503828
C104	C	0.649197	-0.216412	-0.776289
C105	C	0.649210	-0.216394	-0.892443
C106	C	0.649259	-0.099277	-0.503794
C107	C	0.649299	-0.049343	-0.503826
C108	C	0.621934	-0.189078	-0.944227
C109	C	0.621947	-0.189058	-1.064277
C110	C	0.649161	-0.216466	-0.232209
C111	C	0.649235	-0.216358	-0.116056
H112	H	0.478153	-0.268632	-0.624667
H113	H	0.393044	-0.268633	-0.624716
O114	O	0.680170	-0.247336	-1.057075
H115	H	0.715445	-0.239637	-1.077987
H116	H	0.393024	-0.164254	-0.382635
O117	O	0.127790	-0.305011	-0.709139
H118	H	0.103592	-0.325008	-0.755534
O119	O	0.680151	-0.247359	-0.951437
H120	H	0.700125	-0.267375	-0.895242
H121	H	0.701284	-0.472571	-0.382580
O122	O	0.591016	-0.158077	-1.123262
H123	H	0.571029	-0.138080	-1.067064
H124	H	0.177219	-0.135494	-0.316011
O125	O	0.589341	-0.381284	-0.642449
H126	H	0.594165	-0.344718	-0.631226
O127	O	0.590991	-0.158114	-0.885237
H128	H	0.568134	-0.178244	-0.835473
O129	O	0.589542	-1.051196	-0.642578
H130	H	0.609640	-1.072540	-0.695799
O131	O	0.709055	-1.051178	-0.365067
H132	H	0.729040	-1.026984	-0.318634
O133	O	0.268537	-0.305004	-0.709095
H134	H	0.244338	-0.325000	-0.755491
H135	H	0.568277	-0.603303	-0.691640
O136	O	0.127772	-0.127914	-0.298375
H137	H	0.103570	-0.107922	-0.251987
O138	O	0.171025	-0.305065	-0.708994
H139	H	0.195228	-0.325083	-0.755315
H140	H	-0.094242	-0.268669	-0.624839
H141	H	-0.179364	-0.268670	-0.624858
H142	H	-0.094256	-0.164284	-0.382775
H143	H	0.730098	-0.688385	-0.315875
H144	H	0.036468	-0.297414	-0.691520
H145	H	-0.179364	-0.164297	-0.382788
H146	H	0.701247	-0.387462	-0.382551
H147	H	0.730068	-0.603278	-0.315851
O148	O	0.268531	-0.127890	-0.298359
H149	H	0.244332	-0.107893	-0.251976
O150	O	0.030258	-0.127905	-0.298433
H151	H	0.054455	-0.107901	-0.252053
O152	O	0.484344	-0.156645	-0.364981
H153	H	0.520909	-0.161476	-0.376193
H154	H	0.701429	-0.959857	-0.382677
H155	H	0.597119	-0.959882	-0.624937
O156	O	0.560704	-0.694616	-0.709305
H157	H	0.568395	-0.685576	-0.791334
O158	O	0.589371	-0.478810	-0.642468
H159	H	0.569377	-0.454618	-0.688885
O160	O	0.737715	-0.737821	-0.298253
H161	H	0.757712	-0.762017	-0.251853
H162	H	0.730139	-0.829144	-0.315919
O163	O	0.560748	-0.835373	-0.709318
H164	H	0.540757	-0.811178	-0.755736
H165	H	0.568315	-0.744061	-0.691646
