data_functionalizedCrystal
_audit_creation_method	'MofGen! by Chris Wilmer'
_symmetry_space_group_name_H-M	'P1'
_symmetry_Int_Tables_number	1
_symmetry_cell_setting	triclinic
loop_
_symmetry_equiv_pos_as_xyz
  x,y,z
_cell_length_a	10.654550
_cell_length_b	10.489741
_cell_length_c	9.130313
_cell_angle_alpha	89.995761
_cell_angle_beta	89.999724
_cell_angle_gamma	84.512052
loop_
_atom_site_label
_atom_site_type_symbol
_atom_site_fract_x
_atom_site_fract_y
_atom_site_fract_z
O1	O	1.667923	0.179162	-0.121689
O2	O	1.302453	0.196231	-0.121716
O3	O	1.493504	0.002095	-0.121693
O4	O	1.476872	0.373299	-0.121712
O5	O	1.493491	0.002089	0.121906
O6	O	1.302440	0.196226	0.121883
O7	O	1.667910	0.179156	0.121910
Cu8	Cu	1.485174	0.187691	0.144139
Cu9	Cu	1.485189	0.187697	-0.143945
O10	O	1.476859	0.373293	0.121887
C11	C	1.255648	0.194975	0.000080
C12	C	1.116203	0.191225	0.000070
C13	C	1.036771	0.305530	0.000068
C14	C	0.905748	0.301999	0.000094
C15	C	0.933603	0.069849	0.000117
C16	C	1.064623	0.073381	0.000102
C17	C	1.492241	-0.045439	0.000105
C18	C	1.488483	-0.187067	0.000102
C19	C	1.366923	-0.255148	0.000083
C20	C	1.424340	-0.347301	0.120194
C21	C	1.424382	-0.347270	-0.119976
C22	C	1.545951	-0.277354	0.120313
C23	C	1.545976	-0.277314	-0.119965
C24	C	1.603481	-0.369439	0.000176
C25	C	1.714715	0.180413	0.000110
C26	C	1.854160	0.184162	0.000111
C27	C	1.478122	0.420827	0.000085
C28	C	1.481880	0.562454	0.000079
N29	N	1.485172	0.187685	0.346761
N30	N	1.485201	0.187693	-0.346568
C31	C	1.569798	0.101758	0.423423
C32	C	1.569810	0.101758	0.576760
C33	C	1.400565	0.273624	0.576760
C34	C	1.400548	0.273617	0.423426
H35	H	0.891590	-0.026096	0.000151
C36	C	0.819717	0.426243	0.000012
C37	C	0.892939	0.530194	-0.000054
C38	C	0.813731	0.644672	-0.000147
H39	H	0.768010	0.429878	0.084945
H40	H	0.768037	0.429758	-0.084963
H41	H	0.944597	0.526681	0.084912
H42	H	0.944644	0.526602	-0.084981
H43	H	0.762051	0.648187	-0.085122
H44	H	0.762028	0.648294	0.084787
H45	H	0.863400	0.715216	-0.000206
C46	C	1.614700	-0.236394	0.255745
C47	C	1.738133	-0.295725	0.255883
C48	C	1.801502	-0.258006	0.380609
H49	H	1.571955	-0.260901	0.341036
H50	H	1.616720	-0.146045	0.254951
H51	H	1.736107	-0.386054	0.256691
H52	H	1.780913	-0.271226	0.170620
H53	H	1.803522	-0.167658	0.379815
H54	H	1.758747	-0.282515	0.465890
H55	H	1.885261	-0.298247	0.380712
C56	C	1.614312	-0.235731	-0.255404
C57	C	1.532986	-0.150304	-0.337009
C58	C	1.595887	-0.111953	-0.461788
H59	H	1.640318	-0.308637	-0.313475
H60	H	1.686135	-0.194733	-0.226613
H61	H	1.461186	-0.191302	-0.365803
H62	H	1.506975	-0.077378	-0.278982
H63	H	1.667710	-0.070955	-0.432996
H64	H	1.621891	-0.184866	-0.519846
H65	H	1.540722	-0.053978	-0.517165
H66	H	1.266977	-0.205449	0.000196
H67	H	1.703517	-0.418912	0.000250
C68	C	1.355591	-0.388340	-0.255328
C69	C	1.231811	-0.329914	-0.254769
C70	C	1.168400	-0.367698	-0.379434
H71	H	1.354223	-0.478751	-0.254957
H72	H	1.397905	-0.363169	-0.340652
H73	H	1.189508	-0.355094	-0.169467
H74	H	1.233141	-0.239505	-0.255162
H75	H	1.210714	-0.342526	-0.464758
H76	H	1.167041	-0.458108	-0.379052
H77	H	1.084412	-0.328052	-0.379078
C78	C	1.308608	0.367059	0.340446
C79	C	1.234532	0.442346	0.440400
C80	C	1.149837	0.528441	0.364012
H81	H	1.255797	0.320818	0.280642
H82	H	1.354225	0.420652	0.280644
H83	H	1.188919	0.388759	0.500177
H84	H	1.287309	0.488614	0.500207
H85	H	1.195453	0.582035	0.304210
H86	H	1.097034	0.482189	0.304211
H87	H	1.099574	0.579541	0.431819
H88	H	1.372900	-0.378290	0.221732
C89	C	1.150664	-0.050869	0.000027
C90	C	1.077453	-0.154828	0.000007
C91	C	1.156670	-0.269299	-0.000075
H92	H	1.202386	-0.054494	0.084948
H93	H	1.202330	-0.054384	-0.084960
H94	H	1.025809	-0.151314	0.084985
H95	H	1.025733	-0.151245	-0.084907
H96	H	1.208335	-0.272814	-0.085062
H97	H	1.208388	-0.272911	0.084847
H98	H	1.107008	-0.339849	-0.000103
H99	H	1.078762	0.401486	0.000054
H100	H	1.638719	0.031787	0.639174
H101	H	1.638702	0.031785	0.361007
H102	H	1.331669	0.343589	0.639195
