data_functionalizedCrystal
_audit_creation_method	'MofGen! by Chris Wilmer'
_symmetry_space_group_name_H-M	'P1'
_symmetry_Int_Tables_number	1
_symmetry_cell_setting	triclinic
loop_
_symmetry_equiv_pos_as_xyz
  x,y,z
_cell_length_a	29.839131
_cell_length_b	29.839135
_cell_length_c	29.839125
_cell_angle_alpha	90.001264
_cell_angle_beta	89.988394
_cell_angle_gamma	90.042543
loop_
_atom_site_label
_atom_site_type_symbol
_atom_site_fract_x
_atom_site_fract_y
_atom_site_fract_z
Zn1	Zn	-0.178930	0.686727	-0.253827
Zn2	Zn	0.154403	1.020060	0.079507
Zn3	Zn	0.487737	1.353394	0.412840
Zn4	Zn	-0.254034	0.686657	-0.178697
Zn5	Zn	0.079299	1.019990	0.154637
Zn6	Zn	0.412633	1.353324	0.487970
Zn7	Zn	-0.178920	0.611608	-0.178729
Zn8	Zn	0.154413	0.944941	0.154604
Zn9	Zn	0.487746	1.278274	0.487938
Zn10	Zn	-0.254035	0.611557	-0.253818
Zn11	Zn	0.079298	0.944891	0.079516
Zn12	Zn	0.412632	1.278224	0.412849
O13	O	-0.216480	0.649137	-0.216267
O14	O	0.116853	0.982471	0.117066
O15	O	0.450187	1.315804	0.450399
O16	O	-0.188896	0.749585	-0.243851
O17	O	0.144437	1.082918	0.089483
O18	O	0.477770	1.416251	0.422816
O19	O	-0.244065	0.676693	-0.115834
O20	O	0.089268	1.010026	0.217500
O21	O	0.422601	1.343360	0.550833
O22	O	-0.116054	0.621623	-0.188708
O23	O	0.217279	0.954956	0.144625
O24	O	0.550612	1.288289	0.477959
O25	O	-0.244075	0.749533	-0.188653
O26	O	0.089258	1.082867	0.144680
O27	O	0.422592	1.416200	0.478014
O28	O	-0.116062	0.676812	-0.243882
O29	O	0.217272	1.010146	0.089451
O30	O	0.550605	1.343479	0.422785
O31	O	-0.188880	0.621555	-0.115857
O32	O	0.144454	0.954888	0.217476
O33	O	0.477787	1.288221	0.550809
O34	O	-0.188881	0.548734	-0.188699
O35	O	0.144452	0.882067	0.144634
O36	O	0.477786	1.215400	0.477967
O37	O	-0.244077	0.621537	-0.316686
O38	O	0.089257	0.954870	0.016647
O39	O	0.422590	1.288204	0.349981
O40	O	-0.244067	0.548697	-0.243867
O41	O	0.089266	0.882030	0.089467
O42	O	0.422599	1.215364	0.422800
O43	O	-0.188897	0.676764	-0.316693
O44	O	0.144436	1.010097	0.016641
O45	O	0.477769	1.343430	0.349974
O46	O	-0.316901	0.676645	-0.188644
O47	O	0.016432	1.009978	0.144689
O48	O	0.349765	1.343311	0.478022
O49	O	-0.316902	0.621469	-0.243835
O50	O	0.016431	0.954803	0.089498
O51	O	0.349765	1.288136	0.422831
C52	C	-0.333202	0.649056	-0.216245
C53	C	0.000131	0.982389	0.117088
C54	C	0.333464	1.315723	0.450421
C55	C	-0.383137	0.649062	-0.216251
C56	C	-0.049804	0.982396	0.117083
C57	C	0.283530	1.315729	0.450416
C58	C	-0.216474	0.532415	-0.216286
C59	C	0.116860	0.865748	0.117048
C60	C	0.450193	1.199081	0.450381
C61	C	-0.216482	0.482480	-0.216304
C62	C	0.116852	0.815814	0.117029
C63	C	0.450185	1.149147	0.450362
C64	C	-0.216488	0.649153	-0.333446
C65	C	0.116845	0.982486	-0.000112
C66	C	0.450178	1.315819	0.333221
C67	C	-0.216492	0.649159	-0.383380
C68	C	0.116841	0.982493	-0.050047
C69	C	0.450175	1.315826	0.283286
C70	C	-0.692767	0.677919	-0.187571
C71	C	-0.359434	1.011252	0.145762
C72	C	-0.026100	1.344586	0.479095
C73	C	-0.880440	0.677975	-0.187589
C74	C	-0.547107	1.011308	0.145745
C75	C	-0.213774	1.344641	0.479078
O76	O	-0.904694	0.702445	-0.163188
O77	O	-0.571361	1.035779	0.170146
O78	O	-0.238027	1.369112	0.503479
N79	N	-0.903922	0.649230	-0.216301
N80	N	-0.570589	0.982564	0.117032
N81	N	-0.237255	1.315897	0.450365
C82	C	-0.880482	0.620472	-0.245014
C83	C	-0.547149	0.953806	0.088320
C84	C	-0.213816	1.287139	0.421653
O85	O	-0.904761	0.596028	-0.269439
O86	O	-0.571428	0.929361	0.063894
O87	O	-0.238095	1.262695	0.397228
C88	C	-0.692810	0.620419	-0.244998
C89	C	-0.359477	0.953753	0.088335
C90	C	-0.026144	1.287086	0.421669
C91	C	-0.669331	0.649162	-0.216280
C92	C	-0.335998	0.982496	0.117053
C93	C	-0.002664	1.315829	0.450386
C94	C	-0.669288	0.706660	-0.158857
C95	C	-0.335955	1.039993	0.174477
C96	C	-0.002621	1.373327	0.507810
C97	C	-0.622372	0.706644	-0.158851
C98	C	-0.289039	1.039978	0.174483
C99	C	0.044294	1.373311	0.507816
C100	C	-0.598936	0.677887	-0.187560
C101	C	-0.265603	1.011221	0.145774
C102	C	0.067730	1.344554	0.479107
C103	C	-0.622416	0.649146	-0.216275
C104	C	-0.289082	0.982480	0.117059
C105	C	0.044251	1.315813	0.450392
C106	C	-0.669372	0.591664	-0.273712
C107	C	-0.336038	0.924997	0.059621
C108	C	-0.002705	1.258331	0.392954
C109	C	-0.622451	0.591654	-0.273707
C110	C	-0.289117	0.924987	0.059627
C111	C	0.044216	1.258321	0.392960
C112	C	-0.598971	0.620397	-0.244989
C113	C	-0.265638	0.953730	0.088344
C114	C	0.067695	1.287064	0.421678
C115	C	-0.552064	0.620374	-0.244978
C116	C	-0.218731	0.953707	0.088355
C117	C	0.114603	1.287040	0.421689
N118	N	-0.528582	0.649118	-0.216266
N119	N	-0.195249	0.982451	0.117068
N120	N	0.138084	1.315785	0.450401
C121	C	-0.552018	0.677875	-0.187556
C122	C	-0.218685	1.011208	0.145777
C123	C	0.114648	1.344542	0.479110
C124	C	-0.979013	0.620501	-0.245019
C125	C	-0.645680	0.953835	0.088314
C126	C	-0.312346	1.287168	0.421648
C127	C	-1.025931	0.620514	-0.245022
C128	C	-0.692598	0.953847	0.088311
C129	C	-0.359264	1.287181	0.421644
C130	C	-1.025885	0.678017	-0.187598
C131	C	-0.692552	1.011350	0.145735
C132	C	-0.359219	1.344684	0.479069
C133	C	-0.978967	0.678002	-0.187593
C134	C	-0.645633	1.011335	0.145740
C135	C	-0.312300	1.344669	0.479074
C136	C	-0.955531	0.649246	-0.216307
C137	C	-0.622198	0.982579	0.117027
C138	C	-0.288865	1.315912	0.450360
C139	C	-0.453493	0.677839	-0.187546
C140	C	-0.120159	1.011172	0.145787
C141	C	0.213174	1.344506	0.479121
C142	C	-0.406573	0.677819	-0.187542
C143	C	-0.073240	1.011153	0.145792
C144	C	0.260094	1.344486	0.479125
C145	C	-0.406623	0.620318	-0.244967
C146	C	-0.073289	0.953651	0.088366
C147	C	0.260044	1.286985	0.421699
C148	C	-0.453538	0.620336	-0.244970
C149	C	-0.120205	0.953669	0.088363
C150	C	0.213129	1.287003	0.421696
C151	C	-0.476972	0.649100	-0.216258
C152	C	-0.143639	0.982433	0.117075
C153	C	0.189695	1.315767	0.450408
O154	O	-0.527781	0.595919	-0.269370
O155	O	-0.194448	0.929253	0.063963
O156	O	0.138885	1.262586	0.397297
O157	O	-0.527731	0.702322	-0.163142
O158	O	-0.194398	1.035656	0.170192
O159	O	0.138935	1.368989	0.503525
C160	C	-0.739683	0.677935	-0.187577
C161	C	-0.406349	1.011268	0.145756
C162	C	-0.073016	1.344602	0.479089
C163	C	-0.763162	0.649194	-0.216292
C164	C	-0.429829	0.982527	0.117041
C165	C	-0.096495	1.315861	0.450375
C166	C	-0.739726	0.620437	-0.245001
C167	C	-0.406392	0.953771	0.088332
C168	C	-0.073059	1.287104	0.421666
C169	C	-0.810080	0.649207	-0.216295
C170	C	-0.476746	0.982540	0.117038
C171	C	-0.143413	1.315873	0.450371
C172	C	-0.833516	0.677963	-0.187586
C173	C	-0.500183	1.011297	0.145747
C174	C	-0.166849	1.344630	0.479080
C175	C	-0.810034	0.706708	-0.158874
C176	C	-0.476701	1.040041	0.174459
C177	C	-0.143368	1.373374	0.507793
C178	C	-0.763119	0.706692	-0.158868
C179	C	-0.429785	1.040025	0.174465
C180	C	-0.096452	1.373359	0.507799
C181	C	-0.763207	0.591693	-0.273714
C182	C	-0.429874	0.925026	0.059620
C183	C	-0.096541	1.258360	0.392953
C184	C	-0.810123	0.591711	-0.273717
C185	C	-0.476790	0.925044	0.059617
C186	C	-0.143456	1.258377	0.392950
C187	C	-0.833559	0.620468	-0.245008
C188	C	-0.500226	0.953801	0.088326
C189	C	-0.166892	1.287134	0.421659
C190	C	-0.099301	0.649231	-0.216300
C191	C	0.234032	0.982564	0.117034
C192	C	0.567365	1.315898	0.450367
C193	C	-0.049367	0.649271	-0.216313
C194	C	0.283966	0.982604	0.117020
C195	C	0.617300	1.315937	0.450353
C196	C	-0.216487	0.766316	-0.216249
C197	C	0.116847	1.099649	0.117084
C198	C	0.450180	1.432982	0.450417
C199	C	-0.216489	0.816250	-0.216242
C200	C	0.116844	1.149583	0.117092
C201	C	0.450177	1.482917	0.450425
C202	C	-0.245222	1.172810	-0.187539
C203	C	0.088111	1.506144	0.145795
C204	C	0.421444	1.839477	0.479128
C205	C	-0.245221	0.985137	-0.187521
C206	C	0.088112	1.318471	0.145812
C207	C	0.421445	1.651804	0.479146
O208	O	-0.269665	0.960850	-0.163091
O209	O	0.063668	1.294183	0.170242
O210	O	0.397001	1.627517	0.503575
N211	N	-0.216493	0.961695	-0.216257
N212	N	0.116841	1.295028	0.117076
N213	N	0.450174	1.628362	0.450410
C214	C	-0.187764	0.985174	-0.245002
C215	C	0.145569	1.318507	0.088332
C216	C	0.478902	1.651841	0.421665
O217	O	-0.163332	0.960929	-0.269446
O218	O	0.170001	1.294262	0.063887
O219	O	0.503334	1.627595	0.397221
C220	C	-0.187768	1.172846	-0.245021
C221	C	0.145565	1.506180	0.088312
C222	C	0.478899	1.839513	0.421645
C223	C	-0.216495	1.196286	-0.216280
C224	C	0.116838	1.529619	0.117053
C225	C	0.450171	1.862953	0.450386
C226	C	-0.273948	1.196250	-0.158800
C227	C	0.059386	1.529584	0.174533
C228	C	0.392719	1.862917	0.507866
C229	C	-0.273946	1.243166	-0.158803
C230	C	0.059387	1.576499	0.174530
C231	C	0.392721	1.909832	0.507863
C232	C	-0.245219	1.266641	-0.187545
C233	C	0.088114	1.599975	0.145789
C234	C	0.421448	1.933308	0.479122
C235	C	-0.216494	1.243201	-0.216283
C236	C	0.116840	1.576535	0.117050
C237	C	0.450173	1.909868	0.450383
C238	C	-0.159042	1.196324	-0.273768
C239	C	0.174291	1.529658	0.059565
C240	C	0.507624	1.862991	0.392899
C241	C	-0.159047	1.243245	-0.273771
C242	C	0.174287	1.576579	0.059562
C243	C	0.507620	1.909912	0.392896
C244	C	-0.187774	1.266685	-0.245030
C245	C	0.145559	1.600018	0.088303
C246	C	0.478893	1.933352	0.421637
C247	C	-0.187765	1.313593	-0.245028
C248	C	0.145569	1.646926	0.088306
C249	C	0.478902	1.980259	0.421639
N250	N	-0.216493	1.337035	-0.216292
N251	N	0.116840	1.670368	0.117042
N252	N	0.450173	2.003701	0.450375
C253	C	-0.245220	1.313559	-0.187550
C254	C	0.088113	1.646892	0.145783
C255	C	0.421446	1.980226	0.479116
C256	C	-0.187764	0.886643	-0.244988
C257	C	0.145569	1.219977	0.088345
C258	C	0.478903	1.553310	0.421678
C259	C	-0.187762	0.839726	-0.244983
C260	C	0.145571	1.173059	0.088350
C261	C	0.478904	1.506392	0.421684
C262	C	-0.245220	0.839692	-0.187503
C263	C	0.088113	1.173025	0.145830
C264	C	0.421447	1.506359	0.479164
C265	C	-0.245219	0.886611	-0.187506
C266	C	0.088114	1.219944	0.145827
C267	C	0.421448	1.553277	0.479160
C268	C	-0.216492	0.910086	-0.216252
C269	C	0.116841	1.243419	0.117081
C270	C	0.450174	1.576752	0.450414
C271	C	-0.245214	1.412085	-0.187559
C272	C	0.088119	1.745418	0.145775
C273	C	0.421452	2.078752	0.479108
C274	C	-0.245209	1.459005	-0.187563
C275	C	0.088125	1.792338	0.145771
C276	C	0.421458	2.125671	0.479104
C277	C	-0.187753	1.459034	-0.245044
C278	C	0.145580	1.792367	0.088289
C279	C	0.478914	2.125701	0.421622
C280	C	-0.187757	1.412118	-0.245039
C281	C	0.145577	1.745452	0.088295
C282	C	0.478910	2.078785	0.421628
C283	C	-0.216491	1.388645	-0.216294
C284	C	0.116842	1.721978	0.117039
C285	C	0.450176	2.055312	0.450372
O286	O	-0.163337	1.337909	-0.269448
O287	O	0.169996	1.671242	0.063885
O288	O	0.503329	2.004575	0.397219
O289	O	-0.269656	1.337813	-0.163116
O290	O	0.063677	1.671146	0.170217
O291	O	0.397011	2.004479	0.503550
C292	C	-0.245224	1.125895	-0.187536
C293	C	0.088109	1.459228	0.145798
C294	C	0.421443	1.792562	0.479131
C295	C	-0.216499	1.102455	-0.216274
C296	C	0.116834	1.435788	0.117059
C297	C	0.450168	1.769122	0.450393
C298	C	-0.187772	1.125931	-0.245016
C299	C	0.145562	1.459264	0.088318
C300	C	0.478895	1.792597	0.421651
C301	C	-0.216497	1.055537	-0.216269
C302	C	0.116836	1.388871	0.117065
C303	C	0.450169	1.722204	0.450398
C304	C	-0.245224	1.032062	-0.187527
C305	C	0.088109	1.365395	0.145806
C306	C	0.421442	1.698728	0.479139
C307	C	-0.273953	1.055504	-0.158791
C308	C	0.059380	1.388837	0.174542
C309	C	0.392714	1.722170	0.507875
C310	C	-0.273951	1.102419	-0.158794
C311	C	0.059382	1.435753	0.174539
C312	C	0.392716	1.769086	0.507872
C313	C	-0.159043	1.102488	-0.273752
C314	C	0.174290	1.435822	0.059582
C315	C	0.507623	1.769155	0.392915
C316	C	-0.159047	1.055573	-0.273746
C317	C	0.174286	1.388906	0.059587
C318	C	0.507620	1.722240	0.392921
C319	C	-0.187774	1.032097	-0.245004
C320	C	0.145559	1.365431	0.088329
C321	C	0.478893	1.698764	0.421662
C322	C	-0.245121	0.620434	-0.739964
C323	C	0.088213	0.953767	-0.406631
C324	C	0.421546	1.287101	-0.073297
C325	C	-0.245173	0.620418	-0.552291
C326	C	0.088161	0.953751	-0.218958
C327	C	0.421494	1.287084	0.114376
O328	O	-0.269598	0.595950	-0.528024
O329	O	0.063735	0.929284	-0.194690
O330	O	0.397068	1.262617	0.138643
N331	N	-0.216450	0.649169	-0.528825
N332	N	0.116883	0.982503	-0.195492
N333	N	0.450216	1.315836	0.137841
C334	C	-0.187711	0.677925	-0.552281
C335	C	0.145622	1.011258	-0.218948
C336	C	0.478956	1.344591	0.114386
O337	O	-0.163279	0.702376	-0.528016
O338	O	0.170055	1.035709	-0.194683
O339	O	0.503388	1.369043	0.138651
C340	C	-0.187657	0.677938	-0.739953
C341	C	0.145676	1.011272	-0.406620
C342	C	0.479009	1.344605	-0.073287
C343	C	-0.216385	0.649188	-0.763416
C344	C	0.116949	0.982521	-0.430083
C345	C	0.450282	1.315855	-0.096750
C346	C	-0.273845	0.591686	-0.763427
C347	C	0.059488	0.925019	-0.430094
C348	C	0.392821	1.258352	-0.096761
C349	C	-0.273834	0.591692	-0.810343
C350	C	0.059499	0.925025	-0.477009
C351	C	0.392833	1.258359	-0.143676
C352	C	-0.245098	0.620446	-0.833795
C353	C	0.088236	0.953779	-0.500462
C354	C	0.421569	1.287113	-0.167128
C355	C	-0.216373	0.649194	-0.810332
C356	C	0.116960	0.982528	-0.476999
C357	C	0.450294	1.315861	-0.143665
C358	C	-0.158916	0.706691	-0.763408
C359	C	0.174417	1.040024	-0.430075
C360	C	0.507751	1.373358	-0.096741
C361	C	-0.158904	0.706691	-0.810329
C362	C	0.174429	1.040025	-0.476996
C363	C	0.507762	1.373358	-0.143662
C364	C	-0.187632	0.677941	-0.833792
C365	C	0.145702	1.011274	-0.500459
C366	C	0.479035	1.344608	-0.167126
C367	C	-0.187625	0.677954	-0.880700
C368	C	0.145708	1.011288	-0.547366
C369	C	0.479041	1.344621	-0.214033
N370	N	-0.216348	0.649203	-0.904165
N371	N	0.116986	0.982536	-0.570832
N372	N	0.450319	1.315870	-0.237499
C373	C	-0.245084	0.620449	-0.880713
C374	C	0.088249	0.953782	-0.547380
C375	C	0.421583	1.287115	-0.214046
C376	C	-0.187742	0.677916	-0.453750
C377	C	0.145592	1.011250	-0.120417
C378	C	0.478925	1.344583	0.212916
C379	C	-0.187756	0.677914	-0.406833
C380	C	0.145578	1.011247	-0.073499
C381	C	0.478911	1.344580	0.259834
C382	C	-0.245217	0.620406	-0.406846
C383	C	0.088116	0.953739	-0.073512
C384	C	0.421450	1.287073	0.259821
C385	C	-0.245205	0.620411	-0.453764
C386	C	0.088128	0.953745	-0.120431
C387	C	0.421462	1.287078	0.212902
C388	C	-0.216464	0.649165	-0.477216
C389	C	0.116869	0.982498	-0.143883
C390	C	0.450203	1.315831	0.189451
C391	C	-0.245058	0.620464	-0.979239
C392	C	0.088276	0.953797	-0.645905
C393	C	0.421609	1.287131	-0.312572
C394	C	-0.245045	0.620474	-1.026158
C395	C	0.088288	0.953807	-0.692825
C396	C	0.421622	1.287141	-0.359492
C397	C	-0.187582	0.677980	-1.026141
C398	C	0.145751	1.011313	-0.692808
C399	C	0.479084	1.344646	-0.359474
C400	C	-0.187597	0.677972	-0.979226
C401	C	0.145737	1.011305	-0.645892
C402	C	0.479070	1.344638	-0.312559
C403	C	-0.216336	0.649210	-0.955776
C404	C	0.116998	0.982543	-0.622442
C405	C	0.450331	1.315877	-0.289109
O406	O	-0.163209	0.702406	-0.904996
O407	O	0.170125	1.035739	-0.571663
O408	O	0.503458	1.369072	-0.238329
O409	O	-0.269505	0.595994	-0.904986
O410	O	0.063828	0.929327	-0.571653
O411	O	0.397161	1.262661	-0.238320
C412	C	-0.245132	0.620428	-0.693049
C413	C	0.088201	0.953761	-0.359715
C414	C	0.421534	1.287095	-0.026382
C415	C	-0.216408	0.649176	-0.669586
C416	C	0.116926	0.982509	-0.336252
C417	C	0.450259	1.315843	-0.002919
C418	C	-0.187671	0.677930	-0.693038
C419	C	0.145662	1.011264	-0.359704
C420	C	0.478995	1.344597	-0.026371
C421	C	-0.216422	0.649173	-0.622668
C422	C	0.116912	0.982507	-0.289334
C423	C	0.450245	1.315840	0.043999
C424	C	-0.245158	0.620419	-0.599215
C425	C	0.088176	0.953752	-0.265882
C426	C	0.421509	1.287086	0.067451
C427	C	-0.273880	0.591668	-0.622681
C428	C	0.059453	0.925001	-0.289348
C429	C	0.392787	1.258334	0.043986
C430	C	-0.273868	0.591674	-0.669596
C431	C	0.059465	0.925007	-0.336263
C432	C	0.392798	1.258340	-0.002930
C433	C	-0.158949	0.706682	-0.669572
C434	C	0.174384	1.040015	-0.336239
C435	C	0.507717	1.373348	-0.002906
C436	C	-0.158963	0.706674	-0.622657
C437	C	0.174370	1.040007	-0.289323
C438	C	0.507703	1.373340	0.044010
C439	C	-0.187700	0.677919	-0.599204
C440	C	0.145634	1.011253	-0.265871
C441	C	0.478967	1.344586	0.067462
C442	C	-0.216439	0.649148	-0.099545
C443	C	0.116894	0.982481	0.233788
C444	C	0.450228	1.315814	0.567122
C445	C	-0.216309	0.649228	-0.049611
C446	C	0.117024	0.982561	0.283723
C447	C	0.450358	1.315895	0.617056
H448	H	-0.387458	0.701225	-0.164155
H449	H	-0.054124	1.034559	0.169179
H450	H	0.279209	1.367892	0.502512
C451	C	-0.127443	1.269065	-0.305393
C452	C	0.205890	1.602398	0.027940
C453	C	0.539224	1.935731	0.361273
N454	N	-0.103638	1.288511	-0.329210
N455	N	0.229696	1.621844	0.004123
N456	N	0.563029	1.955178	0.337457
C457	C	-0.305460	0.560051	-0.737637
C458	C	0.027873	0.893384	-0.404304
C459	C	0.361206	1.226718	-0.070970
N460	N	-0.329277	0.536224	-0.718215
N461	N	0.004056	0.869557	-0.384882
N462	N	0.337390	1.202890	-0.051548
H463	H	-0.268456	0.597040	-0.960151
H464	H	0.064877	0.930373	-0.626818
H465	H	0.398211	1.263706	-0.293485
C466	C	-0.156156	0.709544	-0.381028
C467	C	0.177177	1.042877	-0.047695
C468	C	0.510511	1.376210	0.285638
N469	N	-0.132352	0.733366	-0.361594
N470	N	0.200982	1.066700	-0.028261
N471	N	0.534315	1.400033	0.305072
C472	C	-0.737298	0.738310	-0.127275
C473	C	-0.403964	1.071643	0.206059
C474	C	-0.070631	1.404977	0.539392
N475	N	-0.717852	0.762126	-0.103476
N476	N	-0.384519	1.095460	0.229857
N477	N	-0.051185	1.428793	0.563190
H478	H	-0.959935	0.597083	-0.268402
H479	H	-0.626602	0.930417	0.064932
H480	H	-0.293268	1.263750	0.398265
H481	H	-0.268597	0.597000	-0.472865
H482	H	0.064736	0.930333	-0.139532
H483	H	0.398070	1.263667	0.193802
C484	C	-0.596675	0.560019	-0.305295
C485	C	-0.263341	0.893352	0.028038
C486	C	0.069992	1.226686	0.361372
N487	N	-0.577261	0.536191	-0.329087
N488	N	-0.243928	0.869524	0.004247
N489	N	0.089405	1.202858	0.337580
C490	C	-0.305552	1.268943	-0.127189
C491	C	0.027781	1.602277	0.206144
C492	C	0.361115	1.935610	0.539478
N493	N	-0.329361	1.288356	-0.103377
N494	N	0.003973	1.621689	0.229957
N495	N	0.337306	1.955023	0.563290
C496	C	-0.156156	0.912460	-0.276609
C497	C	0.177177	1.245793	0.056724
C498	C	0.510511	1.579126	0.390058
N499	N	-0.132346	0.931903	-0.300424
N500	N	0.200987	1.265236	0.032910
N501	N	0.534321	1.598569	0.366243
H502	H	-0.297261	0.568262	-0.688696
H503	H	0.036072	0.901596	-0.355363
H504	H	0.369406	1.234929	-0.022029
C505	C	-0.156156	0.813947	-0.276597
C506	C	0.177177	1.147280	0.056737
C507	C	0.510510	1.480614	0.390070
N508	N	-0.132352	0.794532	-0.300412
N509	N	0.200982	1.127866	0.032922
N510	N	0.534315	1.461199	0.366255
C511	C	-0.155970	0.709603	-1.051948
C512	C	0.177364	1.042936	-0.718614
C513	C	0.510697	1.376270	-0.385281
N514	N	-0.132155	0.733418	-1.071387
N515	N	0.201179	1.066752	-0.738053
N516	N	0.534512	1.400085	-0.404720
H517	H	-0.744129	0.568276	-0.297093
H518	H	-0.410796	0.901609	0.036241
H519	H	-0.077463	1.234943	0.369574
C520	C	-0.835945	0.560088	-0.305310
C521	C	-0.502611	0.893422	0.028023
C522	C	-0.169278	1.226755	0.361357
N523	N	-0.855392	0.536274	-0.329108
N524	N	-0.522059	0.869607	0.004225
N525	N	-0.188726	1.202940	0.337559
C526	C	-0.305556	1.128197	-0.127179
C527	C	0.027777	1.461530	0.206155
C528	C	0.361111	1.794864	0.539488
N529	N	-0.329363	1.147610	-0.103365
N530	N	0.003970	1.480943	0.229968
N531	N	0.337304	1.814276	0.563302
H532	H	-0.472567	0.701263	-0.164167
H533	H	-0.139234	1.034596	0.169166
H534	H	0.194100	1.367929	0.502500
C535	C	-0.127436	1.128305	-0.305368
C536	C	0.205897	1.461639	0.027965
C537	C	0.539231	1.794972	0.361299
N538	N	-0.103624	1.147748	-0.329181
N539	N	0.229709	1.481082	0.004153
N540	N	0.563042	1.814415	0.337486
H541	H	-0.829124	0.730121	-0.135497
H542	H	-0.495791	1.063455	0.197837
H543	H	-0.162457	1.396788	0.531170
C544	C	-0.156153	1.386334	-0.276653
C545	C	0.177180	1.719667	0.056681
C546	C	0.510514	2.053001	0.390014
N547	N	-0.132352	1.366916	-0.300469
N548	N	0.200981	1.700249	0.032865
N549	N	0.534315	2.033583	0.366198
H550	H	-0.297280	0.568257	-0.603578
H551	H	0.036054	0.901590	-0.270244
H552	H	0.369387	1.234923	0.063089
C553	C	-0.156154	1.484866	-0.276658
C554	C	0.177179	1.818199	0.056675
C555	C	0.510512	2.151533	0.390008
N556	N	-0.132356	1.504324	-0.300472
N557	N	0.200977	1.837658	0.032861
N558	N	0.534310	2.170991	0.366195
C559	C	-0.156125	0.709552	-0.479541
C560	C	0.177208	1.042886	-0.146208
C561	C	0.510541	1.376219	0.187126
N562	N	-0.132313	0.733383	-0.498965
N563	N	0.201020	1.066716	-0.165631
N564	N	0.534354	1.400049	0.167702
H565	H	-0.135523	0.730103	-0.744312
H566	H	0.197810	1.063436	-0.410979
H567	H	0.531143	1.396770	-0.077646
H568	H	-0.387534	0.596903	-0.268341
H569	H	-0.054200	0.930236	0.064993
H570	H	0.279133	1.263570	0.398326
H571	H	-0.959853	0.701407	-0.164209
H572	H	-0.626519	1.034740	0.169125
H573	H	-0.293186	1.368074	0.502458
H574	H	-0.268440	0.597062	-1.045260
H575	H	0.064893	0.930395	-0.711927
H576	H	0.398227	1.263728	-0.378593
H577	H	-0.164208	0.701385	-0.960121
H578	H	0.169126	1.034719	-0.626788
H579	H	0.502459	1.368052	-0.293454
H580	H	-0.297226	0.568279	-0.829442
H581	H	0.036108	0.901613	-0.496109
H582	H	0.369441	1.234946	-0.162776
C583	C	-0.127288	0.738325	-0.836123
C584	C	0.206046	1.071658	-0.502790
C585	C	0.539379	1.404991	-0.169456
N586	N	-0.103475	0.762152	-0.855550
N587	N	0.229858	1.095486	-0.522216
N588	N	0.563191	1.428819	-0.188883
H589	H	-0.268602	1.478087	-0.164157
H590	H	0.064731	1.811420	0.169177
H591	H	0.398065	2.144754	0.502510
C592	C	-0.127358	0.738302	-0.596853
C593	C	0.205976	1.071636	-0.263519
C594	C	0.539309	1.404969	0.069814
N595	N	-0.103549	0.762121	-0.577419
N596	N	0.229784	1.095454	-0.244085
N597	N	0.563117	1.428788	0.089248
H598	H	-0.135548	0.730097	-0.688662
H599	H	0.197785	1.063430	-0.355329
H600	H	0.531119	1.396764	-0.021996
H601	H	-0.603258	0.730050	-0.135468
H602	H	-0.269925	1.063384	0.197866
H603	H	0.063408	1.396717	0.531199
C604	C	-0.276822	0.813860	-0.155890
C605	C	0.056511	1.147194	0.177444
C606	C	0.389844	1.480527	0.510777
N607	N	-0.300627	0.794401	-0.132082
N608	N	0.032706	1.127735	0.201251
N609	N	0.366040	1.461068	0.534584
H610	H	-0.688365	0.730080	-0.135478
H611	H	-0.355031	1.063413	0.197855
H612	H	-0.021698	1.396747	0.531189
C613	C	-0.305553	1.029672	-0.127176
C614	C	0.027780	1.363005	0.206157
C615	C	0.361113	1.696338	0.539491
N616	N	-0.329355	1.010212	-0.103367
N617	N	0.003978	1.343546	0.229966
N618	N	0.337311	1.676879	0.563300
C619	C	-1.051674	0.709652	-0.156020
C620	C	-0.718340	1.042986	0.177313
C621	C	-0.385007	1.376319	0.510646
N622	N	-1.071100	0.733481	-0.132240
N623	N	-0.737766	1.066815	0.201093
N624	N	-0.404433	1.400148	0.534427
H625	H	-0.268616	0.596994	-0.387743
H626	H	0.064718	0.930327	-0.054410
H627	H	0.398051	1.263660	0.278924
H628	H	-0.688480	0.568256	-0.297095
H629	H	-0.355147	0.901589	0.036238
H630	H	-0.021814	1.234923	0.369572
H631	H	-0.135649	1.036492	-0.297150
H632	H	0.197684	1.369826	0.036184
H633	H	0.531017	1.703159	0.369517
H634	H	-0.268613	1.392979	-0.164153
H635	H	0.064720	1.726312	0.169180
H636	H	0.398053	2.059645	0.502514
H637	H	-0.135651	1.177248	-0.297173
H638	H	0.197683	1.510581	0.036160
H639	H	0.531016	1.843914	0.369494
H640	H	-1.045044	0.597104	-0.268403
H641	H	-0.711710	0.930438	0.064930
H642	H	-0.378377	1.263771	0.398264
H643	H	-0.297343	1.177141	-0.135395
H644	H	0.035990	1.510475	0.197938
H645	H	0.369324	1.843808	0.531271
C646	C	-0.479366	0.588716	-0.276559
C647	C	-0.146033	0.922049	0.056774
C648	C	0.187301	1.255382	0.390107
N649	N	-0.498817	0.564902	-0.300356
N650	N	-0.165483	0.898236	0.032977
N651	N	0.167850	1.231569	0.366310
H652	H	-0.268612	0.905692	-0.164103
H653	H	0.064722	1.239026	0.169230
H654	H	0.398055	1.572359	0.502563
