data_functionalizedCrystal
_audit_creation_method	'MofGen! by Chris Wilmer'
_symmetry_space_group_name_H-M	'P1'
_symmetry_Int_Tables_number	1
_symmetry_cell_setting	triclinic
loop_
_symmetry_equiv_pos_as_xyz
  x,y,z
_cell_length_a	15.944545
_cell_length_b	19.188924
_cell_length_c	14.421503
_cell_angle_alpha	90.002214
_cell_angle_beta	89.995153
_cell_angle_gamma	83.319068
loop_
_atom_site_label
_atom_site_type_symbol
_atom_site_fract_x
_atom_site_fract_y
_atom_site_fract_z
O1	O	1.114193	0.090018	-0.077056
O2	O	0.869601	0.101124	-0.077072
O3	O	0.998958	-0.006067	-0.077052
O4	O	0.984836	0.197209	-0.077075
O5	O	0.998937	-0.006051	0.077171
O6	O	0.869579	0.101140	0.077152
O7	O	1.114172	0.090034	0.077167
Cu8	Cu	0.991874	0.095588	0.091242
Cu9	Cu	0.991899	0.095570	-0.091146
O10	O	0.984814	0.197225	0.077148
C11	C	0.838298	0.100672	0.000038
C12	C	0.745057	0.099292	0.000033
C13	C	0.474690	0.028726	0.000050
C14	C	0.525133	0.062755	0.076089
C15	C	0.409431	0.094371	0.000049
C16	C	0.525135	0.062757	-0.075963
C17	C	0.574336	0.096785	0.000040
C18	C	0.458646	0.128382	0.076151
C19	C	0.458644	0.128374	-0.075970
C20	C	0.509054	0.162451	0.000087
C21	C	0.314435	0.092978	0.000056
C22	C	0.669330	0.098183	0.000040
C23	C	0.998491	-0.032071	0.000060
C24	C	0.997121	-0.109579	0.000063
C25	C	0.996494	-0.145989	-0.084005
C26	C	0.995194	-0.218815	-0.084012
C27	C	0.994540	-0.255231	0.000053
C28	C	0.995163	-0.218812	0.084132
C29	C	0.996454	-0.145987	0.084136
N30	N	1.040304	-0.374770	0.062624
N31	N	1.039080	-0.443951	0.062613
C32	C	0.990649	-0.474650	0.000044
N33	N	0.943500	-0.433554	-0.062529
N34	N	0.944728	-0.364367	-0.062522
C35	C	0.993140	-0.334198	0.000057
C36	C	0.988612	-0.590025	-0.084037
C37	C	0.987307	-0.662852	-0.084041
C38	C	0.987284	-0.662849	0.084105
C39	C	0.988580	-0.590022	0.084107
C40	C	0.989248	-0.553615	0.000033
C41	C	1.145475	0.090486	0.000056
C42	C	1.238716	0.091866	0.000055
C43	C	0.985281	0.223229	0.000034
C44	C	0.986651	0.300737	0.000025
N45	N	0.991862	0.095601	0.219523
N46	N	0.991917	0.095551	-0.219427
C47	C	0.932036	0.145144	0.469168
C48	C	1.007886	0.158698	0.530973
C49	C	0.991882	0.095585	0.408684
C50	C	0.916053	0.082047	0.530972
C51	C	0.991895	0.095570	0.591406
C52	C	1.067770	0.109170	0.469129
C53	C	0.975887	0.032492	0.469123
C54	C	1.051791	0.046018	0.530901
C55	C	0.991874	0.095595	0.303423
C56	C	0.991913	0.095559	0.696665
H57	H	0.554165	0.035016	-0.140244
Br58	Br	1.136240	-0.023851	0.575802
Br59	Br	0.989513	-0.540611	-0.198134
H60	H	0.429723	0.156091	0.140504
H61	H	0.524332	0.219028	0.000126
Br62	Br	0.989428	-0.540606	0.198205
Br63	Br	0.997301	-0.096570	0.198237
Br64	Br	0.997396	-0.096582	-0.198104
H65	H	0.851920	0.070604	0.558140
H66	H	0.994627	-0.248466	0.152578
Br67	Br	0.847769	0.215050	0.423984
H68	H	1.021427	0.212048	0.558141
H69	H	0.994678	-0.248464	-0.152472
H70	H	0.986792	-0.692495	-0.152501
Br71	Br	0.448952	-0.065498	0.000178
Br72	Br	1.174689	0.128345	0.424050
H73	H	0.429602	0.156067	-0.140263
Br74	Br	0.953279	-0.056402	0.423803
Br75	Br	0.573509	0.016563	0.183249
Br76	Br	0.986387	-0.712261	0.198196
