data_functionalizedCrystal
_audit_creation_method	'MofGen! by Chris Wilmer'
_symmetry_space_group_name_H-M	'P1'
_symmetry_Int_Tables_number	1
_symmetry_cell_setting	triclinic
loop_
_symmetry_equiv_pos_as_xyz
  x,y,z
_cell_length_a	10.489741
_cell_length_b	10.489741
_cell_length_c	15.455301
_cell_angle_alpha	92.975093
_cell_angle_beta	92.972980
_cell_angle_gamma	84.539174
loop_
_atom_site_label
_atom_site_type_symbol
_atom_site_fract_x
_atom_site_fract_y
_atom_site_fract_z
O1	O	1.699080	0.184993	0.072077
O2	O	2.199080	0.684993	0.572077
O3	O	1.327885	0.201887	0.072091
O4	O	1.827885	0.701887	0.572091
O5	O	1.521929	0.007842	0.072078
O6	O	2.021929	0.507842	0.572078
O7	O	1.505037	0.379038	0.072089
O8	O	2.005037	0.879038	0.572089
O9	O	1.511852	-0.002222	-0.072184
O10	O	2.011852	0.497778	0.427816
O11	O	1.317808	0.191823	-0.072172
O12	O	1.817808	0.691823	0.427828
O13	O	1.689003	0.174929	-0.072185
O14	O	2.189003	0.674929	0.427815
Cu15	Cu	1.502485	0.182457	-0.085351
Cu16	Cu	2.002485	0.682457	0.414649
Cu17	Cu	1.514403	0.194359	0.085256
Cu18	Cu	2.014403	0.694359	0.585256
O19	O	1.494959	0.368974	-0.072173
O20	O	1.994959	0.868974	0.427827
C21	C	1.275315	0.195579	-0.000039
C22	C	1.775315	0.695579	0.499961
C23	C	1.133686	0.191762	-0.000034
C24	C	1.633686	0.691762	0.499966
C25	C	1.065545	0.068297	-0.000046
C26	C	1.565545	0.568297	0.499954
C27	C	0.978387	0.131582	0.071083
C28	C	1.478387	0.631582	0.571083
C29	C	0.968486	0.121689	-0.071149
C30	C	1.468486	0.621689	0.428851
C31	C	1.048397	0.255103	0.071154
C32	C	1.548397	0.755103	0.571154
C33	C	1.038501	0.245188	-0.071142
C34	C	1.538501	0.745188	0.428858
C35	C	0.951371	0.308565	0.000004
C36	C	1.451371	0.808565	0.500004
C37	C	1.515614	-0.044722	-0.000052
C38	C	2.015614	0.455278	0.499948
C39	C	1.511797	-0.186351	-0.000051
C40	C	2.011797	0.313649	0.499949
C41	C	1.388333	-0.254491	-0.000040
C42	C	1.888333	0.245509	0.499960
C43	C	1.441688	-0.351575	-0.071171
C44	C	1.941688	0.148425	0.428829
C45	C	1.451653	-0.341628	0.071061
C46	C	1.951653	0.158372	0.571061
C47	C	1.565199	-0.281575	-0.071240
C48	C	2.065199	0.218425	0.428760
C49	C	1.575151	-0.271613	0.071055
C50	C	2.075151	0.228387	0.571055
C51	C	1.628594	-0.368672	-0.000093
C52	C	2.128594	0.131328	0.499907
C53	C	1.741573	0.181237	-0.000054
C54	C	2.241573	0.681237	0.499946
C55	C	1.883203	0.185054	-0.000053
C56	C	2.383203	0.685054	0.499947
C57	C	1.501274	0.421538	-0.000041
C58	C	2.001274	0.921538	0.499959
C59	C	1.505091	0.563168	-0.000037
C60	C	2.005091	1.063168	0.499963
N61	N	1.494113	0.174085	-0.205347
N62	N	1.994113	0.674085	0.294653
C63	C	1.569018	0.249043	-0.250738
C64	C	2.069018	0.749043	0.249262
C65	C	1.562703	0.242704	-0.341546
C66	C	2.062703	0.742704	0.158454
C67	C	1.481475	0.161412	-0.386962
C68	C	1.981475	0.661412	0.113038
C69	C	1.406567	0.086445	-0.341564
C70	C	1.906567	0.586445	0.158436
C71	C	1.412890	0.092779	-0.250758
C72	C	1.912890	0.592779	0.249242
C73	C	1.454200	0.134087	-0.658544
C74	C	1.954200	0.634087	-0.158544
C75	C	1.447881	0.127762	-0.749357
C76	C	1.947881	0.627762	-0.249357
C77	C	1.604019	0.284020	-0.749333
C78	C	2.104019	0.784020	-0.249333
C79	C	1.610328	0.290352	-0.658524
C80	C	2.110328	0.790352	-0.158524
C81	C	1.535426	0.215380	-0.613135
C82	C	2.035426	0.715380	-0.113135
N83	N	1.475015	0.154934	-0.479782
N84	N	1.975015	0.654934	0.020218
N85	N	1.541893	0.221853	-0.520316
N86	N	2.041893	0.721853	-0.020316
N87	N	1.522786	0.202721	0.205252
N88	N	2.022786	0.702721	0.705252
H89	H	1.286817	-0.204844	-0.000108
H90	H	1.786817	0.295156	0.499892
H91	H	1.065346	0.293191	-0.131277
H92	H	1.565346	0.793191	0.368723
H93	H	1.631548	-0.236373	0.131191
H94	H	2.131548	0.263627	0.631191
Br95	Br	1.371546	-0.386284	0.171284
Br96	Br	1.871546	0.113716	0.671284
Br97	Br	1.664365	0.344438	-0.403145
Br98	Br	2.164365	0.844438	0.096855
Br99	Br	1.645193	-0.237197	-0.171582
Br100	Br	2.145193	0.262803	0.328418
Br101	Br	1.148308	-0.100887	0.000062
Br102	Br	1.648308	0.399113	0.500062
Br103	Br	1.705666	0.385762	-0.810937
Br104	Br	2.205666	0.885762	-0.310937
Br105	Br	1.347622	-0.410255	-0.171398
Br106	Br	1.847622	0.089745	0.328602
Br107	Br	1.679256	0.359378	-0.189111
Br108	Br	2.179256	0.859378	0.310889
H109	H	1.083430	0.311503	0.131355
H110	H	1.583430	0.811503	0.631355
H111	H	1.730194	-0.418099	-0.000137
H112	H	2.230194	0.081901	0.499863
H113	H	0.951573	0.083537	0.131215
H114	H	1.451573	0.583537	0.631215
H115	H	0.901950	0.410171	0.000046
H116	H	1.401950	0.910171	0.500046
H117	H	1.676476	0.356545	-0.621553
H118	H	2.176476	0.856545	-0.121553
Br119	Br	0.909851	0.027594	-0.171377
Br120	Br	1.409851	0.527594	0.328623
H121	H	1.381728	0.061565	-0.786332
H122	H	1.881728	0.561565	-0.286332
Br123	Br	1.352494	0.032391	-0.596955
Br124	Br	1.852494	0.532391	-0.096955
H125	H	1.340436	0.020249	-0.378549
H126	H	1.840436	0.520249	0.121451
Br127	Br	1.311247	-0.008973	-0.189154
Br128	Br	1.811247	0.491027	0.310846
