data_functionalizedCrystal
_audit_creation_method	'MofGen! by Chris Wilmer'
_symmetry_space_group_name_H-M	'P1'
_symmetry_Int_Tables_number	1
_symmetry_cell_setting	triclinic
loop_
_symmetry_equiv_pos_as_xyz
  x,y,z
_cell_length_a	14.908795
_cell_length_b	14.909028
_cell_length_c	19.076919
_cell_angle_alpha	90.890888
_cell_angle_beta	91.152515
_cell_angle_gamma	89.820185
loop_
_atom_site_label
_atom_site_type_symbol
_atom_site_fract_x
_atom_site_fract_y
_atom_site_fract_z
Zn1	Zn	1.373744	-0.303005	0.446262
Zn2	Zn	1.388309	-0.446669	0.322766
Zn3	Zn	1.229396	-0.304947	0.321986
Zn4	Zn	1.232683	-0.461250	0.432750
O5	O	1.306033	-0.378968	0.380941
O6	O	1.501217	-0.315147	0.435862
O7	O	1.371948	-0.422580	0.224624
O8	O	1.241073	-0.179152	0.343800
O9	O	1.511917	-0.420697	0.345130
O10	O	1.347125	-0.177726	0.435105
O11	O	1.255195	-0.318457	0.224051
O12	O	1.104291	-0.332596	0.330698
O13	O	1.246675	-0.445549	0.532581
O14	O	1.106706	-0.447432	0.412075
O15	O	1.350313	-0.329286	0.542508
O16	O	1.375135	-0.574141	0.332027
O17	O	1.260798	-0.584854	0.412831
C18	C	1.072948	-0.391808	0.369836
C19	C	0.973233	-0.397323	0.365100
C20	C	0.838260	-0.459951	0.311122
C21	C	0.931951	-0.454772	0.315571
C22	C	0.920817	-0.345046	0.410183
C23	C	0.827126	-0.350225	0.405735
C24	C	0.785852	-0.407680	0.356203
C25	C	0.692159	-0.412863	0.351758
C26	C	0.681027	-0.303133	0.446367
C27	C	0.774718	-0.297954	0.450816
C28	C	1.319927	-0.612047	0.371064
C29	C	1.325952	-0.711756	0.366866
C30	C	1.394008	-0.846683	0.318922
C31	C	1.388352	-0.752998	0.322864
C32	C	1.269202	-0.764207	0.406927
C33	C	1.274858	-0.857893	0.402985
C34	C	1.337264	-0.899127	0.358982
C35	C	1.342924	-0.992815	0.355044
C36	C	1.223770	-1.004023	0.439103
C37	C	1.218114	-0.910337	0.443045
C38	C	1.540028	-0.366079	0.392090
C39	C	1.639743	-0.360586	0.396841
C40	C	1.297236	-0.388827	0.563675
C41	C	1.293487	-0.393029	0.641546
C42	C	1.292108	-0.144978	0.390873
C43	C	1.286174	-0.045266	0.395106
C44	C	1.314843	-0.369079	0.198923
C45	C	1.318750	-0.364616	0.121072
C46	C	1.345682	-0.334474	0.683299
C47	C	1.342148	-0.338419	0.756467
C48	C	1.286425	-0.400924	0.787879
C49	C	1.234224	-0.459481	0.746120
C50	C	1.237753	-0.455531	0.672954
C51	C	1.270079	-0.419223	1.006147
C52	C	1.266556	-0.423171	1.079318
C53	C	1.374479	-0.302107	1.089660
C54	C	1.378008	-0.298166	1.016492
C55	C	1.325804	-0.356720	0.974739
N56	N	1.282814	-0.404959	0.862668
N57	N	1.329410	-0.352680	0.899952
H58	H	0.974619	-0.497336	0.278861
H59	H	1.393741	-1.026387	0.319217
H60	H	1.444829	-0.880257	0.283099
C61	C	1.506697	-0.751332	0.239379
C62	C	1.450729	-0.695350	0.278831
H63	H	1.545209	-0.715741	0.212197
H64	H	1.471137	-0.788623	0.209157
H65	H	1.541711	-0.787589	0.270031
H66	H	1.415710	-0.659098	0.248180
H67	H	1.486293	-0.658043	0.309057
C68	C	1.166854	-0.890278	0.560778
C69	C	1.149528	-0.865005	0.491418
H70	H	1.124509	-0.862296	0.590642
H71	H	1.225689	-0.872100	0.574577
H72	H	1.162097	-0.953581	0.564155
H73	H	1.154291	-0.801702	0.488039
H74	H	1.090677	-0.883178	0.477615
H75	H	0.954440	-0.298264	0.450506
H76	H	0.808337	-0.251174	0.491141
C77	C	0.858673	-0.567899	0.218054
C78	C	0.792885	-0.523107	0.256682
H79	H	0.830658	-0.606886	0.184443
H80	H	0.895806	-0.601894	0.248815
H81	H	0.894161	-0.525292	0.194696
H82	H	0.757400	-0.565715	0.280044
H83	H	0.755736	-0.489111	0.225917
H84	H	1.177568	-1.046733	0.471726
H85	H	0.638345	-0.260571	0.483076
C86	C	1.451995	-0.215199	0.700878
C87	C	1.406934	-0.265764	0.648775
H88	H	1.489804	-0.172774	0.679564
H89	H	1.487261	-0.253934	0.729390
H90	H	1.409478	-0.184583	0.729009
H91	H	1.449451	-0.296386	0.620647
H92	H	1.371667	-0.227023	0.620250
C93	C	1.207627	-0.625565	0.450284
C94	C	1.200607	-0.718870	0.455290
H95	H	1.165281	-0.597578	0.480145
H96	H	1.195890	-0.608441	0.403228
H97	H	1.266470	-0.607396	0.464098
H98	H	1.141766	-0.737040	0.441472
H99	H	1.212338	-0.736001	0.502356
C100	C	1.343455	-0.221484	0.844446
C101	C	1.399518	-0.274042	0.802356
H102	H	1.378873	-0.181731	0.872770
H103	H	1.309777	-0.259269	0.873628
H104	H	1.303703	-0.187795	0.815481
H105	H	1.439265	-0.307735	0.831320
H106	H	1.433211	-0.236251	0.773171
C107	C	1.484322	-0.178888	1.034066
C108	C	1.439256	-0.229454	0.981966
H109	H	1.522131	-0.136466	1.012750
H110	H	1.519587	-0.217623	1.062579
H111	H	1.441807	-0.148268	1.062197
H112	H	1.481771	-0.260079	0.953838
H113	H	1.403989	-0.190713	0.953441
C114	C	1.416985	-0.254397	1.206410
C115	C	1.431849	-0.237738	1.135556
H116	H	1.452399	-0.214650	1.234742
H117	H	1.433129	-0.314587	1.216466
H118	H	1.355345	-0.245237	1.216074
H119	H	1.493488	-0.246905	1.125890
H120	H	1.415711	-0.177534	1.125495
H121	H	1.221176	-0.474072	1.104891
H122	H	1.227585	-0.466915	0.972160
C123	C	1.180898	-0.519295	0.853685
C124	C	1.172971	-0.528188	0.780647
H125	H	1.143086	-0.561718	0.874997
H126	H	1.163603	-0.460397	0.867605
H127	H	1.241381	-0.529754	0.867985
H128	H	1.112489	-0.517723	0.766346
H129	H	1.190261	-0.587100	0.766721
H130	H	1.195241	-0.503204	0.638959
H131	H	0.658555	-0.459649	0.311429
