data_functionalizedCrystal
_audit_creation_method	'MofGen! by Chris Wilmer'
_symmetry_space_group_name_H-M	'P1'
_symmetry_Int_Tables_number	1
_symmetry_cell_setting	triclinic
loop_
_symmetry_equiv_pos_as_xyz
  x,y,z
_cell_length_a	12.811438
_cell_length_b	12.811487
_cell_length_c	16.776229
_cell_angle_alpha	95.425873
_cell_angle_beta	95.425543
_cell_angle_gamma	83.529464
loop_
_atom_site_label
_atom_site_type_symbol
_atom_site_fract_x
_atom_site_fract_y
_atom_site_fract_z
O1	O	1.393275	0.141390	0.044669
O2	O	1.087763	0.156759	0.023690
O3	O	1.248204	-0.003681	0.023696
O4	O	1.232834	0.301830	0.044662
O5	O	1.248183	-0.003691	0.156270
O6	O	1.087742	0.156749	0.156264
O7	O	1.393254	0.141380	0.177243
Zn8	Zn	1.240494	0.149063	0.187803
Zn9	Zn	1.240523	0.149076	0.013130
O10	O	1.232813	0.301820	0.177237
C11	C	1.048645	0.155892	0.087087
C12	C	0.932118	0.153311	0.078475
C13	C	1.247332	-0.042793	0.087093
C14	C	1.244751	-0.159320	0.078481
C15	C	0.767886	0.149679	-0.005921
C16	C	0.877374	0.152103	0.002164
C17	C	0.877366	0.152092	0.146705
C18	C	0.767878	0.149668	0.138620
C19	C	0.713142	0.148463	0.062305
C20	C	0.603651	0.146047	0.054221
C21	C	0.603646	0.146028	0.198760
C22	C	0.713133	0.148452	0.206846
C23	C	1.239898	-0.378313	0.206845
C24	C	1.237474	-0.487801	0.198757
C25	C	1.237485	-0.487786	0.054217
C26	C	1.239910	-0.378298	0.062305
C27	C	1.241115	-0.323566	0.138622
C28	C	1.243531	-0.214075	0.146709
C29	C	1.243551	-0.214063	0.002170
C30	C	1.241126	-0.323551	-0.005918
C31	C	1.432372	0.142247	0.113844
C32	C	1.548899	0.144827	0.122451
C33	C	1.233685	0.340932	0.113838
C34	C	1.236266	0.457459	0.122445
N35	N	1.240483	0.149053	0.307012
N36	N	1.240542	0.149077	-0.106079
C37	C	1.311548	0.078040	0.348736
C38	C	1.311554	0.078039	0.432189
C39	C	1.240499	0.149057	0.473917
C40	C	1.169426	0.220074	0.432187
C41	C	1.169416	0.220069	0.348735
C42	C	1.169464	0.220095	0.768738
C43	C	1.169482	0.220097	0.852196
C44	C	1.311602	0.078065	0.852192
C45	C	1.311592	0.078060	0.768740
C46	C	1.240516	0.149072	0.727017
C47	C	1.240509	0.149071	0.636528
C48	C	1.240510	0.149065	0.564405
H49	H	0.559086	0.145071	-0.007919
H50	H	1.236516	-0.532370	-0.007916
C51	C	0.937584	0.153500	0.230650
N52	N	0.982938	0.154593	0.293881
H53	H	1.236484	-0.532372	0.254312
H54	H	1.244529	-0.169475	-0.053383
C55	C	1.244860	-0.153871	0.230659
N56	N	1.245865	-0.108530	0.293892
C57	C	1.239797	-0.383769	-0.089863
N58	N	1.238791	-0.429123	-0.153092
C59	C	1.241217	-0.318104	0.290793
N60	N	1.242212	-0.272757	0.354024
H61	H	1.111593	0.277918	0.734774
H62	H	1.369414	0.020213	0.314767
C63	C	1.389755	-0.000068	0.722843
N64	N	1.448626	-0.058920	0.688275
C65	C	0.937590	0.153441	-0.072889
N66	N	0.982943	0.154448	-0.129423
C67	C	1.389706	-0.000107	0.478077
N68	N	1.448564	-0.058980	0.512638
C69	C	0.773350	0.149825	0.290791
N70	N	0.818701	0.150879	0.354022
H71	H	1.111616	0.277931	0.886170
H72	H	1.369473	0.020239	0.886171
C73	C	0.543418	0.144689	0.273813
N74	N	0.498053	0.143683	0.330342
H75	H	1.111546	0.277894	0.314764
H76	H	0.723318	0.148710	-0.068059
C77	C	1.091254	0.298186	0.478089
N78	N	1.032374	0.357021	0.512662
