data_functionalizedCrystal
_audit_creation_method	'MofGen! by Chris Wilmer'
_symmetry_space_group_name_H-M	'P1'
_symmetry_Int_Tables_number	1
_symmetry_cell_setting	triclinic
loop_
_symmetry_equiv_pos_as_xyz
  x,y,z
_cell_length_a	17.699077
_cell_length_b	17.699083
_cell_length_c	16.176319
_cell_angle_alpha	90.007696
_cell_angle_beta	90.006860
_cell_angle_gamma	83.281795
loop_
_atom_site_label
_atom_site_type_symbol
_atom_site_fract_x
_atom_site_fract_y
_atom_site_fract_z
O1	O	-1.004082	-0.095692	-0.068737
O2	O	-0.504082	0.404308	0.431263
O3	O	-0.783703	-0.108149	-0.068741
O4	O	-0.283703	0.391851	0.431259
O5	O	-0.900118	0.008269	-0.068732
O6	O	-0.400118	0.508269	0.431268
O7	O	-0.887666	-0.212110	-0.068747
O8	O	-0.387666	0.287890	0.431253
O9	O	-0.900102	0.008277	0.068761
O10	O	-0.400102	0.508277	0.568761
O11	O	-0.783687	-0.108141	0.068752
O12	O	-0.283687	0.391859	0.568752
O13	O	-1.004066	-0.095684	0.068756
O14	O	-0.504066	0.404316	0.568756
Cu15	Cu	-0.893875	-0.101912	0.081308
Cu16	Cu	-0.393875	0.398088	0.581308
Cu17	Cu	-0.893894	-0.101921	-0.081294
Cu18	Cu	-0.393894	0.398079	0.418706
O19	O	-0.887650	-0.212102	0.068746
O20	O	-0.387650	0.287898	0.568746
C21	C	-0.755498	-0.107700	0.000005
C22	C	-0.255498	0.392300	0.500005
C23	C	-0.671479	-0.106363	0.000003
C24	C	-0.171479	0.393637	0.500003
C25	C	-1.032271	-0.096133	0.000008
C26	C	-0.532271	0.403867	0.500008
C27	C	-1.116289	-0.097470	0.000004
C28	C	-0.616289	0.402530	0.500004
C29	C	-0.899664	0.036470	0.000015
C30	C	-0.399664	0.536470	0.500015
C31	C	-0.898326	0.120488	0.000015
C32	C	-0.398326	0.620488	0.500015
C33	C	-0.632003	-0.105729	0.074952
C34	C	-0.132003	0.394271	0.574952
C35	C	-0.553061	-0.104461	0.074953
C36	C	-0.053061	0.395539	0.574953
C37	C	-0.513595	-0.103832	0.000004
C38	C	-0.013595	0.396168	0.500004
C39	C	-0.553077	-0.104464	-0.074950
C40	C	-0.053077	0.395536	0.425050
C41	C	-0.632019	-0.105726	-0.074950
C42	C	-0.132019	0.394274	0.425050
C43	C	-0.234714	-0.099370	-0.074951
C44	C	0.265286	0.400630	0.425049
C45	C	-0.155766	-0.098110	-0.074945
C46	C	0.344234	0.401890	0.425055
C47	C	-0.155755	-0.098105	0.074952
C48	C	0.344245	0.401895	0.574952
C49	C	-0.234697	-0.099367	0.074951
C50	C	0.265303	0.400633	0.574951
C51	C	-0.274173	-0.099995	-0.000002
C52	C	0.225827	0.400005	0.499998
C53	C	-0.359772	-0.101369	-0.000002
C54	C	0.140228	0.398631	0.499998
C55	C	-0.427997	-0.102464	0.000004
C56	C	0.072003	0.397536	0.500004
N57	N	-0.893867	-0.101906	0.195673
N58	N	-0.393867	0.398094	0.695673
C59	C	-0.888104	-0.240303	-0.000002
C60	C	-0.388104	0.259697	0.499998
C61	C	-0.889443	-0.324321	-0.000008
C62	C	-0.389443	0.175679	0.499992
C63	C	-0.966659	0.169110	0.000018
C64	C	-0.466659	0.669110	0.500018
C65	C	-0.965397	0.248054	0.000010
C66	C	-0.465397	0.748054	0.500010
C67	C	-0.895800	0.278373	0.000006
C68	C	-0.395800	0.778373	0.500006
C69	C	-0.827461	0.229744	0.000001
C70	C	-0.327461	0.729744	0.500001
C71	C	-0.828724	0.150803	0.000003
C72	C	-0.328724	0.650803	0.500003
C73	C	-0.822366	0.548107	-0.000005
C74	C	-0.322366	1.048107	0.499995
C75	C	-0.821108	0.627055	-0.000004
C76	C	-0.321108	1.127055	0.499996
C77	C	-0.959039	0.645358	0.000002
C78	C	-0.459039	1.145358	0.500002
C79	C	-0.960302	0.566417	0.000003
C80	C	-0.460302	1.066417	0.500003
C81	C	-0.891963	0.517795	-0.000006
C82	C	-0.391963	1.017795	0.499994
C83	C	-0.893333	0.432196	0.000000
C84	C	-0.393333	0.932196	0.500000
C85	C	-0.894430	0.363971	0.000006
C86	C	-0.394430	0.863971	0.500006
N87	N	-0.893907	-0.101921	-0.195659
N88	N	-0.393907	0.398079	0.304341
C89	C	-0.945431	-0.050377	0.238942
C90	C	-0.445431	0.449623	0.738942
C91	C	-0.945435	-0.050376	0.325489
C92	C	-0.445435	0.449624	0.825489
C93	C	-0.893878	-0.101908	0.368766
C94	C	-0.393878	0.398092	0.868766
C95	C	-0.842308	-0.153439	0.325491
C96	C	-0.342308	0.346561	0.825491
C97	C	-0.842301	-0.153436	0.238946
C98	C	-0.342301	0.346564	0.738946
C99	C	-0.842334	-0.153454	0.674520
C100	C	-0.342334	0.346546	1.174520
C101	C	-0.842346	-0.153455	0.761071
C102	C	-0.342346	0.346545	1.261071
C103	C	-0.945468	-0.050393	0.761063
C104	C	-0.445468	0.449607	1.261063
C105	C	-0.945461	-0.050390	0.674517
C106	C	-0.445461	0.449610	1.174517
C107	C	-0.893889	-0.101918	0.631250
C108	C	-0.393889	0.398082	1.131250
C109	C	-0.893884	-0.101918	0.537406
C110	C	-0.393884	0.398082	1.037406
C111	C	-0.893885	-0.101913	0.462608
C112	C	-0.393885	0.398087	0.962608
H113	H	-0.664130	-0.106247	0.135984
H114	H	-0.164130	0.393753	0.635984
H115	H	-0.764431	0.651737	-0.000006
H116	H	-0.264431	1.151737	0.499994
H117	H	-1.014683	0.684956	0.000005
H118	H	-0.514683	1.184956	0.500005
H119	H	-0.987459	-0.008434	0.796300
H120	H	-0.487459	0.491566	1.296300
F121	F	-0.276716	-0.100039	-0.154724
F122	F	0.223284	0.399961	0.345276
H123	H	-0.664159	-0.106244	-0.135981
H124	H	-0.164159	0.393756	0.364019
F125	F	-0.749634	0.496370	-0.000017
F126	F	-0.249634	0.996370	0.499983
H127	H	-0.800311	-0.195395	0.203718
H128	H	-0.300311	0.304605	0.703718
F129	F	-0.113737	-0.097433	0.154725
F130	F	0.386263	0.402567	0.654725
H131	H	-0.520938	-0.103946	-0.135974
H132	H	-0.020938	0.396054	0.364026
H133	H	-1.023333	0.144431	0.000026
H134	H	-0.523333	0.644431	0.500026
F135	F	-1.000311	0.004469	0.192891
F136	F	-0.500311	0.504469	0.692891
F137	F	-0.787450	-0.208295	0.628478
F138	F	-0.287450	0.291705	1.128478
H139	H	-0.987422	-0.008417	0.360718
H140	H	-0.487422	0.491583	0.860718
F141	F	-0.113765	-0.097439	-0.154720
F142	F	0.386235	0.402561	0.345280
F143	F	-0.511049	-0.103796	0.154723
F144	F	-0.011049	0.396204	0.654723
F145	F	-0.753391	0.262014	-0.000012
F146	F	-0.253391	0.762014	0.499988
F147	F	-0.276695	-0.100041	0.154722
F148	F	0.223305	0.399959	0.654722
F149	F	-1.038127	0.299798	0.000014
F150	F	-0.538127	0.799798	0.500014
F151	F	-1.034376	0.534153	0.000007
F152	F	-0.534376	1.034153	0.500007
F153	F	-0.755994	0.099055	-0.000002
F154	F	-0.255994	0.599055	0.499998
F155	F	-1.000338	0.004454	0.628462
F156	F	-0.500338	0.504454	1.128462
F157	F	-0.787468	-0.208304	0.807128
F158	F	-0.287468	0.291696	1.307128
H159	H	-0.800325	-0.195395	0.360733
H160	H	-0.300325	0.304605	0.860733
