data_functionalizedCrystal
_audit_creation_method	'MofGen! by Chris Wilmer'
_symmetry_space_group_name_H-M	'P1'
_symmetry_Int_Tables_number	1
_symmetry_cell_setting	triclinic
loop_
_symmetry_equiv_pos_as_xyz
  x,y,z
_cell_length_a	10.540510
_cell_length_b	10.540539
_cell_length_c	9.198806
_cell_angle_alpha	89.998955
_cell_angle_beta	89.995804
_cell_angle_gamma	84.519401
loop_
_atom_site_label
_atom_site_type_symbol
_atom_site_fract_x
_atom_site_fract_y
_atom_site_fract_z
O1	O	1.685908	0.178718	-0.120894
O2	O	1.316491	0.195613	-0.120894
O3	O	1.509628	0.002458	-0.120892
O4	O	1.492772	0.371873	-0.120896
O5	O	1.509612	0.002457	0.120893
O6	O	1.316475	0.195612	0.120891
O7	O	1.685893	0.178717	0.120891
Cu8	Cu	1.501183	0.187165	0.142968
Cu9	Cu	1.501201	0.187165	-0.142971
O10	O	1.492756	0.371872	0.120889
C11	C	1.269179	0.194354	-0.000002
C12	C	1.128229	0.190587	-0.000002
C13	C	0.910774	0.324771	-0.000559
C14	C	1.057370	0.328789	-0.000005
C15	C	1.083461	0.119840	0.138066
C16	C	0.936700	0.116801	0.138173
C17	C	0.936911	0.113924	-0.136782
C18	C	1.083252	0.120479	-0.138598
C19	C	1.508356	-0.044845	-0.000002
C20	C	1.504574	-0.185793	-0.000010
C21	C	1.359655	-0.369204	-0.000553
C22	C	1.363489	-0.222587	-0.000009
C23	C	1.572462	-0.247458	0.138061
C24	C	1.567646	-0.394002	0.138177
C25	C	1.570534	-0.394520	-0.136778
C26	C	1.571833	-0.247538	-0.138603
C27	C	1.733204	0.179976	-0.000005
C28	C	1.874154	0.183743	-0.000014
C29	C	1.494028	0.419175	-0.000004
C30	C	1.497810	0.560123	-0.000006
N31	N	1.501179	0.187163	0.344082
N32	N	1.501215	0.187157	-0.344085
C33	C	1.582272	0.105706	0.416280
C34	C	1.582291	0.105701	0.583692
H35	H	1.132321	0.019581	-0.146935
C36	C	0.851998	0.397091	0.132453
N37	N	0.807727	0.451559	0.232641
H38	H	1.310070	-0.179977	-0.098984
C39	C	0.905630	-0.022840	0.146654
N40	N	0.882233	-0.128015	0.153051
H41	H	1.130850	0.018099	0.143202
C42	C	1.407399	0.281373	0.428008
N43	N	1.336761	0.352334	0.491220
H44	H	1.651723	0.035966	0.645779
H45	H	1.669113	-0.441982	0.144441
C46	C	1.708199	-0.458342	-0.138039
N47	N	1.811884	-0.506421	-0.138980
H48	H	1.086722	0.384135	-0.098982
C49	C	1.125119	0.186222	0.276880
N50	N	1.156489	0.236231	0.381431
H51	H	0.894370	0.157507	-0.241431
H52	H	0.868827	0.378613	-0.099576
H53	H	1.431789	0.256904	0.593837
C54	C	1.676026	0.011470	0.332353
N55	N	1.746637	-0.059517	0.269142
C56	C	1.710802	-0.214842	-0.149863
N57	N	1.815480	-0.190220	-0.158330
C58	C	0.906979	-0.026252	-0.138045
N59	N	0.884425	-0.131828	-0.138987
H60	H	1.085767	0.384471	0.099133
H61	H	0.896477	0.165149	0.241380
H62	H	1.303929	-0.397798	-0.099566
C63	C	1.121934	0.190009	-0.276591
N64	N	1.151081	0.242379	-0.380526
H65	H	1.517461	-0.422197	0.241388
H66	H	1.676070	-0.225115	0.143195
H67	H	1.304143	-0.399406	0.097905
H68	H	1.524878	-0.426068	-0.241427
C69	C	1.290804	-0.166164	0.133929
N70	N	1.236057	-0.123667	0.234818
H71	H	1.525290	-0.204854	0.240809
H72	H	1.522160	-0.206674	-0.240744
