data_functionalizedCrystal
_audit_creation_method	'MofGen! by Chris Wilmer'
_symmetry_space_group_name_H-M	'P1'
_symmetry_Int_Tables_number	1
_symmetry_cell_setting	triclinic
loop_
_symmetry_equiv_pos_as_xyz
  x,y,z
_cell_length_a	17.699083
_cell_length_b	7.681481
_cell_length_c	17.699083
_cell_angle_alpha	84.268690
_cell_angle_beta	96.716985
_cell_angle_gamma	84.282230
loop_
_atom_site_label
_atom_site_type_symbol
_atom_site_fract_x
_atom_site_fract_y
_atom_site_fract_z
O1	O	0.996918	0.146188	-0.102878
O2	O	0.776537	0.146246	-0.115334
O3	O	0.892955	0.146200	0.001084
O4	O	0.880500	0.146234	-0.219296
O5	O	0.907284	-0.146663	0.015446
O6	O	0.790866	-0.146617	-0.100972
O7	O	1.011247	-0.146675	-0.088517
Zn8	Zn	0.903332	-0.193144	-0.092464
Zn9	Zn	0.884452	0.192716	-0.111386
O10	O	0.894830	-0.146629	-0.204934
C11	C	0.755504	-0.000178	-0.107707
C12	C	0.671485	-0.000156	-0.106369
N13	N	0.916222	-0.456484	-0.079550
C14	C	0.622864	-0.000146	-0.174703
C15	C	0.543921	-0.000169	-0.173440
C16	C	0.513602	-0.000190	-0.103842
C17	C	0.562229	-0.000205	-0.035503
C18	C	0.641171	-0.000195	-0.036767
C19	C	0.243869	-0.000249	-0.030406
C20	C	0.164921	-0.000255	-0.029148
C21	C	0.146619	-0.000224	-0.167079
C22	C	0.225560	-0.000214	-0.168342
C23	C	0.274182	-0.000238	-0.100003
C24	C	0.359780	-0.000217	-0.101374
C25	C	0.428004	-0.000199	-0.102472
C26	C	1.032280	-0.000247	-0.096144
C27	C	1.116298	-0.000257	-0.097482
C28	C	0.899673	-0.000232	0.036462
C29	C	0.898334	-0.000232	0.120480
N30	N	0.871568	0.456055	-0.124294
C31	C	0.888111	-0.000193	-0.240312
C32	C	0.889449	-0.000181	-0.324331
C33	C	0.966669	-0.000253	0.169102
C34	C	0.965406	-0.000237	0.248045
C35	C	0.895808	-0.000213	0.278364
C36	C	0.827468	-0.000187	0.229736
C37	C	0.828731	-0.000190	0.150794
C38	C	0.822372	-0.000171	0.548098
C39	C	0.821114	-0.000173	0.627046
C40	C	0.959046	-0.000218	0.645348
C41	C	0.960310	-0.000221	0.566407
C42	C	0.891970	-0.000186	0.517785
C43	C	0.893340	-0.000200	0.432186
C44	C	0.894438	-0.000212	0.363962
H45	H	0.504336	-0.000159	-0.229084
H46	H	0.825986	-0.468730	-0.169964
C47	C	0.976960	-0.556549	-0.018540
C48	C	0.962555	-0.511811	0.053614
C49	C	1.018494	-0.603940	0.109832
H50	H	0.975616	-0.679536	-0.019842
H51	H	1.026024	-0.526375	-0.028043
H52	H	0.913504	-0.541998	0.063114
H53	H	0.963906	-0.388840	0.054940
H54	H	1.067558	-0.573765	0.100329
H55	H	1.017146	-0.726922	0.108524
H56	H	1.008732	-0.573586	0.158794
H57	H	1.023344	-0.000283	0.144423
C58	C	0.258336	-0.000284	-0.243979
C59	C	0.198860	-0.000329	-0.303552
C60	C	0.229024	-0.000425	-0.373238
H61	H	0.283737	0.101819	-0.252455
H62	H	0.293734	-0.102450	-0.242367
H63	H	0.163475	0.101827	-0.305165
H64	H	0.173454	-0.102424	-0.295102
H65	H	0.264422	-0.102592	-0.371626
H66	H	0.254425	0.101679	-0.381706
H67	H	0.188676	-0.000472	-0.413666
C68	C	1.039685	-0.000363	0.300714
C69	C	1.100909	-0.000446	0.257268
C70	C	1.169350	-0.000587	0.305761
H71	H	1.037179	0.101738	0.326897
H72	H	1.047095	-0.102531	0.336892
H73	H	1.093500	0.101712	0.221103
H74	H	1.103440	-0.102539	0.231086
H75	H	1.176761	-0.102755	0.341939
H76	H	1.166836	0.101516	0.331942
H77	H	1.210899	-0.000660	0.276291
H78	H	1.016984	-0.000249	0.541726
H79	H	1.014692	-0.000237	0.684946
C80	C	0.655636	-0.000212	-0.250342
C81	C	0.596157	-0.000257	-0.309912
C82	C	0.626316	-0.000347	-0.379601
H83	H	0.681036	0.101893	-0.258818
H84	H	0.691035	-0.102377	-0.248733
H85	H	0.560772	0.101897	-0.311522
H86	H	0.570752	-0.102354	-0.301461
H87	H	0.661715	-0.102512	-0.377991
H88	H	0.651716	0.101759	-0.388069
H89	H	0.585966	-0.000394	-0.420026
C90	C	0.748101	-0.000250	0.495447
C91	C	0.686886	-0.000289	0.538902
C92	C	0.618454	-0.000393	0.490424
H93	H	0.740616	0.101847	0.459242
H94	H	0.750685	-0.102422	0.469297
H95	H	0.684301	0.101872	0.565040
H96	H	0.694345	-0.102379	0.575104
H97	H	0.621039	-0.102564	0.464274
H98	H	0.610977	0.101707	0.454222
H99	H	0.576913	-0.000435	0.519902
H100	H	0.283447	-0.000271	0.025241
H101	H	0.107022	-0.000213	-0.222724
C102	C	0.751985	-0.000251	0.262803
C103	C	0.765505	-0.000305	0.342346
C104	C	0.695988	-0.000395	0.372832
H105	H	0.718800	0.101857	0.241179
H106	H	0.728847	-0.102413	0.251158
H107	H	0.788631	0.101846	0.353984
H108	H	0.798677	-0.102406	0.363990
H109	H	0.672850	-0.102556	0.361188
H110	H	0.662809	0.101715	0.351204
H111	H	0.705153	-0.000448	0.426806
H112	H	0.764437	-0.000157	0.651729
C113	C	0.754468	0.000105	0.098076
C114	C	0.705175	0.150769	0.104379
C115	C	0.636751	0.151099	0.055835
H116	H	0.765076	0.000196	0.046689
H117	H	0.730874	-0.101960	0.112270
H118	H	0.728765	0.252807	0.090182
H119	H	0.694546	0.150710	0.155755
H120	H	0.613157	0.049034	0.070028
H121	H	0.647367	0.151185	0.004451
H122	H	0.603295	0.253314	0.060110
H123	H	0.140238	-0.000274	0.027531
H124	H	0.680758	-0.000202	0.018878
C125	C	0.529162	-0.000140	0.039980
C126	C	0.449620	-0.000096	0.026461
C127	C	0.419133	-0.000007	0.095977
H128	H	0.550779	-0.102245	0.073175
H129	H	0.540814	0.102024	0.063108
H130	H	0.437975	-0.102250	0.003345
H131	H	0.427983	0.102001	-0.006722
H132	H	0.430784	0.102157	0.119105
H133	H	0.440755	-0.102114	0.129167
H134	H	0.365160	0.000039	0.086813
