data_functionalizedCrystal
_audit_creation_method	'MofGen! by Chris Wilmer'
_symmetry_space_group_name_H-M	'P1'
_symmetry_Int_Tables_number	1
_symmetry_cell_setting	triclinic
loop_
_symmetry_equiv_pos_as_xyz
  x,y,z
_cell_length_a	14.519709
_cell_length_b	17.038272
_cell_length_c	12.996460
_cell_angle_alpha	89.993697
_cell_angle_beta	90.000034
_cell_angle_gamma	87.395851
loop_
_atom_site_label
_atom_site_type_symbol
_atom_site_fract_x
_atom_site_fract_y
_atom_site_fract_z
O1	O	1.231711	0.102503	-0.085433
O2	O	0.964158	0.114573	-0.085465
O3	O	1.096345	-0.005280	-0.085441
O4	O	1.099525	0.222356	-0.085457
O5	O	1.096329	-0.005287	0.085693
O6	O	0.964143	0.114567	0.085669
O7	O	1.231696	0.102496	0.085701
Cu8	Cu	1.097918	0.108531	0.101311
Cu9	Cu	1.097936	0.108539	-0.101075
O10	O	1.099510	0.222349	0.085677
C11	C	0.929748	0.114008	0.000098
C12	C	0.827237	0.112322	0.000086
C13	C	0.451867	0.106116	0.000134
C14	C	0.556307	0.107839	0.000120
C15	C	0.639549	0.109219	0.000109
C16	C	0.743995	0.110942	0.000098
C17	C	1.093444	-0.034416	0.000125
C18	C	1.084814	-0.121223	0.000124
C19	C	1.164047	-0.171209	0.000135
C20	C	1.155933	-0.252773	0.000124
C21	C	1.068585	-0.284349	0.000110
C22	C	0.989347	-0.234357	0.000097
C23	C	0.997462	-0.152795	0.000100
C24	C	1.039916	-0.530153	0.000093
C25	C	1.031807	-0.611722	0.000092
C26	C	1.198394	-0.630132	0.000118
C27	C	1.206502	-0.548568	0.000127
C28	C	1.127263	-0.498583	0.000108
C29	C	1.060289	-0.367720	0.000102
C30	C	1.135560	-0.415213	0.000109
C31	C	1.266107	0.103062	0.000135
C32	C	1.368617	0.104748	0.000141
C33	C	1.102410	0.251486	0.000108
C34	C	1.111040	0.338292	0.000103
N35	N	1.097912	0.108525	0.243658
N36	N	1.097949	0.108538	-0.243422
C37	C	1.097935	0.108539	0.663472
C38	C	1.097926	0.108538	0.546667
C39	C	1.097924	0.108533	0.453569
C40	C	1.097914	0.108530	0.336756
H41	H	1.235175	-0.145506	0.000152
H42	H	0.960675	-0.637427	0.000098
C43	C	1.243093	-0.307754	0.000138
C44	C	1.312909	-0.304143	0.089019
C45	C	1.400075	-0.359123	0.089031
C46	C	1.417425	-0.417714	0.000163
C47	C	1.347608	-0.421327	-0.088724
C48	C	1.260442	-0.366347	-0.088736
H49	H	1.300067	-0.260769	0.154810
H50	H	1.451759	-0.356449	0.154832
H51	H	1.481951	-0.458414	0.000172
H52	H	1.360450	-0.464701	-0.154515
H53	H	1.208758	-0.369022	-0.154537
H54	H	0.989170	-0.393438	0.000093
C55	C	0.893264	-0.269091	0.000080
C56	C	0.825653	-0.250289	0.088934
C57	C	0.729568	-0.285022	0.088920
C58	C	0.701095	-0.338557	0.000052
C59	C	0.768707	-0.357362	-0.088808
C60	C	0.864792	-0.322629	-0.088795
H61	H	0.846729	-0.210656	0.154725
H62	H	0.679517	-0.271101	0.154701
H63	H	0.629967	-0.364269	0.000042
H64	H	0.747631	-0.396995	-0.154600
H65	H	0.914843	-0.336550	-0.154576
C66	C	1.285552	-0.685117	0.000126
C67	C	1.302877	-0.743732	0.088988
C68	C	1.390039	-0.798717	0.088992
C69	C	1.459876	-0.795087	0.000133
C70	C	1.442552	-0.736469	-0.088735
C71	C	1.355391	-0.681484	-0.088739
H72	H	1.251178	-0.746422	0.154772
H73	H	1.402863	-0.842110	0.154779
H74	H	1.524398	-0.835790	0.000136
H75	H	1.494251	-0.733779	-0.154519
H76	H	1.342567	-0.638091	-0.154525
C77	C	0.910305	-0.097806	0.000090
C78	C	0.840485	-0.101418	-0.088785
C79	C	0.753326	-0.046430	-0.088801
C80	C	0.735987	0.012170	0.000058
C81	C	0.805809	0.015785	0.088940
C82	C	0.892968	-0.039204	0.088957
H83	H	0.853318	-0.144799	-0.154571
H84	H	0.701639	-0.049106	-0.154599
H85	H	0.671466	0.052876	0.000046
H86	H	0.792976	0.059166	0.154726
H87	H	0.944655	-0.036528	0.154754
H88	H	1.277629	-0.522865	0.000139
H89	H	0.975394	-0.489465	0.000078
H90	H	1.206678	-0.389500	0.000097
