data_functionalizedCrystal
_audit_creation_method	'MofGen! by Chris Wilmer'
_symmetry_space_group_name_H-M	'P1'
_symmetry_Int_Tables_number	1
_symmetry_cell_setting	triclinic
loop_
_symmetry_equiv_pos_as_xyz
  x,y,z
_cell_length_a	17.699082
_cell_length_b	9.065215
_cell_length_c	8.140239
_cell_angle_alpha	89.997810
_cell_angle_beta	90.001578
_cell_angle_gamma	95.851410
loop_
_atom_site_label
_atom_site_type_symbol
_atom_site_fract_x
_atom_site_fract_y
_atom_site_fract_z
O1	O	-0.110962	1.957111	-0.136586
O2	O	0.389038	2.457111	0.363414
O3	O	-0.120067	1.527556	-0.136593
O4	O	0.379933	2.027556	0.363407
O5	O	-0.005420	1.754470	-0.136587
O6	O	0.494580	2.254470	0.363413
O7	O	-0.225609	1.730196	-0.136593
O8	O	0.274391	2.230196	0.363407
O9	O	-0.005419	1.754458	0.136640
O10	O	0.494581	2.254458	0.636640
O11	O	-0.120066	1.527543	0.136634
O12	O	0.379934	2.027543	0.636634
O13	O	-0.110961	1.957098	0.136641
O14	O	0.389039	2.457098	0.636641
Zn15	Zn	-0.115513	1.742319	0.180018
Zn16	Zn	0.384487	2.242319	0.680018
Zn17	Zn	-0.115515	1.742335	-0.179971
Zn18	Zn	0.384485	2.242335	0.320029
O19	O	-0.225608	1.730184	0.136634
O20	O	0.274392	2.230184	0.636634
C21	C	-0.119192	1.472589	0.000019
C22	C	0.380808	1.972589	0.500019
C23	C	-0.116577	1.308823	0.000017
C24	C	0.383423	1.808823	0.500017
C25	C	-0.253813	1.731059	0.000020
C26	C	0.246187	2.231059	0.500020
C27	C	-0.337851	1.733668	0.000018
C28	C	0.162149	2.233668	0.500018
C29	C	-0.377330	1.734901	-0.148920
C30	C	0.122670	2.234901	0.351080
C31	C	-0.456292	1.737371	-0.148922
C32	C	0.043708	2.237371	0.351078
C33	C	-0.495774	1.738597	0.000015
C34	C	0.004226	2.238597	0.500015
C35	C	-0.456289	1.737368	0.148965
C36	C	0.043711	2.237368	0.648965
C37	C	-0.377328	1.734908	0.148965
C38	C	0.122672	2.234908	0.648965
C39	C	-0.774730	1.747287	0.148967
C40	C	-0.274730	2.247287	0.648967
C41	C	-0.853697	1.749742	0.148955
C42	C	-0.353697	2.249742	0.648955
C43	C	-0.853695	1.749750	-0.148921
C44	C	-0.353695	2.249750	0.351079
C45	C	-0.774734	1.747291	-0.148920
C46	C	-0.274734	2.247291	0.351080
C47	C	-0.735255	1.746070	0.000028
C48	C	-0.235255	2.246070	0.500028
C49	C	-0.649635	1.743394	0.000029
C50	C	-0.149635	2.243394	0.500029
C51	C	-0.581393	1.741261	0.000017
C52	C	-0.081393	2.241261	0.500017
C53	C	0.022784	1.753595	0.000024
C54	C	0.522784	2.253595	0.500024
C55	C	0.106823	1.750986	0.000015
C56	C	0.606823	2.250986	0.500015
C57	C	-0.111836	2.012065	0.000024
C58	C	0.388164	2.512065	0.500024
C59	C	-0.114451	2.175831	0.000016
C60	C	0.385549	2.675831	0.500016
N61	N	-0.115512	1.742318	0.425701
N62	N	0.384488	2.242318	0.925701
N63	N	-0.115511	1.742347	-0.425653
N64	N	0.384489	2.242347	0.074347
H65	H	-0.345191	1.733890	-0.270203
H66	H	0.154809	2.233890	0.229797
O67	O	-0.896283	1.751073	0.309604
O68	O	-0.396283	2.251073	0.809604
H69	H	-0.926205	1.852698	0.316700
H70	H	-0.426205	2.352698	0.816700
O71	O	-0.732158	1.745930	-0.309569
O72	O	-0.232158	2.245930	0.190431
H73	H	-0.741246	1.846910	-0.381005
H74	H	-0.241246	2.346910	0.118995
H75	H	-0.742596	1.746294	0.270250
H76	H	-0.242596	2.246294	0.770250
O77	O	-0.498867	1.738693	0.309612
O78	O	0.001133	2.238693	0.809612
H79	H	-0.560407	1.740595	0.284594
H80	H	-0.060407	2.240595	0.784594
H81	H	-0.345185	1.733903	0.270246
H82	H	0.154815	2.233903	0.770246
O83	O	-0.498878	1.738674	-0.309561
O84	O	0.001122	2.238674	0.190439
H85	H	-0.458161	1.737380	-0.413125
H86	H	0.041839	2.237380	0.086875
O87	O	-0.896280	1.751082	-0.309574
O88	O	-0.396280	2.251082	0.190426
H89	H	-0.887190	1.650089	-0.380977
H90	H	-0.387190	2.150089	0.119023
