data_functionalizedCrystal
_audit_creation_method	'MofGen! by Chris Wilmer'
_symmetry_space_group_name_H-M	'P1'
_symmetry_Int_Tables_number	1
_symmetry_cell_setting	triclinic
loop_
_symmetry_equiv_pos_as_xyz
  x,y,z
_cell_length_a	14.519709
_cell_length_b	9.016244
_cell_length_c	14.519709
_cell_angle_alpha	89.992281
_cell_angle_beta	96.319855
_cell_angle_gamma	89.996765
loop_
_atom_site_label
_atom_site_type_symbol
_atom_site_fract_x
_atom_site_fract_y
_atom_site_fract_z
O1	O	1.223864	0.123150	-0.120894
O2	O	1.557198	0.456484	0.212439
O3	O	1.890531	0.789817	0.545772
O4	O	0.955387	0.123196	-0.135131
O5	O	1.288721	0.456529	0.198203
O6	O	1.622054	0.789863	0.531536
O7	O	1.096744	0.123159	0.006226
O8	O	1.430077	0.456492	0.339559
O9	O	1.763411	0.789825	0.672893
O10	O	1.082508	0.123188	-0.262251
O11	O	1.415841	0.456521	0.071082
O12	O	1.749174	0.789854	0.404416
O13	O	1.096738	-0.123522	0.006236
O14	O	1.430072	0.209811	0.339570
O15	O	1.763405	0.543145	0.672903
O16	O	0.955382	-0.123485	-0.135120
O17	O	1.288715	0.209849	0.198213
O18	O	1.622048	0.543182	0.531546
O19	O	1.223858	-0.123530	-0.120884
O20	O	1.557192	0.209803	0.212450
O21	O	1.890525	0.543136	0.545783
Cu22	Cu	1.089619	-0.146031	-0.128001
Cu23	Cu	1.422953	0.187302	0.205332
Cu24	Cu	1.756286	0.520635	0.538666
Cu25	Cu	1.089626	0.145697	-0.128013
Cu26	Cu	1.422960	0.479030	0.205320
Cu27	Cu	1.756293	0.812364	0.538653
O28	O	1.082502	-0.123493	-0.262240
O29	O	1.415835	0.209840	0.071093
O30	O	1.749168	0.543174	0.404426
C31	C	0.921025	-0.000139	-0.134462
C32	C	1.254358	0.333195	0.198871
C33	C	1.587691	0.666528	0.532205
C34	C	0.818643	-0.000122	-0.132474
C35	C	1.151977	0.333212	0.200859
C36	C	1.485310	0.666545	0.534193
N37	N	1.089621	-0.351218	-0.127992
N38	N	1.422955	-0.017884	0.205342
N39	N	1.756288	0.315449	0.538675
C40	C	0.443748	-0.000190	-0.125154
C41	C	0.777081	0.333144	0.208179
C42	C	1.110414	0.666477	0.541512
C43	C	0.548056	-0.000170	-0.127187
C44	C	0.881389	0.333163	0.206146
C45	C	1.214722	0.666496	0.539480
C46	C	0.631192	-0.000154	-0.128814
C47	C	0.964526	0.333179	0.204519
C48	C	1.297859	0.666512	0.537853
C49	C	0.735507	-0.000138	-0.130847
C50	C	1.068840	0.333196	0.202486
C51	C	1.402173	0.666529	0.535820
C52	C	1.165516	-0.586224	-0.052632
C53	C	1.498850	-0.252891	0.280701
C54	C	1.832183	0.080443	0.614035
C55	C	1.165315	-0.414333	-0.052348
C56	C	1.498648	-0.081000	0.280985
C57	C	1.831982	0.252334	0.614319
C58	C	0.993371	-0.413629	-0.106816
C59	C	1.326704	-0.080296	0.226517
C60	C	1.660038	0.253038	0.559851
C61	C	0.993822	-0.585574	-0.106288
C62	C	1.327156	-0.252240	0.227045
C63	C	1.660489	0.081093	0.560379
C64	C	1.109130	-0.585715	-0.224794
C65	C	1.442464	-0.252382	0.108539
C66	C	1.775797	0.080952	0.441872
C67	C	1.111311	-0.413760	-0.224145
C68	C	1.444644	-0.080426	0.109188
C69	C	1.777978	0.252907	0.442522
C70	C	1.258221	-0.000192	-0.121553
C71	C	1.591554	0.333141	0.211781
C72	C	1.924888	0.666474	0.545114
C73	C	1.360602	-0.000200	-0.123541
C74	C	1.693936	0.333134	0.209793
C75	C	2.027269	0.666467	0.543126
C76	C	1.096078	-0.000182	0.040591
C77	C	1.429411	0.333151	0.373924
C78	C	1.762744	0.666485	0.707258
C79	C	1.094090	-0.000182	0.142972
C80	C	1.427423	0.333151	0.476306
C81	C	1.760756	0.666484	0.809639
N82	N	1.089632	0.350883	-0.128015
N83	N	1.422965	0.684217	0.205318
N84	N	1.756299	1.017550	0.538651
C85	C	1.083168	-0.000149	-0.296605
C86	C	1.416502	0.333184	0.036728
C87	C	1.749835	0.666518	0.370061
C88	C	1.085156	-0.000139	-0.398987
C89	C	1.418490	0.333194	-0.065653
C90	C	1.751823	0.666528	0.267680
C91	C	1.086770	-0.000143	0.517868
C92	C	1.420103	0.333191	0.851201
C93	C	1.753437	0.666524	1.184535
C94	C	1.088803	-0.000154	0.413560
C95	C	1.422136	0.333179	0.746893
C96	C	1.755469	0.666513	1.080227
C97	C	1.090430	-0.000164	0.330423
C98	C	1.423763	0.333170	0.663757
C99	C	1.757096	0.666503	0.997090
C100	C	1.092463	-0.000173	0.226109
C101	C	1.425796	0.333161	0.559442
C102	C	1.759129	0.666494	0.892776
H103	H	1.236857	-0.372136	-0.064981
H104	H	1.570191	-0.038803	0.268352
H105	H	1.903524	0.294531	0.601685
H106	H	1.237299	-0.627574	-0.065066
H107	H	1.570633	-0.294241	0.268268
H108	H	1.903966	0.039092	0.601601
H109	H	1.153223	-0.629456	0.018778
H110	H	1.486557	-0.296123	0.352111
H111	H	1.819890	0.037211	0.685444
N112	N	1.035835	-0.639580	-0.299110
N113	N	1.369168	-0.306247	0.034224
N114	N	1.702501	0.027086	0.367557
H115	H	0.990213	-0.704733	-0.270281
H116	H	1.323547	-0.371399	0.063052
H117	H	1.656880	-0.038066	0.396386
H118	H	1.066108	-0.698336	-0.346781
H119	H	1.399442	-0.365003	-0.013447
H120	H	1.732775	-0.031670	0.319886
H121	H	0.935534	-0.372746	-0.160250
H122	H	1.268867	-0.039413	0.173083
H123	H	1.602201	0.293920	0.506416
H124	H	0.935650	-0.627178	-0.159097
H125	H	1.268983	-0.293845	0.174236
H126	H	1.602317	0.039489	0.507569
H127	H	1.177825	-0.629078	-0.245110
H128	H	1.511159	-0.295744	0.088223
H129	H	1.844492	0.037589	0.421557
N130	N	1.042857	-0.356861	-0.301950
N131	N	1.376190	-0.023528	0.031383
N132	N	1.709523	0.309805	0.364717
H133	H	1.076925	-0.299737	-0.347536
H134	H	1.410258	0.033596	-0.014203
H135	H	1.743592	0.366929	0.319131
H136	H	0.996627	-0.289502	-0.275777
H137	H	1.329960	0.043832	0.057556
H138	H	1.663293	0.377165	0.390889
H139	H	0.975791	-0.370584	-0.037031
H140	H	1.309124	-0.037251	0.296302
H141	H	1.642457	0.296082	0.629636
H142	H	1.152840	-0.373219	0.019472
H143	H	1.486173	-0.039886	0.352805
H144	H	1.819506	0.293447	0.686138
N145	N	0.971108	-0.638739	-0.012788
N146	N	1.304441	-0.305405	0.320545
N147	N	1.637774	0.027928	0.653879
H148	H	0.960896	-0.550479	0.027698
H149	H	1.294229	-0.217146	0.361031
H150	H	1.627563	0.116187	0.694365
H151	H	1.024223	-0.700233	0.017423
H152	H	1.357557	-0.366899	0.350756
H153	H	1.690890	-0.033566	0.684090
H154	H	1.182117	-0.372970	-0.240210
H155	H	1.515451	-0.039636	0.093124
H156	H	1.848784	0.293697	0.426457
