data_functionalizedCrystal
_audit_creation_method	'MofGen! by Chris Wilmer'
_symmetry_space_group_name_H-M	'P1'
_symmetry_Int_Tables_number	1
_symmetry_cell_setting	triclinic
loop_
_symmetry_equiv_pos_as_xyz
  x,y,z
_cell_length_a	15.538191
_cell_length_b	16.776229
_cell_length_c	17.699092
_cell_angle_alpha	90.004970
_cell_angle_beta	65.279231
_cell_angle_gamma	90.009041
loop_
_atom_site_label
_atom_site_type_symbol
_atom_site_fract_x
_atom_site_fract_y
_atom_site_fract_z
O1	O	1.250469	0.066304	-0.245969
O2	O	0.976013	0.066301	-0.158524
O3	O	1.120991	0.066301	-0.314553
O4	O	1.105491	0.066305	-0.089940
O5	O	1.120972	-0.066275	-0.314555
O6	O	0.975994	-0.066275	-0.158526
O7	O	1.250450	-0.066272	-0.245971
Zn8	Zn	1.113219	-0.087323	-0.202249
Zn9	Zn	1.113244	0.087352	-0.202246
O10	O	1.105472	-0.066272	-0.089942
C11	C	0.940888	0.000013	-0.149376
C12	C	0.836253	0.000012	-0.122123
N13	N	1.113209	-0.206534	-0.202253
C14	C	1.120425	0.000014	-0.342599
C15	C	1.118755	0.000018	-0.426160
C16	C	0.549072	0.000020	-0.392867
C17	C	0.450748	0.000021	-0.367240
C18	C	0.427981	0.000023	-0.223096
C19	C	0.526304	0.000018	-0.248711
C20	C	0.586843	0.000018	-0.333597
C21	C	0.564075	0.000016	-0.189441
C22	C	0.662390	0.000015	-0.215054
C23	C	0.722934	0.000017	-0.299936
C24	C	0.685158	0.000017	-0.359210
C25	C	0.503535	0.000022	-0.104555
C26	C	0.541306	0.000019	-0.045285
C27	C	0.639623	0.000013	-0.070898
C28	C	0.700167	0.000015	-0.155780
C29	C	0.677399	0.000013	-0.011624
C30	C	0.775714	0.000012	-0.037237
C31	C	0.798482	0.000014	-0.181393
C32	C	1.285576	0.000018	-0.255119
C33	C	1.390211	0.000025	-0.282372
C34	C	1.177424	-0.248251	-0.271327
C35	C	1.177430	-0.331704	-0.271329
C36	C	1.113223	-0.373437	-0.202254
C37	C	1.049000	-0.331714	-0.133175
C38	C	1.048991	-0.248263	-0.133177
C39	C	1.049034	-0.668261	-0.133170
C40	C	1.049050	-0.751718	-0.133173
C41	C	1.177473	-0.751701	-0.271322
C42	C	1.177464	-0.668251	-0.271323
C43	C	1.113238	-0.626535	-0.202247
C44	C	1.113232	-0.536047	-0.202246
C45	C	1.113233	-0.463924	-0.202251
N46	N	1.113262	0.206564	-0.202250
C47	C	1.117983	0.072286	-0.465413
C48	C	1.116408	0.072287	-0.543925
C49	C	1.115611	0.000019	-0.583186
C50	C	1.116380	-0.072255	-0.543927
C51	C	1.117949	-0.072255	-0.465413
C52	C	1.110053	-0.072256	-0.860563
C53	C	1.108487	-0.072251	-0.939083
C54	C	1.108512	0.072286	-0.939075
C55	C	1.110081	0.072286	-0.860561
C56	C	1.110845	0.000012	-0.821307
C57	C	1.112551	0.000012	-0.736174
C58	C	1.113911	0.000018	-0.668320
C59	C	1.106038	0.000017	-0.061896
C60	C	1.107709	0.000018	0.021665
H61	H	0.847776	0.000009	-0.250516
H62	H	0.996742	-0.634303	-0.076925
H63	H	1.115783	0.131135	-0.575883
O64	O	0.979736	-0.203262	-0.058674
H65	H	0.935096	-0.246300	-0.010637
H66	H	1.118637	0.131135	-0.433454
H67	H	1.110734	0.131134	-0.828601
H68	H	0.802988	0.000027	-0.320789
O69	O	0.410014	0.000015	-0.431176
H70	H	0.331479	0.000020	-0.399107
H71	H	1.107885	0.131134	-0.971043
H72	H	0.806467	0.000003	0.011026
O73	O	1.115517	-0.150201	-0.586272
H74	H	1.116308	-0.200455	-0.545780
O75	O	1.107617	-0.150200	-0.981430
H76	H	1.108401	-0.200457	-0.940941
O77	O	0.476001	0.000014	0.046266
H78	H	0.489412	0.054049	0.075919
H79	H	0.628095	0.000021	0.057490
H80	H	1.229750	-0.634274	-0.327569
H81	H	0.996717	-0.365698	-0.076934
H82	H	1.110694	-0.131106	-0.828619
H83	H	0.734452	0.000012	-0.428333
H84	H	0.423481	0.000025	-0.083704
H85	H	1.229713	-0.214277	-0.327573
O86	O	1.246707	-0.376702	-0.345820
H87	H	1.291366	-0.333662	-0.393845
H88	H	1.229766	-0.785675	-0.327569
O89	O	1.118792	-0.150201	-0.423074
H90	H	1.117986	-0.200454	-0.463568
O91	O	0.979810	-0.796736	-0.058660
H92	H	0.935149	-0.753709	-0.010627
H93	H	0.598366	0.000015	-0.461989
H94	H	0.378678	0.000027	-0.153981
