data_functionalizedCrystal
_audit_creation_method	'MofGen! by Chris Wilmer'
_symmetry_space_group_name_H-M	'P1'
_symmetry_Int_Tables_number	1
_symmetry_cell_setting	triclinic
loop_
_symmetry_equiv_pos_as_xyz
  x,y,z
_cell_length_a	15.995350
_cell_length_b	23.532407
_cell_length_c	14.472310
_cell_angle_alpha	89.994233
_cell_angle_beta	89.990621
_cell_angle_gamma	83.170526
loop_
_atom_site_label
_atom_site_type_symbol
_atom_site_fract_x
_atom_site_fract_y
_atom_site_fract_z
O1	O	1.110386	0.073404	-0.076772
O2	O	0.866535	0.082469	-0.076793
O3	O	0.995814	-0.004967	-0.076765
O4	O	0.981107	0.160840	-0.076800
O5	O	0.995781	-0.004962	0.076917
O6	O	0.866502	0.082474	0.076889
O7	O	1.110353	0.073409	0.076910
Cu8	Cu	0.988424	0.077942	0.090932
Cu9	Cu	0.988464	0.077936	-0.090815
O10	O	0.981074	0.160845	0.076882
C11	C	0.835327	0.082096	0.000046
C12	C	0.742386	0.080973	0.000039
C13	C	0.404672	0.076938	0.000059
C14	C	0.452624	0.014668	0.000415
C15	C	0.549305	0.015792	0.000062
C16	C	0.572216	0.078939	0.000050
C17	C	0.530892	0.109650	-0.087713
C18	C	0.434270	0.108086	-0.087780
C19	C	0.433882	0.109378	0.086985
C20	C	0.530828	0.109364	0.088139
C21	C	0.666904	0.080074	0.000041
C22	C	0.309984	0.075805	0.000061
C23	C	0.995423	-0.026182	0.000078
C24	C	0.994297	-0.089404	0.000085
C25	C	1.063739	-0.488239	0.000041
C26	C	1.062693	-0.547644	0.000033
O27	O	1.127067	-0.584141	0.000005
N28	N	0.985837	-0.570566	0.000028
C29	C	0.910022	-0.534080	0.000020
O30	O	0.844554	-0.559031	0.000013
C31	C	0.911069	-0.474677	0.000020
C32	C	0.987930	-0.451758	0.000035
C33	C	1.140594	-0.465320	0.000055
C34	C	1.141640	-0.405920	0.000063
C35	C	1.065830	-0.369439	0.000058
C36	C	0.988975	-0.392358	0.000044
C37	C	0.835255	-0.438192	0.000006
C38	C	0.836308	-0.378785	0.000005
C39	C	0.913169	-0.355867	0.000020
C40	C	0.914212	-0.296477	0.000048
N41	N	0.991068	-0.273555	0.000053
C42	C	1.066877	-0.310036	0.000059
C43	C	0.907829	-0.658831	0.000017
C44	C	0.906781	-0.718233	0.000023
C45	C	1.059453	-0.731793	0.000035
C46	C	1.060500	-0.672389	0.000036
C47	C	0.984685	-0.635909	0.000023
C48	C	1.069067	-0.185291	0.000078
C49	C	1.070106	-0.125885	0.000091
C50	C	0.917435	-0.112330	0.000074
C51	C	0.916396	-0.171731	0.000066
C52	C	0.992219	-0.208210	0.000065
O53	O	0.849872	-0.259945	0.000073
O54	O	1.132335	-0.285076	0.000053
C55	C	1.141561	0.073781	0.000069
C56	C	1.234502	0.074905	0.000070
C57	C	0.981465	0.182060	0.000037
C58	C	0.982591	0.245281	0.000024
N59	N	0.988403	0.077946	0.218763
N60	N	0.988492	0.077927	-0.218646
C61	C	0.988463	0.077933	0.592854
C62	C	0.919059	0.124562	0.553673
C63	C	0.919217	0.124732	0.446585
C64	C	0.988432	0.077939	0.407263
C65	C	1.075689	0.090918	0.446104
C66	C	1.075298	0.091250	0.553226
C67	C	0.971390	0.018188	0.553394
C68	C	0.969383	0.018587	0.446267
C69	C	0.988421	0.077942	0.302375
C70	C	0.988480	0.077932	0.697742
H71	H	0.413502	0.089023	0.153507
H72	H	0.853809	-0.190392	0.000079
H73	H	0.401739	0.155290	0.087570
H74	H	1.016688	-0.017738	0.419504
H75	H	0.577379	-0.008516	-0.062950
C76	C	1.096617	0.149115	0.409851
N77	N	1.112373	0.192952	0.382550
C78	C	1.152477	-0.225410	0.000085
N79	N	1.215301	-0.255627	0.000099
H80	H	0.854341	0.116999	0.420326
C81	C	1.095708	0.150117	0.586958
N82	N	1.111074	0.194459	0.612361
C83	C	1.039769	-0.028690	0.587630
N84	N	1.091273	-0.063994	0.613423
H85	H	0.433250	-0.010111	-0.062166
C86	C	1.147147	0.047129	0.588240
N87	N	1.201272	0.013905	0.614610
C88	C	1.226193	-0.380718	0.000070
N89	N	1.289884	-0.361740	0.000071
H90	H	0.577921	-0.008349	0.062975
C91	C	0.824421	-0.618706	0.000015
N92	N	0.761599	-0.588488	0.000013
H93	H	1.121181	-0.761507	0.000036
C94	C	1.223998	-0.505442	0.000070
N95	N	1.286823	-0.535657	0.000092
C96	C	0.887316	0.001340	0.589924
N97	N	0.823986	-0.011343	0.617438
C98	C	1.145052	-0.647185	0.000044
N99	N	1.208740	-0.628205	0.000047
H100	H	0.772666	-0.456841	-0.000012
H101	H	0.544632	0.156043	-0.090985
C102	C	1.154663	-0.100679	0.000105
N103	N	1.218349	-0.081696	0.000113
C104	C	0.427854	-0.018957	0.085441
N105	N	0.409190	-0.044284	0.149484
C106	C	0.569476	0.080826	-0.175941
N107	N	0.598536	0.059111	-0.242392
H108	H	0.558317	0.086945	0.153065
H109	H	0.416162	0.085686	-0.153376
C110	C	0.831129	0.114298	0.588528
N111	N	0.764899	0.106569	0.614793
C112	C	0.882670	0.005281	0.411979
N113	N	0.817356	-0.004739	0.386149
H114	H	0.545809	0.155413	0.093430
H115	H	0.929756	0.168648	0.580575
H116	H	0.930067	0.169068	0.420943
H117	H	0.844194	-0.736887	0.000027
C118	C	0.390189	0.169847	-0.093192
N119	N	0.356991	0.216364	-0.097278
H120	H	0.774569	-0.349085	-0.000006
H121	H	1.128548	0.057860	0.420631
C122	C	0.834049	-0.072190	0.000061
N123	N	0.771242	-0.041954	0.000043
