data_functionalizedCrystal
_audit_creation_method	'MofGen! by Chris Wilmer'
_symmetry_space_group_name_H-M	'P1'
_symmetry_Int_Tables_number	1
_symmetry_cell_setting	triclinic
loop_
_symmetry_equiv_pos_as_xyz
  x,y,z
_cell_length_a	17.639115
_cell_length_b	14.908932
_cell_length_c	14.908308
_cell_angle_alpha	89.790170
_cell_angle_beta	105.079761
_cell_angle_gamma	82.703926
loop_
_atom_site_label
_atom_site_type_symbol
_atom_site_fract_x
_atom_site_fract_y
_atom_site_fract_z
Zn1	Zn	-1.165791	0.639728	0.203754
Zn2	Zn	-1.166620	0.781608	0.044540
Zn3	Zn	-1.041486	0.604171	0.083697
Zn4	Zn	-1.026278	0.759834	0.229046
O5	O	-1.100044	0.696335	0.140259
O6	O	-1.276657	0.682541	0.155662
O7	O	-1.156731	0.752302	-0.077726
O8	O	-1.063993	0.484365	0.105425
O9	O	-1.277265	0.786780	0.038688
O10	O	-1.155320	0.510489	0.193630
O11	O	-1.064796	0.621940	-0.048958
O12	O	-0.928713	0.600828	0.129950
O13	O	-1.038074	0.749670	0.353152
O14	O	-0.917540	0.715193	0.236738
O15	O	-1.140574	0.661429	0.334570
O16	O	-1.141985	0.903242	0.063213
O17	O	-1.038877	0.887245	0.198769
C18	C	-0.894409	0.651790	0.190338
C19	C	-0.806436	0.632755	0.211782
C20	C	-1.111260	0.464237	0.151074
C21	C	-1.116040	0.365330	0.155683
C22	C	-0.682114	0.551752	0.302989
C23	C	-0.764778	0.569645	0.282832
C24	C	-0.765438	0.677995	0.160858
C25	C	-0.682772	0.660109	0.181002
C26	C	-0.641117	0.596987	0.252069
C27	C	-0.641775	0.705344	0.130082
C28	C	-0.559116	0.687462	0.150228
C29	C	-0.517454	0.624345	0.221294
C30	C	-0.558458	0.579106	0.272215
C31	C	-0.683432	0.768470	0.059020
C32	C	-0.642435	0.813705	0.008100
C33	C	-0.559775	0.795819	0.028241
C34	C	-0.518113	0.732702	0.099307
C35	C	-0.518772	0.841059	-0.022680
C36	C	-0.436113	0.823177	-0.002534
C37	C	-0.435454	0.714820	0.119452
C38	C	-1.029905	0.152266	0.072501
C39	C	-1.034394	0.059334	0.076829
C40	C	-1.129501	0.086531	0.168672
C41	C	-1.125013	0.179463	0.164344
C42	C	-1.075214	0.212327	0.116256
C43	C	-1.070730	0.305262	0.111923
C44	C	-1.165833	0.332456	0.203770
C45	C	-1.170321	0.239524	0.208098
C46	C	-0.306483	0.741041	0.089978
C47	C	-0.394457	0.760055	0.068533
C48	C	-1.088891	0.927537	0.129501
C49	C	-1.084191	1.026463	0.124912
C50	C	-1.087535	0.707087	0.377834
C51	C	-1.082205	0.711669	0.479074
C52	C	-1.112553	0.685571	-0.096399
C53	C	-1.118048	0.680772	-0.197665
C54	C	-1.178919	0.628371	0.649969
C55	C	-1.173914	0.632673	0.745093
C56	C	-1.067184	0.724570	0.764448
C57	C	-1.072190	0.720268	0.669325
C58	C	-1.128060	0.672167	0.612088
C59	C	-1.133069	0.667871	0.516961
C60	C	-1.026336	0.759762	0.536320
C61	C	-1.021330	0.764064	0.631443
H62	H	-0.450148	0.609790	0.237698
O63	O	-0.804723	0.525804	0.332233
C64	C	-0.931775	0.505286	0.355223
C65	C	-0.886635	0.555010	0.299220
H66	H	-0.998010	0.528865	0.328540
H67	H	-0.910970	0.520852	0.431873
H68	H	-0.919759	0.429270	0.346677
H69	H	-0.898630	0.631037	0.307689
H70	H	-0.907447	0.539369	0.222592
O71	O	-1.209731	0.390818	0.246400
C72	C	-1.208861	0.503653	0.361848
C73	C	-1.159048	0.437584	0.313669
H74	H	-1.167905	0.541494	0.416232
H75	H	-1.245202	0.464232	0.397025
H76	H	-1.250364	0.554191	0.307899
H77	H	-1.117500	0.387030	0.367560
H78	H	-1.122760	0.477064	0.278474
H79	H	-0.402732	0.860014	-0.043997
H80	H	-1.215327	0.597006	0.775932
O81	O	-1.233213	0.581582	0.594502
C82	C	-1.338587	0.490944	0.585327
C83	C	-1.277122	0.543883	0.648250
H84	H	-1.374115	0.460466	0.628753
H85	H	-1.306882	0.434479	0.551827
H86	H	-1.380305	0.538757	0.528793
H87	H	-1.235387	0.496142	0.704832
H88	H	-1.308879	0.600359	0.681680
H89	H	-1.030183	0.332018	0.072765
H90	H	-0.989362	0.179025	0.033340
O91	O	-0.990354	0.001119	0.034240
C92	C	-0.895507	-0.016052	-0.057259
C93	C	-0.945357	0.049979	-0.009088
H94	H	-0.859102	0.023424	-0.092285
H95	H	-0.936413	-0.053832	-0.111765
H96	H	-0.854060	-0.066647	-0.003325
H97	H	-0.986809	0.100629	-0.062954
H98	H	-0.904405	0.087693	0.045435
O99	O	-0.641523	0.490428	0.371962
C100	C	-0.513882	0.414899	0.457086
C101	C	-0.559753	0.484350	0.378941
H102	H	-0.447762	0.409976	0.462766
H103	H	-0.534359	0.345882	0.440604
H104	H	-0.525569	0.437473	0.525790
H105	H	-0.548088	0.461860	0.310205
H106	H	-0.539269	0.553351	0.395502
O107	O	-1.012973	0.771268	0.820183
C108	C	-0.957907	0.818531	0.975328
C109	C	-1.019355	0.765640	0.912309
H110	H	-0.963034	0.813983	1.049829
H111	H	-0.969306	0.892477	0.949985
H112	H	-0.895843	0.788233	0.972829
H113	H	-1.081442	0.795861	0.914779
H114	H	-1.007886	0.691699	0.937672
O115	O	-0.967129	0.810780	0.687170
C116	C	-0.912081	0.858088	0.842302
C117	C	-0.973512	0.805166	0.779297
H118	H	-0.917209	0.853551	0.916803
H119	H	-0.923499	0.932028	0.816941
H120	H	-0.850011	0.827806	0.839810
H121	H	-1.035606	0.835370	0.781760
H122	H	-0.962024	0.731229	0.804678
H123	H	-1.170040	0.059759	0.207831
H124	H	-1.210864	0.212755	0.247253
H125	H	-1.178563	0.628707	0.470359
H126	H	-0.984925	0.795427	0.505467
H127	H	-0.750740	0.783013	0.042606
O128	O	-0.517867	0.517782	0.341188
C129	C	-0.390226	0.442252	0.426312
C130	C	-0.436097	0.511703	0.348167
H131	H	-0.324106	0.437329	0.431992
H132	H	-0.410703	0.373235	0.409830
H133	H	-0.401913	0.464826	0.495016
H134	H	-0.424432	0.489214	0.279431
H135	H	-0.415613	0.580704	0.364728
O136	O	-0.682858	0.875143	-0.060831
C137	C	-0.703172	1.029890	-0.118544
C138	C	-0.657351	0.960411	-0.040404
H139	H	-0.682555	1.098840	-0.102066
H140	H	-0.769298	1.034982	-0.124196
H141	H	-0.691545	1.007262	-0.187261
H142	H	-0.668912	0.982987	0.028356
H143	H	-0.591240	0.955329	-0.034833
O144	O	-0.559196	0.902502	-0.091606
C145	C	-0.579507	1.057255	-0.149301
C146	C	-0.533685	0.987766	-0.071170
H147	H	-0.558887	1.126202	-0.132817
H148	H	-0.645633	1.062348	-0.154949
H149	H	-0.567886	1.034634	-0.218023
H150	H	-0.545241	1.010335	-0.002407
H151	H	-0.467574	0.982683	-0.065605
H152	H	-0.401537	0.663410	0.177313
H153	H	-0.799366	0.729391	0.102997
