data_functionalizedCrystal
_audit_creation_method	'MofGen! by Chris Wilmer'
_symmetry_space_group_name_H-M	'P1'
_symmetry_Int_Tables_number	1
_symmetry_cell_setting	triclinic
loop_
_symmetry_equiv_pos_as_xyz
  x,y,z
_cell_length_a	10.686220
_cell_length_b	29.839131
_cell_length_c	10.686551
_cell_angle_alpha	94.410099
_cell_angle_beta	89.691918
_cell_angle_gamma	94.423467
loop_
_atom_site_label
_atom_site_type_symbol
_atom_site_fract_x
_atom_site_fract_y
_atom_site_fract_z
Zn1	Zn	1.972144	-0.109531	0.562362
Zn2	Zn	1.955808	-0.190848	0.352586
Zn3	Zn	1.746247	-0.121024	0.368677
Zn4	Zn	1.762239	-0.189937	0.578364
O5	O	1.859109	-0.152835	0.465497
O6	O	2.145524	-0.115889	0.521104
O7	O	1.914480	-0.186776	0.179174
O8	O	1.776357	-0.056627	0.394408
O9	O	2.133522	-0.175632	0.366982
O10	O	1.942322	-0.048183	0.536707
O11	O	1.760516	-0.135477	0.190996
O12	O	1.572821	-0.134594	0.409924
O13	O	1.803613	-0.174081	0.751788
O14	O	1.584570	-0.185225	0.563980
O15	O	1.957829	-0.115006	0.740032
O16	O	1.929986	-0.253599	0.382499
O17	O	1.787772	-0.252930	0.548377
C18	C	1.533178	-0.161058	0.490435
C19	C	1.393745	-0.164586	0.501133
C20	C	1.858878	-0.269565	0.465453
C21	C	1.858897	-0.319499	0.465467
C22	C	1.933315	-0.629464	0.379231
C23	C	1.933474	-0.817132	0.379268
O24	O	1.996563	-0.841676	0.305913
N25	N	1.859377	-0.840268	0.465572
C26	C	1.785241	-0.816484	0.551879
O27	O	1.722231	-0.840468	0.625295
C28	C	1.785090	-0.628816	0.551847
C29	C	1.859182	-0.605683	0.465528
C30	C	2.007402	-0.606331	0.292920
C31	C	2.007357	-0.559417	0.292908
C32	C	1.933224	-0.535636	0.379205
C33	C	1.859137	-0.558769	0.465516
C34	C	1.710962	-0.605033	0.638159
C35	C	1.710934	-0.558113	0.638145
C36	C	1.785026	-0.534980	0.551827
C37	C	1.784958	-0.488075	0.551801
N38	N	1.859055	-0.464939	0.465496
C39	C	1.933188	-0.488720	0.379198
C40	C	1.785324	-0.915012	0.551888
C41	C	1.785360	-0.961928	0.551895
C42	C	1.933594	-0.962573	0.379285
C43	C	1.933551	-0.915656	0.379273
C44	C	1.859421	-0.891876	0.465583
C45	C	1.933086	-0.390197	0.379177
C46	C	1.933030	-0.343279	0.379169
C47	C	1.784801	-0.342638	0.551783
C48	C	1.784851	-0.389552	0.551787
C49	C	1.859004	-0.413330	0.465480
O50	O	1.721913	-0.463501	0.625126
O51	O	1.996210	-0.464726	0.305811
C52	C	1.933361	-0.676378	0.379244
C53	C	1.859273	-0.699511	0.465554
C54	C	1.785141	-0.675730	0.551852
C55	C	1.859309	-0.746428	0.465561
C56	C	1.933442	-0.770208	0.379263
C57	C	2.007539	-0.747072	0.292959
C58	C	2.007493	-0.700158	0.292946
C59	C	1.711044	-0.698867	0.638156
C60	C	1.711094	-0.745781	0.638161
C61	C	1.785227	-0.769561	0.551863
C62	C	2.186314	-0.144580	0.440463
C63	C	2.325749	-0.141063	0.429795
C64	C	1.884327	-0.143160	0.792700
C65	C	1.895073	-0.139037	0.932134
C66	C	1.859378	-0.035647	0.465567
C67	C	1.859492	0.014291	0.465597
C68	C	1.834062	-0.162438	0.139563
C69	C	1.823559	-0.166429	0.000111
H70	H	1.993364	-0.324446	0.308874
C71	C	1.390505	-0.110679	0.337360
C72	C	1.459494	-0.136571	0.251147
C73	C	1.519186	-0.108597	0.165986
H74	H	1.329288	-0.096384	0.293907
H75	H	1.445438	-0.088436	0.381530
H76	H	1.404565	-0.158806	0.206982
H77	H	1.520731	-0.150866	0.294563
H78	H	1.574119	-0.086354	0.210156
H79	H	1.457961	-0.094303	0.122544
H80	H	1.566011	-0.126160	0.107488
H81	H	1.754116	-0.193035	0.951637
H82	H	1.964530	-0.112431	0.980613
H83	H	1.345283	-0.187428	0.570390
C84	C	2.013392	-0.416077	0.285432
C85	C	1.936274	-0.447233	0.210420
C86	C	2.010207	-0.471088	0.124065
H87	H	2.057534	-0.395633	0.233909
H88	H	2.071707	-0.431577	0.329269
H89	H	1.877981	-0.431735	0.166586
H90	H	1.892132	-0.467686	0.261908
H91	H	2.068522	-0.486587	0.167901
H92	H	2.054345	-0.450640	0.072550
H93	H	1.957895	-0.492232	0.073166
H94	H	2.067693	-0.540584	0.222623
C95	C	2.087929	-0.632067	0.199071
C96	C	2.152770	-0.601758	0.123475
C97	C	2.226947	-0.625446	0.036982
H98	H	2.146376	-0.647548	0.242761
H99	H	2.035807	-0.653211	0.147969
H100	H	2.204888	-0.580622	0.174570
H101	H	2.094355	-0.586275	0.079757
H102	H	2.174824	-0.646590	-0.014120
H103	H	2.285385	-0.640927	0.080683
H104	H	2.270941	-0.604886	-0.014327
H105	H	1.993883	-0.896824	0.308986
H106	H	1.993956	-0.981943	0.309018
H107	H	1.725014	-0.980760	0.622173
H108	H	1.724955	-0.895653	0.622174
C109	C	2.087861	-0.772889	0.199084
C110	C	2.051075	-0.765885	0.077004
C111	C	2.125030	-0.789670	-0.009487
H112	H	2.173581	-0.762521	0.210900
H113	H	2.077241	-0.804149	0.211397
H114	H	2.061706	-0.734632	0.064696
H115	H	1.965367	-0.776256	0.065148
H116	H	2.114410	-0.820930	0.002826
H117	H	2.210746	-0.779299	0.002340
H118	H	2.100074	-0.784924	-0.092327
C119	C	1.630486	-0.630057	0.732025
C120	C	1.565598	-0.599178	0.807614
C121	C	1.491461	-0.622211	0.894115
H122	H	1.572068	-0.651186	0.688342
H123	H	1.682640	-0.645493	0.783131
H124	H	1.513448	-0.583749	0.756514
H125	H	1.623985	-0.578048	0.851325
H126	H	1.543615	-0.637648	0.945221
H127	H	1.433051	-0.643340	0.850422
H128	H	1.447435	-0.601263	0.945420
H129	H	1.650570	-0.538753	0.708433
H130	H	1.724524	-0.408388	0.622078
H131	H	1.724438	-0.323269	0.622042
H132	H	2.067826	-0.681327	0.222658
H133	H	1.650749	-0.764612	0.708452
H134	H	1.650678	-0.679508	0.708432
