data_functionalizedCrystal
_audit_creation_method	'MofGen! by Chris Wilmer'
_symmetry_space_group_name_H-M	'P1'
_symmetry_Int_Tables_number	1
_symmetry_cell_setting	triclinic
loop_
_symmetry_equiv_pos_as_xyz
  x,y,z
_cell_length_a	14.519709
_cell_length_b	19.288840
_cell_length_c	18.366186
_cell_angle_alpha	89.983729
_cell_angle_beta	90.000036
_cell_angle_gamma	96.596919
loop_
_atom_site_label
_atom_site_type_symbol
_atom_site_fract_x
_atom_site_fract_y
_atom_site_fract_z
O1	O	-0.114935	0.921777	-0.060662
O2	O	0.218398	1.255111	0.272672
O3	O	0.551732	1.588444	0.606005
O4	O	-0.130478	0.719570	-0.060635
O5	O	0.202855	1.052904	0.272698
O6	O	0.536188	1.386237	0.606032
O7	O	0.011567	0.826035	-0.060656
O8	O	0.344900	1.159368	0.272678
O9	O	0.678233	1.492702	0.606011
O10	O	-0.256980	0.815313	-0.060641
O11	O	0.076354	1.148646	0.272692
O12	O	0.409687	1.481979	0.606026
O13	O	0.011573	0.826017	0.060444
O14	O	0.344907	1.159350	0.393777
O15	O	0.678240	1.492684	0.727110
O16	O	-0.130471	0.719552	0.060464
O17	O	0.202862	1.052885	0.393798
O18	O	0.536195	1.386219	0.727131
O19	O	-0.114928	0.921759	0.060438
O20	O	0.218405	1.255093	0.393771
O21	O	0.551739	1.588426	0.727105
Zn22	Zn	-0.122699	0.820653	0.079678
Zn23	Zn	0.210635	1.153986	0.413012
Zn24	Zn	0.543968	1.487320	0.746345
Zn25	Zn	-0.122708	0.820677	-0.079875
Zn26	Zn	0.210626	1.154010	0.253458
Zn27	Zn	0.543959	1.487343	0.586791
O28	O	-0.256973	0.815294	0.060458
O29	O	0.076361	1.148628	0.393792
O30	O	0.409694	1.481961	0.727125
C31	C	-0.129979	0.693683	-0.000082
C32	C	0.203355	1.027016	0.333251
C33	C	0.536688	1.360349	0.666585
C34	C	-0.128489	0.616573	-0.000072
C35	C	0.204845	0.949906	0.333261
C36	C	0.538178	1.283239	0.666594
C37	C	-0.127777	0.580377	-0.066086
C38	C	0.205556	0.913710	0.267248
C39	C	0.538890	1.247043	0.600581
C40	C	-0.126367	0.507925	-0.066095
C41	C	0.206966	0.841258	0.267239
C42	C	0.540300	1.174591	0.600572
C43	C	-0.125650	0.471673	-0.000087
C44	C	0.207683	0.805007	0.333247
C45	C	0.541017	1.138340	0.666580
C46	C	-0.126367	0.507878	0.065935
C47	C	0.206966	0.841211	0.399269
C48	C	0.540299	1.174545	0.732602
C49	C	-0.127787	0.580328	0.065942
C50	C	0.205547	0.913661	0.399276
C51	C	0.538880	1.246994	0.732609
C52	C	-0.069381	0.362136	0.050471
C53	C	0.263952	0.695469	0.383805
C54	C	0.597285	1.028802	0.717138
C55	C	-0.067956	0.289688	0.050462
C56	C	0.265377	0.623021	0.383795
C57	C	0.598710	0.956355	0.717128
C58	C	-0.121276	0.248214	-0.000106
C59	C	0.212057	0.581547	0.333227
C60	C	0.545390	0.914881	0.666561
C61	C	-0.176010	0.279198	-0.050676
C62	C	0.157324	0.612531	0.282657
C63	C	0.490657	0.945865	0.615991
C64	C	-0.177429	0.351648	-0.050669
C65	C	0.155904	0.684981	0.282665
C66	C	0.489238	1.018314	0.615998
C67	C	-0.124112	0.393114	-0.000087
C68	C	0.209222	0.726447	0.333246
C69	C	0.542555	1.059781	0.666580
C70	C	-0.119037	0.133457	-0.066133
C71	C	0.214296	0.466790	0.267200
C72	C	0.547630	0.800124	0.600533
C73	C	-0.117633	0.061003	-0.066140
C74	C	0.215701	0.394336	0.267194
C75	C	0.549034	0.727670	0.600527
C76	C	-0.117624	0.060959	0.065892
C77	C	0.215710	0.394292	0.399225
C78	C	0.549043	0.727625	0.732559
C79	C	-0.119037	0.133410	0.065896
C80	C	0.214296	0.466744	0.399230
C81	C	0.547629	0.800077	0.732563
C82	C	-0.119740	0.169655	-0.000118
C83	C	0.213594	0.502989	0.333215
C84	C	0.546927	0.836322	0.666548
C85	C	-0.291333	0.815803	-0.000090
C86	C	0.042001	1.149137	0.333244
C87	C	0.375334	1.482470	0.666577
C88	C	-0.393704	0.817301	-0.000085
C89	C	-0.060371	1.150634	0.333248
C90	C	0.272962	1.483967	0.666582
C91	C	-0.768565	0.822813	-0.000115
C92	C	-0.435231	1.156147	0.333219
C93	C	-0.101898	1.489480	0.666552
C94	C	-0.664266	0.821283	-0.000106
C95	C	-0.330933	1.154616	0.333227
C96	C	0.002400	1.487949	0.666561
C97	C	-0.581138	0.820057	-0.000099
C98	C	-0.247804	1.153391	0.333234
C99	C	0.085529	1.486724	0.666568
C100	C	-0.476833	0.818526	-0.000092
C101	C	-0.143500	1.151859	0.333241
C102	C	0.189834	1.485193	0.666575
C103	C	0.045927	0.825526	-0.000109
C104	C	0.379260	1.158860	0.333224
C105	C	0.712593	1.492193	0.666558
C106	C	0.148298	0.824029	-0.000119
C107	C	0.481631	1.157362	0.333215
C108	C	0.814965	1.490696	0.666548
C109	C	-0.115428	0.947647	-0.000117
C110	C	0.217906	1.280980	0.333217
C111	C	0.551239	1.614314	0.666550
C112	C	-0.116917	1.024757	-0.000131
C113	C	0.216416	1.358090	0.333202
C114	C	0.549749	1.691423	0.666536
N115	N	-0.122692	0.820642	0.188569
N116	N	0.210642	1.153975	0.521903
N117	N	0.543975	1.487308	0.855236
N118	N	-0.122707	0.820693	-0.188767
N119	N	0.210626	1.154027	0.144567
N120	N	0.543959	1.487360	0.477900
C121	C	-0.059825	0.867800	0.226661
C122	C	0.273508	1.201133	0.559994
C123	C	0.606842	1.534466	0.893327
C124	C	-0.059821	0.867804	0.302889
C125	C	0.273512	1.201137	0.636222
C126	C	0.606846	1.534471	0.969555
C127	C	-0.122699	0.820657	0.341022
C128	C	0.210634	1.153990	0.674355
C129	C	0.543967	1.487324	1.007689
C130	C	-0.185571	0.773490	0.302922
C131	C	0.147763	1.106823	0.636255
C132	C	0.481096	1.440157	0.969588
C133	C	-0.185567	0.773482	0.226695
C134	C	0.147766	1.106816	0.560029
C135	C	0.481100	1.440149	0.893362
C136	C	-0.206729	0.811661	0.461788
C137	C	0.126605	1.144994	0.795121
C138	C	0.459938	1.478328	1.128454
C139	C	-0.206734	0.811674	0.538013
C140	C	0.126600	1.145007	0.871346
C141	C	0.459933	1.478340	1.204679
C142	C	-0.122711	0.820677	0.576130
C143	C	0.210622	1.154010	0.909463
C144	C	0.543956	1.487343	1.242796
C145	C	-0.038679	0.829682	0.538012
C146	C	0.294654	1.163015	0.871346
C147	C	0.627987	1.496349	1.204679
C148	C	-0.038675	0.829674	0.461786
C149	C	0.294658	1.163008	0.795119
C150	C	0.627991	1.496341	1.128453
C151	C	-0.122710	0.820660	0.423677
C152	C	0.210623	1.153993	0.757010
C153	C	0.543957	1.487327	1.090344
C154	C	-0.059835	0.867842	0.696876
C155	C	0.273499	1.201176	1.030209
C156	C	0.606832	1.534509	1.363543
C157	C	-0.059829	0.867842	0.773105
C158	C	0.273504	1.201175	1.106438
C159	C	0.606837	1.534509	1.439772
C160	C	-0.185587	0.773531	0.773137
C161	C	0.147746	1.106864	1.106470
C162	C	0.481080	1.440198	1.439803
C163	C	-0.185584	0.773528	0.696909
C164	C	0.147749	1.106862	1.030242
C165	C	0.481082	1.440195	1.363576
C166	C	-0.122709	0.820687	0.658783
C167	C	0.210624	1.154021	0.992116
C168	C	0.543958	1.487354	1.325450
H169	H	-0.128349	0.609883	-0.119840
H170	H	0.204985	0.943216	0.213493
H171	H	0.538318	1.276550	0.546827
H172	H	-0.236780	0.735140	0.804185
H173	H	0.096553	1.068474	1.137518
H174	H	0.429886	1.401807	1.470851
Br175	Br	-0.248380	0.222921	-0.119307
Br176	Br	0.084953	0.556255	0.214026
Br177	Br	0.418286	0.889588	0.547359
H178	H	-0.119618	0.162968	-0.119887
H179	H	0.213715	0.496302	0.213447
H180	H	0.547048	0.829635	0.546780
H181	H	0.029740	0.837013	0.569045
H182	H	0.363074	1.170346	0.902379
H183	H	0.696407	1.503680	1.235712
Br184	Br	0.025506	0.931797	0.174918
Br185	Br	0.358839	1.265131	0.508251
Br186	Br	0.692173	1.598464	0.841584
H187	H	-0.119611	0.162882	0.119652
H188	H	0.213722	0.496215	0.452985
H189	H	0.547056	0.829549	0.786318
Br190	Br	-0.116678	0.011877	-0.155737
Br191	Br	0.216655	0.345210	0.177596
Br192	Br	0.549989	0.678543	0.510929
Br193	Br	0.025507	0.931809	0.354593
Br194	Br	0.358840	1.265142	0.687926
Br195	Br	0.692173	1.598476	1.021260
Br196	Br	-0.125403	0.458790	-0.155690
Br197	Br	0.207931	0.792123	0.177643
Br198	Br	0.541264	1.125457	0.510976
H199	H	-0.221997	0.376872	-0.091843
H200	H	0.111336	0.710205	0.241490
H201	H	0.444670	1.043538	0.574824
Br202	Br	-0.128755	0.629454	0.155539
Br203	Br	0.204578	0.962788	0.488872
Br204	Br	0.537912	1.296121	0.822205
H205	H	-0.117046	0.031443	0.119637
H206	H	0.216287	0.364776	0.452970
H207	H	0.549621	0.698110	0.786304
Br208	Br	-0.270910	0.709527	0.645208
Br209	Br	0.062423	1.042860	0.978541
Br210	Br	0.395757	1.376194	1.311874
Br211	Br	0.075361	0.841889	0.410057
Br212	Br	0.408694	1.175222	0.743390
Br213	Br	0.742027	1.508555	1.076724
Br214	Br	-0.270891	0.709476	0.174995
Br215	Br	0.062442	1.042810	0.508329
Br216	Br	0.395775	1.376143	0.841662
H217	H	-0.275155	0.804318	0.430759
H218	H	0.058179	1.137651	0.764093
H219	H	0.391512	1.470984	1.097426
Br220	Br	0.025504	0.931841	0.824805
Br221	Br	0.358838	1.265174	1.158138
Br222	Br	0.692171	1.598508	1.491471
Br223	Br	-0.320774	0.799460	0.589736
Br224	Br	0.012559	1.132794	0.923069
Br225	Br	0.345892	1.466127	1.256402
Br226	Br	-0.270901	0.709499	0.354671
Br227	Br	0.062433	1.042832	0.688005
Br228	Br	0.395766	1.376165	1.021338
Br229	Br	0.002984	0.418414	0.119108
Br230	Br	0.336318	0.751748	0.452441
Br231	Br	0.669651	1.085081	0.785775
Br232	Br	0.006300	0.247643	0.119105
Br233	Br	0.339634	0.580976	0.452439
Br234	Br	0.672967	0.914310	0.785772
Br235	Br	0.025498	0.931841	0.645132
Br236	Br	0.358832	1.265174	0.978465
Br237	Br	0.692165	1.598508	1.311798
Br238	Br	-0.125405	0.458681	0.155518
Br239	Br	0.207928	0.792014	0.488852
Br240	Br	0.541262	1.125348	0.822185
