data_functionalizedCrystal
_audit_creation_method	'MofGen! by Chris Wilmer'
_symmetry_space_group_name_H-M	'P1'
_symmetry_Int_Tables_number	1
_symmetry_cell_setting	triclinic
loop_
_symmetry_equiv_pos_as_xyz
  x,y,z
_cell_length_a	16.625547
_cell_length_b	13.897447
_cell_length_c	13.897441
_cell_angle_alpha	90.029327
_cell_angle_beta	90.026124
_cell_angle_gamma	90.019467
loop_
_atom_site_label
_atom_site_type_symbol
_atom_site_fract_x
_atom_site_fract_y
_atom_site_fract_z
Zn1	Zn	1.232707	-0.383986	0.545528
Zn2	Zn	1.732707	0.116014	1.045528
Zn3	Zn	1.232614	-0.545307	0.384233
Zn4	Zn	1.732614	-0.045307	0.884233
Zn5	Zn	1.097866	-0.384028	0.384232
Zn6	Zn	1.597866	0.115972	0.884232
Zn7	Zn	1.097846	-0.545240	0.545471
Zn8	Zn	1.597846	-0.045240	1.045471
O9	O	1.165259	-0.464640	0.464866
O10	O	1.665259	0.035360	0.964866
O11	O	1.345527	-0.405396	0.524157
O12	O	1.845527	0.094604	1.024157
O13	O	1.214709	-0.523959	0.249251
O14	O	1.714709	-0.023959	0.749251
O15	O	1.115800	-0.249041	0.405651
O16	O	1.615800	0.250959	0.905651
O17	O	1.345459	-0.523918	0.405654
O18	O	1.845459	-0.023918	0.905654
O19	O	1.214867	-0.249010	0.524155
O20	O	1.714867	0.250990	1.024155
O21	O	1.115710	-0.405468	0.249250
O22	O	1.615710	0.094532	0.749250
O23	O	0.985031	-0.405403	0.405596
O24	O	1.485031	0.094597	0.905596
O25	O	1.115767	-0.523804	0.680460
O26	O	1.615767	-0.023804	1.180460
O27	O	0.985017	-0.523845	0.524057
O28	O	1.485017	-0.023845	1.024057
O29	O	1.214848	-0.405331	0.680503
O30	O	1.714848	0.094669	1.180503
O31	O	1.214690	-0.680280	0.405599
O32	O	1.714690	-0.180280	0.905599
O33	O	1.115677	-0.680231	0.524059
O34	O	1.615677	-0.180231	1.024059
C35	C	1.165193	-0.715255	0.464844
C36	C	1.665193	-0.215255	0.964844
C37	C	1.165239	-0.822469	0.464866
C38	C	1.665239	-0.322469	0.964866
C39	C	0.955768	-0.464622	0.464821
C40	C	1.455768	0.035378	0.964821
C41	C	0.866147	-0.464637	0.464824
C42	C	1.366147	0.035363	0.964824
C43	C	1.165278	-0.909538	0.464888
C44	C	1.665278	-0.409538	0.964888
C45	C	1.165334	-1.018771	0.464913
C46	C	1.665334	-0.518771	0.964913
C47	C	0.793364	-0.464639	0.464836
C48	C	1.293364	0.035361	0.964836
C49	C	0.702056	-0.464644	0.464860
C50	C	1.202056	0.035356	0.964860
C51	C	0.629279	-0.464653	0.464884
C52	C	1.129279	0.035347	0.964884
C53	C	0.537965	-0.464659	0.464908
C54	C	1.037965	0.035341	0.964908
C55	C	1.375567	-0.464660	0.464912
C56	C	1.875567	0.035340	0.964912
C57	C	1.465189	-0.464668	0.464932
C58	C	1.965189	0.035332	0.964932
C59	C	1.165316	-0.464555	0.716459
C60	C	1.665316	0.035445	1.216459
C61	C	1.165340	-0.464519	0.823673
C62	C	1.665340	0.035481	1.323673
C63	C	1.165346	-0.213047	0.464910
C64	C	1.665346	0.286953	0.964910
C65	C	1.165384	-0.105833	0.464928
C66	C	1.665384	0.394167	0.964928
C67	C	1.165248	-0.464656	0.214252
C68	C	1.665248	0.035344	0.714252
C69	C	1.165380	-0.464420	0.107038
C70	C	1.665380	0.035580	0.607038
C71	C	1.165362	-0.464453	1.019968
C72	C	1.665362	0.035547	1.519968
C73	C	1.165347	-0.464492	0.910736
C74	C	1.665347	0.035508	1.410736
