data_functionalizedCrystal
_audit_creation_method	'MofGen! by Chris Wilmer'
_symmetry_space_group_name_H-M	'P1'
_symmetry_Int_Tables_number	1
_symmetry_cell_setting	triclinic
loop_
_symmetry_equiv_pos_as_xyz
  x,y,z
_cell_length_a	18.050589
_cell_length_b	18.101398
_cell_length_c	18.101389
_cell_angle_alpha	90.026909
_cell_angle_beta	89.985984
_cell_angle_gamma	89.979808
loop_
_atom_site_label
_atom_site_type_symbol
_atom_site_fract_x
_atom_site_fract_y
_atom_site_fract_z
Zn1	Zn	-0.295896	-1.132136	-0.418912
Zn2	Zn	0.204104	-0.632136	0.081088
Zn3	Zn	-0.420071	-1.132038	-0.295080
Zn4	Zn	0.079929	-0.632038	0.204920
Zn5	Zn	-0.295882	-1.008295	-0.295068
Zn6	Zn	0.204118	-0.508295	0.204932
Zn7	Zn	-0.420032	-1.008252	-0.418863
Zn8	Zn	0.079968	-0.508252	0.081137
O9	O	-0.357970	-1.070180	-0.356981
O10	O	0.142030	-0.570180	0.143019
O11	O	-0.312391	-1.235756	-0.402512
O12	O	0.187609	-0.735756	0.097488
O13	O	-0.403607	-1.115600	-0.191446
O14	O	0.096393	-0.615600	0.308554
O15	O	-0.191959	-1.024782	-0.311512
O16	O	0.308041	-0.524782	0.188488
O17	O	-0.403621	-1.235684	-0.311533
O18	O	0.096379	-0.735684	0.188467
O19	O	-0.191970	-1.115767	-0.402499
O20	O	0.308030	-0.615767	0.097501
O21	O	-0.312366	-1.024687	-0.191437
O22	O	0.187634	-0.524687	0.308563
O23	O	-0.312328	-0.904656	-0.311464
O24	O	0.187672	-0.404656	0.188536
O25	O	-0.403555	-1.024708	-0.522503
O26	O	0.096445	-0.524708	-0.022503
O27	O	-0.403540	-0.904625	-0.402416
O28	O	0.096460	-0.404625	0.097584
O29	O	-0.312353	-1.115725	-0.522539
O30	O	0.187647	-0.615725	-0.022539
O31	O	-0.523990	-1.115558	-0.311485
O32	O	-0.023990	-0.615558	0.188515
O33	O	-0.523961	-1.024613	-0.402428
O34	O	-0.023961	-0.524613	0.097572
C35	C	-0.357929	-0.877770	-0.356934
C36	C	0.142071	-0.377770	0.143066
C37	C	-0.357929	-0.795455	-0.356931
C38	C	0.142071	-0.295455	0.143069
C39	C	-0.357958	-0.496364	-0.356980
C40	C	0.142042	0.003636	0.143020
C41	C	-0.300285	-0.527685	-0.300036
C42	C	0.199715	-0.027685	0.199964
C43	C	-0.300444	-0.613303	-0.299797
C44	C	0.199556	-0.113303	0.200203
C45	C	-0.357943	-0.644747	-0.356956
C46	C	0.142057	-0.144747	0.143044
C47	C	-0.436169	-0.613633	-0.335636
C48	C	0.063831	-0.113633	0.164364
C49	C	-0.435843	-0.527988	-0.335236
C50	C	0.064157	-0.027988	0.164764
C51	C	-0.338088	-0.527978	-0.435379
C52	C	0.161912	-0.027978	0.064621
C53	C	-0.336351	-0.613629	-0.434955
C54	C	0.163649	-0.113629	0.065045
C55	C	-0.357939	-0.728606	-0.356943
C56	C	0.142061	-0.228606	0.143057
C57	C	-0.357967	-0.412505	-0.356990
C58	C	0.142033	0.087495	0.143010
C59	C	-0.550922	-1.070091	-0.356969
C60	C	-0.050922	-0.570091	0.143031
C61	C	-0.633468	-1.070120	-0.356988
C62	C	-0.133468	-0.570120	0.143012
C63	C	-0.832930	-1.020713	-0.406426
C64	C	-0.332930	-0.520713	0.093574
C65	C	-0.882356	-1.002661	-0.338846
C66	C	-0.382356	-0.502661	0.161154
C67	C	-0.784598	-1.070193	-0.356998
C68	C	-0.284598	-0.570193	0.143002
C69	C	-0.882254	-1.088281	-0.424585
C70	C	-0.382254	-0.588281	0.075415
C71	C	-0.930583	-1.070262	-0.357013
C72	C	-0.430583	-0.570262	0.142987
C73	C	-0.832938	-1.052106	-0.289383
C74	C	-0.332938	-0.552106	0.210617
C75	C	-0.832830	-1.137757	-0.375167
C76	C	-0.332830	-0.637757	0.124833
C77	C	-0.882234	-1.119731	-0.307541
C78	C	-0.382234	-0.619731	0.192459
C79	C	-0.700500	-1.070151	-0.356990
C80	C	-0.200500	-0.570151	0.143010
C81	C	-1.014680	-1.070304	-0.357013
C82	C	-0.514680	-0.570304	0.142987
C83	C	-0.164264	-1.070290	-0.357010
C84	C	0.335736	-0.570290	0.142990
C85	C	-0.081719	-1.070337	-0.357022
C86	C	0.418281	-0.570337	0.142978
C87	C	-0.357951	-1.070223	-0.550143
C88	C	0.142049	-0.570223	-0.050143
C89	C	-0.357943	-1.070241	-0.632457
C90	C	0.142057	-0.570241	-0.132457
C91	C	-0.357997	-0.263342	-0.357018
C92	C	0.142003	0.236658	0.142982
C93	C	-0.357972	-0.345656	-0.357004
C94	C	0.142028	0.154344	0.142996
C95	C	-0.357804	-1.070284	-0.931548
C96	C	0.142196	-0.570284	-0.431548
C97	C	-0.415003	-1.012822	-0.900200
C98	C	0.084997	-0.512822	-0.400200
C99	C	-0.415269	-1.012977	-0.814582
C100	C	0.084731	-0.512977	-0.314582
C101	C	-0.357873	-1.070262	-0.783166
C102	C	0.142127	-0.570262	-0.283166
C103	C	-0.379128	-1.148289	-0.814277
C104	C	0.120872	-0.648289	-0.314277
C105	C	-0.379503	-1.147969	-0.899922
C106	C	0.120497	-0.647969	-0.399922
C107	C	-0.279223	-1.050399	-0.899966
C108	C	0.220777	-0.550399	-0.399966
C109	C	-0.279677	-1.048663	-0.814315
C110	C	0.220323	-0.548663	-0.314315
C111	C	-0.357911	-1.070255	-0.699306
C112	C	0.142089	-0.570255	-0.199306
C113	C	-0.357768	-1.070297	-1.015408
C114	C	0.142232	-0.570297	-0.515408
C115	C	-0.357935	-1.070180	-0.164571
C116	C	0.142065	-0.570180	0.335429
C117	C	-0.357734	-1.070305	-0.082257
C118	C	0.142266	-0.570305	0.417743
H119	H	-0.452696	-0.507977	-0.277922
H120	H	0.047304	-0.007977	0.222078
H121	H	-0.903747	-1.161604	-0.265700
H122	H	-0.403747	-0.661604	0.234300
H123	H	-0.811365	-1.036768	-0.232215
H124	H	-0.311365	-0.536768	0.267785
H125	H	-0.811280	-0.978808	-0.448166
H126	H	-0.311280	-0.478808	0.051834
H127	H	-0.401838	-0.954788	-0.920783
H128	H	0.098162	-0.454788	-0.420783
H129	H	-0.313581	-0.633757	-0.241705
H130	H	0.186419	-0.133757	0.258295
N131	N	-0.911166	-0.927017	-0.318481
N132	N	-0.411166	-0.427017	0.181519
H133	H	-0.893235	-0.889648	-0.355839
H134	H	-0.393235	-0.389648	0.144161
H135	H	-0.967111	-0.927788	-0.318152
H136	H	-0.467111	-0.427788	0.181848
N137	N	-0.387941	-0.641977	-0.494174
N138	N	0.112059	-0.141977	0.005826
H139	H	-0.426214	-0.675541	-0.471177
H140	H	0.073786	-0.175541	0.028823
H141	H	-0.413531	-0.598889	-0.518766
H142	H	0.086469	-0.098889	-0.018766
N143	N	-0.803992	-1.213383	-0.395541
N144	N	-0.303992	-0.713383	0.104459
H145	H	-0.821898	-1.226977	-0.446626
H146	H	-0.321898	-0.726977	0.053374
H147	H	-0.748047	-1.212856	-0.394863
H148	H	-0.248047	-0.712856	0.105137
N149	N	-0.253568	-0.976341	-0.928541
N150	N	0.246432	-0.476341	-0.428541
H151	H	-0.250592	-0.977895	-0.984239
H152	H	0.249408	-0.477895	-0.484239
H153	H	-0.289896	-0.936875	-0.912891
H154	H	0.210104	-0.436875	-0.412891
N155	N	-0.491694	-1.030050	-0.928692
N156	N	0.008306	-0.530050	-0.428692
H157	H	-0.489545	-1.074913	-0.961820
H158	H	0.010455	-0.574913	-0.461820
H159	H	-0.525771	-1.040274	-0.885636
H160	H	-0.025771	-0.540274	-0.385636
N161	N	-0.455596	-1.170282	-0.926403
N162	N	0.044404	-0.670282	-0.426403
H163	H	-0.456603	-1.170295	-0.982191
H164	H	0.043397	-0.670295	-0.482191
H165	H	-0.467568	-1.221417	-0.907576
H166	H	0.032432	-0.721417	-0.407576
N167	N	-0.397625	-0.936337	-0.786728
N168	N	0.102375	-0.436337	-0.286728
H169	H	-0.436156	-0.900443	-0.805397
H170	H	0.063844	-0.400443	-0.305397
H171	H	-0.397744	-0.936346	-0.730933
H172	H	0.102256	-0.436346	-0.230933
H173	H	-0.380095	-0.507724	-0.477808
H174	H	0.119905	-0.007724	0.022192
N175	N	-0.910956	-1.108513	-0.500284
N176	N	-0.410956	-0.608513	-0.000284
H177	H	-0.893021	-1.071074	-0.537571
H178	H	-0.393021	-0.571074	-0.037571
H179	H	-0.892162	-1.159170	-0.514323
H180	H	-0.392162	-0.659170	-0.014323
H181	H	-0.282037	-0.506403	-0.454762
H182	H	0.217963	-0.006403	0.045238
N183	N	-0.326730	-1.206611	-0.927401
N184	N	0.173270	-0.706611	-0.427401
H185	H	-0.303327	-1.232556	-0.883877
H186	H	0.196673	-0.732556	-0.383877
H187	H	-0.354789	-1.243656	-0.958348
H188	H	0.145211	-0.743656	-0.458348
N189	N	-0.492425	-1.030374	-0.787469
N190	N	0.007575	-0.530374	-0.287469
H191	H	-0.507948	-1.080548	-0.806349
H192	H	-0.007948	-0.580548	-0.306349
H193	H	-0.492883	-1.030500	-0.731676
H194	H	0.007117	-0.530500	-0.231676
H195	H	-0.338776	-1.192253	-0.793929
H196	H	0.161224	-0.692253	-0.293929
N197	N	-0.454408	-1.171012	-0.785884
N198	N	0.045592	-0.671012	-0.285884
H199	H	-0.474852	-1.130883	-0.752878
H200	H	0.025148	-0.630883	-0.252878
H201	H	-0.489016	-1.178992	-0.828986
H202	H	0.010984	-0.678992	-0.328986
N203	N	-0.258436	-0.972606	-0.787378
N204	N	0.241564	-0.472606	-0.287378
H205	H	-0.299290	-0.952220	-0.755131
H206	H	0.200710	-0.452220	-0.255131
H207	H	-0.211067	-0.975856	-0.757872
H208	H	0.288933	-0.475856	-0.257872
H209	H	-0.234797	-1.087462	-0.792929
H210	H	0.265203	-0.587462	-0.292929
N211	N	-0.222764	-1.105828	-0.926818
N212	N	0.277236	-0.605828	-0.426818
H213	H	-0.237200	-1.156874	-0.909522
H214	H	0.262800	-0.656874	-0.409522
H215	H	-0.220902	-1.104915	-0.982574
H216	H	0.279098	-0.604915	-0.482574
N217	N	-0.223607	-0.641178	-0.317488
N218	N	0.276393	-0.141178	0.182512
H219	H	-0.208187	-0.622740	-0.367848
H220	H	0.291813	-0.122740	0.132152
H221	H	-0.187640	-0.622485	-0.279060
H222	H	0.312360	-0.122485	0.220940
N223	N	-0.223207	-0.500427	-0.317524
N224	N	0.276793	-0.000427	0.182476
H225	H	-0.224922	-0.467510	-0.362529
H226	H	0.275078	0.032490	0.137471
H227	H	-0.203376	-0.471547	-0.274070
H228	H	0.296624	0.028453	0.225930
H229	H	-0.313271	-0.506136	-0.242281
H230	H	0.186729	-0.006136	0.257719
H231	H	-0.480269	-0.507268	-0.374903
H232	H	0.019731	-0.007268	0.125097
H233	H	-0.453317	-0.635048	-0.278943
H234	H	0.046683	-0.135048	0.221057
N235	N	-0.494617	-0.640580	-0.388871
N236	N	0.005383	-0.140580	0.111129
H237	H	-0.470894	-0.673299	-0.427410
H238	H	0.029106	-0.173299	0.072590
H239	H	-0.533362	-0.669591	-0.360984
H240	H	-0.033362	-0.169591	0.139016
N241	N	-0.260095	-0.640560	-0.456252
N242	N	0.239905	-0.140560	0.043748
H243	H	-0.239616	-0.672786	-0.415552
H244	H	0.260384	-0.172786	0.084448
H245	H	-0.263388	-0.670085	-0.503493
H246	H	0.236612	-0.170085	-0.003493
