data_functionalizedCrystal
_audit_creation_method	'MofGen! by Chris Wilmer'
_symmetry_space_group_name_H-M	'P1'
_symmetry_Int_Tables_number	1
_symmetry_cell_setting	triclinic
loop_
_symmetry_equiv_pos_as_xyz
  x,y,z
_cell_length_a	11.792241
_cell_length_b	11.792254
_cell_length_c	11.892095
_cell_angle_alpha	93.915908
_cell_angle_beta	86.078452
_cell_angle_gamma	84.196007
loop_
_atom_site_label
_atom_site_type_symbol
_atom_site_fract_x
_atom_site_fract_y
_atom_site_fract_z
O1	O	1.514120	0.148364	-0.093894
O2	O	1.183781	0.164395	-0.093920
O3	O	1.356959	-0.008790	-0.093898
O4	O	1.340942	0.321548	-0.093915
O5	O	1.342519	0.005628	0.094108
O6	O	1.169342	0.178812	0.094086
O7	O	1.499680	0.162781	0.094112
Zn8	Zn	1.332219	0.173086	0.123949
Zn9	Zn	1.351243	0.154090	-0.123757
O10	O	1.326503	0.335966	0.094090
C11	C	1.134271	0.170596	0.000080
C12	C	1.008258	0.167581	0.000070
C13	C	1.348730	-0.043872	0.000104
C14	C	1.345710	-0.169885	0.000103
C15	C	0.777543	0.162040	0.000102
C16	C	0.905930	0.165119	0.000084
C17	C	1.343256	-0.272222	0.000099
C18	C	1.340189	-0.400609	0.000088
C19	C	1.549191	0.156580	0.000110
C20	C	1.675204	0.159594	0.000113
C21	C	1.334732	0.371047	0.000085
C22	C	1.337752	0.497060	0.000079
N23	N	1.319243	0.186049	0.293001
N24	N	1.364227	0.141118	-0.292809
C25	C	1.454516	0.050848	0.529666
C26	C	1.445454	0.059918	0.648007
C27	C	1.292054	0.213252	0.648026
C28	C	1.301116	0.204182	0.529685
C29	C	1.382350	0.122979	0.470509
C30	C	1.391416	0.113915	0.352167
C31	C	1.238011	0.267243	0.352187
C32	C	1.228950	0.276313	0.470528
H33	H	1.520668	-0.015263	0.481485
Br34	Br	1.501667	0.003718	0.271858
Br35	Br	1.543392	-0.037983	0.728289
H36	H	1.225907	0.279358	0.696222
H37	H	1.162807	0.342424	0.518722
Br38	Br	1.140079	0.365149	0.271893
