data_functionalizedCrystal
_audit_creation_method	'MofGen! by Chris Wilmer'
_symmetry_space_group_name_H-M	'P1'
_symmetry_Int_Tables_number	1
_symmetry_cell_setting	triclinic
loop_
_symmetry_equiv_pos_as_xyz
  x,y,z
_cell_length_a	10.654549
_cell_length_b	10.065875
_cell_length_c	10.967961
_cell_angle_alpha	86.922602
_cell_angle_beta	95.398866
_cell_angle_gamma	98.834034
loop_
_atom_site_label
_atom_site_type_symbol
_atom_site_fract_x
_atom_site_fract_y
_atom_site_fract_z
O1	O	1.691754	0.149130	-0.151410
O2	O	1.326880	0.152908	-0.167497
O3	O	1.511137	0.109865	0.015527
O4	O	1.507496	0.192174	-0.334434
O5	O	1.476008	-0.108883	-0.019515
O6	O	1.291751	-0.065839	-0.202539
O7	O	1.656625	-0.069617	-0.186452
Zn8	Zn	1.468610	-0.102459	-0.200059
Zn9	Zn	1.514894	0.185750	-0.153890
O10	O	1.472367	-0.026574	-0.369476
C11	C	1.262473	0.043256	-0.183836
C12	C	1.122897	0.042422	-0.180298
C13	C	0.840901	0.092371	-0.392506
C14	C	0.896617	0.118494	-0.503600
C15	C	1.027757	0.119259	-0.506930
C16	C	1.103187	0.093903	-0.399155
C17	C	1.047472	0.067780	-0.288061
C18	C	0.916326	0.067013	-0.284743
C19	C	1.067181	0.016299	-0.069205
C20	C	0.936040	0.015524	-0.065873
C21	C	1.142611	-0.009057	0.038571
C22	C	1.086895	-0.035190	0.149665
C23	C	0.955746	-0.035956	0.152991
C24	C	0.880324	-0.010599	0.045221
C25	C	1.721032	0.040038	-0.170113
C26	C	1.860610	0.040880	-0.173648
C27	C	1.490654	-0.010046	0.042818
C28	C	1.481940	-0.041441	0.176342
N29	N	1.437032	-0.299155	-0.231567
C30	C	1.503899	-0.382625	-0.164845
C31	C	1.479606	-0.534087	-0.189104
N32	N	1.546482	0.382443	-0.122372
C33	C	1.492852	0.093340	-0.396766
C34	C	1.501566	0.124744	-0.530289
C35	C	1.487253	0.025429	0.392028
C36	C	1.496256	0.057888	0.254024
H37	H	1.209970	0.094544	-0.401874
H38	H	1.148321	-0.055824	0.237408
O39	O	1.389676	-0.582556	-0.278553
C40	C	1.167927	-0.608685	-0.354437
C41	C	1.269635	-0.553754	-0.253044
H42	H	1.070855	-0.585395	-0.333862
H43	H	1.164213	-0.722213	-0.358043
H44	H	1.193444	-0.559029	-0.446526
H45	H	1.244191	-0.603309	-0.160902
H46	H	1.273329	-0.440220	-0.249546
O47	O	1.518622	0.187963	0.211350
C48	C	1.441809	0.362524	0.079076
C49	C	1.416359	0.215181	0.127274
H50	H	1.359135	0.384585	0.011111
H51	H	1.533879	0.379902	0.031447
H52	H	1.451224	0.432201	0.159071
H53	H	1.406883	0.145411	0.047349
H54	H	1.324315	0.197914	0.174941
H55	H	1.463010	-0.150506	0.211993
H56	H	0.835188	0.139143	-0.591347
H57	H	1.621714	-0.576896	-0.047280
H58	H	1.361795	-0.339824	-0.306645
H59	H	0.773540	-0.011232	0.047916
H60	H	1.520476	0.233801	0.434050
O61	O	1.081672	0.144602	-0.614956
C62	C	1.048312	0.195670	-0.831676
C63	C	0.987084	0.166958	-0.709428
H64	H	0.971870	0.213781	-0.908084
H65	H	1.094457	0.105767	-0.853454
H66	H	1.123968	0.288821	-0.823969
H67	H	0.911376	0.073850	-0.717043
H68	H	0.941023	0.256935	-0.687693
O69	O	0.901823	-0.061412	0.261005
C70	C	0.935245	-0.112301	0.477750
C71	C	0.996464	-0.083524	0.355503
H72	H	1.011738	-0.130158	0.554189
H73	H	0.859669	-0.205535	0.470199
H74	H	0.889008	-0.022408	0.499375
H75	H	1.042772	-0.173336	0.333805
H76	H	1.071975	0.009758	0.363116
H77	H	1.249393	-0.008426	0.035852
O78	O	1.593662	-0.334352	-0.075186
C79	C	1.752909	-0.386427	0.083623
C80	C	1.651269	-0.441275	-0.017859
H81	H	1.799532	-0.472843	0.129984
H82	H	1.706020	-0.336218	0.154368
H83	H	1.828489	-0.309585	0.041580
H84	H	1.575659	-0.518165	0.024075
H85	H	1.698250	-0.491401	-0.088590
O86	O	1.464459	-0.104693	0.434475
C87	C	1.321120	-0.314598	0.427693
C88	C	1.346761	-0.167250	0.379546
H89	H	1.225976	-0.365226	0.383285
H90	H	1.317787	-0.317669	0.531408
H91	H	1.400677	-0.370012	0.403969
H92	H	1.267236	-0.111747	0.403182
H93	H	1.350144	-0.164277	0.275842
H94	H	0.734115	0.091727	-0.389809
