data_functionalizedCrystal
_audit_creation_method	'MofGen! by Chris Wilmer'
_symmetry_space_group_name_H-M	'P1'
_symmetry_Int_Tables_number	1
_symmetry_cell_setting	triclinic
loop_
_symmetry_equiv_pos_as_xyz
  x,y,z
_cell_length_a	13.262533
_cell_length_b	14.519731
_cell_length_c	11.804365
_cell_angle_alpha	101.852944
_cell_angle_beta	93.582318
_cell_angle_gamma	84.078472
loop_
_atom_site_label
_atom_site_type_symbol
_atom_site_fract_x
_atom_site_fract_y
_atom_site_fract_z
O1	O	1.322477	0.185878	0.329290
O2	O	1.036715	0.182054	0.236736
O3	O	1.187160	0.050209	0.285473
O4	O	1.172033	0.317723	0.280552
O5	O	1.147553	0.084882	0.470698
O6	O	0.997109	0.216727	0.421961
O7	O	1.282871	0.220550	0.514515
Cu8	Cu	1.136373	0.221804	0.485150
Cu9	Cu	1.183213	0.180801	0.266100
O10	O	1.132426	0.352396	0.465777
C11	C	0.980340	0.196416	0.317503
C12	C	0.871366	0.187540	0.282209
C13	C	0.477822	0.238135	0.586585
C14	C	0.580206	0.246479	0.619751
C15	C	0.653001	0.231745	0.535368
C16	C	0.623402	0.208666	0.417814
C17	C	0.521007	0.200328	0.384644
C18	C	0.696186	0.193938	0.333427
C19	C	0.666587	0.170858	0.215872
C20	C	0.564202	0.162521	0.182708
C21	C	0.491407	0.177256	0.267091
C22	C	0.798581	0.202275	0.366597
C23	C	0.841766	0.164468	0.164656
C24	C	0.739382	0.156124	0.131490
C25	C	1.166647	0.033141	0.377856
C26	C	1.164523	-0.069373	0.377169
C27	C	1.162797	-0.152627	0.376607
C28	C	1.160642	-0.257074	0.375900
C29	C	1.158931	-0.340322	0.375338
C30	C	1.156776	-0.444775	0.374633
C31	C	1.339247	0.206189	0.433745
C32	C	1.448222	0.215063	0.469032
C33	C	1.152939	0.369463	0.373392
C34	C	1.155065	0.471976	0.374072
N35	N	1.103437	0.250644	0.639221
N36	N	1.216157	0.151954	0.112032
C37	C	1.295251	0.082681	1.075309
C38	C	1.320166	0.060860	0.958719
C39	C	1.265986	0.108304	0.878839
C40	C	1.186886	0.177573	0.915560
C41	C	1.161973	0.199402	1.032163
C42	C	1.132708	0.225025	0.835693
C43	C	1.053608	0.294294	0.872414
C44	C	1.028699	0.316119	0.989006
C45	C	1.082879	0.268675	1.068886
C46	C	1.157621	0.203196	0.719090
C47	C	1.024343	0.319917	0.675944
C48	C	0.999427	0.341738	0.792534
H49	H	0.715267	0.137334	0.035775
H50	H	0.540105	0.143739	0.086987
H51	H	0.901037	0.152474	0.095944
H52	H	0.822669	0.221068	0.462311
H53	H	1.062591	0.286439	1.163824
H54	H	0.964299	0.372529	1.018906
H55	H	0.418544	0.250136	0.655276
H56	H	0.980226	0.358552	0.610905
N57	N	0.610432	0.270054	0.739822
N58	N	0.575611	0.346161	0.800833
H59	H	0.596955	0.362809	0.885642
H60	H	0.935023	0.398140	0.822447
H61	H	1.286276	0.090534	0.783907
N62	N	0.757573	0.240321	0.569261
N63	N	0.783983	0.260957	0.674219
H64	H	0.857838	0.267030	0.698162
H65	H	0.408036	0.170454	0.240093
H66	H	1.222024	0.146797	0.689203
H67	H	1.384569	0.004462	0.928825
N68	N	1.350598	0.034255	1.156923
N69	N	1.328355	0.053767	1.261025
H70	H	1.367453	0.019569	1.318671
