data_functionalizedCrystal
_audit_creation_method	'MofGen! by Chris Wilmer'
_symmetry_space_group_name_H-M	'P1'
_symmetry_Int_Tables_number	1
_symmetry_cell_setting	triclinic
loop_
_symmetry_equiv_pos_as_xyz
  x,y,z
_cell_length_a	15.944551
_cell_length_b	10.723024
_cell_length_c	9.198806
_cell_angle_alpha	90.003648
_cell_angle_beta	89.995864
_cell_angle_gamma	96.016696
loop_
_atom_site_label
_atom_site_type_symbol
_atom_site_fract_x
_atom_site_fract_y
_atom_site_fract_z
O1	O	0.117808	-1.655699	-0.120886
O2	O	0.129085	-1.292405	-0.120892
O3	O	0.001228	-1.483973	-0.120876
O4	O	0.245664	-1.464131	-0.120902
O5	O	0.001228	-1.483958	0.120909
O6	O	0.129084	-1.292389	0.120893
O7	O	0.117808	-1.655684	0.120899
Cu8	Cu	0.123446	-1.474035	0.142973
Cu9	Cu	0.123446	-1.474053	-0.142966
O10	O	0.245664	-1.464116	0.120883
C11	C	-0.030070	-1.483141	0.000017
C12	C	-0.123331	-1.480672	0.000018
C13	C	0.128264	-1.245908	0.000000
C14	C	0.125809	-1.107384	-0.000001
N15	N	0.123445	-1.474032	0.344087
C16	C	-0.338901	-1.356026	-0.000004
C17	C	-0.399587	-1.413900	0.119211
C18	C	-0.294082	-1.476205	0.000006
C19	C	-0.399570	-1.413944	-0.119170
C20	C	-0.459020	-1.471880	-0.000011
C21	C	-0.353540	-1.534111	0.119320
C22	C	-0.353516	-1.534138	-0.119168
C23	C	-0.414184	-1.592099	0.000077
C24	C	-0.199066	-1.478692	0.000018
C25	C	-0.554035	-1.469402	-0.000011
C26	C	0.276963	-1.464947	-0.000013
C27	C	0.370223	-1.467417	-0.000024
C28	C	0.118629	-1.702181	0.000003
C29	C	0.121084	-1.840704	-0.000005
C30	C	0.197350	-1.031498	-0.000010
C31	C	0.194814	-0.888327	-0.000012
N32	N	0.123441	-1.474067	-0.344080
C33	C	0.069525	-1.554469	0.416290
C34	C	0.069522	-1.554488	0.583703
H35	H	-0.419986	-1.363063	0.219997
H36	H	0.260477	-1.072523	-0.000009
O37	O	-0.329170	-1.594553	-0.239554
C38	C	-0.352389	-1.530890	-0.365004
H39	H	-0.359737	-1.429155	-0.336444
H40	H	-0.414759	-1.578089	-0.408499
C41	C	-0.274551	-1.659968	-0.516945
C42	C	-0.283569	-1.535013	-0.481868
H43	H	-0.232102	-1.662515	-0.589035
H44	H	-0.258910	-1.702863	-0.432428
H45	H	-0.326530	-1.699287	-0.553182
H46	H	-0.231593	-1.495701	-0.445615
H47	H	-0.299199	-1.492112	-0.566382
H48	H	0.169609	-1.405202	0.593837
H49	H	-0.306164	-1.256273	0.000113
O50	O	0.178402	-1.391836	0.418347
C51	C	0.133050	-1.314708	0.506383
H52	H	0.067539	-1.364166	0.529028
H53	H	0.126986	-1.222382	0.447832
C54	C	0.260657	-1.227618	0.623236
C55	C	0.180198	-1.288369	0.651060
H56	H	0.289741	-1.211365	0.712478
H57	H	0.291213	-1.279577	0.563922
H58	H	0.255592	-1.150687	0.574441
H59	H	0.185264	-1.365305	0.699838
H60	H	0.149645	-1.236421	0.710387
O61	O	-0.453031	-1.711224	0.000409
C62	C	-0.429540	-1.774102	0.126247
H63	H	-0.408045	-1.702458	0.213700
H64	H	-0.375720	-1.832205	0.098943
C65	C	-0.532020	-1.949070	0.075045
C66	C	-0.505626	-1.861077	0.182459
H67	H	-0.578950	-2.002725	0.109717
H68	H	-0.547844	-1.906712	-0.009738
H69	H	-0.487162	-1.997477	0.052301
H70	H	-0.550479	-1.812662	0.205188
H71	H	-0.489810	-1.903429	0.267247
H72	H	-0.333259	-1.584893	0.220218
H73	H	-0.419938	-1.363104	-0.219964
H74	H	0.256060	-0.823120	-0.000025
H75	H	0.023362	-1.623358	0.645795
H76	H	0.059835	-0.905903	-0.000006
O77	O	0.050443	-1.058603	-0.000189
C78	C	0.004489	-1.099350	-0.125427
H79	H	0.027815	-1.189683	-0.167177
H80	H	0.013852	-1.024048	-0.213113
C81	C	-0.118519	-1.012605	-0.036104
C82	C	-0.089874	-1.123560	-0.087375
H83	H	-0.176727	-1.027534	-0.012636
H84	H	-0.087558	-0.985149	0.048269
H85	H	-0.110709	-0.949864	-0.109184
H86	H	-0.097675	-1.186293	-0.014289
H87	H	-0.120838	-1.151028	-0.171735
H88	H	0.023361	-1.623316	0.354170
