data_functionalizedCrystal
_audit_creation_method	'MofGen! by Chris Wilmer'
_symmetry_space_group_name_H-M	'P1'
_symmetry_Int_Tables_number	1
_symmetry_cell_setting	triclinic
loop_
_symmetry_equiv_pos_as_xyz
  x,y,z
_cell_length_a	19.121102
_cell_length_b	19.121063
_cell_length_c	16.120728
_cell_angle_alpha	84.802301
_cell_angle_beta	89.424675
_cell_angle_gamma	90.126902
loop_
_atom_site_label
_atom_site_type_symbol
_atom_site_fract_x
_atom_site_fract_y
_atom_site_fract_z
Zn1	Zn	1.035690	-0.347161	0.541314
Zn2	Zn	1.036565	-0.458902	0.407596
Zn3	Zn	0.924949	-0.336190	0.395762
Zn4	Zn	0.913440	-0.459329	0.540756
O5	O	0.977661	-0.400396	0.471357
O6	O	1.133680	-0.366397	0.528762
O7	O	1.026941	-0.437853	0.289384
O8	O	0.944090	-0.239348	0.410351
O9	O	1.134322	-0.448492	0.430520
O10	O	1.025451	-0.247409	0.517287
O11	O	0.944937	-0.347698	0.280690
O12	O	0.825549	-0.348112	0.409810
O13	O	0.924475	-0.449220	0.657472
O14	O	0.817093	-0.438582	0.516336
O15	O	1.014292	-0.366811	0.657882
O16	O	1.015781	-0.557256	0.429979
O17	O	0.925322	-0.557570	0.527811
C18	C	0.795943	-0.392203	0.461729
C19	C	0.718202	-0.388716	0.457631
C20	C	0.677296	-0.434245	0.511088
C21	C	0.604250	-0.430960	0.507240
C22	C	0.572112	-0.382148	0.449932
C23	C	0.613023	-0.336615	0.396473
C24	C	0.686068	-0.339897	0.400325
C25	C	0.351784	-0.369874	0.435535
C26	C	0.278734	-0.366597	0.431685
C27	C	0.269966	-0.460941	0.542454
C28	C	0.343012	-0.464222	0.546298
C29	C	0.383917	-0.418686	0.492842
C30	C	0.497447	-0.378790	0.445996
C31	C	0.458580	-0.422041	0.496782
C32	C	0.969416	-0.582902	0.480138
C33	C	0.965951	-0.660983	0.483925
C34	C	1.011454	-0.697482	0.434815
C35	C	1.008199	-0.770848	0.438382
C36	C	0.959439	-0.807712	0.491056
C37	C	0.913934	-0.771208	0.540172
C38	C	0.917193	-0.697844	0.536609
C39	C	0.947246	-1.029234	0.504366
C40	C	0.943989	-1.102603	0.507924
C41	C	1.038256	-1.102237	0.406134
C42	C	1.041507	-1.028872	0.402572
C43	C	0.996005	-0.992374	0.451691
C44	C	0.956109	-0.882704	0.494702
C45	C	0.999338	-0.917384	0.448049
C46	C	1.160088	-0.408620	0.481023
C47	C	1.237828	-0.412125	0.485142
C48	C	0.968002	-0.409287	0.688766
C49	C	0.963886	-0.413076	0.781413
C50	C	0.985957	-0.217178	0.462561
C51	C	0.989492	-0.139102	0.458813
C52	C	0.956346	-0.419977	0.951038
C53	C	0.998952	-0.380881	0.992529
C54	C	0.994756	-0.384720	1.086914
C55	C	0.960540	-0.416138	0.856644
C56	C	0.987282	-0.391558	1.254794
C57	C	0.991414	-0.387780	1.162149
H58	H	0.719373	-0.302820	0.356799
H59	H	1.039041	-0.887367	0.405165
C60	C	1.065092	-0.656933	0.376872
C61	C	1.063213	-0.662933	0.282303
C62	C	1.116854	-0.622387	0.224361
C63	C	1.172375	-0.575841	0.260988
C64	C	1.174256	-0.569839	0.355562
C65	C	1.120615	-0.610386	0.413504
H66	H	1.022111	-0.697390	0.255185
H67	H	1.115461	-0.626830	0.154351
H68	H	1.212083	-0.545826	0.218096
H69	H	1.215358	-0.535382	0.382680
H70	H	1.122008	-0.605943	0.483514
H71	H	0.874235	-0.801230	0.583064
C72	C	0.867138	-0.657691	0.590628
C73	C	0.787486	-0.663982	0.580029
C74	C	0.737432	-0.623830	0.634052
C75	C	0.767029	-0.577386	0.698674
C76	C	0.846684	-0.571093	0.709276
C77	C	0.896739	-0.611245	0.655252
H78	H	0.765573	-0.698364	0.532190
H79	H	0.678466	-0.628489	0.626204
H80	H	0.729976	-0.547663	0.738665
H81	H	0.868598	-0.536710	0.757115
H82	H	0.955705	-0.606586	0.663100
C83	C	0.577671	-0.282921	0.333435
C84	C	0.528335	-0.227049	0.364364
C85	C	0.492982	-0.173356	0.301324
C86	C	0.506966	-0.175535	0.207354
C87	C	0.556304	-0.231410	0.176420
C88	C	0.591656	-0.285103	0.239460
H89	H	0.517982	-0.225434	0.433931
H90	H	0.456459	-0.131995	0.324224
H91	H	0.480796	-0.135789	0.160688
H92	H	0.566657	-0.233025	0.106853
H93	H	0.628179	-0.326464	0.216560
H94	H	0.703457	-0.473995	0.557752
C95	C	1.058257	-0.810993	0.384360
C96	C	1.057270	-0.796817	0.288811
C97	C	1.107334	-0.836960	0.234788
C98	C	1.158384	-0.891278	0.276316
C99	C	1.159373	-0.905456	0.371870
C100	C	1.109309	-0.865314	0.425892
H101	H	1.019478	-0.756605	0.258065
H102	H	1.106602	-0.826464	0.164052
H103	H	1.195444	-0.920994	0.236325
H104	H	1.197165	-0.945669	0.402616
H105	H	1.110041	-0.875810	0.496628
H106	H	0.916722	-0.456330	0.986400
H107	H	0.484750	-0.461780	0.543446
H108	H	0.910195	-0.999523	0.544359
H109	H	1.038578	-0.344525	0.957165
C110	C	0.559256	-0.481046	0.566043
C111	C	0.566004	-0.561057	0.563449
C112	C	0.521011	-0.611146	0.622257
C113	C	0.469271	-0.581222	0.683659
C114	C	0.462522	-0.501206	0.686256
C115	C	0.507514	-0.451118	0.627448
H116	H	0.604307	-0.583213	0.517994
H117	H	0.526008	-0.670379	0.620335
H118	H	0.435965	-0.618300	0.727192
H119	H	0.424219	-0.479051	0.731711
H120	H	0.502517	-0.391884	0.629370
H121	H	0.369174	-0.503971	0.592963
H122	H	0.236653	-0.498013	0.585976
C123	C	0.243380	-0.312886	0.368659
C124	C	0.288372	-0.262788	0.309871
C125	C	0.253017	-0.209077	0.246854
C126	C	0.172671	-0.205464	0.242626
C127	C	0.127675	-0.255564	0.301416
C128	C	0.163029	-0.309275	0.364433
H129	H	0.347853	-0.265461	0.312999
H130	H	0.286327	-0.171989	0.203334
H131	H	0.146499	-0.165704	0.195977
H132	H	0.068193	-0.252891	0.298288
H133	H	0.129719	-0.346363	0.407954
C134	C	0.902470	-0.923260	0.552636
C135	C	0.823714	-0.909391	0.541056
C136	C	0.770077	-0.949951	0.598991
C137	C	0.795196	-1.004380	0.668506
C138	C	0.873957	-1.018251	0.680090
C139	C	0.927594	-0.977692	0.622155
H140	H	0.805115	-0.869097	0.489593
H141	H	0.711773	-0.939681	0.590415
H142	H	0.755491	-1.034405	0.711393
H143	H	0.892555	-1.058546	0.731552
H144	H	0.985897	-0.987961	0.630730
C145	C	0.462098	-0.325095	0.382957
C146	C	0.476076	-0.327271	0.288986
C147	C	0.440727	-0.273571	0.225951
C148	C	0.391399	-0.217695	0.256888
C149	C	0.377419	-0.215517	0.350864
C150	C	0.412768	-0.269217	0.413899
H151	H	0.512593	-0.368636	0.266081
H152	H	0.451076	-0.275184	0.156384
H153	H	0.365232	-0.177943	0.210225
H154	H	0.340902	-0.174152	0.373769
H155	H	0.402419	-0.267604	0.483466
C156	C	0.890354	-1.143160	0.565871
C157	C	0.811597	-1.129287	0.554306
C158	C	0.757965	-1.169846	0.612248
C159	C	0.783090	-1.224280	0.681755
C160	C	0.861851	-1.238156	0.693324
C161	C	0.915483	-1.197597	0.635382
H162	H	0.792995	-1.088989	0.502849
H163	H	0.699661	-1.159574	0.603683
H164	H	0.743388	-1.254305	0.724647
H165	H	0.880453	-1.278454	0.744780
H166	H	0.973787	-1.207869	0.643946
H167	H	0.385080	-0.332801	0.392001
H168	H	1.081211	-0.998858	0.359680
H169	H	1.075301	-1.131962	0.366146
