data_functionalizedCrystal
_audit_creation_method	'MofGen! by Chris Wilmer'
_symmetry_space_group_name_H-M	'P1'
_symmetry_Int_Tables_number	1
_symmetry_cell_setting	triclinic
loop_
_symmetry_equiv_pos_as_xyz
  x,y,z
_cell_length_a	19.288840
_cell_length_b	16.109304
_cell_length_c	18.366186
_cell_angle_alpha	89.996570
_cell_angle_beta	89.983729
_cell_angle_gamma	83.294327
loop_
_atom_site_label
_atom_site_type_symbol
_atom_site_fract_x
_atom_site_fract_y
_atom_site_fract_z
O1	O	0.921612	0.103617	-0.060667
O2	O	1.421612	0.603617	0.439333
O3	O	0.719383	0.117629	-0.060641
O4	O	1.219383	0.617629	0.439359
O5	O	0.826052	-0.010427	-0.060655
O6	O	1.326052	0.489573	0.439345
O7	O	0.814943	0.231673	-0.060653
O8	O	1.314943	0.731673	0.439347
O9	O	0.826034	-0.010434	0.060444
O10	O	1.326034	0.489566	0.560444
O11	O	0.719364	0.117623	0.060458
O12	O	1.219364	0.617623	0.560458
O13	O	0.921594	0.103610	0.060433
O14	O	1.421594	0.603610	0.560433
Zn15	Zn	0.820476	0.110616	0.079673
Zn16	Zn	1.320476	0.610616	0.579673
Zn17	Zn	0.820500	0.110624	-0.079881
Zn18	Zn	1.320500	0.610624	0.420119
O19	O	0.814925	0.231667	0.060447
O20	O	1.314925	0.731667	0.560447
C21	C	0.693496	0.117179	-0.000088
C22	C	1.193496	0.617179	0.499912
C23	C	0.616388	0.115836	-0.000078
C24	C	1.116388	0.615836	0.499922
C25	C	0.580193	0.115194	-0.066092
C26	C	1.080193	0.615194	0.433908
C27	C	0.507743	0.113923	-0.066100
C28	C	1.007743	0.613923	0.433900
C29	C	0.471493	0.113277	-0.000093
C30	C	0.971493	0.613277	0.499907
C31	C	0.507696	0.113923	0.065929
C32	C	1.007696	0.613923	0.565929
C33	C	0.580144	0.115203	0.065936
C34	C	1.080144	0.615203	0.565936
C35	C	0.362036	0.062549	0.050468
C36	C	0.862036	0.562549	0.550468
C37	C	0.289590	0.061264	0.050458
C38	C	0.789590	0.561264	0.550458
C39	C	0.248040	0.109334	-0.000112
C40	C	0.748040	0.609334	0.499888
C41	C	0.278945	0.158677	-0.050684
C42	C	0.778945	0.658677	0.449316
C43	C	0.351393	0.159957	-0.050677
C44	C	0.851393	0.659957	0.449323
C45	C	0.392935	0.111890	-0.000093
C46	C	0.892935	0.611890	0.499907
C47	C	0.133286	0.107315	-0.066139
C48	C	0.633286	0.607315	0.433861
C49	C	0.060834	0.106049	-0.066145
C50	C	0.560834	0.606049	0.433855
C51	C	0.060789	0.106041	0.065887
C52	C	0.560789	0.606041	0.565887
C53	C	0.133239	0.107315	0.065891
C54	C	0.633239	0.607315	0.565891
C55	C	0.169483	0.107948	-0.000124
C56	C	0.669483	0.607948	0.499876
C57	C	0.825592	-0.041404	-0.000107
C58	C	1.325592	0.458596	0.499893
C59	C	0.824242	-0.133694	-0.000112
C60	C	1.324242	0.366306	0.499888
C61	C	0.821133	-0.346017	-0.066120
C62	C	1.321133	0.153983	0.433880
C63	C	0.819858	-0.432733	-0.066119
C64	C	1.319858	0.067267	0.433881
C65	C	0.819842	-0.432737	0.065910
C66	C	1.319842	0.067263	0.565910
C67	C	0.821112	-0.346022	0.065909
C68	C	1.321112	0.153978	0.565909
C69	C	0.821761	-0.302665	-0.000109
C70	C	1.321761	0.197335	0.499891
C71	C	0.819216	-0.476095	-0.000106
C72	C	1.319216	0.023905	0.499894
C73	C	0.817833	-0.570116	-0.000105
C74	C	1.317833	-0.070116	0.499895
C75	C	0.823142	-0.208638	-0.000110
C76	C	1.323142	0.291362	0.499890
C77	C	0.947481	0.104061	-0.000122
C78	C	1.447481	0.604061	0.499878
C79	C	1.024589	0.105404	-0.000136
C80	C	1.524589	0.605404	0.499864
C81	C	0.815384	0.262643	-0.000103
C82	C	1.315384	0.762643	0.499897
C83	C	0.816734	0.354934	-0.000103
C84	C	1.316734	0.854934	0.499897
N85	N	0.820465	0.110610	0.188564
N86	N	1.320465	0.610610	0.688564
N87	N	0.820517	0.110623	-0.188772
N88	N	1.320517	0.610623	0.311228
C89	C	0.867714	0.053934	0.226658
C90	C	1.367714	0.553934	0.726658
C91	C	0.867718	0.053930	0.302886
C92	C	1.367718	0.553930	0.802886
C93	C	0.820481	0.110616	0.341016
C94	C	1.320481	0.610616	0.841016
C95	C	0.773223	0.167297	0.302913
C96	C	1.273223	0.667297	0.802913
C97	C	0.773215	0.167293	0.226687
C98	C	1.273215	0.667293	0.726687
C99	C	0.811364	0.186371	0.461778
C100	C	1.311364	0.686371	0.961778
C101	C	0.811376	0.186375	0.538003
C102	C	1.311376	0.686375	1.038003
C103	C	0.820500	0.110627	0.576124
C104	C	1.320500	0.610627	1.076124
C105	C	0.829626	0.034870	0.538010
C106	C	1.329626	0.534870	1.038010
C107	C	0.829619	0.034867	0.461784
C108	C	1.329619	0.534867	0.961784
C109	C	0.820483	0.110626	0.423671
C110	C	1.320483	0.610626	0.923671
C111	C	0.867756	0.053942	0.696873
C112	C	1.367756	0.553942	1.196873
C113	C	0.867756	0.053937	0.773102
C114	C	1.367756	0.553937	1.273102
C115	C	0.773264	0.167311	0.773128
C116	C	1.273264	0.667311	1.273128
C117	C	0.773261	0.167309	0.696900
C118	C	1.273261	0.667309	1.196900
C119	C	0.820511	0.110625	0.658777
C120	C	1.320511	0.610625	1.158777
H121	H	0.478267	0.113401	-0.119858
H122	H	0.978267	0.613401	0.380142
H123	H	0.803950	0.248061	0.569029
H124	H	1.303950	0.748061	1.069029
H125	H	0.376552	0.200136	-0.091853
H126	H	0.876552	0.700136	0.408147
N127	N	0.406845	0.010701	0.105018
N128	N	0.906845	0.510701	0.605018
H129	H	0.400904	-0.050287	0.098268
H130	H	0.900904	0.449713	0.598268
H131	H	0.457409	0.019069	0.097323
H132	H	0.957409	0.519069	0.597323
H133	H	0.245115	0.197823	-0.091861
H134	H	0.745115	0.697823	0.408139
N135	N	0.821793	-0.299263	0.137113
N136	N	1.321793	0.200737	0.637113
H137	H	0.865351	-0.270190	0.140045
H138	H	1.365351	0.229810	0.640045
H139	H	0.779258	-0.256423	0.140020
H140	H	1.279258	0.243577	0.640020
N141	N	0.819218	-0.479482	-0.137325
N142	N	1.319218	0.020518	0.362675
H143	H	0.776424	-0.457488	-0.166201
H144	H	1.276424	0.042512	0.333799
H145	H	0.862517	-0.471258	-0.166101
H146	H	1.362517	0.028742	0.333899
N147	N	0.468601	0.113217	0.137123
N148	N	0.968601	0.613217	0.637123
H149	H	0.502528	0.113817	0.178945
H150	H	1.002528	0.613817	0.678945
H151	H	0.432889	0.164213	0.139997
H152	H	0.932889	0.664213	0.639997
N153	N	0.619188	0.115898	0.137139
N154	N	1.119188	0.615898	0.637139
H155	H	0.585232	0.115300	0.178956
H156	H	1.085232	0.615300	0.678956
H157	H	0.654895	0.064899	0.140019
H158	H	1.154895	0.564899	0.640019
H159	H	0.906186	0.007777	0.195620
H160	H	1.406186	0.507777	0.695620
H161	H	0.837056	-0.026812	0.569047
H162	H	1.337056	0.473188	1.069047
H163	H	0.734760	0.213450	0.333963
H164	H	1.234760	0.713450	0.833963
H165	H	0.906229	0.007781	0.804119
H166	H	1.406229	0.507781	1.304119
H167	H	0.819315	-0.468049	0.119659
H168	H	1.319315	0.031951	0.619659
H169	H	0.734790	0.213463	0.665882
H170	H	1.234790	0.713463	1.165882
H171	H	0.264433	0.021082	0.091634
H172	H	0.764433	0.521082	0.591634
N173	N	0.021702	0.105337	0.137083
N174	N	0.521702	0.605337	0.637083
H175	H	-0.014010	0.156331	0.140027
H176	H	0.485990	0.656331	0.640027
H177	H	-0.002661	0.053242	0.139972
H178	H	0.497339	0.553242	0.639972
H179	H	0.906195	0.007776	0.333908
H180	H	1.406195	0.507776	0.833908
N181	N	0.722250	0.228421	0.185594
N182	N	1.222250	0.728421	0.685594
H183	H	0.692322	0.264331	0.221313
H184	H	1.192322	0.764331	0.721313
H185	H	0.748826	0.265095	0.153953
H186	H	1.248826	0.765095	0.653953
H187	H	0.821659	-0.310718	-0.119875
H188	H	1.321659	0.189282	0.380125
N189	N	0.839459	-0.046834	0.420675
N190	N	1.339459	0.453166	0.920675
H191	H	0.845241	-0.094823	0.456385
H192	H	1.345241	0.405177	0.956385
H193	H	0.797262	-0.051554	0.389066
H194	H	1.297262	0.448446	0.889066
H195	H	0.734800	0.213463	0.804174
H196	H	1.234800	0.713463	1.304174
H197	H	0.162796	0.107839	-0.119892
H198	H	0.662796	0.607839	0.380108
N199	N	0.918713	-0.007193	0.655748
N200	N	1.418713	0.492807	1.155748
H201	H	0.948643	-0.043103	0.691451
H202	H	1.448643	0.456897	1.191451
H203	H	0.892130	-0.043864	0.624132
H204	H	1.392130	0.456136	1.124132
N205	N	0.172284	0.108007	0.137091
N206	N	0.672284	0.608007	0.637091
H207	H	0.138328	0.107405	0.178907
H208	H	0.638328	0.607405	0.678907
H209	H	0.207993	0.057009	0.139971
H210	H	0.707993	0.557009	0.639971
N211	N	0.801523	0.268076	0.420665
N212	N	1.301523	0.768076	0.920665
H213	H	0.795751	0.316066	0.456374
H214	H	1.295751	0.816066	0.956374
H215	H	0.843716	0.272792	0.389023
H216	H	1.343716	0.772792	0.889023
H217	H	0.031364	0.105531	-0.119903
H218	H	0.531364	0.605531	0.380097
N219	N	0.619285	0.115873	-0.137290
N220	N	1.119285	0.615873	0.362710
H221	H	0.585357	0.115272	-0.179111
H222	H	1.085357	0.615272	0.320889
H223	H	0.643696	0.167932	-0.140168
H224	H	1.143696	0.667932	0.359832
