data_functionalizedCrystal
_audit_creation_method	'MofGen! by Chris Wilmer'
_symmetry_space_group_name_H-M	'P1'
_symmetry_Int_Tables_number	1
_symmetry_cell_setting	triclinic
loop_
_symmetry_equiv_pos_as_xyz
  x,y,z
_cell_length_a	10.686220
_cell_length_b	10.686285
_cell_length_c	12.759393
_cell_angle_alpha	94.398003
_cell_angle_beta	85.650521
_cell_angle_gamma	90.345594
loop_
_atom_site_label
_atom_site_type_symbol
_atom_site_fract_x
_atom_site_fract_y
_atom_site_fract_z
Zn1	Zn	1.956170	-0.352021	0.446834
Zn2	Zn	1.972166	-0.561836	0.256760
Zn3	Zn	1.746399	-0.368199	0.283515
Zn4	Zn	1.762496	-0.577844	0.444748
O5	O	1.859308	-0.464975	0.357964
O6	O	2.133830	-0.366384	0.411296
O7	O	1.942176	-0.536222	0.113286
O8	O	1.760795	-0.190508	0.317251
O9	O	2.145582	-0.520534	0.271650
O10	O	1.914913	-0.178622	0.437240
O11	O	1.776306	-0.393957	0.132943
O12	O	1.572997	-0.409479	0.315227
O13	O	1.788229	-0.547816	0.592047
O14	O	1.584823	-0.563504	0.433684
O15	O	1.930521	-0.381906	0.593580
O16	O	1.957784	-0.739505	0.269626
O17	O	1.803740	-0.751265	0.407740
C18	C	1.533395	-0.489985	0.377133
C19	C	1.393970	-0.500714	0.385356
C20	C	1.884278	-0.790899	0.335574
C21	C	1.895076	-0.930322	0.326024
C22	C	2.186494	-0.439869	0.338721
C23	C	2.325921	-0.429170	0.330521
C24	C	1.859386	-0.464842	0.632001
C25	C	1.859419	-0.464785	0.748779
C26	C	1.834274	-0.137776	0.380463
C27	C	1.823606	0.001657	0.390050
C28	C	1.859295	-0.465012	0.084995
C29	C	1.859478	-0.464697	-0.031772
C30	C	1.933521	-0.378387	0.804441
C31	C	1.933548	-0.378339	0.914167
C32	C	1.785367	-0.551099	0.912558
C33	C	1.785335	-0.551140	0.802836
C34	C	2.019076	-0.278649	0.805370
C35	C	2.019102	-0.278601	0.915096
H36	H	1.345566	-0.570176	0.438593
Br37	Br	1.707850	-0.917632	0.493595
H38	H	1.374332	-0.359712	0.277274
Br39	Br	2.010816	-1.011039	0.222458
Br40	Br	1.684737	-0.668376	0.727300
H41	H	1.977249	-0.188965	0.957526
H42	H	1.725048	-0.621404	0.956585
Br43	Br	1.963318	-0.120063	0.769428
Br44	Br	2.177304	-0.324881	0.735596
Br45	Br	2.184360	-0.309507	0.952233
