data_functionalizedCrystal
_audit_creation_method	'MofGen! by Chris Wilmer'
_symmetry_space_group_name_H-M	'P1'
_symmetry_Int_Tables_number	1
_symmetry_cell_setting	triclinic
loop_
_symmetry_equiv_pos_as_xyz
  x,y,z
_cell_length_a	16.109302
_cell_length_b	12.837942
_cell_length_c	14.586319
_cell_angle_alpha	89.996741
_cell_angle_beta	89.994552
_cell_angle_gamma	89.145360
loop_
_atom_site_label
_atom_site_type_symbol
_atom_site_fract_x
_atom_site_fract_y
_atom_site_fract_z
O1	O	1.113716	0.133244	-0.076281
O2	O	1.613716	0.633244	0.423719
O3	O	0.872971	0.149825	-0.076274
O4	O	1.372971	0.649825	0.423726
O5	O	0.988005	-0.009367	-0.076272
O6	O	1.488005	0.490633	0.423728
O7	O	0.998681	0.292435	-0.076284
O8	O	1.498681	0.792435	0.423716
O9	O	0.987996	-0.009369	0.076209
O10	O	1.487996	0.490631	0.576209
O11	O	0.872962	0.149822	0.076207
O12	O	1.372962	0.649822	0.576207
O13	O	1.113707	0.133242	0.076199
O14	O	1.613707	0.633242	0.576199
Cu15	Cu	0.993333	0.141532	0.090126
Cu16	Cu	1.493333	0.641532	0.590126
Cu17	Cu	0.993344	0.141535	-0.090201
Cu18	Cu	1.493344	0.641535	0.409799
O19	O	0.998672	0.292433	0.076197
O20	O	1.498672	0.792433	0.576197
C21	C	0.841938	0.149152	-0.000033
C22	C	1.341938	0.649152	0.499967
C23	C	0.749483	0.147138	-0.000030
C24	C	1.249483	0.647138	0.499970
C25	C	0.536767	0.142479	0.083078
C26	C	1.036767	0.642479	0.583078
C27	C	0.449896	0.140576	0.083075
C28	C	0.949896	0.640576	0.583075
C29	C	0.449917	0.140584	-0.083168
C30	C	0.949917	0.640584	0.416832
C31	C	0.536786	0.142480	-0.083164
C32	C	1.036786	0.642480	0.416836
C33	C	0.580209	0.143433	-0.000038
C34	C	1.080209	0.643433	0.499962
C35	C	0.406468	0.139633	-0.000045
C36	C	0.906468	0.639633	0.499955
C37	C	0.312278	0.137569	-0.000049
C38	C	0.812278	0.637569	0.499951
C39	C	0.674405	0.145495	-0.000034
C40	C	1.174405	0.645495	0.499966
C41	C	0.984394	-0.047987	-0.000032
C42	C	1.484394	0.452013	0.499968
C43	C	0.973637	-0.163061	-0.000033
C44	C	1.473637	0.336939	0.499967
C45	C	1.102954	-0.404062	-0.000056
C46	C	1.602954	0.095938	0.499944
C47	C	1.092851	-0.512185	-0.000057
C48	C	1.592851	-0.012185	0.499943
C49	C	0.943328	-0.487430	-0.000044
C50	C	1.443328	0.012570	0.499956
C51	C	0.953431	-0.379308	-0.000042
C52	C	1.453431	0.120692	0.499958
C53	C	1.033247	-0.337628	-0.000047
C54	C	1.533247	0.162372	0.499953
C55	C	1.043349	-0.229504	-0.000039
C56	C	1.543349	0.270496	0.499961
C57	C	0.893827	-0.204751	-0.000032
C58	C	1.393827	0.295249	0.499968
C59	C	0.883724	-0.312873	-0.000033
C60	C	1.383724	0.187127	0.499967
C61	C	1.144739	0.133914	-0.000044
C62	C	1.644739	0.633914	0.499956
C63	C	1.237195	0.135929	-0.000053
C64	C	1.737195	0.635929	0.499947
C65	C	1.002284	0.331054	-0.000045
C66	C	1.502284	0.831054	0.499955
C67	C	1.013040	0.446127	-0.000050
C68	C	1.513040	0.946127	0.499950
N69	N	0.993332	0.141529	0.216957
N70	N	1.493332	0.641529	0.716957
N71	N	0.993352	0.141529	-0.217032
N72	N	1.493352	0.641529	0.282968
C73	C	1.044290	0.071063	0.451965
C74	C	1.544290	0.571063	0.951965
C75	C	1.044292	0.071060	0.547946
C76	C	1.544292	0.571060	1.047946
C77	C	0.942388	0.211999	0.547954
C78	C	1.442388	0.711999	1.047954
C79	C	0.942382	0.211995	0.451974
C80	C	1.442382	0.711995	0.951974
C81	C	0.993338	0.141529	0.403982
C82	C	1.493338	0.641529	0.903982
C83	C	0.993346	0.141529	0.595943
C84	C	1.493346	0.641529	1.095943
C85	C	0.993348	0.141527	0.700010
C86	C	1.493348	0.641527	1.200010
C87	C	0.993335	0.141529	0.299908
C88	C	1.493335	0.641529	0.799908
H89	H	1.108339	-0.195570	-0.000040
H90	H	1.608339	0.304430	0.499960
O91	O	0.806154	-0.353242	0.000094
O92	O	1.306154	0.146758	0.500094
C93	C	0.763150	-0.319322	0.079083
C94	C	1.263150	0.180678	0.579083
H95	H	0.791745	-0.244342	0.105413
H96	H	1.291745	0.255658	0.605413
H97	H	0.695104	-0.304294	0.061331
H98	H	1.195104	0.195706	0.561331
H99	H	0.767827	-0.381898	0.134377
H100	H	1.267827	0.118102	0.634377
O101	O	0.826044	-0.140322	-0.000146
O102	O	1.326044	0.359678	0.499854
C103	C	0.778104	-0.159184	-0.079124
C104	C	1.278104	0.340816	0.420876
H105	H	0.792029	-0.241202	-0.105461
H106	H	1.292029	0.258798	0.394539
H107	H	0.709367	-0.151568	-0.061353
H108	H	1.209367	0.348432	0.438647
H109	H	0.794151	-0.100037	-0.134419
H110	H	1.294151	0.399963	0.365581
O111	O	1.093684	0.002445	0.405406
O112	O	1.593684	0.502445	0.905406
C113	C	1.072032	-0.100157	0.428919
C114	C	1.572032	0.399843	0.928919
H115	H	1.005425	-0.100654	0.455302
H116	H	1.505425	0.399346	0.955302
H117	H	1.077472	-0.152209	0.365822
H118	H	1.577472	0.347791	0.865822
H119	H	1.115689	-0.130574	0.484646
H120	H	1.615689	0.369426	0.984646
O121	O	0.579044	0.143257	0.163764
O122	O	1.079044	0.643257	0.663764
C123	C	0.631587	0.054618	0.168748
C124	C	1.131587	0.554618	0.668748
H125	H	0.645381	0.024998	0.096580
H126	H	1.145381	0.524998	0.596580
H127	H	0.692150	0.076125	0.203932
H128	H	1.192150	0.576125	0.703932
H129	H	0.599719	-0.008945	0.209762
H130	H	1.099719	0.491055	0.709762
O131	O	1.160501	-0.576825	0.000058
O132	O	1.660501	-0.076825	0.500058
C133	C	1.159142	-0.640098	0.079039
C134	C	1.659142	-0.140098	0.579039
H135	H	1.092720	-0.645553	0.105375
H136	H	1.592720	-0.145553	0.605375
H137	H	1.183679	-0.721366	0.061273
H138	H	1.683679	-0.221366	0.561273
H139	H	1.199930	-0.604541	0.134334
H140	H	1.699930	-0.104541	0.634334
O141	O	0.407666	0.139464	0.163792
O142	O	0.907666	0.639464	0.663792
C143	C	0.359716	0.048652	0.168757
C144	C	0.859716	0.548652	0.668757
H145	H	0.387516	-0.013481	0.121587
H146	H	0.887516	0.486519	0.621587
H147	H	0.359503	0.018508	0.242272
H148	H	0.859503	0.518508	0.742272
H149	H	0.293357	0.067495	0.146428
H150	H	0.793357	0.567495	0.646428
O151	O	0.407604	0.139710	-0.163830
O152	O	0.907604	0.639710	0.336170
C153	C	0.321615	0.137809	-0.146013
C154	C	0.821615	0.637809	0.353987
H155	H	0.308897	0.170343	-0.074579
H156	H	0.808897	0.670343	0.425421
H157	H	0.287313	0.187390	-0.199099
H158	H	0.787313	0.687390	0.300901
H159	H	0.299101	0.054160	-0.149955
H160	H	0.799101	0.554160	0.350045
H161	H	0.572158	0.143253	-0.150851
H162	H	1.072158	0.643253	0.349149
H163	H	0.900902	0.269372	0.587038
H164	H	1.400902	0.769372	1.087038
H165	H	1.167943	-0.370127	-0.000051
H166	H	1.667943	0.129873	0.499949
H167	H	0.878346	-0.521385	-0.000049
H168	H	1.378346	-0.021385	0.499951
O169	O	0.892862	0.280551	0.405500
O170	O	1.392862	0.780551	0.905500
C171	C	0.847878	0.342736	0.468437
C172	C	1.347878	0.842736	0.968437
H173	H	0.882060	0.343927	0.536850
H174	H	1.382060	0.843927	1.036850
H175	H	0.841750	0.425513	0.440696
H176	H	1.341750	0.925513	0.940696
H177	H	0.783452	0.309055	0.478659
H178	H	1.283452	0.809055	0.978659
O179	O	1.093666	0.002509	0.594597
O180	O	1.593666	0.502509	1.094597
C181	C	1.044083	-0.061445	0.650143
C182	C	1.544083	0.438555	1.150143
H183	H	0.978377	-0.063221	0.621230
H184	H	1.478377	0.436779	1.121230
H185	H	1.071479	-0.143825	0.651230
H186	H	1.571479	0.356175	1.151230
H187	H	1.042298	-0.029006	0.722883
H188	H	1.542298	0.470994	1.222883
