data_functionalizedCrystal
_audit_creation_method	'MofGen! by Chris Wilmer'
_symmetry_space_group_name_H-M	'P1'
_symmetry_Int_Tables_number	1
_symmetry_cell_setting	triclinic
loop_
_symmetry_equiv_pos_as_xyz
  x,y,z
_cell_length_a	15.944493
_cell_length_b	23.532407
_cell_length_c	15.021413
_cell_angle_alpha	89.995515
_cell_angle_beta	89.993251
_cell_angle_gamma	83.161895
loop_
_atom_site_label
_atom_site_type_symbol
_atom_site_fract_x
_atom_site_fract_y
_atom_site_fract_z
O1	O	1.113942	0.073285	-0.074037
O2	O	0.869309	0.082375	-0.074044
O3	O	0.999002	-0.005074	-0.074015
O4	O	0.984248	0.160734	-0.074066
O5	O	0.998981	-0.005062	0.074049
O6	O	0.869288	0.082388	0.074021
O7	O	1.113921	0.073298	0.074027
Zn8	Zn	0.991601	0.077845	0.097532
Zn9	Zn	0.991629	0.077828	-0.097549
O10	O	0.984228	0.160747	0.073999
C11	C	0.838007	0.082010	-0.000012
C12	C	0.744768	0.080896	-0.000013
C13	C	0.508574	0.132371	-0.000030
C14	C	0.458239	0.104619	0.072986
C15	C	0.574064	0.078832	-0.000011
C16	C	0.458264	0.104594	-0.072994
C17	C	0.409171	0.076843	-0.000013
C18	C	0.524957	0.051095	0.073065
C19	C	0.524986	0.051077	-0.072980
C20	C	0.474684	0.023286	0.000053
C21	C	0.669054	0.079980	-0.000009
C22	C	0.314184	0.075691	-0.000008
C23	C	0.998616	-0.026285	0.000021
C24	C	0.997486	-0.089506	0.000035
C25	C	0.916078	-0.355978	-0.000023
C26	C	0.917128	-0.296574	-0.000016
O27	O	0.852548	-0.260070	-0.000046
N28	N	0.994230	-0.273660	-0.000004
C29	C	1.070289	-0.310153	-0.000007
O30	O	1.135967	-0.285208	0.000003
C31	C	1.069238	-0.369556	-0.000021
C32	C	0.992131	-0.392467	-0.000024
C33	C	0.838977	-0.378889	-0.000027
C34	C	0.837928	-0.438289	-0.000032
C35	C	0.913980	-0.474778	-0.000033
C36	C	0.991082	-0.451867	-0.000029
C37	C	1.145296	-0.406049	-0.000031
C38	C	1.144239	-0.465455	-0.000045
C39	C	1.067131	-0.488366	-0.000048
C40	C	1.066085	-0.547756	-0.000035
N41	N	0.988983	-0.570670	-0.000048
C42	C	0.912930	-0.534181	-0.000047
C43	C	1.072488	-0.185403	0.000019
C44	C	1.073539	-0.126001	0.000038
C45	C	0.920378	-0.112425	0.000028
C46	C	0.919328	-0.171828	0.000015
C47	C	0.995386	-0.208317	0.000007
C48	C	0.910733	-0.658926	-0.000057
C49	C	0.909691	-0.718332	-0.000058
C50	C	1.062852	-0.731902	-0.000053
C51	C	1.063895	-0.672502	-0.000046
C52	C	0.987828	-0.636014	-0.000052
O53	O	1.130632	-0.584294	-0.000009
O54	O	0.847263	-0.559134	-0.000069
C55	C	1.145223	0.073663	-0.000007
C56	C	1.238462	0.074777	-0.000011
C57	C	0.984614	0.181958	-0.000040
C58	C	0.985743	0.245179	-0.000059
N59	N	0.991589	0.077855	0.230670
N60	N	0.991648	0.077813	-0.230686
C61	C	0.931610	0.118273	0.470340
C62	C	1.007419	0.129319	0.529672
C63	C	0.991611	0.077841	0.412277
C64	C	0.915822	0.066808	0.529686
C65	C	0.991625	0.077829	0.587701
C66	C	1.067458	0.088912	0.470303
C67	C	0.975811	0.026380	0.470311
C68	C	1.051675	0.037404	0.529617
C69	C	0.991601	0.077850	0.311219
C70	C	0.991643	0.077820	0.688756
H71	H	0.846898	-0.736982	-0.000057
H72	H	1.134428	-0.215109	0.000018
H73	H	1.124772	-0.761622	-0.000049
H74	H	0.851723	0.057482	0.555773
N75	N	0.455777	-0.034613	0.000128
N76	N	0.480457	-0.067290	0.062874
H77	H	0.467104	-0.108181	0.062930
H78	H	0.848793	-0.629224	-0.000061
H79	H	0.553967	0.028503	0.134855
H80	H	0.880920	0.152492	0.444313
H81	H	0.775139	-0.456937	-0.000043
N82	N	0.761284	-0.341622	-0.000041
N83	N	0.709900	-0.343707	-0.062456
H84	H	0.655024	-0.317390	-0.062462
N85	N	0.561613	0.022747	-0.150390
N86	N	0.615159	-0.020266	-0.142300
H87	H	0.641042	-0.040264	-0.196976
N88	N	1.024207	0.183898	0.562409
N89	N	1.087612	0.187678	0.609993
H90	H	1.099464	0.226226	0.633113
N91	N	0.527693	0.190222	0.000051
N92	N	0.503156	0.222912	0.062828
H93	H	0.516661	0.263769	0.062891
H94	H	0.962411	-0.017120	0.444216
N95	N	1.147886	0.100673	0.437711
N96	N	1.160851	0.102594	0.355758
H97	H	1.217651	0.110901	0.332737
N98	N	0.840558	-0.195218	0.000017
N99	N	0.772664	-0.162626	0.000026
H100	H	0.717028	-0.179142	0.000028
N101	N	0.842697	-0.075138	0.000030
N102	N	0.843655	-0.022102	0.000038
H103	H	0.788797	0.004234	0.000040
H104	H	0.429144	0.127209	-0.134714
N105	N	1.221941	-0.502718	-0.000040
N106	N	1.273324	-0.500630	0.062376
H107	H	1.328201	-0.526945	0.062382
N108	N	1.152310	-0.102611	0.000062
N109	N	1.220204	-0.135204	0.000067
H110	H	1.275840	-0.118688	0.000080
N111	N	1.224068	-0.382666	-0.000027
N112	N	1.291958	-0.415263	-0.000036
H113	H	1.347597	-0.398750	-0.000035
H114	H	1.126682	-0.653847	-0.000031
N115	N	1.115404	-0.005489	0.562089
N116	N	1.125383	-0.012703	0.644022
H117	H	1.170395	-0.042993	0.666960
H118	H	0.429103	0.127234	0.134700
