data_functionalizedCrystal
_audit_creation_method	'MofGen! by Chris Wilmer'
_symmetry_space_group_name_H-M	'P1'
_symmetry_Int_Tables_number	1
_symmetry_cell_setting	triclinic
loop_
_symmetry_equiv_pos_as_xyz
  x,y,z
_cell_length_a	16.120484
_cell_length_b	16.625548
_cell_length_c	16.625539
_cell_angle_alpha	89.979432
_cell_angle_beta	92.868615
_cell_angle_gamma	92.926626
loop_
_atom_site_label
_atom_site_type_symbol
_atom_site_fract_x
_atom_site_fract_y
_atom_site_fract_z
Zn1	Zn	-0.331882	1.216388	-0.472167
Zn2	Zn	0.001451	1.549721	-0.138834
Zn3	Zn	0.334784	1.883055	0.194500
Zn4	Zn	-0.471307	1.209447	-0.344164
Zn5	Zn	-0.137974	1.542780	-0.010831
Zn6	Zn	0.195360	1.876113	0.322503
Zn7	Zn	-0.331914	1.081548	-0.337349
Zn8	Zn	0.001419	1.414882	-0.004016
Zn9	Zn	0.334752	1.748215	0.329318
Zn10	Zn	-0.471259	1.074678	-0.478951
Zn11	Zn	-0.137926	1.408011	-0.145618
Zn12	Zn	0.195408	1.741345	0.187715
O13	O	-0.401591	1.145515	-0.408158
O14	O	-0.068257	1.478849	-0.074824
O15	O	0.265076	1.812182	0.258509
O16	O	-0.350384	1.328299	-0.455200
O17	O	-0.017051	1.661633	-0.121866
O18	O	0.316283	1.994966	0.211467
O19	O	-0.452849	1.192451	-0.230429
O20	O	-0.119516	1.525784	0.102904
O21	O	0.213817	1.859118	0.436238
O22	O	-0.215244	1.105215	-0.349541
O23	O	0.118089	1.438548	-0.016208
O24	O	0.451423	1.771882	0.317125
O25	O	-0.452819	1.323200	-0.361156
O26	O	-0.119485	1.656533	-0.027823
O27	O	0.213848	1.989866	0.305510
O28	O	-0.215221	1.204281	-0.448592
O29	O	0.118113	1.537615	-0.115258
O30	O	0.451446	1.870948	0.218075
O31	O	-0.350438	1.098484	-0.225422
O32	O	-0.017105	1.431818	0.107911
O33	O	0.316228	1.765151	0.441245
O34	O	-0.350392	0.967805	-0.356120
O35	O	-0.017059	1.301138	-0.022787
O36	O	0.316275	1.634472	0.310547
O37	O	-0.452737	1.093506	-0.590882
O38	O	-0.119404	1.426839	-0.257549
O39	O	0.213930	1.760173	0.075784
O40	O	-0.452768	0.962757	-0.460155
O41	O	-0.119435	1.296091	-0.126821
O42	O	0.213899	1.629424	0.206512
O43	O	-0.350338	1.197620	-0.585898
O44	O	-0.017004	1.530953	-0.252564
O45	O	0.316329	1.864286	0.080769
O46	O	-0.587966	1.185789	-0.367735
O47	O	-0.254633	1.519123	-0.034402
O48	O	0.078700	1.852456	0.298932
O49	O	-0.587931	1.086775	-0.466763
O50	O	-0.254598	1.420109	-0.133430
O51	O	0.078735	1.753442	0.199904
C52	C	-0.401579	0.936025	-0.408135
C53	C	-0.068245	1.269358	-0.074801
C54	C	0.265088	1.602692	0.258532
C55	C	-0.401594	0.846403	-0.408145
C56	C	-0.068260	1.179736	-0.074812
C57	C	0.265073	1.513070	0.258522
C58	C	-0.618199	1.134805	-0.418742
C59	C	-0.284866	1.468139	-0.085409
C60	C	0.048468	1.801472	0.247924
C61	C	-0.710865	1.130297	-0.423297
C62	C	-0.377532	1.463631	-0.089964
C63	C	-0.044198	1.796964	0.243369
C64	C	-0.880527	1.122072	-0.431630
C65	C	-0.547193	1.455405	-0.098297
C66	C	-0.213860	1.788738	0.235036
C67	C	-0.921814	1.169103	-0.384698
C68	C	-0.588481	1.502437	-0.051365
C69	C	-0.255147	1.835770	0.281968
C70	C	-1.016220	1.164526	-0.389335
C71	C	-0.682886	1.497860	-0.056001
C72	C	-0.349553	1.831193	0.277332
C73	C	-0.786113	1.126648	-0.426995
C74	C	-0.452779	1.459981	-0.093662
C75	C	-0.119446	1.793314	0.239672
C76	C	-0.401599	0.518227	-0.408180
C77	C	-0.068266	0.851561	-0.074846
C78	C	0.265067	1.184894	0.258487
C79	C	-0.401595	0.609536	-0.408167
C80	C	-0.068262	0.942869	-0.074834
C81	C	0.265071	1.276203	0.258499
C82	C	-0.401597	0.682312	-0.408162
C83	C	-0.068264	1.015646	-0.074828
C84	C	0.265070	1.348979	0.258505
C85	C	-0.401592	0.773627	-0.408150
C86	C	-0.068259	1.106960	-0.074817
C87	C	0.265074	1.440293	0.258516
C88	C	-0.184136	1.156289	-0.397549
C89	C	0.149197	1.489622	-0.064216
C90	C	0.482530	1.822956	0.269117
C91	C	-0.091470	1.160880	-0.393029
C92	C	0.241863	1.494213	-0.059696
C93	C	0.575196	1.827547	0.273638
C94	C	-0.401529	1.145571	-0.618464
C95	C	-0.068195	1.478904	-0.285130
C96	C	0.265138	1.812237	0.048203
C97	C	-0.401502	1.145594	-0.708084
C98	C	-0.068169	1.478928	-0.374750
C99	C	0.265165	1.812261	-0.041417
C100	C	-0.401603	1.355823	-0.408181
C101	C	-0.068270	1.689157	-0.074848
C102	C	0.265063	2.022490	0.258485
C103	C	-0.401609	1.445444	-0.408192
C104	C	-0.068275	1.778778	-0.074858
C105	C	0.265058	2.112111	0.258475
C106	C	-0.401409	1.145636	-1.036255
C107	C	-0.068075	1.478969	-0.702922
C108	C	0.265258	1.812303	-0.369588
C109	C	-0.401437	1.145622	-0.944948
C110	C	-0.068104	1.478955	-0.611614
C111	C	0.265229	1.812289	-0.278281
C112	C	-0.401456	1.145616	-0.872172
C113	C	-0.068123	1.478949	-0.538839
C114	C	0.265211	1.812282	-0.205506
C115	C	-0.401483	1.145601	-0.780859
C116	C	-0.068150	1.478934	-0.447526
C117	C	0.265183	1.812268	-0.114193
C118	C	-0.401592	1.145509	-0.198667
C119	C	-0.068259	1.478843	0.134666
C120	C	0.265074	1.812176	0.468000
C121	C	-0.401384	1.145653	-0.109036
C122	C	-0.068051	1.478987	0.224297
C123	C	0.265283	1.812320	0.557631
H124	H	-0.886260	1.212805	-0.341036
H125	H	-0.552927	1.546138	-0.007702
H126	H	-0.219593	1.879471	0.325631
O127	O	-0.922842	1.069826	-0.483669
O128	O	-0.589508	1.403159	-0.150336
O129	O	-0.256175	1.736493	0.182997
C130	C	-0.949832	0.931362	-0.523935
C131	C	-0.616499	1.264695	-0.190601
C132	C	-0.283165	1.598028	0.142732
C133	C	-0.901832	0.990443	-0.464964
C134	C	-0.568499	1.323777	-0.131630
C135	C	-0.235166	1.657110	0.201703
H136	H	-0.932877	0.867167	-0.508822
H137	H	-0.599544	1.200500	-0.175488
H138	H	-0.266210	1.533833	0.157845
H139	H	-0.932696	0.946225	-0.588154
H140	H	-0.599363	1.279559	-0.254821
H141	H	-0.266030	1.612892	0.078512
H142	H	-1.019512	0.936956	-0.518451
H143	H	-0.686179	1.270290	-0.185117
H144	H	-0.352846	1.603623	0.148216
H145	H	-0.832141	0.984881	-0.470376
H146	H	-0.498808	1.318214	-0.137042
H147	H	-0.165474	1.651547	0.196291
H148	H	-0.919037	0.975562	-0.400768
H149	H	-0.585704	1.308896	-0.067435
H150	H	-0.252370	1.642229	0.265898
