data_functionalizedCrystal
_audit_creation_method	'MofGen! by Chris Wilmer'
_symmetry_space_group_name_H-M	'P1'
_symmetry_Int_Tables_number	1
_symmetry_cell_setting	triclinic
loop_
_symmetry_equiv_pos_as_xyz
  x,y,z
_cell_length_a	13.339070
_cell_length_b	12.996460
_cell_length_c	14.519709
_cell_angle_alpha	90.006927
_cell_angle_beta	80.345281
_cell_angle_gamma	89.994030
loop_
_atom_site_label
_atom_site_type_symbol
_atom_site_fract_x
_atom_site_fract_y
_atom_site_fract_z
O1	O	1.343122	-0.085613	-0.462554
O2	O	1.843122	0.414387	0.037446
O3	O	1.048485	-0.085606	-0.401841
O4	O	1.548485	0.414394	0.098159
O5	O	1.203615	-0.085600	-0.299946
O6	O	1.703615	0.414400	0.200054
O7	O	1.187991	-0.085618	-0.564449
O8	O	1.687991	0.414382	-0.064449
O9	O	1.203597	0.085534	-0.299934
O10	O	1.703597	0.585534	0.200066
O11	O	1.048467	0.085528	-0.401829
O12	O	1.548467	0.585528	0.098171
O13	O	1.343104	0.085521	-0.462542
O14	O	1.843104	0.585521	0.037458
Cu15	Cu	1.195784	0.101150	-0.432185
Cu16	Cu	1.695784	0.601150	0.067815
Cu17	Cu	1.195805	-0.101235	-0.432199
Cu18	Cu	1.695805	0.398765	0.067801
O19	O	1.187973	0.085515	-0.564437
O20	O	1.687973	0.585515	-0.064437
C21	C	1.010768	-0.000038	-0.391580
C22	C	1.510768	0.499962	0.108420
C23	C	0.898411	-0.000035	-0.361010
C24	C	1.398411	0.499965	0.138990
N25	N	1.195776	0.243498	-0.432176
N26	N	1.695776	0.743498	0.067824
C27	C	0.534048	-0.000067	-0.598702
C28	C	1.034048	0.499933	-0.098702
C29	C	0.639613	-0.000073	-0.627426
C30	C	1.139613	0.499927	-0.127426
C31	C	0.704317	-0.000063	-0.560825
C32	C	1.204317	0.499937	-0.060825
C33	C	0.663447	-0.000048	-0.465494
C34	C	1.163447	0.499952	0.034506
C35	C	0.557872	-0.000050	-0.436767
C36	C	1.057872	0.499950	0.063233
C37	C	0.728141	-0.000046	-0.398889
C38	C	1.228141	0.499954	0.101111
C39	C	0.687271	-0.000030	-0.303559
C40	C	1.187271	0.499970	0.196441
C41	C	0.581706	-0.000032	-0.274836
C42	C	1.081706	0.499968	0.225164
C43	C	0.517002	-0.000042	-0.341438
C44	C	1.017002	0.499958	0.158562
C45	C	0.833716	-0.000044	-0.427617
C46	C	1.333716	0.499956	0.072383
C47	C	0.857541	-0.000027	-0.265682
C48	C	1.357541	0.499973	0.234318
C49	C	0.751976	-0.000020	-0.236957
C50	C	1.251976	0.499980	0.263043
C51	C	1.195796	0.663312	-0.432200
C52	C	1.695796	1.163312	0.067800
C53	C	1.195788	0.546507	-0.432196
C54	C	1.695788	1.046507	0.067804
C55	C	1.195787	0.453408	-0.432189
C56	C	1.695787	0.953408	0.067811
C57	C	1.195777	0.336596	-0.432183
C58	C	1.695777	0.836596	0.067817
C59	C	1.380820	-0.000049	-0.472804
C60	C	1.880820	0.499951	0.027196
C61	C	1.493178	-0.000059	-0.503373
C62	C	1.993178	0.499941	-0.003373
C63	C	1.202878	-0.000033	-0.265395
C64	C	1.702878	0.499967	0.234605
C65	C	1.200696	-0.000032	-0.162459
C66	C	1.700696	0.499968	0.337541
N67	N	1.195811	0.756418	-0.432203
N68	N	1.695811	1.256418	0.067797
C69	C	1.188711	-0.000054	-0.598988
C70	C	1.688711	0.499946	-0.098988
C71	C	1.190892	-0.000061	-0.701924
C72	C	1.690892	0.499939	-0.201924
C73	C	1.192663	-0.000059	0.214480
C74	C	1.692663	0.499941	0.714480
C75	C	1.194894	-0.000051	0.109605
C76	C	1.694894	0.499949	0.609605
C77	C	1.196679	-0.000045	0.026014
C78	C	1.696679	0.499955	0.526014
C79	C	1.198911	-0.000039	-0.078868
C80	C	1.698911	0.499961	0.421132
H81	H	0.790272	-0.000071	-0.584218
H82	H	1.290272	0.499929	-0.084218
C83	C	0.878668	-0.000057	-0.532470
C84	C	1.378668	0.499943	-0.032470
H85	H	0.950807	-0.000063	-0.540045
H86	H	1.450807	0.499937	-0.040045
H87	H	0.856460	0.059615	-0.561029
H88	H	1.356460	0.559615	-0.061029
H89	H	0.856478	-0.059748	-0.561028
H90	H	1.356478	0.440252	-0.061028
C91	C	0.707011	-0.000015	-0.132099
C92	C	1.207011	0.499985	0.367901
H93	H	0.634872	-0.000025	-0.124535
H94	H	1.134872	0.499975	0.375465
H95	H	0.729195	0.059665	-0.103531
H96	H	1.229195	0.559665	0.396469
H97	H	0.729213	-0.059699	-0.103545
H98	H	1.229213	0.440301	0.396455
C99	C	0.684564	-0.000078	-0.732280
C100	C	1.184564	0.499922	-0.232280
H101	H	0.630911	-0.000073	-0.767831
H102	H	1.130911	0.499927	-0.267831
H103	H	0.725262	-0.059754	-0.746860
H104	H	1.225262	0.440246	-0.246860
H105	H	0.725239	0.059610	-0.746843
H106	H	1.225239	0.559610	-0.246843
C107	C	0.928705	-0.000013	-0.192415
C108	C	1.428705	0.499987	0.307585
H109	H	0.997431	-0.000003	-0.223176
H110	H	1.497431	0.499997	0.276824
H111	H	0.916311	-0.059688	-0.154443
H112	H	1.416311	0.440312	0.345557
H113	H	0.916290	0.059676	-0.154438
H114	H	1.416290	0.559676	0.345562
C115	C	0.462879	-0.000091	-0.671954
C116	C	0.962879	0.499909	-0.171954
H117	H	0.502336	-0.000105	-0.732844
H118	H	1.002336	0.499895	-0.232844
H119	H	0.421184	0.059581	-0.664114
H120	H	0.921184	0.559581	-0.164114
H121	H	0.421220	-0.059783	-0.664109
H122	H	0.921220	0.440217	-0.164109
C123	C	0.400879	-0.000035	-0.309843
C124	C	0.900879	0.499965	0.190157
H125	H	0.368202	-0.000044	-0.363164
H126	H	0.868202	0.499956	0.136836
H127	H	0.381391	0.059645	-0.273437
H128	H	0.881391	0.559645	0.226563
H129	H	0.381402	-0.059719	-0.273449
H130	H	0.881402	0.440281	0.226551
H131	H	0.548434	-0.000031	-0.197212
H132	H	1.048434	0.499969	0.302788
