data_functionalizedCrystal
_audit_creation_method	'MofGen! by Chris Wilmer'
_symmetry_space_group_name_H-M	'P1'
_symmetry_Int_Tables_number	1
_symmetry_cell_setting	triclinic
loop_
_symmetry_equiv_pos_as_xyz
  x,y,z
_cell_length_a	16.625548
_cell_length_b	12.594516
_cell_length_c	16.625539
_cell_angle_alpha	89.978538
_cell_angle_beta	89.982945
_cell_angle_gamma	90.017121
loop_
_atom_site_label
_atom_site_type_symbol
_atom_site_fract_x
_atom_site_fract_y
_atom_site_fract_z
Zn1	Zn	1.232688	-0.423729	-0.455937
Zn2	Zn	1.232615	-0.601725	-0.321116
Zn3	Zn	1.097859	-0.423764	-0.321118
Zn4	Zn	1.097836	-0.601670	-0.455906
O5	O	1.165249	-0.512722	-0.388519
O6	O	1.345511	-0.447350	-0.438065
O7	O	1.214718	-0.578156	-0.208284
O8	O	1.115784	-0.274814	-0.339016
O9	O	1.345457	-0.578122	-0.339013
O10	O	1.214843	-0.274788	-0.438067
O11	O	1.115713	-0.447409	-0.208285
O12	O	0.985023	-0.447355	-0.338985
O13	O	1.115745	-0.578028	-0.568743
O14	O	0.985006	-0.578062	-0.438014
O15	O	1.214821	-0.447296	-0.568766
O16	O	1.214696	-0.750663	-0.338983
O17	O	1.115674	-0.750623	-0.438012
C18	C	0.955759	-0.512707	-0.388497
C19	C	0.866137	-0.512726	-0.388506
C20	C	0.537962	-0.512733	-0.388541
C21	C	0.629270	-0.512728	-0.388529
C22	C	0.702047	-0.512730	-0.388523
C23	C	0.793361	-0.512724	-0.388512
C24	C	1.165197	-0.789263	-0.388511
C25	C	1.165248	-0.907568	-0.388535
C26	C	1.111385	-0.976838	-0.442359
C27	C	1.091744	-1.047696	-0.368785
C28	C	1.184962	-1.047510	-0.462122
C29	C	1.145568	-0.976868	-0.314921
C30	C	1.238820	-0.976675	-0.408308
C31	C	1.219208	-1.047501	-0.334683
C32	C	1.375558	-0.512738	-0.388542
C33	C	1.465179	-0.512745	-0.388552
C34	C	1.165289	-0.512652	-0.598828
C35	C	1.165306	-0.512622	-0.688449
C36	C	1.165324	-0.235101	-0.388545
C37	C	1.165356	-0.116796	-0.388556
C38	C	1.165319	-0.512598	-0.761232
C39	C	1.165338	-0.512559	-0.852540
C40	C	1.165357	-0.512521	-0.925317
C41	C	1.165377	-0.512483	-1.016631
C42	C	1.165256	-0.512715	-0.179028
C43	C	1.165396	-0.512445	-0.089408
H44	H	1.029576	-1.078915	-0.352077
H45	H	1.264804	-1.078333	-0.289122
H46	H	1.300974	-0.945460	-0.425051
C47	C	1.207434	-1.089432	-0.546179
C48	C	1.154668	-1.061526	-0.619298
C49	C	1.177132	-1.103445	-0.703356
C50	C	1.252362	-1.173270	-0.714295
C51	C	1.305132	-1.201179	-0.641173
C52	C	1.282668	-1.159260	-0.557115
H53	H	1.098975	-1.009835	-0.611203
H54	H	1.138068	-1.082784	-0.757485
H55	H	1.268991	-1.204300	-0.776520
H56	H	1.360825	-1.252871	-0.649269
H57	H	1.321732	-1.179921	-0.502986
H58	H	1.128866	-0.945966	-0.252681
C59	C	1.049745	-0.934909	-0.503761
C60	C	1.077790	-0.864886	-0.574357
C61	C	1.016150	-0.822955	-0.635754
C62	C	0.926464	-0.851046	-0.626554
C63	C	0.898414	-0.921072	-0.555954
C64	C	0.960055	-0.963003	-0.494558
H65	H	1.144185	-0.844089	-0.581171
H66	H	1.036915	-0.771117	-0.688016
H67	H	0.880834	-0.820005	-0.672003
H68	H	0.832019	-0.941869	-0.549141
H69	H	0.939290	-1.014841	-0.442295
