data_functionalizedCrystal
_audit_creation_method	'MofGen! by Chris Wilmer'
_symmetry_space_group_name_H-M	'P1'
_symmetry_Int_Tables_number	1
_symmetry_cell_setting	triclinic
loop_
_symmetry_equiv_pos_as_xyz
  x,y,z
_cell_length_a	16.974829
_cell_length_b	14.044190
_cell_length_c	16.053802
_cell_angle_alpha	92.795827
_cell_angle_beta	83.771117
_cell_angle_gamma	88.284627
loop_
_atom_site_label
_atom_site_type_symbol
_atom_site_fract_x
_atom_site_fract_y
_atom_site_fract_z
O1	O	1.063887	0.112705	-0.141320
O2	O	1.397220	0.446038	0.192013
O3	O	1.730554	0.779371	0.525347
O4	O	0.834083	0.128977	-0.125796
O5	O	1.167416	0.462310	0.207537
O6	O	1.500750	0.795643	0.540871
O7	O	0.945532	-0.017125	-0.133308
O8	O	1.278865	0.316208	0.200025
O9	O	1.612199	0.649541	0.533358
O10	O	0.952438	0.258807	-0.133808
O11	O	1.285771	0.592140	0.199526
O12	O	1.619105	0.925473	0.532859
O13	O	0.939395	-0.009117	0.005964
O14	O	1.272728	0.324217	0.339298
O15	O	1.606062	0.657550	0.672631
O16	O	0.827946	0.136985	0.013476
O17	O	1.161279	0.470319	0.346810
O18	O	1.494613	0.803652	0.680143
O19	O	1.057750	0.120713	-0.002047
O20	O	1.391083	0.454047	0.331286
O21	O	1.724417	0.787380	0.664619
Zn22	Zn	0.941874	0.130121	0.027827
Zn23	Zn	1.275207	0.463454	0.361160
Zn24	Zn	1.608540	0.796788	0.694494
Zn25	Zn	0.949959	0.119569	-0.155671
Zn26	Zn	1.283293	0.452902	0.177663
Zn27	Zn	1.616626	0.786236	0.510996
O28	O	0.946301	0.266816	0.005465
O29	O	1.279634	0.600149	0.338798
O30	O	1.612968	0.933482	0.672132
C31	C	0.801427	0.132510	-0.054161
C32	C	1.134760	0.465843	0.279172
C33	C	1.468094	0.799176	0.612506
C34	C	0.713264	0.131094	-0.048205
C35	C	1.046598	0.464428	0.285129
C36	C	1.379931	0.797761	0.618462
C37	C	0.216641	0.123626	-0.006527
C38	C	0.549975	0.456960	0.326806
C39	C	0.883308	0.790293	0.660139
C40	C	0.299480	0.124956	-0.012126
C41	C	0.632813	0.458290	0.321208
C42	C	0.966146	0.791623	0.654541
C43	C	0.344244	0.121248	-0.090844
C44	C	0.677578	0.454582	0.242490
C45	C	1.010911	0.787915	0.575823
C46	C	0.306166	0.116220	-0.163968
C47	C	0.639500	0.449553	0.169365
C48	C	0.972833	0.782886	0.502699
C49	C	0.223329	0.114897	-0.158369
C50	C	0.556663	0.448230	0.174964
C51	C	0.889996	0.781563	0.508298
C52	C	0.592349	0.124743	-0.115730
C53	C	0.925683	0.458076	0.217604
C54	C	1.259016	0.791409	0.550937
C55	C	0.675192	0.126063	-0.121323
C56	C	1.008525	0.459397	0.212010
C57	C	1.341859	0.792730	0.545343
C58	C	0.668499	0.134801	0.030520
C59	C	1.001833	0.468135	0.363853
C60	C	1.335166	0.801468	0.697186
C61	C	0.585661	0.133472	0.036112
C62	C	0.918995	0.466806	0.369445
C63	C	1.252328	0.800139	0.702778
C64	C	0.547590	0.128449	-0.037013
C65	C	0.880924	0.461782	0.296321
C66	C	1.214257	0.795116	0.629654
N67	N	0.428919	0.122604	-0.096568
N68	N	0.762252	0.455938	0.236766
N69	N	1.095585	0.789271	0.570099
N70	N	0.462917	0.127100	-0.031288
N71	N	0.796251	0.460433	0.302046
N72	N	1.129584	0.793766	0.635379
C73	C	0.939443	-0.048420	-0.063466
C74	C	1.272776	0.284914	0.269868
C75	C	1.606110	0.618247	0.603201
C76	C	0.930433	-0.153599	-0.062850
C77	C	1.263766	0.179734	0.270484
C78	C	1.597099	0.513068	0.603817
C79	C	0.977862	-0.404132	-0.066086
C80	C	1.311195	-0.070798	0.267247
C81	C	1.644529	0.262535	0.600580
C82	C	0.913975	-0.346173	-0.061765
C83	C	1.247308	-0.012840	0.271569
C84	C	1.580642	0.320494	0.604902
C85	C	0.923134	-0.239015	-0.062368
C86	C	1.256468	0.094318	0.270965
C87	C	1.589801	0.427652	0.604298
C88	C	0.968704	-0.511300	-0.065483
C89	C	1.302037	-0.177966	0.267851
C90	C	1.635370	0.155367	0.601184
C91	C	1.090406	0.117180	-0.073684
C92	C	1.423740	0.450513	0.259649
C93	C	1.757073	0.783847	0.592982
C94	C	1.178569	0.118595	-0.079646
C95	C	1.511902	0.451929	0.253687
C96	C	1.845236	0.785262	0.587020
C97	C	0.952390	0.298110	-0.064380
C98	C	1.285724	0.631443	0.268954
C99	C	1.619057	0.964776	0.602287
C100	C	0.961401	0.403289	-0.065001
C101	C	1.294734	0.736622	0.268332
C102	C	1.628067	1.069955	0.601666
N103	N	0.936361	0.137322	0.153059
N104	N	1.269695	0.470655	0.486392
N105	N	1.603028	0.803989	0.819726
N106	N	0.955477	0.112361	-0.280903
N107	N	1.288811	0.445694	0.052431
N108	N	1.622144	0.779027	0.385764
C109	C	0.983804	0.075177	0.193555
C110	C	1.317137	0.408510	0.526888
C111	C	1.650470	0.741844	0.860222
C112	C	0.979956	0.080223	0.281221
C113	C	1.313289	0.413557	0.614555
C114	C	1.646622	0.746890	0.947888
C115	C	0.928669	0.147419	0.328389
C116	C	1.262002	0.480753	0.661723
C117	C	1.595336	0.814086	0.995056
C118	C	0.881222	0.209567	0.287888
C119	C	1.214555	0.542900	0.621221
C120	C	1.547888	0.876233	0.954554
C121	C	0.885066	0.204515	0.200223
C122	C	1.218399	0.537849	0.533557
C123	C	1.551733	0.871182	0.866890
C124	C	0.911874	0.169457	0.590931
C125	C	1.245208	0.502790	0.924264
C126	C	1.578541	0.836123	1.257598
C127	C	0.908035	0.174505	0.678601
C128	C	1.241369	0.507839	1.011934
C129	C	1.574702	0.841172	1.345268
C130	C	1.006769	0.045160	0.671929
C131	C	1.340102	0.378493	1.005262
C132	C	1.673435	0.711827	1.338595
C133	C	1.010612	0.040119	0.584263
C134	C	1.343945	0.373452	0.917596
C135	C	1.677279	0.706785	1.250930
C136	C	0.963161	0.102263	0.543769
C137	C	1.296495	0.435596	0.877102
C138	C	1.629828	0.768929	1.210436
N139	N	0.924736	0.152581	0.417998
N140	N	1.258070	0.485914	0.751332
N141	N	1.591403	0.819247	1.084665
N142	N	0.967090	0.097096	0.454162
N143	N	1.300424	0.430429	0.787495
N144	N	1.633757	0.763763	1.120829
H145	H	0.180199	0.126650	0.057573
H146	H	0.513533	0.459983	0.390907
H147	H	0.846866	0.793317	0.724240
Cl148	Cl	1.039597	0.002096	0.332132
Cl149	Cl	1.372931	0.335430	0.665465
Cl150	Cl	1.706264	0.668763	0.998799
Cl151	Cl	0.818908	-0.393811	-0.055344
Cl152	Cl	1.152241	-0.060478	0.277990
Cl153	Cl	1.485574	0.272855	0.611323
H154	H	0.561362	0.120649	-0.175273
H155	H	0.894696	0.453982	0.158060
H156	H	1.228029	0.787316	0.491394
Cl157	Cl	0.347338	0.131286	0.079800
Cl158	Cl	0.680671	0.464620	0.413134
Cl159	Cl	1.014005	0.797953	0.746467
H160	H	1.039431	-0.373275	-0.070237
H161	H	1.372765	-0.039942	0.263097
H162	H	1.706098	0.293392	0.596430
H163	H	1.025570	0.020463	0.155156
H164	H	1.358903	0.353796	0.488489
H165	H	1.692237	0.687130	0.821823
Cl166	Cl	1.075088	-0.044356	0.524965
Cl167	Cl	1.408421	0.288977	0.858299
Cl168	Cl	1.741755	0.622311	1.191632
H169	H	1.045400	-0.005436	0.704907
H170	H	1.378733	0.327898	1.038241
H171	H	1.712066	0.661231	1.371574
Cl172	Cl	0.843556	0.258990	0.737893
Cl173	Cl	1.176889	0.592324	1.071226
Cl174	Cl	1.510222	0.925657	1.404560
Cl175	Cl	0.362442	0.111559	-0.262928
Cl176	Cl	0.695776	0.444892	0.070405
Cl177	Cl	1.029109	0.778226	0.403738
Cl178	Cl	0.816742	0.294039	0.347183
Cl179	Cl	1.150075	0.627372	0.680517
Cl180	Cl	1.483408	0.960705	1.013850
H181	H	0.873240	0.220059	0.557968
H182	H	1.206573	0.553392	0.891301
H183	H	1.539906	0.886725	1.224634
H184	H	0.711637	0.123051	-0.185428
H185	H	1.044971	0.456385	0.147905
H186	H	1.378304	0.789718	0.481238
Cl187	Cl	0.825418	0.282641	0.149315
Cl188	Cl	1.158751	0.615974	0.482648
Cl189	Cl	1.492085	0.949308	0.815982
Cl190	Cl	0.175467	0.108577	-0.250294
Cl191	Cl	0.508800	0.441910	0.083039
Cl192	Cl	0.842134	0.775244	0.416373
Cl193	Cl	0.716364	0.141124	0.122441
Cl194	Cl	1.049698	0.474457	0.455775
Cl195	Cl	1.383031	0.807791	0.789108
Cl196	Cl	0.529391	0.138156	0.135076
Cl197	Cl	0.862724	0.471489	0.468409
Cl198	Cl	1.196057	0.804822	0.801742
