data_functionalizedCrystal
_audit_creation_method	'MofGen! by Chris Wilmer'
_symmetry_space_group_name_H-M	'P1'
_symmetry_Int_Tables_number	1
_symmetry_cell_setting	triclinic
loop_
_symmetry_equiv_pos_as_xyz
  x,y,z
_cell_length_a	10.489741
_cell_length_b	14.853567
_cell_length_c	13.330367
_cell_angle_alpha	90.000844
_cell_angle_beta	89.990465
_cell_angle_gamma	95.912948
loop_
_atom_site_label
_atom_site_type_symbol
_atom_site_fract_x
_atom_site_fract_y
_atom_site_fract_z
O1	O	1.692632	-0.127195	-0.083461
O2	O	1.321302	-0.139134	-0.083452
O3	O	1.516886	-0.001990	-0.083460
O4	O	1.497048	-0.264338	-0.083453
O5	O	1.516857	-0.001987	0.083388
O6	O	1.321274	-0.139131	0.083395
O7	O	1.692603	-0.127191	0.083386
Cu8	Cu	1.506936	-0.133161	0.098625
Cu9	Cu	1.506969	-0.133164	-0.098691
O10	O	1.497020	-0.264335	0.083394
C11	C	1.273766	-0.138230	-0.000027
C12	C	1.132167	-0.135533	-0.000024
C13	C	1.740139	-0.128095	-0.000041
C14	C	1.881738	-0.130793	-0.000050
C15	C	1.515973	0.031605	-0.000039
C16	C	1.513279	0.131704	-0.000048
C17	C	1.948899	-0.218053	-0.000037
C18	C	2.041502	-0.176834	-0.082299
C19	C	2.041441	-0.176810	0.082199
C20	C	1.972477	-0.089537	-0.082380
C21	C	1.972405	-0.089525	0.082192
C22	C	2.064982	-0.048243	-0.000090
C23	C	1.497933	-0.297930	-0.000029
C24	C	1.500626	-0.398029	-0.000027
N25	N	1.506922	-0.133157	0.237407
C26	C	1.385712	0.544953	-0.000025
C27	C	1.618070	0.564931	-0.000031
C28	C	1.620602	0.470883	-0.000037
C29	C	1.505688	0.413866	-0.000036
C30	C	1.388241	0.450896	-0.000028
C31	C	1.738047	0.433846	-0.000034
C32	C	1.740585	0.339793	-0.000039
C33	C	1.625669	0.282773	-0.000045
C34	C	1.508217	0.319809	-0.000039
C35	C	1.393303	0.262791	-0.000037
C36	C	1.275850	0.299825	-0.000038
C37	C	1.273325	0.393877	-0.000034
C38	C	1.628193	0.188722	-0.000049
C39	C	1.395832	0.168735	-0.000040
N40	N	1.506994	-0.133161	-0.237472
C41	C	1.420361	-0.193868	0.710033
C42	C	1.593612	-0.072454	0.709994
C43	C	1.593598	-0.072452	0.604976
C44	C	1.506965	-0.133159	0.552481
C45	C	1.420347	-0.193868	0.605005
C46	C	1.680223	-0.011749	0.552444
C47	C	1.680213	-0.011744	0.447419
C48	C	1.593573	-0.072448	0.394923
C49	C	1.506950	-0.133159	0.447453
C50	C	1.420318	-0.193866	0.394959
C51	C	1.333688	-0.254574	0.447487
C52	C	1.333707	-0.254572	0.552509
C53	C	1.593554	-0.072450	0.289901
C54	C	1.420303	-0.193867	0.289931
H55	H	1.898445	-0.289799	-0.000119
H56	H	1.941759	-0.052634	0.151742
H57	H	2.071990	-0.213745	0.151748
H58	H	1.664152	-0.023033	0.752739
H59	H	1.177701	0.424039	-0.000034
H60	H	1.750763	0.037673	0.595189
H61	H	1.942074	-0.052651	-0.152010
H62	H	1.836222	0.309648	-0.000040
H63	H	2.072120	-0.213759	-0.151843
H64	H	2.115204	0.023570	-0.000132
H65	H	1.711628	0.611360	-0.000024
H66	H	1.302253	0.122316	-0.000043
H67	H	1.349825	-0.243293	0.752804
H68	H	1.664093	-0.023027	0.247138
H69	H	1.290084	0.575111	-0.000030
H70	H	1.349752	-0.243299	0.247196
H71	H	1.831604	0.480276	-0.000026
H72	H	1.723822	0.158573	-0.000042
H73	H	1.182287	0.253390	-0.000030
H74	H	1.750750	0.037688	0.404657
H75	H	1.263156	-0.304007	0.404734
H76	H	1.263177	-0.303999	0.595284
