data_functionalizedCrystal
_audit_creation_method	'MofGen! by Chris Wilmer'
_symmetry_space_group_name_H-M	'P1'
_symmetry_Int_Tables_number	1
_symmetry_cell_setting	triclinic
loop_
_symmetry_equiv_pos_as_xyz
  x,y,z
_cell_length_a	8.497365
_cell_length_b	12.759401
_cell_length_c	12.759400
_cell_angle_alpha	89.985155
_cell_angle_beta	90.051021
_cell_angle_gamma	89.968799
loop_
_atom_site_label
_atom_site_type_symbol
_atom_site_fract_x
_atom_site_fract_y
_atom_site_fract_z
Zn1	Zn	-0.891905	1.606387	0.417998
Zn2	Zn	-0.628109	1.606243	0.593777
Zn3	Zn	-0.628138	1.430650	0.418113
Zn4	Zn	-0.891847	1.430678	0.593636
O5	O	-0.760000	1.518490	0.505881
O6	O	-0.856924	1.753389	0.441326
O7	O	-0.407351	1.582878	0.570581
O8	O	-0.663164	1.454011	0.271077
O9	O	-0.663114	1.753283	0.570470
O10	O	-0.856952	1.583124	0.270992
O11	O	-0.407372	1.453871	0.441522
O12	O	-0.663108	1.283633	0.441385
O13	O	-1.112618	1.454058	0.570231
O14	O	-0.856854	1.283653	0.570342
O15	O	-1.112660	1.583151	0.441190
O16	O	-0.663059	1.582905	0.740779
O17	O	-0.856826	1.453918	0.740676
C18	C	-0.759979	1.245522	0.505862
C19	C	-0.760007	1.128746	0.505879
C20	C	-0.759967	1.518427	0.778848
C21	C	-0.760006	1.518497	0.895625
C22	C	-0.860724	1.073922	0.573134
C23	C	-0.860741	0.964197	0.573147
C24	C	-0.659311	0.964131	0.438647
C25	C	-0.659303	1.073853	0.438629
C26	C	-0.977013	1.073959	0.650789
C27	C	-0.977030	0.964235	0.650803
C28	C	-0.350120	1.518414	0.505995
C29	C	-0.171477	1.518563	0.505780
C30	C	-0.760023	1.792523	0.505901
C31	C	-0.760032	1.909299	0.505910
C32	C	-0.760068	1.518581	0.231848
C33	C	-0.760096	1.518620	0.115071
C34	C	-0.659223	1.585735	0.950506
C35	C	-0.659271	1.585799	1.060230
C36	C	-0.860891	1.451379	1.060182
C37	C	-0.860849	1.451320	0.950460
C38	C	-0.542815	1.663338	0.950534
C39	C	-0.542863	1.663402	1.060258
H40	H	-0.577323	0.919424	0.383894
O41	O	-0.937817	0.928497	0.747804
C42	C	-0.937874	0.817995	0.747628
H43	H	-1.016061	0.788387	0.681311
H44	H	-0.812687	0.788151	0.735684
C45	C	-0.905394	0.813964	0.934604
C46	C	-1.001436	0.777599	0.853158
H47	H	-0.944595	0.789045	0.999701
H48	H	-0.905350	0.888411	0.934724
H49	H	-0.801078	0.789091	0.924637
H50	H	-1.105745	0.802483	0.863119
H51	H	-1.001500	0.703155	0.853043
H52	H	-1.093179	0.930254	0.621732
H53	H	-1.099251	1.103785	0.629062
H54	H	-0.942928	1.396580	0.905777
H55	H	-0.420664	1.641647	1.090148
H56	H	-0.426704	1.634196	0.916613
H57	H	-0.933040	1.107967	0.728051
O58	O	-0.581779	1.760459	0.915020
C59	C	-0.471103	1.834024	0.951947
H60	H	-0.411464	1.802147	1.025409
H61	H	-0.378754	1.848752	0.888888
C62	C	-0.628767	1.976699	0.888006
C63	C	-0.555527	1.937551	0.978238
H64	H	-0.680840	2.040562	0.904219
H65	H	-0.703330	1.927137	0.863123
H66	H	-0.551796	1.988964	0.835464
H67	H	-0.632499	1.925275	1.030772
H68	H	-0.480978	1.987114	1.003130
H69	H	-0.942995	1.396687	1.104843
H70	H	-0.577300	1.118487	0.383857
H71	H	-0.586727	1.740713	1.094193
