data_functionalizedCrystal
_audit_creation_method	'MofGen! by Chris Wilmer'
_symmetry_space_group_name_H-M	'P1'
_symmetry_Int_Tables_number	1
_symmetry_cell_setting	triclinic
loop_
_symmetry_equiv_pos_as_xyz
  x,y,z
_cell_length_a	19.805407
_cell_length_b	12.827892
_cell_length_c	19.805399
_cell_angle_alpha	89.977471
_cell_angle_beta	89.980427
_cell_angle_gamma	90.015392
loop_
_atom_site_label
_atom_site_type_symbol
_atom_site_fract_x
_atom_site_fract_y
_atom_site_fract_z
Zn1	Zn	1.034788	-0.416057	-0.382743
Zn2	Zn	1.034724	-0.590812	-0.269565
Zn3	Zn	0.921602	-0.416086	-0.269568
Zn4	Zn	0.921587	-0.590757	-0.382712
O5	O	0.978175	-0.503428	-0.326147
O6	O	1.129496	-0.439250	-0.367742
O7	O	1.019698	-0.567670	-0.174849
O8	O	0.936649	-0.269846	-0.284595
O9	O	1.129449	-0.567642	-0.284590
O10	O	1.019806	-0.269825	-0.367745
O11	O	0.936588	-0.439299	-0.174851
O12	O	0.826884	-0.439245	-0.284565
O13	O	0.936624	-0.567547	-0.477433
O14	O	0.826873	-0.567575	-0.367691
O15	O	1.019792	-0.439196	-0.477456
O16	O	1.019684	-0.737041	-0.284560
O17	O	0.936563	-0.737000	-0.367688
C18	C	0.802319	-0.503408	-0.326125
C19	C	0.727087	-0.503425	-0.326132
C20	C	0.978133	-0.774938	-0.326135
C21	C	0.978177	-0.891091	-0.326153
C22	C	0.691755	-0.570347	-0.369346
C23	C	0.621067	-0.570349	-0.369355
C24	C	0.585712	-0.503433	-0.326147
C25	C	0.621049	-0.436504	-0.282931
C26	C	0.691736	-0.436497	-0.282926
C27	C	0.335975	-0.436527	-0.282954
C28	C	0.265283	-0.436540	-0.282961
C29	C	0.265306	-0.570378	-0.369383
C30	C	0.335993	-0.570372	-0.369378
C31	C	0.371324	-0.503439	-0.326165
C32	C	0.447973	-0.503436	-0.326156
C33	C	0.509065	-0.503440	-0.326152
C34	C	1.019357	-0.942862	-0.285064
C35	C	1.019403	-1.062912	-0.285081
C36	C	1.154718	-0.503449	-0.326169
C37	C	1.229950	-0.503458	-0.326179
C38	C	0.978213	-0.503362	-0.502690
C39	C	0.978229	-0.503334	-0.577922
C40	C	0.978236	-0.230858	-0.326174
C41	C	0.978262	-0.114705	-0.326185
C42	C	1.021536	-0.436499	-0.613279
C43	C	1.021543	-0.436468	-0.683968
C44	C	0.978246	-0.503280	-0.719298
C45	C	0.934935	-0.570118	-0.683935
C46	C	0.934925	-0.570143	-0.613248
C47	C	0.934973	-0.570021	-0.969009
C48	C	0.934988	-0.569994	-1.039701
C49	C	1.021591	-0.436347	-1.039728
C50	C	1.021581	-0.436371	-0.969041
C51	C	0.978268	-0.503205	-0.933685
C52	C	0.978260	-0.503236	-0.857037
C53	C	0.978257	-0.503255	-0.795945
C54	C	0.978176	-0.503418	-0.150291
C55	C	0.978291	-0.503152	-0.075060
H56	H	0.592303	-0.624844	-0.404544
H57	H	0.942958	-0.935645	-0.361346
N58	N	0.227150	-0.364363	-0.236355
H59	H	0.197835	-0.316002	-0.263918
H60	H	0.197847	-0.406852	-0.204953
N61	N	0.888275	-0.642049	-1.077800
H62	H	0.856928	-0.599556	-1.107126
H63	H	0.915815	-0.690466	-1.107090
H64	H	0.899654	-0.624557	-0.584461
H65	H	1.056840	-0.381970	-0.940279
N66	N	0.374127	-0.642551	-0.415976
H67	H	0.341017	-0.684947	-0.443355
H68	H	0.403475	-0.600073	-0.447343
N69	N	1.066009	-0.883854	-0.238443
H70	H	1.093496	-0.934896	-0.211024
H71	H	1.097272	-0.838500	-0.266043
N72	N	1.066099	-1.121873	-0.238474
H73	H	1.059511	-1.199275	-0.245090
H74	H	1.114438	-1.102779	-0.249037
H75	H	1.056856	-0.381923	-1.068524
N76	N	0.582922	-0.364336	-0.236321
H77	H	0.595211	-0.380475	-0.187945
H78	H	0.595253	-0.289718	-0.246969
H79	H	0.720502	-0.381997	-0.247740
N80	N	0.888237	-0.642069	-0.930880
H81	H	0.860806	-0.684379	-0.963989
H82	H	0.915747	-0.690457	-0.901537
N83	N	0.888229	-0.642157	-0.722048
H84	H	0.915723	-0.690579	-0.751380
H85	H	0.860794	-0.684431	-0.688886
H86	H	0.364733	-0.382034	-0.247762
H87	H	1.056795	-0.382096	-0.584519
N88	N	0.729886	-0.642528	-0.415945
H89	H	0.696774	-0.684922	-0.443322
H90	H	0.759235	-0.600053	-0.447313
H91	H	0.943002	-1.070191	-0.361363
N92	N	0.227200	-0.642572	-0.415994
H93	H	0.177055	-0.632424	-0.409446
H94	H	0.239580	-0.626410	-0.464352
N95	N	1.068238	-0.364361	-0.722104
H96	H	1.095663	-0.322039	-0.688997
H97	H	1.099558	-0.406874	-0.751443
