data_functionalizedCrystal
_audit_creation_method	'MofGen! by Chris Wilmer'
_symmetry_space_group_name_H-M	'P1'
_symmetry_Int_Tables_number	1
_symmetry_cell_setting	triclinic
loop_
_symmetry_equiv_pos_as_xyz
  x,y,z
_cell_length_a	11.026607
_cell_length_b	11.026607
_cell_length_c	10.065875
_cell_angle_alpha	100.731764
_cell_angle_beta	79.302338
_cell_angle_gamma	108.586017
loop_
_atom_site_label
_atom_site_type_symbol
_atom_site_fract_x
_atom_site_fract_y
_atom_site_fract_z
O1	O	-1.741286	-0.518966	0.113490
O2	O	-1.241286	-0.018966	0.613490
O3	O	-1.374706	-0.458202	0.113493
O4	O	-0.874706	0.041798	0.613493
O5	O	-1.527614	-0.305294	0.113487
O6	O	-1.027614	0.194706	0.613487
O7	O	-1.588379	-0.671873	0.113496
O8	O	-1.088379	-0.171873	0.613496
O9	O	-1.498489	-0.334601	-0.113501
O10	O	-0.998489	0.165399	0.386499
O11	O	-1.345582	-0.487509	-0.113495
O12	O	-0.845582	0.012491	0.386505
O13	O	-1.712161	-0.548273	-0.113497
O14	O	-1.212161	-0.048273	0.386503
Zn15	Zn	-1.524247	-0.522544	-0.149535
Zn16	Zn	-1.024247	-0.022544	0.350465
Zn17	Zn	-1.562620	-0.483931	0.149531
Zn18	Zn	-1.062620	0.016069	0.649531
O19	O	-1.559254	-0.701180	-0.113491
O20	O	-1.059254	-0.201180	0.386509
C21	C	-1.312485	-0.461645	-0.000001
C22	C	-0.812485	0.038355	0.499999
C23	C	-1.170471	-0.428228	-0.000000
C24	C	-0.670471	0.071772	0.500000
C25	C	-1.501842	-0.272288	-0.000005
C26	C	-1.001842	0.227712	0.499995
C27	C	-1.468426	-0.130273	-0.000000
C28	C	-0.968426	0.369727	0.500000
C29	C	-1.774384	-0.544829	-0.000001
C30	C	-1.274384	-0.044829	0.499999
C31	C	-1.916399	-0.578244	0.000007
C32	C	-1.416399	-0.078244	0.500007
N33	N	-1.498068	-0.548898	-0.353640
N34	N	-0.998068	-0.048898	0.146360
C35	C	-1.116822	-0.520498	0.000003
C36	C	-0.616822	-0.020498	0.500003
C37	C	-0.970043	-0.485962	0.000004
C38	C	-0.470043	0.014038	0.500004
C39	C	-1.585026	-0.734186	0.000004
C40	C	-1.085026	-0.234186	0.500004
C41	C	-1.618444	-0.876199	0.000008
C42	C	-1.118444	-0.376199	0.500008
C43	C	-1.560695	-0.076624	0.000001
C44	C	-1.060695	0.423376	0.500001
C45	C	-1.526160	0.070155	0.000006
C46	C	-1.026160	0.570155	0.500006
C47	C	-1.553502	-0.493090	-0.421421
C48	C	-1.053502	0.006910	0.078579
C49	C	-1.533366	-0.513385	-0.578587
C50	C	-1.033366	-0.013385	-0.078587
N51	N	-1.588808	-0.457569	0.353635
N52	N	-1.088808	0.042431	0.853635
H53	H	-0.907318	-0.381388	0.000036
H54	H	-0.407318	0.118612	0.500036
H55	H	-1.363864	-0.067539	0.000009
H56	H	-0.863864	0.432461	0.500009
H57	H	-1.421592	0.132886	0.000016
H58	H	-0.921592	0.632886	0.500016
H59	H	-1.723027	0.061086	0.000110
H60	H	-1.223027	0.561086	0.500110
H61	H	-1.615864	-0.430280	-0.363099
H62	H	-1.115864	0.069720	0.136901
H63	H	-1.107742	-0.323661	0.000032
H64	H	-0.607742	0.176339	0.500032
O65	O	-0.999472	-0.716764	0.000015
O66	O	-0.499472	-0.216764	0.500015
H67	H	-1.101723	-0.722155	0.000024
H68	H	-0.601723	-0.222155	0.500024
H69	H	-1.470989	-0.576187	-0.636906
H70	H	-0.970989	-0.076187	-0.136906
H71	H	-1.651173	-0.394755	-0.588046
H72	H	-1.151173	0.105245	-0.088046
H73	H	-1.179554	-0.625061	-0.000002
H74	H	-0.679554	-0.125061	0.499998
O75	O	-1.699208	-0.159703	-0.000001
O76	O	-1.199208	0.340297	0.499999
H77	H	-1.704596	-0.261953	-0.000013
H78	H	-1.204596	0.238047	0.499987
H79	H	-1.435696	-0.611696	-0.411964
H80	H	-0.935696	-0.111696	0.088036
