data_functionalizedCrystal
_audit_creation_method	'MofGen! by Chris Wilmer'
_symmetry_space_group_name_H-M	'P1'
_symmetry_Int_Tables_number	1
_symmetry_cell_setting	triclinic
loop_
_symmetry_equiv_pos_as_xyz
  x,y,z
_cell_length_a	10.654550
_cell_length_b	10.908937
_cell_length_c	10.065908
_cell_angle_alpha	96.607693
_cell_angle_beta	81.163160
_cell_angle_gamma	72.285429
loop_
_atom_site_label
_atom_site_type_symbol
_atom_site_fract_x
_atom_site_fract_y
_atom_site_fract_z
O1	O	1.651007	0.161328	-0.113601
O2	O	1.281796	0.178483	-0.113578
O3	O	1.515342	-0.016589	-0.113588
O4	O	1.417461	0.356400	-0.113591
O5	O	1.470774	0.020762	0.113403
O6	O	1.237228	0.215834	0.113413
O7	O	1.606439	0.198678	0.113390
Zn8	Zn	1.414757	0.213186	0.149441
Zn9	Zn	1.473478	0.163975	-0.149629
O10	O	1.372893	0.393750	0.113400
C11	C	1.212987	0.195900	-0.000080
C12	C	1.074361	0.192133	-0.000072
C13	C	1.502206	-0.045674	-0.000095
C14	C	1.529449	-0.187984	-0.000102
C15	C	1.458191	-0.384960	-0.000102
C16	C	1.430032	-0.237875	-0.000098
C17	C	0.969914	0.306984	-0.000092
C18	C	0.839669	0.303432	-0.000116
C19	C	0.918335	0.070168	-0.000104
C20	C	1.048575	0.073722	-0.000070
C21	C	0.995700	0.425395	-0.000093
C22	C	0.891250	0.540255	-0.000116
C23	C	0.761005	0.536703	-0.000139
C24	C	0.735210	0.418291	-0.000141
C25	C	1.675248	0.181262	-0.000111
C26	C	1.813876	0.185026	-0.000128
C27	C	1.386029	0.422835	-0.000096
C28	C	1.358788	0.565143	-0.000098
N29	N	1.374691	0.246771	0.353548
C30	C	1.459525	0.175657	0.421323
C31	C	1.428697	0.201515	0.578492
N32	N	1.513544	0.130391	0.646264
H33	H	1.564138	-0.451131	-0.000102
H34	H	0.912260	0.636663	-0.000103
O35	O	1.573292	0.080150	0.351568
C36	C	1.538583	-0.012899	0.268916
H37	H	1.434026	0.033966	0.247706
H38	H	1.538934	-0.098707	0.323855
C39	C	1.769852	-0.119499	0.159117
C40	C	1.641438	-0.061935	0.133058
H41	H	1.833300	-0.149752	0.075316
H42	H	1.793238	-0.056813	0.214805
H43	H	1.770125	-0.190998	0.204904
H44	H	1.641162	0.009572	0.087288
H45	H	1.618054	-0.124610	0.077359
O46	O	1.314768	0.296840	0.648214
C47	C	1.235381	0.241225	0.730864
H48	H	1.301865	0.144765	0.752115
H49	H	1.155187	0.222913	0.675903
C50	C	1.085525	0.453986	0.840585
C51	C	1.167184	0.335517	0.866695
H52	H	1.043453	0.512151	0.924370
H53	H	1.139006	0.491456	0.784899
H54	H	1.018708	0.438708	0.794781
H55	H	1.234009	0.350794	0.912483
H56	H	1.113713	0.298052	0.922393
O57	O	1.627201	0.034624	0.576685
C58	C	1.592183	-0.058358	0.494277
H59	H	1.487744	-0.011261	0.472900
H60	H	1.592095	-0.143898	0.549514
C61	C	1.823402	-0.165838	0.384776
C62	C	1.695133	-0.107991	0.358510
H63	H	1.886908	-0.196460	0.301031
H64	H	1.846996	-0.103198	0.440299
H65	H	1.823309	-0.237114	0.430809
H66	H	1.695223	-0.036707	0.312493
H67	H	1.671541	-0.170620	0.302976
H68	H	1.324074	-0.171705	-0.000081
O69	O	1.260768	0.342091	0.423275
C70	C	1.181381	0.286476	0.505926
H71	H	1.247865	0.190016	0.527177
H72	H	1.101187	0.268164	0.450964
C73	C	1.031525	0.499236	0.615647
C74	C	1.113185	0.380768	0.641757
H75	H	0.989453	0.557401	0.699431
H76	H	1.085006	0.536707	0.559960
H77	H	0.964708	0.483959	0.569842
H78	H	1.180009	0.396044	0.687545
H79	H	1.059713	0.343302	0.697454
H80	H	0.629149	0.415412	-0.000138
H81	H	1.635405	-0.254150	-0.000105
H82	H	0.897325	-0.026242	-0.000127
O83	O	1.232458	-0.355912	-0.000332
C84	C	1.233815	-0.297030	-0.117871
H85	H	1.324239	-0.359012	-0.200044
H86	H	1.240870	-0.195207	-0.091289
C87	C	0.992557	-0.210404	-0.070246
C88	C	1.103611	-0.286537	-0.171176
H89	H	0.912239	-0.203925	-0.103125
H90	H	0.991642	-0.250069	0.008945
H91	H	0.998455	-0.125559	-0.048103
H92	H	1.097720	-0.371385	-0.193305
H93	H	1.104522	-0.246886	-0.250373
H94	H	1.133621	-0.019800	-0.000057
H95	H	1.101749	0.428299	-0.000080
H96	H	0.675961	0.630230	-0.000144
