data_functionalizedCrystal
_audit_creation_method	'MofGen! by Chris Wilmer'
_symmetry_space_group_name_H-M	'P1'
_symmetry_Int_Tables_number	1
_symmetry_cell_setting	triclinic
loop_
_symmetry_equiv_pos_as_xyz
  x,y,z
_cell_length_a	13.897449
_cell_length_b	16.625539
_cell_length_c	13.897448
_cell_angle_alpha	89.972451
_cell_angle_beta	90.018972
_cell_angle_gamma	89.980569
loop_
_atom_site_label
_atom_site_type_symbol
_atom_site_fract_x
_atom_site_fract_y
_atom_site_fract_z
Zn1	Zn	1.474690	-0.455889	-0.383980
Zn2	Zn	1.724690	-0.205889	-0.133980
Zn3	Zn	1.974690	0.044111	0.116020
Zn4	Zn	2.224690	0.294111	0.366020
Zn5	Zn	1.474588	-0.321058	-0.545293
Zn6	Zn	1.724588	-0.071058	-0.295293
Zn7	Zn	1.974588	0.178942	-0.045293
Zn8	Zn	2.224588	0.428942	0.204707
Zn9	Zn	1.313383	-0.321072	-0.384018
Zn10	Zn	1.563383	-0.071072	-0.134018
Zn11	Zn	1.813383	0.178928	0.115982
Zn12	Zn	2.063383	0.428928	0.365982
Zn13	Zn	1.313361	-0.455851	-0.545239
Zn14	Zn	1.563361	-0.205851	-0.295239
Zn15	Zn	1.813361	0.044149	-0.045239
Zn16	Zn	2.063361	0.294149	0.204761
O17	O	1.394006	-0.388468	-0.464632
O18	O	1.644006	-0.138468	-0.214632
O19	O	1.894006	0.111532	0.035368
O20	O	2.144006	0.361532	0.285368
O21	O	1.609658	-0.438014	-0.405386
O22	O	1.859658	-0.188014	-0.155386
O23	O	2.109658	0.061986	0.094614
O24	O	2.359658	0.311986	0.344614
O25	O	1.453170	-0.208228	-0.523938
O26	O	1.703170	0.041772	-0.273938
O27	O	1.953170	0.291772	-0.023938
O28	O	2.203170	0.541772	0.226062
O29	O	1.334833	-0.338978	-0.249031
O30	O	1.584833	-0.088978	0.000969
O31	O	1.834833	0.161022	0.250969
O32	O	2.084833	0.411022	0.500969
O33	O	1.609583	-0.338954	-0.523902
O34	O	1.859583	-0.088954	-0.273902
O35	O	2.109583	0.161046	-0.023902
O36	O	2.359583	0.411046	0.226098
O37	O	1.453344	-0.438027	-0.249004
O38	O	1.703344	-0.188027	0.000996
O39	O	1.953344	0.061973	0.250996
O40	O	2.203344	0.311973	0.500996
O41	O	1.334734	-0.208238	-0.405450
O42	O	1.584734	0.041762	-0.155450
O43	O	1.834734	0.291762	0.094550
O44	O	2.084734	0.541762	0.344550
O45	O	1.178398	-0.338941	-0.405397
O46	O	1.428398	-0.088941	-0.155397
O47	O	1.678398	0.161059	0.094603
O48	O	1.928398	0.411059	0.344603
O49	O	1.334795	-0.568688	-0.523809
O50	O	1.584795	-0.318688	-0.273809
O51	O	1.834795	-0.068688	-0.023809
O52	O	2.084795	0.181312	0.226191
O53	O	1.178382	-0.437962	-0.523845
O54	O	1.428382	-0.187962	-0.273845
O55	O	1.678382	0.062038	-0.023845
O56	O	1.928382	0.312038	0.226155
O57	O	1.453323	-0.568716	-0.405333
O58	O	1.703323	-0.318716	-0.155333
O59	O	1.953323	-0.068716	0.094667
O60	O	2.203323	0.181284	0.344667
O61	O	1.453149	-0.338917	-0.680268
O62	O	1.703149	-0.088917	-0.430268
O63	O	1.953149	0.161083	-0.180268
O64	O	2.203149	0.411083	0.069732
O65	O	1.334696	-0.437948	-0.680227
O66	O	1.584696	-0.187948	-0.430227
O67	O	1.834696	0.062052	-0.180227
O68	O	2.084696	0.312052	0.069773
C69	C	1.143391	-0.388449	-0.464620
C70	C	1.393391	-0.138449	-0.214620
C71	C	1.643391	0.111551	0.035380
C72	C	1.893391	0.361551	0.285380
C73	C	1.036177	-0.388460	-0.464637
C74	C	1.286177	-0.138460	-0.214637
C75	C	1.536177	0.111540	0.035363
C76	C	1.786177	0.361540	0.285363
C77	C	0.839882	-0.388482	-0.464641
C78	C	1.089882	-0.138482	-0.214641
C79	C	1.339882	0.111518	0.035359
C80	C	1.589882	0.361518	0.285359
C81	C	0.949115	-0.388468	-0.464636
C82	C	1.199115	-0.138468	-0.214636
C83	C	1.449115	0.111532	0.035364
C84	C	1.699115	0.361532	0.285364
C85	C	1.394068	-0.598777	-0.464561
C86	C	1.644068	-0.348777	-0.214561
C87	C	1.894068	-0.098777	0.035439
C88	C	2.144068	0.151223	0.285439
C89	C	1.394095	-0.688398	-0.464530
C90	C	1.644095	-0.438398	-0.214530
C91	C	1.894095	-0.188398	0.035470
C92	C	2.144095	0.061602	0.285470
C93	C	1.394139	-1.016574	-0.464422
C94	C	1.644139	-0.766574	-0.214422
C95	C	1.894139	-0.516574	0.035578
C96	C	2.144139	-0.266574	0.285578
C97	C	1.394124	-0.925265	-0.464455
C98	C	1.644124	-0.675265	-0.214455
C99	C	1.894124	-0.425265	0.035545
C100	C	2.144124	-0.175265	0.285545
C101	C	1.394118	-0.852489	-0.464477
C102	C	1.644118	-0.602489	-0.214477
C103	C	1.894118	-0.352489	0.035523
C104	C	2.144118	-0.102489	0.285523
C105	C	1.394102	-0.761174	-0.464508
C106	C	1.644102	-0.511174	-0.214508
C107	C	1.894102	-0.261174	0.035492
C108	C	2.144102	-0.011174	0.285492
C109	C	1.645598	-0.388486	-0.464646
C110	C	1.895598	-0.138486	-0.214646
C111	C	2.145598	0.111514	0.035354
C112	C	2.395598	0.361514	0.285354
C113	C	1.752812	-0.388495	-0.464652
C114	C	2.002812	-0.138495	-0.214652
C115	C	2.252812	0.111505	0.035348
C116	C	2.502812	0.361505	0.285348
C117	C	1.393935	-0.388444	-0.715247
C118	C	1.643935	-0.138444	-0.465247
C119	C	1.893935	0.111556	-0.215247
C120	C	2.143935	0.361556	0.034753
C121	C	1.393993	-0.388461	-0.822461
C122	C	1.643993	-0.138461	-0.572461
C123	C	1.893993	0.111539	-0.322461
C124	C	2.143993	0.361539	-0.072461
C125	C	1.393999	-0.178977	-0.464634
C126	C	1.643999	0.071023	-0.214634
C127	C	1.893999	0.321023	0.035366
C128	C	2.143999	0.571023	0.285366
C129	C	1.394159	-0.089356	-0.464393
C130	C	1.644159	0.160644	-0.214393
C131	C	1.894159	0.410644	0.035607
C132	C	2.144159	0.660644	0.285607
C133	C	1.394095	-0.388512	-1.018756
C134	C	1.644095	-0.138512	-0.768756
C135	C	1.894095	0.111488	-0.518756
C136	C	2.144095	0.361488	-0.268756
C137	C	1.394036	-0.388486	-0.909523
C138	C	1.644036	-0.138486	-0.659523
C139	C	1.894036	0.111514	-0.409523
C140	C	2.144036	0.361514	-0.159523
C141	C	1.394102	-0.388509	-0.213039
C142	C	1.644102	-0.138509	0.036961
C143	C	1.894102	0.111491	0.286961
C144	C	2.144102	0.361491	0.536961
C145	C	1.394144	-0.388526	-0.105825
C146	C	1.644144	-0.138526	0.144175
C147	C	1.894144	0.111474	0.394175
C148	C	2.144144	0.361474	0.644175
