data_functionalizedCrystal
_audit_creation_method	'MofGen! by Chris Wilmer'
_symmetry_space_group_name_H-M	'P1'
_symmetry_Int_Tables_number	1
_symmetry_cell_setting	triclinic
loop_
_symmetry_equiv_pos_as_xyz
  x,y,z
_cell_length_a	19.805407
_cell_length_b	18.101397
_cell_length_c	19.805399
_cell_angle_alpha	90.033690
_cell_angle_beta	89.980427
_cell_angle_gamma	89.974888
loop_
_atom_site_label
_atom_site_type_symbol
_atom_site_fract_x
_atom_site_fract_y
_atom_site_fract_z
Zn1	Zn	1.034742	0.294847	-0.382691
Zn2	Zn	1.534742	0.794847	0.117309
Zn3	Zn	1.034659	0.418690	-0.269491
Zn4	Zn	1.534659	0.918690	0.230509
Zn5	Zn	0.921556	0.294867	-0.269516
Zn6	Zn	1.421556	0.794867	0.230484
Zn7	Zn	0.921522	0.418651	-0.382637
Zn8	Zn	1.421522	0.918651	0.117363
O9	O	0.978120	0.356764	-0.326084
O10	O	1.478120	0.856764	0.173916
O11	O	1.129447	0.311283	-0.367687
O12	O	1.629447	0.811283	0.132313
O13	O	1.019635	0.402290	-0.174777
O14	O	1.519635	0.902290	0.325223
O15	O	0.936619	0.191232	-0.284561
O16	O	1.436619	0.691232	0.215439
O17	O	1.129387	0.402270	-0.284519
O18	O	1.629387	0.902270	0.215481
O19	O	1.019776	0.191217	-0.367711
O20	O	1.519776	0.691217	0.132289
O21	O	0.936539	0.311318	-0.174796
O22	O	1.436539	0.811318	0.325204
O23	O	0.826835	0.311279	-0.284509
O24	O	1.326835	0.811279	0.215491
O25	O	0.936562	0.402203	-0.477361
O26	O	1.436562	0.902203	0.022639
O27	O	0.826810	0.402223	-0.367620
O28	O	1.326810	0.902223	0.132380
O29	O	1.019743	0.311245	-0.477400
O30	O	1.519743	0.811245	0.022600
O31	O	1.019603	0.522318	-0.284467
O32	O	1.519603	1.022318	0.215533
O33	O	0.936482	0.522289	-0.367595
O34	O	1.436482	1.022289	0.132405
C35	C	0.802264	0.356750	-0.326062
C36	C	1.302264	0.856750	0.173938
C37	C	0.727032	0.356761	-0.326068
C38	C	1.227032	0.856761	0.173932
C39	C	0.978048	0.549174	-0.326037
C40	C	1.478048	1.049174	0.173963
C41	C	0.978079	0.631488	-0.326040
C42	C	1.478079	1.131488	0.173960
C43	C	0.691693	0.404187	-0.369274
C44	C	1.191693	0.904187	0.130726
C45	C	0.621004	0.404188	-0.369283
C46	C	1.121004	0.904188	0.130717
C47	C	0.585656	0.356767	-0.326084
C48	C	1.085656	0.856767	0.173916
C49	C	0.621001	0.309336	-0.282876
C50	C	1.121001	0.809336	0.217124
C51	C	0.691688	0.309332	-0.282871
C52	C	1.191688	0.809332	0.217129
C53	C	0.335927	0.309353	-0.282899
C54	C	0.835927	0.809353	0.217101
C55	C	0.265235	0.309363	-0.282906
C56	C	0.765235	0.809363	0.217094
C57	C	0.265244	0.404209	-0.369311
C58	C	0.765244	0.904209	0.130689
C59	C	0.335931	0.404205	-0.369306
C60	C	0.835931	0.904205	0.130694
C61	C	0.371269	0.356771	-0.326101
C62	C	0.871269	0.856771	0.173899
C63	C	0.447917	0.356770	-0.326092
C64	C	0.947917	0.856770	0.173908
C65	C	0.509009	0.356772	-0.326089
C66	C	1.009009	0.856772	0.173911
C67	C	0.978143	0.930579	-0.326081
C68	C	1.478143	1.430579	0.173919
C69	C	1.030297	0.899242	-0.273641
C70	C	1.530297	1.399242	0.226359
C71	C	1.030484	0.813623	-0.273783
C72	C	1.530484	1.313623	0.226217
C73	C	0.978111	0.782197	-0.326060
C74	C	1.478111	1.282197	0.173940
C75	C	0.997444	0.813206	-0.397403
C76	C	1.497444	1.313206	0.102597
C77	C	0.997841	0.898851	-0.397111
C78	C	1.497841	1.398851	0.102889
C79	C	0.906519	0.899088	-0.307798
C80	C	1.406519	1.399088	0.192202
C81	C	0.906879	0.813438	-0.306212
C82	C	1.406879	1.313438	0.193788
C83	C	0.978092	0.698337	-0.326053
C84	C	1.478092	1.198337	0.173947
C85	C	0.978164	1.014439	-0.326093
C86	C	1.478164	1.514439	0.173907
C87	C	1.154663	0.356779	-0.326106
C88	C	1.654663	0.856779	0.173894
C89	C	1.229895	0.356785	-0.326115
C90	C	1.729895	0.856785	0.173885
C91	C	0.978158	0.356717	-0.502626
C92	C	1.478158	0.856717	-0.002626
C93	C	0.978174	0.356697	-0.577858
C94	C	1.478174	0.856697	-0.077858
C95	C	0.978192	1.163602	-0.326127
C96	C	1.478192	1.663602	0.173873
C97	C	0.978175	1.081288	-0.326101
C98	C	1.478175	1.581288	0.173899
C99	C	1.021488	0.309333	-0.613224
C100	C	1.521488	0.809333	-0.113224
C101	C	1.021495	0.309311	-0.683913
C102	C	1.521495	0.809311	-0.183913
C103	C	0.978191	0.356659	-0.719234
C104	C	1.478191	0.856659	-0.219234
C105	C	0.934872	0.404025	-0.683863
C106	C	1.434872	0.904025	-0.183863
C107	C	0.934863	0.404042	-0.613176
C108	C	1.434863	0.904042	-0.113176
C109	C	0.934911	0.403956	-0.968937
C110	C	1.434911	0.903956	-0.468937
C111	C	0.934925	0.403937	-1.039629
C112	C	1.434925	0.903937	-0.539629
C113	C	1.021543	0.309225	-1.039673
C114	C	1.521543	0.809225	-0.539673
C115	C	1.021533	0.309242	-0.968986
C116	C	1.521533	0.809242	-0.468986
C117	C	0.978212	0.356606	-0.933622
C118	C	1.478212	0.856606	-0.433622
C119	C	0.978204	0.356627	-0.856973
C120	C	1.478204	0.856627	-0.356973
C121	C	0.978202	0.356641	-0.795881
C122	C	1.478202	0.856641	-0.295881
C123	C	0.978121	0.356757	-0.150228
C124	C	1.478121	0.856757	0.349772
C125	C	0.978236	0.356568	-0.074996
C126	C	1.478236	0.856568	0.425004
H127	H	0.720468	0.442805	-0.404450
H128	H	1.220468	0.942805	0.095550
C129	C	0.887238	0.456107	-0.722712
C130	C	1.387238	0.956107	-0.222712
H131	H	0.861436	0.484314	-0.691523
H132	H	1.361436	0.984314	-0.191523
H133	H	0.913118	0.488371	-0.750281
H134	H	1.413118	0.988371	-0.250281
H135	H	0.857762	0.427765	-0.750290
H136	H	1.357762	0.927765	-0.250290
H137	H	0.865934	0.792054	-0.341612
H138	H	1.365934	1.292054	0.158388
C139	C	0.374810	0.456365	-0.416827
C140	C	0.874810	0.956365	0.083173
H141	H	0.343638	0.484606	-0.442566
H142	H	0.843638	0.984606	0.057434
H143	H	0.402365	0.488594	-0.390880
H144	H	0.902365	0.988594	0.109120
H145	H	0.402404	0.428068	-0.446367
H146	H	0.902404	0.928068	0.053633
H147	H	0.899585	0.442604	-0.584382
H148	H	1.399585	0.942604	-0.084382
H149	H	0.888928	0.920747	-0.256674
H150	H	1.388928	1.420747	0.243326
H151	H	0.236463	0.442829	-0.404493
H152	H	0.736463	0.942829	0.095507
H153	H	0.867661	0.919355	-0.345993
H154	H	1.367661	1.419355	0.154007
C155	C	1.069191	0.257120	-1.078576
C156	C	1.569191	0.757120	-0.578576
H157	H	1.062992	0.263883	-1.125734
H158	H	1.562992	0.763883	-0.625734
H159	H	1.114660	0.267968	-1.066997
H160	H	1.614660	0.767968	-0.566997
H161	H	1.059305	0.207361	-1.067004
H162	H	1.559305	0.707361	-0.567004
H163	H	0.592234	0.442808	-0.404465
H164	H	1.092234	0.942808	0.095535
C165	C	0.887266	0.456057	-0.930041
C166	C	1.387266	0.956057	-0.430041
H167	H	0.893454	0.449285	-0.882884
H168	H	1.393454	0.949285	-0.382884
H169	H	0.897151	0.505813	-0.941612
H170	H	1.397151	1.005813	-0.441612
H171	H	0.841794	0.445208	-0.941624
H172	H	1.341794	0.945208	-0.441624
H173	H	1.018345	0.919883	-0.220580
H174	H	1.518345	1.419883	0.279420
C175	C	0.226354	0.257191	-0.235390
C176	C	0.726354	0.757191	0.264610
H177	H	0.257523	0.228935	-0.209663
H178	H	0.757523	0.728935	0.290337
H179	H	0.198756	0.285476	-0.205850
H180	H	0.698756	0.785476	0.294150
H181	H	0.198801	0.224966	-0.261350
H182	H	0.698801	0.724966	0.238650
H183	H	1.056767	0.270744	-0.712704
H184	H	1.556767	0.770744	-0.212704
C185	C	1.069165	0.257158	-0.930136
C186	C	1.569165	0.757158	-0.430136
H187	H	1.094958	0.228940	-0.961323
H188	H	1.594958	0.728940	-0.461323
H189	H	1.098639	0.285493	-0.902555
H190	H	1.598639	0.785493	-0.402555
H191	H	1.043276	0.224894	-0.902569
H192	H	1.543276	0.724894	-0.402569
H193	H	1.083062	0.920710	-0.285599
H194	H	1.583062	1.420710	0.214401
H195	H	0.364691	0.270735	-0.247714
H196	H	0.864691	0.770735	0.252286
H197	H	0.899659	0.442494	-1.068386
H198	H	1.399659	0.942494	-0.568386
H199	H	1.056753	0.270779	-0.584471
H200	H	1.556753	0.770779	-0.084471
C201	C	1.014154	0.785300	-0.202320
C202	C	1.514154	1.285300	0.297680
H203	H	1.007348	0.826138	-0.172940
H204	H	1.507348	1.326138	0.327060
H205	H	0.974352	0.756074	-0.203698
H206	H	1.474352	1.256074	0.296302
H207	H	1.050700	0.756226	-0.186227
H208	H	1.550700	1.256226	0.313773
H209	H	1.083542	0.793080	-0.285883
H210	H	1.583542	1.293080	0.214117
H211	H	0.592215	0.270722	-0.247705
H212	H	1.092215	0.770722	0.252295
C213	C	0.948764	0.926857	-0.451701
C214	C	1.448764	1.426857	0.048299
H215	H	0.928676	0.885889	-0.473960
H216	H	1.428676	1.385889	0.026040
H217	H	0.914555	0.956064	-0.431217
H218	H	1.414555	1.456064	0.068783
H219	H	0.972794	0.955884	-0.483615
H220	H	1.472794	1.455884	0.016385
C221	C	0.730561	0.257163	-0.235346
C222	C	1.230561	0.757163	0.264654
H223	H	0.699387	0.228924	-0.209615
H224	H	1.199387	0.728924	0.290385
H225	H	0.758157	0.224933	-0.261294
H226	H	1.258157	0.724933	0.238706
H227	H	0.758115	0.285449	-0.205800
H228	H	1.258115	0.785449	0.294200
C229	C	1.068567	0.925764	-0.418024
C230	C	1.568567	1.425764	0.081976
H231	H	1.096787	0.884356	-0.426614
H232	H	1.596787	1.384356	0.073386
H233	H	1.065123	0.954965	-0.457711
H234	H	1.565123	1.454965	0.042289
H235	H	1.087432	0.954565	-0.382636
H236	H	1.587432	1.454565	0.117364
C237	C	0.887179	0.786065	-0.235290
C238	C	1.387179	1.286065	0.264710
H239	H	0.922212	0.755720	-0.217844
H240	H	1.422212	1.255720	0.282156
H241	H	0.880608	0.827253	-0.206276
H242	H	1.380608	1.327253	0.293724
H243	H	0.846566	0.758316	-0.237999
H244	H	1.346566	1.258316	0.262001
H245	H	1.049215	0.791699	-0.413155
H246	H	1.549215	1.291699	0.086845
C247	C	0.947708	0.785701	-0.451613
C248	C	1.447708	1.285701	0.048387
H249	H	0.914634	0.754986	-0.431170
H250	H	1.414634	1.254986	0.068830
H251	H	0.926218	0.826823	-0.472244
H252	H	1.426218	1.326823	0.027756
H253	H	0.971592	0.758311	-0.484866
H254	H	1.471592	1.258311	0.015134
