data_functionalizedCrystal
_audit_creation_method	'MofGen! by Chris Wilmer'
_symmetry_space_group_name_H-M	'P1'
_symmetry_Int_Tables_number	1
_symmetry_cell_setting	triclinic
loop_
_symmetry_equiv_pos_as_xyz
  x,y,z
_cell_length_a	15.944545
_cell_length_b	14.421503
_cell_length_c	15.944551
_cell_angle_alpha	90.000609
_cell_angle_beta	96.502545
_cell_angle_gamma	89.990135
loop_
_atom_site_label
_atom_site_type_symbol
_atom_site_fract_x
_atom_site_fract_y
_atom_site_fract_z
O1	O	1.114514	0.077054	-0.108301
O2	O	1.614514	0.577054	0.391699
O3	O	0.869964	0.077069	-0.121663
O4	O	1.369964	0.577069	0.378337
O5	O	0.998917	0.077053	0.007293
O6	O	1.498917	0.577053	0.507293
O7	O	0.985561	0.077070	-0.237257
O8	O	1.485561	0.577070	0.262743
O9	O	0.998933	-0.077171	0.007285
O10	O	1.498933	0.422829	0.507285
O11	O	0.869979	-0.077154	-0.121671
O12	O	1.369979	0.422846	0.378329
O13	O	1.114530	-0.077170	-0.108309
O14	O	1.614530	0.422830	0.391691
Cu15	Cu	0.992256	-0.091244	-0.114991
Cu16	Cu	1.492256	0.408756	0.385009
Cu17	Cu	0.992237	0.091143	-0.114981
Cu18	Cu	1.492237	0.591143	0.385019
O19	O	0.985576	-0.077153	-0.237265
O20	O	1.485576	0.422847	0.262735
C21	C	0.838677	-0.000041	-0.121113
C22	C	1.338677	0.499959	0.378887
C23	C	0.745431	-0.000035	-0.119453
C24	C	1.245431	0.499965	0.380547
C25	C	0.474798	-0.000051	-0.034559
C26	C	0.974798	0.499949	0.465441
C27	C	0.525388	-0.076091	-0.075492
C28	C	1.025388	0.423909	0.424508
C29	C	0.409787	-0.000052	-0.113532
C30	C	0.909787	0.499948	0.386468
C31	C	0.525353	0.075961	-0.075505
C32	C	1.025353	0.575961	0.424495
C33	C	0.574701	-0.000042	-0.116437
C34	C	1.074701	0.499958	0.383563
C35	C	0.459148	-0.076154	-0.154444
C36	C	0.959148	0.423846	0.345556
C37	C	0.459110	0.075967	-0.154445
C38	C	0.959110	0.575967	0.345555
C39	C	0.509667	-0.000092	-0.195436
C40	C	1.009667	0.499908	0.304564
C41	C	0.314785	-0.000058	-0.111856
C42	C	0.814785	0.499942	0.388144
C43	C	0.669700	-0.000042	-0.118119
C44	C	1.169700	0.499958	0.381881
N45	N	0.992275	-0.219525	-0.114997
N46	N	1.492275	0.280475	0.385003
C47	C	1.051916	-0.469162	-0.055355
C48	C	1.551916	0.030838	0.444645
C49	C	0.976016	-0.530955	-0.039039
C50	C	1.476016	-0.030955	0.460961
C51	C	0.992256	-0.408687	-0.114987
C52	C	1.492256	0.091313	0.385013
C53	C	1.068138	-0.530987	-0.131253
C54	C	1.568138	-0.030987	0.368747
C55	C	0.992245	-0.591408	-0.114975
C56	C	1.492245	-0.091408	0.385025
C57	C	0.916318	-0.469119	-0.098634
C58	C	1.416318	0.030881	0.401366
C59	C	1.008490	-0.469146	-0.190881
C60	C	1.508490	0.030854	0.309119
C61	C	0.932536	-0.530911	-0.174598
C62	C	1.432536	-0.030911	0.325402
C63	C	0.992264	-0.303426	-0.114992
C64	C	1.492264	0.196574	0.385008
C65	C	0.992229	-0.696667	-0.114971
C66	C	1.492229	-0.196667	0.385029
C67	C	1.145816	-0.000058	-0.108859
C68	C	1.645816	0.499942	0.391141
C69	C	1.239062	-0.000057	-0.110519
C70	C	1.739062	0.499943	0.389481
C71	C	0.998370	-0.000059	0.038583
C72	C	1.498370	0.499941	0.538583
C73	C	0.996708	-0.000060	0.131829
C74	C	1.496708	0.499940	0.631829
N75	N	0.992225	0.219424	-0.114968
N76	N	1.492225	0.719424	0.385032
C77	C	0.986123	-0.000039	-0.268555
C78	C	1.486123	0.499961	0.231445
C79	C	0.987785	-0.000033	-0.361801
C80	C	1.487785	0.499967	0.138199
C81	C	0.912803	-0.000042	0.346684
C82	C	1.412803	0.499958	0.846684
C83	C	0.951774	-0.076086	0.407698
C84	C	1.451774	0.423914	0.907698
C85	C	0.993701	-0.000052	0.302555
C86	C	1.493701	0.499948	0.802555
C87	C	0.951777	0.075967	0.407690
C88	C	1.451777	0.575967	0.907690
C89	C	0.990790	-0.000041	0.467468
C90	C	1.490790	0.499959	0.967468
C91	C	1.032693	-0.076159	0.362341
C92	C	1.532693	0.423841	0.862341
C93	C	1.032686	0.075961	0.362326
C94	C	1.532686	0.575961	0.862326
C95	C	1.071715	-0.000101	0.423322
C96	C	1.571715	0.499899	0.923322
C97	C	0.995375	-0.000060	0.207553
C98	C	1.495375	0.499940	0.707553
C99	C	0.989122	-0.000041	0.562469
C100	C	1.489122	0.499959	1.062469
H101	H	0.554325	-0.140381	-0.042143
H102	H	1.054325	0.359619	0.457857
H103	H	1.102315	-0.442048	-0.004898
H104	H	1.602315	0.057952	0.495102
O105	O	0.421010	-0.161414	-0.198578
O106	O	0.921010	0.338586	0.301422
H107	H	0.351600	-0.160770	-0.196969
H108	H	0.851600	0.339230	0.303031
H109	H	1.138922	-0.000148	0.456483
H110	H	1.638922	0.499852	0.956483
H111	H	0.525159	-0.000131	-0.263501
H112	H	1.025159	0.499869	0.236499
O113	O	1.153147	-0.566981	-0.149490
O114	O	1.653147	-0.066981	0.350510
H115	H	1.145301	-0.609321	-0.207985
H116	H	1.645301	-0.109321	0.292015
H117	H	0.962274	-0.558106	0.025147
H118	H	1.462274	-0.058106	0.525147
O119	O	1.026723	-0.433152	-0.275877
O120	O	1.526723	0.066848	0.224123
H121	H	0.972582	-0.390817	-0.304072
H122	H	1.472582	0.109183	0.195928
H123	H	0.917564	-0.140370	0.427802
H124	H	1.417564	0.359630	0.927802
H125	H	0.554264	0.140243	-0.042136
H126	H	1.054264	0.640243	0.457864
H127	H	1.066866	0.140250	0.342200
H128	H	1.566866	0.640250	0.842200
O129	O	0.831295	-0.433287	-0.080276
O130	O	1.331295	0.066713	0.419724
H131	H	0.831981	-0.356327	-0.080383
H132	H	1.331981	0.143673	0.419617
O133	O	0.420742	0.161129	-0.198571
O134	O	0.920742	0.661129	0.301429
H135	H	0.471453	0.203930	-0.221254
H136	H	0.971453	0.703930	0.278746
O137	O	0.454048	-0.000150	0.055525
O138	O	0.954048	0.499850	0.555525
H139	H	0.480719	-0.063372	0.088114
H140	H	0.980719	0.436628	0.588114
O141	O	0.865634	-0.566626	-0.241387
O142	O	1.365634	-0.066626	0.258613
H143	H	0.802742	-0.541718	-0.227673
H144	H	1.302742	-0.041718	0.272327
O145	O	0.823864	-0.000130	0.302549
O146	O	1.323864	0.499870	0.802549
H147	H	0.790490	-0.063348	0.320594
H148	H	1.290490	0.436652	0.820594
O149	O	1.077984	-0.161418	0.335869
O150	O	1.577984	0.338582	0.835869
H151	H	1.078828	-0.160772	0.266360
H152	H	1.578828	0.339228	0.766360
O153	O	0.906437	0.161127	0.434303
O154	O	1.406437	0.661127	0.934303
H155	H	0.840500	0.160964	0.403299
H156	H	1.340500	0.660964	0.903299
