data_functionalizedCrystal
_audit_creation_method	'MofGen! by Chris Wilmer'
_symmetry_space_group_name_H-M	'P1'
_symmetry_Int_Tables_number	1
_symmetry_cell_setting	triclinic
loop_
_symmetry_equiv_pos_as_xyz
  x,y,z
_cell_length_a	16.974800
_cell_length_b	17.666332
_cell_length_c	16.992695
_cell_angle_alpha	89.993578
_cell_angle_beta	92.978326
_cell_angle_gamma	86.352538
loop_
_atom_site_label
_atom_site_type_symbol
_atom_site_fract_x
_atom_site_fract_y
_atom_site_fract_z
O1	O	1.055459	-0.001733	-0.099873
O2	O	1.388793	0.331600	0.233460
O3	O	1.722126	0.664933	0.566793
O4	O	0.826059	0.012327	-0.112614
O5	O	1.159392	0.345660	0.220719
O6	O	1.492725	0.678994	0.554053
O7	O	0.939839	0.005347	0.007898
O8	O	1.273173	0.338681	0.341231
O9	O	1.606506	0.672014	0.674565
O10	O	0.941679	0.005246	-0.220385
O11	O	1.275012	0.338580	0.112948
O12	O	1.608345	0.671913	0.446281
O13	O	0.939818	-0.120548	0.007904
O14	O	1.273151	0.212785	0.341238
O15	O	1.606484	0.546118	0.674571
O16	O	0.826037	-0.113569	-0.112608
O17	O	1.159370	0.219765	0.220726
O18	O	1.492704	0.553098	0.554059
O19	O	1.055437	-0.127629	-0.099867
O20	O	1.388771	0.205705	0.233466
O21	O	1.722104	0.539038	0.566800
Cu22	Cu	0.940735	-0.132094	-0.106237
Cu23	Cu	1.274069	0.201239	0.227097
Cu24	Cu	1.607402	0.534573	0.560430
Cu25	Cu	0.940761	0.016792	-0.106244
Cu26	Cu	1.274094	0.350125	0.227089
Cu27	Cu	1.607428	0.683459	0.560422
O28	O	0.941657	-0.120649	-0.220379
O29	O	1.274990	0.212684	0.112954
O30	O	1.608324	0.546018	0.446288
C31	C	0.796559	-0.048813	-0.112128
C32	C	1.129892	0.284520	0.221205
C33	C	1.463226	0.617853	0.554538
C34	C	0.708691	-0.043428	-0.110681
C35	C	1.042025	0.289905	0.222652
C36	C	1.375358	0.623238	0.555986
C37	C	0.667404	-0.109525	-0.109996
C38	C	1.000737	0.223808	0.223338
C39	C	1.334070	0.557141	0.556671
C40	C	0.584843	-0.104468	-0.108623
C41	C	0.918177	0.228866	0.224710
C42	C	1.251510	0.562199	0.558043
C43	C	0.543572	-0.033312	-0.107942
C44	C	0.876905	0.300022	0.225391
C45	C	1.210238	0.633355	0.558725
C46	C	0.584865	0.032791	-0.108625
C47	C	0.918199	0.366124	0.224708
C48	C	1.251532	0.699457	0.558042
C49	C	0.667425	0.027732	-0.109992
C50	C	1.000758	0.361065	0.223342
C51	C	1.334091	0.694399	0.556675
C52	C	0.296658	-0.010823	-0.103850
C53	C	0.629991	0.322510	0.229484
C54	C	0.963324	0.655843	0.562817
C55	C	0.214093	-0.005770	-0.102485
C56	C	0.547426	0.327564	0.230848
C57	C	0.880759	0.660897	0.564182
C58	C	0.214076	-0.143029	-0.102482
C59	C	0.547410	0.190305	0.230851
C60	C	0.880743	0.523638	0.564185
C61	C	0.296637	-0.148081	-0.103854
C62	C	0.629970	0.185252	0.229480
C63	C	0.963303	0.518586	0.562813
C64	C	0.337923	-0.081979	-0.104532
C65	C	0.671257	0.251355	0.228801
C66	C	1.004590	0.584688	0.562134
N67	N	0.459182	-0.028140	-0.106542
N68	N	0.792515	0.305193	0.226792
N69	N	1.125848	0.638527	0.560125
N70	N	0.422312	-0.087151	-0.105927
N71	N	0.755646	0.246182	0.227406
N72	N	1.088979	0.579515	0.560740
N73	N	0.940723	-0.236813	-0.106231
N74	N	1.274056	0.096521	0.227103
N75	N	1.607390	0.429854	0.560436
C76	C	0.991124	-0.279514	-0.052894
C77	C	1.324457	0.053819	0.280439
C78	C	1.657791	0.387153	0.613772
C79	C	0.991128	-0.358762	-0.052890
C80	C	1.324462	-0.025429	0.280443
C81	C	1.657795	0.307905	0.613776
C82	C	0.940740	-0.395306	-0.106237
C83	C	1.274073	-0.061972	0.227097
C84	C	1.607407	0.271361	0.560430
C85	C	0.890329	-0.352594	-0.159577
C86	C	1.223662	-0.019261	0.173756
C87	C	1.556996	0.314073	0.507089
C88	C	0.890321	-0.273347	-0.159575
C89	C	1.223654	0.059986	0.173759
C90	C	1.556987	0.393319	0.507092
N91	N	0.935060	-0.519373	-0.175624
N92	N	1.268393	-0.186039	0.157709
N93	N	1.601726	0.147294	0.491043
N94	N	0.935072	-0.594654	-0.175624
N95	N	1.268406	-0.261320	0.157709
N96	N	1.601739	0.072013	0.491043
C97	C	0.940762	-0.634071	-0.106248
C98	C	1.274095	-0.300738	0.227086
C99	C	1.607428	0.032596	0.560419
N100	N	0.946453	-0.595364	-0.036869
N101	N	1.279786	-0.262031	0.296465
N102	N	1.613120	0.071303	0.629798
N103	N	0.946444	-0.520076	-0.036869
N104	N	1.279778	-0.186743	0.296464
N105	N	1.613111	0.146590	0.629798
C106	C	0.940743	-0.481235	-0.106246
C107	C	1.274077	-0.147902	0.227088
C108	C	1.607410	0.185432	0.560421
C109	C	0.991170	-0.762702	-0.052903
C110	C	1.324503	-0.429369	0.280431
C111	C	1.657837	-0.096036	0.613764
C112	C	0.991169	-0.841951	-0.052898
C113	C	1.324502	-0.508618	0.280436
C114	C	1.657836	-0.175285	0.613769
C115	C	0.890374	-0.835782	-0.159592
C116	C	1.223707	-0.502449	0.173742
C117	C	1.557040	-0.169116	0.507075
C118	C	0.890371	-0.756535	-0.159590
C119	C	1.223704	-0.423201	0.173744
C120	C	1.557037	-0.089868	0.507077
C121	C	0.940773	-0.720000	-0.106246
C122	C	1.274107	-0.386666	0.227087
C123	C	1.607440	-0.053333	0.560421
C124	C	1.084937	-0.066487	-0.100353
C125	C	1.418270	0.266847	0.232981
C126	C	1.751604	0.600180	0.566314
C127	C	1.172805	-0.071867	-0.101800
C128	C	1.506138	0.261466	0.231534
C129	C	1.839472	0.594800	0.564867
C130	C	0.937462	-0.057455	0.037111
C131	C	1.270796	0.275878	0.370444
C132	C	1.604129	0.609211	0.703778
C133	C	0.930403	-0.057023	0.124147
C134	C	1.263736	0.276311	0.457481
C135	C	1.597070	0.609644	0.790814
N136	N	0.940779	0.121510	-0.106244
N137	N	1.274112	0.454844	0.227090
N138	N	1.607446	0.788177	0.560423
C139	C	0.944034	-0.057845	-0.249592
C140	C	1.277367	0.275489	0.083741
C141	C	1.610700	0.608822	0.417075
C142	C	0.951093	-0.058273	-0.336628
C143	C	1.284427	0.275061	-0.003295
C144	C	1.617760	0.608394	0.330039
C145	C	0.998518	-0.061198	0.174465
C146	C	1.331851	0.272135	0.507798
C147	C	1.665185	0.605468	0.841132
C148	C	0.991880	-0.060784	0.256244
C149	C	1.325213	0.272549	0.589577
C150	C	1.658547	0.605883	0.922911
C151	C	0.917126	-0.056200	0.287704
C152	C	1.250460	0.277133	0.621037
C153	C	1.583793	0.610467	0.954370
C154	C	0.849006	-0.052022	0.237380
C155	C	1.182340	0.281312	0.570713
C156	C	1.515673	0.614645	0.904046
C157	C	0.855645	-0.052430	0.155602
C158	C	1.188978	0.280903	0.488935
C159	C	1.522312	0.614236	0.822269
C160	C	0.889612	-0.054503	0.531270
C161	C	1.222945	0.278830	0.864604
C162	C	1.556278	0.612164	1.197937
C163	C	0.882978	-0.054097	0.613054
C164	C	1.216312	0.279236	0.946388
C165	C	1.549645	0.612570	1.279721
C166	C	1.025853	-0.062858	0.631913
C167	C	1.359186	0.270475	0.965246
C168	C	1.692519	0.603809	1.298580
C169	C	1.032485	-0.063271	0.550133
C170	C	1.365818	0.270062	0.883466
C171	C	1.699152	0.603396	1.216800
C172	C	0.964365	-0.059089	0.499816
C173	C	1.297698	0.274245	0.833149
C174	C	1.631031	0.607578	1.166483
N175	N	0.910340	-0.055779	0.371295
N176	N	1.243673	0.277554	0.704628
N177	N	1.577006	0.610888	1.037962
N178	N	0.971152	-0.059504	0.416227
N179	N	1.304486	0.273829	0.749560
N180	N	1.637819	0.607162	1.082893
H181	H	0.330235	-0.206024	-0.104405
H182	H	0.663568	0.127310	0.228929
H183	H	0.996901	0.460643	0.562262
H184	H	0.822102	-0.050376	0.638665
H185	H	1.155435	0.282957	0.971998
H186	H	1.488769	0.616291	1.305332
N187	N	0.835954	-0.227285	-0.217101
N188	N	1.169288	0.106049	0.116232
N189	N	1.502621	0.439382	0.449565
H190	H	0.804030	-0.262457	-0.250895
H191	H	1.137363	0.070877	0.082439
H192	H	1.470696	0.404210	0.415772
H193	H	0.868406	-0.196381	-0.251748
H194	H	1.201739	0.136952	0.081585
H195	H	1.535072	0.470285	0.414919
H196	H	1.032163	-0.249770	-0.009457
H197	H	1.365496	0.083564	0.323876
H198	H	1.698829	0.416897	0.657210
N199	N	0.768379	-0.047084	0.271310
N200	N	1.101712	0.286249	0.604643
N201	N	1.435046	0.619582	0.937976
H202	H	0.726236	-0.044500	0.227022
H203	H	1.059569	0.288833	0.560355
H204	H	1.392902	0.622166	0.893689
H205	H	0.762519	-0.000055	0.304825
H206	H	1.095852	0.333278	0.638159
H207	H	1.429186	0.666612	0.971492
N208	N	1.045527	-0.723289	0.004630
N209	N	1.378860	-0.389956	0.337964
N210	N	1.712193	-0.056623	0.671297
H211	H	1.077453	-0.762369	0.038425
H212	H	1.410786	-0.429036	0.371759
H213	H	1.744120	-0.095702	0.705092
H214	H	1.013068	-0.688430	0.039275
H215	H	1.346401	-0.355097	0.372608
H216	H	1.679735	-0.021764	0.705942
H217	H	1.032172	-0.393536	-0.009456
H218	H	1.365506	-0.060203	0.323878
H219	H	1.698839	0.273131	0.657211
N220	N	0.835976	-0.392003	-0.217112
N221	N	1.169310	-0.058670	0.116221
N222	N	1.502643	0.274664	0.449555
H223	H	0.843630	-0.448686	-0.209022
H224	H	1.176964	-0.115353	0.124311
H225	H	1.510297	0.217981	0.457644
H226	H	0.848616	-0.378914	-0.272729
H227	H	1.181949	-0.045580	0.060604
H228	H	1.515283	0.287753	0.393938
N229	N	0.169546	-0.214321	-0.101749
N230	N	0.502880	0.119013	0.231585
N231	N	0.836213	0.452346	0.564918
H232	H	0.110917	-0.200322	-0.101861
H233	H	0.444251	0.133011	0.231472
H234	H	0.777584	0.466344	0.564806
H235	H	0.186537	-0.244880	-0.052859
H236	H	0.519870	0.088453	0.280474
H237	H	0.853204	0.421787	0.613808
H238	H	1.093357	-0.067004	0.524525
H239	H	1.426690	0.266329	0.857858
H240	H	1.760024	0.599663	1.191192
H241	H	0.834143	-0.051098	0.490312
H242	H	1.167477	0.282236	0.823645
H243	H	1.500810	0.615569	1.156978
N244	N	1.045547	-0.888013	0.004619
N245	N	1.378880	-0.554680	0.337953
N246	N	1.712213	-0.221347	0.671286
H247	H	1.077480	-0.852841	0.038403
H248	H	1.410813	-0.519507	0.371737
H249	H	1.744147	-0.186174	0.705070
H250	H	1.082386	-0.923130	-0.025401
H251	H	1.415720	-0.589796	0.307932
H252	H	1.749053	-0.256463	0.641265
N253	N	0.782179	-0.047922	0.101327
N254	N	1.115512	0.285411	0.434660
N255	N	1.448845	0.618745	0.767993
H256	H	0.733815	-0.044957	0.133664
H257	H	1.067148	0.288376	0.466997
H258	H	1.400481	0.621710	0.800330
H259	H	0.781810	-0.094570	0.066989
H260	H	1.115144	0.238763	0.400323
H261	H	1.448477	0.572097	0.733656
H262	H	0.701001	-0.167468	-0.110557
H263	H	1.034334	0.165865	0.222776
H264	H	1.367667	0.499198	0.556110
H265	H	0.849343	-0.865535	-0.203024
H266	H	1.182677	-0.532202	0.130309
H267	H	1.516010	-0.198869	0.463642
H268	H	0.551232	-0.158291	-0.108052
H269	H	0.884565	0.175042	0.225281
H270	H	1.217898	0.508376	0.558614
H271	H	0.180491	0.052177	-0.101933
H272	H	0.513825	0.385510	0.231401
H273	H	0.847158	0.718844	0.564734
N274	N	1.065347	-0.065297	0.310516
N275	N	1.398680	0.268036	0.643849
N276	N	1.732013	0.601370	0.977182
H277	H	1.065793	-0.018653	0.344859
H278	H	1.399127	0.314680	0.678192
H279	H	1.732460	0.648014	1.011525
H280	H	1.113668	-0.068295	0.278121
H281	H	1.447001	0.265038	0.611454
H282	H	1.780334	0.598372	0.944788
H283	H	0.849333	-0.721765	-0.203025
H284	H	1.182666	-0.388431	0.130309
H285	H	1.515999	-0.055098	0.463642
H286	H	0.330263	0.043002	-0.104400
H287	H	0.663597	0.376335	0.228934
H288	H	0.996930	0.709668	0.562267
H289	H	0.701040	0.081556	-0.110551
H290	H	1.034373	0.414889	0.222782
H291	H	1.367706	0.748222	0.556115
H292	H	0.551256	0.090727	-0.108065
H293	H	0.884589	0.424061	0.225269
H294	H	1.217923	0.757394	0.558602
H295	H	1.059390	-0.064936	0.148857
H296	H	1.392724	0.268398	0.482191
H297	H	1.726057	0.601731	0.815524
N298	N	1.099322	-0.067370	0.686182
N299	N	1.432655	0.265963	1.019515
N300	N	1.765988	0.599297	1.352849
H301	H	1.083777	-0.066416	0.742762
H302	H	1.417110	0.266917	1.076095
H303	H	1.750443	0.600251	1.409428
H304	H	1.131686	-0.022683	0.676000
H305	H	1.465019	0.310650	1.009333
H306	H	1.798353	0.643984	1.342667
