data_functionalizedCrystal
_audit_creation_method	'MofGen! by Chris Wilmer'
_symmetry_space_group_name_H-M	'P1'
_symmetry_Int_Tables_number	1
_symmetry_cell_setting	triclinic
loop_
_symmetry_equiv_pos_as_xyz
  x,y,z
_cell_length_a	14.519731
_cell_length_b	9.616153
_cell_length_c	14.519709
_cell_angle_alpha	90.003203
_cell_angle_beta	83.684499
_cell_angle_gamma	90.006961
loop_
_atom_site_label
_atom_site_type_symbol
_atom_site_fract_x
_atom_site_fract_y
_atom_site_fract_z
O1	O	1.223859	0.115652	0.120981
O2	O	0.955385	0.115654	0.135197
O3	O	1.096740	0.115640	-0.006149
O4	O	1.082504	0.115665	0.262327
O5	O	1.096721	-0.115651	-0.006146
O6	O	0.955365	-0.115637	0.135200
O7	O	1.223840	-0.115640	0.120984
Zn8	Zn	1.089599	-0.152361	0.128093
Zn9	Zn	1.089625	0.152375	0.128089
O10	O	1.082484	-0.115626	0.262330
C11	C	0.921016	0.000009	0.134532
C12	C	0.818635	0.000009	0.132536
N13	N	1.089589	-0.360336	0.128095
C14	C	0.735491	0.000015	0.130915
C15	C	0.631182	0.000015	0.128888
C16	C	0.548043	0.000015	0.127280
C17	C	0.443728	0.000018	0.125253
C18	C	1.013746	-0.580698	0.203455
C19	C	1.013909	-0.419531	0.203734
C20	C	1.185852	-0.418783	0.149280
C21	C	1.185438	-0.580001	0.149812
C22	C	1.070131	-0.580256	0.031297
C23	C	1.067913	-0.419029	0.031942
C24	C	1.258209	0.000009	0.121649
C25	C	1.360589	0.000017	0.123645
C26	C	1.096067	-0.000006	-0.040507
C27	C	1.094079	-0.000006	-0.142889
N28	N	1.089643	0.360350	0.128079
C29	C	1.086759	0.000030	-0.517785
C30	C	1.088792	0.000019	-0.413477
C31	C	1.090419	0.000010	-0.330340
C32	C	1.092452	0.000003	-0.226025
C33	C	1.083157	0.000023	0.296688
C34	C	1.085146	0.000033	0.399070
H35	H	0.942361	-0.380016	0.191088
O36	O	1.028290	-0.629153	0.288651
C37	C	0.966734	-0.759975	0.423063
C38	C	0.950146	-0.705211	0.326587
H39	H	0.903559	-0.821455	0.453772
H40	H	1.030280	-0.830388	0.416564
H41	H	0.978624	-0.668525	0.470308
H42	H	0.938215	-0.796574	0.279291
H43	H	0.886621	-0.634757	0.333158
H44	H	1.202607	-0.617583	0.220400
H45	H	0.941971	-0.619510	0.191012
O46	O	1.129569	-0.371213	-0.038195
C47	C	1.246419	-0.430116	-0.162992
C48	C	1.176607	-0.484453	-0.083609
H49	H	1.284482	-0.521641	-0.199719
H50	H	1.207956	-0.369782	-0.214493
H51	H	1.298551	-0.358675	-0.133485
H52	H	1.124458	-0.555948	-0.113032
H53	H	1.215133	-0.544707	-0.032120
O54	O	1.028842	-0.373720	0.289450
C55	C	1.055697	-0.436519	0.444922
C56	C	1.038808	-0.488587	0.347884
H57	H	1.063740	-0.529361	0.492199
H58	H	1.121494	-0.370960	0.439577
H59	H	0.994289	-0.370669	0.474848
H60	H	1.100161	-0.554492	0.317902
H61	H	0.972977	-0.554070	0.353289
H62	H	1.125477	-0.618377	-0.024797
H63	H	1.243679	-0.380436	0.095849
O64	O	1.254781	-0.626767	0.086837
C65	C	1.333775	-0.826157	0.015389
C66	C	1.255193	-0.773393	0.086715
H67	H	1.334146	-0.944708	0.015281
H68	H	1.322339	-0.786622	-0.056495
H69	H	1.403065	-0.786187	0.034627
H70	H	1.185869	-0.813342	0.067564
H71	H	1.266710	-0.812915	0.158580
O72	O	1.206978	-0.370682	0.232497
C73	C	1.317383	-0.369651	0.344852
C74	C	1.293590	-0.424195	0.250581
H75	H	1.387399	-0.412916	0.359512
H76	H	1.320595	-0.251210	0.343189
H77	H	1.261725	-0.404522	0.401681
H78	H	1.349221	-0.389425	0.193701
H79	H	1.290345	-0.542631	0.252323
O80	O	0.988146	-0.628569	0.007008
C81	C	0.835648	-0.570602	-0.031828
C82	C	0.928461	-0.515697	-0.004360
H83	H	0.787361	-0.479374	-0.041008
H84	H	0.848418	-0.630806	-0.099672
H85	H	0.802432	-0.642295	0.024932
H86	H	0.961727	-0.443949	-0.061058
H87	H	0.915632	-0.455573	0.063510
H88	H	0.997100	-0.380830	0.015868
