data_functionalizedCrystal
_audit_creation_method	'MofGen! by Chris Wilmer'
_symmetry_space_group_name_H-M	'P1'
_symmetry_Int_Tables_number	1
_symmetry_cell_setting	triclinic
loop_
_symmetry_equiv_pos_as_xyz
  x,y,z
_cell_length_a	17.666332
_cell_length_b	14.044220
_cell_length_c	14.044220
_cell_angle_alpha	93.188878
_cell_angle_beta	89.993013
_cell_angle_gamma	89.995739
loop_
_atom_site_label
_atom_site_type_symbol
_atom_site_fract_x
_atom_site_fract_y
_atom_site_fract_z
O1	O	0.062871	-1.277175	-0.230170
O2	O	0.062890	-1.000503	-0.221864
O3	O	0.062873	-1.134686	-0.087681
O4	O	0.062888	-1.142992	-0.364353
O5	O	-0.063024	-1.134660	-0.087671
O6	O	-0.063007	-1.000477	-0.221854
O7	O	-0.063026	-1.277148	-0.230160
Cu8	Cu	-0.074512	-1.138810	-0.226006
Cu9	Cu	0.074376	-1.138841	-0.226018
O10	O	-0.063009	-1.142965	-0.364343
C11	C	-0.000056	-0.964868	-0.218223
C12	C	-0.000049	-0.858725	-0.207379
N13	N	-0.179231	-1.138795	-0.225998
C14	C	-0.000075	-1.131037	-0.052054
C15	C	-0.000075	-1.120193	0.054088
C16	C	-0.218848	-1.198235	-0.166615
C17	C	-0.298096	-1.198240	-0.166611
C18	C	-0.337723	-1.138816	-0.226007
C19	C	-0.298097	-1.079364	-0.285393
C20	C	-0.218851	-1.079354	-0.285389
N21	N	-0.462137	-1.133806	-0.309456
N22	N	-0.537418	-1.133821	-0.309457
C23	C	-0.576487	-1.138842	-0.226022
N24	N	-0.537433	-1.143866	-0.142584
N25	N	-0.462145	-1.143855	-0.142583
C26	C	-0.423652	-1.138820	-0.226018
C27	C	-0.702034	-1.198291	-0.166630
C28	C	-0.781283	-1.198289	-0.166624
C29	C	-0.781282	-1.079419	-0.285415
C30	C	-0.702035	-1.079415	-0.285412
C31	C	-0.662415	-1.138856	-0.226021
N32	N	0.179095	-1.138863	-0.226019
C33	C	-0.000078	-1.312783	-0.233800
C34	C	-0.000080	-1.418926	-0.244645
C35	C	-0.000065	-0.664388	-0.187553
C36	C	-0.000064	-0.613258	-0.264467
C37	C	-0.000073	-0.505122	-0.253435
C38	C	-0.000056	-0.772534	-0.198583
C39	C	-0.000059	-1.146614	-0.399969
C40	C	-0.000054	-1.157459	-0.506112
C41	C	-0.000063	-1.100366	0.248426
C42	C	-0.000066	-1.177281	0.299556
C43	C	-0.000059	-1.166249	0.407692
C44	C	-0.000070	-1.111397	0.140280
H45	H	-0.330358	-1.246645	-0.118252
O46	O	-0.000003	-0.658066	-0.352840
C47	C	-0.000006	-0.757625	-0.344328
H48	H	0.023807	-0.774585	-0.271758
H49	H	0.036573	-0.793037	-0.403066
H50	H	-0.060397	-0.785758	-0.351278
O51	O	-0.000099	-0.619883	-0.099046
C52	C	-0.000072	-0.688714	-0.029692
H53	H	-0.023907	-0.758672	-0.062051
H54	H	-0.036619	-0.662611	0.033380
H55	H	0.060329	-0.700519	-0.004324
H56	H	-0.330365	-1.030978	-0.333752
H57	H	-0.000056	-1.026239	0.285863
H58	H	-0.000020	-1.251414	0.262117
O59	O	-0.180395	-1.255680	-0.108600
C60	C	-0.134754	-1.199331	-0.045335
H61	H	-0.122776	-1.127984	-0.077242
H62	H	-0.079069	-1.237849	-0.033206
H63	H	-0.165508	-1.186594	0.025601
O64	O	-0.180398	-1.021721	-0.343221
C65	C	-0.199765	-1.045213	-0.439050
H66	H	-0.221542	-1.121689	-0.446024
H67	H	-0.147646	-1.038277	-0.486029
H68	H	-0.245767	-0.994668	-0.462586
O69	O	-0.663659	-1.256049	-0.108844
C70	C	-0.715625	-1.308525	-0.056438
H71	H	-0.772119	-1.269297	-0.052028
H72	H	-0.692734	-1.316643	0.018567
H73	H	-0.724041	-1.382068	-0.093473
H74	H	-0.813540	-1.246689	-0.118262
H75	H	-0.813546	-1.031030	-0.333772
H76	H	-0.669776	-1.031017	-0.333771
