data_functionalizedCrystal
_audit_creation_method	'MofGen! by Chris Wilmer'
_symmetry_space_group_name_H-M	'P1'
_symmetry_Int_Tables_number	1
_symmetry_cell_setting	triclinic
loop_
_symmetry_equiv_pos_as_xyz
  x,y,z
_cell_length_a	19.077105
_cell_length_b	12.594516
_cell_length_c	19.076919
_cell_angle_alpha	92.277239
_cell_angle_beta	90.076224
_cell_angle_gamma	87.712633
loop_
_atom_site_label
_atom_site_type_symbol
_atom_site_fract_x
_atom_site_fract_y
_atom_site_fract_z
Zn1	Zn	1.058319	-0.514930	-0.440450
Zn2	Zn	1.062975	-0.686069	-0.322954
Zn3	Zn	0.945535	-0.500672	-0.318243
Zn4	Zn	0.940797	-0.685427	-0.435707
O5	O	1.001907	-0.596775	-0.379338
O6	O	1.157269	-0.543868	-0.428821
O7	O	1.051328	-0.655777	-0.223998
O8	O	0.960531	-0.353620	-0.334467
O9	O	1.160690	-0.669603	-0.342497
O10	O	1.043393	-0.364096	-0.424253
O11	O	0.965046	-0.519567	-0.220536
O12	O	0.846574	-0.518944	-0.329868
O13	O	0.952455	-0.668509	-0.534668
O14	O	0.843093	-0.654683	-0.416168
O15	O	1.038798	-0.543246	-0.538153
O16	O	1.046733	-0.834927	-0.337898
O17	O	0.956969	-0.834455	-0.420737
C18	C	0.819337	-0.585197	-0.371992
C19	C	0.741233	-0.580271	-0.368866
C20	C	0.702747	-0.648728	-0.412259
C21	C	0.629360	-0.644085	-0.409325
C22	C	0.594459	-0.570991	-0.362994
C23	C	0.632949	-0.502527	-0.319600
C24	C	0.706335	-0.507165	-0.322538
C25	C	0.375169	-0.549525	-0.349400
C26	C	0.301778	-0.544895	-0.346464
C27	C	0.298194	-0.686452	-0.436191
C28	C	0.371582	-0.691088	-0.439121
C29	C	0.410065	-0.622620	-0.395730
N30	N	0.519445	-0.566246	-0.359993
N31	N	0.485078	-0.627361	-0.398735
C32	C	1.001861	-0.873312	-0.379330
C33	C	1.001905	-0.991622	-0.379352
C34	C	0.953079	-1.060655	-0.424375
C35	C	0.938538	-1.126689	-0.359570
C36	C	1.016509	-1.136391	-0.444171
C37	C	0.987331	-1.056094	-0.314511
C38	C	1.065330	-1.065794	-0.399157
C39	C	1.050816	-1.131795	-0.334309
C40	C	1.185189	-0.608398	-0.386714
C41	C	1.263293	-0.613351	-0.389857
C42	C	0.994578	-0.607396	-0.562619
C43	C	0.991455	-0.611923	-0.640723
C44	C	1.001971	-0.319159	-0.379363
C45	C	1.001998	-0.200856	-0.379374
C46	C	1.034940	-0.548834	-0.679231
C47	C	1.031997	-0.553083	-0.752617
C48	C	0.985572	-0.620426	-0.787494
C49	C	0.942083	-0.683517	-0.748980
C50	C	0.945023	-0.679262	-0.675595
C51	C	0.971956	-0.640139	-1.006776
C52	C	0.969021	-0.644391	-1.080166
C53	C	1.058935	-0.513955	-1.083799
C54	C	1.061873	-0.509711	-1.010412
C55	C	1.018381	-0.572798	-0.971905
N56	N	0.982565	-0.624772	-0.862506
N57	N	1.021386	-0.568445	-0.896894
C58	C	1.009247	-0.586120	-0.196772
C59	C	1.012506	-0.581302	-0.118675
H60	H	0.266852	-0.742192	-0.471519
H61	H	1.118911	-1.038859	-0.415922
H62	H	0.931215	-0.699232	-1.108560
H63	H	0.909606	-0.730624	-0.644242
O64	O	0.591945	-0.710442	-0.451549
C65	C	0.547685	-0.649915	-0.495298
H66	H	0.569632	-0.567749	-0.500621
H67	H	0.544704	-0.691627	-0.549297
H68	H	0.492929	-0.641426	-0.471355
H69	H	0.936552	-0.691524	-0.975432
H70	H	0.399993	-0.750611	-0.476847
H71	H	0.904280	-0.738345	-0.777382
H72	H	0.273363	-0.485360	-0.308740
O73	O	0.736536	-0.719763	-0.457327
C74	C	0.686828	-0.779204	-0.494986
H75	H	0.634423	-0.732450	-0.495371
H76	H	0.705826	-0.795234	-0.551187
H77	H	0.680038	-0.857991	-0.468853
O78	O	0.972681	-1.014420	-0.249065
C79	C	1.023950	-1.051526	-0.201651
H80	H	1.073999	-1.076583	-0.231547
H81	H	1.035598	-0.985375	-0.161293
H82	H	1.003712	-1.122624	-0.173773
O83	O	0.412440	-0.482974	-0.307181
C84	C	0.365896	-0.417450	-0.265673
H85	H	0.313679	-0.457600	-0.261094
H86	H	0.389302	-0.404085	-0.211171
H87	H	0.357068	-0.337683	-0.291188
O88	O	0.598939	-0.431612	-0.274616
C89	C	0.525912	-0.442177	-0.281339
H90	H	0.514965	-0.525070	-0.303855
H91	H	0.500116	-0.430012	-0.227597
H92	H	0.503606	-0.379994	-0.318000
H93	H	1.067409	-0.501712	-0.783968
O94	O	0.903782	-1.023518	-0.469815
C95	C	0.918592	-1.066074	-0.537905
H96	H	0.951871	-1.142870	-0.534264
H97	H	0.867376	-1.083476	-0.566164
H98	H	0.948504	-1.006291	-0.568346
H99	H	0.884944	-1.153628	-0.342835
H100	H	0.737669	-0.451416	-0.287206
H101	H	1.028824	-1.171502	-0.498979
H102	H	1.092148	-1.162827	-0.296198
H103	H	1.099679	-0.454876	-0.982021
O104	O	1.080056	-0.483324	-0.645465
C105	C	1.117816	-0.428571	-0.695195
H106	H	1.086939	-0.426095	-0.746346
H107	H	1.126180	-0.343957	-0.674303
H108	H	1.170863	-0.471383	-0.705148
O109	O	1.101105	-0.452705	-1.121311
C110	C	1.088570	-0.470916	-1.193562
H111	H	1.033933	-0.502920	-1.201397
H112	H	1.092236	-0.393108	-1.221650
H113	H	1.129405	-0.531443	-1.216062
