data_functionalizedCrystal
_audit_creation_method	'MofGen! by Chris Wilmer'
_symmetry_space_group_name_H-M	'P1'
_symmetry_Int_Tables_number	1
_symmetry_cell_setting	triclinic
loop_
_symmetry_equiv_pos_as_xyz
  x,y,z
_cell_length_a	18.266242
_cell_length_b	15.995350
_cell_length_c	15.995350
_cell_angle_alpha	83.492375
_cell_angle_beta	89.995886
_cell_angle_gamma	89.994611
loop_
_atom_site_label
_atom_site_type_symbol
_atom_site_fract_x
_atom_site_fract_y
_atom_site_fract_z
O1	O	0.060815	-1.110991	-0.107928
O2	O	0.060830	-0.867216	-0.121255
O3	O	0.060821	-0.995767	0.007296
O4	O	0.060824	-0.982440	-0.236479
O5	O	-0.060940	-0.995745	0.007303
O6	O	-0.060932	-0.867194	-0.121249
O7	O	-0.060947	-1.110969	-0.107921
Zn8	Zn	-0.080272	-0.989078	-0.114584
Zn9	Zn	0.080155	-0.989107	-0.114593
O10	O	-0.060938	-0.982418	-0.236473
C11	C	-0.000049	-0.836010	-0.120701
C12	C	-0.000043	-0.743060	-0.119049
C13	C	-0.000058	-0.995205	0.038494
C14	C	-0.000054	-0.993553	0.131444
N15	N	-0.189759	-0.989064	-0.114577
C16	C	-0.228071	-1.046006	-0.057683
C17	C	-0.304716	-1.046011	-0.057679
C18	C	-0.343046	-0.989083	-0.114584
C19	C	-0.304724	-0.932131	-0.171483
C20	C	-0.228080	-0.932122	-0.171480
N21	N	-0.463377	-0.978426	-0.188673
N22	N	-0.536185	-0.978440	-0.188673
C23	C	-0.573968	-0.989107	-0.114596
N24	N	-0.536192	-0.999776	-0.040516
N25	N	-0.463378	-0.999766	-0.040517
C26	C	-0.426153	-0.989087	-0.114594
C27	C	-0.695388	-1.046057	-0.057693
C28	C	-0.772034	-1.046056	-0.057688
C29	C	-0.772040	-0.932180	-0.171499
C30	C	-0.695395	-0.932177	-0.171497
C31	C	-0.657074	-0.989120	-0.114595
N32	N	0.189642	-0.989127	-0.114593
C33	C	-0.000066	-1.142175	-0.108476
C34	C	-0.000067	-1.235125	-0.110127
C35	C	-0.000059	-0.405312	-0.113117
C36	C	-0.000331	-0.452746	-0.021565
C37	C	-0.000052	-0.549436	-0.023217
C38	C	-0.000052	-0.572873	-0.116060
C39	C	0.069478	-0.531798	-0.161220
C40	C	0.069531	-0.435162	-0.158920
C41	C	-0.068935	-0.434799	-0.160804
C42	C	-0.069849	-0.531744	-0.160782
C43	C	-0.000045	-0.667570	-0.117727
C44	C	-0.000060	-0.310614	-0.111452
C45	C	-0.000057	-0.982980	-0.267671
C46	C	-0.000057	-0.984631	-0.360621
C47	C	-0.000056	-0.987621	0.469192
C48	C	0.000223	-0.896069	0.421758
C49	C	-0.000052	-0.897721	0.325068
C50	C	-0.000054	-0.990564	0.301631
C51	C	-0.069588	-1.035708	0.342713
C52	C	-0.069646	-1.033408	0.439348
C53	C	0.068820	-1.035324	0.439699
C54	C	0.069739	-1.035302	0.342754
C55	C	-0.000056	-0.992231	0.206934
C56	C	-0.000059	-0.985956	0.563890
H57	H	-0.335916	-1.092381	-0.011347
N58	N	-0.186742	-1.107415	0.003695
H59	H	-0.132374	-1.098772	-0.004935
H60	H	-0.200129	-1.166809	-0.006020
N61	N	-0.066184	-0.850382	0.288152
H62	H	-0.095274	-0.828362	0.334700
H63	H	-0.097812	-0.889454	0.258305
N64	N	-0.138491	-0.989780	0.463604
H65	H	-0.168514	-0.972219	0.411544
H66	H	-0.124956	-0.938392	0.491555
N67	N	-0.073832	-1.122437	0.482073
H68	H	-0.075636	-1.163001	0.438107
H69	H	-0.119407	-1.129129	0.517961
N70	N	-0.813372	-0.870772	-0.232869
H71	H	-0.800028	-0.880402	-0.292304
H72	H	-0.800023	-0.811380	-0.223109
N73	N	-0.186758	-0.870700	-0.232849
H74	H	-0.200090	-0.880338	-0.292283
H75	H	-0.132402	-0.879362	-0.224143
H76	H	0.121506	-0.416863	-0.125993
N77	N	-0.073008	-1.126068	0.324036
H78	H	-0.029414	-1.138637	0.288676
H79	H	-0.119604	-1.135380	0.292390
H80	H	-0.121287	-0.559051	-0.127815
N81	N	-0.654075	-0.870766	-0.232875
H82	H	-0.622266	-0.902754	-0.269967
H83	H	-0.622328	-0.833704	-0.200798
N84	N	0.069434	-1.124740	0.481757
H85	H	0.113797	-1.155080	0.462564
H86	H	0.023547	-1.154525	0.466036
N87	N	-0.138124	-0.994155	0.305113
H88	H	-0.138812	-0.933097	0.315693
H89	H	-0.182536	-1.023708	0.331963
H90	H	0.121522	-1.005401	0.460236
H91	H	-0.074049	-0.547108	-0.228486
N92	N	-0.069563	-0.392733	-0.250217
H93	H	-0.025473	-0.354758	-0.259824
H94	H	-0.115722	-0.358288	-0.260215
N95	N	0.066267	-0.847601	0.446306
H96	H	0.065385	-0.789037	0.415166
H97	H	0.112324	-0.877499	0.431298
H98	H	0.121178	-1.002296	0.315502
N99	N	-0.066383	-0.428196	0.026908
H100	H	-0.065428	-0.365596	0.030648
H101	H	-0.065465	-0.459389	0.085445
H102	H	0.073935	-1.103008	0.327391
N103	N	-0.346059	-0.870725	-0.232856
H104	H	-0.400427	-0.879372	-0.224227
H105	H	-0.332653	-0.880388	-0.292262
N106	N	-0.066074	-0.587079	0.023804
H107	H	-0.064268	-0.573810	0.084017
H108	H	-0.065984	-0.650093	0.022759
N109	N	-0.654048	-1.107467	0.003678
H110	H	-0.689953	-1.143537	0.039728
H111	H	-0.622255	-1.075413	0.040713
H112	H	0.049256	-0.433161	0.014859
H113	H	0.049876	-0.577303	0.012515
N114	N	-0.813356	-1.107490	0.003670
H115	H	-0.800025	-1.097871	0.063109
H116	H	-0.799981	-1.166874	-0.006105
N117	N	0.073682	-0.392438	-0.247952
H118	H	0.075476	-0.436404	-0.288517
H119	H	0.119246	-0.356542	-0.254681
N120	N	-0.065453	-0.847794	0.447703
H121	H	-0.063742	-0.844501	0.510357
H122	H	-0.111729	-0.877515	0.433137
N123	N	0.072917	-0.550514	-0.251567
H124	H	0.029332	-0.585884	-0.264122
H125	H	0.119520	-0.582170	-0.260849
N126	N	0.138023	-0.569375	-0.119670
H127	H	0.182465	-0.542536	-0.149171
H128	H	0.138756	-0.631981	-0.123388
H129	H	-0.121637	-0.414254	-0.130871
H130	H	0.049793	-0.862234	0.296643
