data_functionalizedCrystal
_audit_creation_method	'MofGen! by Chris Wilmer'
_symmetry_space_group_name_H-M	'P1'
_symmetry_Int_Tables_number	1
_symmetry_cell_setting	triclinic
loop_
_symmetry_equiv_pos_as_xyz
  x,y,z
_cell_length_a	17.000383
_cell_length_b	14.044202
_cell_length_c	12.503572
_cell_angle_alpha	86.143857
_cell_angle_beta	86.762721
_cell_angle_gamma	95.603498
loop_
_atom_site_label
_atom_site_type_symbol
_atom_site_fract_x
_atom_site_fract_y
_atom_site_fract_z
O1	O	1.054320	-0.039798	0.089401
O2	O	0.825017	-0.073994	0.089393
O3	O	0.936225	0.080804	0.089368
O4	O	0.943113	-0.194595	0.089426
O5	O	0.944591	0.092459	-0.089276
O6	O	0.833384	-0.062339	-0.089251
O7	O	1.062687	-0.028142	-0.089243
Cu8	Cu	0.948799	-0.044176	-0.105559
Cu9	Cu	0.938905	-0.057960	0.105708
O10	O	0.951480	-0.182940	-0.089218
C11	C	0.799678	-0.070003	0.000069
C12	C	0.711707	-0.075464	0.000065
C13	C	0.213993	-0.110731	0.000112
C14	C	0.296651	-0.105592	0.000110
C15	C	0.341311	-0.016394	0.000083
C16	C	0.303309	0.067671	0.000069
C17	C	0.220653	0.062530	0.000078
C18	C	0.591048	0.003460	0.000060
C19	C	0.673711	0.008595	0.000047
C20	C	0.667046	-0.164670	0.000091
C21	C	0.584389	-0.169802	0.000094
C22	C	0.546394	-0.085738	0.000085
C23	C	0.425801	-0.011139	0.000078
C24	C	0.461905	-0.090994	0.000098
C25	C	0.937394	0.121695	0.000040
C26	C	0.928404	0.226173	0.000024
C27	C	1.088027	-0.032133	0.000083
C28	C	1.175996	-0.026673	0.000095
C29	C	0.975725	0.480401	0.000054
C30	C	0.911978	0.417460	0.000047
C31	C	0.921120	0.311018	0.000035
C32	C	0.966585	0.586852	0.000067
C33	C	0.950309	0.776169	0.000097
C34	C	0.959296	0.671693	0.000077
N35	N	0.931946	-0.067648	0.254302
N36	N	0.955764	-0.034480	-0.254152
C37	C	0.921702	-0.081900	0.473420
C38	C	0.966005	-0.020232	0.526737
C39	C	0.960306	-0.028162	0.648661
C40	C	0.927401	-0.073971	0.351484
H41	H	0.560123	0.071911	0.000050
N42	N	0.834893	0.450121	0.000053
N43	N	0.784553	0.422770	0.075348
H44	H	0.730113	0.445840	0.075350
H45	H	0.177636	-0.183366	0.000126
H46	H	1.037161	0.454347	0.000047
H47	H	0.327583	-0.174042	0.000135
N48	N	1.018934	0.053489	0.469121
N49	N	1.023534	0.059927	0.368722
H50	H	1.060903	0.112000	0.328025
H51	H	0.548031	-0.242437	0.000119
H52	H	0.462174	0.061488	0.000052
N53	N	0.868757	-0.155595	0.531035
N54	N	0.864145	-0.162009	0.631434
H55	H	0.826752	-0.214054	0.672137
N56	N	0.348930	0.158786	0.000015
N57	N	0.345446	0.221121	-0.075308
H58	H	0.377665	0.285474	-0.075352
N59	N	0.705871	-0.250524	0.000098
N60	N	0.779671	-0.245927	0.000087
H61	H	0.807092	-0.306565	0.000094
H62	H	0.710072	0.081234	0.000030
H63	H	0.189717	0.130980	0.000066
H64	H	0.425538	-0.163620	0.000125
