data_functionalizedCrystal
_audit_creation_method	'MofGen! by Chris Wilmer'
_symmetry_space_group_name_H-M	'P1'
_symmetry_Int_Tables_number	1
_symmetry_cell_setting	triclinic
loop_
_symmetry_equiv_pos_as_xyz
  x,y,z
_cell_length_a	14.853558
_cell_length_b	27.732048
_cell_length_c	13.930277
_cell_angle_alpha	89.990485
_cell_angle_beta	89.993309
_cell_angle_gamma	83.136894
loop_
_atom_site_label
_atom_site_type_symbol
_atom_site_fract_x
_atom_site_fract_y
_atom_site_fract_z
O1	O	1.195347	0.063085	-0.079830
O2	O	1.695347	0.563085	0.420170
O3	O	0.932764	0.070607	-0.079836
O4	O	1.432764	0.570607	0.420164
O5	O	1.072211	-0.003512	-0.079814
O6	O	1.572211	0.496488	0.420186
O7	O	1.055901	0.137205	-0.079851
O8	O	1.555901	0.637205	0.420149
O9	O	1.072192	-0.003514	0.079848
O10	O	1.572192	0.496486	0.579848
O11	O	0.932745	0.070606	0.079826
O12	O	1.432745	0.570606	0.579826
O13	O	1.195328	0.063084	0.079832
O14	O	1.695328	0.563084	0.579832
Zn15	Zn	1.064034	0.066844	0.105179
Zn16	Zn	1.564034	0.566844	0.605179
Zn17	Zn	1.064059	0.066847	-0.105183
Zn18	Zn	1.564059	0.566847	0.394817
O19	O	1.055881	0.137203	0.079811
O20	O	1.555881	0.637203	0.579811
C21	C	0.899171	0.070267	-0.000005
C22	C	1.399171	0.570267	0.499995
C23	C	0.799104	0.069248	-0.000007
C24	C	1.299104	0.569248	0.499993
C25	C	0.752102	0.068771	-0.087042
C26	C	1.252102	0.568771	0.412958
C27	C	0.752079	0.068763	0.087028
C28	C	1.252079	0.568763	0.587028
C29	C	0.658061	0.067803	0.087030
C30	C	1.158061	0.567803	0.587030
C31	C	0.611059	0.067326	-0.000006
C32	C	1.111059	0.567326	0.499994
C33	C	0.658076	0.067809	-0.087043
C34	C	1.158076	0.567809	0.412957
C35	C	0.611040	0.067315	0.174065
C36	C	1.111040	0.567315	0.674065
C37	C	0.517016	0.066355	0.174070
C38	C	1.017016	0.566355	0.674070
C39	C	0.470011	0.065881	0.087034
C40	C	0.970011	0.565881	0.587034
C41	C	0.517033	0.066365	-0.000007
C42	C	1.017033	0.566365	0.499993
C43	C	0.470031	0.065888	-0.087042
C44	C	0.970031	0.565888	0.412958
C45	C	0.517050	0.066375	-0.174083
C46	C	1.017050	0.566375	0.325917
C47	C	0.611071	0.067336	-0.174079
C48	C	1.111071	0.567336	0.325921
C49	C	0.375991	0.064920	0.087030
C50	C	0.875991	0.564920	0.587030
C51	C	0.376005	0.064926	-0.087043
C52	C	0.876005	0.564926	0.412957
C53	C	1.071859	-0.021522	0.000019
C54	C	1.571859	0.478478	0.500019
C55	C	1.070828	-0.075181	0.000027
C56	C	1.570828	0.424819	0.500027
C57	C	1.146742	-0.413643	-0.000021
C58	C	1.646742	0.086357	0.499979
C59	C	1.142916	-0.615320	-0.000034
C60	C	1.642916	-0.115320	0.499966
O61	O	1.212334	-0.646253	-0.000074
O62	O	1.712334	-0.146253	0.499926
N63	N	1.060230	-0.634829	-0.000035
N64	N	1.560230	-0.134829	0.499965
C65	C	0.978495	-0.603915	-0.000039
C66	C	1.478495	-0.103915	0.499961
O67	O	0.908077	-0.625137	-0.000050
O68	O	1.408077	-0.125137	0.499950
C69	C	0.982321	-0.402239	-0.000032
C70	C	1.482321	0.097761	0.499968
C71	C	1.065012	-0.382733	-0.000022
C72	C	1.565012	0.117267	0.499978
C73	C	1.229426	-0.394136	-0.000011
C74	C	1.729426	0.105864	0.499989
C75	C	1.230382	-0.343720	-0.000002
C76	C	1.730382	0.156280	0.499998
C77	C	1.148652	-0.312810	-0.000003
C78	C	1.648652	0.187190	0.499997
C79	C	1.065968	-0.332317	-0.000013
C80	C	1.565968	0.167683	0.499987
C81	C	0.900586	-0.371326	-0.000043
C82	C	1.400586	0.128674	0.499957
C83	C	0.901550	-0.320904	-0.000044
C84	C	1.401550	0.179096	0.499956
C85	C	0.984241	-0.301398	-0.000033
C86	C	1.484241	0.198602	0.499967
C87	C	0.985194	-0.250990	-0.000005
C88	C	1.485194	0.249010	0.499995
N89	N	1.067880	-0.231481	-0.000004
N90	N	1.567880	0.268519	0.499996
C91	C	1.149609	-0.262391	-0.000003
C92	C	1.649609	0.237609	0.499997
C93	C	0.976492	-0.709799	-0.000040
C94	C	1.476492	-0.209799	0.499960
C95	C	0.975535	-0.760218	-0.000040
C96	C	1.475535	-0.260218	0.499960
C97	C	1.139957	-0.771619	-0.000037
C98	C	1.639957	-0.271619	0.499963
C99	C	1.140913	-0.721199	-0.000030
C100	C	1.640913	-0.221199	0.499970
C101	C	1.059178	-0.690290	-0.000039
C102	C	1.559178	-0.190290	0.499961
C103	C	1.151609	-0.156513	0.000016
C104	C	1.651609	0.343487	0.500016
C105	C	1.152558	-0.106091	0.000028
C106	C	1.652558	0.393909	0.500028
C107	C	0.988136	-0.094694	0.000020
C108	C	1.488136	0.405306	0.500020
C109	C	0.987187	-0.145111	0.000013
C110	C	1.487187	0.354889	0.500013
C111	C	1.068931	-0.176020	0.000007
C112	C	1.568931	0.323980	0.500007
O113	O	0.915813	-0.220029	0.000024
O114	O	1.415813	0.279971	0.500024
O115	O	1.220016	-0.241161	-0.000014
O116	O	1.720016	0.258839	0.499986
C117	C	1.145786	-0.464059	-0.000029
C118	C	1.645786	0.035941	0.499971
C119	C	1.063101	-0.483566	-0.000039
C120	C	1.563101	0.016434	0.499961
C121	C	0.981372	-0.452656	-0.000040
C122	C	1.481372	0.047344	0.499960
C123	C	1.062145	-0.533985	-0.000039
C124	C	1.562145	-0.033985	0.499961
C125	C	1.143874	-0.564895	-0.000038
C126	C	1.643874	-0.064895	0.499962
C127	C	1.226560	-0.545386	-0.000037
C128	C	1.726560	-0.045386	0.499963
C129	C	1.227516	-0.494969	-0.000028
C130	C	1.727516	0.005031	0.499972
C131	C	0.898686	-0.472165	-0.000041
C132	C	1.398686	0.027835	0.499959
C133	C	0.897737	-0.522582	-0.000048
C134	C	1.397737	-0.022582	0.499952
C135	C	0.979467	-0.553492	-0.000047
C136	C	1.479467	-0.053492	0.499953
C137	C	1.228921	0.063424	-0.000001
C138	C	1.728921	0.563424	0.499999
C139	C	1.328989	0.064443	-0.000006
C140	C	1.828989	0.564443	0.499994
C141	C	1.056233	0.155213	-0.000025
C142	C	1.556233	0.655213	0.499975
C143	C	1.057264	0.208872	-0.000039
C144	C	1.557264	0.708872	0.499961
N145	N	1.064023	0.066843	0.248745
N146	N	1.564023	0.566843	0.748745
N147	N	1.064077	0.066844	-0.248749
N148	N	1.564077	0.566844	0.251251
C149	C	1.002310	0.099654	0.701005
C150	C	1.502310	0.599654	1.201005
C151	C	1.125833	0.034035	0.700993
C152	C	1.625833	0.534035	1.200993
C153	C	1.125822	0.034034	0.600497
C154	C	1.625822	0.534034	1.100497
C155	C	1.064055	0.066843	0.550251
C156	C	1.564055	0.566843	1.050251
C157	C	1.002299	0.099654	0.600500
C158	C	1.502299	0.599654	1.100500
C159	C	1.187584	0.001227	0.550241
C160	C	1.687584	0.501227	1.050241
C161	C	1.187576	0.001224	0.449739
C162	C	1.687576	0.501224	0.949739
C163	C	1.125804	0.034032	0.399490
C164	C	1.625804	0.534032	0.899490
C165	C	1.064044	0.066844	0.449746
C166	C	1.564044	0.566844	0.949746
C167	C	1.002277	0.099653	0.399499
C168	C	1.502277	0.599653	0.899499
C169	C	0.940513	0.132463	0.449752
C170	C	1.440513	0.632463	0.949752
C171	C	0.940527	0.132462	0.550251
C172	C	1.440527	0.632462	1.050251
C173	C	1.125790	0.034033	0.298992
C174	C	1.625790	0.534033	0.798992
C175	C	1.002267	0.099654	0.298994
C176	C	1.502267	0.599654	0.798994
H177	H	1.219898	-0.090213	0.000039
H178	H	1.719898	0.409787	0.500039
H179	H	1.176126	0.007325	0.741907
H180	H	1.676126	0.507325	1.241907
Br181	Br	0.918428	0.144180	0.230810
Br182	Br	1.418428	0.644180	0.730810
H183	H	0.337711	0.064528	0.157897
H184	H	0.837711	0.564528	0.657897
Br185	Br	0.815868	0.069408	0.205141
Br186	Br	1.315868	0.569408	0.705141
H187	H	1.237877	-0.025483	0.591155
H188	H	1.737877	0.474517	1.091155
H189	H	0.833250	-0.387198	-0.000057
H190	H	1.333250	0.112802	0.499943
H191	H	1.218173	-0.181673	0.000007
H192	H	1.718173	0.318327	0.500007
H193	H	0.952019	0.126366	0.741924
H194	H	1.452019	0.626366	1.241924
Br195	Br	1.271394	-0.043302	0.381544
Br196	Br	1.771394	0.456698	0.881544
H197	H	1.176082	0.007322	0.258080
H198	H	1.676082	0.507322	0.758080
Br199	Br	0.865554	-0.667857	-0.000054
Br200	Br	1.365554	-0.167857	0.499946
Br201	Br	0.312222	0.064285	-0.205168
Br202	Br	0.812222	0.564285	0.294832
Br203	Br	1.337478	-0.587345	-0.000028
Br204	Br	1.837478	-0.087345	0.499972
Br205	Br	0.453211	0.065700	0.292195
Br206	Br	0.953211	0.565700	0.792195
Br207	Br	0.453254	0.065713	-0.292198
Br208	Br	0.953254	0.565713	0.207802
H209	H	1.294852	-0.479093	-0.000020
H210	H	1.794852	0.020907	0.499980
H211	H	0.649363	0.067731	-0.244943
H212	H	1.149363	0.567731	0.255057
H213	H	0.834990	-0.295740	-0.000052
H214	H	1.334990	0.204260	0.499948
Br215	Br	0.674831	0.067963	0.292177
Br216	Br	1.174831	0.567963	0.792177
Br217	Br	1.342612	-0.317256	-0.000015
Br218	Br	1.842612	0.182744	0.499985
Br219	Br	1.340361	-0.436077	-0.000010
Br220	Br	1.840361	0.063923	0.499990
Br221	Br	0.815908	0.069433	-0.205164
Br222	Br	1.315908	0.569433	0.294836
Br223	Br	1.250875	-0.813578	-0.000038
Br224	Br	1.750875	-0.313578	0.499962
Br225	Br	1.253141	-0.694733	-0.000014
Br226	Br	1.753141	-0.194733	0.499986
Br227	Br	0.863306	-0.786683	-0.000032
Br228	Br	1.363306	-0.286683	0.499968
Br229	Br	0.785502	-0.549047	-0.000055
Br230	Br	1.285502	-0.049047	0.499945
H231	H	0.919853	-0.160994	0.000031
H232	H	1.419853	0.339006	0.500031
H233	H	0.921594	-0.069518	0.000023
H234	H	1.421594	0.430482	0.500023
Br235	Br	0.787755	-0.430223	-0.000047
Br236	Br	1.287755	0.069777	0.499953
Br237	Br	0.856697	0.176994	0.381550
Br238	Br	1.356697	0.676994	0.881550
H239	H	0.890241	0.159175	0.591174
H240	H	1.390241	0.659175	1.091174
