data_functionalizedCrystal
_audit_creation_method	'MofGen! by Chris Wilmer'
_symmetry_space_group_name_H-M	'P1'
_symmetry_Int_Tables_number	1
_symmetry_cell_setting	triclinic
loop_
_symmetry_equiv_pos_as_xyz
  x,y,z
_cell_length_a	25.639239
_cell_length_b	25.639242
_cell_length_c	25.639233
_cell_angle_alpha	89.977834
_cell_angle_beta	90.018747
_cell_angle_gamma	89.965787
loop_
_atom_site_label
_atom_site_type_symbol
_atom_site_fract_x
_atom_site_fract_y
_atom_site_fract_z
Zn1	Zn	-0.208277	-0.799225	0.295742
Zn2	Zn	-0.295696	-0.799149	0.208307
Zn3	Zn	-0.208269	-0.711801	0.208306
Zn4	Zn	-0.295676	-0.711746	0.295696
O5	O	-0.251979	-0.755480	0.252013
O6	O	-0.219884	-0.872380	0.284163
O7	O	-0.284103	-0.787553	0.135141
O8	O	-0.135105	-0.723453	0.219924
O9	O	-0.284111	-0.872324	0.219924
O10	O	-0.135111	-0.787683	0.284163
O11	O	-0.219871	-0.723379	0.135141
O12	O	-0.219853	-0.638629	0.219880
O13	O	-0.284078	-0.723360	0.368868
O14	O	-0.284070	-0.638589	0.284085
O15	O	-0.219866	-0.787630	0.368901
O16	O	-0.368858	-0.787499	0.219880
O17	O	-0.368844	-0.723286	0.284085
C18	C	-0.387822	-0.755392	0.251989
C19	C	-0.445936	-0.755403	0.251996
C20	C	-0.251959	-0.619638	0.251977
C21	C	-0.251963	-0.561524	0.251975
C22	C	-0.806294	-0.789004	0.218638
C23	C	-0.860898	-0.789024	0.218645
O24	O	-0.889131	-0.817502	0.190257
N25	N	-0.888218	-0.755572	0.252048
C26	C	-0.860932	-0.722102	0.285449
O27	O	-0.889184	-0.693651	0.313861
C28	C	-0.806328	-0.722085	0.285444
C29	C	-0.779011	-0.755535	0.252036
C30	C	-0.778976	-0.822452	0.185233
C31	C	-0.724376	-0.822431	0.185226
C32	C	-0.697093	-0.788962	0.218623
C33	C	-0.724410	-0.755514	0.252028
C34	C	-0.779042	-0.688617	0.318847
C35	C	-0.724435	-0.688603	0.318840
C36	C	-0.697118	-0.722053	0.285432
C37	C	-0.642527	-0.722024	0.285418
N38	N	-0.615206	-0.755475	0.252016
C39	C	-0.642490	-0.788944	0.218618
C40	C	-0.975602	-0.722141	0.285457
C41	C	-1.030204	-0.722155	0.285459
C42	C	-1.030167	-0.789078	0.218656
C43	C	-0.975564	-0.789061	0.218652
C44	C	-0.948282	-0.755593	0.252055
C45	C	-0.527824	-0.788897	0.218605
C46	C	-0.473219	-0.788872	0.218599
C47	C	-0.473261	-0.721951	0.285403
C48	C	-0.527862	-0.721974	0.285408
C49	C	-0.555142	-0.755452	0.252007
O50	O	-0.614260	-0.693562	0.313793
O51	O	-0.614231	-0.817396	0.190216
C52	C	-0.251970	-0.755497	0.388386
C53	C	-0.251966	-0.755504	0.446500
C54	C	-0.115606	-0.755583	0.252048
C55	C	-0.057492	-0.755627	0.252064
C56	C	-0.252000	-0.891853	0.252049
C57	C	-0.252009	-0.949967	0.252064
C58	C	-0.285473	-0.201149	0.285413
C59	C	-0.285477	-0.146544	0.285421
O60	O	-0.313943	-0.118297	0.313821
N61	N	-0.251994	-0.119241	0.252047
C62	C	-0.218502	-0.146545	0.218666
O63	O	-0.190022	-0.118308	0.190280
C64	C	-0.218496	-0.201149	0.218661
C65	C	-0.251985	-0.228449	0.252034
C66	C	-0.318959	-0.228449	0.318783
C67	C	-0.318956	-0.283049	0.318774
C68	C	-0.285468	-0.310350	0.285395
C69	C	-0.251983	-0.283049	0.252024
C70	C	-0.185002	-0.228452	0.185283
C71	C	-0.185000	-0.283059	0.185281
C72	C	-0.218488	-0.310359	0.218654
C73	C	-0.218492	-0.364950	0.218636
N74	N	-0.251974	-0.392253	0.252010
C75	C	-0.285463	-0.364953	0.285389
C76	C	-0.218515	-0.031875	0.218680
C77	C	-0.218523	0.022728	0.218683
C78	C	-0.285497	0.022725	0.285438
C79	C	-0.285492	-0.031878	0.285433
C80	C	-0.251998	-0.059178	0.252054
C81	C	-0.285455	-0.479618	0.285368
C82	C	-0.285451	-0.534223	0.285354
C83	C	-0.218475	-0.534216	0.218601
C84	C	-0.218481	-0.479615	0.218612
C85	C	-0.251972	-0.452318	0.252000
O86	O	-0.190038	-0.393232	0.190252
O87	O	-0.313933	-0.393197	0.313776
C88	C	-0.251951	-0.755494	0.116170
C89	C	-0.251807	-0.755588	0.058057
C90	C	-0.218432	-0.789012	0.806886
C91	C	-0.218417	-0.789019	0.861491
O92	O	-0.189967	-0.817466	0.889747
N93	N	-0.251844	-0.755562	0.888783
C94	C	-0.285283	-0.722093	0.861468
O95	O	-0.313713	-0.693636	0.889695
C96	C	-0.285294	-0.722084	0.806864
C97	C	-0.251870	-0.755547	0.779575
C98	C	-0.185009	-0.822472	0.779597
C99	C	-0.185025	-0.822466	0.724997
C100	C	-0.218462	-0.789000	0.697685
C101	C	-0.251885	-0.755541	0.724974
C102	C	-0.318731	-0.688613	0.779550
C103	C	-0.318739	-0.688607	0.724943
C104	C	-0.285314	-0.722069	0.697654
C105	C	-0.285338	-0.722070	0.643063
N106	N	-0.251912	-0.755526	0.615771
C107	C	-0.218474	-0.788992	0.643082
C108	C	-0.285256	-0.722113	0.976138
C109	C	-0.285247	-0.722124	1.030741
C110	C	-0.218381	-0.789049	1.030760
C111	C	-0.218392	-0.789041	0.976157
C112	C	-0.251829	-0.755570	0.948846
C113	C	-0.218509	-0.788977	0.528417
C114	C	-0.218529	-0.788970	0.473811
C115	C	-0.285393	-0.722043	0.473797
C116	C	-0.285375	-0.722052	0.528397
C117	C	-0.251929	-0.755521	0.555706
O118	O	-0.313773	-0.693635	0.614771
O119	O	-0.190044	-0.817439	0.614847
H120	H	-0.450979	-0.816111	0.191392
H121	H	-0.191258	0.044951	0.191502
H122	H	-0.157734	-0.206233	0.158106
H123	H	-0.550030	-0.816159	0.191408
H124	H	-0.346229	-0.206227	0.345967
H125	H	-0.157777	-0.849723	0.801828
H126	H	-0.312597	-0.694809	0.550617
N127	N	-0.150777	-0.310936	0.151186
N128	N	-0.120880	-0.286549	0.121397
H129	H	-0.096710	-0.306236	0.097317
H130	H	-0.191211	-0.556454	0.191422
N131	N	-0.319697	-0.059771	0.319517
N132	N	-0.352984	-0.090215	0.301060
H133	H	-0.377143	-0.109912	0.325133
N134	N	-0.184276	-0.451734	0.184515
N135	N	-0.154380	-0.476119	0.154713
H136	H	-0.130219	-0.456431	0.130634
H137	H	-0.312763	0.044963	0.312619
N138	N	-0.319394	-0.687953	1.058620
N139	N	-0.352708	-0.706325	1.089092
H140	H	-0.376823	-0.682190	1.108782
N141	N	-1.058050	-0.823263	0.184543
N142	N	-1.106803	-0.823271	0.184557
H143	H	-1.126497	-0.847411	0.160465
H144	H	-0.191241	-0.054099	0.191496
H145	H	-1.052442	-0.694912	0.312659
N146	N	-0.806839	-0.856633	0.151105
N147	N	-0.837332	-0.838269	0.117766
H148	H	-0.857007	-0.862408	0.093657
N149	N	-0.319652	-0.562110	0.319452
N150	N	-0.301306	-0.592606	0.352800
H151	H	-0.325459	-0.612299	0.376882
N152	N	-0.184383	-0.823159	0.445945
N153	N	-0.154531	-0.853035	0.470341
H154	H	-0.130416	-0.877180	0.450662
N155	N	-0.352879	-0.654425	0.807403
N156	N	-0.349405	-0.606183	0.801282
H157	H	-0.373526	-0.582036	0.820950
N158	N	-0.947655	-0.823224	0.184527
N159	N	-0.917217	-0.804842	0.151187
H160	H	-0.897509	-0.828971	0.127084
H161	H	-0.312487	-0.694857	0.953905
N162	N	-0.696576	-0.654415	0.352968
N163	N	-0.720978	-0.624555	0.382792
H164	H	-0.701304	-0.600409	0.406895
N165	N	-0.184339	-0.823165	0.556299
N166	N	-0.154501	-0.853033	0.531918
H167	H	-0.130369	-0.877180	0.551609
N168	N	-0.150879	-0.856651	0.697134
N169	N	-0.121028	-0.886526	0.721534
H170	H	-0.096910	-0.910671	0.701860
H171	H	-0.191174	-0.816288	0.953941
H172	H	-0.702137	-0.849670	0.158024
H173	H	-0.191153	-0.816298	1.053007
N174	N	-0.555761	-0.687794	0.319527
N175	N	-0.531392	-0.657910	0.349339
H176	H	-0.551092	-0.633771	0.373439
H177	H	-0.345963	-0.661345	0.702710
N178	N	-0.947744	-0.687947	0.319581
N179	N	-0.972149	-0.658084	0.349400
H180	H	-0.952477	-0.633935	0.373501
N181	N	-0.319548	-0.687868	0.445885
N182	N	-0.319552	-0.687871	0.397133
H183	H	-0.343673	-0.663733	0.377418
H184	H	-0.801275	-0.661376	0.346049
N185	N	-0.445377	-0.687772	0.319516
N186	N	-0.414873	-0.706142	0.352843
H187	H	-0.395177	-0.682006	0.376938
H188	H	-0.312726	-0.457399	0.312556
H189	H	-0.346225	-0.305272	0.345950
