data_functionalizedCrystal
_audit_creation_method	'MofGen! by Chris Wilmer'
_symmetry_space_group_name_H-M	'P1'
_symmetry_Int_Tables_number	1
_symmetry_cell_setting	triclinic
loop_
_symmetry_equiv_pos_as_xyz
  x,y,z
_cell_length_a	8.497365
_cell_length_b	21.395364
_cell_length_c	21.395361
_cell_angle_alpha	89.954341
_cell_angle_beta	90.058682
_cell_angle_gamma	89.965612
loop_
_atom_site_label
_atom_site_type_symbol
_atom_site_fract_x
_atom_site_fract_y
_atom_site_fract_z
Zn1	Zn	-0.891956	0.957920	0.249031
Zn2	Zn	-0.391956	1.457920	0.749031
Zn3	Zn	-0.628125	0.957805	0.353859
Zn4	Zn	-0.128125	1.457805	0.853859
Zn5	Zn	-0.628174	0.853117	0.249127
Zn6	Zn	-0.128174	1.353117	0.749127
Zn7	Zn	-0.891848	0.853104	0.353802
Zn8	Zn	-0.391848	1.353104	0.853802
O9	O	-0.760026	0.905487	0.301455
O10	O	-0.260026	1.405487	0.801455
O11	O	-0.856983	1.045583	0.262921
O12	O	-0.356983	1.545583	0.762921
O13	O	-0.407369	0.943875	0.340030
O14	O	0.092631	1.443875	0.840030
O15	O	-0.663231	0.867073	0.161436
O16	O	-0.163231	1.367073	0.661436
O17	O	-0.663147	1.045498	0.339937
O18	O	-0.163147	1.545498	0.839937
O19	O	-0.857031	0.944072	0.161366
O20	O	-0.357031	1.444072	0.661366
O21	O	-0.407405	0.866961	0.263083
O22	O	0.092595	1.366961	0.763083
O23	O	-0.663127	0.765438	0.263028
O24	O	-0.163127	1.265438	0.763028
O25	O	-1.112625	0.867051	0.339841
O26	O	-0.612625	1.367051	0.839841
O27	O	-0.856847	0.765428	0.339933
O28	O	-0.356847	1.265428	0.839933
O29	O	-1.112704	0.944059	0.262866
O30	O	-0.612704	1.444059	0.762866
O31	O	-0.663042	0.943862	0.441530
O32	O	-0.163042	1.443862	0.941530
O33	O	-0.856799	0.866939	0.441488
O34	O	-0.356799	1.366939	0.941488
C35	C	-0.759982	0.742699	0.301485
C36	C	-0.259982	1.242699	0.801485
C37	C	-0.760000	0.673058	0.301514
C38	C	-0.260000	1.173058	0.801514
C39	C	-0.861086	0.640411	0.261477
C40	C	-0.361086	1.140411	0.761477
C41	C	-0.861092	0.574976	0.261460
C42	C	-0.361092	1.074976	0.761460
C43	C	-0.760029	0.542189	0.301491
C44	C	-0.260029	1.042189	0.801491
C45	C	-0.658923	0.574844	0.341531
C46	C	-0.158923	1.074844	0.841531
C47	C	-0.658909	0.640278	0.341542
C48	C	-0.158909	1.140278	0.841542
C49	C	-0.747337	0.438464	0.357919
C50	C	-0.247337	0.938464	0.857919
C51	C	-0.747363	0.373031	0.357909
C52	C	-0.247363	0.873031	0.857909
C53	C	-0.760064	0.340369	0.301457
C54	C	-0.260064	0.840369	0.801457
C55	C	-0.772773	0.373147	0.245013
C56	C	-0.272773	0.873147	0.745013
C57	C	-0.772758	0.438581	0.245024
C58	C	-0.272758	0.938581	0.745024
C59	C	-0.760032	0.471237	0.301484
C60	C	-0.260032	0.971237	0.801484
C61	C	-0.861162	0.236770	0.261398
C62	C	-0.361162	0.736770	0.761398
C63	C	-0.861157	0.171333	0.261381
C64	C	-0.361157	0.671333	0.761381
C65	C	-0.658996	0.171202	0.341458
C66	C	-0.158996	0.671202	0.841458
C67	C	-0.658993	0.236638	0.341470
C68	C	-0.158993	0.736638	0.841470
C69	C	-0.760084	0.269417	0.301441
C70	C	-0.260084	0.769417	0.801441
C71	C	-0.759938	0.905404	0.464243
C72	C	-0.259938	1.405404	0.964243
C73	C	-0.759953	0.905426	0.533884
C74	C	-0.259953	1.405426	1.033884
C75	C	-0.350146	0.905441	0.301523
C76	C	0.149854	1.405441	0.801523
C77	C	-0.171502	0.905531	0.301395
C78	C	0.328498	1.405531	0.801395
C79	C	-0.760071	1.068910	0.301425
C80	C	-0.260071	1.568910	0.801425
C81	C	-0.760091	1.138551	0.301412
C82	C	-0.260091	1.638551	0.801412
C83	C	-0.760148	0.905587	0.138032
C84	C	-0.260148	1.405587	0.638032
C85	C	-0.760201	0.905629	0.068390
C86	C	-0.260201	1.405629	0.568390
C87	C	-0.659168	0.945515	0.566598
C88	C	-0.159168	1.445515	1.066598
C89	C	-0.659203	0.945544	0.632033
C90	C	-0.159203	1.445544	1.132033
C91	C	-0.760007	0.905473	0.664752
C92	C	-0.260007	1.405473	1.164752
C93	C	-0.860813	0.865381	0.632030
C94	C	-0.360813	1.365381	1.132030
C95	C	-0.860786	0.865357	0.566596
C96	C	-0.360786	1.365357	1.066596
C97	C	-0.772370	0.849059	0.768479
C98	C	-0.272370	1.349059	1.268479
C99	C	-0.772386	0.849082	0.833912
C100	C	-0.272386	1.349082	1.333912
C101	C	-0.760100	0.905546	0.866573
C102	C	-0.260100	1.405546	1.366573
C103	C	-0.747765	0.961989	0.833793
C104	C	-0.247765	1.461989	1.333793
C105	C	-0.747738	0.961966	0.768359
C106	C	-0.247738	1.461966	1.268359
C107	C	-0.760049	0.905494	0.735704
C108	C	-0.260049	1.405494	1.235704
C109	C	-0.659347	0.945670	0.970239
C110	C	-0.159347	1.445670	1.470239
C111	C	-0.659393	0.945700	1.035676
C112	C	-0.159393	1.445700	1.535676
C113	C	-0.860995	0.865531	1.035672
C114	C	-0.360995	1.365531	1.535672
C115	C	-0.860957	0.865507	0.970236
C116	C	-0.360957	1.365507	1.470236
C117	C	-0.760124	0.905575	0.937524
C118	C	-0.260124	1.405575	1.437524
H119	H	-0.576708	0.144508	0.374052
H120	H	-0.076708	0.644508	0.874052
H121	H	-0.942859	0.832711	0.539960
H122	H	-0.442859	1.332711	1.039960
H123	H	-0.737022	0.346348	0.403869
H124	H	-0.237022	0.846348	0.903869
H125	H	-0.736993	0.465053	0.403893
H126	H	-0.236993	0.965053	0.903893
F127	F	-0.968746	0.136588	0.218763
F128	F	-0.468746	0.636588	0.718763
H129	H	-0.783101	0.465267	0.199065
H130	H	-0.283101	0.965267	0.699065
H131	H	-0.943467	0.263460	0.228801
H132	H	-0.443467	0.763460	0.728801
H133	H	-0.943402	0.667096	0.228882
H134	H	-0.443402	1.167096	0.728882
F135	F	-0.968684	0.540224	0.218844
F136	F	-0.468684	1.040224	0.718844
F137	F	-0.551358	0.539950	0.384133
F138	F	-0.051358	1.039950	0.884133
F139	F	-0.734675	1.022087	0.868548
F140	F	-0.234675	1.522087	1.368548
H141	H	-0.576590	0.666858	0.374146
H142	H	-0.076590	1.166858	0.874146
H143	H	-0.576684	0.263219	0.374075
H144	H	-0.076684	0.763219	0.874075
H145	H	-0.943019	0.832860	0.943599
H146	H	-0.443019	1.332860	1.443599
F147	F	-0.785509	0.789010	0.868792
F148	F	-0.285509	1.289010	1.368792
H149	H	-0.783115	0.346555	0.199044
H150	H	-0.283115	0.846555	0.699044
H151	H	-0.782381	0.803075	0.741893
H152	H	-0.282381	1.303075	1.241893
F153	F	-0.552128	0.988375	1.070492
F154	F	-0.052128	1.488375	1.570492
H155	H	-0.577248	0.978298	0.943604
H156	H	-0.077248	1.478298	1.443604
H157	H	-0.942891	0.832756	0.658674
H158	H	-0.442891	1.332756	1.158674
F159	F	-0.551870	0.988167	0.531787
F160	F	-0.051870	1.488167	1.031787
H161	H	-0.577131	0.978192	0.658674
H162	H	-0.077131	1.478192	1.158674
F163	F	-0.734620	1.022036	0.733474
F164	F	-0.234620	1.522036	1.233474
H165	H	-0.943079	0.832907	1.062311
H166	H	-0.443079	1.332907	1.562311
