data_functionalizedCrystal
_audit_creation_method	'MofGen! by Chris Wilmer'
_symmetry_space_group_name_H-M	'P1'
_symmetry_Int_Tables_number	1
_symmetry_cell_setting	triclinic
loop_
_symmetry_equiv_pos_as_xyz
  x,y,z
_cell_length_a	12.759401
_cell_length_b	18.101395
_cell_length_c	12.759393
_cell_angle_alpha	89.966350
_cell_angle_beta	89.982620
_cell_angle_gamma	90.031265
loop_
_atom_site_label
_atom_site_type_symbol
_atom_site_fract_x
_atom_site_fract_y
_atom_site_fract_z
Zn1	Zn	1.606124	-0.294781	-0.593968
Zn2	Zn	1.605972	-0.418643	-0.418282
Zn3	Zn	1.430429	-0.294820	-0.418307
Zn4	Zn	1.430364	-0.418586	-0.593923
O5	O	1.518222	-0.356708	-0.506120
O6	O	1.753125	-0.311219	-0.570671
O7	O	1.582649	-0.402258	-0.271264
O8	O	1.453827	-0.191182	-0.441638
O9	O	1.753013	-0.402220	-0.441595
O10	O	1.582909	-0.191154	-0.570695
O11	O	1.453679	-0.311286	-0.271283
O12	O	1.283400	-0.311231	-0.441595
O13	O	1.453716	-0.402122	-0.740950
O14	O	1.283352	-0.402160	-0.570619
O15	O	1.582846	-0.311164	-0.740983
O16	O	1.582586	-0.522269	-0.441552
O17	O	1.453568	-0.522226	-0.570595
C18	C	1.245255	-0.356694	-0.506106
C19	C	1.128478	-0.356706	-0.506125
C20	C	1.518082	-0.549118	-0.506089
C21	C	1.518118	-0.631432	-0.506111
C22	C	1.073619	-0.404129	-0.573197
C23	C	0.963895	-0.404138	-0.573208
C24	C	0.963899	-0.309300	-0.439066
C25	C	1.073621	-0.309287	-0.439061
C26	C	1.128476	-0.451548	-0.640260
C27	C	1.073616	-0.498975	-0.707337
C28	C	0.963892	-0.498985	-0.707348
C29	C	0.909028	-0.451567	-0.640283
C30	C	1.518348	-0.930523	-0.506168
C31	C	1.437362	-0.899202	-0.587559
C32	C	1.436977	-0.813584	-0.587305
C33	C	1.518234	-0.782141	-0.506140
C34	C	1.488255	-0.813301	-0.395415
C35	C	1.487733	-0.898946	-0.395903
C36	C	1.629490	-0.898865	-0.534526
C37	C	1.628837	-0.813213	-0.536954
C38	C	1.518171	-0.698281	-0.506118
C39	C	1.518409	-1.014383	-0.506182
C40	C	1.792256	-0.356722	-0.506135
C41	C	1.909032	-0.356728	-0.506141
C42	C	1.518291	-0.356632	-0.780153
C43	C	1.518320	-0.356600	-0.896930
C44	C	1.518392	-0.163546	-0.506174
C45	C	1.518464	-0.081232	-0.506197
C46	C	1.451193	-0.309222	-0.951808
C47	C	1.451225	-0.309200	-1.061532
C48	C	1.585519	-0.403936	-1.061491
C49	C	1.585481	-0.403961	-0.951769
C50	C	1.384033	-0.261861	-0.896969
C51	C	1.316902	-0.214479	-0.951847
C52	C	1.316933	-0.214457	-1.061571
C53	C	1.384096	-0.261817	-1.116417
C54	C	1.518215	-0.356729	-0.233153
C55	C	1.518389	-0.356553	-0.116376
H56	H	1.217819	-0.451547	-0.640256
H57	H	1.692368	-0.791805	-0.481993
C58	C	1.384125	-0.261791	-1.237118
N59	N	1.384151	-0.261768	-1.328028
C60	C	1.462312	-0.785117	-0.698222
N61	N	1.481390	-0.763679	-0.781770
C62	C	1.243029	-0.162384	-0.891514
N63	N	1.187389	-0.123143	-0.846072
C64	C	1.711005	-0.926232	-0.454446
N65	N	1.772395	-0.946850	-0.394127
H66	H	1.640202	-0.442493	-1.106156
H67	H	0.919220	-0.270695	-0.384464
C68	C	1.243089	-0.162336	-1.121933
N69	N	1.187472	-0.123073	-1.167396
H70	H	1.640155	-0.442531	-0.907087
C71	C	0.788327	-0.451579	-0.640300
N72	N	0.697417	-0.451593	-0.640309
C73	C	1.462441	-0.926958	-0.698836
N74	N	1.481330	-0.947871	-0.782652
C75	C	1.383990	-0.261882	-0.776270
N76	N	1.383959	-0.261899	-0.685360
H77	H	1.545386	-0.792935	-0.333119
C78	C	1.659405	-0.785664	-0.647018
N79	N	1.682433	-0.764899	-0.729912
C80	C	1.377974	-0.926028	-0.363455
N81	N	1.295299	-0.946422	-0.339019
C82	C	0.903550	-0.551158	-0.781129
N83	N	0.858102	-0.590461	-0.836697
C84	C	1.133969	-0.551131	-0.781106
N85	N	1.179426	-0.590417	-0.836669
H86	H	1.118289	-0.270666	-0.384453
H87	H	1.355482	-0.920790	-0.569012
H88	H	1.354596	-0.793163	-0.568521
H89	H	1.544161	-0.919668	-0.333192
H90	H	1.407872	-0.791918	-0.370962
H91	H	1.656821	-0.920406	-0.613890
