data_functionalizedCrystal
_audit_creation_method	'MofGen! by Chris Wilmer'
_symmetry_space_group_name_H-M	'P1'
_symmetry_Int_Tables_number	1
_symmetry_cell_setting	triclinic
loop_
_symmetry_equiv_pos_as_xyz
  x,y,z
_cell_length_a	6.817900
_cell_length_b	16.305550
_cell_length_c	14.858329
_cell_angle_alpha	95.069405
_cell_angle_beta	104.519616
_cell_angle_gamma	103.455250
loop_
_atom_site_label
_atom_site_type_symbol
_atom_site_fract_x
_atom_site_fract_y
_atom_site_fract_z
V1	V	-4.031538	-0.263273	-0.129456
O2	O	-4.013620	-0.258014	0.005413
O3	O	-3.988158	-0.261711	-0.255913
O4	O	-3.982877	-0.377987	-0.127819
O5	O	-4.018938	-0.140933	-0.123567
V6	V	-4.514549	-0.248611	-0.113282
O7	O	-4.293919	-0.295435	-0.164934
O8	O	-4.702365	-0.216450	-0.077804
O9	O	-4.334722	-0.250174	0.013175
O10	O	-4.649864	-0.253871	-0.248151
O11	O	-4.644546	-0.370952	-0.119171
O12	O	-4.340003	-0.133897	-0.114919
C13	C	-3.834389	-0.257619	-0.286729
C14	C	-3.880206	-0.257106	-0.390111
C15	C	-3.917408	-0.256681	-0.474068
C16	C	-3.964100	-0.256153	-0.579396
C17	C	-4.001330	-0.255732	-0.663347
C18	C	-4.048025	-0.255203	-0.768682
C19	C	-3.827651	-0.405940	-0.123332
C20	C	-3.869182	-0.499721	-0.122830
C21	C	-4.020189	-0.840463	-0.120886
C22	C	-3.783906	-0.799523	-0.115116
C23	C	-3.740749	-0.702030	-0.116022
C24	C	-3.945271	-0.671417	-0.121850
C25	C	-4.116059	-0.722215	-0.213697
C26	C	-4.157901	-0.819763	-0.213177
C27	C	-4.071456	-0.794460	-0.035544
C28	C	-4.023497	-0.696616	-0.034817
C29	C	-3.902944	-0.575880	-0.122398
C30	C	-4.062526	-0.936001	-0.120345
C31	C	-4.151834	-0.254264	0.043986
C32	C	-4.085255	-0.254782	0.147367
C33	C	-4.158571	-0.105940	-0.119409
C34	C	-4.096279	-0.012158	-0.119906
H35	H	-3.611552	-0.666883	-0.049985
H36	H	-4.243661	-0.821282	-0.038955
Br37	Br	-3.602479	-0.819762	-0.004424
H38	H	-3.741322	-0.831150	-0.176430
Br39	Br	-3.634274	-0.675060	-0.219402
Br40	Br	-4.102067	-0.870607	-0.320859
Br41	Br	-4.448173	-0.866445	-0.226580
H42	H	-4.269525	-0.703316	-0.221283
Br43	Br	-4.028085	-0.694396	-0.321412
Br44	Br	-3.817111	-0.639114	0.078417
H45	H	-3.977210	-0.807698	0.034047
H46	H	-4.170738	-0.675266	-0.033674
