data_functionalizedCrystal
_audit_creation_method	'MofGen! by Chris Wilmer'
_symmetry_space_group_name_H-M	'P1'
_symmetry_Int_Tables_number	1
_symmetry_cell_setting	triclinic
loop_
_symmetry_equiv_pos_as_xyz
  x,y,z
_cell_length_a	13.635800
_cell_length_b	17.982959
_cell_length_c	17.982738
_cell_angle_alpha	84.070927
_cell_angle_beta	77.552269
_cell_angle_gamma	102.451857
loop_
_atom_site_label
_atom_site_type_symbol
_atom_site_fract_x
_atom_site_fract_y
_atom_site_fract_z
V1	V	-2.004947	-0.106135	0.237869
O2	O	-2.001496	0.004358	0.233014
O3	O	-1.978232	-0.209734	0.236557
O4	O	-1.978223	-0.104828	0.341469
O5	O	-2.001505	-0.101274	0.127376
V6	V	-2.247414	-0.092880	0.224615
O7	O	-2.134029	-0.135210	0.266943
O8	O	-2.343431	-0.063805	0.195541
O9	O	-2.162526	0.010718	0.225927
O10	O	-2.309563	-0.203373	0.229471
O11	O	-2.309554	-0.097741	0.335108
O12	O	-2.162534	-0.094187	0.121016
C13	C	-1.900202	-0.234979	0.232886
C14	C	-1.918985	-0.319674	0.232504
V15	V	-1.504947	-0.106135	0.237869
O16	O	-1.501496	0.004358	0.233014
O17	O	-1.478232	-0.209734	0.236557
O18	O	-1.478223	-0.104828	0.341469
O19	O	-1.501505	-0.101274	0.127376
V20	V	-1.747414	-0.092880	0.224615
O21	O	-1.634029	-0.135210	0.266943
O22	O	-1.843431	-0.063805	0.195541
O23	O	-1.662526	0.010718	0.225927
O24	O	-1.809563	-0.203373	0.229471
O25	O	-1.809554	-0.097741	0.335108
O26	O	-1.662534	-0.094187	0.121016
C27	C	-2.018676	-0.363357	0.236136
C28	C	-2.036320	-0.442937	0.235782
C29	C	-1.954272	-0.478834	0.231789
C30	C	-1.854574	-0.435146	0.228159
C31	C	-1.836932	-0.355568	0.228519
C32	C	-1.925719	-0.756077	0.226707
C33	C	-1.943369	-0.835661	0.226345
C34	C	-2.125107	-0.843447	0.233970
C35	C	-2.107466	-0.763869	0.234330
C36	C	-2.007771	-0.720189	0.230704
C37	C	-1.988640	-0.633898	0.231090
C38	C	-1.973400	-0.565122	0.231398
C39	C	-1.900191	-0.101160	0.366710
C40	C	-1.918966	-0.100778	0.451405
C41	C	-2.072227	0.035959	0.229596
C42	C	-2.043062	0.120654	0.229983
C43	C	-2.072238	-0.097858	0.095771
C44	C	-2.043082	-0.098237	0.011075
C45	C	-1.400202	-0.234979	0.232886
C46	C	-1.418985	-0.319674	0.232504
C47	C	-2.125126	-0.102229	0.975174
C48	C	-2.107480	-0.102594	0.895595
C49	C	-2.007787	-0.098961	0.851917
C50	C	-1.925738	-0.094971	0.887823
C51	C	-1.943386	-0.094611	0.967401
C52	C	-1.854563	-0.096422	0.566890
C53	C	-1.836920	-0.096780	0.487306
C54	C	-2.018656	-0.104405	0.495084
C55	C	-2.036305	-0.104045	0.574663
C56	C	-1.954255	-0.100059	0.610562
C57	C	-1.973391	-0.099665	0.696852
C58	C	-1.988650	-0.099350	0.765628
C59	C	-1.400191	-0.101160	0.366710
C60	C	-1.418966	-0.100778	0.451405
C61	C	-1.572227	0.035959	0.229596
C62	C	-1.543062	0.120654	0.229983
C63	C	-1.572238	-0.097858	0.095771
C64	C	-1.543082	-0.098237	0.011075
C65	C	-1.518684	-0.363345	0.236143
C66	C	-1.536351	-0.442927	0.235795
C67	C	-1.454315	-0.478838	0.231804
C68	C	-1.354609	-0.435162	0.228167
C69	C	-1.336945	-0.355581	0.228520
C70	C	-1.518659	-0.104408	0.495073
C71	C	-1.536312	-0.104038	0.574652
C72	C	-1.454272	-0.100043	0.610562
C73	C	-1.354571	-0.096410	0.566887
C74	C	-1.336917	-0.096775	0.487309
C75	C	-1.615857	0.164324	0.226346
C76	C	-1.588462	0.243906	0.226698
C77	C	-1.488274	0.279816	0.230691
C78	C	-1.415474	0.236141	0.234326
C79	C	-1.442867	0.156561	0.233969
C80	C	-1.442891	-0.102223	-0.024815
C81	C	-1.415478	-0.102570	-0.104397
C82	C	-1.488260	-0.098936	-0.148086
C83	C	-1.588459	-0.094947	-0.112191
C84	C	-1.615868	-0.094595	-0.032612
H85	H	-2.085490	-0.334135	0.239380
H86	H	-1.255758	-0.320030	0.225552
F87	F	-1.267309	-0.473391	0.223916
F88	F	-1.267268	-0.092166	0.605117
F89	F	-2.231214	-0.889941	0.237832
H90	H	-1.585473	-0.107663	0.465847
F91	F	-1.665957	0.290374	0.222830
F92	F	-2.231231	-0.106089	1.021652
H93	H	-1.255736	-0.093820	0.451760
F94	F	-1.642430	-0.107910	0.621121
F95	F	-1.722492	0.126120	0.222096
F96	F	-1.473077	-0.099658	0.695258
H97	H	-1.755756	-0.320003	0.225564
F98	F	-1.459135	0.364514	0.231070
H99	H	-1.647710	-0.091987	-0.147775
H100	H	-2.174290	-0.105846	0.866369
F101	F	-1.819638	-0.091110	0.841336
F102	F	-1.767253	-0.473353	0.223914
H103	H	-1.876550	-0.864886	0.223099
F104	F	-1.819617	-0.709599	0.222843
F105	F	-1.856064	-0.090365	1.005609
H106	H	-1.333888	-0.105818	-0.133611
F107	F	-1.308847	0.274371	0.238572
H108	H	-1.383585	0.121009	0.236938
H109	H	-1.697455	-0.091353	-0.003396
F110	F	-1.365414	-0.106091	0.021668
F111	F	-1.642471	-0.489396	0.239663
H112	H	-2.117497	-0.478501	0.238741
F113	F	-2.194792	-0.725668	0.238571
H114	H	-1.465932	-0.099233	-0.212883
H115	H	-2.117482	-0.107000	0.610222
H116	H	-1.755733	-0.093813	0.451743
F117	F	-1.767236	-0.092178	0.605087
F118	F	-2.105982	-0.108654	0.456871
F119	F	-1.473130	-0.563536	0.231428
H120	H	-1.585493	-0.334117	0.239389
