data_functionalizedCrystal
_audit_creation_method	'MofGen! by Chris Wilmer'
_symmetry_space_group_name_H-M	'P1'
_symmetry_Int_Tables_number	1
_symmetry_cell_setting	triclinic
loop_
_symmetry_equiv_pos_as_xyz
  x,y,z
_cell_length_a	17.699077
_cell_length_b	10.540510
_cell_length_c	16.776229
_cell_angle_alpha	89.995854
_cell_angle_beta	89.993415
_cell_angle_gamma	83.896944
loop_
_atom_site_label
_atom_site_type_symbol
_atom_site_fract_x
_atom_site_fract_y
_atom_site_fract_z
O1	O	1.005115	0.160487	-0.066273
O2	O	0.784870	0.181379	-0.066277
O3	O	0.900029	-0.013869	-0.066275
O4	O	0.889956	0.355734	-0.066275
O5	O	0.900013	-0.013881	0.066302
O6	O	0.784855	0.181367	0.066300
O7	O	1.005099	0.160475	0.066303
Zn8	Zn	0.894974	0.170919	0.087351
Zn9	Zn	0.894995	0.170935	-0.087324
O10	O	0.889940	0.355722	0.066301
C11	C	0.756660	0.180625	0.000011
C12	C	0.672628	0.178383	0.000010
C13	C	0.633145	0.177321	0.072278
C14	C	0.554189	0.175194	0.072279
C15	C	0.514716	0.174139	0.000011
C16	C	0.554204	0.175198	-0.072263
C17	C	0.633160	0.177316	-0.072263
C18	C	0.235786	0.166656	-0.072265
C19	C	0.156825	0.164542	-0.072259
C20	C	0.156815	0.164534	0.072277
C21	C	0.235771	0.166651	0.072277
C22	C	0.275253	0.167704	0.000004
C23	C	0.360866	0.170008	0.000004
C24	C	0.429103	0.171844	0.000010
C25	C	0.899270	-0.061164	0.000012
C26	C	0.897025	-0.202073	0.000007
C27	C	0.977025	-0.420995	0.000312
C28	C	0.979421	-0.274443	0.000009
C29	C	0.854855	-0.246052	-0.075700
C30	C	0.853043	-0.392780	-0.075759
C31	C	0.851309	-0.392570	0.075005
C32	C	0.855217	-0.246301	0.076002
C33	C	1.033309	0.161228	0.000014
C34	C	1.117341	0.163470	0.000010
C35	C	0.890699	0.403018	0.000013
C36	C	0.892944	0.543926	0.000012
N37	N	0.894966	0.170907	0.206562
N38	N	0.895009	0.170936	-0.206536
C39	C	0.945974	0.084487	0.248280
C40	C	0.945978	0.084486	0.331732
C41	C	0.894977	0.170912	0.373465
C42	C	0.843964	0.257336	0.331741
C43	C	0.843957	0.257330	0.248290
C44	C	0.843991	0.257361	0.668288
C45	C	0.844004	0.257363	0.751745
C46	C	0.946013	0.084517	0.751730
C47	C	0.946006	0.084511	0.668280
C48	C	0.894990	0.170930	0.626563
C49	C	0.894985	0.170929	0.536075
C50	C	0.894985	0.170921	0.463952
H51	H	0.267923	0.167509	-0.131114
H52	H	0.802454	0.327729	0.634329
H53	H	0.802470	0.327744	0.785722
H54	H	0.987551	0.014146	0.785705
H55	H	0.522060	0.174330	-0.131105
H56	H	0.124688	0.163682	-0.131112
H57	H	0.791416	-0.414645	-0.079190
H58	H	1.012416	-0.245709	0.054278
H59	H	0.885902	-0.218257	0.132009
H60	H	0.881874	-0.433518	-0.132350
H61	H	0.665305	0.178184	-0.131112
H62	H	0.522047	0.174307	0.131127
H63	H	0.877487	-0.435237	0.132391
H64	H	0.794197	-0.197551	-0.078516
H65	H	0.884153	-0.215727	-0.132039
H66	H	0.267905	0.167517	0.131126
H67	H	0.789446	-0.413587	0.075514
H68	H	0.802420	0.327701	0.214324
H69	H	0.795061	-0.196132	0.080573
H70	H	0.987538	0.014139	0.634303
H71	H	0.802434	0.327702	0.365725
H72	H	0.987508	0.014114	0.214307
H73	H	1.009119	-0.463543	0.054605
H74	H	0.987512	0.014116	0.365699
H75	H	1.008947	-0.465080	-0.053673
H76	H	0.665277	0.178190	0.131127
H77	H	0.124660	0.163671	0.131126
H78	H	1.012621	-0.246641	-0.054353
