data_functionalizedCrystal
_audit_creation_method	'MofGen! by Chris Wilmer'
_symmetry_space_group_name_H-M	'P1'
_symmetry_Int_Tables_number	1
_symmetry_cell_setting	triclinic
loop_
_symmetry_equiv_pos_as_xyz
  x,y,z
_cell_length_a	16.109301
_cell_length_b	16.109301
_cell_length_c	9.130313
_cell_angle_alpha	89.994060
_cell_angle_beta	89.998839
_cell_angle_gamma	83.461532
loop_
_atom_site_label
_atom_site_type_symbol
_atom_site_fract_x
_atom_site_fract_y
_atom_site_fract_z
O1	O	1.103131	0.106868	-0.121724
O2	O	0.861069	0.120167	-0.121745
O3	O	0.988749	-0.007513	-0.121719
O4	O	0.975450	0.234549	-0.121750
O5	O	0.988741	-0.007517	0.121880
O6	O	0.861060	0.120163	0.121854
O7	O	1.103122	0.106864	0.121875
Cu8	Cu	0.982090	0.113514	0.144107
Cu9	Cu	0.982100	0.113518	-0.143977
O10	O	0.975441	0.234545	0.121849
C11	C	0.830089	0.119627	0.000052
C12	C	0.737794	0.118011	0.000045
C13	C	0.428796	0.188494	0.000061
C14	C	0.515516	0.190020	0.000052
C15	C	0.535389	0.038531	0.000052
C16	C	0.448671	0.037007	0.000050
C17	C	0.395376	0.111991	0.000062
C18	C	0.568815	0.115041	0.000055
C19	C	0.662841	0.116694	0.000046
C20	C	0.301344	0.110338	0.000069
C21	C	0.988206	-0.038490	0.000081
C22	C	0.986591	-0.130785	0.000083
C23	C	1.058599	-0.353058	0.000067
C24	C	1.057075	-0.439778	0.000054
C25	C	0.905586	-0.419904	0.000047
C26	C	0.907111	-0.333185	0.000049
C27	C	0.983620	-0.299765	0.000066
C28	C	0.980571	-0.473204	0.000052
C29	C	0.978918	-0.567230	0.000039
C30	C	0.985273	-0.205733	0.000076
C31	C	1.134101	0.107405	0.000075
C32	C	1.226396	0.109020	0.000073
C33	C	0.975984	0.265522	0.000046
C34	C	0.977599	0.357817	0.000034
N35	N	0.982089	0.113510	0.346730
N36	N	0.982108	0.113515	-0.346599
C37	C	1.038645	0.056997	0.423393
C38	C	1.038653	0.056997	0.576730
C39	C	0.925546	0.170031	0.576727
C40	C	0.925535	0.170026	0.423393
H41	H	0.421461	-0.025296	0.000047
H42	H	1.084705	0.010978	0.639145
Br43	Br	1.115395	-0.019705	0.319356
H44	H	0.879502	0.216046	0.639161
Br45	Br	0.848769	0.246722	0.319337
H46	H	0.843295	-0.447126	0.000036
H47	H	0.542722	0.252317	0.000050
Br48	Br	0.607722	-0.063228	0.000048
H49	H	0.385405	0.249551	0.000070
H50	H	1.118130	-0.483167	0.000052
Br51	Br	1.162431	-0.307704	0.000091
Br52	Br	0.805346	-0.260852	0.000028
