data_functionalizedCrystal
_audit_creation_method	'MofGen! by Chris Wilmer'
_symmetry_space_group_name_H-M	'P1'
_symmetry_Int_Tables_number	1
_symmetry_cell_setting	triclinic
loop_
_symmetry_equiv_pos_as_xyz
  x,y,z
_cell_length_a	11.026607
_cell_length_b	12.837942
_cell_length_c	10.065875
_cell_angle_alpha	99.723749
_cell_angle_beta	79.302338
_cell_angle_gamma	101.707478
loop_
_atom_site_label
_atom_site_type_symbol
_atom_site_fract_x
_atom_site_fract_y
_atom_site_fract_z
O1	O	1.677813	0.431471	-0.113501
O2	O	1.318665	0.380952	-0.113502
O3	O	1.490274	0.253824	-0.113493
O4	O	1.506204	0.558600	-0.113509
O5	O	1.457565	0.278190	0.113494
O6	O	1.285956	0.405318	0.113485
O7	O	1.645104	0.455838	0.113486
Zn8	Zn	1.460337	0.434446	0.149525
Zn9	Zn	1.503433	0.402343	-0.149540
O10	O	1.473495	0.582966	0.113478
C11	C	1.256022	0.383815	-0.000008
C12	C	1.118096	0.356032	-0.000008
C13	C	1.468539	0.226382	0.000000
C14	C	1.452492	0.108310	-0.000002
C15	C	1.053161	0.432745	-0.000013
C16	C	0.910607	0.404032	-0.000014
C17	C	1.645414	-0.096651	-0.000030
C18	C	1.630342	-0.207590	-0.000032
C19	C	1.407280	-0.224509	-0.000019
C20	C	1.422351	-0.113570	-0.000017
C21	C	1.541422	-0.049645	-0.000020
C22	C	1.556491	0.061297	-0.000008
C23	C	1.333431	0.044375	-0.000004
C24	C	1.318359	-0.066563	-0.000007
C25	C	1.707748	0.452974	-0.000010
C26	C	1.845676	0.480756	-0.000019
C27	C	1.495231	0.610407	-0.000018
C28	C	1.511279	0.728478	-0.000025
N29	N	1.430934	0.456357	0.353629
N30	N	1.532844	0.380426	-0.353644
C31	C	1.493194	0.409958	0.421411
C32	C	1.470575	0.426831	0.578577
H33	H	1.103105	0.519680	-0.000010
H34	H	0.860672	0.317088	-0.000044
H35	H	1.310340	-0.276577	-0.000031
H36	H	0.895613	0.567697	-0.000014
H37	H	1.602892	0.328202	0.588039
C38	C	1.337423	0.525820	0.431558
C39	C	1.243063	0.464104	0.513637
C40	C	1.156906	0.528061	0.585455
H41	H	1.301155	0.552768	0.368811
H42	H	1.379258	0.584117	0.487371
H43	H	1.201233	0.405827	0.457830
H44	H	1.279294	0.437157	0.576410
H45	H	1.198742	0.586358	0.641267
H46	H	1.120648	0.555006	0.522697
H47	H	1.092880	0.486199	0.641163
C48	C	1.051296	0.240166	-0.000074
C49	C	0.923190	0.234717	-0.000109
C50	C	0.861622	0.127995	-0.000189
H51	H	1.062414	0.214270	0.079060
H52	H	1.085304	0.197364	-0.079261
H53	H	0.889193	0.277504	0.079070
H54	H	0.912035	0.260591	-0.079237
H55	H	0.895629	0.085193	-0.079377
H56	H	0.872749	0.102109	0.078946
H57	H	0.774697	0.124282	-0.000226
C58	C	1.774796	-0.027429	-0.000103
C59	C	1.862650	-0.092345	-0.000140
C60	C	1.981853	-0.028619	-0.000228
H61	H	1.774086	0.024711	0.079029
H62	H	1.796782	0.007682	-0.079292
H63	H	1.840669	-0.127438	0.079041
H64	H	1.863399	-0.144483	-0.079267
H65	H	2.003839	0.006492	-0.079417
H66	H	1.981130	0.023518	0.078905
H67	H	2.041478	-0.072656	-0.000266
C68	C	1.189180	-0.136146	0.000071
C69	C	1.198231	-0.243360	0.000099
C70	C	1.079251	-0.307485	0.000195
H71	H	1.157109	-0.130066	-0.079055
H72	H	1.134404	-0.113005	0.079266
H73	H	1.252987	-0.266495	-0.079087
H74	H	1.230280	-0.249474	0.079220
H75	H	1.024475	-0.284344	0.079389
H76	H	1.047190	-0.301396	-0.078933
H77	H	1.085374	-0.380235	0.000226
H78	H	1.248752	0.082660	0.000015
H79	H	1.653444	0.113344	-0.000006
C80	C	1.586434	0.340164	0.343694
C81	C	1.549006	0.235986	0.378296
C82	C	1.634864	0.171666	0.306705
H83	H	1.667290	0.369325	0.366954
H84	H	1.589190	0.338025	0.248389
H85	H	1.546264	0.238128	0.473580
H86	H	1.468163	0.206793	0.355033
H87	H	1.637620	0.169527	0.211400
H88	H	1.715715	0.200837	0.329970
H89	H	1.609475	0.100972	0.330162
H90	H	1.715025	-0.245858	-0.000045
H91	H	1.400518	0.479046	0.636895
