data_functionalizedCrystal
_audit_creation_method	'MofGen! by Chris Wilmer'
_symmetry_space_group_name_H-M	'P1'
_symmetry_Int_Tables_number	1
_symmetry_cell_setting	triclinic
loop_
_symmetry_equiv_pos_as_xyz
  x,y,z
_cell_length_a	15.995292
_cell_length_b	17.038272
_cell_length_c	15.072220
_cell_angle_alpha	89.999202
_cell_angle_beta	89.986330
_cell_angle_gamma	87.290086
loop_
_atom_site_label
_atom_site_type_symbol
_atom_site_fract_x
_atom_site_fract_y
_atom_site_fract_z
O1	O	1.118189	0.100556	-0.073808
O2	O	1.618189	0.600556	0.426192
O3	O	0.875297	0.113048	-0.073804
O4	O	1.375297	0.613048	0.426196
O5	O	0.995300	-0.007013	-0.073799
O6	O	1.495300	0.492987	0.426201
O7	O	0.998187	0.220618	-0.073813
O8	O	1.498187	0.720618	0.426187
O9	O	0.995268	-0.007006	0.073766
O10	O	1.495268	0.492994	0.573766
O11	O	0.875266	0.113055	0.073761
O12	O	1.375266	0.613055	0.573761
O13	O	1.118158	0.100563	0.073757
O14	O	1.618158	0.600563	0.573757
Zn15	Zn	0.996707	0.106810	0.097188
Zn16	Zn	1.496707	0.606810	0.597188
Zn17	Zn	0.996748	0.106801	-0.097235
Zn18	Zn	1.496748	0.606801	0.402765
O19	O	0.998155	0.220624	0.073752
O20	O	1.498155	0.720624	0.573752
C21	C	0.844050	0.112543	-0.000021
C22	C	1.344050	0.612543	0.499979
C23	C	0.750988	0.111019	-0.000020
C24	C	1.250988	0.611019	0.499980
C25	C	0.992658	-0.036138	-0.000016
C26	C	1.492658	0.463862	0.499984
C27	C	0.984824	-0.122932	-0.000017
C28	C	1.484824	0.377068	0.499983
C29	C	0.412851	0.105415	-0.000029
C30	C	0.912851	0.605415	0.499971
C31	C	0.442336	0.192073	-0.000364
C32	C	0.942336	0.692073	0.499636
C33	C	0.539129	0.193720	-0.000028
C34	C	1.039129	0.693720	0.499972
C35	C	0.580605	0.108196	-0.000025
C36	C	1.080605	0.608196	0.499975
C37	C	0.548399	0.064875	0.084241
C38	C	1.048399	0.564875	0.584241
C39	C	0.451534	0.063832	0.084308
C40	C	0.951534	0.563832	0.584308
C41	C	0.451588	0.062055	-0.083501
C42	C	0.951588	0.562055	0.416499
C43	C	0.548309	0.065266	-0.084611
C44	C	1.048309	0.565266	0.415389
C45	C	0.675412	0.109763	-0.000020
C46	C	1.175412	0.609763	0.499980
C47	C	0.318043	0.103846	-0.000029
C48	C	0.818043	0.603846	0.499971
C49	C	1.056753	-0.173042	-0.000017
C50	C	1.556753	0.326958	0.499983
C51	C	1.049387	-0.254593	-0.000025
C52	C	1.549387	0.245407	0.499975
C53	C	0.970090	-0.286032	-0.000027
C54	C	1.470090	0.213968	0.499973
C55	C	0.898155	-0.235915	-0.000029
C56	C	1.398155	0.264085	0.499971
C57	C	0.905522	-0.154365	-0.000028
C58	C	1.405522	0.345635	0.499972
C59	C	0.944064	-0.531791	-0.000039
C60	C	1.444064	-0.031791	0.499961
C61	C	0.936702	-0.613347	-0.000038
C62	C	1.436702	-0.113347	0.499962
C63	C	1.087934	-0.632019	-0.000035
C64	C	1.587934	-0.132019	0.499965
C65	C	1.095294	-0.550468	-0.000028
C66	C	1.595294	-0.050468	0.499972
C67	C	1.023359	-0.500358	-0.000035
C68	C	1.523359	-0.000358	0.499965
C69	C	0.962559	-0.369390	-0.000033
C70	C	1.462559	0.130610	0.499967
C71	C	1.030892	-0.417001	-0.000036
C72	C	1.530892	0.082999	0.499964
C73	C	1.149405	0.101068	-0.000028
C74	C	1.649405	0.601068	0.499972
C75	C	1.242467	0.102592	-0.000035
C76	C	1.742467	0.602592	0.499965
C77	C	1.000797	0.249749	-0.000032
C78	C	1.500797	0.749749	0.499968
C79	C	1.008632	0.336543	-0.000038
C80	C	1.508632	0.836543	0.499962
N81	N	0.996685	0.106816	0.229877
N82	N	1.496685	0.606816	0.729877
N83	N	0.996776	0.106789	-0.229924
N84	N	1.496776	0.606789	0.270076
C85	C	0.996746	0.106798	0.589079
C86	C	1.496746	0.606798	1.089079
C87	C	0.932289	0.170825	0.551469
C88	C	1.432289	0.670825	1.051469
C89	C	0.932464	0.171059	0.448643
C90	C	1.432464	0.671059	0.948643
C91	C	0.996715	0.106807	0.410875
C92	C	1.496715	0.606807	0.910875
C93	C	1.085350	0.124608	0.448163
C94	C	1.585350	0.624608	0.948163
C95	C	1.084996	0.125063	0.551021
C96	C	1.584996	0.625063	1.051021
C97	C	0.973334	0.024780	0.551184
C98	C	1.473334	0.524780	1.051184
C99	C	0.971368	0.025328	0.448321
C100	C	1.471368	0.525328	0.948321
C101	C	0.996703	0.106810	0.310161
C102	C	1.496703	0.606810	0.810161
C103	C	0.996764	0.106797	0.689792
C104	C	1.496764	0.606797	1.189792
H105	H	0.560585	0.227642	-0.060436
H106	H	1.060585	0.727642	0.439564
N107	N	0.410212	0.233967	-0.076178
N108	N	0.910212	0.733967	0.423822
N109	N	0.365207	0.200450	-0.130847
N110	N	0.865207	0.700450	0.369153
H111	H	0.342513	0.230038	-0.184393
H112	H	0.842513	0.730038	0.315607
H113	H	0.570588	0.094964	0.146950
H114	H	1.070588	0.594964	0.646950
H115	H	0.432457	0.000295	0.088138
H116	H	0.932457	0.500295	0.588138
N117	N	1.110507	0.198796	0.415839
N118	N	1.610507	0.698796	0.915839
N119	N	1.067273	0.259989	0.432803
N120	N	1.567273	0.759989	0.932803
H121	H	1.085034	0.312388	0.409975
H122	H	1.585034	0.812388	0.909975
N123	N	0.408884	0.233739	0.075019
N124	N	0.908884	0.733739	0.575019
N125	N	0.363422	0.199890	0.128988
N126	N	0.863422	0.699890	0.628988
H127	H	0.339795	0.229315	0.182229
H128	H	0.839795	0.729315	0.682229
N129	N	1.109750	0.200107	0.581090
N130	N	1.609750	0.700107	1.081090
N131	N	1.067773	0.260962	0.559874
N132	N	1.567773	0.760962	1.059874
H133	H	1.085253	0.313966	0.581104
H134	H	1.585253	0.813966	1.081104
H135	H	1.095455	-0.391400	-0.000054
H136	H	1.595455	0.108600	0.499946
H137	H	0.426841	0.093840	0.147297
H138	H	0.926841	0.593840	0.647297
N139	N	0.817163	-0.268042	-0.000022
N140	N	1.317163	0.231958	0.499978
N141	N	0.796173	-0.311465	0.062183
N142	N	1.296173	0.188535	0.562183
H143	H	0.738971	-0.334155	0.062192
H144	H	1.238971	0.165845	0.562192
N145	N	0.893599	0.003327	0.583761
N146	N	1.393599	0.503327	1.083761
N147	N	0.853058	0.048232	0.635310
N148	N	1.353058	0.548232	1.135310
H149	H	0.796739	0.033092	0.658314
H150	H	1.296739	0.533092	1.158314
N151	N	1.147361	0.068816	0.582272
N152	N	1.647361	0.568816	1.082272
N153	N	1.126812	0.012861	0.629930
N154	N	1.626812	0.512861	1.129930
H155	H	1.170867	-0.026849	0.652007
H156	H	1.670867	0.473151	1.152007
H157	H	0.575783	0.001941	0.087377
H158	H	1.075783	0.501941	0.587377
H159	H	0.846949	-0.113565	-0.000028
H160	H	1.346949	0.386435	0.499972
H161	H	0.559951	0.227857	0.060477
H162	H	1.059951	0.727857	0.560477
N163	N	1.137755	-0.140933	-0.000033
N164	N	1.637755	0.359067	0.499967
N165	N	1.158751	-0.097513	-0.062237
N166	N	1.658751	0.402487	0.437763
H167	H	1.215960	-0.074838	-0.062252
H168	H	1.715960	0.425162	0.437748
H169	H	1.134702	0.079213	0.423696
H170	H	1.634702	0.579213	0.923696
H171	H	0.906137	0.011818	0.423951
H172	H	1.406137	0.511818	0.923951
N173	N	1.161401	-0.683216	-0.000026
N174	N	1.661401	-0.183216	0.499974
N175	N	1.154817	-0.756027	-0.000026
N176	N	1.654817	-0.256027	0.499974
H177	H	1.206706	-0.792186	-0.000022
H178	H	1.706706	-0.292186	0.499978
H179	H	0.425204	0.089138	-0.147370
H180	H	0.925204	0.589138	0.352630
H181	H	1.014819	-0.024549	0.422615
H182	H	1.514819	0.475451	0.922615
H183	H	0.866767	0.160456	0.423434
H184	H	1.366767	0.660456	0.923434
H185	H	0.897995	-0.394996	-0.000032
H186	H	1.397995	0.105004	0.499968
H187	H	0.872126	-0.638940	-0.000025
H188	H	1.372126	-0.138940	0.499975
H189	H	0.885489	-0.491001	-0.000044
H190	H	1.385489	0.008999	0.499956
H191	H	1.020272	-0.022866	0.575505
H192	H	1.520272	0.477134	1.075505
H193	H	0.569139	0.096808	-0.146951
H194	H	1.069139	0.596808	0.353049
N195	N	0.849633	0.157742	0.582559
N196	N	1.349633	0.657742	1.082559
N197	N	0.834504	0.158396	0.663930
N198	N	1.334504	0.658396	1.163930
H199	H	0.776127	0.149153	0.685897
H200	H	1.276127	0.649153	1.185897
H201	H	1.159866	-0.524877	-0.000026
H202	H	1.659866	-0.024877	0.499974
N203	N	0.584106	-0.013039	-0.090993
N204	N	1.084106	0.486961	0.409007
N205	N	0.634221	-0.038598	-0.033042
N206	N	1.134221	0.461402	0.466958
H207	H	0.659506	-0.093903	-0.037545
H208	H	1.159506	0.406097	0.462455
H209	H	0.433051	-0.001731	-0.084068
H210	H	0.933051	0.498269	0.415932
H211	H	1.107960	-0.295390	-0.000023
H212	H	1.607960	0.204610	0.499977
N213	N	0.951581	0.246746	0.583884
N214	N	1.451581	0.746746	1.083884
N215	N	1.012596	0.253903	0.634564
N216	N	1.512596	0.753903	1.134564
H217	H	1.026225	0.307521	0.657459
H218	H	1.526225	0.807521	1.157459
H219	H	0.948019	0.231923	0.424025
H220	H	1.448019	0.731923	0.924025
