data_functionalizedCrystal
_audit_creation_method	'MofGen! by Chris Wilmer'
_symmetry_space_group_name_H-M	'P1'
_symmetry_Int_Tables_number	1
_symmetry_cell_setting	triclinic
loop_
_symmetry_equiv_pos_as_xyz
  x,y,z
_cell_length_a	10.686285
_cell_length_b	19.805407
_cell_length_c	19.805399
_cell_angle_alpha	89.978275
_cell_angle_beta	94.389466
_cell_angle_gamma	94.367433
loop_
_atom_site_label
_atom_site_type_symbol
_atom_site_fract_x
_atom_site_fract_y
_atom_site_fract_z
Zn1	Zn	-0.502332	-1.055498	0.362152
Zn2	Zn	-0.002332	-0.555498	0.862152
Zn3	Zn	-0.713342	-1.064135	0.240307
Zn4	Zn	-0.213342	-0.564135	0.740307
Zn5	Zn	-0.502371	-0.942314	0.248971
Zn6	Zn	-0.002371	-0.442314	0.748971
Zn7	Zn	-0.713280	-0.950995	0.353453
Zn8	Zn	-0.213280	-0.450995	0.853453
O9	O	-0.607832	-1.003236	0.301221
O10	O	-0.107832	-0.503236	0.801221
O11	O	-0.530333	-1.151361	0.346004
O12	O	-0.030333	-0.651361	0.846004
O13	O	-0.685399	-1.047956	0.146738
O14	O	-0.185399	-0.547956	0.646738
O15	O	-0.325792	-0.950081	0.271250
O16	O	0.174208	-0.450081	0.771250
O17	O	-0.685361	-1.157706	0.256486
O18	O	-0.185361	-0.657706	0.756486
O19	O	-0.325763	-1.033237	0.354404
O20	O	0.174237	-0.533237	0.854404
O21	O	-0.530400	-0.958456	0.153103
O22	O	-0.030400	-0.458456	0.653103
O23	O	-0.530339	-0.848749	0.262815
O24	O	-0.030339	-0.348749	0.762815
O25	O	-0.685255	-0.964876	0.449325
O26	O	-0.185255	-0.464876	0.949325
O27	O	-0.685293	-0.855127	0.339578
O28	O	-0.185293	-0.355127	0.839578
O29	O	-0.530272	-1.041654	0.455716
O30	O	-0.030272	-0.541654	0.955716
O31	O	-0.889909	-1.056374	0.248050
O32	O	-0.389909	-0.556374	0.748050
O33	O	-0.889863	-0.973251	0.331177
O34	O	-0.389863	-0.473251	0.831177
C35	C	-0.607814	-0.827379	0.301193
C36	C	-0.107814	-0.327379	0.801193
C37	C	-0.607837	-0.752148	0.301196
C38	C	-0.107837	-0.252148	0.801196
C39	C	-0.527243	-0.287062	0.347903
C40	C	-0.027243	0.212938	0.847903
C41	C	-0.527247	-0.357750	0.347900
C42	C	-0.027247	0.142250	0.847900
C43	C	-0.607837	-0.396386	0.301228
C44	C	-0.107837	0.103614	0.801228
C45	C	-0.688437	-0.364330	0.254561
C46	C	-0.188437	0.135670	0.754561
C47	C	-0.688439	-0.293643	0.254569
C48	C	-0.188439	0.206357	0.754569
C49	C	-0.688434	-0.649403	0.254532
C50	C	-0.188434	-0.149403	0.754532
C51	C	-0.688424	-0.720095	0.254527
C52	C	-0.188424	-0.220095	0.754527
C53	C	-0.527242	-0.713511	0.347864
C54	C	-0.027242	-0.213511	0.847864
C55	C	-0.527243	-0.642824	0.347871
C56	C	-0.027243	-0.142824	0.847871
C57	C	-0.607848	-0.610774	0.301207
C58	C	-0.107848	-0.110774	0.801207
C59	C	-0.607844	-0.534125	0.301212
C60	C	-0.107844	-0.034125	0.801212
C61	C	-0.607835	-0.473033	0.301220
C62	C	-0.107835	0.026967	0.801220
C63	C	-0.935670	-1.016710	0.287745
C64	C	-0.435670	-0.516710	0.787745
C65	C	-1.075920	-1.022536	0.282002
C66	C	-0.575920	-0.522536	0.782002
C67	C	-0.278713	-0.989727	0.314764
C68	C	0.221287	-0.489727	0.814764
C69	C	-0.138463	-0.983971	0.320536
C70	C	0.361537	-0.483971	0.820536
C71	C	-0.607752	-1.003270	0.477767
C72	C	-0.107752	-0.503270	0.977767
C73	C	-0.607718	-1.003285	0.553000
C74	C	-0.107718	-0.503285	1.053000
C75	C	-0.607844	-0.179779	0.301243
C76	C	-0.107844	0.320221	0.801243
C77	C	-0.607834	-0.255010	0.301239
C78	C	-0.107834	0.244990	0.801239
C79	C	-0.607820	-1.003236	0.125365
C80	C	-0.107820	-0.503236	0.625365
C81	C	-0.607498	-1.003338	0.050147
C82	C	-0.107498	-0.503338	0.550147
C83	C	-0.527015	-1.043264	0.591673
C84	C	-0.027015	-0.543264	1.091673
C85	C	-0.526978	-1.043270	0.662363
C86	C	-0.026978	-0.543270	1.162363
C87	C	-0.607652	-1.003299	0.694378
C88	C	-0.107652	-0.503299	1.194378
C89	C	-0.688359	-0.963316	0.655700
C90	C	-0.188359	-0.463316	1.155700
C91	C	-0.688389	-0.963307	0.585012
C92	C	-0.188389	-0.463307	1.085012
C93	C	-0.688242	-0.963349	0.940778
C94	C	-0.188242	-0.463349	1.440778
C95	C	-0.688209	-0.963362	1.011472
C96	C	-0.188209	-0.463362	1.511472
C97	C	-0.526831	-1.043312	1.018130
C98	C	-0.026831	-0.543312	1.518130
C99	C	-0.526861	-1.043303	0.947442
C100	C	-0.026861	-0.543303	1.447442
C101	C	-0.607562	-1.003317	0.908770
C102	C	-0.107562	-0.503317	1.408770
C103	C	-0.607599	-1.003310	0.832120
C104	C	-0.107599	-0.503310	1.332120
C105	C	-0.607623	-1.003309	0.771027
C106	C	-0.107623	-0.503309	1.271027
H107	H	-0.461614	-0.611369	0.385874
H108	H	0.038386	-0.111369	0.885874
N109	N	-0.439946	-1.086399	0.704073
N110	N	0.060054	-0.586399	1.204073
H111	H	-0.452163	-1.080339	0.753712
H112	H	0.047837	-0.580339	1.253712
H113	H	-0.349831	-1.072170	0.695423
H114	H	0.150169	-0.572170	1.195423
H115	H	-1.084714	-0.946497	0.357920
H116	H	-0.584714	-0.446497	0.857920
H117	H	-0.461609	-0.255609	0.385905
H118	H	0.038391	0.244391	0.885905
N119	N	-1.147111	-1.072169	0.232467
N120	N	-0.647111	-0.572169	0.732467
H121	H	-1.240572	-1.069432	0.235241
H122	H	-0.740572	-0.569432	0.735241
H123	H	-1.124059	-1.119558	0.243980
H124	H	-0.624059	-0.619558	0.743980
N125	N	-0.775202	-0.920234	1.046003
N126	N	-0.275202	-0.420234	1.546003
H127	H	-0.762934	-0.926309	1.096652
H128	H	-0.262934	-0.426309	1.596652
H129	H	-0.865333	-0.934453	1.029944
H130	H	-0.365333	-0.434453	1.529944
H131	H	-0.754067	-0.267548	0.216571
H132	H	-0.254067	0.232452	0.716571
N133	N	-0.775300	-0.920233	0.899075
N134	N	-0.275300	-0.420233	1.399075
H135	H	-0.763082	-0.926288	0.849435
H136	H	-0.263082	-0.426288	1.349435
H137	H	-0.755656	-0.871089	0.912230
H138	H	-0.255656	-0.371089	1.412230
N139	N	-0.775381	-0.920201	0.690218
N140	N	-0.275381	-0.420201	1.190218
H141	H	-0.755776	-0.871036	0.678708
H142	H	-0.255776	-0.371036	1.178708
H143	H	-0.763093	-0.926323	0.740857
H144	H	-0.263093	-0.426323	1.240857
H145	H	-0.754064	-0.623317	0.216534
H146	H	-0.254064	-0.123317	0.716534
N147	N	-0.439846	-1.086411	0.912910
N148	N	0.060154	-0.586411	1.412910
H149	H	-0.491142	-1.119878	0.881478
H150	H	0.008858	-0.619878	1.381478
H151	H	-0.388729	-1.111694	0.948178
H152	H	0.111271	-0.611694	1.448178
N153	N	-0.439771	-1.086437	1.059836
N154	N	0.060229	-0.586437	1.559836
H155	H	-0.491037	-1.119912	1.087064
H156	H	0.008963	-0.619912	1.587064
H157	H	-0.381289	-1.056490	1.091523
H158	H	0.118711	-0.556490	1.591523
H159	H	-0.461324	-1.075815	0.565612
H160	H	0.038676	-0.575815	1.065612
H161	H	-0.754060	-0.395793	0.216563
H162	H	-0.254060	0.104207	0.716563
N163	N	-0.775420	-0.920180	0.543296
N164	N	-0.275420	-0.420180	1.043296
H165	H	-0.826522	-0.894859	0.574303
H166	H	-0.326522	-0.394859	1.074303
H167	H	-0.833833	-0.950119	0.511566
H168	H	-0.333833	-0.450119	1.011566
H169	H	-0.461625	-0.383843	0.385901
H170	H	0.038375	0.116157	0.885901
H171	H	-0.754055	-0.751551	0.216520
H172	H	-0.254055	-0.251551	0.716520
N173	N	-0.440323	-0.748079	0.398208
N174	N	0.059677	-0.248079	0.898208
H175	H	-0.452555	-0.798722	0.391129
H176	H	0.047445	-0.298722	0.891129
H177	H	-0.460095	-0.736550	0.445715
H178	H	0.039905	-0.236550	0.945715
