data_functionalizedCrystal
_audit_creation_method	'MofGen! by Chris Wilmer'
_symmetry_space_group_name_H-M	'P1'
_symmetry_Int_Tables_number	1
_symmetry_cell_setting	triclinic
loop_
_symmetry_equiv_pos_as_xyz
  x,y,z
_cell_length_a	23.532361
_cell_length_b	23.532409
_cell_length_c	22.010155
_cell_angle_alpha	90.001487
_cell_angle_beta	90.011417
_cell_angle_gamma	82.839614
loop_
_atom_site_label
_atom_site_type_symbol
_atom_site_fract_x
_atom_site_fract_y
_atom_site_fract_z
O1	O	0.755287	0.069007	0.050460
O2	O	0.589420	0.079038	0.050474
O3	O	0.677354	-0.008910	0.050468
O4	O	0.667352	0.156955	0.050467
O5	O	0.677328	-0.008910	-0.050583
O6	O	0.589393	0.079038	-0.050576
O7	O	0.755260	0.069007	-0.050590
Cu8	Cu	0.672324	0.074023	-0.059810
Cu9	Cu	0.672356	0.074023	0.059694
O10	O	0.667326	0.156955	-0.050583
C11	C	0.568190	0.078787	-0.000049
C12	C	0.504971	0.078032	-0.000043
C13	C	0.231742	0.074728	0.055035
C14	C	0.291142	0.075443	0.055037
O15	O	0.321880	0.075793	0.101882
N16	N	0.320833	0.075804	-0.000046
C17	C	0.291122	0.075445	-0.055134
O18	O	0.321831	0.075817	-0.101986
C19	C	0.231724	0.074726	-0.055135
C20	C	0.202035	0.074370	-0.000048
C21	C	0.202053	0.074372	0.110117
C22	C	0.142657	0.073658	0.110116
C23	C	0.112950	0.073301	0.055032
C24	C	0.142639	0.073656	-0.000050
C25	C	0.202015	0.074362	-0.110222
C26	C	0.142613	0.073642	-0.110218
C27	C	0.112924	0.073287	-0.055131
C28	C	0.053537	0.072585	-0.055135
N29	N	0.023845	0.072224	-0.000052
C30	C	0.053552	0.072582	0.055031
C31	C	0.415862	0.076954	-0.055128
C32	C	0.475259	0.077677	-0.055127
C33	C	0.475274	0.077674	0.055043
C34	C	0.415876	0.076955	0.055043
C35	C	0.386171	0.076592	-0.000045
C36	C	-0.071183	0.071083	0.055023
C37	C	-0.130585	0.070371	0.055017
C38	C	-0.130595	0.070371	-0.055154
C39	C	-0.071199	0.071086	-0.055147
C40	C	-0.041494	0.071440	-0.000054
O41	O	0.022761	0.072232	-0.101956
O42	O	0.022837	0.072202	0.101875
C43	C	0.677086	-0.030126	-0.000056
C44	C	0.676320	-0.093343	-0.000051
C45	C	0.673075	-0.366587	0.055034
C46	C	0.673787	-0.307187	0.055034
O47	O	0.674187	-0.276462	0.101878
N48	N	0.674125	-0.277485	-0.000049
C49	C	0.673757	-0.307187	-0.055137
O50	O	0.674110	-0.276469	-0.101989
C51	C	0.673049	-0.366586	-0.055136
C52	C	0.672705	-0.396285	-0.000049
C53	C	0.672732	-0.396286	0.110117
C54	C	0.672019	-0.455681	0.110116
C55	C	0.671650	-0.485379	0.055033
C56	C	0.671993	-0.455681	-0.000049
C57	C	0.672685	-0.396288	-0.110222
C58	C	0.671978	-0.455691	-0.110217
C59	C	0.671634	-0.485390	-0.055130
C60	C	0.670910	-0.544774	-0.055132
N61	N	0.670572	-0.574476	-0.000049
C62	C	0.670942	-0.544778	0.055034
C63	C	0.675244	-0.182444	-0.055133
C64	C	0.675947	-0.123045	-0.055135
C65	C	0.675978	-0.123049	0.055036
C66	C	0.675271	-0.182449	0.055037
C67	C	0.674906	-0.212146	-0.000050
C68	C	0.669445	-0.669514	0.055029
C69	C	0.668730	-0.728915	0.055024
C70	C	0.668702	-0.728905	-0.055146
C71	C	0.669414	-0.669509	-0.055142
C72	C	0.669787	-0.639815	-0.000049
O73	O	0.670512	-0.575537	-0.101952
O74	O	0.670596	-0.575505	0.101879
C75	C	0.776490	0.069258	-0.000065
C76	C	0.839708	0.070014	-0.000067
C77	C	0.667594	0.178171	-0.000058
C78	C	0.668360	0.241388	-0.000059
N79	N	0.672307	0.074022	-0.143862
C80	C	0.706702	0.108377	-0.563645
C81	C	0.706709	0.108376	-0.627252
O82	O	0.735933	0.137582	-0.660147
N83	N	0.672367	0.074016	-0.659069
C84	C	0.638020	0.039651	-0.627275
O85	O	0.608810	0.010425	-0.660178
C86	C	0.638017	0.039650	-0.563669
C87	C	0.672357	0.074016	-0.531855
C88	C	0.741040	0.142740	-0.531831
C89	C	0.741032	0.142742	-0.468228
C90	C	0.706687	0.108381	-0.436438
C91	C	0.672349	0.074018	-0.468252
C92	C	0.603673	0.005282	-0.531876
C93	C	0.603673	0.005284	-0.468265
C94	C	0.638014	0.039650	-0.436451
C95	C	0.637996	0.039659	-0.372859
N96	N	0.672338	0.074019	-0.341042
C97	C	0.706684	0.108380	-0.372832
C98	C	0.638030	0.039655	-0.760853
C99	C	0.638030	0.039659	-0.824458
C100	C	0.706720	0.108384	-0.824431
C101	C	0.706716	0.108382	-0.760825
C102	C	0.672372	0.074015	-0.729036
C103	C	0.706664	0.108382	-0.239261
C104	C	0.706652	0.108383	-0.175652
C105	C	0.637965	0.039657	-0.175684
C106	C	0.637975	0.039658	-0.239288
C107	C	0.672329	0.074023	-0.271074
O108	O	0.608789	0.010466	-0.339924
O109	O	0.735894	0.137596	-0.339921
N110	N	0.672378	0.074018	0.143747
H111	H	0.391707	0.076666	0.099899
H112	H	0.734679	0.136367	-0.734926
H113	H	0.734616	0.136371	-0.149752
N114	N	0.385530	0.076586	-0.111408
N115	N	0.412053	0.076909	-0.160581
H116	H	0.390634	0.076648	-0.200329
N117	N	0.674866	-0.212785	-0.111402
N118	N	0.714616	-0.251406	-0.123703
H119	H	0.714351	-0.272833	-0.163442
N120	N	-0.160908	0.069993	0.111289
N121	N	-0.188568	0.029442	0.123579
H122	H	-0.209982	0.029172	0.163321
H123	H	0.575706	-0.022703	-0.442386
N124	N	0.669836	-0.639188	0.111304
N125	N	0.709916	-0.651305	0.148183
H126	H	0.710190	-0.629887	0.187926
N127	N	0.602904	0.004547	-0.271786
N128	N	0.625366	-0.033230	-0.307263
H129	H	0.600601	-0.058032	-0.330211
H130	H	0.668398	-0.753096	-0.099993
N131	N	0.232324	0.074717	-0.166498
N132	N	0.205783	0.074387	-0.215670
H133	H	0.227188	0.074634	-0.255419
H134	H	0.672971	-0.372119	-0.155080
H135	H	0.673035	-0.372112	0.154974
N136	N	-0.040855	0.071441	0.111304
N137	N	-0.067380	0.071123	0.160476
H138	H	-0.045961	0.071378	0.200226
H139	H	-0.154793	0.070082	-0.100001
H140	H	-0.047026	0.071386	-0.100003
H141	H	0.668448	-0.753092	0.099885
N142	N	0.741796	0.143494	-0.856907
N143	N	0.719341	0.181264	-0.892403
H144	H	0.744110	0.206062	-0.915340
H145	H	0.674990	-0.206625	0.099894
H146	H	0.499473	0.077965	0.099896
N147	N	0.676357	-0.092699	0.111299
N148	N	0.676992	-0.039665	0.111284
H149	H	0.677259	-0.018228	0.151016
N150	N	0.671669	-0.486004	0.166393
N151	N	0.672001	-0.459472	0.215565
H152	H	0.671755	-0.480883	0.255314
N153	N	0.112344	0.073296	0.166391
N154	N	0.138885	0.073616	0.215564
H155	H	0.117480	0.073360	0.255312
N156	N	0.602883	0.004567	-0.143196
N157	N	0.602887	0.004576	-0.086405
H158	H	0.578113	-0.020209	-0.063458
N159	N	0.602938	0.004569	-0.856951
N160	N	0.549826	0.011670	-0.849859
H161	H	0.525041	-0.013115	-0.872805
N162	N	0.232383	0.074734	0.166395
N163	N	0.205857	0.074414	0.215565
H164	H	0.227274	0.074672	0.255315
N165	N	0.741761	0.143486	-0.271714
N166	N	0.772415	0.174162	-0.243292
H167	H	0.797200	0.198956	-0.266211
N168	N	0.671607	-0.486017	-0.166494
N169	N	0.671914	-0.459489	-0.215670
H170	H	0.671650	-0.480904	-0.255416
N171	N	0.776123	0.177854	-0.564285
N172	N	0.768993	0.230964	-0.557164
H173	H	0.793770	0.255770	-0.580079
H174	H	0.669671	-0.645325	-0.099998
N175	N	0.112261	0.073281	-0.166485
N176	N	0.059227	0.072645	-0.166484
H177	H	0.037790	0.072392	-0.206222
N178	N	0.602943	0.004544	-0.728394
N179	N	0.572287	-0.026131	-0.756815
H180	H	0.547508	-0.050931	-0.733894
H181	H	0.499426	0.077975	-0.099984
N182	N	0.776106	0.177858	-0.435746
N183	N	0.806763	0.208536	-0.464147
H184	H	0.831534	0.233340	-0.441211
H185	H	0.575711	-0.022703	-0.557767
N186	N	0.676285	-0.092720	-0.111410
N187	N	0.675951	-0.119249	-0.160585
H188	H	0.676192	-0.097835	-0.200332
