data_functionalizedCrystal
_audit_creation_method	'MofGen! by Chris Wilmer'
_symmetry_space_group_name_H-M	'P1'
_symmetry_Int_Tables_number	1
_symmetry_cell_setting	triclinic
loop_
_symmetry_equiv_pos_as_xyz
  x,y,z
_cell_length_a	16.109302
_cell_length_b	15.995350
_cell_length_c	14.586319
_cell_angle_alpha	89.998440
_cell_angle_beta	89.994552
_cell_angle_gamma	83.477078
loop_
_atom_site_label
_atom_site_type_symbol
_atom_site_fract_x
_atom_site_fract_y
_atom_site_fract_z
O1	O	1.103159	0.107627	-0.076277
O2	O	0.861101	0.121020	-0.076269
O3	O	0.988747	-0.007566	-0.076272
O4	O	0.975513	0.236213	-0.076274
O5	O	0.988738	-0.007568	0.076208
O6	O	0.861092	0.121018	0.076212
O7	O	1.103151	0.107625	0.076204
Cu8	Cu	0.982121	0.114321	0.090130
Cu9	Cu	0.982131	0.114324	-0.090196
O10	O	0.975505	0.236211	0.076207
C11	C	0.830122	0.120476	-0.000028
C12	C	0.737826	0.118850	-0.000025
C13	C	0.525479	0.115087	0.083083
C14	C	0.438759	0.113549	0.083080
C15	C	0.438779	0.113556	-0.083163
C16	C	0.525499	0.115087	-0.083159
C17	C	0.568846	0.115857	-0.000033
C18	C	0.395406	0.112788	-0.000040
C19	C	0.301380	0.111121	-0.000044
C20	C	0.662878	0.117523	-0.000029
C21	C	0.988196	-0.038761	-0.000034
C22	C	0.986555	-0.131711	-0.000039
C23	C	0.980665	-0.469457	-0.000036
C24	C	0.889758	-0.421999	-0.000375
C25	C	0.891398	-0.325309	-0.000031
C26	C	0.983587	-0.301898	-0.000038
C27	C	1.028420	-0.342988	0.087033
C28	C	1.026137	-0.439623	0.087106
C29	C	1.028025	-0.439980	-0.086293
C30	C	1.028003	-0.343034	-0.087444
C31	C	0.985243	-0.207201	-0.000036
C32	C	0.979012	-0.564155	-0.000031
C33	C	1.134130	0.108169	-0.000039
C34	C	1.226426	0.109796	-0.000048
C35	C	0.976056	0.267407	-0.000034
C36	C	0.977696	0.360357	-0.000034
N37	N	0.982119	0.114319	0.216962
N38	N	0.982139	0.114319	-0.217027
C39	C	1.038660	0.057401	0.451967
C40	C	1.038662	0.057399	0.547948
C41	C	0.925593	0.171241	0.547961
C42	C	0.925587	0.171238	0.451981
C43	C	0.982125	0.114319	0.403987
C44	C	0.982133	0.114320	0.595948
C45	C	0.982135	0.114318	0.700015
C46	C	0.982122	0.114319	0.299913
H47	H	0.856156	-0.296877	-0.062447
F48	F	0.842349	-0.447879	0.080565
F49	F	0.392608	0.112730	0.171544
H50	H	0.403475	0.112930	-0.150841
F51	F	0.571656	0.115902	-0.171627
F52	F	0.842268	-0.446205	-0.081989
H53	H	0.855912	-0.297435	0.062494
H54	H	0.879546	0.217588	0.412913
H55	H	1.096148	-0.328881	0.090267
F56	F	1.113371	-0.481800	0.092273
F57	F	0.571610	0.115903	0.171553
H58	H	0.995224	-0.315776	-0.151857
F59	F	0.983392	-0.463536	0.172183
H60	H	0.997274	-0.314599	0.151833
F61	F	0.989175	-0.466806	-0.172554
F62	F	1.115874	-0.322975	-0.094328
F63	F	1.098831	-0.003180	0.400892
F64	F	1.115631	-0.481518	-0.087066
H65	H	1.084696	0.011050	0.587011
H66	H	0.879562	0.217584	0.587047
