data_functionalizedCrystal
_audit_creation_method	'MofGen! by Chris Wilmer'
_symmetry_space_group_name_H-M	'P1'
_symmetry_Int_Tables_number	1
_symmetry_cell_setting	triclinic
loop_
_symmetry_equiv_pos_as_xyz
  x,y,z
_cell_length_a	18.366186
_cell_length_b	19.288840
_cell_length_c	19.288865
_cell_angle_alpha	96.868869
_cell_angle_beta	90.010368
_cell_angle_gamma	89.983695
loop_
_atom_site_label
_atom_site_type_symbol
_atom_site_fract_x
_atom_site_fract_y
_atom_site_fract_z
O1	O	-0.060680	0.921364	-0.086565
O2	O	0.189320	1.171364	0.163435
O3	O	0.439320	1.421364	0.413435
O4	O	0.689320	1.671364	0.663435
O5	O	-0.060655	0.719101	-0.098272
O6	O	0.189345	0.969101	0.151728
O7	O	0.439345	1.219101	0.401728
O8	O	0.689345	1.469101	0.651728
O9	O	-0.060654	0.826077	0.008713
O10	O	0.189346	1.076077	0.258713
O11	O	0.439346	1.326077	0.508713
O12	O	0.689346	1.576077	0.758713
O13	O	-0.060681	0.814388	-0.193549
O14	O	0.189319	1.064388	0.056451
O15	O	0.439319	1.314388	0.306451
O16	O	0.689319	1.564388	0.556451
O17	O	0.060446	0.826058	0.008716
O18	O	0.310446	1.076058	0.258716
O19	O	0.560446	1.326058	0.508716
O20	O	0.810446	1.576058	0.758716
O21	O	0.060444	0.719082	-0.098269
O22	O	0.310444	0.969082	0.151731
O23	O	0.560444	1.219082	0.401731
O24	O	0.810444	1.469082	0.651731
O25	O	0.060420	0.921346	-0.086562
O26	O	0.310420	1.171346	0.163438
O27	O	0.560420	1.421346	0.413438
O28	O	0.810420	1.671346	0.663438
Zn29	Zn	0.079659	0.820211	-0.092415
Zn30	Zn	0.329659	1.070211	0.157585
Zn31	Zn	0.579659	1.320211	0.407585
Zn32	Zn	0.829659	1.570211	0.657585
Zn33	Zn	-0.079895	0.820235	-0.092419
Zn34	Zn	0.170105	1.070235	0.157581
Zn35	Zn	0.420105	1.320235	0.407581
Zn36	Zn	0.670105	1.570235	0.657581
O37	O	0.060418	0.814370	-0.193546
O38	O	0.310418	1.064370	0.056454
O39	O	0.560418	1.314370	0.306454
O40	O	0.810418	1.564370	0.556454
C41	C	-0.000102	0.693215	-0.097896
C42	C	0.249898	0.943215	0.152104
C43	C	0.499898	1.193215	0.402104
C44	C	0.749898	1.443215	0.652104
C45	C	-0.000093	0.616110	-0.096774
C46	C	0.249907	0.866110	0.153226
C47	C	0.499907	1.116110	0.403226
C48	C	0.749907	1.366110	0.653226
N49	N	0.188550	0.820200	-0.092412
N50	N	0.438550	1.070200	0.157588
N51	N	0.688550	1.320200	0.407588
N52	N	0.938550	1.570200	0.657588
N53	N	-0.188786	0.820252	-0.092416
N54	N	0.061214	1.070252	0.157584
N55	N	0.311214	1.320252	0.407584
N56	N	0.561214	1.570252	0.657584
C57	C	-0.066106	0.579917	-0.096237
C58	C	0.183894	0.829917	0.153763
C59	C	0.433894	1.079917	0.403763
C60	C	0.683894	1.329917	0.653763
C61	C	-0.066114	0.507470	-0.095175
C62	C	0.183886	0.757470	0.154825
C63	C	0.433886	1.007470	0.404825
C64	C	0.683886	1.257470	0.654825
C65	C	-0.000106	0.471221	-0.094636
C66	C	0.249894	0.721221	0.155364
C67	C	0.499894	0.971221	0.405364
C68	C	0.749894	1.221221	0.655364
C69	C	0.065915	0.507423	-0.095178
C70	C	0.315915	0.757423	0.154822
C71	C	0.565915	1.007423	0.404822
C72	C	0.815915	1.257423	0.654822
C73	C	0.065922	0.579868	-0.096247
C74	C	0.315922	0.829868	0.153753
C75	C	0.565922	1.079868	0.403753
C76	C	0.815922	1.329868	0.653753
C77	C	0.050461	0.361886	-0.052257
C78	C	0.300461	0.611886	0.197743
C79	C	0.550461	0.861886	0.447743
C80	C	0.800461	1.111886	0.697743
C81	C	0.050451	0.289443	-0.051184
C82	C	0.300451	0.539443	0.198816
C83	C	0.550451	0.789443	0.448816
C84	C	0.800451	1.039443	0.698816
C85	C	-0.000125	0.247778	-0.091342
C86	C	0.249875	0.497778	0.158658
C87	C	0.499875	0.747778	0.408658
C88	C	0.749875	0.997778	0.658658
C89	C	-0.050703	0.278565	-0.132565
C90	C	0.199297	0.528565	0.117435
C91	C	0.449297	0.778565	0.367435
C92	C	0.699297	1.028565	0.617435
C93	C	-0.050697	0.351009	-0.133634
C94	C	0.199303	0.601009	0.116366
C95	C	0.449303	0.851009	0.366366
C96	C	0.699303	1.101009	0.616366
C97	C	-0.000107	0.392667	-0.093477
C98	C	0.249893	0.642667	0.156523
C99	C	0.499893	0.892667	0.406523
C100	C	0.749893	1.142667	0.656523
C101	C	-0.066152	0.133029	-0.089654
C102	C	0.183848	0.383029	0.160346
C103	C	0.433848	0.633029	0.410346
C104	C	0.683848	0.883029	0.660346
C105	C	-0.066158	0.060580	-0.088596
C106	C	0.183842	0.310580	0.161404
C107	C	0.433842	0.560580	0.411404
C108	C	0.683842	0.810580	0.661404
C109	C	0.065874	0.060535	-0.088592
C110	C	0.315874	0.310535	0.161408
C111	C	0.565874	0.560535	0.411408
C112	C	0.815874	0.810535	0.661408
C113	C	0.065878	0.132982	-0.089657
C114	C	0.315878	0.382982	0.160343
C115	C	0.565878	0.632982	0.410343
C116	C	0.815878	0.882982	0.660343
C117	C	-0.000137	0.169225	-0.090185
C118	C	0.249863	0.419225	0.159815
C119	C	0.499863	0.669225	0.409815
C120	C	0.749863	0.919225	0.659815
C121	C	0.226633	0.862188	-0.134432
C122	C	0.476633	1.112188	0.115568
C123	C	0.726633	1.362188	0.365568
C124	C	0.976633	1.612188	0.615568
C125	C	0.302861	0.862199	-0.134430
C126	C	0.552861	1.112199	0.115570
C127	C	0.802861	1.362199	0.365570
C128	C	1.052861	1.612199	0.615570
C129	C	0.341003	0.820209	-0.092416
C130	C	0.591003	1.070209	0.157584
C131	C	0.841003	1.320209	0.407584
C132	C	1.091003	1.570209	0.657584
C133	C	0.302911	0.778219	-0.050387
C134	C	0.552911	1.028219	0.199613
C135	C	0.802911	1.278219	0.449613
C136	C	1.052911	1.528219	0.699613
C137	C	0.226684	0.778214	-0.050385
C138	C	0.476684	1.028214	0.199615
C139	C	0.726684	1.278214	0.449615
C140	C	0.976684	1.528214	0.699615
C141	C	0.461792	0.757597	-0.090665
C142	C	0.711792	1.007597	0.159335
C143	C	0.961792	1.257597	0.409335
C144	C	1.211792	1.507597	0.659335
C145	C	0.538017	0.757600	-0.090672
C146	C	0.788017	1.007600	0.159328
C147	C	1.038017	1.257600	0.409328
C148	C	1.288017	1.507600	0.659328
C149	C	0.576110	0.820225	-0.092418
C150	C	0.826110	1.070225	0.157582
C151	C	1.076110	1.320225	0.407582
C152	C	1.326110	1.570225	0.657582
C153	C	0.537970	0.882847	-0.094172
C154	C	0.787970	1.132847	0.155828
C155	C	1.037970	1.382847	0.405828
C156	C	1.287970	1.632847	0.655828
C157	C	0.461743	0.882842	-0.094170
C158	C	0.711743	1.132842	0.155830
C159	C	0.961743	1.382842	0.405830
C160	C	1.211743	1.632842	0.655830
C161	C	0.423658	0.820210	-0.092413
C162	C	0.673658	1.070210	0.157587
C163	C	0.923658	1.320210	0.407587
C164	C	1.173658	1.570210	0.657587
C165	C	0.696848	0.862229	-0.134438
C166	C	0.946848	1.112229	0.115562
C167	C	1.196848	1.362229	0.365562
C168	C	1.446848	1.612229	0.615562
C169	C	0.773078	0.862242	-0.134431
C170	C	1.023078	1.112242	0.115569
C171	C	1.273078	1.362242	0.365569
C172	C	1.523078	1.612242	0.615569
C173	C	0.773126	0.778255	-0.050393
C174	C	1.023126	1.028255	0.199607
C175	C	1.273126	1.278255	0.449607
C176	C	1.523126	1.528255	0.699607
C177	C	0.696898	0.778248	-0.050396
C178	C	0.946898	1.028248	0.199604
C179	C	1.196898	1.278248	0.449604
C180	C	1.446898	1.528248	0.699604
C181	C	0.658764	0.820234	-0.092422
C182	C	0.908764	1.070234	0.157578
C183	C	1.158764	1.320234	0.407578
C184	C	1.408764	1.570234	0.657578
C185	C	-0.000102	0.825692	0.034591
C186	C	0.249898	1.075692	0.284591
C187	C	0.499898	1.325692	0.534591
C188	C	0.749898	1.575692	0.784591
C189	C	-0.000095	0.824563	0.111694
C190	C	0.249905	1.074563	0.361694
C191	C	0.499905	1.324563	0.611694
C192	C	0.749905	1.574563	0.861694
C193	C	-0.000135	0.947232	-0.086937
C194	C	0.249865	1.197232	0.163063
C195	C	0.499865	1.447232	0.413063
C196	C	0.749865	1.697232	0.663063
C197	C	-0.000149	1.024336	-0.088059
C198	C	0.249851	1.274336	0.161941
C199	C	0.499851	1.524336	0.411941
C200	C	0.749851	1.774336	0.661941
C201	C	-0.000135	0.814755	-0.219424
C202	C	0.249865	1.064755	0.030576
C203	C	0.499865	1.314755	0.280576
C204	C	0.749865	1.564755	0.530576
C205	C	-0.000147	0.815884	-0.296527
C206	C	0.249853	1.065884	-0.046527
C207	C	0.499853	1.315884	0.203473
C208	C	0.749853	1.565884	0.453473
C209	C	-0.000099	0.887331	0.156396
C210	C	0.249901	1.137331	0.406396
C211	C	0.499901	1.387331	0.656396
C212	C	0.749901	1.637331	0.906396
C213	C	-0.000111	0.886270	0.228843
C214	C	0.249889	1.136270	0.478843
C215	C	0.499889	1.386270	0.728843
C216	C	0.749889	1.636270	0.978843
C217	C	-0.000103	0.822438	0.256585
C218	C	0.249897	1.072438	0.506585
C219	C	0.499897	1.322438	0.756585
C220	C	0.749897	1.572438	1.006585
C221	C	-0.000104	0.759661	0.211873
C222	C	0.249896	1.009661	0.461873
C223	C	0.499896	1.259661	0.711873
C224	C	0.749896	1.509661	0.961873
C225	C	-0.000100	0.760723	0.139428
C226	C	0.249900	1.010723	0.389428
C227	C	0.499900	1.260723	0.639428
C228	C	0.749900	1.510723	0.889428
C229	C	0.042321	0.772251	0.364869
C230	C	0.292321	1.022251	0.614869
C231	C	0.542321	1.272251	0.864869
C232	C	0.792321	1.522251	1.114869
C233	C	0.042321	0.771191	0.437313
C234	C	0.292321	1.021191	0.687313
C235	C	0.542321	1.271191	0.937313
C236	C	0.792321	1.521191	1.187313
C237	C	-0.000119	0.819158	0.480030
C238	C	0.249881	1.069158	0.730030
C239	C	0.499881	1.319158	0.980030
C240	C	0.749881	1.569158	1.230030
C241	C	-0.042551	0.868196	0.450295
C242	C	0.207449	1.118196	0.700295
C243	C	0.457449	1.368196	0.950295
C244	C	0.707449	1.618196	1.200295
C245	C	-0.042547	0.869259	0.377850
C246	C	0.207453	1.119259	0.627850
C247	C	0.457453	1.369259	0.877850
C248	C	0.707453	1.619259	1.127850
C249	C	-0.000108	0.821278	0.335139
C250	C	0.249892	1.071278	0.585139
C251	C	0.499892	1.321278	0.835139
C252	C	0.749892	1.571278	1.085139
C253	C	-0.000137	0.880781	0.603288
C254	C	0.249863	1.130781	0.853288
C255	C	0.499863	1.380781	1.103288
C256	C	0.749863	1.630781	1.353288
C257	C	-0.000153	0.879717	0.675736
C258	C	0.249847	1.129717	0.925736
C259	C	0.499847	1.379717	1.175736
C260	C	0.749847	1.629717	1.425736
C261	C	-0.000138	0.753106	0.658764
C262	C	0.249862	1.003106	0.908764
C263	C	0.499862	1.253106	1.158764
C264	C	0.749862	1.503106	1.408764
C265	C	-0.000130	0.754171	0.586318
C266	C	0.249870	1.004171	0.836318
C267	C	0.499870	1.254171	1.086318
C268	C	0.749870	1.504171	1.336318
C269	C	-0.000125	0.818010	0.558584
C270	C	0.249875	1.068010	0.808584
C271	C	0.499875	1.318010	1.058584
C272	C	0.749875	1.568010	1.308584
H273	H	-0.119860	0.609421	-0.096666
H274	H	0.130140	0.859421	0.153334
H275	H	0.380140	1.109421	0.403334
H276	H	0.630140	1.359421	0.653334
H277	H	0.119680	0.609336	-0.096685
H278	H	0.369680	0.859336	0.153315
H279	H	0.619680	1.109336	0.403315
H280	H	0.869680	1.359336	0.653315
H281	H	0.430783	0.706596	-0.089247
H282	H	0.680783	0.956596	0.160753
H283	H	0.930783	1.206596	0.410753
H284	H	1.180783	1.456596	0.660753
F285	F	-0.087724	0.919250	0.495752
F286	F	0.162276	1.169250	0.745752
F287	F	0.412276	1.419250	0.995752
F288	F	0.662276	1.669250	1.245752
H289	H	-0.119872	0.477995	-0.094738
H290	H	0.130128	0.727995	0.155262
H291	H	0.380128	0.977995	0.405262
H292	H	0.630128	1.227995	0.655262
F293	F	-0.104522	0.383773	-0.177507
F294	F	0.145478	0.633773	0.072493
F295	F	0.395478	0.883773	0.322493
F296	F	0.645478	1.133773	0.572493
F297	F	-0.000134	0.685169	0.688284
F298	F	0.249866	0.935169	0.938284
F299	F	0.499866	1.185169	1.188284
F300	F	0.749866	1.435169	1.438284
H301	H	0.804083	0.896438	-0.168647
H302	H	1.054083	1.146438	0.081353
H303	H	1.304083	1.396438	0.331353
H304	H	1.554083	1.646438	0.581353
H305	H	0.804180	0.744067	-0.016184
H306	H	1.054180	0.994067	0.233816
H307	H	1.304180	1.244067	0.483816
H308	H	1.554180	1.494067	0.733816
H309	H	0.195678	0.744021	-0.016166
H310	H	0.445678	0.994021	0.233834
H311	H	0.695678	1.244021	0.483834
H312	H	0.945678	1.494021	0.733834
F313	F	-0.000129	0.948723	0.573769
F314	F	0.249871	1.198723	0.823769
F315	F	0.499871	1.448723	1.073769
F316	F	0.749871	1.698723	1.323769
H317	H	0.333971	0.744031	-0.016178
H318	H	0.583971	0.994031	0.233822
H319	H	0.833971	1.244031	0.483822
H320	H	1.083971	1.494031	0.733822
F321	F	-0.000116	0.953080	0.276427
F322	F	0.249884	1.203080	0.526427
F323	F	0.499884	1.453080	0.776427
F324	F	0.749884	1.703080	1.026427
H325	H	0.091649	0.395805	-0.019554
H326	H	0.341649	0.645805	0.230446
H327	H	0.591649	0.895805	0.480446
H328	H	0.841649	1.145805	0.730446
H329	H	-0.000098	0.939314	0.133820
H330	H	0.249902	1.189314	0.383820
H331	H	0.499902	1.439314	0.633820
H332	H	0.749902	1.689314	0.883820
F333	F	-0.136410	0.171603	-0.090221
F334	F	0.113590	0.421603	0.159779
F335	F	0.363590	0.671603	0.409779
F336	F	0.613590	0.921603	0.659779
H337	H	0.091632	0.264383	-0.017614
H338	H	0.341632	0.514383	0.232386
H339	H	0.591632	0.764383	0.482386
H340	H	0.841632	1.014383	0.732386
F341	F	0.136139	0.171503	-0.090225
F342	F	0.386139	0.421503	0.159775
F343	F	0.636139	0.671503	0.409775
F344	F	0.886139	0.921503	0.659775
F345	F	-0.000096	0.693913	0.091850
F346	F	0.249904	0.943913	0.341850
F347	F	0.499904	1.193913	0.591850
F348	F	0.749904	1.443913	0.841850
H349	H	0.195589	0.896379	-0.168650
H350	H	0.445589	1.146379	0.081350
H351	H	0.695589	1.396379	0.331350
H352	H	0.945589	1.646379	0.581350
F353	F	-0.000101	0.691725	0.241399
F354	F	0.249899	0.941725	0.491399
F355	F	0.499899	1.191725	0.741399
F356	F	0.749899	1.441725	0.991399
H357	H	0.665891	0.744054	-0.016181
H358	H	0.915891	0.994054	0.233819
H359	H	1.165891	1.244054	0.483819
H360	H	1.415891	1.494054	0.733819
H361	H	-0.077098	0.909186	0.353643
H362	H	0.172902	1.159186	0.603643
H363	H	0.422902	1.409186	0.853643
H364	H	0.672902	1.659186	1.103643
H365	H	-0.000160	0.930833	0.712132
H366	H	0.249840	1.180833	0.962132
H367	H	0.499840	1.430833	1.212132
H368	H	0.749840	1.680833	1.462132
H369	H	0.333874	0.896391	-0.168649
H370	H	0.583874	1.146391	0.081351
H371	H	0.833874	1.396391	0.331351
H372	H	1.083874	1.646391	0.581351
H373	H	0.665798	0.896417	-0.168658
H374	H	0.915798	1.146417	0.081342
H375	H	1.165798	1.396417	0.331342
H376	H	1.415798	1.646417	0.581342
F377	F	-0.104532	0.234227	-0.175310
F378	F	0.145468	0.484227	0.074690
F379	F	0.395468	0.734227	0.324690
F380	F	0.645468	0.984227	0.574690
F381	F	-0.000123	0.687363	0.538741
F382	F	0.249877	0.937363	0.788741
F383	F	0.499877	1.187363	1.038741
F384	F	0.749877	1.437363	1.288741
H385	H	0.569065	0.706609	-0.089247
H386	H	0.819065	0.956609	0.160753
H387	H	1.069065	1.206609	0.410753
H388	H	1.319065	1.456609	0.660753
H389	H	0.076868	0.731258	0.461517
H390	H	0.326868	0.981258	0.711517
H391	H	0.576868	1.231258	0.961517
H392	H	0.826868	1.481258	1.211517
F393	F	0.136166	0.468843	-0.094608
F394	F	0.386166	0.718843	0.155392
F395	F	0.636166	0.968843	0.405392
F396	F	0.886166	1.218843	0.655392
H397	H	0.076885	0.733189	0.330094
H398	H	0.326885	0.983189	0.580094
H399	H	0.576885	1.233189	0.830094
H400	H	0.826885	1.483189	1.080094
H401	H	0.568984	0.933842	-0.095598
H402	H	0.818984	1.183842	0.154402
H403	H	1.068984	1.433842	0.404402
H404	H	1.318984	1.683842	0.654402
F405	F	-0.136422	0.022060	-0.088030
F406	F	0.113578	0.272060	0.161970
F407	F	0.363578	0.522060	0.411970
F408	F	0.613578	0.772060	0.661970
F409	F	0.136125	0.021961	-0.088025
F410	F	0.386125	0.271961	0.161975
F411	F	0.636125	0.521961	0.411975
F412	F	0.886125	0.771961	0.661975
H413	H	0.430692	0.933832	-0.095596
H414	H	0.680692	1.183832	0.154404
H415	H	0.930692	1.433832	0.404404
H416	H	1.180692	1.683832	0.654404
