data_functionalizedCrystal
_audit_creation_method	'MofGen! by Chris Wilmer'
_symmetry_space_group_name_H-M	'P1'
_symmetry_Int_Tables_number	1
_symmetry_cell_setting	triclinic
loop_
_symmetry_equiv_pos_as_xyz
  x,y,z
_cell_length_a	14.908783
_cell_length_b	14.908178
_cell_length_c	19.805399
_cell_angle_alpha	86.675724
_cell_angle_beta	86.681112
_cell_angle_gamma	96.402596
loop_
_atom_site_label
_atom_site_type_symbol
_atom_site_fract_x
_atom_site_fract_y
_atom_site_fract_z
Zn1	Zn	1.363060	-0.280657	-0.429647
Zn2	Zn	1.863060	0.219343	0.070353
Zn3	Zn	1.354233	-0.432043	-0.309521
Zn4	Zn	1.854233	0.067957	0.190479
Zn5	Zn	1.211690	-0.289405	-0.309532
Zn6	Zn	1.711690	0.210595	0.190468
Zn7	Zn	1.202932	-0.440714	-0.415735
Zn8	Zn	1.702932	0.059286	0.084265
O9	O	1.282979	-0.360705	-0.366109
O10	O	1.782979	0.139295	0.133891
O11	O	1.488557	-0.293449	-0.419530
O12	O	1.988557	0.206551	0.080470
O13	O	1.335295	-0.413154	-0.214803
O14	O	1.835295	0.086846	0.285197
O15	O	1.239128	-0.161566	-0.331293
O16	O	1.739128	0.338434	0.168707
O17	O	1.482072	-0.404671	-0.331274
O18	O	1.982072	0.095329	0.168726
O19	O	1.350339	-0.155139	-0.419541
O20	O	1.850339	0.344861	0.080459
O21	O	1.230569	-0.308359	-0.214812
O22	O	1.730569	0.191641	0.285188
O23	O	1.083860	-0.316767	-0.317802
O24	O	1.583860	0.183233	0.182198
O25	O	1.224203	-0.419450	-0.512299
O26	O	1.724203	0.080550	-0.012299
O27	O	1.077426	-0.427932	-0.395829
O28	O	1.577426	0.072068	0.104171
O29	O	1.341847	-0.301857	-0.522521
O30	O	1.841847	0.198143	-0.022521
O31	O	1.326804	-0.559871	-0.317784
O32	O	1.826804	-0.059871	0.182216
O33	O	1.215644	-0.566242	-0.395818
O34	O	1.715644	-0.066242	0.104182
C35	C	1.047799	-0.374240	-0.355307
C36	C	1.547799	0.125760	0.144693
C37	C	0.947186	-0.380053	-0.350701
C38	C	1.447186	0.119947	0.149299
C39	C	0.764867	-0.275318	-0.434072
C40	C	1.264867	0.224682	0.065928
C41	C	0.670333	-0.280776	-0.429747
C42	C	1.170333	0.219224	0.070253
C43	C	0.663583	-0.396422	-0.337722
C44	C	1.163583	0.103578	0.162278
C45	C	0.758117	-0.390964	-0.342048
C46	C	1.258117	0.109036	0.157952
C47	C	0.808756	-0.330410	-0.390225
C48	C	1.308756	0.169590	0.109775
C49	C	0.903291	-0.324958	-0.394553
C50	C	1.403291	0.175042	0.105447
C51	C	0.896540	-0.440599	-0.302526
C52	C	1.396540	0.059401	0.197474
C53	C	0.802006	-0.446057	-0.298200
C54	C	1.302006	0.053943	0.201800
C55	C	1.269340	-0.595901	-0.355306
C56	C	1.769340	-0.095901	0.144694
C57	C	1.263588	-0.696515	-0.350710
C58	C	1.763588	-0.196515	0.149290
C59	C	1.368496	-0.878741	-0.434057
C60	C	1.868496	-0.378741	0.065943
C61	C	1.363095	-0.973276	-0.429742
C62	C	1.863095	-0.473276	0.070258
C63	C	1.247381	-0.980122	-0.337769
C64	C	1.747381	-0.480122	0.162231
C65	C	1.252782	-0.885587	-0.342084
C66	C	1.752782	-0.385587	0.157916
C67	C	1.313343	-0.834899	-0.390229
C68	C	1.813343	-0.334899	0.109771
C69	C	1.318748	-0.740362	-0.394541
C70	C	1.818748	-0.240362	0.105459
C71	C	1.203030	-0.747211	-0.302571
C72	C	1.703030	-0.247211	0.197429
C73	C	1.197629	-0.841746	-0.298256
C74	C	1.697629	-0.341746	0.201744
C75	C	1.519077	-0.347117	-0.376953
C76	C	2.019077	0.152883	0.123047
C77	C	1.619688	-0.341327	-0.381574
C78	C	2.119688	0.158673	0.118426
C79	C	1.283033	-0.360645	-0.542657
C80	C	1.783033	0.139355	-0.042657
C81	C	1.283056	-0.360619	-0.617891
C82	C	1.783056	0.139381	-0.117891
C83	C	1.296695	-0.124588	-0.376970
C84	C	1.796695	0.375412	0.123030
C85	C	1.302540	-0.023969	-0.381599
C86	C	1.802540	0.476031	0.118401
C87	C	1.344315	-0.299386	-0.658559
C88	C	1.844315	0.200614	-0.158559
C89	C	1.344326	-0.299359	-0.729249
C90	C	1.844326	0.200641	-0.229249
C91	C	1.283081	-0.360571	-0.759270
C92	C	1.783081	0.139429	-0.259270
C93	C	1.221815	-0.421807	-0.718596
C94	C	1.721815	0.078193	-0.218596
C95	C	1.221801	-0.421829	-0.647908
C96	C	1.721801	0.078171	-0.147908
C97	C	1.221871	-0.421720	-1.003676
C98	C	1.721871	0.078280	-0.503676
C99	C	1.221892	-0.421695	-1.074370
C100	C	1.721892	0.078305	-0.574370
C101	C	1.344396	-0.299250	-1.085017
C102	C	1.844396	0.200750	-0.585017
C103	C	1.344382	-0.299272	-1.014328
C104	C	1.844382	0.200728	-0.514328
C105	C	1.283113	-0.360504	-0.973661
C106	C	1.783113	0.139496	-0.473661
C107	C	1.283101	-0.360532	-0.897011
C108	C	1.783101	0.139468	-0.397011
C109	C	1.283097	-0.360548	-0.835918
C110	C	1.783097	0.139452	-0.335918
C111	C	1.282981	-0.360696	-0.190253
C112	C	1.782981	0.139304	0.309747
C113	C	1.283148	-0.360457	-0.115039
C114	C	1.783148	0.139543	0.384961
H115	H	0.944520	-0.275653	-0.433782
H116	H	1.444520	0.224347	0.066218
H117	H	0.634603	-0.235911	-0.465450
H118	H	1.134603	0.264089	0.034550
H119	H	1.148320	-0.883028	-0.259059
H120	H	1.648320	-0.383028	0.240941
H121	H	1.158123	-0.711504	-0.266881
H122	H	1.658123	-0.211504	0.233119
H123	H	1.368062	-0.699093	-0.433741
H124	H	1.868062	-0.199093	0.066259
H125	H	1.171946	-0.471644	-0.743045
H126	H	1.671946	0.028356	-0.243045
H127	H	1.394190	-0.249543	-0.634121
H128	H	1.894190	0.250457	-0.134121
H129	H	1.171995	-0.471592	-0.970573
H130	H	1.671995	0.028408	-0.470573
F131	F	1.409601	-0.234077	-1.128304
F132	F	1.909601	0.265923	-0.628304
H133	H	0.760763	-0.495354	-0.258974
H134	H	1.260763	0.004646	0.241026
F135	F	1.409569	-0.234125	-0.982382
F136	F	1.909569	0.265875	-0.482382
H137	H	0.932283	-0.485466	-0.266827
H138	H	1.432283	0.014534	0.233173
F139	F	0.818762	-0.210881	-0.485350
F140	F	1.318762	0.289119	0.014650
F141	F	0.609676	-0.460852	-0.286447
F142	F	1.109676	0.039148	0.213553
H143	H	1.417813	-0.837470	-0.473255
H144	H	1.917813	-0.337470	0.026745
H145	H	1.394211	-0.249498	-0.762358
H146	H	1.894211	0.250502	-0.262358
F147	F	1.156703	-0.486848	-1.106319
F148	F	1.656703	0.013152	-0.606319
H149	H	1.171909	-0.471683	-0.614796
H150	H	1.671909	0.028317	-0.114796
H151	H	1.408002	-1.008968	-0.465435
H152	H	1.908002	-0.508968	0.034565
H153	H	1.198071	-1.021408	-0.298574
H154	H	1.698071	-0.521408	0.201426
