data_functionalizedCrystal
_audit_creation_method	'MofGen! by Chris Wilmer'
_symmetry_space_group_name_H-M	'P1'
_symmetry_Int_Tables_number	1
_symmetry_cell_setting	triclinic
loop_
_symmetry_equiv_pos_as_xyz
  x,y,z
_cell_length_a	10.654550
_cell_length_b	14.044220
_cell_length_c	9.730223
_cell_angle_alpha	89.994583
_cell_angle_beta	89.999957
_cell_angle_gamma	88.836904
loop_
_atom_site_label
_atom_site_type_symbol
_atom_site_fract_x
_atom_site_fract_y
_atom_site_fract_z
O1	O	1.681228	0.133232	-0.114191
O2	O	1.317025	0.145925	-0.114216
O3	O	1.493659	0.001558	-0.114190
O4	O	1.504593	0.277599	-0.114217
O5	O	1.493647	0.001554	0.114390
O6	O	1.317012	0.145921	0.114364
O7	O	1.681215	0.133228	0.114389
Zn8	Zn	1.499111	0.139574	0.150668
Zn9	Zn	1.499128	0.139579	-0.150496
O10	O	1.504580	0.277595	0.114363
C11	C	1.270127	0.144991	0.000070
C12	C	1.130403	0.142202	0.000061
C13	C	1.059459	0.227204	0.000057
C14	C	0.928175	0.224578	0.000081
C15	C	0.938790	0.051942	0.000108
C16	C	1.070072	0.054569	0.000094
C17	C	1.488867	-0.033790	0.000100
C18	C	1.474592	-0.139110	0.000101
C19	C	1.448493	-0.331943	0.000079
C20	C	1.549741	-0.388910	0.000082
C21	C	1.535219	-0.496209	0.000070
C22	C	1.463013	-0.224634	0.000091
C23	C	1.728113	0.134162	0.000099
C24	C	1.867836	0.136950	0.000100
C25	C	1.509372	0.312943	0.000070
C26	C	1.523648	0.418262	0.000060
N27	N	1.499109	0.139570	0.356205
N28	N	1.499140	0.139576	-0.356032
C29	C	1.577355	0.075671	0.428142
C30	C	1.577367	0.075671	0.572025
C31	C	1.420885	0.203477	0.572021
C32	C	1.420867	0.203471	0.428140
H33	H	1.108577	0.298560	0.000041
C34	C	1.316666	-0.374915	0.000070
C35	C	1.276450	-0.440108	0.118760
C36	C	1.144625	-0.483095	0.118754
C37	C	1.053017	-0.460889	0.000058
C38	C	1.093231	-0.395692	-0.118641
C39	C	1.225056	-0.352705	-0.118635
H40	H	1.344265	-0.456550	0.206634
H41	H	1.114857	-0.531358	0.206624
H42	H	0.955433	-0.492710	0.000054
H43	H	1.025416	-0.379250	-0.206515
H44	H	1.254824	-0.304441	-0.206504
C45	C	0.850138	0.318082	0.000073
C46	C	0.863796	0.389649	-0.118640
C47	C	0.785760	0.483157	-0.118645
C48	C	0.694066	0.505099	0.000062
C49	C	0.680404	0.433530	0.118784
C50	C	0.758440	0.340021	0.118789
H51	H	0.931676	0.373408	-0.206523
H52	H	0.795873	0.536137	-0.206532
H53	H	0.636299	0.574319	0.000058
H54	H	0.612523	0.449770	0.206666
H55	H	0.748326	0.287041	0.206675
C56	C	1.148122	-0.038938	0.000098
C57	C	1.239832	-0.060868	-0.118599
C58	C	1.317883	-0.154370	-0.118588
C59	C	1.304224	-0.225941	0.000119
C60	C	1.212510	-0.204012	0.118825
C61	C	1.134459	-0.110511	0.118814
H62	H	1.249947	-0.007885	-0.206482
H63	H	1.385776	-0.170602	-0.206463
H64	H	1.362002	-0.295156	0.000127
H65	H	1.202395	-0.256995	0.206707
H66	H	1.066566	-0.094278	0.206688
H67	H	1.641062	0.023637	0.369576
H68	H	1.641080	0.023638	0.630593
C69	C	1.681580	-0.345944	0.000107
C70	C	1.773169	-0.368168	0.118816
C71	C	1.905003	-0.325198	0.118846
C72	C	1.945249	-0.260005	0.000168
C73	C	1.853659	-0.237778	-0.118549
C74	C	1.721824	-0.280748	-0.118579
H75	H	1.743378	-0.416431	0.206676
H76	H	1.972804	-0.341652	0.206729
H77	H	2.042841	-0.228196	0.000190
H78	H	1.883450	-0.189515	-0.206410
H79	H	1.654024	-0.264294	-0.206462
C80	C	1.334832	0.273775	0.651150
C81	C	1.334924	0.273844	0.809413
C82	C	1.248871	0.344146	0.888538
C83	C	1.162726	0.414379	0.809400
C84	C	1.162631	0.414312	0.651128
C85	C	1.248683	0.344010	0.572003
H86	H	1.398696	0.221851	0.868004
H87	H	1.248942	0.344195	1.005701
H88	H	1.099025	0.466421	0.867973
H89	H	1.098858	0.466305	0.592538
H90	H	1.248612	0.343961	0.454840
H91	H	0.889652	-0.019406	0.000143
H92	H	1.357144	0.255506	0.369565
