data_functionalizedCrystal
_audit_creation_method	'MofGen! by Chris Wilmer'
_symmetry_space_group_name_H-M	'P1'
_symmetry_Int_Tables_number	1
_symmetry_cell_setting	triclinic
loop_
_symmetry_equiv_pos_as_xyz
  x,y,z
_cell_length_a	16.974885
_cell_length_b	10.723024
_cell_length_c	16.053802
_cell_angle_alpha	92.591250
_cell_angle_beta	91.069328
_cell_angle_gamma	83.929208
loop_
_atom_site_label
_atom_site_type_symbol
_atom_site_fract_x
_atom_site_fract_y
_atom_site_fract_z
O1	O	1.049928	0.159103	0.001448
O2	O	1.549928	0.659103	0.501448
O3	O	0.820572	0.178197	-0.014036
O4	O	1.320572	0.678197	0.485964
O5	O	0.940540	-0.012980	-0.005933
O6	O	1.440540	0.487020	0.494067
O7	O	0.929959	0.350280	-0.006654
O8	O	1.429959	0.850280	0.493346
O9	O	0.933936	-0.002501	0.132479
O10	O	1.433936	0.497499	0.632479
O11	O	0.813968	0.188676	0.124377
O12	O	1.313968	0.688676	0.624377
O13	O	1.043324	0.169582	0.139861
O14	O	1.543324	0.669582	0.639861
Zn15	Zn	0.927598	0.180793	0.154095
Zn16	Zn	1.427598	0.680793	0.654095
Zn17	Zn	0.936298	0.166986	-0.028270
Zn18	Zn	1.436298	0.666986	0.471730
O19	O	0.923356	0.360759	0.131759
O20	O	1.423356	0.860759	0.631759
C21	C	0.787902	0.182517	0.053188
C22	C	1.287902	0.682517	0.553188
C23	C	0.700395	0.179762	0.047280
C24	C	1.200395	0.679762	0.547280
C25	C	0.208218	0.163598	0.005870
C26	C	0.708218	0.663598	0.505870
C27	C	0.290439	0.166187	0.011432
C28	C	0.790439	0.666187	0.511432
C29	C	0.327941	0.173203	0.089663
C30	C	0.827941	0.673203	0.589663
C31	C	0.283219	0.177618	0.162336
C32	C	0.783219	0.677618	0.662336
C33	C	0.201000	0.175020	0.156773
C34	C	0.701000	0.675020	0.656773
C35	C	0.573454	0.181579	0.114391
C36	C	1.073454	0.681579	0.614391
C37	C	0.655678	0.184180	0.119948
C38	C	1.155678	0.684180	0.619948
C39	C	0.662893	0.172747	-0.030957
C40	C	1.162893	0.672747	0.469043
C41	C	0.580672	0.170157	-0.036513
C42	C	1.080672	0.670157	0.463487
C43	C	0.535957	0.174565	0.036161
C44	C	1.035957	0.674565	0.536161
N45	N	0.411984	0.175854	0.095350
N46	N	0.911984	0.675854	0.595350
N47	N	0.451916	0.171905	0.030473
N48	N	0.951916	0.671905	0.530473
C49	C	0.936468	-0.054232	0.063220
C50	C	1.436468	0.445768	0.563220
C51	C	0.934165	-0.192763	0.063062
C52	C	1.434165	0.307237	0.563062
C53	C	1.001293	-0.268431	0.067592
C54	C	1.501293	0.231569	0.567592
C55	C	0.998913	-0.411611	0.067429
C56	C	1.498913	0.088389	0.567429
C57	C	1.075994	0.165262	0.072636
C58	C	1.575994	0.665262	0.572636
C59	C	1.163501	0.168016	0.078538
C60	C	1.663501	0.668016	0.578538
C61	C	0.927428	0.402011	0.062604
C62	C	1.427428	0.902011	0.562604
C63	C	0.929732	0.540542	0.062757
C64	C	1.429732	1.040542	0.562757
N65	N	0.921665	0.190215	0.278555
N66	N	1.421665	0.690215	0.778555
N67	N	0.942237	0.157554	-0.152729
N68	N	1.442237	0.657554	0.347271
C69	C	0.972731	0.108898	0.325698
C70	C	1.472731	0.608898	0.825698
C71	C	0.968589	0.115501	0.412825
C72	C	1.468589	0.615501	0.912825
C73	C	0.913384	0.203428	0.452808
C74	C	1.413384	0.703428	0.952808
C75	C	0.862313	0.284748	0.405658
C76	C	1.362313	0.784748	0.905658
C77	C	0.866452	0.278139	0.318533
C78	C	1.366452	0.778139	0.818533
C79	C	0.895304	0.232265	0.712996
C80	C	1.395304	0.732265	1.212996
C81	C	0.891171	0.238871	0.800128
C82	C	1.391171	0.738871	1.300128
C83	C	0.997446	0.069621	0.807289
C84	C	1.497446	0.569621	1.307289
C85	C	1.001583	0.063024	0.720161
C86	C	1.501583	0.563024	1.220161
C87	C	0.950510	0.144340	0.673019
C88	C	1.450510	0.644340	1.173019
N89	N	0.909151	0.210182	0.541865
N90	N	1.409151	0.710182	1.041865
N91	N	0.954740	0.137579	0.583963
N92	N	1.454740	0.637579	1.083963
H93	H	0.326845	0.162582	-0.047742
H94	H	0.826845	0.662582	0.452258
Cl95	Cl	0.144785	0.180563	0.248131
Cl96	Cl	0.644785	0.680563	0.748131
H97	H	1.039027	0.003416	0.845679
H98	H	1.539027	0.503416	1.345679
H99	H	1.060525	-0.227213	0.071596
H100	H	1.560525	0.272787	0.571596
H101	H	0.824868	0.344354	0.280149
H102	H	1.324868	0.844354	0.780149
H103	H	0.853719	0.298478	0.674620
H104	H	1.353719	0.798478	1.174620
Cl105	Cl	1.087643	-0.511988	0.073424
Cl106	Cl	1.587643	-0.011988	0.573424
Cl107	Cl	1.042139	-0.001639	0.275443
Cl108	Cl	1.542139	0.498361	0.775443
H109	H	0.872261	-0.394446	0.058883
H110	H	1.372261	0.105554	0.558883
Cl111	Cl	1.070985	-0.047512	0.669897
Cl112	Cl	1.570985	0.452488	1.169897
H113	H	0.817360	0.356336	0.438217
H114	H	1.317360	0.856336	0.938217
H115	H	0.550143	0.164442	-0.100216
H116	H	1.050143	0.664442	0.399784
H117	H	0.699309	0.169157	-0.090123
H118	H	1.199309	0.669157	0.409877
H119	H	0.874933	-0.233981	0.059057
H120	H	1.374933	0.266019	0.559057
Cl121	Cl	0.517249	0.187154	0.205752
Cl122	Cl	1.017249	0.687154	0.705752
Cl123	Cl	1.032786	0.013271	0.472091
Cl124	Cl	1.532786	0.513271	0.972091
H125	H	0.313760	0.183323	0.226033
H126	H	0.813760	0.683323	0.726033
Cl127	Cl	0.821765	0.349420	0.850386
Cl128	Cl	1.321765	0.849420	1.350386
H129	H	0.686209	0.189903	0.183656
H130	H	1.186209	0.689903	0.683656
H131	H	0.177689	0.157893	-0.057834
H132	H	0.677689	0.657893	0.442166
