data_functionalizedCrystal
_audit_creation_method	'MofGen! by Chris Wilmer'
_symmetry_space_group_name_H-M	'P1'
_symmetry_Int_Tables_number	1
_symmetry_cell_setting	triclinic
loop_
_symmetry_equiv_pos_as_xyz
  x,y,z
_cell_length_a	14.044220
_cell_length_b	10.654550
_cell_length_c	9.730223
_cell_angle_alpha	89.999807
_cell_angle_beta	90.004504
_cell_angle_gamma	88.836890
loop_
_atom_site_label
_atom_site_type_symbol
_atom_site_fract_x
_atom_site_fract_y
_atom_site_fract_z
O1	O	1.259693	0.302980	-0.114137
O2	O	0.983652	0.292047	-0.114172
O3	O	1.128019	0.115412	-0.114149
O4	O	1.115326	0.479615	-0.114161
O5	O	1.128018	0.115417	0.114431
O6	O	0.983650	0.292052	0.114408
O7	O	1.259691	0.302985	0.114443
Zn8	Zn	1.121671	0.297519	0.150717
Zn9	Zn	1.121673	0.297513	-0.150447
O10	O	1.115324	0.479620	0.114419
C11	C	1.127086	0.068523	0.000139
C12	C	1.124298	-0.071201	0.000134
C13	C	0.948305	0.287263	0.000113
C14	C	0.842986	0.272988	0.000100
C15	C	1.209299	-0.142144	0.000149
C16	C	1.206673	-0.273429	0.000139
C17	C	1.034038	-0.262814	0.000105
C18	C	1.036664	-0.131532	0.000105
C19	C	1.308969	-0.148274	0.000175
C20	C	1.306343	-0.279559	0.000165
C21	C	0.650153	0.246889	0.000128
C22	C	0.593185	0.348137	0.000130
C23	C	0.485886	0.333615	0.000146
C24	C	0.757461	0.261409	0.000112
C25	C	1.295038	0.307769	0.000154
C26	C	1.400358	0.322044	0.000159
C27	C	1.116257	0.526509	0.000128
C28	C	1.119045	0.666233	0.000124
N29	N	1.121676	0.297523	0.356254
N30	N	1.121675	0.297500	-0.355983
C31	C	1.185618	0.219340	0.428190
C32	C	1.185616	0.219324	0.572073
C33	C	1.057725	0.375686	0.572070
C34	C	1.057724	0.375694	0.428190
C35	C	1.259458	0.129069	0.428193
C36	C	1.259455	0.129054	0.572076
H37	H	0.962689	-0.311952	0.000080
O38	O	1.346370	0.163392	0.618918
C39	C	1.346196	0.163338	0.763820
H40	H	1.288248	0.098892	0.802685
H41	H	1.418458	0.128293	0.803051
H42	H	1.331745	0.262784	0.802897
O43	O	0.995569	0.451444	0.642106
C44	C	0.936598	0.377524	0.725289
H45	H	0.973737	0.283442	0.746837
H46	H	0.921932	0.428276	0.826470
H47	H	0.866440	0.361079	0.669827
H48	H	1.243262	0.030909	0.389139
O49	O	1.355606	-0.108512	-0.113792
C50	C	1.435886	-0.039914	-0.074100
H51	H	1.458159	-0.068432	0.034340
H52	H	1.497021	-0.060594	-0.148314
H53	H	1.417397	0.064752	-0.076229
O54	O	0.631286	0.464469	0.000023
C55	C	0.731490	0.453264	0.000028
H56	H	0.753954	0.357731	-0.043210
H57	H	0.762438	0.530580	-0.066381
H58	H	0.759107	0.462422	0.109676
O59	O	1.341611	0.174004	0.375137
C60	C	1.353761	0.298479	0.420021
H61	H	1.311750	0.314868	0.518868
H62	H	1.432517	0.314881	0.440020
H63	H	1.326843	0.366341	0.337474
H64	H	1.336465	-0.322177	-0.098526
H65	H	1.340707	-0.109456	0.098875
H66	H	1.343897	-0.317543	0.095828
O67	O	0.954184	-0.062427	0.000012
C68	C	0.975289	0.066384	0.000048
H69	H	1.049836	0.079752	-0.043197
H70	H	0.921171	0.119664	-0.066340
H71	H	0.971928	0.103896	0.109706
H72	H	0.618342	0.149310	0.000139
O73	O	0.995569	0.451749	0.358523
C74	C	0.939112	0.520716	0.452874
H75	H	0.978012	0.526526	0.555440
H76	H	0.925283	0.619449	0.411306
H77	H	0.868389	0.471944	0.468169
H78	H	1.236409	0.035515	0.616691
