data_functionalizedCrystal
_audit_creation_method	'MofGen! by Chris Wilmer'
_symmetry_space_group_name_H-M	'P1'
_symmetry_Int_Tables_number	1
_symmetry_cell_setting	triclinic
loop_
_symmetry_equiv_pos_as_xyz
  x,y,z
_cell_length_a	18.215407
_cell_length_b	19.121063
_cell_length_c	18.215399
_cell_angle_alpha	92.409843
_cell_angle_beta	89.980167
_cell_angle_gamma	92.469446
loop_
_atom_site_label
_atom_site_type_symbol
_atom_site_fract_x
_atom_site_fract_y
_atom_site_fract_z
Zn1	Zn	1.112559	-0.279613	-0.428596
Zn2	Zn	1.362559	-0.029613	-0.178596
Zn3	Zn	1.612559	0.220387	0.071404
Zn4	Zn	1.862559	0.470387	0.321404
Zn5	Zn	1.107212	-0.397068	-0.310772
Zn6	Zn	1.357212	-0.147068	-0.060772
Zn7	Zn	1.607212	0.102932	0.189228
Zn8	Zn	1.857212	0.352932	0.439228
Zn9	Zn	0.989491	-0.279636	-0.305544
Zn10	Zn	1.239491	-0.029636	-0.055544
Zn11	Zn	1.489491	0.220364	0.194456
Zn12	Zn	1.739491	0.470364	0.444456
Zn13	Zn	0.984203	-0.397029	-0.433795
Zn14	Zn	1.234203	-0.147029	-0.183795
Zn15	Zn	1.484203	0.102971	0.066205
Zn16	Zn	1.734203	0.352971	0.316205
O17	O	1.048366	-0.338336	-0.369677
O18	O	1.298366	-0.088336	-0.119677
O19	O	1.548366	0.161664	0.130323
O20	O	1.798366	0.411664	0.380323
O21	O	1.214834	-0.295200	-0.412978
O22	O	1.464834	-0.045200	-0.162978
O23	O	1.714834	0.204800	0.087022
O24	O	1.964834	0.454800	0.337022
O25	O	1.091570	-0.381516	-0.207095
O26	O	1.341570	-0.131516	0.042905
O27	O	1.591570	0.118484	0.292905
O28	O	1.841570	0.368484	0.542905
O29	O	1.010267	-0.181348	-0.317504
O30	O	1.260267	0.068652	-0.067504
O31	O	1.510267	0.318652	0.182496
O32	O	1.760267	0.568652	0.432496
O33	O	1.210905	-0.381494	-0.326414
O34	O	1.460905	-0.131494	-0.076414
O35	O	1.710905	0.118506	0.173586
O36	O	1.960905	0.368506	0.423586
O37	O	1.100685	-0.181331	-0.407909
O38	O	1.350685	0.068669	-0.157909
O39	O	1.600685	0.318669	0.092091
O40	O	1.850685	0.568669	0.342091
O41	O	1.005081	-0.295240	-0.203255
O42	O	1.255081	-0.045240	0.046745
O43	O	1.505081	0.204760	0.296745
O44	O	1.755081	0.454760	0.546745
O45	O	0.885805	-0.295202	-0.322545
O46	O	1.135805	-0.045202	-0.072545
O47	O	1.385805	0.204798	0.177455
O48	O	1.635805	0.454798	0.427455
O49	O	1.001255	-0.381427	-0.536089
O50	O	1.251255	-0.131427	-0.286089
O51	O	1.501255	0.118573	-0.036089
O52	O	1.751255	0.368573	0.213911
O53	O	0.881921	-0.381450	-0.416771
O54	O	1.131921	-0.131450	-0.166771
O55	O	1.381921	0.118550	0.083229
O56	O	1.631921	0.368550	0.333229
O57	O	1.095558	-0.295162	-0.532269
O58	O	1.345558	-0.045162	-0.282269
O59	O	1.595558	0.204838	-0.032269
O60	O	1.845558	0.454838	0.217731
O61	O	1.086443	-0.495348	-0.331455
O62	O	1.336443	-0.245348	-0.081455
O63	O	1.586443	0.004652	0.168545
O64	O	1.836443	0.254652	0.418545
O65	O	0.996070	-0.495319	-0.421840
O66	O	1.246070	-0.245319	-0.171840
O67	O	1.496070	0.004681	0.078160
O68	O	1.746070	0.254681	0.328160
C69	C	0.857160	-0.338324	-0.369655
C70	C	1.107160	-0.088324	-0.119655
C71	C	1.357160	0.161676	0.130345
C72	C	1.607160	0.411676	0.380345
C73	C	0.775361	-0.338336	-0.369664
C74	C	1.025361	-0.088336	-0.119664
C75	C	1.275361	0.161664	0.130336
C76	C	1.525361	0.411664	0.380336
C77	C	1.040122	-0.520817	-0.377795
C78	C	1.290122	-0.270817	-0.127795
C79	C	1.540122	-0.020817	0.122205
C80	C	1.790122	0.229183	0.372205
C81	C	1.036663	-0.598883	-0.381293
C82	C	1.286663	-0.348883	-0.131293
C83	C	1.536663	-0.098883	0.118707
C84	C	1.786663	0.151117	0.368707
C85	C	0.585160	-0.383316	-0.418671
C86	C	0.835160	-0.133316	-0.168671
C87	C	1.085160	0.116684	0.081329
C88	C	1.335160	0.366684	0.331329
C89	C	0.508302	-0.383318	-0.418681
C90	C	0.758302	-0.133318	-0.168681
C91	C	1.008302	0.116682	0.081319
C92	C	1.258302	0.366682	0.331319
C93	C	0.512323	-0.293369	-0.320699
C94	C	0.762323	-0.043369	-0.070699
C95	C	1.012323	0.206631	0.179301
C96	C	1.262323	0.456631	0.429301
C97	C	0.589181	-0.293364	-0.320694
C98	C	0.839181	-0.043364	-0.070694
C99	C	1.089181	0.206636	0.179306
C100	C	1.339181	0.456636	0.429306
C101	C	0.625597	-0.338342	-0.369679
C102	C	0.875597	-0.088342	-0.119679
C103	C	1.125597	0.161658	0.130321
C104	C	1.375597	0.411658	0.380321
C105	C	0.471881	-0.338349	-0.369694
C106	C	0.721881	-0.088349	-0.119694
C107	C	0.971881	0.161651	0.130306
C108	C	1.221881	0.411651	0.380306
C109	C	0.388547	-0.338351	-0.369703
C110	C	0.638547	-0.088351	-0.119703
C111	C	0.888547	0.161649	0.130297
C112	C	1.138547	0.411649	0.380297
C113	C	0.708936	-0.338339	-0.369671
C114	C	0.958936	-0.088339	-0.119671
C115	C	1.208936	0.161661	0.130329
C116	C	1.458936	0.411661	0.380329
C117	C	1.082127	-0.635551	-0.335916
C118	C	1.332127	-0.385551	-0.085916
C119	C	1.582127	-0.135551	0.164084
C120	C	1.832127	0.114449	0.414084
C121	C	1.078878	-0.708902	-0.339210
C122	C	1.328878	-0.458902	-0.089210
C123	C	1.578878	-0.208902	0.160790
C124	C	1.828878	0.041098	0.410790
C125	C	1.030161	-0.745585	-0.387877
C126	C	1.280161	-0.495585	-0.137877
C127	C	1.530161	-0.245585	0.112123
C128	C	1.780161	0.004415	0.362123
C129	C	0.984695	-0.708912	-0.433258
C130	C	1.234695	-0.458912	-0.183258
C131	C	1.484695	-0.208912	0.066742
C132	C	1.734695	0.041088	0.316742
C133	C	0.987948	-0.635562	-0.429968
C134	C	1.237948	-0.385562	-0.179968
C135	C	1.487948	-0.135562	0.070032
C136	C	1.737948	0.114438	0.320032
C137	C	1.017985	-0.967055	-0.400168
C138	C	1.267985	-0.717055	-0.150168
C139	C	1.517985	-0.467055	0.099832
C140	C	1.767985	-0.217055	0.349832
C141	C	1.014733	-1.040410	-0.403454
C142	C	1.264733	-0.790410	-0.153454
C143	C	1.514733	-0.540410	0.096546
C144	C	1.764733	-0.290410	0.346546
C145	C	1.108918	-1.040394	-0.309406
C146	C	1.358918	-0.790394	-0.059406
C147	C	1.608918	-0.540394	0.190594
C148	C	1.858918	-0.290394	0.440594
C149	C	1.112164	-0.967043	-0.306117
C150	C	1.362164	-0.717043	-0.056117
C151	C	1.612164	-0.467043	0.193883
C152	C	1.862164	-0.217043	0.443883
C153	C	1.066701	-0.930377	-0.351501
C154	C	1.316701	-0.680377	-0.101501
C155	C	1.566701	-0.430377	0.148499
C156	C	1.816701	-0.180377	0.398499
C157	C	1.026837	-0.820561	-0.391243
C158	C	1.276837	-0.570561	-0.141243
C159	C	1.526837	-0.320561	0.108757
C160	C	1.776837	-0.070561	0.358757
C161	C	1.070029	-0.855401	-0.348138
C162	C	1.320029	-0.605401	-0.098138
C163	C	1.570029	-0.355401	0.151862
C164	C	1.820029	-0.105401	0.401862
C165	C	1.240319	-0.338349	-0.369699
C166	C	1.490319	-0.088349	-0.119699
C167	C	1.740319	0.161651	0.130301
C168	C	1.990319	0.411651	0.380301
C169	C	1.322117	-0.338354	-0.369709
C170	C	1.572117	-0.088354	-0.119709
C171	C	1.822117	0.161646	0.130291
C172	C	2.072117	0.411646	0.380291
C173	C	1.048413	-0.338288	-0.561628
C174	C	1.298413	-0.088288	-0.311628
C175	C	1.548413	0.161712	-0.061628
C176	C	1.798413	0.411712	0.188372
C177	C	1.048433	-0.338267	-0.643426
C178	C	1.298433	-0.088267	-0.393426
C179	C	1.548433	0.161733	-0.143426
C180	C	1.798433	0.411733	0.106574
C181	C	1.056662	-0.155143	-0.361543
C182	C	1.306662	0.094857	-0.111543
C183	C	1.556662	0.344857	0.138457
C184	C	1.806662	0.594857	0.388457
C185	C	1.060197	-0.077077	-0.358077
C186	C	1.310197	0.172923	-0.108077
C187	C	1.560197	0.422923	0.141923
C188	C	1.810197	0.672923	0.391923
C189	C	1.097555	-0.293307	-0.829630
C190	C	1.347555	-0.043307	-0.579630
C191	C	1.597555	0.206693	-0.329630
C192	C	1.847555	0.456693	-0.079630
C193	C	1.097565	-0.293287	-0.906488
C194	C	1.347565	-0.043287	-0.656488
C195	C	1.597565	0.206713	-0.406488
C196	C	1.847565	0.456713	-0.156488
C197	C	0.999368	-0.383119	-0.910455
C198	C	1.249368	-0.133119	-0.660455
C199	C	1.499368	0.116881	-0.410455
C200	C	1.749368	0.366881	-0.160455
C201	C	0.999355	-0.383135	-0.833598
C202	C	1.249355	-0.133135	-0.583598
C203	C	1.499355	0.116865	-0.333598
C204	C	1.749355	0.366865	-0.083598
C205	C	1.048453	-0.338231	-0.793188
C206	C	1.298453	-0.088231	-0.543188
C207	C	1.548453	0.161769	-0.293188
C208	C	1.798453	0.411769	-0.043188
C209	C	1.048476	-0.338194	-0.946902
C210	C	1.298476	-0.088194	-0.696902
C211	C	1.548476	0.161806	-0.446902
C212	C	1.798476	0.411806	-0.196902
C213	C	1.048486	-0.338172	-1.030235
C214	C	1.298486	-0.088172	-0.780235
C215	C	1.548486	0.161828	-0.530235
C216	C	1.798486	0.411828	-0.280235
C217	C	1.048442	-0.338251	-0.709850
C218	C	1.298442	-0.088251	-0.459850
C219	C	1.548442	0.161749	-0.209850
C220	C	1.798442	0.411749	0.040150
C221	C	1.048364	-0.338334	-0.178471
C222	C	1.298364	-0.088334	0.071529
C223	C	1.548364	0.161666	0.321529
C224	C	1.798364	0.411666	0.571529
C225	C	1.048495	-0.338157	-0.096664
C226	C	1.298495	-0.088157	0.153336
C227	C	1.548495	0.161843	0.403336
C228	C	1.798495	0.411843	0.653336
H229	H	0.614808	-0.419938	-0.458560
H230	H	0.864808	-0.169938	-0.208560
H231	H	1.114808	0.080062	0.041440
H232	H	1.364808	0.330062	0.291440
Br233	Br	0.956285	-0.917303	-0.461761
Br234	Br	1.206285	-0.667303	-0.211761
Br235	Br	1.456285	-0.417303	0.038239
Br236	Br	1.706285	-0.167303	0.288239
H237	H	0.475381	-0.419940	-0.458576
H238	H	0.725381	-0.169940	-0.208576
H239	H	0.975381	0.080060	0.041424
H240	H	1.225381	0.330060	0.291424
Br241	Br	1.178293	-0.917264	-0.240076
Br242	Br	1.428293	-0.667264	0.009924
Br243	Br	1.678293	-0.417264	0.259924
Br244	Br	1.928293	-0.167264	0.509924
Br245	Br	0.462897	-0.232332	-0.254222
Br246	Br	0.712897	0.017668	-0.004222
Br247	Br	0.962897	0.267668	0.245778
Br248	Br	1.212897	0.517668	0.495778
H249	H	1.137532	-0.256741	-0.796730
H250	H	1.387532	-0.006741	-0.546730
H251	H	1.637532	0.243259	-0.296730
H252	H	1.887532	0.493259	-0.046730
H253	H	0.622106	-0.256736	-0.280798
H254	H	0.872106	-0.006736	-0.030798
H255	H	1.122106	0.243264	0.219202
H256	H	1.372106	0.493264	0.469202
H257	H	0.959365	-0.419717	-0.803926
H258	H	1.209365	-0.169717	-0.553926
H259	H	1.459365	0.080283	-0.303926
H260	H	1.709365	0.330283	-0.053926
H261	H	1.115899	-0.738753	-0.302259
H262	H	1.365899	-0.488753	-0.052259
H263	H	1.615899	-0.238753	0.197741
H264	H	1.865899	0.011247	0.447741
Br265	Br	1.148240	-0.585774	-0.269858
Br266	Br	1.398240	-0.335774	-0.019858
Br267	Br	1.648240	-0.085774	0.230142
Br268	Br	1.898240	0.164226	0.480142
H269	H	1.145933	-1.070256	-0.272458
H270	H	1.395933	-0.820256	-0.022458
H271	H	1.645933	-0.570256	0.227542
H272	H	1.895933	-0.320256	0.477542
Br273	Br	0.948600	-1.090194	-0.469493
Br274	Br	1.198600	-0.840194	-0.219493
Br275	Br	1.448600	-0.590194	0.030507
Br276	Br	1.698600	-0.340194	0.280507
Br277	Br	0.918583	-0.758695	-0.499313
Br278	Br	1.168583	-0.508695	-0.249313
Br279	Br	1.418583	-0.258695	0.000687
Br280	Br	1.668583	-0.008695	0.250687
Br281	Br	0.926249	-0.585798	-0.491557
Br282	Br	1.176249	-0.335798	-0.241557
Br283	Br	1.426249	-0.085798	0.008443
Br284	Br	1.676249	0.164202	0.258443
Br285	Br	1.136148	-0.805617	-0.282096
Br286	Br	1.386148	-0.555617	-0.032096
Br287	Br	1.636148	-0.305617	0.217904
Br288	Br	1.886148	-0.055617	0.467904
H289	H	0.987169	-0.850437	-0.430866
H290	H	1.237169	-0.600437	-0.180866
H291	H	1.487169	-0.350437	0.069134
H292	H	1.737169	-0.100437	0.319134
Br293	Br	1.164212	-0.232322	-0.955943
Br294	Br	1.414212	0.017678	-0.705943
Br295	Br	1.664212	0.267678	-0.455943
Br296	Br	1.914212	0.517678	-0.205943
H297	H	0.959396	-0.419680	-0.943366
H298	H	1.209396	-0.169680	-0.693366
H299	H	1.459396	0.080320	-0.443366
H300	H	1.709396	0.330320	-0.193366
