data_functionalizedCrystal
_audit_creation_method	'MofGen! by Chris Wilmer'
_symmetry_space_group_name_H-M	'P1'
_symmetry_Int_Tables_number	1
_symmetry_cell_setting	triclinic
loop_
_symmetry_equiv_pos_as_xyz
  x,y,z
_cell_length_a	13.635800
_cell_length_b	21.973849
_cell_length_c	11.102300
_cell_angle_alpha	88.155354
_cell_angle_beta	108.605850
_cell_angle_gamma	119.904056
loop_
_atom_site_label
_atom_site_type_symbol
_atom_site_fract_x
_atom_site_fract_y
_atom_site_fract_z
V1	V	2.088315	0.097181	0.396846
O2	O	2.033717	-0.004670	0.388685
O3	O	2.108695	0.192694	0.394715
O4	O	2.076205	0.095686	0.569658
O5	O	2.066432	0.093009	0.212531
V6	V	2.322786	0.084998	0.374729
O7	O	2.234937	0.123904	0.445360
O8	O	2.401263	0.058275	0.326215
O9	O	2.190803	-0.010514	0.376860
O10	O	2.436083	0.186850	0.382890
O11	O	2.403368	0.089170	0.559044
O12	O	2.223293	0.086493	0.201917
V13	V	2.588315	0.097181	0.396846
O14	O	2.533717	-0.004670	0.388685
O15	O	2.608695	0.192694	0.394715
O16	O	2.576205	0.095686	0.569658
O17	O	2.566432	0.093009	0.212531
V18	V	2.822786	0.084998	0.374729
O19	O	2.734937	0.123904	0.445360
O20	O	2.901263	0.058275	0.326215
O21	O	2.690803	-0.010514	0.376860
O22	O	2.936083	0.186850	0.382890
O23	O	2.903368	0.089170	0.559044
O24	O	2.723293	0.086493	0.201917
C25	C	2.041650	0.215978	0.388605
C26	C	2.099037	0.294061	0.388014
C27	C	2.219193	0.334316	0.394092
C28	C	2.273118	0.407684	0.393550
C29	C	2.206872	0.440792	0.386905
C30	C	2.086700	0.400528	0.380834
C31	C	2.032782	0.327162	0.381388
N32	N	2.201268	0.547057	0.308583
N33	N	2.252493	0.616751	0.308054
C34	C	2.369319	0.661839	0.385236
N35	N	2.432995	0.634599	0.462952
N36	N	2.381767	0.564898	0.463476
C37	C	2.265327	0.520345	0.386303
C38	C	2.547953	0.781649	0.390728
C39	C	2.601878	0.855020	0.390194
C40	C	2.415453	0.847861	0.377464
C41	C	2.361535	0.774493	0.378011
C42	C	2.427790	0.741391	0.384637
C43	C	2.000204	0.092234	0.611760
C44	C	2.031239	0.091644	0.753039
C45	C	2.089521	-0.033795	0.382967
C46	C	2.021754	-0.111877	0.383565
C47	C	2.130966	0.089948	0.159808
C48	C	2.089548	0.090535	0.018528
C49	C	2.593007	0.966205	0.382963
C50	C	2.535628	0.888122	0.383551
C51	C	2.074082	-0.152126	0.377474
C52	C	2.010413	-0.225495	0.378016
C53	C	1.894421	-0.258612	0.384657
C54	C	1.842089	-0.218358	0.390745
C55	C	1.905754	-0.144991	0.390194
C56	C	2.139000	0.094874	0.825907
C57	C	2.168153	0.094317	0.958652
C58	C	1.981776	0.087302	0.945649
C59	C	1.952621	0.087854	0.812905
C60	C	2.541650	0.215978	0.388605
C61	C	2.599037	0.294061	0.388014
C62	C	2.500204	0.092234	0.611760
C63	C	2.531239	0.091644	0.753039
C64	C	2.630966	0.089948	0.159808
C65	C	2.589548	0.090535	0.018528
C66	C	2.719203	0.334311	0.394109
C67	C	2.773144	0.407680	0.393574
C68	C	2.706914	0.440797	0.386935
C69	C	2.586738	0.400542	0.380844
C70	C	2.532801	0.327175	0.381388
C71	C	2.639000	0.094874	0.825907
C72	C	2.668153	0.094317	0.958652
C73	C	2.481776	0.087302	0.945649
C74	C	2.452621	0.087854	0.812905
H75	H	2.273150	0.307370	0.399496
H76	H	2.699725	0.887796	0.395152
H77	H	2.703018	0.097959	0.777168
C78	C	2.395250	0.083066	1.011496
N79	N	2.330057	0.079851	1.061083
H80	H	1.917773	0.084217	0.994409
H81	H	2.755900	0.096947	1.017976
C82	C	1.834073	0.084303	0.732746
N83	N	1.744786	0.081629	0.672370
H84	H	2.255900	0.096947	1.017976
C85	C	2.229348	0.730208	0.371305
N86	N	2.129780	0.696853	0.366254
C87	C	2.792084	0.297897	0.401421
N88	N	2.846989	0.270476	0.406938
H89	H	2.053043	-0.258261	0.373060
H90	H	2.364861	0.085217	0.753572
C91	C	2.905336	0.451946	0.400260
N92	N	3.004900	0.485285	0.405293
C93	C	2.766261	0.521504	0.386328
N94	N	2.810966	0.582292	0.385866
H95	H	1.842593	-0.318353	0.385104
C96	C	2.342579	0.884275	0.370158
N97	N	2.287691	0.911706	0.364658
H98	H	1.863136	-0.112224	0.395165
H99	H	2.370966	0.440467	0.398499
H100	H	2.032766	0.427489	0.375426
C101	C	2.400605	0.282906	0.374663
N102	N	2.301030	0.249565	0.369594
C103	C	2.225478	0.099035	0.760057
N104	N	2.290614	0.102165	0.710461
C105	C	2.513893	0.436981	0.373519
N106	N	2.459024	0.464427	0.367988
H107	H	1.934938	0.294386	0.376440
H108	H	2.601902	0.754696	0.396121
H109	H	2.168529	-0.125172	0.372067
H110	H	1.747641	-0.245333	0.396151
