data_functionalizedCrystal
_audit_creation_method	'MofGen! by Chris Wilmer'
_symmetry_space_group_name_H-M	'P1'
_symmetry_Int_Tables_number	1
_symmetry_cell_setting	triclinic
loop_
_symmetry_equiv_pos_as_xyz
  x,y,z
_cell_length_a	11.169417
_cell_length_b	17.077402
_cell_length_c	17.077396
_cell_angle_alpha	89.970216
_cell_angle_beta	90.015939
_cell_angle_gamma	89.975868
loop_
_atom_site_label
_atom_site_type_symbol
_atom_site_fract_x
_atom_site_fract_y
_atom_site_fract_z
Zn1	Zn	1.834815	0.312482	0.443761
Zn2	Zn	2.334815	0.812482	0.943761
Zn3	Zn	1.834673	0.443757	0.312492
Zn4	Zn	2.334673	0.943757	0.812492
Zn5	Zn	1.634114	0.312512	0.312517
Zn6	Zn	2.134114	0.812512	0.812517
Zn7	Zn	1.634065	0.443713	0.443724
Zn8	Zn	2.134065	0.943713	0.943724
O9	O	1.734417	0.378116	0.378123
O10	O	2.234417	0.878116	0.878123
O11	O	2.002746	0.329902	0.426353
O12	O	2.502746	0.829902	0.926353
O13	O	1.808030	0.426378	0.202648
O14	O	2.308030	0.926378	0.702648
O15	O	1.660817	0.202661	0.329953
O16	O	2.160817	0.702661	0.829953
O17	O	2.002642	0.426349	0.329910
O18	O	2.502642	0.926349	0.829910
O19	O	1.808272	0.202639	0.426377
O20	O	2.308272	0.702639	0.926377
O21	O	1.660679	0.329953	0.202667
O22	O	2.160679	0.829953	0.702667
O23	O	1.466158	0.329910	0.329917
O24	O	1.966158	0.829910	0.829917
O25	O	1.660734	0.426274	0.553576
O26	O	2.160734	0.926274	1.053576
O27	O	1.466122	0.426303	0.426314
O28	O	1.966122	0.926303	0.926314
O29	O	1.808224	0.329859	0.553603
O30	O	2.308224	0.829859	1.053603
O31	O	1.807982	0.553598	0.329874
O32	O	2.307982	1.053598	0.829874
O33	O	1.660596	0.553565	0.426290
O34	O	2.160596	1.053565	0.926290
C35	C	1.734301	0.582064	0.378092
C36	C	2.234301	1.082064	0.878092
C37	C	1.734361	0.669314	0.378105
C38	C	2.234361	1.169314	0.878105
C39	C	1.422592	0.378105	0.378114
C40	C	1.922592	0.878105	0.878114
C41	C	1.289192	0.378120	0.378129
C42	C	1.789192	0.878120	0.878129
C43	C	1.734489	0.378058	0.582868
C44	C	2.234489	0.878058	1.082868
C45	C	1.734520	0.378033	0.670118
C46	C	2.234520	0.878033	1.170118
C47	C	2.047459	0.378127	0.378133
C48	C	2.547459	0.878127	0.878133
C49	C	2.180859	0.378132	0.378137
C50	C	2.680859	0.878132	0.878137
C51	C	1.734566	0.173372	0.378172
C52	C	2.234566	0.673372	0.878172
C53	C	1.734629	0.086122	0.378193
C54	C	2.234629	0.586122	0.878193
C55	C	1.811184	0.710295	0.327955
C56	C	2.311184	1.210295	0.827955
C57	C	1.811242	0.792275	0.327975
C58	C	2.311242	1.292275	0.827975
C59	C	1.734472	0.833273	0.378142
C60	C	2.234472	1.333273	0.878142
C61	C	1.657646	0.792286	0.428297
C62	C	2.157646	1.292286	0.928297
C63	C	1.657594	0.710307	0.428280
C64	C	2.157594	1.210307	0.928280
C65	C	1.657757	0.963156	0.428327
C66	C	2.157757	1.463156	0.928327
C67	C	1.657807	1.045141	0.428342
C68	C	2.157807	1.545141	0.928342
C69	C	1.811405	1.045124	0.328022
C70	C	2.311405	1.545124	0.828022
C71	C	1.811353	0.963145	0.328005
C72	C	2.311353	1.463145	0.828005
C73	C	1.734526	0.922164	0.378160
C74	C	2.234526	1.422164	0.878160
C75	C	1.734414	0.378117	0.174176
C76	C	2.234414	0.878117	0.674176
C77	C	1.734615	0.377920	0.086926
C78	C	2.234615	0.877920	0.586926
C79	C	1.811321	0.327826	0.711123
C80	C	2.311321	0.827826	1.211123
C81	C	1.811336	0.327800	0.793104
C82	C	2.311336	0.827800	1.293104
C83	C	1.734554	0.377986	0.834077
C84	C	2.234554	0.877986	1.334077
C85	C	1.657745	0.428195	0.793066
C86	C	2.157745	0.928195	1.293066
C87	C	1.657725	0.428217	0.711087
C88	C	2.157725	0.928217	1.211087
C89	C	1.657793	0.428148	0.963936
C90	C	2.157793	0.928148	1.463936
C91	C	1.657814	0.428128	1.045921
C92	C	2.157814	0.928128	1.545921
C93	C	1.811404	0.327731	1.045953
C94	C	2.311404	0.827731	1.545953
C95	C	1.811384	0.327753	0.963974
C96	C	2.311384	0.827753	1.463974
C97	C	1.734576	0.377964	0.922968
C98	C	2.234576	0.877964	1.422968
H99	H	1.873694	0.676919	0.287101
H100	H	2.373694	1.176919	0.787101
O101	O	1.894283	1.089322	0.273934
O102	O	2.394283	1.589322	0.773934
H103	H	1.840627	1.126739	0.233981
H104	H	2.340627	1.626739	0.733981
O105	O	1.894136	0.273697	0.666931
O106	O	2.394136	0.773697	1.166931
H107	H	1.947535	0.238776	0.709221
H108	H	2.447535	0.738776	1.209221
H109	H	1.595224	0.469054	0.826433
H110	H	2.095224	0.969054	1.326433
O111	O	1.894093	0.836479	0.273881
O112	O	2.394093	1.336479	0.773881
H113	H	1.947454	0.794198	0.238987
H114	H	2.447454	1.294198	0.738987
H115	H	1.595229	0.469023	0.930552
H116	H	2.095229	0.969023	1.430552
H117	H	1.595200	0.929792	0.469170
H118	H	2.095200	1.429792	0.969170
H119	H	1.873878	0.286918	0.826487
H120	H	2.373878	0.786918	1.326487
O121	O	1.574992	1.089359	0.482444
O122	O	2.074992	1.589359	0.982444
H123	H	1.587922	1.153248	0.474016
H124	H	2.087922	1.653248	0.974016
H125	H	1.873860	0.929765	0.287152
H126	H	2.373860	1.429765	0.787152
H127	H	1.595143	0.825673	0.469146
H128	H	2.095143	1.325673	0.969146
O129	O	1.574723	0.666100	0.482360
O130	O	2.074723	1.166100	0.982360
H131	H	1.521336	0.708379	0.517240
H132	H	2.021336	1.208379	1.017240
H133	H	1.873913	0.286892	0.930616
H134	H	2.373913	0.786892	1.430616
O135	O	1.894240	0.273566	1.090173
O136	O	2.394240	0.773566	1.590173
H137	H	1.881345	0.281971	1.154062
H138	H	2.381345	0.781971	1.654062
O139	O	1.574991	0.482247	1.090119
O140	O	2.074991	0.982247	1.590119
H141	H	1.521563	0.517156	1.047834
H142	H	2.021563	1.017156	1.547834
H143	H	1.595174	0.469093	0.677701
H144	H	2.095174	0.969093	1.177701
