data_functionalizedCrystal
_audit_creation_method	'MofGen! by Chris Wilmer'
_symmetry_space_group_name_H-M	'P1'
_symmetry_Int_Tables_number	1
_symmetry_cell_setting	triclinic
loop_
_symmetry_equiv_pos_as_xyz
  x,y,z
_cell_length_a	6.817900
_cell_length_b	11.102244
_cell_length_c	13.561464
_cell_angle_alpha	107.717510
_cell_angle_beta	104.692446
_cell_angle_gamma	108.604870
loop_
_atom_site_label
_atom_site_type_symbol
_atom_site_fract_x
_atom_site_fract_y
_atom_site_fract_z
V1	V	-4.143452	-0.297344	-0.346241
O2	O	-4.101883	-0.110744	-0.339653
O3	O	-4.120004	-0.469331	-0.343870
O4	O	-4.134158	-0.347632	-0.497250
O5	O	-4.087632	-0.233285	-0.185211
V6	V	-4.618779	-0.268542	-0.326981
O7	O	-4.422688	-0.360523	-0.388489
O8	O	-4.789740	-0.205363	-0.284732
O9	O	-4.419020	-0.096554	-0.329352
O10	O	-4.777744	-0.455142	-0.333569
O11	O	-4.791996	-0.332600	-0.488010
O12	O	-4.404867	-0.218254	-0.175972
C13	C	-3.969810	-0.509544	-0.338407
C14	C	-4.032186	-0.650499	-0.337475
C15	C	-3.991941	-0.662894	-0.235347
C16	C	-4.050567	-0.795344	-0.234484
C17	C	-4.189673	-0.902996	-0.437887
C18	C	-4.131062	-0.770549	-0.438749
C19	C	-3.911621	-0.600743	-0.117913
C20	C	-3.970246	-0.733192	-0.117050
C21	C	-3.987863	-0.354302	-0.534057
C22	C	-4.061712	-0.396557	-0.657507
C23	C	-4.023493	-0.027536	-0.941798
C24	C	-3.954033	0.012090	-0.825816
C25	C	-3.980948	-0.090068	-0.783733
C26	C	-4.077332	-0.231859	-0.857643
C27	C	-4.146815	-0.271490	-0.973636
C28	C	-4.104270	-0.334022	-0.815572
C29	C	-4.200655	-0.475813	-0.889482
C30	C	-4.270128	-0.515436	-1.005463
C31	C	-4.243213	-0.413278	-1.047546
C32	C	-4.034787	-0.294391	-0.699579
C33	C	-4.158110	-0.538345	-0.731417
C34	C	-4.227570	-0.577971	-0.847398
C35	C	-4.232557	-0.056347	-0.334811
C36	C	-4.149421	0.084604	-0.335751
C37	C	-4.214503	-0.211585	-0.139159
C38	C	-4.119890	-0.169324	-0.015707
H39	H	-4.006536	-0.547398	-0.077307
Cl40	Cl	-3.913631	-0.116147	-0.606678
H41	H	-3.924386	-0.057796	-0.689295
H42	H	-4.163854	-0.760468	-0.521913
H43	H	-4.270182	-1.000754	-0.520341
H44	H	-3.722363	-0.533709	-0.077355
H45	H	-4.299760	-0.445534	-1.141986
H46	H	-4.180030	-0.621532	-0.697155
Cl47	Cl	-3.832746	0.190338	-0.732907
Cl48	Cl	-4.185504	-0.777143	-0.067151
Cl49	Cl	-4.391331	-0.693690	-1.098376
Cl50	Cl	-3.989683	0.100873	-0.994709
Cl51	Cl	-3.728496	-0.741889	-0.040526
Cl52	Cl	-4.348786	-0.756219	-0.940327
