data_functionalizedCrystal
_audit_creation_method	'MofGen! by Chris Wilmer'
_symmetry_space_group_name_H-M	'P1'
_symmetry_Int_Tables_number	1
_symmetry_cell_setting	triclinic
loop_
_symmetry_equiv_pos_as_xyz
  x,y,z
_cell_length_a	18.050589
_cell_length_b	14.908780
_cell_length_c	18.050583
_cell_angle_alpha	86.680327
_cell_angle_beta	90.028091
_cell_angle_gamma	86.682430
loop_
_atom_site_label
_atom_site_type_symbol
_atom_site_fract_x
_atom_site_fract_y
_atom_site_fract_z
Zn1	Zn	-0.230239	-1.379200	0.485570
Zn2	Zn	-0.354449	-1.379083	0.361384
Zn3	Zn	-0.237425	-1.228335	0.354215
Zn4	Zn	-0.361547	-1.228280	0.478356
O5	O	-0.295915	-1.303724	0.419881
O6	O	-0.240737	-1.505434	0.475116
O7	O	-0.338962	-1.359060	0.256507
O8	O	-0.132544	-1.248419	0.371658
O9	O	-0.331994	-1.505348	0.383877
O10	O	-0.127264	-1.359259	0.468164
O11	O	-0.252986	-1.248305	0.251240
O12	O	-0.259869	-1.102078	0.364663
O13	O	-0.344092	-1.248326	0.583239
O14	O	-0.351061	-1.102038	0.455869
O15	O	-0.247620	-1.359207	0.588539
O16	O	-0.459319	-1.359007	0.376882
O17	O	-0.464534	-1.248213	0.462820
C18	C	-0.307015	-1.069323	0.408705
C19	C	-0.311782	-0.969045	0.403942
C20	C	-0.225843	-0.780700	0.490143
C21	C	-0.230319	-0.686480	0.485670
C22	C	-0.325205	-0.686384	0.390519
C23	C	-0.320729	-0.780604	0.394992
C24	C	-0.271047	-0.827759	0.444807
C25	C	-0.266575	-0.921980	0.449283
C26	C	-0.361458	-0.921882	0.354129
C27	C	-0.365934	-0.827662	0.349656
C28	C	-0.488872	-1.303616	0.419864
C29	C	-0.571417	-1.303652	0.419885
C30	C	-0.773727	-1.243461	0.466604
C31	C	-0.824216	-1.221471	0.397790
C32	C	-0.722543	-1.303740	0.419899
C33	C	-0.819134	-1.325775	0.488722
C34	C	-0.868524	-1.303824	0.419918
C35	C	-0.771946	-1.281707	0.351047
C36	C	-0.766858	-1.386049	0.442027
C37	C	-0.817322	-1.364090	0.373168
C38	C	-0.638447	-1.303690	0.419888
C39	C	-0.952618	-1.303875	0.419921
C40	C	-0.102203	-1.303858	0.419916
C41	C	-0.019655	-1.303915	0.419931
C42	C	-0.295846	-1.303773	0.613589
C43	C	-0.295817	-1.303794	0.696136
C44	C	-0.284766	-0.539041	0.431095
C45	C	-0.279999	-0.639319	0.435860
C46	C	-0.295928	-1.303728	0.226929
C47	C	-0.295739	-1.303882	0.144391
C48	C	-0.243303	-1.364147	0.947847
C49	C	-0.310022	-1.386162	0.899485
C50	C	-0.295767	-1.303853	0.993259
C51	C	-0.229074	-1.281852	0.894539
C52	C	-0.295788	-1.303826	0.847273
C53	C	-0.362520	-1.325910	0.945987
C54	C	-0.281528	-1.221561	0.941044
C55	C	-0.348296	-1.243545	0.892703
C56	C	-0.295754	-1.303870	1.077358
C57	C	-0.295809	-1.303809	0.763175
H58	H	-0.193507	-0.648169	0.522586
H59	H	-0.365646	-0.647974	0.349954
C60	C	-0.843132	-1.433003	0.319764
H61	H	-0.869962	-1.477109	0.346648
H62	H	-0.874230	-1.403084	0.282501
H63	H	-0.801122	-1.461340	0.297204
C64	C	-0.326311	-1.480154	0.874642
H65	H	-0.288983	-1.522936	0.893590
H66	H	-0.373335	-1.496190	0.893029
H67	H	-0.326646	-1.479325	0.821978
H68	H	-0.406381	-0.789256	0.309096
H69	H	-0.398273	-0.960207	0.317218
C70	C	-0.747736	-1.174501	0.519874
H71	H	-0.767477	-1.116076	0.504035
H72	H	-0.764619	-1.189550	0.568608
H73	H	-0.695072	-1.175323	0.519827
C74	C	-0.211930	-0.973854	0.504075
H75	H	-0.215742	-1.036709	0.500253
H76	H	-0.162752	-0.958431	0.492556
H77	H	-0.223593	-0.958433	0.553226
C78	C	-0.171201	-0.832574	0.544939
H79	H	-0.144918	-0.791052	0.571299
H80	H	-0.197904	-0.869334	0.578992
H81	H	-0.137059	-0.869327	0.518326
H82	H	-0.418937	-1.344608	0.968465
H83	H	-0.751275	-1.263023	0.292832
C84	C	-0.408306	-1.174651	0.860297
H85	H	-0.455638	-1.190419	0.878037
H86	H	-0.398586	-1.116379	0.875183
H87	H	-0.407722	-1.174671	0.807671
H88	H	-0.198977	-1.415187	0.971967
H89	H	-0.269449	-1.152001	0.959446
C90	C	-0.858081	-1.127493	0.372508
H91	H	-0.886858	-1.131638	0.328887
H92	H	-0.888847	-1.104874	0.410676
H93	H	-0.819424	-1.087992	0.362356
H94	H	-0.741779	-1.455600	0.460758
C95	C	-0.847183	-1.350912	0.567337
H96	H	-0.832323	-1.307994	0.600448
H97	H	-0.899785	-1.351303	0.566700
H98	H	-0.826728	-1.408942	0.583370
H99	H	-0.172665	-1.263255	0.871974
