data_functionalizedCrystal
_audit_creation_method	'MofGen! by Chris Wilmer'
_symmetry_space_group_name_H-M	'P1'
_symmetry_Int_Tables_number	1
_symmetry_cell_setting	triclinic
loop_
_symmetry_equiv_pos_as_xyz
  x,y,z
_cell_length_a	9.065218
_cell_length_b	10.654550
_cell_length_c	9.130313
_cell_angle_alpha	89.999724
_cell_angle_beta	90.002678
_cell_angle_gamma	95.249592
loop_
_atom_site_label
_atom_site_type_symbol
_atom_site_fract_x
_atom_site_fract_y
_atom_site_fract_z
O1	O	0.207235	-1.668660	0.121684
O2	O	0.226979	-1.303260	0.121710
O3	O	0.002423	-1.493513	0.121693
O4	O	0.431791	-1.478407	0.121700
O5	O	0.002417	-1.493500	-0.121906
O6	O	0.226972	-1.303247	-0.121889
O7	O	0.207228	-1.668647	-0.121915
Cu8	Cu	0.217100	-1.485946	-0.144145
Cu9	Cu	0.217107	-1.485961	0.143939
O10	O	0.431784	-1.478394	-0.121899
C11	C	0.225526	-1.256450	-0.000086
C12	C	0.221188	-1.116989	-0.000076
C13	C	-0.052559	-1.492055	-0.000104
C14	C	-0.216378	-1.487714	-0.000096
C15	C	0.208681	-1.715457	-0.000116
C16	C	0.213019	-1.854918	-0.000117
C17	C	0.486766	-1.479852	-0.000098
C18	C	0.650585	-1.484193	-0.000096
N19	N	0.217093	-1.485944	-0.346767
C20	C	0.353403	-1.038027	-0.000078
C21	C	0.349319	-0.906990	-0.000104
C22	C	0.080794	-0.933890	-0.000119
C23	C	0.084879	-1.064924	-0.000104
C24	C	0.117702	-1.570217	-0.423427
C25	C	0.117703	-1.570229	-0.576763
C26	C	0.316498	-1.401691	-0.576768
C27	C	0.316489	-1.401674	-0.423434
N28	N	0.217102	-1.485973	0.346562
H29	H	0.464395	-1.080414	-0.000066
O30	O	0.477712	-0.830234	-0.000355
C31	C	0.628911	-0.666640	-0.126513
C32	C	0.483462	-0.753514	-0.126427
H33	H	0.633593	-0.604571	-0.228415
H34	H	0.727088	-0.726302	-0.126583
H35	H	0.633684	-0.604669	-0.024528
H36	H	0.478544	-0.815501	-0.228394
H37	H	0.385353	-0.693778	-0.126280
H38	H	-0.030185	-0.891482	-0.000151
H39	H	-0.022793	-1.129219	-0.000106
H40	H	0.036768	-1.638850	-0.639175
O41	O	0.021002	-1.652111	-0.349178
C42	C	-0.176123	-1.819322	-0.365365
C43	C	-0.066707	-1.726626	-0.449627
H44	H	-0.247043	-1.879610	-0.446540
H45	H	-0.250532	-1.764321	-0.293635
H46	H	-0.111713	-1.882722	-0.293520
H47	H	-0.130997	-1.663204	-0.521550
H48	H	0.007701	-1.781706	-0.521264
O49	O	0.412901	-1.319666	-0.651184
C50	C	0.497021	-1.102272	-0.698068
C51	C	0.387735	-1.195024	-0.613730
H52	H	0.476733	-1.001479	-0.667794
H53	H	0.479955	-1.116653	-0.820845
H54	H	0.615367	-1.120031	-0.667922
H55	H	0.269346	-1.177321	-0.643752
H56	H	0.404930	-1.180621	-0.490973
H57	H	0.397426	-1.333043	-0.361014
