data_functionalizedCrystal
_audit_creation_method	'MofGen! by Chris Wilmer'
_symmetry_space_group_name_H-M	'P1'
_symmetry_Int_Tables_number	1
_symmetry_cell_setting	triclinic
loop_
_symmetry_equiv_pos_as_xyz
  x,y,z
_cell_length_a	14.519709
_cell_length_b	15.995350
_cell_length_c	12.996460
_cell_angle_alpha	89.996086
_cell_angle_beta	90.000034
_cell_angle_gamma	83.586260
loop_
_atom_site_label
_atom_site_type_symbol
_atom_site_fract_x
_atom_site_fract_y
_atom_site_fract_z
O1	O	1.223669	0.109760	-0.085428
O2	O	0.955169	0.122686	-0.085458
O3	O	1.096759	-0.005654	-0.085441
O4	O	1.082080	0.238099	-0.085445
O5	O	1.096744	-0.005661	0.085693
O6	O	0.955154	0.122678	0.085675
O7	O	1.223655	0.109753	0.085706
Cu8	Cu	1.089403	0.116215	0.101317
Cu9	Cu	1.089421	0.116224	-0.101069
O10	O	1.082065	0.238092	0.085689
C11	C	0.920803	0.122080	0.000104
C12	C	0.818425	0.120275	0.000092
C13	C	0.443541	0.113629	0.000139
C14	C	0.547846	0.115475	0.000126
C15	C	0.630980	0.116952	0.000115
C16	C	0.735291	0.118797	0.000104
C17	C	1.096145	-0.036853	0.000124
C18	C	1.094325	-0.129806	0.000118
C19	C	1.087791	-0.467563	0.000120
C20	C	0.986954	-0.420280	-0.000275
C21	C	0.988773	-0.323587	0.000111
C22	C	1.091032	-0.299998	0.000118
C23	C	1.140761	-0.341005	0.097848
C24	C	1.138227	-0.437645	0.097930
C25	C	1.140327	-0.437992	-0.096681
C26	C	1.140303	-0.341046	-0.097973
C27	C	1.092869	-0.205298	0.000121
C28	C	1.085957	-0.562264	0.000125
C29	C	1.258021	0.110359	0.000141
C30	C	1.360399	0.112164	0.000146
C31	C	1.082679	0.269292	0.000122
C32	C	1.084498	0.362245	0.000121
N33	N	1.089398	0.116209	0.243664
N34	N	1.089433	0.116223	-0.243416
C35	C	1.089419	0.116224	0.663478
C36	C	1.089411	0.116223	0.546673
C37	C	1.089409	0.116217	0.453575
C38	C	1.089399	0.116214	0.336762
H39	H	0.949683	-0.295221	-0.069946
H40	H	1.212261	-0.469782	0.102369
N41	N	1.240286	-0.322179	0.102659
H42	H	1.254127	-0.286798	0.041389
H43	H	1.250546	-0.290518	0.168148
H44	H	1.214875	-0.325572	-0.103868
H45	H	0.946656	-0.438869	-0.070359
N46	N	1.238809	-0.479909	-0.097552
H47	H	1.249383	-0.517873	-0.035581
H48	H	1.249829	-0.514333	-0.162424
H49	H	1.101953	-0.456003	0.170979
N50	N	1.095013	-0.303478	0.194182
H51	H	1.042084	-0.259926	0.174741
H52	H	1.070529	-0.349378	0.236070
H53	H	1.107365	-0.458578	-0.170754
N54	N	0.933787	-0.446305	0.092029
H55	H	0.930160	-0.508965	0.089624
H56	H	0.966527	-0.431691	0.157070
N57	N	0.936637	-0.286750	0.093056
H58	H	0.912387	-0.333334	0.133940
H59	H	0.979675	-0.256839	0.137510
H60	H	1.103946	-0.313849	-0.170271
