data_functionalizedCrystal
_audit_creation_method	'MofGen! by Chris Wilmer'
_symmetry_space_group_name_H-M	'P1'
_symmetry_Int_Tables_number	1
_symmetry_cell_setting	triclinic
loop_
_symmetry_equiv_pos_as_xyz
  x,y,z
_cell_length_a	14.044220
_cell_length_b	14.044220
_cell_length_c	12.503572
_cell_angle_alpha	93.847060
_cell_angle_beta	86.157348
_cell_angle_gamma	93.188877
loop_
_atom_site_label
_atom_site_type_symbol
_atom_site_fract_x
_atom_site_fract_y
_atom_site_fract_z
O1	O	1.272114	0.235217	0.089315
O2	O	1.605448	0.568550	0.422648
O3	O	1.938781	0.901883	0.755981
O4	O	0.995443	0.226911	0.089318
O5	O	1.328776	0.560244	0.422651
O6	O	1.662109	0.893578	0.755984
O7	O	1.129626	0.092728	0.089311
O8	O	1.462959	0.426061	0.422645
O9	O	1.796293	0.759394	0.755978
O10	O	1.137931	0.369400	0.089321
O11	O	1.471264	0.702733	0.422654
O12	O	1.804598	1.036067	0.755987
O13	O	1.139721	0.082623	-0.089331
O14	O	1.473054	0.415957	0.244002
O15	O	1.806388	0.749290	0.577336
O16	O	1.005538	0.216807	-0.089325
O17	O	1.338871	0.550140	0.244008
O18	O	1.672204	0.883473	0.577342
O19	O	1.282209	0.225112	-0.089328
O20	O	1.615543	0.558445	0.244006
O21	O	1.948876	0.891779	0.577339
Cu22	Cu	1.144795	0.220037	-0.105638
Cu23	Cu	1.478129	0.553370	0.227696
Cu24	Cu	1.811462	0.886703	0.561029
Cu25	Cu	1.132857	0.231986	0.105628
Cu26	Cu	1.466190	0.565320	0.438961
Cu27	Cu	1.799523	0.898653	0.772294
O28	O	1.148026	0.359295	-0.089322
O29	O	1.481359	0.692629	0.244012
O30	O	1.814693	1.025962	0.577345
C31	C	0.964868	0.218223	-0.000003
C32	C	1.298202	0.551557	0.333330
C33	C	1.631535	0.884890	0.666663
C34	C	0.858726	0.207379	-0.000002
C35	C	1.192059	0.540712	0.333331
C36	C	1.525392	0.874045	0.666664
C37	C	1.131038	0.052054	-0.000009
C38	C	1.464371	0.385387	0.333325
C39	C	1.797704	0.718720	0.666658
C40	C	1.120193	-0.054089	-0.000005
C41	C	1.453526	0.279245	0.333328
C42	C	1.786860	0.612578	0.666661
N43	N	1.153199	0.211632	-0.254230
N44	N	1.486532	0.544965	0.079103
N45	N	1.819866	0.878299	0.412436
C46	C	1.312784	0.233800	-0.000005
C47	C	1.646117	0.567133	0.333329
C48	C	1.979450	0.900467	0.666662
C49	C	1.418926	0.244645	0.000001
C50	C	1.752259	0.577978	0.333335
C51	C	2.085593	0.911312	0.666668
C52	C	1.613264	0.264471	0.000001
C53	C	1.946597	0.597805	0.333334
C54	C	2.279930	0.931138	0.666668
C55	C	1.664394	0.187557	-0.000002
C56	C	1.997727	0.520890	0.333331
C57	C	2.331060	0.854223	0.666665
C58	C	1.772530	0.198588	-0.000002
C59	C	2.105863	0.531922	0.333331
C60	C	2.439197	0.865255	0.666665
C61	C	1.505118	0.253441	0.000001
C62	C	1.838451	0.586774	0.333335
C63	C	2.171784	0.920108	0.666668
C64	C	1.146614	0.399969	0.000001
C65	C	1.479947	0.733303	0.333334
C66	C	1.813281	1.066636	0.666668
C67	C	1.157459	0.506112	0.000005
C68	C	1.490792	0.839446	0.333338
C69	C	1.824125	1.172779	0.666671
C70	C	1.177285	0.700450	-0.000000
C71	C	1.510618	1.033783	0.333333
C72	C	1.843952	1.367117	0.666666
C73	C	1.100371	0.751580	-0.000000
C74	C	1.433704	1.084913	0.333333
C75	C	1.767037	1.418246	0.666666
C76	C	1.111402	0.859716	-0.000003
C77	C	1.444736	1.193049	0.333330
C78	C	1.778069	1.526382	0.666663
C79	C	1.166255	0.592304	0.000002
C80	C	1.499588	0.925637	0.333336
C81	C	1.832921	1.258971	0.666669
N82	N	1.124460	0.240384	0.254220
N83	N	1.457793	0.573718	0.587554
N84	N	1.791126	0.907051	0.920887
C85	C	1.112100	0.252737	0.473336
C86	C	1.445433	0.586071	0.806669
C87	C	1.778766	0.919404	1.140003
C88	C	1.165556	0.199282	0.526661
C89	C	1.498890	0.532615	0.859994
C90	C	1.832223	0.865948	1.193327
C91	C	1.158679	0.206155	0.648584
C92	C	1.492012	0.539488	0.981918
C93	C	1.825346	0.872822	1.315251
C94	C	1.118976	0.245865	0.351401
C95	C	1.452309	0.579198	0.684735
C96	C	1.785643	0.912532	1.018068
H97	H	1.626950	0.113428	0.000074
H98	H	1.960284	0.446761	0.333407
H99	H	2.293617	0.780094	0.666740
H100	H	1.650700	0.338599	0.000005
H101	H	1.984034	0.671932	0.333338
H102	H	2.317367	1.005266	0.666671
F103	F	1.003472	0.702647	-0.000006
F104	F	1.336806	1.035980	0.333328
F105	F	1.670139	1.369313	0.666661
F106	F	1.274177	0.749382	-0.000005
F107	F	1.607510	1.082716	0.333328
F108	F	1.940844	1.416049	0.666661
H109	H	1.216486	0.148354	0.480745
H110	H	1.549820	0.481688	0.814079
H111	H	1.883153	0.815021	1.147412
F112	F	1.045531	0.319297	0.533345
F113	F	1.378864	0.652630	0.866678
F114	F	1.712198	0.985964	1.200011
