data_functionalizedCrystal
_audit_creation_method	'MofGen! by Chris Wilmer'
_symmetry_space_group_name_H-M	'P1'
_symmetry_Int_Tables_number	1
_symmetry_cell_setting	triclinic
loop_
_symmetry_equiv_pos_as_xyz
  x,y,z
_cell_length_a	21.395364
_cell_length_b	10.686203
_cell_length_c	21.395355
_cell_angle_alpha	94.377563
_cell_angle_beta	89.975448
_cell_angle_gamma	94.350754
loop_
_atom_site_label
_atom_site_type_symbol
_atom_site_fract_x
_atom_site_fract_y
_atom_site_fract_z
Zn1	Zn	0.977070	0.501971	-0.335213
Zn2	Zn	0.985046	0.712941	-0.222430
Zn3	Zn	0.872287	0.502027	-0.230448
Zn4	Zn	0.880328	0.712963	-0.327170
O5	O	0.928683	0.607476	-0.278815
O6	O	1.065804	0.529924	-0.320263
O7	O	0.970061	0.684976	-0.135816
O8	O	0.879483	0.325450	-0.251067
O9	O	1.071664	0.684923	-0.237402
O10	O	0.956466	0.325410	-0.328038
O11	O	0.887217	0.530019	-0.141706
O12	O	0.785677	0.530041	-0.243267
O13	O	0.893189	0.684961	-0.415915
O14	O	0.791585	0.685015	-0.314328
O15	O	0.964264	0.529946	-0.421825
O16	O	0.977858	0.889513	-0.229603
O17	O	0.900923	0.889529	-0.306554
C18	C	0.765897	0.607537	-0.278795
C19	C	0.696258	0.607594	-0.278801
C20	C	0.660521	0.527018	-0.322003
C21	C	0.595084	0.526985	-0.322007
C22	C	0.565388	0.607549	-0.278814
C23	C	0.601133	0.688130	-0.235603
C24	C	0.666568	0.688152	-0.235596
C25	C	0.466012	0.721179	-0.269464
C26	C	0.400579	0.721159	-0.269475
C27	C	0.363565	0.607480	-0.278830
C28	C	0.391993	0.493817	-0.288188
C29	C	0.457428	0.493839	-0.288181
C30	C	0.494435	0.607533	-0.278816
C31	C	0.256874	0.526861	-0.322039
C32	C	0.191436	0.526825	-0.322039
C33	C	0.197486	0.687982	-0.235638
C34	C	0.262922	0.688006	-0.235635
C35	C	0.292612	0.607448	-0.278840
C36	C	0.941146	0.935304	-0.266349
C37	C	0.946535	1.075550	-0.261037
C38	C	1.092104	0.607415	-0.278836
C39	C	1.161744	0.607389	-0.278844
C40	C	0.928734	0.607450	-0.442240
C41	C	0.928755	0.607439	-0.511881
C42	C	0.916182	1.278368	-0.291351
C43	C	0.910839	1.138121	-0.296709
C44	C	0.965762	0.526720	-0.547673
C45	C	0.965760	0.526665	-0.613110
C46	C	0.928757	0.607353	-0.642753
C47	C	0.891742	0.688078	-0.606954
C48	C	0.891741	0.688121	-0.541518
C49	C	0.928129	0.720967	-0.742107
C50	C	0.928134	0.720926	-0.807542
C51	C	0.928756	0.607220	-0.844579
C52	C	0.929385	0.493551	-0.816174
C53	C	0.929384	0.493594	-0.750738
C54	C	0.928753	0.607315	-0.713707
C55	C	0.965762	0.526435	-0.951325
C56	C	0.965754	0.526378	-1.016764
C57	C	0.891741	0.687803	-1.010606
C58	C	0.891744	0.687848	-0.945169
C59	C	0.928758	0.607165	-0.915532
C60	C	0.928664	0.607410	-0.116030
C61	C	0.928750	0.607065	-0.046403
H62	H	0.565982	0.461364	-0.357187
F63	F	0.852359	0.773948	-0.638502
F64	F	0.865505	1.067905	-0.341942
F65	F	0.991865	1.145771	-0.215795
F66	F	1.005153	0.440845	-0.516136
H67	H	0.162339	0.461204	-0.357219
F68	F	0.505400	0.842179	-0.259500
H69	H	0.995888	0.460639	-1.045905
F70	F	0.930049	0.372527	-0.855586
H71	H	0.292020	0.753625	-0.200457
H72	H	0.995894	0.460927	-0.642258
H73	H	0.929895	0.401041	-0.727613
H74	H	0.861603	0.753851	-0.512376
F75	F	1.005152	0.440562	-0.919782
H76	H	0.684690	0.461420	-0.357183
H77	H	0.861606	0.753487	-1.034741
F78	F	0.852358	0.773766	-0.907075
F79	F	0.927470	0.841902	-0.837767
H80	H	0.927454	0.813537	-0.711958
H81	H	0.480571	0.401291	-0.295799
F82	F	0.288474	0.441117	-0.368017
F83	F	0.352605	0.372821	-0.298145
F84	F	0.704604	0.773913	-0.189611
H85	H	0.377438	0.813710	-0.261859
F86	F	0.165885	0.773718	-0.189664
H87	H	0.576950	0.753725	-0.200434
