data_functionalizedCrystal
_audit_creation_method	'MofGen! by Chris Wilmer'
_symmetry_space_group_name_H-M	'P1'
_symmetry_Int_Tables_number	1
_symmetry_cell_setting	triclinic
loop_
_symmetry_equiv_pos_as_xyz
  x,y,z
_cell_length_a	11.792241
_cell_length_b	14.472311
_cell_length_c	11.792241
_cell_angle_alpha	89.990191
_cell_angle_beta	95.806584
_cell_angle_gamma	89.999892
loop_
_atom_site_label
_atom_site_type_symbol
_atom_site_fract_x
_atom_site_fract_y
_atom_site_fract_z
O1	O	1.506907	0.076752	-0.155576
O2	O	1.176566	0.076773	-0.171609
O3	O	1.349753	0.076755	0.001578
O4	O	1.333720	0.076769	-0.328763
O5	O	1.349741	-0.076927	0.001600
O6	O	1.176554	-0.076909	-0.171587
O7	O	1.506895	-0.076930	-0.155554
Cu8	Cu	1.341724	-0.090952	-0.163569
Cu9	Cu	1.341738	0.090795	-0.163595
O10	O	1.333708	-0.076913	-0.328741
C11	C	1.134269	-0.000065	-0.170591
C12	C	1.008255	-0.000057	-0.167576
N13	N	1.341722	-0.218783	-0.163550
C14	C	0.777543	-0.000084	-0.162034
C15	C	0.905928	-0.000069	-0.165113
C16	C	1.341739	-0.592874	-0.163586
C17	C	1.434712	-0.553689	-0.071231
C18	C	1.434466	-0.446601	-0.070887
C19	C	1.341731	-0.407283	-0.163568
C20	C	1.223154	-0.446167	-0.136974
C21	C	1.223704	-0.553289	-0.136320
C22	C	1.366277	-0.553376	-0.282803
C23	C	1.368961	-0.446248	-0.282022
C24	C	1.341720	-0.302395	-0.163560
C25	C	1.341743	-0.697762	-0.163592
C26	C	1.549192	-0.000090	-0.156572
C27	C	1.675206	-0.000092	-0.159587
C28	C	1.348740	-0.000085	0.043880
C29	C	1.345726	-0.000084	0.169894
N30	N	1.341749	0.218626	-0.163604
C31	C	1.334721	-0.000070	-0.371043
C32	C	1.337736	-0.000065	-0.497057
C33	C	1.340183	-0.000068	0.400606
C34	C	1.343262	-0.000077	0.272221
H35	H	1.522586	-0.420311	-0.086830
O36	O	1.285135	-0.410820	-0.377405
H37	H	1.222474	-0.364685	-0.341712
H38	H	1.152272	-0.420700	-0.202420
O39	O	1.551835	-0.587802	-0.092011
H40	H	1.545038	-0.633056	-0.168381
H41	H	1.201129	-0.419350	-0.050994
O42	O	1.414150	-0.589350	0.045283
H43	H	1.337997	-0.634859	0.037701
O44	O	1.413583	-0.412658	0.046276
H45	H	1.403609	-0.472756	0.102908
H46	H	1.298488	-0.578721	-0.351541
H47	H	1.202188	-0.578286	-0.049354
O48	O	1.129234	-0.587638	-0.221947
H49	H	1.083356	-0.527735	-0.263635
O50	O	1.478427	-0.589140	-0.316413
H51	H	1.475446	-0.665697	-0.321489
H52	H	1.456194	-0.420834	-0.302185
