data_functionalizedCrystal
_audit_creation_method	'MofGen! by Chris Wilmer'
_symmetry_space_group_name_H-M	'P1'
_symmetry_Int_Tables_number	1
_symmetry_cell_setting	triclinic
loop_
_symmetry_equiv_pos_as_xyz
  x,y,z
_cell_length_a	17.699083
_cell_length_b	15.625429
_cell_length_c	16.176319
_cell_angle_alpha	71.916053
_cell_angle_beta	89.998611
_cell_angle_gamma	83.783281
loop_
_atom_site_label
_atom_site_type_symbol
_atom_site_fract_x
_atom_site_fract_y
_atom_site_fract_z
O1	O	1.004375	0.114008	-0.102802
O2	O	0.784035	0.128841	-0.107275
O3	O	0.900090	-0.009827	-0.065693
O4	O	0.888320	0.252676	-0.144385
O5	O	0.900074	-0.009836	0.071803
O6	O	0.784019	0.128832	0.030221
O7	O	1.004359	0.113999	0.034694
Cu8	Cu	0.894188	0.121415	0.045012
Cu9	Cu	0.894207	0.121425	-0.117593
O10	O	0.888304	0.252667	-0.006889
C11	C	0.755829	0.128305	-0.038371
C12	C	0.671807	0.126710	-0.037904
C13	C	0.899549	-0.043418	0.013122
C14	C	0.897950	-0.143496	0.043117
C15	C	0.623397	0.208105	-0.062304
C16	C	0.544450	0.206602	-0.061842
C17	C	0.513914	0.123702	-0.036986
C18	C	0.562329	0.042301	-0.012582
C19	C	0.641275	0.043806	-0.013038
C20	C	0.243951	0.036232	-0.010742
C21	C	0.164999	0.034734	-0.010291
C22	C	0.147126	0.199028	-0.059547
C23	C	0.226071	0.200533	-0.060003
C24	C	0.274480	0.119132	-0.035594
C25	C	0.360083	0.120763	-0.036093
C26	C	0.428312	0.122070	-0.036493
C27	C	0.892714	-0.472616	-0.232948
C28	C	0.891208	-0.566653	-0.204737
C29	C	0.891191	-0.566649	-0.054849
C30	C	0.892700	-0.472610	-0.083047
C31	C	0.893461	-0.425601	-0.172097
C32	C	0.893447	-0.425595	-0.022196
C33	C	0.894953	-0.331564	-0.050392
C34	C	0.895711	-0.284547	-0.139439
C35	C	0.894966	-0.331569	-0.200293
C36	C	0.892681	-0.472606	0.066854
C37	C	0.893428	-0.425591	0.127704
C38	C	0.894939	-0.331558	0.099509
C39	C	0.895698	-0.284542	0.010462
C40	C	0.895684	-0.284536	0.160363
C41	C	0.897189	-0.190505	0.132167
C42	C	0.897203	-0.190510	-0.017734
C43	C	1.032566	0.114535	-0.034212
C44	C	1.116588	0.116130	-0.034685
C45	C	0.888846	0.286258	-0.085705
C46	C	0.890445	0.386336	-0.115706
N47	N	0.894180	0.121407	0.159379
N48	N	0.894221	0.121426	-0.231959
C49	C	0.945585	0.060030	0.221049
C50	C	0.945589	0.060029	0.307596
C51	C	0.894191	0.121410	0.332471
C52	C	0.842781	0.182790	0.270794
C53	C	0.842774	0.182786	0.184250
C54	C	0.842807	0.182807	0.619818
C55	C	0.842819	0.182808	0.706369
C56	C	0.945621	0.060050	0.743163
C57	C	0.945614	0.060046	0.656619
C58	C	0.894202	0.121422	0.594951
C59	C	0.894198	0.121421	0.501107
C60	C	0.894198	0.121416	0.426312
H61	H	0.648253	0.275612	-0.082545
O62	O	0.291042	-0.042780	0.012830
C63	C	0.337226	-0.046835	-0.057177
H64	H	0.341300	0.024716	-0.102364
H65	H	0.396522	-0.080557	-0.031057
H66	H	0.311205	-0.087942	-0.094717
O67	O	0.995525	0.000295	0.803020
C68	C	0.983117	-0.088932	0.808642
H69	H	0.953942	-0.088776	0.745759
H70	H	1.039960	-0.133417	0.819014
H71	H	0.945419	-0.116756	0.865696
O72	O	0.792880	0.242537	0.294825
C73	C	0.805279	0.331765	0.246931
H74	H	0.834449	0.331608	0.184138
H75	H	0.748434	0.376244	0.230635
H76	H	0.842980	0.359596	0.287290
O77	O	0.100023	0.278045	-0.083342
C78	C	0.053832	0.282103	-0.155774
H79	H	0.049762	0.210554	-0.158060
H80	H	-0.005464	0.315817	-0.149862
H81	H	0.079845	0.323221	-0.217969
O82	O	0.995605	0.000384	0.367380
C83	C	1.040962	-0.053800	0.326869
H84	H	1.041838	-0.016841	0.254092
H85	H	1.101393	-0.067625	0.356009
H86	H	1.016334	-0.120746	0.337747
O87	O	0.497534	0.285752	-0.085607
C88	C	0.541415	0.359243	-0.107627
H89	H	0.600308	0.336231	-0.126766
H90	H	0.512350	0.416265	-0.164639
H91	H	0.547068	0.384661	-0.049287
O92	O	0.792945	0.242447	0.124239
C93	C	0.833526	0.298019	0.057520
H94	H	0.892711	0.262025	0.055342
H95	H	0.801946	0.312323	-0.007624
H96	H	0.838737	0.364645	0.070892
H97	H	0.896929	-0.207980	-0.162395
O98	O	0.255608	0.281140	-0.084134
C99	C	0.195950	0.352661	-0.105591
H100	H	0.142295	0.327506	-0.072018
H101	H	0.212511	0.410546	-0.083025
H102	H	0.184805	0.377767	-0.179079
H103	H	0.537461	-0.025197	0.007668
H104	H	0.890569	-0.604937	0.017656
O105	O	0.792842	0.242517	0.560022
C106	C	0.747471	0.296679	0.600544
H107	H	0.778511	0.297651	0.661938
H108	H	0.735994	0.368694	0.553945
H109	H	0.691221	0.267489	0.618513
H110	H	0.891448	-0.549171	0.089808
O111	O	0.135460	-0.045879	0.013921
C112	C	0.195115	-0.117404	0.035349
H113	H	0.248771	-0.092253	0.053836
H114	H	0.178552	-0.175289	0.092625
H115	H	0.206259	-0.142506	-0.023086
H116	H	0.892806	-0.463878	0.200209
H117	H	0.680690	-0.022475	0.006831
H118	H	0.893340	-0.434339	-0.305461
H119	H	0.897829	-0.152234	-0.090247
H120	H	0.895592	-0.293292	-0.272806
H121	H	0.987442	0.010050	0.200802
O122	O	0.890354	-0.612223	-0.263926
C123	C	0.825202	-0.578898	-0.319479
H124	H	0.804486	-0.507159	-0.319690
H125	H	0.839956	-0.578039	-0.388312
H126	H	0.778482	-0.624545	-0.295359
O127	O	0.894840	-0.330290	0.246834
C128	C	0.828459	-0.374301	0.264518
H129	H	0.806402	-0.384931	0.202629
H130	H	0.842123	-0.442754	0.316764
H131	H	0.783174	-0.330806	0.288461
H132	H	0.897782	-0.152222	0.181717
O133	O	0.995381	0.000251	0.632485
C134	C	0.954684	-0.055308	0.599205
H135	H	0.895553	-0.019191	0.575352
H136	H	0.986246	-0.069831	0.542722
H137	H	0.949343	-0.121827	0.652626
O138	O	0.792852	0.242308	0.730663
C139	C	0.746114	0.194087	0.795178
H140	H	0.776195	0.123499	0.829303
H141	H	0.734186	0.231733	0.844751
H142	H	0.690170	0.188037	0.763650
