data_functionalizedCrystal
_audit_creation_method	'MofGen! by Chris Wilmer'
_symmetry_space_group_name_H-M	'P1'
_symmetry_Int_Tables_number	1
_symmetry_cell_setting	triclinic
loop_
_symmetry_equiv_pos_as_xyz
  x,y,z
_cell_length_a	16.120530
_cell_length_b	29.839125
_cell_length_c	16.120484
_cell_angle_alpha	87.117439
_cell_angle_beta	89.832673
_cell_angle_gamma	87.091446
loop_
_atom_site_label
_atom_site_type_symbol
_atom_site_fract_x
_atom_site_fract_y
_atom_site_fract_z
Zn1	Zn	1.254394	-0.299056	0.395737
Zn2	Zn	1.754394	0.200944	0.895737
Zn3	Zn	1.247256	-0.227530	0.534766
Zn4	Zn	1.747256	0.272470	1.034766
Zn5	Zn	1.115354	-0.219950	0.388670
Zn6	Zn	1.615354	0.280050	0.888670
Zn7	Zn	1.108246	-0.298644	0.527690
Zn8	Zn	1.608246	0.201356	1.027690
O9	O	1.181313	-0.261295	0.461716
O10	O	1.681313	0.238705	0.961716
O11	O	1.369812	-0.292912	0.420099
O12	O	1.869812	0.207088	0.920099
O13	O	1.229747	-0.163657	0.515389
O14	O	1.729747	0.336343	1.015389
O15	O	1.139760	-0.227444	0.273243
O16	O	1.639760	0.272556	0.773243
O17	O	1.364568	-0.240362	0.522242
O18	O	1.864568	0.259638	1.022242
O19	O	1.241912	-0.285562	0.278435
O20	O	1.741912	0.214438	0.778435
O21	O	1.132839	-0.158088	0.408053
O22	O	1.632839	0.341912	0.908053
O23	O	0.998047	-0.227045	0.401192
O24	O	1.498047	0.272955	0.901192
O25	O	1.127645	-0.361566	0.510183
O26	O	1.627645	0.138434	1.010183
O27	O	0.992824	-0.284861	0.503330
O28	O	1.492824	0.215139	1.003330
O29	O	1.235019	-0.361868	0.413238
O30	O	1.735019	0.138132	0.913238
O31	O	1.222854	-0.239964	0.650192
O32	O	1.722854	0.260036	1.150192
O33	O	1.120724	-0.292211	0.644993
O34	O	1.620724	0.207789	1.144993
C35	C	0.965264	-0.255086	0.450727
C36	C	1.465264	0.244914	0.950727
C37	C	0.872836	-0.252441	0.446046
C38	C	1.372836	0.247559	0.946046
C39	C	1.181335	-0.378474	0.461710
C40	C	1.681335	0.121526	0.961710
C41	C	1.181345	-0.428409	0.461707
C42	C	1.681345	0.071591	0.961707
C43	C	0.703610	-0.247616	0.437480
C44	C	1.203610	0.252384	0.937480
C45	C	0.659853	-0.275009	0.486013
C46	C	1.159853	0.224991	0.986013
C47	C	0.565690	-0.272324	0.481247
C48	C	1.065690	0.227676	0.981247
C49	C	0.797782	-0.250300	0.442245
C50	C	1.297782	0.249700	0.942245
C51	C	1.237318	-0.738210	0.411091
C52	C	1.737318	-0.238210	0.911091
C53	C	1.237363	-0.925883	0.411022
C54	C	1.737363	-0.425883	0.911022
O55	O	1.284887	-0.950283	0.368062
O56	O	1.784887	-0.450283	0.868062
N57	N	1.181467	-0.949191	0.461490
N58	N	1.681467	-0.449191	0.961490
C59	C	1.125552	-0.925579	0.511974
C60	C	1.625552	-0.425579	1.011974
O61	O	1.078004	-0.949710	0.554892
O62	O	1.578004	-0.449710	1.054892
C63	C	1.125504	-0.737907	0.512038
C64	C	1.625504	-0.237907	1.012038
C65	C	1.181409	-0.714601	0.461573
C66	C	1.681409	-0.214601	0.961573
C67	C	1.293218	-0.714905	0.360630
C68	C	1.793218	-0.214905	0.860630
C69	C	1.293209	-0.667989	0.360651
C70	C	1.793209	-0.167989	0.860651
C71	C	1.237300	-0.644380	0.411133
C72	C	1.737300	-0.144380	0.911133
C73	C	1.181400	-0.667686	0.461594
C74	C	1.681400	-0.167686	0.961594
C75	C	1.069586	-0.714295	0.562517
C76	C	1.569586	-0.214295	1.062517
C77	C	1.069577	-0.667374	0.562527
C78	C	1.569577	-0.167374	1.062527
C79	C	1.125482	-0.644068	0.512062
C80	C	1.625482	-0.144068	1.012062
C81	C	1.125483	-0.597161	0.512098
C82	C	1.625483	-0.097161	1.012098
N83	N	1.181379	-0.573853	0.461630
N84	N	1.681379	-0.073853	0.961630
C85	C	1.237288	-0.597462	0.411148
C86	C	1.737288	-0.097462	0.911148
C87	C	1.125582	-1.024109	0.511938
C88	C	1.625582	-0.524109	1.011938
C89	C	1.125595	-1.071027	0.511924
C90	C	1.625595	-0.571027	1.011924
C91	C	1.237405	-1.071328	0.410970
C92	C	1.737405	-0.571328	0.910970
C93	C	1.237396	-1.024409	0.410990
C94	C	1.737396	-0.524409	0.910990
C95	C	1.181478	-1.000801	0.461471
C96	C	1.681478	-0.500801	0.961471
C97	C	1.237266	-0.498937	0.411197
C98	C	1.737266	0.001063	0.911197
C99	C	1.237254	-0.452018	0.411225
C100	C	1.737254	0.047982	0.911225
C101	C	1.125442	-0.451721	0.512174
C102	C	1.625442	0.048279	1.012174
C103	C	1.125455	-0.498636	0.512150
C104	C	1.625455	0.001364	1.012150
C105	C	1.181371	-0.522243	0.461654
C106	C	1.681371	-0.022243	0.961654
O107	O	1.077977	-0.572733	0.555028
O108	O	1.577977	-0.072733	1.055028
O109	O	1.284816	-0.573322	0.368223
O110	O	1.784816	-0.073322	0.868223
C111	C	1.237327	-0.785126	0.411070
C112	C	1.737327	-0.285126	0.911070
C113	C	1.181427	-0.808431	0.461531
C114	C	1.681427	-0.308431	0.961531
C115	C	1.125518	-0.784822	0.512013
C116	C	1.625518	-0.284822	1.012013
C117	C	1.181439	-0.855349	0.461516
C118	C	1.681439	-0.355349	0.961516
C119	C	1.237348	-0.878958	0.411034
C120	C	1.737348	-0.378958	0.911034
C121	C	1.293244	-0.855650	0.360567
C122	C	1.793244	-0.355650	0.860567
C123	C	1.293236	-0.808735	0.360588
C124	C	1.793236	-0.308735	0.860588
C125	C	1.069622	-0.808130	0.562481
C126	C	1.569622	-0.308130	1.062481
C127	C	1.069636	-0.855046	0.562456
C128	C	1.569636	-0.355046	1.062456
C129	C	1.125544	-0.878655	0.511974
C130	C	1.625544	-0.378655	1.011974
C131	C	1.398205	-0.267528	0.472748
C132	C	1.898205	0.232472	0.972748
C133	C	1.490632	-0.270185	0.477450
C134	C	1.990632	0.229815	0.977450
C135	C	1.170266	-0.266876	0.677766
C136	C	1.670266	0.233124	1.177766
C137	C	1.165616	-0.269281	0.770197
C138	C	1.665616	0.230719	1.270197
C139	C	1.181341	-0.144572	0.461665
C140	C	1.681341	0.355428	0.961665
C141	C	1.181504	-0.094636	0.461441
C142	C	1.681504	0.405364	0.961441
C143	C	1.192425	-0.255703	0.244824
C144	C	1.692425	0.244297	0.744824
C145	C	1.197161	-0.253320	0.152397
C146	C	1.697161	0.246680	0.652397
C147	C	1.157131	-0.273680	0.939430
C148	C	1.657131	0.226320	1.439430
C149	C	1.205643	-0.248922	0.983169
C150	C	1.705643	0.251078	1.483169
C151	C	1.200922	-0.251370	1.077336
C152	C	1.700922	0.248630	1.577336
C153	C	1.161851	-0.271233	0.845254
C154	C	1.661851	0.228767	1.345254
H155	H	0.693109	-0.300478	0.531141
H156	H	1.193109	0.199522	1.031141
H157	H	1.250720	-0.225887	0.949894
H158	H	1.750720	0.274113	1.449894
H159	H	1.282917	-1.005437	0.369896
H160	H	1.782917	-0.505437	0.869896
H161	H	0.670355	-0.222149	0.392355
H162	H	1.170355	0.277851	0.892355
Cl163	Cl	1.307542	-0.422722	0.347780
Cl164	Cl	1.807542	0.077278	0.847780
Cl165	Cl	1.055323	-1.100320	0.575381
Cl166	Cl	1.555323	-0.600320	1.075381
H167	H	1.282794	-0.518152	0.370075
H168	H	1.782794	-0.018152	0.870075
H169	H	1.338732	-0.649018	0.319556
H170	H	1.838732	-0.149018	0.819556
H171	H	1.338746	-0.734122	0.319517
H172	H	1.838746	-0.234122	0.819517
H173	H	1.024112	-0.874017	0.603559
H174	H	1.524112	-0.374017	1.103559
Cl175	Cl	1.087537	-0.309241	0.990801
Cl176	Cl	1.587537	0.190759	1.490801
H177	H	1.282929	-1.090559	0.369866
H178	H	1.782929	-0.590559	0.869866
Cl179	Cl	1.055280	-0.994436	0.575408
Cl180	Cl	1.555280	-0.494436	1.075408
Cl181	Cl	0.999302	-0.743582	0.625966
Cl182	Cl	1.499302	-0.243582	1.125966
H183	H	1.024033	-0.648153	0.603626
H184	H	1.524033	-0.148153	1.103626
H185	H	1.079940	-0.517613	0.553250
H186	H	1.579940	-0.017613	1.053250
H187	H	1.079924	-0.432490	0.553278
H188	H	1.579924	0.067510	1.053278
H189	H	1.338770	-0.874881	0.319465
H190	H	1.838770	-0.374881	0.819465
Cl191	Cl	1.363519	-0.779443	0.297141
Cl192	Cl	1.863519	-0.279443	0.797141
Cl193	Cl	0.999328	-0.778457	0.625951
Cl194	Cl	1.499328	-0.278457	1.125951
