data_functionalizedCrystal
_audit_creation_method	'MofGen! by Chris Wilmer'
_symmetry_space_group_name_H-M	'P1'
_symmetry_Int_Tables_number	1
_symmetry_cell_setting	triclinic
loop_
_symmetry_equiv_pos_as_xyz
  x,y,z
_cell_length_a	9.065218
_cell_length_b	16.176319
_cell_length_c	9.065218
_cell_angle_alpha	89.998429
_cell_angle_beta	94.984115
_cell_angle_gamma	90.006068
loop_
_atom_site_label
_atom_site_type_symbol
_atom_site_fract_x
_atom_site_fract_y
_atom_site_fract_z
O1	O	1.960405	0.068745	-0.216354
O2	O	2.460405	0.568745	0.283646
O3	O	1.531120	0.068746	-0.234100
O4	O	2.031120	0.568746	0.265900
O5	O	1.754636	0.068744	-0.010585
O6	O	2.254636	0.568744	0.489415
O7	O	1.736889	0.068747	-0.439869
O8	O	2.236889	0.568747	0.060131
O9	O	1.754609	-0.068749	-0.010584
O10	O	2.254609	0.431251	0.489416
O11	O	1.531094	-0.068747	-0.234099
O12	O	2.031094	0.431253	0.265901
O13	O	1.960378	-0.068748	-0.216353
O14	O	2.460378	0.431252	0.283647
Cu15	Cu	1.745734	-0.081302	-0.225226
Cu16	Cu	2.245734	0.418698	0.274774
Cu17	Cu	1.745765	0.081300	-0.225227
Cu18	Cu	2.245765	0.581300	0.274773
O19	O	1.736863	-0.068746	-0.439868
O20	O	2.236863	0.431254	0.060132
C21	C	1.476120	-0.000001	-0.232394
C22	C	1.976120	0.499999	0.267606
C23	C	1.312277	-0.000000	-0.227294
C24	C	1.812277	0.500000	0.272706
N25	N	1.745722	-0.195667	-0.225224
N26	N	2.245722	0.304333	0.274776
C27	C	1.836402	-0.238927	-0.315969
C28	C	2.336402	0.261073	0.184031
C29	C	1.836418	-0.325474	-0.315964
C30	C	2.336418	0.174526	0.184036
C31	C	1.745745	-0.368760	-0.225220
C32	C	2.245745	0.131240	0.274780
C33	C	1.655061	-0.325494	-0.134465
C34	C	2.155061	0.174506	0.365535
C35	C	1.655054	-0.238948	-0.134463
C36	C	2.155054	0.261052	0.365537
C37	C	1.655088	-0.674522	-0.134467
C38	C	2.155088	-0.174522	0.365533
C39	C	1.655099	-0.761074	-0.134479
C40	C	2.155099	-0.261074	0.365521
C41	C	1.836452	-0.761048	-0.315968
C42	C	2.336452	-0.261048	0.184032
C43	C	1.836446	-0.674503	-0.315966
C44	C	2.336446	-0.174503	0.184034
C45	C	1.745768	-0.631244	-0.225206
C46	C	2.245768	-0.131244	0.274794
C47	C	1.745754	-0.537400	-0.225211
C48	C	2.245754	-0.037400	0.274789
C49	C	1.745750	-0.462602	-0.225222
C50	C	2.245750	0.037398	0.274778
C51	C	2.015378	0.000000	-0.218059
C52	C	2.515378	0.500000	0.281941
C53	C	2.179221	0.000005	-0.223158
C54	C	2.679221	0.500005	0.276842
C55	C	1.752917	-0.000002	0.044403
C56	C	2.252917	0.499998	0.544403
C57	C	1.747817	0.000002	0.208245
C58	C	2.247817	0.500002	0.708245
N59	N	1.745788	0.195665	-0.225217
N60	N	2.245788	0.695665	0.274783
C61	C	1.738582	0.000001	-0.494855
C62	C	2.238582	0.500001	0.005145
C63	C	1.743681	0.000002	-0.658698
C64	C	2.243681	0.500002	-0.158698
H65	H	1.910231	-0.203690	-0.389873
H66	H	2.410231	0.296310	0.110127
H67	H	1.910262	-0.360693	-0.389855
H68	H	2.410262	0.139307	0.110145
H69	H	1.581258	-0.796314	-0.060579
H70	H	2.081258	-0.296314	0.439421
Br71	Br	1.532008	-0.384237	-0.011305
Br72	Br	2.032008	0.115763	0.488695
H73	H	1.910290	-0.796280	-0.389866
H74	H	2.410290	-0.296280	0.110134
Br75	Br	1.959482	-0.615762	-0.439147
Br76	Br	2.459482	-0.115762	0.060853
Br77	Br	1.531965	-0.615825	-0.011352
Br78	Br	2.031965	-0.115825	0.488648
Br79	Br	1.532004	-0.180237	-0.011283
Br80	Br	2.032004	0.319763	0.488717
