data_functionalizedCrystal
_audit_creation_method	'MofGen! by Chris Wilmer'
_symmetry_space_group_name_H-M	'P1'
_symmetry_Int_Tables_number	1
_symmetry_cell_setting	triclinic
loop_
_symmetry_equiv_pos_as_xyz
  x,y,z
_cell_length_a	15.944551
_cell_length_b	15.944493
_cell_length_c	9.730223
_cell_angle_alpha	90.001475
_cell_angle_beta	90.001200
_cell_angle_gamma	83.486891
loop_
_atom_site_label
_atom_site_type_symbol
_atom_site_fract_x
_atom_site_fract_y
_atom_site_fract_z
O1	O	1.114500	0.108335	-0.114128
O2	O	0.869948	0.121691	-0.114160
O3	O	0.998928	-0.007265	-0.114155
O4	O	0.985520	0.237291	-0.114134
O5	O	0.998919	-0.007269	0.114425
O6	O	0.869939	0.121688	0.114420
O7	O	1.114492	0.108331	0.114452
Zn8	Zn	0.992214	0.115009	0.150728
Zn9	Zn	0.992225	0.115014	-0.150436
O10	O	0.985512	0.237288	0.114446
C11	C	0.838650	0.121135	0.000125
C12	C	0.745404	0.119473	0.000112
C13	C	0.530565	0.035566	0.000131
C14	C	0.469541	0.074531	-0.112567
C15	C	0.574679	0.116465	0.000128
C16	C	0.469555	0.074547	0.112795
C17	C	0.409767	0.113555	0.000150
C18	C	0.514883	0.155453	-0.112664
C19	C	0.514903	0.155457	0.112800
C20	C	0.453897	0.194481	0.000073
C21	C	0.669681	0.118140	0.000115
C22	C	0.314766	0.111886	0.000153
C23	C	0.998375	-0.038562	0.000129
C24	C	0.996733	-0.131810	0.000111
C25	C	1.072653	-0.367570	0.000147
C26	C	1.031716	-0.418136	-0.112559
C27	C	0.993688	-0.302531	0.000128
C28	C	1.031690	-0.418116	0.112803
C29	C	0.990754	-0.467441	0.000150
C30	C	0.952773	-0.351869	-0.112672
C31	C	0.952758	-0.351846	0.112792
C32	C	0.911763	-0.402379	0.000058
C33	C	0.995381	-0.207531	0.000114
C34	C	0.989055	-0.562438	0.000154
C35	C	1.145790	0.108888	0.000163
C36	C	1.239036	0.110550	0.000167
C37	C	0.986064	0.268584	0.000159
C38	C	0.987707	0.361833	0.000168
N39	N	0.992213	0.115005	0.356264
N40	N	0.992233	0.115011	-0.355973
C41	C	1.049345	0.057927	0.428192
C42	C	1.049353	0.057928	0.572075
C43	C	0.935096	0.172091	0.572089
C44	C	0.935084	0.172086	0.428209
H45	H	0.563912	-0.031574	-0.000014
H46	H	0.420724	0.261690	0.000016
H47	H	1.095862	0.011447	0.369618
N48	N	1.073547	-0.454408	0.232324
N49	N	1.149676	-0.446464	0.252381
H50	H	1.179245	-0.472094	0.336787
H51	H	0.843692	-0.417845	-0.000013
H52	H	0.888557	0.218566	0.369641
H53	H	0.535024	0.189645	0.208089
H54	H	1.140671	-0.351942	0.000043
N55	N	0.910991	-0.315725	-0.232359
N56	N	0.937589	-0.337738	-0.349230
H57	H	0.908084	-0.312210	-0.433762
H58	H	0.919435	-0.322886	0.208072
H59	H	1.065067	-0.447081	-0.207836
N60	N	0.444363	0.031594	0.232306
N61	N	0.472152	-0.043904	0.252348
H62	H	0.454363	-0.074247	0.336747
H63	H	1.095874	0.011449	0.630635
H64	H	0.449441	0.040316	-0.207852
N65	N	0.539956	0.198365	-0.232297
N66	N	0.616103	0.206547	-0.251628
H67	H	0.633813	0.236858	-0.336112
H68	H	0.888583	0.218567	0.630680
