data_functionalizedCrystal
_audit_creation_method	'MofGen! by Chris Wilmer'
_symmetry_space_group_name_H-M	'P1'
_symmetry_Int_Tables_number	1
_symmetry_cell_setting	triclinic
loop_
_symmetry_equiv_pos_as_xyz
  x,y,z
_cell_length_a	17.639181
_cell_length_b	17.638516
_cell_length_c	12.759393
_cell_angle_alpha	78.830562
_cell_angle_beta	78.797517
_cell_angle_gamma	87.881382
loop_
_atom_site_label
_atom_site_type_symbol
_atom_site_fract_x
_atom_site_fract_y
_atom_site_fract_z
Zn1	Zn	1.099664	-0.536767	0.442087
Zn2	Zn	1.073877	-0.663760	0.307436
Zn3	Zn	0.972677	-0.511157	0.293730
Zn4	Zn	0.946979	-0.638065	0.510335
O5	O	1.023299	-0.587437	0.388397
O6	O	1.202494	-0.575084	0.401398
O7	O	1.060416	-0.643552	0.158616
O8	O	1.011069	-0.408296	0.279112
O9	O	1.183549	-0.668385	0.302471
O10	O	1.104365	-0.427112	0.388109
O11	O	0.986065	-0.531435	0.148547
O12	O	0.863017	-0.506520	0.345290
O13	O	0.967270	-0.624592	0.648284
O14	O	0.844137	-0.599759	0.504429
O15	O	1.079447	-0.550169	0.598142
O16	O	1.035498	-0.766609	0.368649
O17	O	0.942266	-0.747732	0.517718
C18	C	0.826027	-0.547573	0.430779
C19	C	0.741629	-0.530537	0.448941
C20	C	0.414840	-0.717025	0.250490
C21	C	0.335538	-0.701007	0.267562
C22	C	0.355232	-0.604010	0.370825
C23	C	0.434539	-0.620017	0.353758
C24	C	0.464336	-0.676526	0.293590
C25	C	0.484034	-0.579518	0.396858
C26	C	0.563333	-0.595527	0.379796
C27	C	0.593136	-0.652035	0.319635
C28	C	0.543635	-0.692535	0.276529
C29	C	0.454235	-0.523013	0.457032
C30	C	0.503731	-0.482514	0.500132
C31	C	0.583032	-0.498519	0.483064
C32	C	0.612835	-0.555027	0.422902
C33	C	0.632533	-0.458019	0.526170
C34	C	0.711832	-0.474028	0.509108
C35	C	0.692134	-0.571036	0.405841
C36	C	0.983316	-0.784726	0.452095
C37	C	0.966280	-0.869141	0.479366
C38	C	1.153174	-1.195822	0.181207
C39	C	1.137153	-1.275140	0.206852
C40	C	1.039990	-1.255511	0.361989
C41	C	1.056000	-1.176189	0.336354
C42	C	1.112593	-1.146351	0.245962
C43	C	1.015419	-1.126718	0.401109
C44	C	1.031431	-1.047403	0.375479
C45	C	1.088023	-1.017560	0.285094
C46	C	1.128605	-1.067037	0.220332
C47	C	0.958829	-1.156558	0.491505
C48	C	0.918249	-1.107087	0.556260
C49	C	0.934256	-1.027770	0.530626
C50	C	0.990849	-0.997927	0.440241
C51	C	0.893675	-0.978293	0.595388
C52	C	0.909686	-0.898979	0.569758
C53	C	1.006861	-0.918612	0.414610
C54	C	1.221342	-0.627458	0.345851
C55	C	1.305736	-0.644512	0.327720
C56	C	1.023368	-0.587371	0.662394
C57	C	1.023397	-0.587343	0.779156
C58	C	1.063460	-0.389382	0.324469
C59	C	1.080574	-0.304982	0.297226
C60	C	1.023286	-0.587457	0.115439
C61	C	1.023447	-0.587301	-0.001423
C62	C	1.081815	-0.548588	0.807908
C63	C	1.081839	-0.548564	0.917619
C64	C	0.965023	-0.626057	0.969820
C65	C	0.964997	-0.626076	0.860109
C66	C	1.140215	-0.509855	0.726954
C67	C	1.198639	-0.471097	0.755704
C68	C	1.198662	-0.471074	0.865415
C69	C	1.140263	-0.509808	0.946377
H70	H	0.657708	-0.665062	0.305733
H71	H	1.140204	-0.509872	0.637619
H72	H	0.872172	-1.131393	0.629859
H73	H	0.847602	-1.002601	0.668990
H74	H	0.917419	-0.657620	0.836700
H75	H	1.052940	-0.894317	0.340998
H76	H	1.199253	-1.171527	0.107594
H77	H	0.716397	-0.617047	0.356838
H78	H	0.876642	-0.858699	0.622489
H79	H	0.295239	-0.733992	0.232463
H80	H	0.439103	-0.763036	0.201488
H81	H	0.330960	-0.558002	0.419817
H82	H	1.170206	-1.315419	0.154116
H83	H	0.567898	-0.738546	0.227527
H84	H	0.389664	-0.509983	0.470925
H85	H	1.246182	-0.439556	0.689778
H86	H	0.993913	-1.279816	0.435588
H87	H	1.246229	-0.439509	0.888819
H88	H	0.479458	-0.436506	0.549124
H89	H	0.945798	-1.221142	0.512373
H90	H	1.140280	-0.509775	1.035708
H91	H	0.608259	-0.412014	0.575167
H92	H	0.917477	-0.657592	1.035746
H93	H	1.101061	-0.952977	0.264230
H94	H	0.752133	-0.441047	0.544202
H95	H	1.174684	-1.042741	0.146719
