data_functionalizedCrystal
_audit_creation_method	'MofGen! by Chris Wilmer'
_symmetry_space_group_name_H-M	'P1'
_symmetry_Int_Tables_number	1
_symmetry_cell_setting	triclinic
loop_
_symmetry_equiv_pos_as_xyz
  x,y,z
_cell_length_a	12.827893
_cell_length_b	15.299816
_cell_length_c	12.827885
_cell_angle_alpha	99.651250
_cell_angle_beta	89.980728
_cell_angle_gamma	80.350679
loop_
_atom_site_label
_atom_site_type_symbol
_atom_site_fract_x
_atom_site_fract_y
_atom_site_fract_z
Zn1	Zn	1.669579	-0.359008	-0.662875
Zn2	Zn	2.169579	0.140992	-0.162875
Zn3	Zn	1.699686	-0.509849	-0.518398
Zn4	Zn	2.199686	-0.009849	-0.018398
Zn5	Zn	1.494829	-0.359052	-0.488158
Zn6	Zn	1.994829	0.140948	0.011842
Zn7	Zn	1.525005	-0.509782	-0.693085
Zn8	Zn	2.025005	-0.009782	-0.193085
O9	O	1.597275	-0.434423	-0.590629
O10	O	2.097275	0.065577	-0.090629
O11	O	1.819810	-0.379027	-0.643723
O12	O	2.319810	0.120973	-0.143723
O13	O	1.672482	-0.489892	-0.368160
O14	O	2.172482	0.010108	0.131840
O15	O	1.492781	-0.232838	-0.486036
O16	O	1.992781	0.267162	0.013964
O17	O	1.841930	-0.489849	-0.537576
O18	O	2.341930	0.010151	-0.037576
O19	O	1.621169	-0.232806	-0.614400
O20	O	2.121169	0.267194	-0.114400
O21	O	1.521975	-0.379102	-0.345942
O22	O	2.021975	0.120898	0.154058
O23	O	1.352594	-0.379038	-0.515329
O24	O	1.852594	0.120962	-0.015329
O25	O	1.544212	-0.489735	-0.835304
O26	O	2.044212	0.010265	-0.335304
O27	O	1.374764	-0.489778	-0.665888
O28	O	1.874764	0.010222	-0.165888
O29	O	1.650430	-0.378962	-0.813109
O30	O	2.150430	0.121038	-0.313109
O31	O	1.701743	-0.636049	-0.566869
O32	O	2.201743	-0.136049	-0.066869
O33	O	1.573406	-0.636000	-0.695211
O34	O	2.073406	-0.136000	-0.195211
C35	C	1.325761	-0.434406	-0.590606
C36	C	1.825761	0.065594	-0.090606
C37	C	1.209611	-0.434421	-0.590625
C38	C	1.709611	0.065579	-0.090625
C39	C	1.048714	-0.489189	-0.538020
C40	C	1.548714	0.010811	-0.038020
C41	C	1.168761	-0.489175	-0.537999
C42	C	1.668761	0.010825	-0.037999
C43	C	1.644145	-0.668749	-0.637623
C44	C	2.144145	-0.168749	-0.137623
C45	C	1.664291	-0.768994	-0.657761
C46	C	2.164291	-0.268994	-0.157761
C47	C	1.453968	-1.051936	-0.447048
C48	C	1.953968	-0.551936	0.052952
C49	C	1.435034	-0.957750	-0.428129
C50	C	1.935034	-0.457750	0.071871
C51	C	1.492347	-0.910557	-0.485535
C52	C	1.992347	-0.410557	0.014465
C53	C	1.568597	-0.957558	-0.561864
C54	C	2.068597	-0.457558	-0.061864
C55	C	1.587527	-1.051752	-0.580791
C56	C	2.087527	-0.551752	-0.080791
C57	C	1.625906	-0.910373	-0.619278
C58	C	2.125906	-0.410373	-0.119278
C59	C	1.702156	-0.957374	-0.695607
C60	C	2.202156	-0.457374	-0.195607
C61	C	1.721083	-1.051560	-0.714530
C62	C	2.221083	-0.551560	-0.214530
C63	C	1.663770	-1.098754	-0.657124
C64	C	2.163770	-0.598754	-0.157124
C65	C	1.606975	-0.816178	-0.600351
C66	C	2.106975	-0.316178	-0.100351
C67	C	1.740534	-0.815995	-0.734094
C68	C	2.240534	-0.315995	-0.234094
C69	C	1.759469	-0.910181	-0.753013
C70	C	2.259469	-0.410181	-0.253013
C71	C	1.869848	-0.434440	-0.590653
C72	C	2.369848	0.065560	-0.090653
C73	C	1.986003	-0.434448	-0.590663
C74	C	2.486003	0.065552	-0.090663
C75	C	1.597328	-0.434336	-0.863182
C76	C	2.097328	0.065664	-0.363182
C77	C	1.597351	-0.434299	-0.979328
C78	C	2.097351	0.065701	-0.479328
C79	C	1.550250	-0.199182	-0.543475
C80	C	2.050250	0.300818	-0.043475
C81	C	1.530211	-0.098937	-0.523381
C82	C	2.030211	0.401063	-0.023381
C83	C	1.649916	-0.379475	-1.020128
C84	C	2.149916	0.120525	-0.520128
C85	C	1.649941	-0.379435	-1.140170
C86	C	2.149941	0.120565	-0.640170
C87	C	1.597268	-0.434444	-0.319123
C88	C	2.097268	0.065556	0.180877
C89	C	1.597397	-0.434227	-0.202927
C90	C	2.097397	0.065773	0.297073
H91	H	1.155730	-0.387556	-0.635701
H92	H	1.655730	0.112444	-0.135701
H93	H	1.372951	-0.919485	-0.365983
H94	H	1.872951	-0.419485	0.134017
H95	H	1.222650	-0.536046	-0.492936
H96	H	1.722650	-0.036046	0.007064
H97	H	1.407308	-1.090369	-0.400321
H98	H	1.907308	-0.590369	0.099679
H99	H	1.679186	-1.175447	-0.672520
H100	H	2.179186	-0.675447	-0.172520
O101	O	1.709503	-0.317335	-0.948683
O102	O	2.209503	0.182665	-0.448683
H103	H	1.748005	-0.277164	-0.996829
H104	H	2.248005	0.222836	-0.496829
H105	H	1.783166	-1.089826	-0.776687
H106	H	2.283166	-0.589826	-0.276687
O107	O	1.002123	-0.551284	-0.478331
O108	O	1.502123	-0.051284	0.021669
H109	H	0.915145	-0.541553	-0.487718
H110	H	1.415145	-0.041553	0.012282
O111	O	1.537765	-0.496390	-1.156396
O112	O	2.037765	0.003610	-0.656396
H113	H	1.452647	-0.480914	-1.174187
H114	H	1.952647	0.019086	-0.674187
O115	O	1.841694	-0.960876	-0.835353
O116	O	2.341694	-0.460876	-0.335353
H117	H	1.845216	-1.034299	-0.838872
H118	H	2.345216	-0.534299	-0.338872
O119	O	1.537752	-0.496435	-1.050764
O120	O	2.037752	0.003565	-0.550764
H121	H	1.593741	-0.542274	-1.109681
H122	H	2.093741	-0.042274	-0.609681
H123	H	1.021188	-0.387568	-0.635712
H124	H	1.521188	0.112432	-0.135712
O125	O	1.471934	-0.808970	-0.465116
O126	O	1.971934	-0.308970	0.034884
H127	H	1.445771	-0.784089	-0.538914
H128	H	1.945771	-0.284089	-0.038914
H129	H	1.787201	-0.777571	-0.780842
H130	H	2.287201	-0.277571	-0.280842
O131	O	1.709560	-0.317254	-1.186682
O132	O	2.209560	0.182746	-0.686682
H133	H	1.677499	-0.246462	-1.151588
H134	H	2.177499	0.253538	-0.651588
H135	H	1.544892	-0.777918	-0.538204
H136	H	2.044892	-0.277918	-0.038204
