data_functionalizedCrystal
_audit_creation_method	'MofGen! by Chris Wilmer'
_symmetry_space_group_name_H-M	'P1'
_symmetry_Int_Tables_number	1
_symmetry_cell_setting	triclinic
loop_
_symmetry_equiv_pos_as_xyz
  x,y,z
_cell_length_a	11.026607
_cell_length_b	11.026607
_cell_length_c	10.065918
_cell_angle_alpha	82.346549
_cell_angle_beta	82.291637
_cell_angle_gamma	108.586017
loop_
_atom_site_label
_atom_site_type_symbol
_atom_site_fract_x
_atom_site_fract_y
_atom_site_fract_z
O1	O	1.747087	0.553904	-0.113491
O2	O	1.380508	0.493141	-0.113493
O3	O	1.533415	0.340232	-0.113487
O4	O	1.594180	0.706814	-0.113497
O5	O	1.492688	0.299659	0.113502
O6	O	1.339781	0.452569	0.113496
O7	O	1.706360	0.513332	0.113498
Zn8	Zn	1.516604	0.476508	0.149536
Zn9	Zn	1.570264	0.529965	-0.149532
O10	O	1.553453	0.666241	0.113492
C11	C	1.312485	0.461645	0.000001
C12	C	1.170471	0.428228	0.000000
C13	C	1.501842	0.272286	0.000005
C14	C	1.468426	0.130273	0.000000
C15	C	1.116822	0.520499	-0.000003
C16	C	0.970043	0.485963	-0.000004
C17	C	1.560696	0.076624	-0.000001
C18	C	1.526161	-0.070153	-0.000006
C19	C	1.774384	0.544828	0.000001
C20	C	1.916399	0.578247	-0.000007
C21	C	1.585027	0.734187	-0.000004
C22	C	1.618444	0.876202	-0.000008
N23	N	1.479992	0.440027	0.353642
N24	N	1.606884	0.566438	-0.353637
C25	C	1.557517	0.517270	0.421420
C26	C	1.529347	0.489184	0.578588
H27	H	1.179554	0.625061	0.000002
H28	H	0.979125	0.682816	-0.000001
H29	H	1.694119	0.653366	0.588041
H30	H	0.907320	0.381399	-0.000036
C31	C	1.701952	0.161358	0.000005
H32	H	1.706630	0.248892	0.000017
H33	H	1.757392	0.157886	-0.079149
H34	H	1.728974	0.129579	0.079173
C35	C	1.085736	0.286972	-0.000004
H36	H	0.998202	0.282293	-0.000016
H37	H	1.089157	0.231584	0.079149
H38	H	1.117568	0.259898	-0.079173
C39	C	1.362152	0.322600	0.432425
H40	H	1.358673	0.319134	0.527724
H41	H	1.370700	0.244653	0.409074
H42	H	1.284374	0.331585	0.409093
H43	H	1.644748	0.604190	0.363092
H44	H	1.421593	-0.132881	-0.000016
H45	H	1.723033	-0.061053	-0.000110
H46	H	1.363865	0.067542	-0.000009
H47	H	1.442118	0.402251	0.636911
