data_functionalizedCrystal
_audit_creation_method	'MofGen! by Chris Wilmer'
_symmetry_space_group_name_H-M	'P1'
_symmetry_Int_Tables_number	1
_symmetry_cell_setting	triclinic
loop_
_symmetry_equiv_pos_as_xyz
  x,y,z
_cell_length_a	19.077236
_cell_length_b	21.295417
_cell_length_c	19.076919
_cell_angle_alpha	92.267699
_cell_angle_beta	89.887323
_cell_angle_gamma	92.322335
loop_
_atom_site_label
_atom_site_type_symbol
_atom_site_fract_x
_atom_site_fract_y
_atom_site_fract_z
Zn1	Zn	1.058269	-0.228507	-0.440524
Zn2	Zn	1.391602	0.104826	-0.107191
Zn3	Zn	1.724935	0.438160	0.226142
Zn4	Zn	1.062899	-0.329387	-0.323010
Zn5	Zn	1.396232	0.003946	0.010323
Zn6	Zn	1.729565	0.337279	0.343656
Zn7	Zn	0.945484	-0.228177	-0.318305
Zn8	Zn	1.278818	0.105156	0.015029
Zn9	Zn	1.612151	0.438490	0.348362
Zn10	Zn	0.940717	-0.337786	-0.435748
Zn11	Zn	1.274050	-0.004452	-0.102414
Zn12	Zn	1.607384	0.328881	0.230919
O13	O	1.001842	-0.280964	-0.379397
O14	O	1.335176	0.052369	-0.046063
O15	O	1.668509	0.385702	0.287270
O16	O	1.157217	-0.238513	-0.428904
O17	O	1.490550	0.094821	-0.095571
O18	O	1.823884	0.428154	0.237762
O19	O	1.051256	-0.312309	-0.224055
O20	O	1.384589	0.021024	0.109278
O21	O	1.717923	0.354358	0.442611
O22	O	0.960503	-0.140130	-0.334547
O23	O	1.293836	0.193203	-0.001214
O24	O	1.627169	0.526536	0.332120
O25	O	1.160619	-0.312629	-0.342567
O26	O	1.493952	0.020704	-0.009234
O27	O	1.827285	0.354038	0.324100
O28	O	1.043365	-0.140373	-0.424342
O29	O	1.376698	0.192960	-0.091008
O30	O	1.710032	0.526294	0.242325
O31	O	0.964992	-0.237950	-0.220598
O32	O	1.298326	0.095383	0.112735
O33	O	1.631659	0.428717	0.446068
O34	O	0.846518	-0.246093	-0.329915
O35	O	1.179851	0.087240	0.003418
O36	O	1.513185	0.420573	0.336751
O37	O	0.952378	-0.326942	-0.534712
O38	O	1.285711	0.006391	-0.201379
O39	O	1.619044	0.339724	0.131955
O40	O	0.843015	-0.326622	-0.416200
O41	O	1.176349	0.006711	-0.082867
O42	O	1.509682	0.340044	0.250466
O43	O	1.038742	-0.246656	-0.538221
O44	O	1.372076	0.086677	-0.204888
O45	O	1.705409	0.420011	0.128445
O46	O	1.046634	-0.418592	-0.337935
O47	O	1.379967	-0.085259	-0.004602
O48	O	1.713300	0.248075	0.328731
O49	O	0.956867	-0.424762	-0.420763
O50	O	1.290201	-0.091429	-0.087430
O51	O	1.623534	0.241905	0.245904
C52	C	0.819270	-0.287234	-0.372029
C53	C	1.152603	0.046100	-0.038696
C54	C	1.485936	0.379433	0.294637
C55	C	0.741164	-0.289932	-0.368894
C56	C	1.074497	0.043402	-0.035561
C57	C	1.407830	0.376735	0.297773
C58	C	0.702696	-0.252677	-0.412441
C59	C	1.036030	0.080656	-0.079107
C60	C	1.369363	0.413990	0.254226
C61	C	0.629308	-0.255209	-0.409489
C62	C	0.962641	0.078124	-0.076156
C63	C	1.295974	0.411458	0.257178
C64	C	0.594388	-0.294999	-0.362993
C65	C	0.927721	0.038335	-0.029660
C66	C	1.261054	0.371668	0.303674
C67	C	0.632861	-0.332255	-0.319442
C68	C	0.966194	0.001079	0.013892
C69	C	1.299527	0.334412	0.347225
C70	C	0.706248	-0.329719	-0.322390
C71	C	1.039581	0.003614	0.010943
C72	C	1.372915	0.336947	0.344276
C73	C	0.375093	-0.306709	-0.349343
C74	C	0.708426	0.026624	-0.016009
C75	C	1.041760	0.359957	0.317324
C76	C	0.301700	-0.309243	-0.346399
C77	C	0.635034	0.024090	-0.013065
C78	C	0.968367	0.357423	0.320268
C79	C	0.298153	-0.232196	-0.436445
C80	C	0.631486	0.101137	-0.103112
C81	C	0.964819	0.434470	0.230221
C82	C	0.371541	-0.229667	-0.439393
C83	C	0.704875	0.103666	-0.106060
C84	C	1.038208	0.436999	0.227273
C85	C	0.410008	-0.266921	-0.395839
C86	C	0.743341	0.066413	-0.062506
C87	C	1.076675	0.399746	0.270828
N88	N	0.519373	-0.297589	-0.359976
N89	N	0.852706	0.035744	-0.026643
N90	N	1.186039	0.369078	0.306690
N91	N	0.485022	-0.264327	-0.398853
N92	N	0.818355	0.069007	-0.065520
N93	N	1.151688	0.402340	0.267814
C94	C	1.001754	-0.444518	-0.379358
C95	C	1.335087	-0.111184	-0.046024
C96	C	1.668421	0.222149	0.287309
C97	C	1.001780	-0.514485	-0.379367
C98	C	1.335113	-0.181152	-0.046034
C99	C	1.668446	0.152181	0.287300
C100	C	1.044899	-0.547423	-0.426154
C101	C	1.378232	-0.214090	-0.092821
C102	C	1.711566	0.119244	0.240513
C103	C	1.044923	-0.613165	-0.426172
C104	C	1.378256	-0.279832	-0.092839
C105	C	1.711590	0.053501	0.240494
C106	C	1.001836	-0.645967	-0.379391
C107	C	1.335169	-0.312633	-0.046058
C108	C	1.668502	0.020700	0.287275
C109	C	0.958708	-0.613021	-0.332601
C110	C	1.292041	-0.279688	0.000733
C111	C	1.625375	0.053646	0.334066
C112	C	0.958680	-0.547280	-0.332589
C113	C	1.292013	-0.213947	0.000745
C114	C	1.625346	0.119386	0.334078
N115	N	0.999002	-0.747112	-0.317682
N116	N	1.332335	-0.413779	0.015651
N117	N	1.665669	-0.080445	0.348984
N118	N	0.999033	-0.809563	-0.317696
N119	N	1.332366	-0.476230	0.015637
N120	N	1.665699	-0.142896	0.348970
C121	C	1.001917	-0.844040	-0.379426
C122	C	1.335250	-0.510706	-0.046093
C123	C	1.668583	-0.177373	0.287240
N124	N	1.004782	-0.813706	-0.441144
N125	N	1.338116	-0.480372	-0.107811
N126	N	1.671449	-0.147039	0.225523
N127	N	1.004755	-0.751249	-0.441130
N128	N	1.338089	-0.417916	-0.107796
N129	N	1.671422	-0.084582	0.225537
C130	C	1.001861	-0.717251	-0.379400
C131	C	1.335194	-0.383918	-0.046066
C132	C	1.668528	-0.050585	0.287267
C133	C	1.045064	-0.948263	-0.426237
C134	C	1.378398	-0.614929	-0.092904
C135	C	1.711731	-0.281596	0.240429
C136	C	1.045083	-1.014006	-0.426256
C137	C	1.378417	-0.680673	-0.092923
C138	C	1.711750	-0.347340	0.240410
C139	C	0.958872	-1.013861	-0.332679
C140	C	1.292205	-0.680527	0.000654
C141	C	1.625539	-0.347194	0.333988
C142	C	0.958849	-0.948118	-0.332666
C143	C	1.292182	-0.614785	0.000668
C144	C	1.625516	-0.281452	0.334001
C145	C	1.001949	-0.915323	-0.379444
C146	C	1.335282	-0.581990	-0.046111
C147	C	1.668616	-0.248657	0.287223
C148	C	1.185128	-0.274671	-0.386793
C149	C	1.518461	0.058663	-0.053460
C150	C	1.851794	0.391996	0.279873
C151	C	1.263233	-0.271989	-0.389946
C152	C	1.596566	0.061344	-0.056612
C153	C	1.929900	0.394678	0.276721
C154	C	0.994512	-0.287773	-0.562676
C155	C	1.327845	0.045561	-0.229342
C156	C	1.661179	0.378894	0.103991
C157	C	0.991388	-0.290674	-0.640778
C158	C	1.324722	0.042659	-0.307445
C159	C	1.658055	0.375993	0.025889
C160	C	1.001949	-0.116772	-0.379452
C161	C	1.335283	0.216561	-0.046119
C162	C	1.668616	0.549895	0.287214
C163	C	1.001995	-0.046803	-0.379476
C164	C	1.335328	0.286530	-0.046143
C165	C	1.668661	0.619863	0.287191
C166	C	1.034884	-0.250238	-0.679299
C167	C	1.368217	0.083095	-0.345966
C168	C	1.701550	0.416429	-0.012632
C169	C	1.031940	-0.252962	-0.752684
C170	C	1.365273	0.080371	-0.419351
C171	C	1.698607	0.413705	-0.086018
C172	C	0.985504	-0.296126	-0.787547
C173	C	1.318837	0.037208	-0.454214
C174	C	1.652171	0.370541	-0.120881
C175	C	0.942004	-0.336563	-0.749021
C176	C	1.275337	-0.003230	-0.415688
C177	C	1.608670	0.330103	-0.082354
C178	C	0.944944	-0.333836	-0.675637
C179	C	1.278278	-0.000502	-0.342304
C180	C	1.611611	0.332831	-0.008970
C181	C	0.971884	-0.308762	-1.006826
C182	C	1.305218	0.024571	-0.673492
C183	C	1.638551	0.357904	-0.340159
C184	C	0.968949	-0.311488	-1.080215
C185	C	1.302282	0.021845	-0.746882
C186	C	1.635615	0.355179	-0.413548
C187	C	1.058885	-0.227886	-1.083873
C188	C	1.392218	0.105447	-0.750540
C189	C	1.725551	0.438781	-0.417207
C190	C	1.061824	-0.225165	-1.010488
C191	C	1.395157	0.108169	-0.677154
C192	C	1.728491	0.441502	-0.343821
C193	C	1.018321	-0.265600	-0.971968
C194	C	1.351654	0.067733	-0.638634
C195	C	1.684988	0.401067	-0.305301
N196	N	0.982496	-0.298912	-0.862559
N197	N	1.315829	0.034421	-0.529225
N198	N	1.649162	0.367754	-0.195892
N199	N	1.021327	-0.262810	-0.896957
N200	N	1.354660	0.070524	-0.563624
N201	N	1.687993	0.403857	-0.230291
C202	C	1.009184	-0.274136	-0.196833
C203	C	1.342518	0.059198	0.136501
C204	C	1.675851	0.392531	0.469834
C205	C	1.012444	-0.271052	-0.118736
C206	C	1.345778	0.062281	0.214597
C207	C	1.679111	0.395614	0.547931
H208	H	0.731122	-0.220278	-0.450305
H209	H	1.064456	0.113056	-0.116971
H210	H	1.397789	0.446389	0.216362
Cl211	Cl	0.754607	-0.376556	-0.267644
Cl212	Cl	1.087941	-0.043223	0.065689
Cl213	Cl	1.421274	0.290110	0.399023
H214	H	1.079992	-0.520723	-0.464245
H215	H	1.413325	-0.187390	-0.130912
H216	H	1.746658	0.145943	0.202421
Cl217	Cl	0.917195	-0.359596	-0.958410
Cl218	Cl	1.250528	-0.026263	-0.625077
Cl219	Cl	1.583862	0.307070	-0.291744
H220	H	0.904192	-0.371706	-0.777412
H221	H	1.237525	-0.038372	-0.444079
H222	H	1.570858	0.294961	-0.110746
Cl223	Cl	0.580951	-0.208374	-0.464238
Cl224	Cl	0.914285	0.124959	-0.130905
Cl225	Cl	1.247618	0.458293	0.202428
Cl226	Cl	1.099139	-0.654581	-0.484990
Cl227	Cl	1.432473	-0.321248	-0.151657
Cl228	Cl	1.765806	0.012085	0.181676
Cl229	Cl	0.904536	-0.654256	-0.273794
Cl230	Cl	1.237870	-0.320923	0.059539
Cl231	Cl	1.571203	0.012411	0.392872
Cl232	Cl	0.904468	-0.505871	-0.273766
Cl233	Cl	1.237801	-0.172537	0.059567
Cl234	Cl	1.571134	0.160796	0.392901
Cl235	Cl	1.113568	-0.177054	-1.132302
Cl236	Cl	1.446901	0.156279	-0.798969
Cl237	Cl	1.780234	0.489613	-0.465635
Cl238	Cl	1.120204	-0.170900	-0.966665
Cl239	Cl	1.453537	0.162433	-0.633332
Cl240	Cl	1.786870	0.495766	-0.299999
Cl241	Cl	0.890259	-0.384670	-0.627210
Cl242	Cl	1.223593	-0.051336	-0.293877
Cl243	Cl	1.556926	0.281997	0.039456
H244	H	0.399968	-0.197268	-0.477258
H245	H	0.733301	0.136065	-0.143924
H246	H	1.066635	0.469398	0.189409
H247	H	1.080196	-1.040823	-0.464359
H248	H	1.413529	-0.707490	-0.131026
H249	H	1.746863	-0.374157	0.202307
Cl250	Cl	0.423442	-0.353529	-0.294574
Cl251	Cl	0.756775	-0.020195	0.038760
Cl252	Cl	1.090109	0.313138	0.372093
Cl253	Cl	0.249791	-0.185365	-0.491194
Cl254	Cl	0.583124	0.147968	-0.157861
Cl255	Cl	0.916457	0.481302	0.175473
Cl256	Cl	0.904702	-1.055090	-0.273870
Cl257	Cl	1.238036	-0.721757	0.059464
Cl258	Cl	1.571369	-0.388424	0.392797
Cl259	Cl	0.257801	-0.359284	-0.287959
Cl260	Cl	0.591135	-0.025951	0.045375
Cl261	Cl	0.924468	0.307383	0.378708
Cl262	Cl	1.099242	-0.907032	-0.485046
Cl263	Cl	1.432576	-0.573699	-0.151713
Cl264	Cl	1.765909	-0.240365	0.181621
Cl265	Cl	0.588961	-0.382273	-0.260986
Cl266	Cl	0.922295	-0.048940	0.072348
Cl267	Cl	1.255628	0.284393	0.405681
H268	H	0.923740	-0.921298	-0.294564
H269	H	1.257074	-0.587965	0.038769
H270	H	1.590407	-0.254632	0.372102
Cl271	Cl	1.093267	-0.195976	-0.635479
Cl272	Cl	1.426601	0.137358	-0.302145
Cl273	Cl	1.759934	0.470691	0.031188
H274	H	1.067361	-0.220036	-0.784045
H275	H	1.400694	0.113297	-0.450712
H276	H	1.734027	0.446630	-0.117378
Cl277	Cl	0.910563	-0.365751	-1.124042
Cl278	Cl	1.243897	-0.032418	-0.790709
Cl279	Cl	1.577230	0.300915	-0.457375
