data_functionalizedCrystal
_audit_creation_method	'MofGen! by Chris Wilmer'
_symmetry_space_group_name_H-M	'P1'
_symmetry_Int_Tables_number	1
_symmetry_cell_setting	triclinic
loop_
_symmetry_equiv_pos_as_xyz
  x,y,z
_cell_length_a	14.853567
_cell_length_b	16.109301
_cell_length_c	14.586319
_cell_angle_alpha	90.000787
_cell_angle_beta	90.000002
_cell_angle_gamma	96.451795
loop_
_atom_site_label
_atom_site_type_symbol
_atom_site_fract_x
_atom_site_fract_y
_atom_site_fract_z
O1	O	0.115881	-1.103294	-0.076175
O2	O	0.615881	-0.603294	0.423825
O3	O	0.130302	-0.861252	-0.076188
O4	O	0.630302	-0.361252	0.423812
O5	O	-0.008149	-0.988738	-0.076184
O6	O	0.491851	-0.488738	0.423816
O7	O	0.254332	-0.975807	-0.076179
O8	O	0.754332	-0.475807	0.423821
O9	O	-0.008151	-0.988729	0.076297
O10	O	0.491849	-0.488729	0.576297
O11	O	0.130300	-0.861243	0.076293
O12	O	0.630300	-0.361243	0.576293
O13	O	0.115879	-1.103285	0.076306
O14	O	0.615879	-0.603285	0.576306
Cu15	Cu	0.123089	-0.982263	0.090222
Cu16	Cu	0.623089	-0.482263	0.590222
Cu17	Cu	0.123091	-0.982274	-0.090104
Cu18	Cu	0.623091	-0.482274	0.409896
O19	O	0.254330	-0.975799	0.076302
O20	O	0.754330	-0.475799	0.576302
C21	C	0.129717	-0.830272	0.000050
C22	C	0.629717	-0.330272	0.500050
C23	C	0.127965	-0.737974	0.000045
C24	C	0.627965	-0.237974	0.500045
C25	C	-0.041738	-0.988148	0.000054
C26	C	0.458262	-0.488148	0.500054
C27	C	-0.141819	-0.986392	0.000046
C28	C	0.358181	-0.486392	0.500046
C29	C	0.116464	-1.134265	0.000066
C30	C	0.616464	-0.634265	0.500066
C31	C	0.118215	-1.226563	0.000065
C32	C	0.618215	-0.726563	0.500065
C33	C	-0.554215	-0.903241	0.000059
C34	C	-0.054215	-0.403241	0.500059
C35	C	-0.575746	-1.054697	0.000067
C36	C	-0.075746	-0.554697	0.500067
C37	C	-0.481715	-1.056348	0.000062
C38	C	0.018285	-0.556348	0.500062
C39	C	-0.423930	-0.981444	0.000056
C40	C	0.076070	-0.481444	0.500056
C41	C	-0.460175	-0.904889	0.000056
C42	C	0.039825	-0.404889	0.500056
C43	C	-0.445463	-1.132901	0.000071
C44	C	0.054537	-0.632901	0.500071
C45	C	-0.351426	-1.134555	0.000067
C46	C	0.148574	-0.634555	0.500067
C47	C	-0.293639	-1.059650	0.000055
C48	C	0.206361	-0.559650	0.500055
C49	C	-0.329890	-0.983093	0.000054
C50	C	0.170110	-0.483093	0.500054
C51	C	-0.272104	-0.908189	0.000048
C52	C	0.227896	-0.408189	0.500048
C53	C	-0.308353	-0.831630	0.000040
C54	C	0.191647	-0.331630	0.500040
C55	C	-0.402388	-0.829984	0.000044
C56	C	0.097612	-0.329984	0.500044
C57	C	-0.199604	-1.061296	0.000051
C58	C	0.300396	-0.561296	0.500051
C59	C	-0.178064	-0.909837	0.000046
C60	C	0.321936	-0.409837	0.500046
C61	C	0.287918	-0.976389	0.000062
C62	C	0.787918	-0.476389	0.500062
C63	C	0.387999	-0.978145	0.000064
C64	C	0.887999	-0.478145	0.500064
N65	N	0.123087	-0.982262	0.217054
N66	N	0.623087	-0.482262	0.717054
C67	C	0.206047	-0.515811	0.000057
C68	C	0.706047	-0.015811	0.500057
C69	C	0.204395	-0.429089	0.000063
C70	C	0.704395	0.070911	0.500063
C71	C	0.040127	-0.448732	0.000056
C72	C	0.540127	0.051268	0.500056
C73	C	0.041781	-0.535453	0.000057
C74	C	0.541781	-0.035453	0.500057
C75	C	0.124743	-0.568990	0.000052
C76	C	0.624743	-0.068990	0.500052
C77	C	0.121437	-0.395546	0.000058
C78	C	0.621437	0.104454	0.500058
C79	C	0.119645	-0.301518	0.000064
C80	C	0.619645	0.198482	0.500064
C81	C	0.126536	-0.663025	0.000048
C82	C	0.626536	-0.163025	0.500048
N83	N	0.123087	-0.982281	-0.216936
N84	N	0.623087	-0.482281	0.283064
C85	C	0.061801	-1.038731	0.452062
C86	C	0.561801	-0.538731	0.952062
C87	C	0.061799	-1.038734	0.548044
C88	C	0.561799	-0.538734	1.048044
C89	C	0.184375	-0.925806	0.548049
C90	C	0.684375	-0.425806	1.048049
C91	C	0.184372	-0.925800	0.452070
C92	C	0.684372	-0.425800	0.952070
C93	C	0.123086	-0.982268	0.404079
C94	C	0.623086	-0.482268	0.904079
C95	C	0.123087	-0.982276	0.596039
C96	C	0.623087	-0.482276	1.096039
C97	C	0.123085	-0.982278	0.700107
C98	C	0.623085	-0.482278	1.200107
C99	C	0.123087	-0.982265	0.300005
C100	C	0.623087	-0.482265	0.800005
H101	H	-0.131020	-0.848840	0.000037
H102	H	0.368980	-0.348840	0.500037
H103	H	-0.261292	-0.770643	0.000042
H104	H	0.238708	-0.270643	0.500042
O105	O	-0.004319	-1.099609	0.400293
O106	O	0.495681	-0.599609	0.900293
H107	H	0.033626	-1.140066	0.356555
H108	H	0.533626	-0.640066	0.856555
O109	O	-0.312329	-1.217123	0.000054
O110	O	0.187671	-0.717123	0.500054
H111	H	-0.368310	-1.268930	0.000048
H112	H	0.131690	-0.768930	0.500048
O113	O	0.250478	-0.864900	0.400305
O114	O	0.750478	-0.364900	0.900305
H115	H	0.293105	-0.825645	0.449799
H116	H	0.793105	-0.325645	0.949799
H117	H	-0.622800	-1.115680	0.000079
H118	H	-0.122800	-0.615680	0.500079
H119	H	-0.583733	-0.840908	0.000049
H120	H	-0.083733	-0.340908	0.500049
H121	H	-0.024431	-0.578754	0.000056
H122	H	0.475569	-0.078754	0.500056
H123	H	-0.431911	-0.767654	0.000039
H124	H	0.068089	-0.267654	0.500039
O125	O	-0.507783	-1.213688	0.000090
O126	O	-0.007783	-0.713688	0.500090
H127	H	-0.579260	-1.199678	0.000083
H128	H	-0.079260	-0.699678	0.500083
O129	O	-0.160502	-1.143858	0.000054
O130	O	0.339498	-0.643858	0.500054
H131	H	-0.216482	-1.195666	0.000055
H132	H	0.283518	-0.695666	0.500055
H133	H	0.273601	-0.543114	0.000060
H134	H	0.773601	-0.043114	0.500060
O135	O	0.292086	-0.371728	0.000065
O136	O	0.792086	0.128272	0.500065
H137	H	0.350048	-0.409621	0.000056
H138	H	0.850048	0.090379	0.500056
H139	H	0.234274	-0.879832	0.587133
H140	H	0.734274	-0.379832	1.087133
H141	H	0.011894	-1.084711	0.587109
H142	H	0.511894	-0.584711	1.087109
O143	O	-0.049352	-0.412561	0.000054
O144	O	0.450648	0.087439	0.500054
H145	H	-0.036845	-0.343324	0.000045
H146	H	0.463155	0.156676	0.500045
