data_functionalizedCrystal
_audit_creation_method	'MofGen! by Chris Wilmer'
_symmetry_space_group_name_H-M	'P1'
_symmetry_Int_Tables_number	1
_symmetry_cell_setting	triclinic
loop_
_symmetry_equiv_pos_as_xyz
  x,y,z
_cell_length_a	18.050589
_cell_length_b	18.050590
_cell_length_c	19.805399
_cell_angle_alpha	90.000100
_cell_angle_beta	89.977706
_cell_angle_gamma	89.984959
loop_
_atom_site_label
_atom_site_type_symbol
_atom_site_fract_x
_atom_site_fract_y
_atom_site_fract_z
Zn1	Zn	-0.295938	-1.135320	-0.382393
Zn2	Zn	-0.420130	-1.135222	-0.269215
Zn3	Zn	-0.295930	-1.011131	-0.269256
Zn4	Zn	-0.420062	-1.011087	-0.382400
O5	O	-0.358015	-1.073190	-0.325816
O6	O	-0.312444	-1.239231	-0.367359
O7	O	-0.403680	-1.118739	-0.174504
O8	O	-0.192006	-1.027664	-0.284278
O9	O	-0.403688	-1.239160	-0.284208
O10	O	-0.192012	-1.118905	-0.367399
O11	O	-0.312430	-1.027569	-0.174534
O12	O	-0.312364	-0.907200	-0.284285
O13	O	-0.403572	-1.027589	-0.477116
O14	O	-0.403564	-0.907168	-0.367412
O15	O	-0.312378	-1.118862	-0.477110
O16	O	-0.524046	-1.118696	-0.284215
O17	O	-0.523996	-1.027495	-0.367372
C18	C	-0.357956	-0.880238	-0.325854
C19	C	-0.357949	-0.797692	-0.325886
C20	C	-0.407677	-0.598245	-0.370992
C21	C	-0.339959	-0.548853	-0.387646
C22	C	-0.357984	-0.646562	-0.325860
C23	C	-0.425736	-0.548872	-0.309212
C24	C	-0.358025	-0.500577	-0.325836
C25	C	-0.290230	-0.598257	-0.342546
C26	C	-0.376052	-0.598280	-0.264084
C27	C	-0.308287	-0.548910	-0.280714
C28	C	-0.357962	-0.730660	-0.325875
C29	C	-0.358039	-0.416480	-0.325820
C30	C	-0.550967	-1.073100	-0.325805
C31	C	-0.633513	-1.073130	-0.325823
C32	C	-0.832963	-1.023583	-0.371027
C33	C	-0.882398	-1.005481	-0.309270
C34	C	-0.784643	-1.073203	-0.325831
C35	C	-0.882290	-1.091342	-0.387596
C36	C	-0.930628	-1.073272	-0.325845
C37	C	-0.832991	-1.055065	-0.264041
C38	C	-0.832879	-1.140957	-0.342409
C39	C	-0.882291	-1.122881	-0.280609
C40	C	-0.700545	-1.073161	-0.325824
C41	C	-1.014725	-1.073314	-0.325845
C42	C	-0.164309	-1.073300	-0.325842
C43	C	-0.081764	-1.073347	-0.325853
C44	C	-0.357968	-1.073232	-0.502359
C45	C	-0.357948	-1.073249	-0.577591
C46	C	-0.358064	-0.266895	-0.325790
C47	C	-0.358059	-0.349441	-0.325808
C48	C	-0.310462	-1.120776	-0.612933
C49	C	-0.310440	-1.120784	-0.683622
C50	C	-0.357910	-1.073268	-0.718966
C51	C	-0.405398	-1.025735	-0.683619
C52	C	-0.405416	-1.025725	-0.612932
C53	C	-0.405329	-1.025777	-0.968692
C54	C	-0.405310	-1.025793	-1.039385
C55	C	-0.310354	-1.120837	-1.039382
C56	C	-0.310371	-1.120826	-0.968695
C57	C	-0.357857	-1.073291	-0.933354
C58	C	-0.357878	-1.073283	-0.856705
C59	C	-0.357892	-1.073280	-0.795614
C60	C	-0.358008	-1.073191	-0.149960
C61	C	-0.357819	-1.073317	-0.074728
H62	H	-0.811304	-0.981560	-0.409194
H63	H	-0.903946	-1.106656	-0.439824
H64	H	-0.483014	-0.527175	-0.295144
C65	C	-0.319336	-0.519512	-0.458207
N66	N	-0.303810	-0.497412	-0.511355
C67	C	-0.258148	-1.173094	-0.929820
N68	N	-0.218809	-1.212461	-0.900540
H69	H	-0.271773	-1.159487	-0.712394
C70	C	-0.803458	-1.218296	-0.361380
N71	N	-0.781293	-1.276546	-0.375679
C72	C	-0.396710	-0.627635	-0.193540
N73	N	-0.412276	-0.649747	-0.140406
H74	H	-0.811425	-1.039684	-0.211799
C75	C	-0.911784	-0.928114	-0.290330
N76	N	-0.933915	-0.869840	-0.276069
C77	C	-0.258108	-1.173117	-1.078264
N78	N	-0.218758	-1.212494	-1.107548
H79	H	-0.443967	-0.987097	-1.068160
C80	C	-0.911373	-1.179607	-0.228924
N81	N	-0.933281	-1.222329	-0.189992
H82	H	-0.449630	-0.619910	-0.409199
H83	H	-0.444077	-0.987016	-0.584157
C84	C	-0.212827	-0.627438	-0.361641
N85	N	-0.154529	-0.649418	-0.376026
H86	H	-0.266232	-0.527384	-0.242537
C87	C	-0.258240	-1.173048	-0.574060
N88	N	-0.218902	-1.212418	-0.544783
H89	H	-0.444006	-0.987083	-0.939926
H90	H	-0.444046	-0.987044	-0.712402
