data_functionalizedCrystal
_audit_creation_method	'MofGen! by Chris Wilmer'
_symmetry_space_group_name_H-M	'P1'
_symmetry_Int_Tables_number	1
_symmetry_cell_setting	triclinic
loop_
_symmetry_equiv_pos_as_xyz
  x,y,z
_cell_length_a	15.538191
_cell_length_b	15.944551
_cell_length_c	14.185569
_cell_angle_alpha	76.843158
_cell_angle_beta	97.875798
_cell_angle_gamma	65.385416
loop_
_atom_site_label
_atom_site_type_symbol
_atom_site_fract_x
_atom_site_fract_y
_atom_site_fract_z
O1	O	1.228526	-0.247244	-0.083424
O2	O	0.954273	-0.150258	-0.083426
O3	O	1.098891	-0.323313	-0.083416
O4	O	1.083908	-0.074190	-0.083434
O5	O	1.141613	-0.374430	0.083422
O6	O	0.996995	-0.201376	0.083412
O7	O	1.271248	-0.298362	0.083414
Cu8	Cu	1.138022	-0.254536	0.098646
Cu9	Cu	1.087499	-0.194084	-0.098658
O10	O	1.126630	-0.125307	0.083404
C11	C	0.940539	-0.165670	-0.000007
C12	C	0.835967	-0.135444	-0.000007
C13	C	0.548159	-0.435726	-0.000001
C14	C	0.449895	-0.407303	-0.000004
C15	C	0.427459	-0.247430	-0.000015
C16	C	0.525725	-0.275842	-0.000008
C17	C	0.586068	-0.369990	-0.000002
C18	C	0.563633	-0.210106	-0.000008
C19	C	0.661889	-0.238513	-0.000006
C20	C	0.722237	-0.332657	-0.000003
C21	C	0.684324	-0.398398	0.000001
C22	C	0.503287	-0.115955	-0.000021
C23	C	0.541195	-0.050219	-0.000022
C24	C	0.639455	-0.078629	-0.000012
C25	C	0.699803	-0.172772	-0.000009
C26	C	0.677368	-0.012888	-0.000016
C27	C	0.775625	-0.041296	-0.000013
C28	C	0.798059	-0.201180	-0.000007
C29	C	1.119630	-0.379976	0.000003
C30	C	1.117766	-0.472653	0.000004
C31	C	1.023667	-0.658813	-0.000011
C32	C	1.088426	-0.758358	0.082251
C33	C	1.114392	-0.642349	-0.000004
C34	C	1.046328	-0.707950	-0.082238
C35	C	1.111124	-0.806262	-0.000016
C36	C	1.179193	-0.740694	0.082325
C37	C	1.137063	-0.690253	-0.082237
C38	C	1.201893	-0.789808	0.000044
C39	C	1.116272	-0.547921	0.000004
C40	C	1.109253	-0.900693	-0.000016
C41	C	1.284982	-0.282950	-0.000007
C42	C	1.389552	-0.313173	-0.000014
C43	C	1.105890	-0.068644	-0.000017
C44	C	1.107753	0.024036	-0.000025
N45	N	1.173564	-0.297058	0.237420
N46	N	1.051965	-0.151571	-0.237432
C47	C	0.947542	-0.026679	0.605054
C48	C	0.974471	-0.058885	0.710078
C49	C	1.102556	-0.212090	0.710047
C50	C	1.075635	-0.179898	0.605022
C51	C	0.998128	-0.087192	0.552534
C52	C	1.126220	-0.240411	0.552501
C53	C	1.099304	-0.208220	0.447485
C54	C	1.021802	-0.115516	0.394989
C55	C	0.971211	-0.055001	0.447517
C56	C	1.203732	-0.333115	0.604991
C57	C	1.254318	-0.393628	0.552471
C58	C	1.227397	-0.361440	0.447452
C59	C	1.149895	-0.268736	0.394957
C60	C	1.277988	-0.421956	0.394924
C61	C	1.251071	-0.389765	0.289908
C62	C	1.122978	-0.236545	0.289940
H63	H	0.378314	-0.170773	-0.000024
H64	H	1.067862	-0.788074	0.151795
H65	H	0.884421	0.048808	0.562316
H66	H	0.933272	-0.009599	0.752835
C67	C	1.255070	-0.758309	0.176385
C68	C	1.270820	-0.673275	0.193794
C69	C	1.346691	-0.690886	0.287854
C70	C	1.406814	-0.793530	0.364504
C71	C	1.391066	-0.878570	0.347096
C72	C	1.315194	-0.860960	0.253037
H73	H	1.226312	-0.597286	0.137052
H74	H	1.358349	-0.627933	0.300740
H75	H	1.462979	-0.806566	0.434132
H76	H	1.435573	-0.954560	0.403839
H77	H	1.303537	-0.923913	0.240151
H78	H	0.423280	-0.092828	-0.000026
H79	H	1.292265	-0.439041	0.247145
H80	H	0.999890	-0.089306	0.309478
H81	H	0.990134	-0.695013	-0.151788
C82	C	1.164799	-0.650056	-0.176189
C83	C	1.099788	-0.623800	-0.281348
C84	C	1.127513	-0.583593	-0.375309
C85	C	1.220249	-0.569644	-0.364112
C86	C	1.285267	-0.595901	-0.258950
C87	C	1.257542	-0.636107	-0.164988
H88	H	1.031134	-0.634125	-0.289640
H89	H	1.079383	-0.564156	-0.453157
H90	H	1.240773	-0.539881	-0.433668
H91	H	1.353921	-0.585575	-0.250657
H92	H	1.305672	-0.655544	-0.087140
H93	H	1.317427	-0.469110	0.595219
C94	C	1.233340	-0.368526	0.720511
C95	C	1.337789	-0.396407	0.778249
C96	C	1.367395	-0.431816	0.893768
C97	C	1.292551	-0.439344	0.951549
C98	C	1.188095	-0.411462	0.893811
C99	C	1.158489	-0.376053	0.778292
H100	H	1.393199	-0.390835	0.735476
H101	H	1.444721	-0.452456	0.936509
H102	H	1.314467	-0.465555	1.037063
H103	H	1.132685	-0.417034	0.936584
H104	H	1.081163	-0.355413	0.735551
H105	H	0.847196	-0.277848	0.000004
H106	H	0.802240	-0.355781	-0.000014
H107	H	0.597296	-0.512393	0.000010
C108	C	0.750715	-0.501966	0.000016
C109	C	0.768651	-0.590555	0.086659
C110	C	0.835044	-0.694117	0.086674
C111	C	0.883501	-0.709089	0.000046
C112	C	0.865566	-0.620497	-0.086603
C113	C	0.799173	-0.516935	-0.086619
H114	H	0.732780	-0.579474	0.150792
H115	H	0.848320	-0.759698	0.150818
H116	H	0.932648	-0.785751	0.000058
H117	H	0.901437	-0.631578	-0.150736
H118	H	0.785897	-0.451353	-0.150763
H119	H	0.419035	-0.460840	-0.000005
H120	H	0.492050	0.026438	-0.000031
H121	H	1.341101	-0.497435	0.437674
H122	H	0.628221	0.063771	-0.000031
H123	H	0.806492	0.012231	-0.000004
H124	H	0.948384	-0.602567	0.000071
H125	H	1.277275	-0.845964	0.000091
H126	H	1.059858	-0.161058	0.247202
H127	H	0.908090	0.020486	0.404779
H128	H	1.165666	-0.287571	0.752795
