data_functionalizedCrystal
_audit_creation_method	'MofGen! by Chris Wilmer'
_symmetry_space_group_name_H-M	'P1'
_symmetry_Int_Tables_number	1
_symmetry_cell_setting	triclinic
loop_
_symmetry_equiv_pos_as_xyz
  x,y,z
_cell_length_a	12.811415
_cell_length_b	12.837943
_cell_length_c	11.295657
_cell_angle_alpha	94.161228
_cell_angle_beta	90.842671
_cell_angle_gamma	90.588083
loop_
_atom_site_label
_atom_site_type_symbol
_atom_site_fract_x
_atom_site_fract_y
_atom_site_fract_z
O1	O	0.264046	-1.368576	0.127510
O2	O	0.250662	-1.066803	0.126072
O3	O	0.106463	-1.226313	0.110491
O4	O	0.408245	-1.209066	0.143090
O5	O	0.120225	-1.238718	-0.086067
O6	O	0.264424	-1.079208	-0.070487
O7	O	0.277808	-1.380981	-0.069049
Cu8	Cu	0.272373	-1.231227	-0.087715
Cu9	Cu	0.256097	-1.216557	0.144738
O10	O	0.422008	-1.221471	-0.053468
C11	C	0.253022	-1.034396	0.027305
C12	C	0.239538	-0.919352	0.025852
N13	N	0.283820	-1.241553	-0.251210
C14	C	0.074448	-1.231930	0.008013
C15	C	-0.041448	-1.230171	-0.004498
C16	C	-0.274227	-1.213323	0.186304
C17	C	-0.383122	-1.211670	0.174554
C18	C	-0.368138	-1.225205	-0.039747
C19	C	-0.259242	-1.226858	-0.027997
C20	C	-0.212290	-1.220918	0.085032
C21	C	-0.103393	-1.222578	0.096781
C22	C	-0.088410	-1.236106	-0.117519
C23	C	-0.197306	-1.234453	-0.129269
C24	C	0.454022	-1.215854	0.049013
C25	C	0.569918	-1.217612	0.061532
C26	C	0.275448	-1.413388	0.029721
C27	C	0.288932	-1.528431	0.031182
C28	C	0.401643	-0.677994	0.043346
C29	C	0.388978	-0.569899	0.041980
C30	C	0.201545	-0.595067	0.021746
C31	C	0.214209	-0.703161	0.023112
C32	C	0.314261	-0.744620	0.033914
C33	C	0.326925	-0.852717	0.035288
C34	C	0.139493	-0.877883	0.015046
C35	C	0.126828	-0.769788	0.013680
C36	C	0.162169	-1.131803	-0.513690
C37	C	0.170829	-1.139629	-0.637415
C38	C	0.309803	-1.265026	-0.622386
C39	C	0.301144	-1.257199	-0.498661
C40	C	0.227323	-1.190587	-0.444318
C41	C	0.218659	-1.182767	-0.320592
C42	C	0.357638	-1.308157	-0.305565
C43	C	0.366298	-1.315983	-0.429290
N44	N	0.244642	-1.206240	0.308232
H45	H	-0.065167	-1.217745	0.188815
H46	H	0.410691	-1.356024	-0.249069
F47	F	0.095072	-0.550925	0.010236
F48	F	0.433407	-0.896839	0.046789
F49	F	-0.224255	-1.207015	0.306596
H50	H	0.460133	-0.515655	0.049657
F51	F	-0.418124	-1.231501	-0.160031
F52	F	0.508122	-0.722119	0.054856
F53	F	0.444864	-1.386867	-0.487138
F54	F	-0.247286	-1.240766	-0.249556
H55	H	-0.433547	-1.205481	0.257020
F56	F	0.140089	-1.111879	-0.262758
H57	H	-0.037969	-1.242295	-0.199982
F58	F	0.046489	-0.948799	0.005021
F59	F	0.020352	-0.725653	0.002180
F60	F	0.083588	-1.060931	-0.455853
F61	F	0.101485	-1.077061	-0.711241
H62	H	0.369908	-1.319254	-0.666654
