data_functionalizedCrystal
_audit_creation_method	'MofGen! by Chris Wilmer'
_symmetry_space_group_name_H-M	'P1'
_symmetry_Int_Tables_number	1
_symmetry_cell_setting	triclinic
loop_
_symmetry_equiv_pos_as_xyz
  x,y,z
_cell_length_a	16.959455
_cell_length_b	18.050589
_cell_length_c	16.959455
_cell_angle_alpha	90.005878
_cell_angle_beta	90.005786
_cell_angle_gamma	90.025168
loop_
_atom_site_label
_atom_site_type_symbol
_atom_site_fract_x
_atom_site_fract_y
_atom_site_fract_z
Zn1	Zn	1.208272	-0.295858	0.446929
Zn2	Zn	1.208196	-0.420014	0.314759
Zn3	Zn	1.076121	-0.295836	0.314766
Zn4	Zn	1.076047	-0.420004	0.446897
O5	O	1.142159	-0.357928	0.380838
O6	O	1.318873	-0.312341	0.429406
O7	O	1.190675	-0.403537	0.204149
O8	O	1.093714	-0.191914	0.332314
O9	O	1.318817	-0.403558	0.332301
O10	O	1.190805	-0.191930	0.429413
O11	O	1.093639	-0.312304	0.204154
O12	O	0.965500	-0.312293	0.332284
O13	O	1.093588	-0.403540	0.557512
O14	O	0.965446	-0.403519	0.429360
O15	O	1.190734	-0.312330	0.557535
O16	O	1.190603	-0.523937	0.332271
O17	O	1.093514	-0.523930	0.429352
C18	C	0.936793	-0.357903	0.380819
C19	C	0.848936	-0.357911	0.380830
C20	C	0.477464	-0.310388	0.330396
C21	C	0.477457	-0.405529	0.431325
C22	C	0.560002	-0.405518	0.431320
C23	C	0.601283	-0.357942	0.380851
C24	C	0.560018	-0.310377	0.330388
C25	C	0.601274	-0.453088	0.481777
C26	C	0.683825	-0.453080	0.481774
C27	C	0.725107	-0.405500	0.431308
C28	C	0.683837	-0.357932	0.380843
C29	C	0.725117	-0.310356	0.330375
C30	C	0.683848	-0.262784	0.279913
C31	C	0.601300	-0.262797	0.279922
C32	C	0.807655	-0.405486	0.431299
C33	C	0.807671	-0.310345	0.330367
C34	C	1.142063	-0.550880	0.380825
C35	C	1.142095	-0.633426	0.380845
C36	C	1.089350	-0.832899	0.433620
C37	C	1.070097	-0.882317	0.361493
C38	C	1.142173	-0.784556	0.380856
C39	C	1.161464	-0.882219	0.452991
C40	C	1.142246	-0.930541	0.380872
C41	C	1.122883	-0.832887	0.308691
C42	C	1.214282	-0.832785	0.400237
C43	C	1.195057	-0.882181	0.328060
C44	C	1.142128	-0.700458	0.380847
C45	C	1.142291	-1.014638	0.380872
C46	C	1.348327	-0.357953	0.380856
C47	C	1.436184	-0.357964	0.380864
C48	C	1.142161	-0.357936	0.587006
C49	C	1.142162	-0.357940	0.674862
C50	C	1.142276	-0.164222	0.380868
C51	C	1.142326	-0.081676	0.380881
C52	C	1.091584	-0.405431	0.716126
C53	C	1.192736	-0.310448	0.716152
C54	C	1.192736	-0.310447	0.798698
C55	C	1.142158	-0.357938	0.839962
C56	C	1.091580	-0.405430	0.798679
C57	C	1.243306	-0.262950	0.839987
C58	C	1.243307	-0.262947	0.922538
C59	C	1.192733	-0.310442	0.963803
C60	C	1.142154	-0.357937	0.922515
C61	C	1.091576	-0.405428	0.963779
C62	C	1.041001	-0.452927	0.922493
C63	C	1.041006	-0.452926	0.839944
C64	C	1.192728	-0.310444	1.046351
C65	C	1.091573	-0.405427	1.046332
C66	C	1.142151	-0.357936	1.175471
C67	C	1.142150	-0.357935	1.087615
H68	H	0.841253	-0.444221	0.472382
H69	H	0.567657	-0.491827	0.522860
N70	N	1.254270	-0.910678	0.268905
H71	H	1.308553	-0.891860	0.283050
H72	H	1.239558	-0.892630	0.214493
H73	H	0.999816	-0.491590	0.956100
N74	N	0.432942	-0.456839	0.485762
H75	H	0.447290	-0.509881	0.473392
H76	H	0.374399	-0.449568	0.478087
N77	N	1.247267	-0.259213	1.090876
H78	H	1.303738	-0.270746	1.076516
H79	H	1.239526	-0.266440	1.149418
N80	N	0.852185	-0.259021	0.275935
H81	H	0.837802	-0.270468	0.219439
H82	H	0.910728	-0.266252	0.283649
H83	H	0.999830	-0.491596	0.806322
N84	N	1.294992	-0.803941	0.421979
H85	H	1.294486	-0.747993	0.421301
H86	H	1.335032	-0.822702	0.382691
H87	H	1.284481	-0.224283	0.806384
N88	N	1.183040	-0.910931	0.533783
H89	H	1.143072	-0.893005	0.573587
H90	H	1.237105	-0.892134	0.548758
H91	H	1.050388	-0.444103	1.079923
N92	N	1.030100	-0.804231	0.492646
H93	H	0.975670	-0.822252	0.477905
H94	H	1.030912	-0.748284	0.492554
H95	H	1.050409	-0.444106	0.682507
N96	N	1.247296	-0.259232	0.671659
H97	H	1.303760	-0.270780	0.686041
H98	H	1.234988	-0.206188	0.686050
N99	N	0.989365	-0.911131	0.339769
H100	H	0.949471	-0.893208	0.379649
H101	H	0.990188	-0.967076	0.339418
N102	N	1.297845	-0.211712	0.967065
H103	H	1.329882	-0.181625	0.928398
H104	H	1.334412	-0.241938	1.001319
H105	H	0.717470	-0.224051	0.238818
N106	N	1.101218	-0.804308	0.227869
H107	H	1.051879	-0.773196	0.231665
H108	H	1.091499	-0.847532	0.191315
N109	N	0.556790	-0.211514	0.225475
H110	H	0.498232	-0.218752	0.233129
H111	H	0.571220	-0.223010	0.169010
H112	H	0.443859	-0.271654	0.289313
H113	H	0.717419	-0.491815	0.522863
