data_functionalizedCrystal
_audit_creation_method	'MofGen! by Chris Wilmer'
_symmetry_space_group_name_H-M	'P1'
_symmetry_Int_Tables_number	1
_symmetry_cell_setting	triclinic
loop_
_symmetry_equiv_pos_as_xyz
  x,y,z
_cell_length_a	10.654550
_cell_length_b	11.026607
_cell_length_c	9.730223
_cell_angle_alpha	89.999947
_cell_angle_beta	89.996251
_cell_angle_gamma	96.535460
loop_
_atom_site_label
_atom_site_type_symbol
_atom_site_fract_x
_atom_site_fract_y
_atom_site_fract_z
O1	O	1.704901	0.170762	-0.114401
O2	O	1.342954	0.187032	-0.114379
O3	O	1.493930	0.001991	-0.114383
O4	O	1.553926	0.355802	-0.114397
O5	O	1.493929	0.001996	0.114196
O6	O	1.342953	0.187036	0.114201
O7	O	1.704900	0.170767	0.114179
Zn8	Zn	1.523926	0.178902	0.150482
Zn9	Zn	1.523928	0.178896	-0.150682
O10	O	1.553924	0.355807	0.114183
C11	C	1.295897	0.185839	-0.000086
C12	C	1.155677	0.182265	-0.000078
C13	C	1.099841	0.291214	-0.000102
C14	C	0.968090	0.287849	-0.000126
C15	C	0.948022	0.066576	-0.000107
C16	C	1.079771	0.069943	-0.000073
C17	C	1.111426	0.418964	-0.000119
C18	C	0.979675	0.415599	-0.000143
C19	C	1.482861	-0.043310	-0.000094
C20	C	1.449867	-0.178302	-0.000097
C21	C	1.540970	-0.251341	-0.000105
C22	C	1.506871	-0.390862	-0.000108
C23	C	1.751958	0.171959	-0.000117
C24	C	1.892177	0.175533	-0.000135
C25	C	1.564993	0.401109	-0.000109
C26	C	1.597988	0.536100	-0.000115
N27	N	1.523934	0.178906	0.356018
N28	N	1.523928	0.178883	-0.356219
C29	C	1.590814	0.096998	0.427942
C30	C	1.590808	0.096983	0.571825
C31	C	1.457040	0.260795	0.571847
C32	C	1.457040	0.260803	0.427967
C33	C	1.668049	0.002426	0.427931
C34	C	1.668043	0.002411	0.571814
H35	H	1.125227	-0.018774	-0.000034
O36	O	1.392041	0.340476	0.358312
C37	C	1.332976	0.412734	0.452673
H38	H	1.384879	0.414574	0.555231
H39	H	1.335707	0.509660	0.411108
H40	H	1.230584	0.372399	0.467983
O41	O	1.383740	-0.439614	-0.000287
C42	C	1.359234	-0.512161	-0.118692
H43	H	1.451321	-0.542784	-0.158167
H44	H	1.290411	-0.595704	-0.092068
H45	H	1.316154	-0.456662	-0.201583
O46	O	0.942129	0.473011	-0.114175
C47	C	0.809432	0.469487	-0.113999
H48	H	0.772730	0.456715	-0.004296
H49	H	0.781706	0.558765	-0.157240
H50	H	0.766559	0.390136	-0.180316
O51	O	1.721210	-0.415435	0.000063
C52	C	1.781424	-0.454553	0.118461
H53	H	1.727364	-0.542854	0.157931
H54	H	1.882264	-0.471139	0.091831
H55	H	1.783336	-0.381302	0.201358
O56	O	1.608773	-0.102841	0.625287
C57	C	1.612301	-0.096633	0.769988
H58	H	1.625315	0.003035	0.803640
H59	H	1.519940	-0.143430	0.813664
H60	H	1.694498	-0.144485	0.809670
O61	O	1.788637	0.027109	0.618246
C62	C	1.861778	-0.062807	0.569844
H63	H	1.816091	-0.107216	0.473598
H64	H	1.961022	-0.018727	0.544191
H65	H	1.867366	-0.135183	0.652601
O66	O	0.874099	-0.042424	-0.000171
C67	C	0.745839	-0.022037	-0.000164
H68	H	0.736477	0.072582	-0.043449
H69	H	0.689374	-0.093976	-0.066532
H70	H	0.707951	-0.028232	0.109490
O71	O	1.664158	-0.202782	-0.000359
C72	C	1.724389	-0.241946	-0.118731
H73	H	1.650741	-0.268991	-0.201467
H74	H	1.795185	-0.164589	-0.158476
H75	H	1.775945	-0.323924	-0.091971
O76	O	1.326651	-0.226773	0.000089
C77	C	1.266430	-0.187663	0.118494
H78	H	1.320486	-0.099365	0.157967
H79	H	1.165592	-0.171077	0.091874
H80	H	1.264513	-0.260920	0.201386
H81	H	1.151603	0.468929	0.095545
H82	H	1.765661	0.032038	0.383298
H83	H	1.402575	0.327472	0.630443
O84	O	1.618045	-0.109008	0.381408
C85	C	1.493122	-0.134602	0.429863
H86	H	1.453602	-0.045459	0.455434
H87	H	1.432292	-0.185484	0.347166
H88	H	1.492453	-0.193557	0.526168
H89	H	0.942384	0.454208	0.098540
O90	O	1.164466	0.467701	-0.117770
C91	C	1.134374	0.588202	-0.133239
H92	H	1.110778	0.626095	-0.028537
H93	H	1.218610	0.647448	-0.179298
H94	H	1.049403	0.588505	-0.204390
