data_functionalizedCrystal
_audit_creation_method	'MofGen! by Chris Wilmer'
_symmetry_space_group_name_H-M	'P1'
_symmetry_Int_Tables_number	1
_symmetry_cell_setting	triclinic
loop_
_symmetry_equiv_pos_as_xyz
  x,y,z
_cell_length_a	15.944551
_cell_length_b	15.944551
_cell_length_c	14.421503
_cell_angle_alpha	89.995753
_cell_angle_beta	89.996059
_cell_angle_gamma	96.501262
loop_
_atom_site_label
_atom_site_type_symbol
_atom_site_fract_x
_atom_site_fract_y
_atom_site_fract_z
O1	O	1.114530	-0.108319	-0.077017
O2	O	0.869981	-0.121675	-0.077040
O3	O	0.998934	0.007277	-0.077020
O4	O	0.985577	-0.237272	-0.077038
O5	O	0.998910	0.007256	0.077204
O6	O	0.869957	-0.121697	0.077183
O7	O	1.114507	-0.108341	0.077206
Cu8	Cu	0.992230	-0.115021	0.091277
Cu9	Cu	0.992258	-0.114995	-0.091110
O10	O	0.985554	-0.237294	0.077186
C11	C	0.838675	-0.121132	0.000069
C12	C	0.745429	-0.119470	0.000060
C13	C	0.998367	0.038561	0.000092
C14	C	0.996705	0.131807	0.000093
C15	C	0.530572	-0.035565	0.000084
C16	C	0.469564	-0.074517	-0.075959
C17	C	0.574703	-0.116462	0.000071
C18	C	0.469563	-0.074557	0.076093
C19	C	0.409790	-0.113551	0.000086
C20	C	0.514923	-0.155436	-0.076035
C21	C	0.514928	-0.155465	0.076086
C22	C	0.453937	-0.194476	0.000024
C23	C	0.669705	-0.118137	0.000062
C24	C	0.314789	-0.111883	0.000089
C25	C	1.145813	-0.108885	0.000096
C26	C	1.239059	-0.110547	0.000098
C27	C	0.986120	-0.268577	0.000072
C28	C	0.987782	-0.361823	0.000066
N29	N	0.992216	-0.115038	0.219558
C30	C	0.912801	0.346663	0.000072
C31	C	0.951752	0.407670	0.076117
C32	C	0.993698	0.302533	0.000085
C33	C	0.951794	0.407675	-0.075935
C34	C	0.990787	0.467445	0.000074
C35	C	1.032671	0.362311	0.076193
C36	C	1.032702	0.362309	-0.075927
C37	C	1.071711	0.423298	0.000136
C38	C	0.995372	0.207530	0.000092
C39	C	0.989119	0.562446	0.000073
C40	C	0.932574	-0.174643	0.469202
C41	C	1.008473	-0.190952	0.531011
C42	C	0.992234	-0.115021	0.408719
C43	C	0.916352	-0.098736	0.531005
C44	C	0.992244	-0.115007	0.591441
C45	C	1.068171	-0.131367	0.469167
C46	C	0.976000	-0.039118	0.469156
C47	C	1.051954	-0.055394	0.530936
C48	C	0.992227	-0.115032	0.303458
C49	C	0.992260	-0.114996	0.696700
N50	N	0.992263	-0.114987	0.780608
H51	H	0.563905	0.031573	-0.000005
O52	O	0.957764	0.045871	0.433134
H53	H	1.006667	0.095449	0.458948
O54	O	0.906471	0.434306	-0.161090
H55	H	0.939460	0.415257	-0.224144
H56	H	0.845652	0.313356	0.000141
H57	H	0.917525	0.427769	0.140401
O58	O	1.026693	-0.275954	0.567026
H59	H	1.027136	-0.274950	0.643982
H60	H	0.535050	-0.189662	0.140373
H61	H	0.420779	-0.261683	-0.000023
O62	O	0.442947	-0.029239	0.161257
H63	H	0.473951	0.036697	0.161096
O64	O	0.831347	-0.080486	0.566987
H65	H	0.781937	-0.130070	0.542252
O66	O	1.118855	0.011403	0.566636
H67	H	1.181747	-0.002316	0.541738
O68	O	1.077940	0.335831	0.161453
H69	H	1.078784	0.266322	0.160807
O70	O	0.865813	-0.241479	0.433294
H71	H	0.819484	-0.211217	0.390960
H72	H	1.066899	0.342188	-0.140214
O73	O	0.442921	-0.029187	-0.161106
H74	H	0.473905	0.036757	-0.160945
O75	O	1.153204	-0.149707	0.433354
H76	H	1.145283	-0.207909	0.390538
O77	O	0.541404	-0.200683	-0.161310
H78	H	0.610914	-0.201519	-0.160671
H79	H	1.138919	0.456457	0.000186
