data_functionalizedCrystal
_audit_creation_method	'MofGen! by Chris Wilmer'
_symmetry_space_group_name_H-M	'P1'
_symmetry_Int_Tables_number	1
_symmetry_cell_setting	triclinic
loop_
_symmetry_equiv_pos_as_xyz
  x,y,z
_cell_length_a	14.908571
_cell_length_b	21.295417
_cell_length_c	14.908308
_cell_angle_alpha	93.261727
_cell_angle_beta	90.175053
_cell_angle_gamma	86.725606
loop_
_atom_site_label
_atom_site_type_symbol
_atom_site_fract_x
_atom_site_fract_y
_atom_site_fract_z
Zn1	Zn	1.345222	-0.328502	-0.587537
Zn2	Zn	1.845222	0.171498	-0.087537
Zn3	Zn	1.353780	-0.428069	-0.437164
Zn4	Zn	1.853780	0.071931	0.062836
Zn5	Zn	1.203540	-0.316412	-0.428537
Zn6	Zn	1.703540	0.183588	0.071463
Zn7	Zn	1.194808	-0.427321	-0.578816
Zn8	Zn	1.694808	0.072679	-0.078816
O9	O	1.274337	-0.375076	-0.508014
O10	O	1.774337	0.124924	-0.008014
O11	O	1.472182	-0.347083	-0.574851
O12	O	1.972182	0.152917	-0.074851
O13	O	1.341086	-0.408510	-0.310196
O14	O	1.841086	0.091490	0.189804
O15	O	1.222407	-0.229931	-0.449668
O16	O	1.722407	0.270069	0.050332
O17	O	1.478469	-0.420234	-0.464372
O18	O	1.978469	0.079766	0.035628
O19	O	1.326500	-0.238814	-0.566485
O20	O	1.826500	0.261186	-0.066485
O21	O	1.230705	-0.326476	-0.303857
O22	O	1.730705	0.173524	0.196143
O23	O	1.076557	-0.325751	-0.441211
O24	O	1.576557	0.174249	0.058789
O25	O	1.207525	-0.418959	-0.705797
O26	O	1.707525	0.081041	-0.205797
O27	O	1.070141	-0.407236	-0.551621
O28	O	1.570141	0.092764	-0.051621
O29	O	1.318033	-0.346358	-0.712205
O30	O	1.818033	0.153642	-0.212205
O31	O	1.332619	-0.516054	-0.455915
O32	O	1.832619	-0.016054	0.044085
O33	O	1.215823	-0.515505	-0.559986
O34	O	1.715823	-0.015505	-0.059986
C35	C	1.040724	-0.365101	-0.494534
C36	C	1.540724	0.134899	0.005466
C37	C	0.940782	-0.360849	-0.488788
C38	C	1.440782	0.139151	0.011212
C39	C	1.274225	-0.538621	-0.507961
C40	C	1.774225	-0.038621	-0.007961
C41	C	1.274258	-0.608591	-0.507974
C42	C	1.774258	-0.108591	-0.007974
C43	C	0.746357	-0.437829	-0.592807
C44	C	1.246357	0.062171	-0.092807
C45	C	0.652453	-0.433836	-0.587412
C46	C	1.152453	0.066164	-0.087412
C47	C	0.659066	-0.348869	-0.472608
C48	C	1.159066	0.151131	0.027392
C49	C	0.752971	-0.352861	-0.478003
C50	C	1.252971	0.147139	0.021997
C51	C	0.796613	-0.397344	-0.538104
C52	C	1.296613	0.102656	-0.038104
C53	C	0.890520	-0.401339	-0.543494
C54	C	1.390520	0.098661	-0.043494
C55	C	0.897131	-0.316368	-0.428695
C56	C	1.397131	0.183632	0.071305
C57	C	0.803226	-0.312376	-0.423300
C58	C	1.303226	0.187624	0.076700
C59	C	1.328424	-0.646026	-0.568840
C60	C	1.828424	-0.146026	-0.068840
C61	C	1.328454	-0.711771	-0.568864
C62	C	1.828454	-0.211771	-0.068864
C63	C	1.274329	-0.740078	-0.508007
C64	C	1.774329	-0.240078	-0.008007
C65	C	1.220152	-0.702634	-0.447136
C66	C	1.720152	-0.202634	0.052864
C67	C	1.220117	-0.636891	-0.447120
C68	C	1.720117	-0.136891	0.052880
N69	N	1.272081	-0.840068	-0.428926
N70	N	1.772081	-0.340068	0.071074
N71	N	1.272120	-0.902521	-0.428945
N72	N	1.772120	-0.402521	0.071055
C73	C	1.274432	-0.938158	-0.508053
C74	C	1.774432	-0.438158	-0.008053
N75	N	1.276721	-0.908983	-0.587146
N76	N	1.776721	-0.408983	-0.087146
N77	N	1.276686	-0.846523	-0.587127
N78	N	1.776686	-0.346523	-0.087127
C79	C	1.274361	-0.811365	-0.508018
C80	C	1.774361	-0.311365	-0.008018
C81	C	1.328634	-1.046881	-0.568950
C82	C	1.828634	-0.546881	-0.068950
C83	C	1.328658	-1.112627	-0.568975
C84	C	1.828658	-0.612627	-0.068975
C85	C	1.220361	-1.103489	-0.447240
C86	C	1.720361	-0.603489	0.052760
C87	C	1.220332	-1.037745	-0.447222
C88	C	1.720332	-0.537745	0.052778
C89	C	1.274473	-1.009445	-0.508076
C90	C	1.774473	-0.509445	-0.008076
C91	C	1.508863	-0.385091	-0.521547
C92	C	2.008863	0.114909	-0.021547
C93	C	1.608804	-0.389358	-0.527313
C94	C	2.108804	0.110642	-0.027313
C95	C	1.260850	-0.383924	-0.742538
C96	C	1.760850	0.116076	-0.242538
C97	C	1.255103	-0.387694	-0.842478
C98	C	1.755103	0.112306	-0.342478
C99	C	1.274473	-0.210894	-0.508087
C100	C	1.774473	0.289106	-0.008087
C101	C	1.274531	-0.140930	-0.508118
C102	C	1.774531	0.359070	-0.008118
C103	C	1.359373	-0.319165	-1.036950
C104	C	1.859373	0.180835	-0.536950
C105	C	1.353975	-0.322705	-1.130853
C106	C	1.853975	0.177295	-0.630853
C107	C	1.238907	-0.398313	-1.124188
C108	C	1.738907	0.101687	-0.624188
C109	C	1.244304	-0.394772	-1.030285
C110	C	1.744304	0.105228	-0.530285
C111	C	1.304540	-0.355197	-0.986670
C112	C	1.804540	0.144803	-0.486670
C113	C	1.309941	-0.351661	-0.892765
C114	C	1.809941	0.148339	-0.392765
C115	C	1.194869	-0.427264	-0.886102
C116	C	1.694869	0.072736	-0.386102
C117	C	1.189471	-0.430805	-0.980005
C118	C	1.689471	0.069195	-0.480005
C119	C	1.287824	-0.366219	-0.274405
C120	C	1.787824	0.133781	0.225595
C121	C	1.293745	-0.362279	-0.174475
C122	C	1.793745	0.137721	0.325525
H123	H	0.926052	-0.437559	-0.592429
H124	H	1.426052	0.062441	-0.092429
C125	C	1.160760	-0.996564	-0.380259
C126	C	1.660760	-0.496564	0.119741
H127	H	1.128534	-1.022837	-0.344011
H128	H	1.628534	-0.522837	0.155989
H129	H	1.119565	-0.970555	-0.412349
H130	H	1.619565	-0.470555	0.087651
H131	H	1.197434	-0.970902	-0.343088
H132	H	1.697434	-0.470902	0.156912
H133	H	0.623516	-0.312650	-0.423683
H134	H	1.123516	0.187350	0.076317
C135	C	0.755215	-0.263453	-0.357190
C136	C	1.255215	0.236547	0.142810
H137	H	0.692091	-0.266876	-0.361806
H138	H	1.192091	0.233124	0.138194
H139	H	0.769866	-0.222326	-0.371333
H140	H	1.269866	0.277674	0.128667
H141	H	0.774062	-0.270985	-0.297636
H142	H	1.274062	0.229015	0.202364
H143	H	0.781892	-0.474051	-0.641738
H144	H	1.281892	0.025949	-0.141738
H145	H	1.398624	-0.293362	-1.171788
H146	H	1.898624	0.206638	-0.671788
H147	H	1.176007	-0.606410	-0.397555
H148	H	1.676007	-0.106410	0.102445
H149	H	0.611537	-0.466803	-0.631959
H150	H	1.111537	0.033197	-0.131959
H151	H	0.938060	-0.283403	-0.384150
H152	H	1.438060	0.216597	0.115850
C153	C	1.134549	-0.466901	-0.830792
C154	C	1.634549	0.033099	-0.330792
H155	H	1.146386	-0.459123	-0.768619
H156	H	1.646386	0.040877	-0.268619
H157	H	1.146791	-0.510335	-0.846926
H158	H	1.646791	-0.010335	-0.346926
H159	H	1.073254	-0.455687	-0.842698
H160	H	1.573254	0.044313	-0.342698
H161	H	1.140427	-0.463024	-1.015529
H162	H	1.640427	0.036976	-0.515529
H163	H	1.408424	-0.286945	-1.001438
H164	H	1.908424	0.213055	-0.501438
C165	C	1.387976	-0.614899	-0.635777
C166	C	1.887976	-0.114899	-0.135777
H167	H	1.420237	-0.646614	-0.672034
H168	H	1.920237	-0.146614	-0.172034
H169	H	1.429141	-0.589614	-0.603666
H170	H	1.929141	-0.089614	-0.103666
H171	H	1.351284	-0.589272	-0.672941
H172	H	1.851284	-0.089272	-0.172941
C173	C	1.160614	-0.733766	-0.380194
C174	C	1.660614	-0.233766	0.119806
H175	H	1.128342	-0.702052	-0.343945
H176	H	1.628342	-0.202052	0.156055
H177	H	1.197303	-0.759393	-0.343036
H178	H	1.697303	-0.259393	0.156964
H179	H	1.119444	-0.759051	-0.412309
H180	H	1.619444	-0.259051	0.087691
H181	H	1.372716	-1.023839	-0.618504
H182	H	1.872716	-0.523839	-0.118504
C183	C	1.388049	-0.752957	-0.635810
C184	C	1.888049	-0.252957	-0.135810
H185	H	1.420293	-0.726687	-0.672045
H186	H	1.920293	-0.226687	-0.172045
H187	H	1.351394	-0.778627	-0.672982
H188	H	1.851394	-0.278627	-0.172982
H189	H	1.429242	-0.778959	-0.603697
H190	H	1.929242	-0.278959	-0.103697
C191	C	1.388244	-1.153806	-0.635931
C192	C	1.888244	-0.653806	-0.135931
H193	H	1.420487	-1.127533	-0.672162
H194	H	1.920487	-0.627533	-0.172162
H195	H	1.351583	-1.179471	-0.673105
H196	H	1.851583	-0.679471	-0.173105
H197	H	1.429438	-1.179814	-0.603827
H198	H	1.929438	-0.679814	-0.103827
C199	C	1.160818	-1.134619	-0.380303
C200	C	1.660818	-0.634619	0.119697
H201	H	1.168598	-1.179135	-0.389027
H202	H	1.668598	-0.679135	0.110973
H203	H	1.099636	-1.121794	-0.389925
H204	H	1.599636	-0.621794	0.110075
H205	H	1.177497	-1.122141	-0.320655
H206	H	1.677497	-0.622141	0.179345
H207	H	1.358990	-0.319438	-0.857255
H208	H	1.858990	0.180562	-0.357255
H209	H	1.189865	-0.430532	-1.159716
H210	H	1.689865	0.069468	-0.659716
