data_functionalizedCrystal
_audit_creation_method	'MofGen! by Chris Wilmer'
_symmetry_space_group_name_H-M	'P1'
_symmetry_Int_Tables_number	1
_symmetry_cell_setting	triclinic
loop_
_symmetry_equiv_pos_as_xyz
  x,y,z
_cell_length_a	14.519709
_cell_length_b	10.723024
_cell_length_c	9.198806
_cell_angle_alpha	90.002012
_cell_angle_beta	90.001670
_cell_angle_gamma	95.925993
loop_
_atom_site_label
_atom_site_type_symbol
_atom_site_fract_x
_atom_site_fract_y
_atom_site_fract_z
O1	O	1.224702	-0.163572	-0.120699
O2	O	0.956324	-0.182835	-0.120743
O3	O	1.096704	0.008431	-0.120715
O4	O	1.084323	-0.354837	-0.120728
O5	O	1.096693	0.008431	0.121070
O6	O	0.956313	-0.182834	0.121042
O7	O	1.224691	-0.163571	0.121086
Cu8	Cu	1.090501	-0.173203	0.143141
Cu9	Cu	1.090514	-0.173203	-0.142798
O10	O	1.084311	-0.354837	0.121057
C11	C	0.921954	-0.181937	0.000144
C12	C	0.819559	-0.179246	0.000127
C13	C	1.095797	0.054922	0.000176
C14	C	1.093101	0.193451	0.000170
N15	N	1.090498	-0.173201	0.344255
C16	C	0.444613	-0.169343	0.000193
C17	C	0.548935	-0.172093	0.000174
C18	C	0.632082	-0.174294	0.000159
C19	C	0.736411	-0.177045	0.000143
C20	C	1.259061	-0.164469	0.000196
C21	C	1.361456	-0.167159	0.000203
C22	C	1.085218	-0.401328	0.000164
C23	C	1.087914	-0.539857	0.000160
C24	C	1.171651	0.269169	0.000181
C25	C	1.168866	0.412346	0.000175
N26	N	1.090524	-0.173194	-0.343912
C27	C	1.149440	-0.092543	0.416464
C28	C	1.149454	-0.092538	0.583876
H29	H	1.240961	0.227995	0.000201
O30	O	1.010331	0.242352	0.000088
C31	C	0.937837	0.144151	0.000118
H32	H	0.964158	0.055611	-0.045646
H33	H	0.878449	0.171590	-0.070091
H34	H	0.912282	0.125844	0.116112
H35	H	1.020666	0.395089	0.000160
H36	H	1.199889	-0.023486	0.354348
H37	H	1.199920	-0.023488	0.645972
O38	O	1.030445	-0.255638	0.581869
C39	C	1.080537	-0.332513	0.493847
H40	H	1.152317	-0.282755	0.471182
H41	H	1.042256	-0.352195	0.386759
H42	H	1.087545	-0.424750	0.552418
O43	O	1.030178	-0.255459	0.418285
C44	C	0.938668	-0.235302	0.381183
H45	H	0.937354	-0.135463	0.339244
H46	H	0.892560	-0.249598	0.481354
H47	H	0.912091	-0.304545	0.292952
O48	O	1.249006	0.490132	0.000120
C49	C	1.228386	0.615769	0.000151
H50	H	1.155903	0.620797	-0.045633
H51	H	1.280973	0.674696	-0.070041
H52	H	1.231607	0.653408	0.116147
