data_functionalizedCrystal
_audit_creation_method	'MofGen! by Chris Wilmer'
_symmetry_space_group_name_H-M	'P1'
_symmetry_Int_Tables_number	1
_symmetry_cell_setting	triclinic
loop_
_symmetry_equiv_pos_as_xyz
  x,y,z
_cell_length_a	18.215407
_cell_length_b	17.639999
_cell_length_c	18.215399
_cell_angle_alpha	101.227327
_cell_angle_beta	90.017587
_cell_angle_gamma	78.805412
loop_
_atom_site_label
_atom_site_type_symbol
_atom_site_fract_x
_atom_site_fract_y
_atom_site_fract_z
Zn1	Zn	-1.184317	0.314656	-0.356975
Zn2	Zn	-1.209129	0.446841	-0.209058
Zn3	Zn	-1.061262	0.314687	-0.233915
Zn4	Zn	-1.086103	0.446790	-0.332091
O5	O	-1.135203	0.380743	-0.283010
O6	O	-1.290594	0.332200	-0.337365
O7	O	-1.189502	0.429344	-0.109365
O8	O	-1.056805	0.204077	-0.271056
O9	O	-1.308824	0.429315	-0.228691
O10	O	-1.147213	0.204055	-0.361468
O11	O	-1.080864	0.332251	-0.127627
O12	O	-0.961571	0.332202	-0.246927
O13	O	-1.099144	0.429228	-0.438383
O14	O	-0.979822	0.429257	-0.319056
O15	O	-1.171301	0.332150	-0.456665
O16	O	-1.213590	0.557439	-0.204562
O17	O	-1.123203	0.557402	-0.294954
C18	C	-0.943994	0.380728	-0.282989
C19	C	-0.862197	0.380740	-0.282994
C20	C	-0.683540	0.431355	-0.320476
C21	C	-0.606682	0.431357	-0.320484
C22	C	-0.587618	0.330136	-0.245546
C23	C	-0.664475	0.330131	-0.245543
C24	C	-0.712435	0.380745	-0.283006
C25	C	-0.558720	0.380752	-0.283017
C26	C	-0.475386	0.380753	-0.283025
C27	C	-0.795773	0.380743	-0.282999
C28	C	-1.173805	0.586099	-0.244376
C29	C	-1.190386	0.673951	-0.227873
C30	C	-0.327158	0.380757	-0.283028
C31	C	-0.408957	0.380756	-0.283029
C32	C	-1.009423	0.962926	-0.408633
C33	C	-1.025005	1.045476	-0.393103
C34	C	-1.119183	1.045450	-0.299073
C35	C	-1.103611	0.962898	-0.314598
C36	C	-1.048730	0.921642	-0.369379
C37	C	-1.142918	0.921614	-0.275344
C38	C	-1.127345	0.839069	-0.290865
C39	C	-1.072464	0.797808	-0.345641
C40	C	-1.033156	0.839098	-0.384900
C41	C	-1.197796	0.962871	-0.220560
C42	C	-1.237103	0.921587	-0.181305
C43	C	-1.221533	0.839041	-0.196830
C44	C	-1.166653	0.797780	-0.251606
C45	C	-1.260841	0.797752	-0.157571
C46	C	-1.245268	0.715207	-0.173093
C47	C	-1.151079	0.715235	-0.267128
C48	C	-1.135226	0.380680	-0.474975
C49	C	-1.135235	0.380653	-0.556779
C50	C	-1.096447	1.174586	-0.321807
C51	C	-1.079873	1.086734	-0.338332
C52	C	-1.078701	0.330063	-0.754489
C53	C	-1.078711	0.330047	-0.831351
C54	C	-1.191840	0.431150	-0.812324
C55	C	-1.191827	0.431169	-0.735463
C56	C	-1.135257	0.380621	-0.706548
C57	C	-1.135281	0.380586	-0.860271
C58	C	-1.135292	0.380569	-0.943608
C59	C	-1.135245	0.380639	-0.623206
C60	C	-1.135212	0.380749	-0.091803
C61	C	-1.135303	0.380554	-0.010041
H62	H	-0.583161	0.472567	-0.350996
O63	O	-0.692428	0.280941	-0.209077
C64	C	-0.633617	0.236260	-0.176022
H65	H	-0.584915	0.268633	-0.167335
H66	H	-0.614174	0.176267	-0.214348
C67	C	-0.721245	0.185004	-0.110547
C68	C	-0.661431	0.224768	-0.099871
H69	H	-0.738402	0.177911	-0.063575
H70	H	-0.760868	0.215104	-0.132819
H71	H	-0.705034	0.135014	-0.142488
H72	H	-0.677645	0.274760	-0.067939
H73	H	-0.621811	0.194676	-0.077592
O74	O	-0.979905	0.799098	-0.438208
C75	C	-0.999757	0.819198	-0.507791
H76	H	-1.039341	0.879112	-0.498076
H77	H	-1.028817	0.772701	-0.541346
C78	C	-0.880097	0.749443	-0.563526
C79	C	-0.928710	0.823033	-0.551594
H80	H	-0.836272	0.751806	-0.590548
H81	H	-0.866723	0.735898	-0.516647
H82	H	-0.904322	0.710703	-0.591486
H83	H	-0.904487	0.861770	-0.523627
H84	H	-0.942078	0.836585	-0.598469
O85	O	-0.540929	0.281048	-0.209165
C86	C	-0.466894	0.291890	-0.217217
H87	H	-0.467879	0.352920	-0.229743
H88	H	-0.436295	0.245062	-0.265291
C89	C	-0.424817	0.209587	-0.128765
C90	C	-0.426027	0.284549	-0.144144
H91	H	-0.399606	0.205056	-0.083692
H92	H	-0.474695	0.202281	-0.123342
H93	H	-0.399319	0.170573	-0.168833
H94	H	-0.451533	0.323561	-0.104082
H95	H	-0.376152	0.291862	-0.149559
O96	O	-1.097828	0.675235	-0.320435
C97	C	-1.117680	0.695335	-0.390018
H98	H	-1.157264	0.755249	-0.380304
H99	H	-1.146740	0.648838	-0.423574
C100	C	-0.998020	0.625580	-0.445753
C101	C	-1.046633	0.699171	-0.433822
H102	H	-0.954195	0.627943	-0.472776
H103	H	-0.984646	0.612036	-0.398875
H104	H	-1.022245	0.586840	-0.473713
H105	H	-1.022410	0.737907	-0.405854
H106	H	-1.060001	0.712722	-0.480697
O107	O	-0.956074	0.922966	-0.461858
C108	C	-0.924738	0.977102	-0.493203
H109	H	-0.933299	1.035960	-0.451990
H110	H	-0.953312	0.985833	-0.547472
C111	C	-0.829828	0.872644	-0.560422
C112	C	-0.840338	0.944933	-0.509801
H113	H	-0.777767	0.852800	-0.570665
H114	H	-0.850941	0.836170	-0.539308
H115	H	-0.853645	0.879929	-0.605641
H116	H	-0.816529	0.937645	-0.464580
H117	H	-0.819218	0.981405	-0.530909
O118	O	-0.986940	1.085669	-0.431259
C119	C	-1.037803	1.133342	-0.469879
H120	H	-1.095919	1.145673	-0.441660
H121	H	-1.039842	1.101496	-0.530414
C122	C	-0.940723	1.196633	-0.503072
C123	C	-1.012101	1.211785	-0.468409
H124	H	-0.924869	1.245019	-0.502169
H125	H	-0.906455	1.164513	-0.477056
H126	H	-0.942432	1.170093	-0.553515
H127	H	-1.010389	1.238315	-0.417966
H128	H	-1.046369	1.243911	-0.494418
H129	H	-1.237897	0.472303	-0.835876
O130	O	-1.172483	1.085651	-0.245899
C131	C	-1.177781	1.167360	-0.240595
H132	H	-1.155777	1.178629	-0.295251
H133	H	-1.143036	1.190829	-0.192497
C134	C	-1.287253	1.195850	-0.158815
C135	C	-1.260233	1.209691	-0.225946
H136	H	-1.338112	1.221963	-0.149775
H137	H	-1.283682	1.140801	-0.162385
H138	H	-1.258291	1.215408	-0.118741
H139	H	-1.289188	1.190125	-0.266020
H140	H	-1.263810	1.264738	-0.222382
H141	H	-1.237884	0.472342	-0.696427
H142	H	-0.722587	0.472566	-0.350983
O143	O	-1.057330	0.717624	-0.360587
C144	C	-1.033264	0.690095	-0.295220
H145	H	-1.054843	0.737672	-0.243893
H146	H	-0.969448	0.675503	-0.296346
C147	C	-1.037526	0.557031	-0.354668
C148	C	-1.064035	0.615464	-0.291628
H149	H	-1.056504	0.510993	-0.352453
H150	H	-1.053737	0.575576	-0.398709
H151	H	-0.984347	0.544881	-0.355600
H152	H	-1.117212	0.627620	-0.290702
H153	H	-1.047834	0.596919	-0.247587
H154	H	-1.210476	1.030084	-0.207926
O155	O	-1.023712	0.281048	-0.877930
C156	C	-0.984652	0.326036	-0.913920
H157	H	-0.991805	0.388293	-0.879036
H158	H	-1.007921	0.328744	-0.971664
C159	C	-0.892104	0.210956	-0.965200
C160	C	-0.900884	0.287420	-0.922352
H161	H	-0.840432	0.187135	-0.970405
H162	H	-0.918420	0.180646	-0.940955
H163	H	-0.911499	0.213224	-1.013316
H164	H	-0.881498	0.285151	-0.874235
H165	H	-0.874562	0.317729	-0.946589
H166	H	-1.281785	0.955189	-0.136701
H167	H	-1.277275	0.681593	-0.141127
O168	O	-1.314227	0.837870	-0.104452
C169	C	-1.370719	0.885583	-0.137415
H170	H	-1.370542	0.860677	-0.200065
H171	H	-1.359757	0.948155	-0.128163
C172	C	-1.447694	0.917412	-0.024343
C173	C	-1.447480	0.886818	-0.101290
H174	H	-1.495043	0.918177	-0.002057
H175	H	-1.409633	0.885270	-0.002134
H176	H	-1.438556	0.969553	-0.016643
H177	H	-1.456608	0.834675	-0.108988
H178	H	-1.485544	0.918952	-0.123499
O179	O	-1.023673	0.280944	-0.726518
C180	C	-0.973767	0.236306	-0.785320
H181	H	-0.977316	0.268666	-0.834014
H182	H	-0.989434	0.176274	-0.804798
C183	C	-0.888936	0.185178	-0.697657
C184	C	-0.893290	0.224928	-0.757461
H185	H	-0.839294	0.178156	-0.680472
H186	H	-0.922559	0.215250	-0.658040
H187	H	-0.901995	0.135156	-0.713897
H188	H	-0.880240	0.274953	-0.741218
H189	H	-0.859662	0.194864	-0.797074
