data_functionalizedCrystal
_audit_creation_method	'MofGen! by Chris Wilmer'
_symmetry_space_group_name_H-M	'P1'
_symmetry_Int_Tables_number	1
_symmetry_cell_setting	triclinic
loop_
_symmetry_equiv_pos_as_xyz
  x,y,z
_cell_length_a	17.077404
_cell_length_b	18.050590
_cell_length_c	17.077396
_cell_angle_alpha	90.029775
_cell_angle_beta	90.019501
_cell_angle_gamma	90.018777
loop_
_atom_site_label
_atom_site_type_symbol
_atom_site_fract_x
_atom_site_fract_y
_atom_site_fract_z
Zn1	Zn	1.200078	-0.295655	0.443836
Zn2	Zn	1.199995	-0.419852	0.312567
Zn3	Zn	1.068810	-0.295681	0.312584
Zn4	Zn	1.068788	-0.419808	0.443790
O5	O	1.134418	-0.357749	0.378194
O6	O	1.309914	-0.312138	0.426434
O7	O	1.182568	-0.403410	0.202722
O8	O	1.086267	-0.191753	0.330021
O9	O	1.309853	-0.403385	0.329992
O10	O	1.182709	-0.191734	0.426451
O11	O	1.086187	-0.312182	0.202734
O12	O	0.958960	-0.312139	0.329977
O13	O	1.086229	-0.403310	0.553643
O14	O	0.958944	-0.403335	0.426374
O15	O	1.182688	-0.312095	0.553677
O16	O	1.182546	-0.523771	0.329948
O17	O	1.086149	-0.523739	0.426357
C18	C	0.930470	-0.357736	0.378172
C19	C	0.843220	-0.357748	0.378182
C20	C	0.802242	-0.405305	0.428295
C21	C	0.720262	-0.405307	0.428308
C22	C	0.679261	-0.357754	0.378202
C23	C	0.720245	-0.310192	0.328087
C24	C	0.802224	-0.310187	0.328079
C25	C	0.549375	-0.310206	0.328106
C26	C	0.467390	-0.310212	0.328112
C27	C	0.467413	-0.405326	0.428335
C28	C	0.549392	-0.405321	0.428327
C29	C	0.590370	-0.357760	0.378210
C30	C	1.134358	-0.550701	0.378163
C31	C	1.134404	-0.633247	0.378176
C32	C	1.186934	-0.832688	0.325821
C33	C	1.206108	-0.882019	0.397464
C34	C	1.134448	-0.784377	0.378207
C35	C	1.115353	-0.882128	0.306596
C36	C	1.134493	-0.930362	0.378231
C37	C	1.153660	-0.832621	0.449887
C38	C	1.062871	-0.832726	0.358971
C39	C	1.082019	-0.882034	0.430663
C40	C	1.134424	-0.700279	0.378192
C41	C	1.134516	-1.014459	0.378254
C42	C	1.339162	-0.357763	0.378216
C43	C	1.426412	-0.357769	0.378226
C44	C	1.134465	-0.357694	0.582938
C45	C	1.134486	-0.357671	0.670188
C46	C	1.134500	-0.164043	0.378243
C47	C	1.134535	-0.081498	0.378263
C48	C	1.134416	-0.357750	0.174246
C49	C	1.134548	-0.357564	0.086997
C50	C	1.184713	-0.310172	0.711197
C51	C	1.184723	-0.310147	0.793178
C52	C	1.134508	-0.357626	0.834148
C53	C	1.084275	-0.405127	0.793133
C54	C	1.084262	-0.405148	0.711154
C55	C	1.084306	-0.405083	0.964003
C56	C	1.084320	-0.405064	1.045988
C57	C	1.184767	-0.310082	1.046027
C58	C	1.184754	-0.310102	0.964048
C59	C	1.134522	-0.357605	0.923039
H60	H	0.582736	-0.271470	0.287302
H61	H	0.835587	-0.271457	0.287275
H62	H	1.043429	-0.443724	1.079344
C63	C	1.246256	-0.803830	0.266915
C64	C	1.321114	-0.828792	0.287438
C65	C	1.375783	-0.802214	0.233203
H66	H	1.233280	-0.821491	0.216135
H67	H	1.245546	-0.751202	0.266994
H68	H	1.321821	-0.881409	0.287351
H69	H	1.334114	-0.811133	0.338209
H70	H	1.375073	-0.749585	0.233282
H71	H	1.362799	-0.819876	0.182426
H72	H	1.426581	-0.819140	0.247124
H73	H	0.686855	-0.271471	0.287293
H74	H	0.686901	-0.444033	0.469114
H75	H	1.043389	-0.443753	0.930617
C76	C	0.593952	-0.457039	0.482596
C77	C	0.640971	-0.504592	0.438053
C78	C	0.682024	-0.552248	0.488021
H79	H	0.626019	-0.428751	0.516861
H80	H	0.557834	-0.485408	0.512434
H81	H	0.677085	-0.476226	0.408229
H82	H	0.608924	-0.532896	0.403790
H83	H	0.645906	-0.580618	0.517859
H84	H	0.714086	-0.523954	0.522283
H85	H	0.713925	-0.584523	0.457806
C86	C	1.239264	-0.258540	0.666860
C87	C	1.283237	-0.216922	0.720325
C88	C	1.333489	-0.169342	0.679514
H89	H	1.273520	-0.286875	0.634876
H90	H	1.209262	-0.226148	0.634901
H91	H	1.313237	-0.249310	0.752271
H92	H	1.249002	-0.188572	0.752311
H93	H	1.303486	-0.136949	0.647554
H94	H	1.367740	-0.197682	0.647531
H95	H	1.363325	-0.141094	0.715783
H96	H	1.266659	-0.903674	0.413749
C97	C	1.029885	-0.456768	0.837655
C98	C	1.074319	-0.504374	0.884698
C99	C	1.024243	-0.551963	0.925712
H100	H	0.995685	-0.428435	0.869702
H101	H	0.999981	-0.485103	0.801514
H102	H	1.104209	-0.476042	0.920835
H103	H	1.108516	-0.532723	0.852670
H104	H	0.994339	-0.580298	0.889571
H105	H	0.990046	-0.523624	0.957755
H106	H	1.054384	-0.584274	0.957630
C107	C	1.239209	-0.258523	1.090688
C108	C	1.228454	-0.268644	1.171251
C109	C	1.278581	-0.221155	1.212420
H110	H	1.291979	-0.269347	1.077361
H111	H	1.227727	-0.208614	1.077302
H112	H	1.239942	-0.318542	1.184631
H113	H	1.175694	-0.257815	1.184601
H114	H	1.267099	-0.171246	1.199034
H115	H	1.331348	-0.231983	1.199086
H116	H	1.271286	-0.228011	1.267086
H117	H	1.225625	-0.271470	0.826563
H118	H	1.002338	-0.811055	0.342665
C119	C	0.846713	-0.456842	0.482829
C120	C	0.826824	-0.440750	0.560528
C121	C	0.867780	-0.488203	0.610790
H122	H	0.833292	-0.506755	0.471354
H123	H	0.901413	-0.450024	0.475701
H124	H	0.772136	-0.447574	0.567652
H125	H	0.840247	-0.390846	0.572027
H126	H	0.922481	-0.481385	0.603662
H127	H	0.854356	-0.538113	0.599308
H128	H	0.854297	-0.477286	0.663514
C129	C	0.422785	-0.456881	0.482723
C130	C	0.342216	-0.446693	0.472026
C131	C	0.301077	-0.494165	0.522118
H132	H	0.436104	-0.506795	0.471186
H133	H	0.436204	-0.446069	0.535501
H134	H	0.328802	-0.457510	0.419261
H135	H	0.328873	-0.396789	0.483569
H136	H	0.314497	-0.483354	0.574896
H137	H	0.314403	-0.544076	0.510577
H138	H	0.246407	-0.487255	0.514872
H139	H	1.037653	-0.903564	0.475026
C140	C	1.175343	-0.803611	0.530610
C141	C	1.175118	-0.726050	0.529641
C142	C	1.195102	-0.699299	0.603983
H143	H	1.138341	-0.820821	0.567928
H144	H	1.226066	-0.820857	0.544374
H145	H	1.124402	-0.708811	0.515888
H146	H	1.212121	-0.708819	0.492340
H147	H	1.245825	-0.716545	0.617747
H148	H	1.158098	-0.716515	0.641294
H149	H	1.194959	-0.646672	0.603334
C150	C	1.029710	-0.456812	0.666769
C151	C	0.985756	-0.498407	0.720193
C152	C	0.935503	-0.546017	0.679335
H153	H	0.995442	-0.428499	0.634783
H154	H	1.059711	-0.489217	0.634807
H155	H	0.955757	-0.466006	0.752141
H156	H	1.020003	-0.526735	0.752181
H157	H	0.965503	-0.578422	0.647373
H158	H	0.901240	-0.517699	0.647350
H159	H	0.905679	-0.574250	0.715577
C160	C	1.093895	-0.911020	0.225766
C161	C	1.149007	-0.886000	0.171153
C162	C	1.129266	-0.912590	0.096681
H163	H	1.093611	-0.963640	0.226364
H164	H	1.043403	-0.893395	0.211690
H165	H	1.199485	-0.903629	0.185224
H166	H	1.149299	-0.833384	0.170529
H167	H	1.078775	-0.894965	0.082606
H168	H	1.128982	-0.965209	0.097288
H169	H	1.166652	-0.895613	0.059616
C170	C	1.239304	-0.258474	0.919705
C171	C	1.283283	-0.216854	0.973163
C172	C	1.333533	-0.169278	0.932344
H173	H	1.273556	-0.286812	0.887720
H174	H	1.209300	-0.226083	0.887745
H175	H	1.313284	-0.249241	1.005109
H176	H	1.249051	-0.188500	1.005150
H177	H	1.303529	-0.136887	0.900384
H178	H	1.367780	-0.197622	0.900360
H179	H	1.363373	-0.141028	0.968608
H180	H	0.434009	-0.271482	0.287321
