data_functionalizedCrystal
_audit_creation_method	'MofGen! by Chris Wilmer'
_symmetry_space_group_name_H-M	'P1'
_symmetry_Int_Tables_number	1
_symmetry_cell_setting	triclinic
loop_
_symmetry_equiv_pos_as_xyz
  x,y,z
_cell_length_a	16.959455
_cell_length_b	29.839131
_cell_length_c	16.959447
_cell_angle_alpha	89.966004
_cell_angle_beta	89.982678
_cell_angle_gamma	90.040848
loop_
_atom_site_label
_atom_site_type_symbol
_atom_site_fract_x
_atom_site_fract_y
_atom_site_fract_z
Zn1	Zn	1.208287	-0.178851	-0.446897
Zn2	Zn	1.708287	0.321149	0.053103
Zn3	Zn	1.208154	-0.253984	-0.314710
Zn4	Zn	1.708154	0.246016	0.185290
Zn5	Zn	1.076109	-0.178868	-0.314734
Zn6	Zn	1.576109	0.321132	0.185266
Zn7	Zn	1.076031	-0.253954	-0.446848
Zn8	Zn	1.576031	0.246046	0.053152
O9	O	1.142145	-0.216414	-0.380797
O10	O	1.642145	0.283586	0.119203
O11	O	1.318880	-0.188823	-0.429373
O12	O	1.818880	0.311177	0.070627
O13	O	1.190615	-0.244040	-0.204102
O14	O	1.690615	0.255960	0.295898
O15	O	1.093731	-0.115999	-0.332296
O16	O	1.593731	0.384001	0.167704
O17	O	1.318783	-0.244023	-0.332256
O18	O	1.818783	0.255977	0.167744
O19	O	1.190842	-0.115986	-0.429396
O20	O	1.690842	0.384014	0.070604
O21	O	1.093603	-0.188853	-0.204119
O22	O	1.593603	0.311147	0.295881
O23	O	0.965488	-0.188823	-0.332248
O24	O	1.465488	0.311177	0.167752
O25	O	1.093598	-0.243971	-0.557465
O26	O	1.593598	0.256029	-0.057465
O27	O	0.965430	-0.243988	-0.429312
O28	O	1.465430	0.256012	0.070688
O29	O	1.190766	-0.188793	-0.557501
O30	O	1.690766	0.311207	-0.057501
O31	O	1.190539	-0.316847	-0.332208
O32	O	1.690539	0.183153	0.167792
O33	O	1.093469	-0.316825	-0.429289
O34	O	1.593469	0.183175	0.070711
C35	C	0.936779	-0.216405	-0.380778
C36	C	1.436779	0.283595	0.119222
C37	C	0.848922	-0.216411	-0.380788
C38	C	1.348922	0.283589	0.119212
C39	C	0.807596	-0.245111	-0.330152
C40	C	1.307596	0.254889	0.169848
C41	C	0.807696	-0.187716	-0.431431
C42	C	1.307696	0.312284	0.068569
C43	C	0.725150	-0.187719	-0.431440
C44	C	1.225150	0.312281	0.068560
C45	C	0.683823	-0.216418	-0.380804
C46	C	1.183823	0.283582	0.119196
C47	C	0.725042	-0.245114	-0.330158
C48	C	1.225042	0.254886	0.169842
C49	C	0.683924	-0.159021	-0.482079
C50	C	1.183924	0.340979	0.017921
C51	C	0.601373	-0.159023	-0.482090
C52	C	1.101373	0.340977	0.017910
C53	C	0.560045	-0.187725	-0.431457
C54	C	1.060045	0.312275	0.068543
C55	C	0.601270	-0.216422	-0.380810
C56	C	1.101270	0.283578	0.119190
C57	C	0.559943	-0.245121	-0.330174
C58	C	1.059943	0.254879	0.169826
C59	C	0.601166	-0.273821	-0.279530
C60	C	1.101166	0.226179	0.220470
C61	C	0.683714	-0.273816	-0.279525
C62	C	1.183714	0.226184	0.220475
C63	C	0.477497	-0.187730	-0.431462
C64	C	0.977497	0.312270	0.068538
C65	C	0.477389	-0.245125	-0.330180
C66	C	0.977389	0.254875	0.169820
C67	C	1.142003	-0.333137	-0.380758
C68	C	1.642003	0.166863	0.119242
C69	C	1.142014	-0.383071	-0.380768
C70	C	1.642014	0.116929	0.119232
C71	C	1.192782	-0.692714	-0.330321
C72	C	1.692782	-0.192714	0.169679
C73	C	1.192879	-0.880387	-0.330352
C74	C	1.692879	-0.380387	0.169648
O75	O	1.235931	-0.904651	-0.287430
O76	O	1.735931	-0.404651	0.212570
N77	N	1.142309	-0.903856	-0.380857
N78	N	1.642309	-0.403856	0.119143
C79	C	1.091715	-0.880405	-0.431361
C80	C	1.591715	-0.380405	0.068639
O81	O	1.048710	-0.904674	-0.474326
O82	O	1.548710	-0.404674	0.025674
C83	C	1.091622	-0.692733	-0.431334
C84	C	1.591622	-0.192733	0.068666
C85	C	1.142190	-0.669266	-0.380820
C86	C	1.642190	-0.169266	0.119180
C87	C	1.243346	-0.669247	-0.279811
C88	C	1.743346	-0.169247	0.220189
C89	C	1.243318	-0.622331	-0.279801
C90	C	1.743318	-0.122331	0.220199
C91	C	1.192726	-0.598883	-0.330300
C92	C	1.692726	-0.098883	0.169700
C93	C	1.142162	-0.622350	-0.380810
C94	C	1.642162	-0.122350	0.119190
C95	C	1.041032	-0.669282	-0.481842
C96	C	1.541032	-0.169282	0.018158
C97	C	1.041015	-0.622361	-0.481832
C98	C	1.541015	-0.122361	0.018168
C99	C	1.091582	-0.598894	-0.431318
C100	C	1.591582	-0.098894	0.068682
C101	C	1.091541	-0.551986	-0.431299
C102	C	1.591541	-0.051986	0.068701
N103	N	1.142112	-0.528517	-0.380794
N104	N	1.642112	-0.028517	0.119206
C105	C	1.192704	-0.551965	-0.330294
C106	C	1.692704	-0.051965	0.169706
C107	C	1.091766	-0.978936	-0.431371
C108	C	1.591766	-0.478936	0.068629
C109	C	1.091788	-1.025853	-0.431377
C110	C	1.591788	-0.525853	0.068623
C111	C	1.192954	-1.025832	-0.330368
C112	C	1.692954	-0.525832	0.169632
C113	C	1.192927	-0.978913	-0.330359
C114	C	1.692927	-0.478913	0.169641
C115	C	1.142336	-0.955466	-0.380866
C116	C	1.642336	-0.455466	0.119134
C117	C	1.192641	-0.453439	-0.330276
C118	C	1.692641	0.046561	0.169724
C119	C	1.192606	-0.406520	-0.330268
C120	C	1.692606	0.093480	0.169732
C121	C	1.091444	-0.406545	-0.431280
C122	C	1.591444	0.093455	0.068720
C123	C	1.091475	-0.453461	-0.431285
C124	C	1.591475	0.046539	0.068715
C125	C	1.142080	-0.476907	-0.380781
C126	C	1.642080	0.023093	0.119219
O127	O	1.048519	-0.527694	-0.474204
O128	O	1.548519	-0.027694	0.025796
O129	O	1.235715	-0.527688	-0.287349
O130	O	1.735715	-0.027688	0.212651
C131	C	1.192810	-0.739629	-0.330331
C132	C	1.692810	-0.239629	0.169669
C133	C	1.142245	-0.763096	-0.380840
C134	C	1.642245	-0.263096	0.119160
C135	C	1.091653	-0.739648	-0.431340
C136	C	1.591653	-0.239648	0.068660
C137	C	1.142268	-0.810014	-0.380846
C138	C	1.642268	-0.310014	0.119154
C139	C	1.192860	-0.833463	-0.330347
C140	C	1.692860	-0.333463	0.169653
C141	C	1.243430	-0.809993	-0.279842
C142	C	1.743430	-0.309993	0.220158
C143	C	1.243402	-0.763077	-0.279832
C144	C	1.743402	-0.263077	0.220168
C145	C	1.041083	-0.763118	-0.481845
C146	C	1.541083	-0.263118	0.018155
C147	C	1.041115	-0.810033	-0.481850
C148	C	1.541115	-0.310033	0.018150
C149	C	1.091707	-0.833482	-0.431351
C150	C	1.591707	-0.333482	0.068649
C151	C	1.348314	-0.216425	-0.380817
C152	C	1.848314	0.283575	0.119183
C153	C	1.436170	-0.216429	-0.380826
C154	C	1.936170	0.283571	0.119174
C155	C	1.142188	-0.216377	-0.586965
C156	C	1.642188	0.283623	-0.086965
C157	C	1.142206	-0.216361	-0.674822
C158	C	1.642206	0.283639	-0.174822
C159	C	1.142310	-0.099236	-0.380854
C160	C	1.642310	0.400764	0.119146
C161	C	1.142380	-0.049302	-0.380878
C162	C	1.642380	0.450698	0.119122
C163	C	1.091765	-0.187580	-1.046313
C164	C	1.591765	0.312420	-0.546313
C165	C	1.192785	-0.245047	-1.046283
C166	C	1.692785	0.254953	-0.546283
C167	C	1.192772	-0.245058	-0.963737
C168	C	1.692772	0.254942	-0.463737
C169	C	1.142253	-0.216330	-0.922475
C170	C	1.642253	0.283670	-0.422475
C171	C	1.091748	-0.187591	-0.963760
C172	C	1.591748	0.312409	-0.463760
C173	C	1.243270	-0.273799	-0.922446
C174	C	1.743270	0.226201	-0.422446
C175	C	1.243258	-0.273811	-0.839895
C176	C	1.743258	0.226189	-0.339895
C177	C	1.192743	-0.245080	-0.798632
C178	C	1.692743	0.254920	-0.298632
C179	C	1.142236	-0.216340	-0.839922
C180	C	1.642236	0.283660	-0.339922
C181	C	1.091718	-0.187612	-0.798660
C182	C	1.591718	0.312388	-0.298660
C183	C	1.041215	-0.158869	-0.839948
C184	C	1.541215	0.341131	-0.339948
C185	C	1.041233	-0.158860	-0.922496
C186	C	1.541233	0.341140	-0.422496
C187	C	1.192724	-0.245089	-0.716084
C188	C	1.692724	0.254911	-0.216084
C189	C	1.091701	-0.187622	-0.716106
C190	C	1.591701	0.312378	-0.216106
C191	C	1.142149	-0.216419	-0.175431
C192	C	1.642149	0.283581	0.324569
C193	C	1.142284	-0.216309	-0.087575
C194	C	1.642284	0.283691	0.412425
H195	H	0.841349	-0.164348	-0.472653
H196	H	1.341349	0.335652	0.027347
C197	C	0.810511	-0.133537	-0.527038
C198	C	1.310511	0.366463	-0.027038
C199	C	0.729350	-0.127476	-0.537735
C200	C	1.229350	0.372524	-0.037735
H201	H	0.838556	-0.114063	-0.561403
H202	H	1.338556	0.385937	-0.061403
H203	H	0.824022	-0.126927	-0.473954
H204	H	1.324022	0.373073	0.026046
H205	H	0.823997	-0.163731	-0.538515
H206	H	1.323997	0.336269	-0.038515
H207	H	0.715863	-0.097282	-0.526252
H208	H	1.215863	0.402718	-0.026252
H209	H	0.715833	-0.134082	-0.590830
H210	H	1.215833	0.365918	-0.090830
H211	H	1.050566	-0.164226	-0.682517
H212	H	1.550566	0.335774	-0.182517
H213	H	1.284390	-0.297193	-0.956047
H214	H	1.784390	0.202807	-0.456047
H215	H	0.567817	-0.135654	-0.523328
H216	H	1.067817	0.364346	-0.023328
C217	C	0.900353	-0.305532	-0.318978
C218	C	1.400353	0.194468	0.181022
C219	C	0.852906	-0.276655	-0.274486
C220	C	1.352906	0.223345	0.225514
H221	H	0.928329	-0.325004	-0.284610
H222	H	1.428329	0.174996	0.215390
H223	H	0.868140	-0.322738	-0.353357
H224	H	1.368140	0.177262	0.146643
H225	H	0.936776	-0.288435	-0.349131
H226	H	1.436776	0.211565	0.150869
H227	H	0.816478	-0.293752	-0.244337
H228	H	1.316478	0.206248	0.255663
H229	H	0.885122	-0.259447	-0.240093
H230	H	1.385122	0.240553	0.259907
H231	H	0.443937	-0.164359	-0.472690
H232	H	0.943937	0.335641	0.027310
H233	H	1.284549	-0.688333	-0.238689
H234	H	1.784549	-0.188333	0.261311
C235	C	0.575665	-0.295618	-0.145618
C236	C	1.075665	0.204382	0.354382
C237	C	0.555733	-0.305366	-0.223870
C238	C	1.055733	0.194634	0.276130
H239	H	0.547610	-0.315091	-0.111259
H240	H	1.047610	0.184909	0.388741
H241	H	0.630719	-0.299730	-0.138370
H242	H	1.130719	0.200270	0.361630
H243	H	0.562169	-0.265424	-0.134154
H244	H	1.062169	0.234576	0.365846
H245	H	0.569235	-0.335559	-0.235336
H246	H	1.069235	0.164441	0.264664
H247	H	0.500666	-0.301258	-0.231121
H248	H	1.000666	0.198742	0.268879
C249	C	1.292612	-0.411218	-0.230426
C250	C	1.792612	0.088782	0.269574
C251	C	1.248198	-0.380725	-0.274743
C252	C	1.748198	0.119275	0.225257
H253	H	1.326934	-0.395294	-0.196153
H254	H	1.826934	0.104706	0.303847
H255	H	1.258202	-0.429549	-0.200166
H256	H	1.758202	0.070451	0.299834
H257	H	1.322832	-0.429487	-0.264907
H258	H	1.822832	0.070513	0.235093
H259	H	1.217973	-0.362459	-0.240262
H260	H	1.717973	0.137541	0.259738
H261	H	1.282612	-0.362387	-0.305006
H262	H	1.782612	0.137613	0.194994
C263	C	0.776487	-0.334229	-0.268346
C264	C	1.276487	0.165771	0.231654
C265	C	0.729032	-0.305356	-0.223857
C266	C	1.229032	0.194644	0.276143
H267	H	0.804470	-0.353697	-0.233977
H268	H	1.304470	0.146303	0.266023
H269	H	0.744280	-0.351440	-0.302724
H270	H	1.244280	0.148560	0.197276
H271	H	0.812905	-0.317129	-0.298501
H272	H	1.312905	0.182871	0.201499
H273	H	0.692609	-0.322456	-0.193706
H274	H	1.192609	0.177544	0.306294
H275	H	0.761242	-0.288144	-0.189466
H276	H	1.261242	0.211856	0.310534
H277	H	1.284622	-0.829093	-0.238722
H278	H	1.784622	-0.329093	0.261278
C279	C	1.299034	-0.506124	-0.319401
C280	C	1.799034	-0.006124	0.180599
C281	C	1.248278	-0.479201	-0.274767
C282	C	1.748278	0.020799	0.225233
H283	H	1.333386	-0.522024	-0.285131
H284	H	1.833386	-0.022024	0.214869
H285	H	1.268929	-0.526822	-0.349465
H286	H	1.768929	-0.026822	0.150535
H287	H	1.329219	-0.487782	-0.353871
H288	H	1.829219	0.012218	0.146129
H289	H	1.218089	-0.497544	-0.240301
H290	H	1.718089	0.002456	0.259699
H291	H	1.278387	-0.458501	-0.244690
H292	H	1.778387	0.041499	0.255310
H293	H	1.000080	-0.135480	-0.806342
H294	H	1.500080	0.364520	-0.306342
H295	H	0.999886	-0.744030	-0.522968
H296	H	1.499886	-0.244030	-0.022968
H297	H	1.000116	-0.135460	-0.956120
H298	H	1.500116	0.364540	-0.456120
C299	C	1.343328	-0.627037	-0.179975
C300	C	1.843328	-0.127037	0.320025
C301	C	1.298916	-0.596540	-0.224286
C302	C	1.798916	-0.096540	0.275714
H303	H	1.377659	-0.611116	-0.145706
H304	H	1.877659	-0.111116	0.354294
H305	H	1.308916	-0.645365	-0.149709
H306	H	1.808916	-0.145365	0.350291
H307	H	1.373538	-0.645309	-0.214460
H308	H	1.873538	-0.145309	0.285540
H309	H	1.268702	-0.578270	-0.189801
H310	H	1.768702	-0.078270	0.310199
H311	H	1.333332	-0.578205	-0.254553
H312	H	1.833332	-0.078205	0.245447
C313	C	1.349554	-0.280067	-0.747072
C314	C	1.849554	0.219933	-0.247072
C315	C	1.298772	-0.305401	-0.794512
C316	C	1.798772	0.194599	-0.294512
H317	H	1.383824	-0.299570	-0.719050
H318	H	1.883824	0.200430	-0.219050
H319	H	1.379819	-0.260496	-0.779295
H320	H	1.879819	0.239504	-0.279295
H321	H	1.319457	-0.262961	-0.710688
H322	H	1.819457	0.237039	-0.210688
H323	H	1.328869	-0.322505	-0.830900
H324	H	1.828869	0.177495	-0.330900
H325	H	1.268504	-0.324980	-0.762286
H326	H	1.768504	0.175020	-0.262286
C327	C	1.052874	-0.392063	-0.565088
C328	C	1.552874	0.107937	-0.065088
C329	C	1.035842	-0.380764	-0.486794
C330	C	1.535842	0.119236	0.013206
H331	H	1.018549	-0.376147	-0.599363
H332	H	1.518549	0.123853	-0.099363
H333	H	1.105970	-0.384342	-0.576684
H334	H	1.605970	0.115658	-0.076684
H335	H	1.045640	-0.423364	-0.572317
H336	H	1.545640	0.076636	-0.072317
H337	H	1.043082	-0.349463	-0.479564
H338	H	1.543082	0.150537	0.020436
H339	H	0.982734	-0.388482	-0.475194
H340	H	1.482734	0.111518	0.024806
C341	C	0.451877	-0.321174	-0.291442
C342	C	0.951877	0.178826	0.208558
C343	C	0.431968	-0.276673	-0.274517
C344	C	0.931968	0.223327	0.225483
H345	H	0.423839	-0.340650	-0.257075
H346	H	0.923839	0.159350	0.242925
H347	H	0.438353	-0.327780	-0.344524
H348	H	0.938353	0.172220	0.155476
H349	H	0.506942	-0.325273	-0.284193
H350	H	1.006942	0.174727	0.215807
H351	H	0.376904	-0.272573	-0.281772
H352	H	0.876904	0.227427	0.218228
H353	H	0.445486	-0.270065	-0.221422
H354	H	0.945486	0.229935	0.278578
C355	C	1.292924	-0.983616	-0.230517
C356	C	1.792924	-0.483616	0.269483
C357	C	1.248517	-0.953121	-0.274837
C358	C	1.748517	-0.453121	0.225163
H359	H	1.327247	-0.967693	-0.196244
H360	H	1.827247	-0.467693	0.303756
H361	H	1.258508	-1.001944	-0.200257
H362	H	1.758508	-0.501944	0.299743
H363	H	1.323141	-1.001887	-0.264996
H364	H	1.823141	-0.501887	0.235004
H365	H	1.218295	-0.934851	-0.240359
H366	H	1.718295	-0.434851	0.259641
H367	H	1.282937	-0.934785	-0.305100
H368	H	1.782937	-0.434785	0.194900
C369	C	1.237987	-1.097748	-0.285624
C370	C	1.737987	-0.597748	0.214376
C371	C	1.248626	-1.051612	-0.274918
C372	C	1.748626	-0.551612	0.225082
H373	H	1.272378	-1.113664	-0.251415
H374	H	1.772378	-0.613664	0.248585
H375	H	1.184915	-1.105484	-0.273947
H376	H	1.684915	-0.605484	0.226053
H377	H	1.249466	-1.105386	-0.338769
H378	H	1.749466	-0.605386	0.161231
H379	H	1.237142	-1.043974	-0.221774
H380	H	1.737142	-0.543974	0.278226
H381	H	1.301710	-1.043873	-0.286589
H382	H	1.801710	-0.543873	0.213411
H383	H	1.233909	-0.268440	-1.079883
H384	H	1.733909	0.231560	-0.579883
C385	C	0.991794	-1.021150	-0.531222
C386	C	1.491794	-0.521150	-0.031222
C387	C	1.036198	-1.051645	-0.486899
C388	C	1.536198	-0.551645	0.013101
H389	H	0.957481	-1.037073	-0.565506
H390	H	1.457481	-0.537073	-0.065506
H391	H	0.961573	-1.002883	-0.496752
H392	H	1.461573	-0.502883	0.003248
H393	H	1.026218	-1.002818	-0.561479
H394	H	1.526218	-0.502818	-0.061479
H395	H	1.001774	-1.069975	-0.456638
H396	H	1.501774	-0.569975	0.043362
H397	H	1.066421	-1.069920	-0.521374
H398	H	1.566421	-0.569920	-0.021374
C399	C	1.080673	-0.926148	-0.537697
C400	C	1.580673	-0.426148	-0.037697
C401	C	1.036145	-0.953167	-0.486891
C402	C	1.536145	-0.453167	0.013109
H403	H	1.046332	-0.910244	-0.571973
H404	H	1.546332	-0.410244	-0.071973
H405	H	1.110775	-0.905453	-0.507624
H406	H	1.610775	-0.405453	-0.007624
H407	H	1.115103	-0.944424	-0.567961
H408	H	1.615103	-0.444424	-0.067961
H409	H	1.001720	-0.934890	-0.456623
H410	H	1.501720	-0.434890	0.043377
H411	H	1.006030	-0.973865	-0.516967
H412	H	1.506030	-0.473865	-0.016967
C413	C	0.941053	-0.664570	-0.581698
C414	C	1.441053	-0.164570	-0.081698
C415	C	0.985450	-0.695069	-0.537376
C416	C	1.485450	-0.195069	-0.037376
H417	H	0.906742	-0.680491	-0.615988
H418	H	1.406742	-0.180491	-0.115988
H419	H	0.910829	-0.646305	-0.547227
H420	H	1.410829	-0.146305	-0.047227
H421	H	0.975481	-0.646237	-0.611948
H422	H	1.475481	-0.146237	-0.111948
H423	H	0.951023	-0.713400	-0.507121
H424	H	1.451023	-0.213400	-0.007121
H425	H	1.015676	-0.713342	-0.571851
H426	H	1.515676	-0.213342	-0.071851
C427	C	1.029941	-0.569566	-0.588146
C428	C	1.529941	-0.069566	-0.088146
C429	C	0.985402	-0.596588	-0.537353
C430	C	1.485402	-0.096588	-0.037353
H431	H	0.995607	-0.553658	-0.622423
H432	H	1.495607	-0.053658	-0.122423
H433	H	1.060042	-0.548875	-0.558063
H434	H	1.560042	-0.048875	-0.058063
H435	H	1.064372	-0.587842	-0.618409
H436	H	1.564372	-0.087842	-0.118409
H437	H	0.950975	-0.578311	-0.507085
H438	H	1.450975	-0.078311	-0.007085
H439	H	0.955288	-0.617281	-0.567439
H440	H	1.455288	-0.117281	-0.067439
C441	C	0.985167	-0.506283	-0.442188
C442	C	1.485167	-0.006283	0.057812
C443	C	1.035883	-0.479257	-0.486805
C444	C	1.535883	0.020743	0.013195
H445	H	0.950847	-0.522203	-0.476469
H446	H	1.450847	-0.022203	0.023531
H447	H	1.015302	-0.526964	-0.412127
H448	H	1.515302	-0.026964	0.087873
H449	H	0.954945	-0.488010	-0.407716
H450	H	1.454945	0.011990	0.092284
H451	H	1.066109	-0.497531	-0.521273
H452	H	1.566109	0.002469	-0.021273
H453	H	1.005744	-0.458574	-0.516879
H454	H	1.505744	0.041426	-0.016879
C455	C	1.203588	-0.305531	-0.623212
C456	C	1.703588	0.194469	-0.123212
C457	C	1.248227	-0.276682	-0.670698
C458	C	1.748227	0.223318	-0.170698
H459	H	1.237857	-0.325037	-0.595197
H460	H	1.737857	0.174963	-0.095197
H461	H	1.173510	-0.288420	-0.586829
H462	H	1.673510	0.211580	-0.086829
H463	H	1.169132	-0.322707	-0.655408
H464	H	1.669132	0.177293	-0.155408
H465	H	1.282680	-0.259503	-0.638501
H466	H	1.782680	0.240497	-0.138501
H467	H	1.278319	-0.293794	-0.707085
H468	H	1.778319	0.206206	-0.207085
H469	H	1.284579	-0.743974	-0.238699
H470	H	1.784579	-0.243974	0.261301
H471	H	1.050649	-0.164177	-1.079933
H472	H	1.550649	0.335823	-0.579933
H473	H	0.999929	-0.829136	-0.522984
H474	H	1.499929	-0.329136	-0.022984
