data_functionalizedCrystal
_audit_creation_method	'MofGen! by Chris Wilmer'
_symmetry_space_group_name_H-M	'P1'
_symmetry_Int_Tables_number	1
_symmetry_cell_setting	triclinic
loop_
_symmetry_equiv_pos_as_xyz
  x,y,z
_cell_length_a	12.594517
_cell_length_b	18.050590
_cell_length_c	12.594510
_cell_angle_alpha	89.961050
_cell_angle_beta	89.978880
_cell_angle_gamma	90.018352
loop_
_atom_site_label
_atom_site_type_symbol
_atom_site_fract_x
_atom_site_fract_y
_atom_site_fract_z
Zn1	Zn	1.627246	-0.295596	-0.601826
Zn2	Zn	2.127246	0.204404	-0.101826
Zn3	Zn	1.627130	-0.419813	-0.423833
Zn4	Zn	2.127130	0.080187	0.076167
Zn5	Zn	1.449251	-0.295641	-0.423855
Zn6	Zn	1.949251	0.204359	0.076145
Zn7	Zn	1.449225	-0.419748	-0.601763
Zn8	Zn	1.949225	0.080252	-0.101763
O9	O	1.538213	-0.357700	-0.512819
O10	O	2.038213	0.142300	-0.012819
O11	O	1.776177	-0.312082	-0.578232
O12	O	2.276177	0.187918	-0.078232
O13	O	1.603496	-0.403388	-0.274890
O14	O	2.103496	0.096612	0.225110
O15	O	1.472922	-0.191711	-0.447499
O16	O	1.972922	0.308289	0.052501
O17	O	1.776091	-0.403344	-0.447462
O18	O	2.276091	0.096656	0.052538
O19	O	1.603694	-0.191678	-0.578253
O20	O	2.103694	0.308322	-0.078253
O21	O	1.472809	-0.312159	-0.274906
O22	O	1.972809	0.187841	0.225094
O23	O	1.300302	-0.312096	-0.447438
O24	O	1.800302	0.187904	0.052562
O25	O	1.472877	-0.403233	-0.750717
O26	O	1.972877	0.096767	-0.250717
O27	O	1.300282	-0.403277	-0.578146
O28	O	1.800282	0.096723	-0.078146
O29	O	1.603669	-0.312019	-0.750764
O30	O	2.103669	0.187981	-0.250764
O31	O	1.603471	-0.523729	-0.447401
O32	O	2.103471	-0.023729	0.052599
O33	O	1.472765	-0.523682	-0.578125
O34	O	1.972765	-0.023682	-0.078125
C35	C	1.261672	-0.357685	-0.512788
C36	C	1.761672	0.142315	-0.012788
C37	C	1.143367	-0.357696	-0.512800
C38	C	1.643367	0.142304	-0.012800
C39	C	1.074093	-0.308035	-0.441843
C40	C	1.574093	0.191965	0.058157
C41	C	1.003278	-0.375779	-0.415655
C42	C	1.503278	0.124221	0.084345
C43	C	1.003383	-0.289985	-0.539006
C44	C	1.503383	0.210015	-0.039006
C45	C	1.074110	-0.425476	-0.486561
C46	C	1.574110	0.074524	0.013439
C47	C	1.074221	-0.339636	-0.609957
C48	C	1.574221	0.160364	-0.109957
C49	C	1.003437	-0.407427	-0.583806
C50	C	1.503437	0.092573	-0.083806
C51	C	1.538131	-0.550652	-0.512777
C52	C	2.038131	-0.050652	-0.012777
C53	C	1.538193	-0.633198	-0.512794
C54	C	2.038193	-0.133198	-0.012794
C55	C	1.609419	-0.832647	-0.441806
C56	C	2.109419	-0.332647	0.058194
C57	C	1.635421	-0.881967	-0.538949
C58	C	2.135421	-0.381967	-0.038949
C59	C	1.538254	-0.784328	-0.512837
C60	C	2.038254	-0.284328	-0.012837
C61	C	1.512360	-0.882089	-0.415737
C62	C	2.012360	-0.382089	0.084263
C63	C	1.538314	-0.930313	-0.512869
C64	C	2.038314	-0.430313	-0.012869
C65	C	1.564306	-0.832561	-0.610031
C66	C	2.064306	-0.332561	-0.110031
C67	C	1.441199	-0.832679	-0.486754
C68	C	1.941199	-0.332679	0.013246
C69	C	1.467164	-0.881977	-0.583964
C70	C	1.967164	-0.381977	-0.083964
C71	C	1.538222	-0.700230	-0.512817
C72	C	2.038222	-0.200230	-0.012817
C73	C	1.538346	-1.014410	-0.512900
C74	C	2.038346	-0.514410	-0.012900
C75	C	1.815834	-0.357715	-0.512851
C76	C	2.315834	0.142285	-0.012851
C77	C	1.934139	-0.357722	-0.512865
C78	C	2.434139	0.142278	-0.012865
C79	C	1.538283	-0.357614	-0.790440
C80	C	2.038283	0.142386	-0.290440
C81	C	1.538313	-0.357577	-0.908746
C82	C	2.038313	0.142423	-0.408746
C83	C	1.538324	-0.163994	-0.512885
C84	C	2.038324	0.336006	-0.012885
C85	C	1.538371	-0.081448	-0.512913
C86	C	2.038371	0.418552	-0.012913
C87	C	1.609472	-0.307962	-0.978024
C88	C	2.109472	0.192038	-0.478024
C89	C	1.512397	-0.289784	-1.048817
C90	C	2.012397	0.210216	-0.548817
C91	C	1.635445	-0.375704	-1.048752
C92	C	2.135445	0.124296	-0.548752
C93	C	1.441187	-0.339364	-0.977981
C94	C	1.941187	0.160636	-0.477981
C95	C	1.564300	-0.425315	-0.977909
C96	C	2.064300	0.074685	-0.477909
C97	C	1.467158	-0.407163	-1.048670
C98	C	1.967158	0.092837	-0.548670
C99	C	1.538204	-0.357732	-0.236278
C100	C	2.038204	0.142268	0.263722
C101	C	1.538380	-0.357559	-0.117973
C102	C	2.038380	0.142441	0.382027
H103	H	1.105048	-0.482766	-0.464332
H104	H	1.605048	0.017234	0.035668
H105	H	0.972259	-0.232720	-0.561107
H106	H	1.472259	0.267280	-0.061107
O107	O	1.689147	-0.803956	-0.362303
O108	O	2.189147	-0.303956	0.137697
H109	H	1.687887	-0.742472	-0.362449
H110	H	2.187887	-0.242472	0.137551
O111	O	1.115200	-0.252460	-0.362270
O112	O	1.615200	0.247540	0.137730
H113	H	1.203321	-0.252572	-0.363482
H114	H	1.703321	0.247428	0.136518
O115	O	1.744170	-0.910651	-0.568212
O116	O	2.244170	-0.410651	-0.068212
H117	H	1.803081	-0.890899	-0.509126
H118	H	2.303081	-0.390899	-0.009126
O119	O	1.387473	-0.910490	-0.663632
O120	O	1.887473	-0.410490	-0.163632
H121	H	1.428818	-0.945058	-0.723625
H122	H	1.928818	-0.445058	-0.223625
H123	H	1.669543	-0.265980	-0.947001
H124	H	2.169543	0.234020	-0.447001
H125	H	1.359120	-0.811010	-0.464643
H126	H	1.859120	-0.311010	0.035357
O127	O	1.744209	-0.396026	-1.089943
O128	O	2.244209	0.103974	-0.589943
H129	H	1.766253	-0.451869	-1.060332
H130	H	2.266253	0.048131	-0.560332
H131	H	1.490435	-0.903844	-0.333608
H132	H	1.990435	-0.403844	0.166392
H133	H	0.972609	-0.449483	-0.643840
H134	H	1.472609	0.050517	-0.143840
H135	H	1.406941	-0.449113	-1.079495
H136	H	1.906941	0.050887	-0.579495
O137	O	1.593489	-0.803877	-0.718854
O138	O	2.093489	-0.303877	-0.218854
H139	H	1.593277	-0.742390	-0.717974
H140	H	2.093277	-0.242390	-0.217974
O141	O	1.483305	-0.213900	-1.090087
O142	O	1.983305	0.286100	-0.590087
H143	H	1.542459	-0.172819	-1.061804
H144	H	2.042459	0.327181	-0.561804
H145	H	1.359048	-0.323959	-0.947024
H146	H	1.859048	0.176041	-0.447024
O147	O	1.115546	-0.319359	-0.718720
O148	O	1.615546	0.180641	-0.218720
H149	H	1.087274	-0.263090	-0.740268
H150	H	1.587274	0.236910	-0.240268
H151	H	0.972118	-0.391071	-0.333519
H152	H	1.472118	0.108929	0.166481
O153	O	1.593422	-0.501178	-0.936596
O154	O	2.093422	-0.001178	-0.436596
H155	H	1.674098	-0.516107	-0.964883
H156	H	2.174098	-0.016107	-0.464883
