data_functionalizedCrystal
_audit_creation_method	'MofGen! by Chris Wilmer'
_symmetry_space_group_name_H-M	'P1'
_symmetry_Int_Tables_number	1
_symmetry_cell_setting	triclinic
loop_
_symmetry_equiv_pos_as_xyz
  x,y,z
_cell_length_a	10.654559
_cell_length_b	10.654554
_cell_length_c	9.198806
_cell_angle_alpha	89.995888
_cell_angle_beta	90.003506
_cell_angle_gamma	95.512306
loop_
_atom_site_label
_atom_site_type_symbol
_atom_site_fract_x
_atom_site_fract_y
_atom_site_fract_z
O1	O	-0.176424	1.667843	-0.120900
O2	O	-0.193223	1.302365	-0.120902
O3	O	-0.002085	1.493501	-0.120890
O4	O	-0.367562	1.476707	-0.120912
O5	O	-0.002085	1.493486	0.120895
O6	O	-0.193223	1.302350	0.120883
O7	O	-0.176423	1.667827	0.120885
Cu8	Cu	-0.184823	1.485087	0.142961
Cu9	Cu	-0.184824	1.485105	-0.142978
O10	O	-0.367561	1.476692	0.120873
C11	C	-0.191988	1.255560	-0.000009
C12	C	-0.188294	1.116117	-0.000010
C13	C	-0.068808	0.933551	-0.000015
C14	C	-0.072278	1.064573	-0.000004
C15	C	-0.300847	1.036631	-0.000010
C16	C	-0.297375	0.905612	-0.000010
C17	C	0.047215	0.882015	-0.000024
C18	C	0.159768	0.961491	-0.000021
C19	C	0.156298	1.092513	-0.000011
C20	C	0.040274	1.144058	-0.000004
C21	C	-0.414359	1.477935	-0.000022
C22	C	-0.553802	1.481631	-0.000031
C23	C	-0.619327	1.483367	-0.131821
C24	C	-0.750349	1.486837	-0.131806
C25	C	-0.750310	1.486830	0.131802
C26	C	-0.619289	1.483369	0.131785
C27	C	-0.553840	1.481629	-0.263637
C28	C	-0.619365	1.483363	-0.395437
C29	C	-0.750386	1.486833	-0.395422
C30	C	-0.815883	1.488569	-0.263606
C31	C	0.044713	1.492258	0.000002
C32	C	0.184156	1.488562	0.000001
C33	C	-0.177658	1.714633	-0.000011
C34	C	-0.181352	1.854076	-0.000020
N35	N	-0.184822	1.485084	0.344075
N36	N	-0.184815	1.485119	-0.344092
C37	C	-0.104214	1.565336	0.416277
C38	C	-0.104210	1.565356	0.583689
H39	H	0.247944	1.157220	0.000006
H40	H	-0.566028	1.481960	-0.502757
O41	O	-0.413514	1.086758	-0.000277
C42	C	-0.422341	1.161738	-0.125486
H43	H	-0.356440	1.130184	-0.213000
H44	H	-0.523455	1.150871	-0.167531
H45	H	-0.394269	1.264787	-0.097176
H46	H	0.254231	0.919514	-0.000039
O47	O	-0.814109	1.488681	-0.523385
C48	C	-0.876706	1.599213	-0.531307
H49	H	-0.827932	1.674123	-0.456609
H50	H	-0.873826	1.635626	-0.647911
H51	H	-0.978977	1.577272	-0.495810
O52	O	0.036964	1.271341	-0.000250
C53	C	0.098519	1.322792	-0.125447
H54	H	0.098508	1.247049	-0.212973
H55	H	0.046955	1.404427	-0.167483
H56	H	0.199867	1.358505	-0.097127
H57	H	-0.035203	1.634068	0.645780
H58	H	-0.389019	0.840901	-0.000008
O59	O	-0.426560	1.478312	-0.263914
C60	C	-0.382811	1.477114	-0.408512
H61	H	-0.453470	1.518806	-0.483145
H62	H	-0.287716	1.535653	-0.416536
H63	H	-0.371868	1.375918	-0.442782
H64	H	-0.922568	1.491406	-0.263604
H65	H	-0.803648	1.488241	0.239120
H66	H	-0.565938	1.481952	0.239100
H67	H	-0.253834	1.416412	0.593827
O68	O	0.050426	0.754723	0.000160
C69	C	-0.011064	0.703274	0.125398
H70	H	-0.079790	0.770616	0.167160
H71	H	-0.064929	0.608758	0.097227
H72	H	0.061801	0.688844	0.213077
H73	H	-0.253825	1.416386	0.406199
O74	O	-0.021763	1.647337	0.342401
C75	C	0.053163	1.721983	0.442039
H76	H	0.055009	1.670566	0.550590
H77	H	0.153272	1.739955	0.397949
H78	H	0.011799	1.815786	0.458146
