data_functionalizedCrystal
_audit_creation_method	'MofGen! by Chris Wilmer'
_symmetry_space_group_name_H-M	'P1'
_symmetry_Int_Tables_number	1
_symmetry_cell_setting	triclinic
loop_
_symmetry_equiv_pos_as_xyz
  x,y,z
_cell_length_a	21.395364
_cell_length_b	14.908178
_cell_length_c	21.395364
_cell_angle_alpha	93.300388
_cell_angle_beta	90.017013
_cell_angle_gamma	93.328811
loop_
_atom_site_label
_atom_site_type_symbol
_atom_site_fract_x
_atom_site_fract_y
_atom_site_fract_z
Zn1	Zn	0.943479	-0.359058	0.339870
Zn2	Zn	0.937376	-0.509870	0.229048
Zn3	Zn	0.838708	-0.359059	0.235107
Zn4	Zn	0.832641	-0.509924	0.333786
O5	O	0.888051	-0.434478	0.284453
O6	O	1.030349	-0.379040	0.325180
O7	O	0.924272	-0.489842	0.142175
O8	O	0.857700	-0.232805	0.254086
O9	O	1.025864	-0.489841	0.243760
O10	O	0.934675	-0.232805	0.331055
O11	O	0.851781	-0.379042	0.146626
O12	O	0.750225	-0.379095	0.248186
O13	O	0.847360	-0.489934	0.422270
O14	O	0.745767	-0.489935	0.320686
O15	O	0.928792	-0.379093	0.426740
O16	O	0.918389	-0.636130	0.237860
O17	O	0.841441	-0.636170	0.314811
C18	C	0.725262	-0.434522	0.284434
C19	C	0.655619	-0.434562	0.284439
C20	C	0.625259	-0.376963	0.326893
C21	C	0.559825	-0.376939	0.326897
C22	C	0.524752	-0.434530	0.284452
C23	C	0.555119	-0.492134	0.241990
C24	C	0.620553	-0.492150	0.241984
C25	C	0.417785	-0.515778	0.276158
C26	C	0.352352	-0.515764	0.276169
C27	C	0.322933	-0.434481	0.284468
C28	C	0.358954	-0.353210	0.292770
C29	C	0.424388	-0.353225	0.292763
C30	C	0.453800	-0.434519	0.284454
C31	C	0.221622	-0.376850	0.326928
C32	C	0.156187	-0.376825	0.326927
C33	C	0.151482	-0.492028	0.242024
C34	C	0.216916	-0.492045	0.242022
C35	C	0.251983	-0.434458	0.284477
C36	C	0.878611	-0.668886	0.275032
C37	C	0.874630	-0.769167	0.271022
C38	C	0.947242	-0.957455	0.343722
C39	C	0.943504	-1.051678	0.339956
C40	C	0.863412	-1.051838	0.259730
C41	C	0.867150	-0.957615	0.263495
C42	C	0.909068	-0.910427	0.305492
C43	C	0.912809	-0.816202	0.309253
C44	C	0.832714	-0.816364	0.229031
C45	C	0.828976	-0.910586	0.225265
C46	C	1.051476	-0.434434	0.284473
C47	C	1.121118	-0.434416	0.284481
C48	C	0.888080	-0.434520	0.447875
C49	C	0.888092	-0.434537	0.517515
C50	C	0.897545	-0.199154	0.293925
C51	C	0.901591	-0.098873	0.297961
C52	C	0.930488	-0.376832	0.552556
C53	C	0.930479	-0.376817	0.617992
C54	C	0.888080	-0.434524	0.648384
C55	C	0.845677	-0.492233	0.613335
C56	C	0.845683	-0.492240	0.547900
C57	C	0.879846	-0.515800	0.748792
C58	C	0.879845	-0.515795	0.814225
C59	C	0.888058	-0.434503	0.850206
C60	C	0.896287	-0.353214	0.820745
C61	C	0.896293	-0.353220	0.755311
C62	C	0.888069	-0.434523	0.719336
C63	C	0.930447	-0.376777	0.956200
C64	C	0.930433	-0.376760	1.021637
C65	C	0.845635	-0.492185	1.016978
C66	C	0.845645	-0.492193	0.951543
C67	C	0.888054	-0.434490	0.921157
C68	C	0.888024	-0.434463	1.121666
C69	C	0.888034	-0.434467	1.052025
H70	H	0.535102	-0.330030	0.361467
H71	H	0.829282	-1.090274	0.225541
H72	H	0.794846	-0.949020	0.191075
H73	H	0.801631	-0.778062	0.197899
H74	H	0.811157	-0.539230	0.519370
H75	H	0.873148	-0.581986	0.838207
Br76	Br	0.969699	-0.752162	0.366244
Br77	Br	0.473272	-0.242935	0.304028
H78	H	0.965020	-0.329845	0.527821
H79	H	0.974587	-1.089965	0.371090
Br80	Br	0.987984	-0.298453	1.069195
H81	H	0.241635	-0.538953	0.207453
H82	H	0.811125	-0.539188	0.923011
Br83	Br	0.907457	-0.242905	0.715329
H84	H	0.965001	-0.329822	0.646529
Br85	Br	0.672847	-0.298808	0.384511
Br86	Br	0.661758	-0.570322	0.184361
H87	H	0.902976	-0.287018	0.850039
H88	H	0.964975	-0.329787	0.931460
Br89	Br	0.788085	-0.570491	1.058217
H90	H	0.872991	-0.581981	0.719503
H91	H	0.250175	-0.329953	0.361494
Br92	Br	0.319037	-0.242889	0.304035
Br93	Br	0.114983	-0.298640	0.384544
H94	H	0.441732	-0.581973	0.269399
Br95	Br	0.103890	-0.570180	0.184413
H96	H	0.811154	-0.539216	0.638084
H97	H	0.323029	-0.581939	0.269412
Br98	Br	0.507522	-0.570288	0.184382
Br99	Br	1.004137	-0.893410	0.400705
