data_functionalizedCrystal
_audit_creation_method	'MofGen! by Chris Wilmer'
_symmetry_space_group_name_H-M	'P1'
_symmetry_Int_Tables_number	1
_symmetry_cell_setting	triclinic
loop_
_symmetry_equiv_pos_as_xyz
  x,y,z
_cell_length_a	16.109301
_cell_length_b	13.930277
_cell_length_c	16.109301
_cell_angle_alpha	89.994021
_cell_angle_beta	96.538468
_cell_angle_gamma	90.004854
loop_
_atom_site_label
_atom_site_type_symbol
_atom_site_fract_x
_atom_site_fract_y
_atom_site_fract_z
O1	O	1.103135	0.079781	-0.106867
O2	O	1.603135	0.579781	0.393133
O3	O	0.861073	0.079795	-0.120167
O4	O	1.361073	0.579795	0.379833
O5	O	0.988754	0.079778	0.007514
O6	O	1.488754	0.579778	0.507514
O7	O	0.975454	0.079798	-0.234548
O8	O	1.475454	0.579798	0.265452
O9	O	0.988736	-0.079884	0.007517
O10	O	1.488736	0.420116	0.507517
O11	O	0.861055	-0.079867	-0.120164
O12	O	1.361055	0.420133	0.379836
O13	O	1.103117	-0.079881	-0.106865
O14	O	1.603117	0.420119	0.393135
Zn15	Zn	0.982084	-0.105223	-0.113514
Zn16	Zn	1.482084	0.394777	0.386486
Zn17	Zn	0.982107	0.105138	-0.113517
Zn18	Zn	1.482107	0.605138	0.386483
O19	O	0.975437	-0.079864	-0.234545
O20	O	1.475437	0.420136	0.265455
C21	C	0.830089	-0.000034	-0.119627
C22	C	1.330089	0.499966	0.380373
C23	C	0.737794	-0.000029	-0.118011
C24	C	1.237794	0.499971	0.381989
C25	C	0.428796	-0.000040	-0.188494
C26	C	0.928796	0.499960	0.311506
C27	C	0.515516	-0.000034	-0.190020
C28	C	1.015516	0.499966	0.309980
C29	C	0.535389	-0.000034	-0.038531
C30	C	1.035389	0.499966	0.461469
C31	C	0.448671	-0.000033	-0.037007
C32	C	0.948671	0.499967	0.462993
C33	C	0.395376	-0.000041	-0.111991
C34	C	0.895376	0.499959	0.388009
C35	C	0.568815	-0.000036	-0.115041
C36	C	1.068815	0.499964	0.384959
C37	C	0.662841	-0.000030	-0.116694
C38	C	1.162841	0.499970	0.383306
C39	C	0.301344	-0.000045	-0.110338
C40	C	0.801344	0.499955	0.389662
N41	N	0.982074	-0.248790	-0.113511
N42	N	1.482074	0.251210	0.386489
C43	C	0.925568	-0.701051	-0.170032
C44	C	1.425568	-0.201051	0.329968
C45	C	1.038669	-0.701036	-0.056996
C46	C	1.538669	-0.201036	0.443004
C47	C	1.038659	-0.600540	-0.056994
C48	C	1.538659	-0.100540	0.443006
C49	C	0.982104	-0.550295	-0.113512
C50	C	1.482104	-0.050295	0.386488
C51	C	0.925558	-0.600546	-0.170033
C52	C	1.425558	-0.100546	0.329967
C53	C	1.095209	-0.550282	-0.000479
C54	C	1.595209	-0.050282	0.499521
C55	C	1.095202	-0.449780	-0.000475
C56	C	1.595202	0.050220	0.499525
C57	C	1.038642	-0.399533	-0.056990
C58	C	1.538642	0.100467	0.443010
C59	C	0.982094	-0.449790	-0.113513
C60	C	1.482094	0.050210	0.386487
C61	C	0.925538	-0.399546	-0.170031
C62	C	1.425538	0.100454	0.329969
C63	C	0.868985	-0.449801	-0.226551
C64	C	1.368985	0.050199	0.273449
C65	C	0.868998	-0.550300	-0.226548
C66	C	1.368998	-0.050300	0.273452
C67	C	1.038629	-0.299034	-0.056993
C68	C	1.538629	0.200966	0.443007
C69	C	0.925528	-0.299040	-0.170032
C70	C	1.425528	0.200960	0.329968
C71	C	1.134101	-0.000049	-0.107405
C72	C	1.634101	0.499951	0.392595
C73	C	1.226396	-0.000048	-0.109020
C74	C	1.726396	0.499952	0.390980
C75	C	0.988206	-0.000053	0.038490
C76	C	1.488206	0.499947	0.538490
C77	C	0.986591	-0.000055	0.130785
C78	C	1.486591	0.499945	0.630785
N79	N	0.982123	0.248704	-0.113514
N80	N	1.482123	0.748704	0.386486
C81	C	0.975984	-0.000030	-0.265522
C82	C	1.475984	0.499970	0.234478
C83	C	0.977599	-0.000022	-0.357817
C84	C	1.477599	0.499978	0.142183
C85	C	1.058599	-0.000044	0.353058
C86	C	1.558599	0.499956	0.853058
C87	C	1.057075	-0.000036	0.439778
C88	C	1.557075	0.499964	0.939778
C89	C	0.905586	-0.000031	0.419904
C90	C	1.405586	0.499969	0.919904
C91	C	0.907111	-0.000032	0.333185
C92	C	1.407111	0.499968	0.833185
C93	C	0.983620	-0.000043	0.299765
C94	C	1.483620	0.499957	0.799765
C95	C	0.980571	-0.000034	0.473204
C96	C	1.480571	0.499966	0.973204
C97	C	0.978918	-0.000025	0.567230
C98	C	1.478918	0.499975	1.067230
C99	C	0.985273	-0.000050	0.205733
C100	C	1.485273	0.499950	0.705733
H101	H	0.385405	-0.000046	-0.249551
H102	H	0.885405	0.499954	0.250449
Br103	Br	0.805346	-0.000018	0.260852
Br104	Br	1.305346	0.499982	0.760852
H105	H	0.578792	-0.000030	0.022518
H106	H	1.078792	0.499970	0.522518
H107	H	0.421461	-0.000031	0.025296
H108	H	0.921461	0.499969	0.525296
H109	H	0.542722	-0.000033	-0.252317
H110	H	1.042722	0.499967	0.247683
H111	H	1.120897	-0.000051	0.325850
H112	H	1.620897	0.499949	0.825850
Br113	Br	1.171949	-0.381582	0.076228
Br114	Br	1.671949	0.118418	0.576228
Br115	Br	0.848763	-0.230859	-0.246733
Br116	Br	1.348763	0.269141	0.253267
Br117	Br	1.115428	-0.769221	0.019697
Br118	Br	1.615428	-0.269221	0.519697
Br119	Br	1.171969	-0.618467	0.076214
Br120	Br	1.671969	-0.118467	0.576214
Br121	Br	0.792241	-0.381601	-0.303260
Br122	Br	1.292241	0.118399	0.196740
H123	H	0.822955	-0.591224	-0.272565
H124	H	1.322955	-0.091224	0.227435
H125	H	1.084678	-0.258121	-0.010979
H126	H	1.584678	0.241879	0.489021
H127	H	0.879521	-0.741972	-0.216047
H128	H	1.379521	-0.241972	0.283953
Br129	Br	0.801758	-0.000012	0.465266
Br130	Br	1.301758	0.499988	0.965266
Br131	Br	1.158837	-0.000031	0.512102
Br132	Br	1.658837	0.499969	1.012102
