data_functionalizedCrystal
_audit_creation_method	'MofGen! by Chris Wilmer'
_symmetry_space_group_name_H-M	'P1'
_symmetry_Int_Tables_number	1
_symmetry_cell_setting	triclinic
loop_
_symmetry_equiv_pos_as_xyz
  x,y,z
_cell_length_a	27.731994
_cell_length_b	19.188930
_cell_length_c	17.666332
_cell_angle_alpha	90.011603
_cell_angle_beta	89.996730
_cell_angle_gamma	97.117342
loop_
_atom_site_label
_atom_site_type_symbol
_atom_site_fract_x
_atom_site_fract_y
_atom_site_fract_z
O1	O	0.641201	-0.082899	-0.062849
O2	O	1.141201	0.417101	0.437151
O3	O	0.500443	-0.095570	-0.062875
O4	O	1.000443	0.404430	0.437125
O5	O	0.574884	0.012448	-0.062846
O6	O	1.074884	0.512448	0.437154
O7	O	0.566760	-0.190917	-0.062877
O8	O	1.066760	0.309083	0.437123
O9	O	0.574871	0.012454	0.063050
O10	O	1.074871	0.512454	0.563050
O11	O	0.500430	-0.095565	0.063022
O12	O	1.000430	0.404435	0.563022
O13	O	0.641188	-0.082893	0.063048
O14	O	1.141188	0.417107	0.563048
Cu15	Cu	0.570808	-0.089229	0.074530
Cu16	Cu	1.070808	0.410771	0.574530
Cu17	Cu	0.570823	-0.089235	-0.074357
Cu18	Cu	1.070823	0.410765	0.425643
O19	O	0.566747	-0.190912	0.063019
O20	O	1.066747	0.309088	0.563019
C21	C	0.482428	-0.095308	0.000070
C22	C	0.982428	0.404692	0.500070
C23	C	0.428769	-0.094524	0.000061
C24	C	0.928769	0.405476	0.500061
C25	C	0.096029	-0.089587	0.068717
C26	C	0.596029	0.410413	0.568717
C27	C	-0.105639	-0.086610	0.068726
C28	C	0.394361	0.413390	0.568726
O29	O	-0.131719	-0.086192	0.127090
O30	O	0.368281	0.413808	0.627090
N31	N	-0.130848	-0.086243	0.000100
N32	N	0.369152	0.413757	0.500100
C33	C	-0.105636	-0.086616	-0.068533
C34	C	0.394364	0.413384	0.431467
O35	O	-0.131704	-0.086228	-0.126904
O36	O	0.368296	0.413772	0.373096
C37	C	0.096031	-0.089589	-0.068542
C38	C	0.596031	0.410411	0.431458
C39	C	0.121236	-0.089963	0.000089
C40	C	0.621236	0.410037	0.500089
C41	C	0.121234	-0.089961	0.137342
C42	C	0.621234	0.410039	0.637342
C43	C	0.171648	-0.090709	0.137339
C44	C	0.671648	0.409291	0.637339
C45	C	0.196855	-0.091084	0.068711
C46	C	0.696855	0.408916	0.568711
C47	C	0.171650	-0.090711	0.000086
C48	C	0.671650	0.409289	0.500086
C49	C	0.121242	-0.089957	-0.137174
C50	C	0.621242	0.410043	0.362826
C51	C	0.171662	-0.090698	-0.137170
C52	C	0.671662	0.409302	0.362830
C53	C	0.196867	-0.091072	-0.068540
C54	C	0.696867	0.408928	0.431460
C55	C	0.247271	-0.091834	-0.068545
C56	C	0.747271	0.408166	0.431455
N57	N	0.272480	-0.092201	0.000081
N58	N	0.772480	0.407799	0.500081
C59	C	0.247272	-0.091826	0.068709
C60	C	0.747272	0.408174	0.568709
C61	C	-0.211514	-0.085057	-0.068524
C62	C	0.288486	0.414943	0.431476
C63	C	-0.261931	-0.084315	-0.068522
C64	C	0.238069	0.415685	0.431478
C65	C	-0.261930	-0.084307	0.068737
C66	C	0.238070	0.415693	0.568737
C67	C	-0.211513	-0.085054	0.068735
C68	C	0.288487	0.414946	0.568735
C69	C	-0.186305	-0.085423	0.000102
C70	C	0.313695	0.414577	0.500102
C71	C	0.353144	-0.093398	0.068698
C72	C	0.853144	0.406602	0.568698
C73	C	0.403561	-0.094149	0.068689
C74	C	0.903561	0.405851	0.568689
C75	C	0.403556	-0.094153	-0.068571
C76	C	0.903556	0.405847	0.431429
C77	C	0.353143	-0.093405	-0.068562
C78	C	0.853143	0.406595	0.431438
C79	C	0.327938	-0.093026	0.000078
C80	C	0.827938	0.406974	0.500078
O81	O	0.273383	-0.092244	-0.126878
O82	O	0.773383	0.407756	0.373122
O83	O	0.273351	-0.092198	0.127071
O84	O	0.773351	0.407802	0.627071
C85	C	0.045615	-0.088839	0.068720
C86	C	0.545615	0.411161	0.568720
C87	C	0.020409	-0.088466	0.000095
C88	C	0.520409	0.411534	0.500095
C89	C	0.045617	-0.088841	-0.068533
C90	C	0.545617	0.411159	0.431467
C91	C	-0.030007	-0.087724	0.000097
C92	C	0.469993	0.412276	0.500097
C93	C	-0.055215	-0.087349	0.068725
C94	C	0.444785	0.412651	0.568725
C95	C	-0.030006	-0.087716	0.137351
C96	C	0.469994	0.412284	0.637351
C97	C	0.020407	-0.088464	0.137348
C98	C	0.520407	0.411536	0.637348
C99	C	0.020408	-0.088475	-0.137159
C100	C	0.520408	0.411525	0.362841
C101	C	-0.030005	-0.087727	-0.137151
C102	C	0.469995	0.412273	0.362849
C103	C	-0.055213	-0.087352	-0.068523
C104	C	0.444787	0.412648	0.431477
C105	C	0.574614	0.038460	0.000104
C106	C	1.074614	0.538460	0.500104
C107	C	0.573825	0.115959	0.000111
C108	C	1.073825	0.615959	0.500111
C109	C	0.659203	-0.083156	0.000101
C110	C	1.159203	0.416844	0.500101
C111	C	0.712862	-0.083939	0.000106
C112	C	1.212862	0.416061	0.500106
C113	C	0.567016	-0.216924	0.000067
C114	C	1.067016	0.283076	0.500067
C115	C	0.567806	-0.294423	0.000056
C116	C	1.067806	0.205577	0.500056
N117	N	0.570800	-0.089223	0.179250
N118	N	1.070800	0.410777	0.679250
C119	C	0.617504	0.161174	0.000122
C120	C	1.117504	0.661174	0.500122
C121	C	0.616762	0.233993	0.000110
C122	C	1.116762	0.733993	0.500110
C123	C	0.572338	0.261594	0.000101
C124	C	1.072338	0.761594	0.500101
C125	C	0.528653	0.216369	0.000085
C126	C	1.028653	0.716369	0.500085
C127	C	0.529396	0.143552	0.000090
C128	C	1.029396	0.643552	0.500090
N129	N	0.538377	0.369375	0.042940
N130	N	1.038377	0.869375	0.542940
N131	N	0.537674	0.438548	0.042937
N132	N	1.037674	0.938548	0.542937
C133	C	0.570096	0.480987	0.000085
C134	C	1.070096	0.980987	0.500085
N135	N	0.603256	0.451641	-0.042754
N136	N	1.103256	0.951641	0.457246
N137	N	0.603960	0.382461	-0.042748
N138	N	1.103960	0.882461	0.457252
C139	C	0.571527	0.340551	0.000096
C140	C	1.071527	0.840551	0.500096
C141	C	0.612974	0.605161	0.000083
C142	C	1.112974	1.105161	0.500083
C143	C	0.612231	0.677981	0.000066
C144	C	1.112231	1.177981	0.500066
C145	C	0.524120	0.660356	0.000049
C146	C	1.024120	1.160356	0.500049
C147	C	0.524865	0.587537	0.000058
C148	C	1.024865	1.087537	0.500058
C149	C	0.569294	0.559945	0.000079
C150	C	1.069294	1.059945	0.500079
N151	N	0.570834	-0.089235	-0.179077
N152	N	1.070834	0.410765	0.320923
C153	C	0.603774	-0.041416	0.218872
C154	C	1.103774	0.458584	0.718872
C155	C	0.603776	-0.041413	0.298120
C156	C	1.103776	0.458587	0.798120
C157	C	0.570811	-0.089229	0.337742
C158	C	1.070811	0.410771	0.837742
C159	C	0.537831	-0.137040	0.298110
C160	C	1.037831	0.362960	0.798110
C161	C	0.537826	-0.137037	0.218864
C162	C	1.037826	0.362963	0.718864
N163	N	0.564527	-0.151078	0.462150
N164	N	1.064527	0.348922	0.962150
N165	N	0.564535	-0.151078	0.537431
N166	N	1.064535	0.348922	1.037431
C167	C	0.570823	-0.089238	0.576506
C168	C	1.070823	0.410762	1.076506
N169	N	0.577114	-0.027396	0.537457
N170	N	1.077114	0.472604	1.037457
N171	N	0.577108	-0.027397	0.462169
N172	N	1.077108	0.472603	0.962169
C173	C	0.570812	-0.089236	0.423671
C174	C	1.070812	0.410764	0.923671
C175	C	0.603801	-0.041423	0.702058
C176	C	1.103801	0.458577	1.202058
C177	C	0.603801	-0.041419	0.781307
C178	C	1.103801	0.458581	1.281307
C179	C	0.537858	-0.137052	0.781295
C180	C	1.037858	0.362948	1.281295
C181	C	0.537856	-0.137050	0.702048
C182	C	1.037856	0.362950	1.202048
C183	C	0.570830	-0.089237	0.662434
C184	C	1.070830	0.410763	1.162434
H185	H	-0.190995	-0.085357	-0.124417
H186	H	0.309005	0.414643	0.375583
H187	H	0.332627	-0.093095	0.124591
H188	H	0.832627	0.406905	0.624591
H189	H	0.511008	-0.175983	0.669785
H190	H	1.011008	0.324017	1.169785
H191	H	0.493825	0.106737	0.000080
H192	H	0.993825	0.606737	0.500080
H193	H	0.489296	0.550722	0.000053
H194	H	0.989296	1.050722	0.500053
H195	H	0.100716	-0.089653	0.193230
H196	H	0.600716	0.410347	0.693230
H197	H	0.652333	0.270814	0.000117
H198	H	1.152333	0.770814	0.500117
H199	H	0.647801	0.714795	0.000071
H200	H	1.147801	1.214795	0.500071
H201	H	-0.050539	-0.087414	0.193230
H202	H	0.449461	0.412586	0.693230
H203	H	0.510989	-0.175971	0.330374
H204	H	1.010989	0.324029	0.830374
N205	N	0.483275	0.244561	0.000096
N206	N	0.983275	0.744561	0.500096
N207	N	0.453858	0.230539	0.053163
N208	N	0.953858	0.730539	0.553163
H209	H	0.421808	0.250449	0.053170
H210	H	0.921808	0.750449	0.553170
H211	H	0.040925	-0.088768	0.193234
H212	H	0.540925	0.411232	0.693234
H213	H	-0.282463	-0.084003	0.124617
H214	H	0.217537	0.415997	0.624617
N215	N	0.478737	0.688528	0.000046
N216	N	0.978737	1.188528	0.500046
N217	N	0.439739	0.648145	0.000042
N218	N	0.939739	1.148145	0.500042
H219	H	0.407685	0.668043	0.000038
H220	H	0.907685	1.168043	0.500038
H221	H	0.192166	-0.091009	0.193225
H222	H	0.692166	0.408991	0.693225
H223	H	0.630650	-0.002485	0.813568
H224	H	1.130650	0.497515	1.313568
H225	H	-0.190994	-0.085359	0.124620
H226	H	0.309006	0.414641	0.624620
H227	H	0.510975	-0.175968	0.186602
H228	H	1.010975	0.324032	0.686602
H229	H	0.630622	-0.002482	0.186621
H230	H	1.130622	0.497518	0.686621
H231	H	0.630628	-0.002480	0.330386
H232	H	1.130628	0.497520	0.830386
H233	H	-0.282450	-0.084021	-0.124408
H234	H	0.217550	0.415979	0.375592
H235	H	0.100728	-0.089652	-0.193061
H236	H	0.600728	0.410348	0.306939
H237	H	0.511015	-0.175982	0.813555
H238	H	1.011015	0.324018	1.313555
H239	H	0.653681	0.138714	0.000137
H240	H	1.153681	0.638714	0.500137
N241	N	0.197408	-0.091092	-0.207280
N242	N	0.697408	0.408908	0.292720
N243	N	0.220974	-0.140746	-0.222608
N244	N	0.720974	0.359254	0.277392
H245	H	0.239156	-0.141026	-0.272122
H246	H	0.739156	0.358974	0.227878
N247	N	0.637425	0.007506	0.661599
N248	N	1.137425	0.507506	1.161599
N249	N	0.666821	0.050252	0.696990
N250	N	1.166821	0.550252	1.196990
H251	H	0.690545	0.084842	0.668419
H252	H	1.190545	0.584842	1.168419
H253	H	0.424081	-0.094456	0.124579
H254	H	0.924081	0.405544	0.624579
N255	N	0.327400	-0.093033	-0.138671
N256	N	0.827400	0.406967	0.361329
N257	N	0.349915	-0.093370	-0.199941
N258	N	0.849915	0.406630	0.300059
H259	H	0.331738	-0.093100	-0.249458
H260	H	0.831738	0.406900	0.250542
N261	N	0.429301	-0.094541	-0.138678
N262	N	0.929301	0.405459	0.361322
N263	N	0.419109	-0.143690	-0.184643
N264	N	0.919109	0.356310	0.315357
H265	H	0.437292	-0.143961	-0.234159
H266	H	0.937292	0.356039	0.265841
N267	N	-0.055742	-0.087354	-0.207268
N268	N	0.444258	0.412646	0.292732
N269	N	-0.033223	-0.087688	-0.268534
N270	N	0.466777	0.412312	0.231466
H271	H	-0.051398	-0.087420	-0.318054
H272	H	0.448602	0.412580	0.181946
N273	N	0.046151	-0.088844	-0.207268
N274	N	0.546151	0.411156	0.292732
N275	N	0.045078	-0.039526	-0.253208
N276	N	0.545078	0.460474	0.246792
H277	H	0.063256	-0.039787	-0.302729
H278	H	0.563256	0.460213	0.197271
N279	N	0.658359	0.576982	0.000106
N280	N	1.158359	1.076982	0.500106
N281	N	0.697357	0.617365	0.000112
N282	N	1.197357	1.117365	0.500112
H283	H	0.729411	0.597466	0.000130
H284	H	1.229411	1.097466	0.500130
