data_functionalizedCrystal
_audit_creation_method	'MofGen! by Chris Wilmer'
_symmetry_space_group_name_H-M	'P1'
_symmetry_Int_Tables_number	1
_symmetry_cell_setting	triclinic
loop_
_symmetry_equiv_pos_as_xyz
  x,y,z
_cell_length_a	17.640112
_cell_length_b	18.050589
_cell_length_c	17.640968
_cell_angle_alpha	78.773118
_cell_angle_beta	92.139080
_cell_angle_gamma	101.252307
loop_
_atom_site_label
_atom_site_type_symbol
_atom_site_fract_x
_atom_site_fract_y
_atom_site_fract_z
Zn1	Zn	1.247776	-0.021338	-0.195082
Zn2	Zn	1.221993	-0.174558	-0.068112
Zn3	Zn	1.095104	-0.069647	-0.093732
Zn4	Zn	1.120735	-0.164782	-0.220693
O5	O	1.171402	-0.107581	-0.144405
O6	O	1.350627	-0.025537	-0.156798
O7	O	1.183644	-0.184950	0.034761
O8	O	1.115420	0.040699	-0.107180
O9	O	1.331684	-0.138107	-0.063514
O10	O	1.227588	0.076191	-0.181641
O11	O	1.090420	-0.107872	0.015938
O12	O	0.992234	-0.098393	-0.132014
O13	O	1.159104	-0.121445	-0.323567
O14	O	1.011064	-0.168289	-0.225292
O15	O	1.252441	-0.016058	-0.304750
O16	O	1.208498	-0.277199	-0.088349
O17	O	1.134104	-0.270016	-0.200449
C18	C	0.974094	-0.137523	-0.184213
C19	C	0.889689	-0.150346	-0.201261
C20	C	0.563038	-0.010153	-0.014899
C21	C	0.483728	-0.022215	-0.030928
C22	C	0.503357	-0.095166	-0.127891
C23	C	0.582671	-0.083107	-0.111873
C24	C	0.612505	-0.040601	-0.055375
C25	C	0.632138	-0.113555	-0.152349
C26	C	0.711444	-0.101501	-0.136328
C27	C	0.741283	-0.058998	-0.079832
C28	C	0.691811	-0.028547	-0.039354
C29	C	0.602302	-0.156066	-0.208842
C30	C	0.651768	-0.186514	-0.249318
C31	C	0.731077	-0.174455	-0.233302
C32	C	0.760916	-0.131952	-0.176805
C33	C	0.780549	-0.204906	-0.273779
C34	C	0.859855	-0.192852	-0.257758
C35	C	0.840222	-0.119898	-0.160785
C36	C	1.171308	-0.300550	-0.144411
C37	C	1.171342	-0.383087	-0.144424
C38	C	1.130933	-0.578655	-0.205357
C39	C	1.098407	-0.646737	-0.139793
C40	C	1.171419	-0.534204	-0.144419
C41	C	1.203984	-0.613197	-0.209983
C42	C	1.171493	-0.680174	-0.144421
C43	C	1.138849	-0.601212	-0.078826
C44	C	1.244468	-0.567652	-0.149057
C45	C	1.211958	-0.635718	-0.083440
C46	C	1.171375	-0.450114	-0.144420
C47	C	1.171536	-0.764264	-0.144412
C48	C	1.369481	-0.077524	-0.104442
C49	C	1.453890	-0.064715	-0.087412
C50	C	1.211508	-0.062272	-0.342484
C51	C	1.228598	-0.042964	-0.426893
C52	C	1.171521	0.086148	-0.144411
C53	C	1.171572	0.168704	-0.144414
C54	C	1.041859	-0.253814	-0.753484
C55	C	1.057934	-0.235659	-0.832796
C56	C	1.155117	-0.125928	-0.813194
C57	C	1.139048	-0.144071	-0.733879
C58	C	1.082418	-0.208016	-0.704030
C59	C	1.179607	-0.098273	-0.684425
C60	C	1.163541	-0.116418	-0.605116
C61	C	1.106916	-0.180360	-0.575261
C62	C	1.066352	-0.226160	-0.624721
C63	C	1.236240	-0.034333	-0.714274
C64	C	1.276799	0.011465	-0.664820
C65	C	1.260730	-0.006676	-0.585511
C66	C	1.204105	-0.070618	-0.555656
C67	C	1.301293	0.039124	-0.536051
C68	C	1.285228	0.020980	-0.456742
C69	C	1.188039	-0.088763	-0.476347
C70	C	1.131497	-0.152654	0.052913
C71	C	1.114553	-0.171730	0.137352
H72	H	0.587332	0.024473	0.031096
H73	H	0.627466	-0.221125	-0.295316
C74	C	1.084584	-0.544998	-0.274908
C75	C	1.109254	-0.545120	-0.357696
C76	C	1.062902	-0.511462	-0.427242
C77	C	0.991880	-0.477683	-0.414001
C78	C	0.967205	-0.477560	-0.331210
C79	C	1.013557	-0.511217	-0.261664
H80	H	1.161833	-0.570126	-0.367501
H81	H	1.081168	-0.511553	-0.488530
H82	H	0.957567	-0.452768	-0.465484
H83	H	0.914627	-0.452553	-0.321405
H84	H	0.995291	-0.511126	-0.200376
H85	H	0.716105	0.006080	0.006640
C86	C	1.327863	-0.521349	-0.154395
C87	C	1.396012	-0.562050	-0.159484
C88	C	1.479410	-0.515743	-0.164833
C89	C	1.494659	-0.428735	-0.165093
C90	C	1.426508	-0.388030	-0.160003
C91	C	1.343110	-0.434336	-0.154655
H92	H	1.384726	-0.626462	-0.159292
H93	H	1.529860	-0.545876	-0.168601
H94	H	1.556395	-0.394456	-0.169053
H95	H	1.437794	-0.323617	-0.160195
H96	H	1.292661	-0.404203	-0.150887
C97	C	1.014995	-0.693013	-0.134479
C98	C	0.999803	-0.780276	-0.132793
C99	C	0.916391	-0.826548	-0.127482
C100	C	0.848172	-0.785557	-0.123858
C101	C	0.863362	-0.698289	-0.125544
C102	C	0.946773	-0.652018	-0.130855
H103	H	1.050305	-0.810624	-0.135475
H104	H	0.905147	-0.891149	-0.126234
H105	H	0.786425	-0.819810	-0.119927
H106	H	0.812860	-0.667941	-0.122862
H107	H	0.958018	-0.587416	-0.132103
C108	C	1.101589	-0.593409	-0.003915
C109	C	1.094638	-0.513353	0.009916
C110	C	1.057380	-0.505548	0.084826
C111	C	1.027073	-0.577798	0.145905
C112	C	1.034023	-0.657860	0.132077
C113	C	1.071281	-0.665665	0.057167
H114	H	1.117074	-0.459864	-0.035301
H115	H	1.052236	-0.446281	0.095062
H116	H	0.999493	-0.572021	0.201358
H117	H	1.011587	-0.711349	0.177293
H118	H	1.076426	-0.724932	0.046930
C119	C	1.258236	-0.669229	-0.013758
C120	C	1.344087	-0.633901	-0.004574
C121	C	1.390357	-0.667416	0.065111
C122	C	1.350776	-0.736259	0.125612
C123	C	1.264921	-0.771590	0.116430
C124	C	1.218650	-0.738075	0.046745
H125	H	1.373391	-0.582936	-0.049362
H126	H	1.453913	-0.641261	0.071907
H127	H	1.385029	-0.761068	0.177197
H128	H	1.235617	-0.822555	0.161218
H129	H	1.155094	-0.764231	0.039949
C130	C	1.253920	-0.014371	-0.801513
C131	C	1.282264	-0.072799	-0.841185
C132	C	1.299947	-0.052837	-0.928423
C133	C	1.289285	0.025552	-0.975990
C134	C	1.260939	0.083985	-0.936319
C135	C	1.243257	0.064023	-0.849081
H136	H	1.290158	-0.130832	-0.805973
H137	H	1.320930	-0.096094	-0.957790
H138	H	1.302374	0.040329	-1.040569
H139	H	1.253045	0.142018	-0.971532
H140	H	1.222273	0.107280	-0.819714
H141	H	1.020221	-0.278215	-0.600421
C142	C	0.828521	-0.045732	-0.062206
C143	C	0.857334	-0.074815	0.019609
C144	C	0.944571	-0.061547	0.037234
C145	C	1.002995	-0.019196	-0.026956
C146	C	0.974182	0.009889	-0.108777
C147	C	0.886945	-0.003379	-0.126402
H148	H	0.814085	-0.106168	0.067132
H149	H	0.965900	-0.083078	0.097804
H150	H	1.067573	-0.009374	-0.013909
H151	H	1.017432	0.041242	-0.156300
H152	H	0.865617	0.018152	-0.186972
C153	C	0.470535	-0.141918	-0.190039
C154	C	0.409307	-0.216016	-0.168056
C155	C	0.376488	-0.262765	-0.230207
C156	C	0.404896	-0.235417	-0.314342
C157	C	0.466127	-0.161315	-0.336329
C158	C	0.498947	-0.114566	-0.274178
H159	H	0.388275	-0.236264	-0.105771
H160	H	0.331160	-0.317620	-0.213930
H161	H	0.380600	-0.270023	-0.360350
H162	H	0.487159	-0.141067	-0.398614
H163	H	0.544274	-0.059711	-0.290455
H164	H	1.201227	-0.073867	-0.837507
C165	C	1.363588	0.109457	-0.568888
C166	C	1.355238	0.190460	-0.559241
C167	C	1.417535	0.260793	-0.592075
C168	C	1.488182	0.250122	-0.634557
C169	C	1.496535	0.169115	-0.644206
C170	C	1.434238	0.098782	-0.611371
H171	H	1.302939	0.198363	-0.527791
H172	H	1.411351	0.320760	-0.584932
H173	H	1.534297	0.302186	-0.658863
H174	H	1.548834	0.161213	-0.675655
H175	H	1.440422	0.038816	-0.618514
C176	C	1.089238	-0.200324	-0.488021
C177	C	1.007437	-0.202255	-0.459137
C178	C	0.989758	-0.222219	-0.371898
C179	C	1.053879	-0.240252	-0.313543
C180	C	1.135686	-0.238321	-0.342427
C181	C	1.153365	-0.218357	-0.429666
H182	H	0.959965	-0.188906	-0.502335
H183	H	0.929199	-0.223648	-0.350517
H184	H	1.040792	-0.255031	-0.248964
H185	H	1.183158	-0.251671	-0.299228
H186	H	1.213924	-0.216928	-0.451047
H187	H	0.900133	-0.217645	-0.290719
C188	C	1.329840	0.071355	-0.402335
C189	C	1.285921	0.112193	-0.354450
C190	C	1.330537	0.162565	-0.300041
C191	C	1.419072	0.172100	-0.293517
C192	C	1.462996	0.131261	-0.341403
C193	C	1.418380	0.080888	-0.395812
H194	H	1.220377	0.105136	-0.359278
H195	H	1.298021	0.192797	-0.264592
H196	H	1.452100	0.209388	-0.253240
H197	H	1.528540	0.138317	-0.336575
H198	H	1.450896	0.050656	-0.431261
H199	H	0.995727	-0.305868	-0.729184
C200	C	1.241158	-0.621149	-0.284883
C201	C	1.194302	-0.669564	-0.339746
C202	C	1.231469	-0.677514	-0.414648
C203	C	1.315492	-0.637049	-0.434686
C204	C	1.362353	-0.588631	-0.379821
C205	C	1.325186	-0.580680	-0.304919
H206	H	1.132099	-0.699521	-0.324914
H207	H	1.196779	-0.713357	-0.455263
H208	H	1.343005	-0.642934	-0.490132
H209	H	1.424557	-0.558673	-0.394653
H210	H	1.359876	-0.544838	-0.264305
H211	H	1.141907	-0.140817	-0.452047
C212	C	1.013333	-0.286057	-0.887193
C213	C	0.951061	-0.356404	-0.854354
C214	C	0.906474	-0.406811	-0.908749
C215	C	0.924158	-0.386870	-0.995982
C216	C	0.986433	-0.316520	-1.028826
C217	C	1.031021	-0.266114	-0.974432
H218	H	0.937967	-0.371169	-0.789774
H219	H	0.860373	-0.458889	-0.884435
H220	H	0.891152	-0.424184	-1.036248
H221	H	0.999527	-0.301756	-1.093406
H222	H	1.077121	-0.214035	-0.998746
H223	H	1.322909	0.063527	-0.689134
H224	H	0.864516	-0.085271	-0.114790
H225	H	0.443455	0.002589	0.002031
H226	H	0.756245	-0.239521	-0.319773
H227	H	0.537725	-0.165879	-0.221884
