data_functionalizedCrystal
_audit_creation_method	'MofGen! by Chris Wilmer'
_symmetry_space_group_name_H-M	'P1'
_symmetry_Int_Tables_number	1
_symmetry_cell_setting	triclinic
loop_
_symmetry_equiv_pos_as_xyz
  x,y,z
_cell_length_a	17.699077
_cell_length_b	15.944493
_cell_length_c	15.021413
_cell_angle_alpha	90.009890
_cell_angle_beta	89.993259
_cell_angle_gamma	83.377810
loop_
_atom_site_label
_atom_site_type_symbol
_atom_site_fract_x
_atom_site_fract_y
_atom_site_fract_z
O1	O	1.004244	0.106188	-0.074009
O2	O	1.504244	0.606188	0.425991
O3	O	0.783886	0.120013	-0.074012
O4	O	1.283886	0.620013	0.425988
O5	O	0.900106	-0.009191	-0.074017
O6	O	1.400106	0.490809	0.425983
O7	O	0.888025	0.235391	-0.074003
O8	O	1.388025	0.735391	0.425997
O9	O	0.900087	-0.009172	0.074047
O10	O	1.400087	0.490828	0.574047
O11	O	0.783868	0.120031	0.074053
O12	O	1.283868	0.620031	0.574053
O13	O	1.004226	0.106206	0.074056
O14	O	1.504226	0.606206	0.574056
Zn15	Zn	0.894044	0.113122	0.097562
Zn16	Zn	1.394044	0.613122	0.597562
Zn17	Zn	0.894068	0.113097	-0.097519
Zn18	Zn	1.394068	0.613097	0.402481
O19	O	0.888006	0.235410	0.074061
O20	O	1.388006	0.735410	0.574061
C21	C	0.755679	0.119528	0.000020
C22	C	1.255679	0.619528	0.500020
C23	C	0.671659	0.118044	0.000018
C24	C	1.171659	0.618044	0.500018
C25	C	0.632180	0.117355	0.080729
C26	C	1.132180	0.617355	0.580729
C27	C	0.553235	0.115948	0.080730
C28	C	1.053235	0.615948	0.580730
C29	C	0.513770	0.115235	0.000019
C30	C	1.013770	0.615235	0.500019
C31	C	0.553254	0.115922	-0.080698
C32	C	1.053254	0.615922	0.419302
C33	C	0.632198	0.117323	-0.080698
C34	C	1.132198	0.617323	0.419302
C35	C	0.234883	0.110269	-0.080700
C36	C	0.734883	0.610269	0.419300
C37	C	0.155933	0.108870	-0.080694
C38	C	0.655933	0.608870	0.419306
C39	C	0.155920	0.108894	0.080728
C40	C	0.655920	0.608894	0.580728
C41	C	0.234864	0.110295	0.080728
C42	C	0.734864	0.610295	0.580728
C43	C	0.274342	0.110977	0.000011
C44	C	0.774342	0.610977	0.500011
C45	C	0.359943	0.112501	0.000011
C46	C	0.859943	0.612501	0.500011
C47	C	0.428170	0.113717	0.000018
C48	C	0.928170	0.613717	0.500018
C49	C	0.899603	-0.040475	0.000011
C50	C	1.399603	0.459525	0.500011
C51	C	0.898122	-0.133721	-0.000000
C52	C	1.398122	0.366279	0.500000
C53	C	0.966532	-0.369626	0.000017
C54	C	1.466532	0.130374	0.500017
C55	C	0.929650	-0.420125	-0.072986
C56	C	1.429650	0.079875	0.427014
C57	C	0.895379	-0.304436	0.000010
C58	C	1.395379	0.195564	0.500010
C59	C	0.929615	-0.420083	0.072994
C60	C	1.429615	0.079917	0.572994
C61	C	0.892735	-0.469340	0.000025
C62	C	1.392735	0.030660	0.500025
C63	C	0.858517	-0.353706	-0.073053
C64	C	1.358517	0.146294	0.426947
C65	C	0.858493	-0.353661	0.072992
C66	C	1.358493	0.146339	0.572992
C67	C	0.821559	-0.404126	-0.000029
C68	C	1.321559	0.095874	0.499971
C69	C	0.896905	-0.209439	0.000001
C70	C	1.396905	0.290561	0.500001
C71	C	0.891204	-0.564334	0.000027
C72	C	1.391204	-0.064334	0.500027
C73	C	1.032433	0.106691	0.000022
C74	C	1.532433	0.606691	0.500022
C75	C	1.116453	0.108175	0.000018
C76	C	1.616453	0.608175	0.500018
C77	C	0.888509	0.266694	0.000031
C78	C	1.388509	0.766694	0.500031
C79	C	0.889990	0.359940	0.000037
C80	C	1.389990	0.859940	0.500037
N81	N	0.894033	0.113138	0.230700
N82	N	1.394033	0.613138	0.730700
N83	N	0.894085	0.113075	-0.230656
N84	N	1.394085	0.613075	0.269344
C85	C	0.840285	0.172854	0.470386
C86	C	1.340285	0.672854	0.970386
C87	C	0.908673	0.189016	0.529723
C88	C	1.408673	0.689016	1.029723
C89	C	0.894052	0.113117	0.412307
C90	C	1.394052	0.613117	0.912307
C91	C	0.825682	0.096973	0.529712
C92	C	1.325682	0.596973	1.029712
C93	C	0.894065	0.113098	0.587731
C94	C	1.394065	0.613098	1.087731
C95	C	0.962475	0.129316	0.470337
C96	C	1.462475	0.629316	0.970337
C97	C	0.879439	0.037242	0.470321
C98	C	1.379439	0.537242	0.970321
C99	C	0.947877	0.053371	0.529631
C100	C	1.447877	0.553371	1.029631
C101	C	0.894044	0.113130	0.311250
C102	C	1.394044	0.613130	0.811250
C103	C	0.894081	0.113085	0.688786
C104	C	1.394081	0.613085	1.188786
H105	H	0.123802	0.108289	-0.146422
H106	H	0.623802	0.608289	0.353578
H107	H	0.828493	-0.324830	-0.134838
H108	H	1.328493	0.175170	0.365162
H109	H	0.828462	-0.324628	0.134713
H110	H	1.328462	0.175372	0.634713
H111	H	0.993401	0.002843	0.555481
H112	H	1.493401	0.502843	1.055481
H113	H	0.760223	-0.419462	-0.000070
H114	H	1.260223	0.080538	0.499930
C115	C	0.675624	0.118083	-0.169486
C116	C	1.175624	0.618083	0.330514
N117	N	0.708332	0.118653	-0.236364
N118	N	1.208332	0.618653	0.263636
C119	C	0.862696	-0.049404	0.435039
C120	C	1.362696	0.450596	0.935039
N121	N	0.850076	-0.114665	0.408461
N122	N	1.350076	0.385335	0.908461
H123	H	0.959671	-0.449070	0.134708
H124	H	1.459671	0.050930	0.634708
H125	H	0.794861	0.223412	0.444373
H126	H	1.294861	0.723412	0.944373
C127	C	0.112488	0.108133	0.169518
C128	C	0.612488	0.608133	0.669518
N129	N	0.079776	0.107562	0.236394
N130	N	0.579776	0.607562	0.736394
C131	C	0.278299	0.111012	-0.169490
C132	C	0.778299	0.611012	0.330510
N133	N	0.311003	0.111569	-0.236372
N134	N	0.811003	0.611569	0.263628
C135	C	1.049328	-0.348685	-0.000080
C136	C	1.549328	0.151315	0.499920
N137	N	1.111689	-0.332910	-0.000157
N138	N	1.611689	0.167090	0.499843
H139	H	0.921044	0.253174	0.555814
H140	H	1.421044	0.753174	1.055814
H141	H	1.020312	0.143039	0.444366
H142	H	1.520312	0.643039	0.944366
C143	C	0.747564	0.078534	0.564942
C144	C	1.247564	0.578534	1.064942
N145	N	0.688723	0.064650	0.591474
N146	N	1.188723	0.564650	1.091474
H147	H	0.266992	0.110879	0.146451
H148	H	0.766992	0.610879	0.646451
H149	H	0.521097	0.115373	0.146453
H150	H	1.021097	0.615373	0.646453
H151	H	0.521116	0.115336	-0.146414
H152	H	1.021116	0.615336	0.353586
C153	C	0.675585	0.118138	0.169519
C154	C	1.175585	0.618138	0.669519
N155	N	0.708276	0.118724	0.236398
N156	N	1.208276	0.618724	0.736398
C157	C	0.970256	-0.459334	-0.156361
C158	C	1.470256	0.040666	0.343639
N159	N	1.000846	-0.488867	-0.219155
N160	N	1.500846	0.011133	0.280845
