data_functionalizedCrystal
_audit_creation_method	'MofGen! by Chris Wilmer'
_symmetry_space_group_name_H-M	'P1'
_symmetry_Int_Tables_number	1
_symmetry_cell_setting	triclinic
loop_
_symmetry_equiv_pos_as_xyz
  x,y,z
_cell_length_a	11.792241
_cell_length_b	19.288864
_cell_length_c	10.268362
_cell_angle_alpha	89.981569
_cell_angle_beta	90.005428
_cell_angle_gamma	96.335169
loop_
_atom_site_label
_atom_site_type_symbol
_atom_site_fract_x
_atom_site_fract_y
_atom_site_fract_z
O1	O	0.141581	-0.922153	0.108719
O2	O	0.474915	-0.588819	0.442052
O3	O	0.808248	-0.255486	0.775385
O4	O	0.160681	-0.720000	0.108630
O5	O	0.494014	-0.386667	0.441963
O6	O	0.827347	-0.053334	0.775296
O7	O	-0.014114	-0.825982	0.108667
O8	O	0.319219	-0.492649	0.442001
O9	O	0.652553	-0.159316	0.775334
O10	O	0.316376	-0.816171	0.108681
O11	O	0.649709	-0.482838	0.442015
O12	O	0.983043	-0.149504	0.775348
O13	O	-0.014121	-0.825973	-0.107933
O14	O	0.319212	-0.492640	0.225400
O15	O	0.652546	-0.159306	0.558733
O16	O	0.160674	-0.719991	-0.107971
O17	O	0.494007	-0.386658	0.225362
O18	O	0.827340	-0.053324	0.558696
O19	O	0.141574	-0.922143	-0.107882
O20	O	0.474908	-0.588810	0.225451
O21	O	0.808241	-0.255477	0.558785
Cu22	Cu	0.151123	-0.821066	-0.127704
Cu23	Cu	0.484457	-0.487733	0.205630
Cu24	Cu	0.817790	-0.154400	0.538963
Cu25	Cu	0.151132	-0.821077	0.128452
Cu26	Cu	0.484465	-0.487744	0.461785
Cu27	Cu	0.817798	-0.154411	0.795118
O28	O	0.316369	-0.816162	-0.107919
O29	O	0.649702	-0.482828	0.225414
O30	O	0.983036	-0.149495	0.558747
C31	C	0.160063	-0.694116	0.000318
C32	C	0.493396	-0.360783	0.333651
C33	C	0.826729	-0.027449	0.666985
C34	C	0.158218	-0.617002	0.000284
C35	C	0.491551	-0.283668	0.333617
C36	C	0.824884	0.049665	0.666951
C37	C	-0.056399	-0.825361	0.000367
C38	C	0.276934	-0.492028	0.333700
C39	C	0.610268	-0.158695	0.667034
C40	C	-0.182385	-0.823517	0.000368
C41	C	0.150949	-0.490183	0.333701
C42	C	0.484282	-0.156850	0.667034
N43	N	0.151117	-0.821064	-0.307870
N44	N	0.484450	-0.487730	0.025464
N45	N	0.817783	-0.154397	0.358797
C46	C	-0.413046	-0.820125	0.000388
C47	C	-0.079712	-0.486791	0.333721
C48	C	0.253621	-0.153458	0.667054
C49	C	-0.284689	-0.822009	0.000377
C50	C	0.048644	-0.488676	0.333710
C51	C	0.381978	-0.155343	0.667043
C52	C	0.358654	-0.816782	0.000384
C53	C	0.691987	-0.483449	0.333717
C54	C	1.025321	-0.150116	0.667050
C55	C	0.484640	-0.818627	0.000392
C56	C	0.817973	-0.485294	0.333725
C57	C	1.151306	-0.151961	0.667058
C58	C	0.142192	-0.948028	0.000433
C59	C	0.475526	-0.614695	0.333766
C60	C	0.808859	-0.281361	0.667099
C61	C	0.144037	-1.025142	0.000475
C62	C	0.477371	-0.691809	0.333809
C63	C	0.810704	-0.358475	0.667142
C64	C	0.260779	-0.572888	0.000309
C65	C	0.594113	-0.239555	0.333642
C66	C	0.927446	0.093779	0.666975
C67	C	0.259046	-0.500431	0.000323
C68	C	0.592379	-0.167098	0.333656
C69	C	0.925713	0.166235	0.666990
C70	C	0.154746	-0.472091	0.000339
C71	C	0.488079	-0.138758	0.333672
C72	C	0.821412	0.194576	0.667005
C73	C	0.052171	-0.516215	0.000306
C74	C	0.385504	-0.182881	0.333640
C75	C	0.718837	0.150452	0.666973
C76	C	0.053907	-0.588670	0.000279
C77	C	0.387240	-0.255337	0.333612
C78	C	0.720573	0.077997	0.666946
C79	C	0.072756	-0.363367	0.076264
C80	C	0.406090	-0.030033	0.409597
C81	C	0.739423	0.303300	0.742930
C82	C	0.071025	-0.290912	0.076299
C83	C	0.404358	0.042421	0.409632
C84	C	0.737691	0.375754	0.742966
C85	C	0.149387	-0.248615	0.000417
C86	C	0.482720	0.084718	0.333751
C87	C	0.816053	0.418052	0.667084
C88	C	0.229500	-0.278780	-0.075483
C89	C	0.562833	0.054554	0.257850
C90	C	0.896167	0.387887	0.591183
C91	C	0.231236	-0.351235	-0.075511
C92	C	0.564569	-0.017902	0.257823
C93	C	0.897903	0.315432	0.591156
C94	C	0.152852	-0.393526	0.000367
C95	C	0.486185	-0.060193	0.333701
C96	C	0.819518	0.273140	0.667034
C97	C	0.250076	-0.125935	0.000456
C98	C	0.583409	0.207398	0.333789
C99	C	0.916743	0.540732	0.667122
C100	C	0.248339	-0.053477	0.000462
C101	C	0.581672	0.279856	0.333795
C102	C	0.915005	0.613190	0.667129
C103	C	0.041460	-0.069262	0.000459
C104	C	0.374794	0.264071	0.333792
C105	C	0.708127	0.597405	0.667125
C106	C	0.043201	-0.141718	0.000439
C107	C	0.376534	0.191615	0.333773
C108	C	0.709867	0.524948	0.667106
C109	C	0.147512	-0.170050	0.000444
C110	C	0.480845	0.163283	0.333777
C111	C	0.814178	0.496617	0.667111
C112	C	0.151129	-0.821074	-0.573540
C113	C	0.484463	-0.487741	-0.240207
C114	C	0.817796	-0.154407	0.093126
C115	C	0.151126	-0.821066	-0.425702
C116	C	0.484459	-0.487733	-0.092369
C117	C	0.817792	-0.154399	0.240964
N118	N	0.151129	-0.821085	0.308617
N119	N	0.484463	-0.487752	0.641951
N120	N	0.817796	-0.154419	0.975284
H121	H	0.342567	-0.464507	0.000340
H122	H	0.675900	-0.131174	0.333673
H123	H	1.009233	0.202160	0.667006
C124	C	0.315709	-0.232262	-0.158950
C125	C	0.649043	0.101071	0.174383
C126	C	0.982376	0.434404	0.507717
H127	H	0.303199	-0.184791	-0.148075
H128	H	0.636532	0.148543	0.185258
H129	H	0.969865	0.481876	0.518591
H130	H	0.391081	-0.238416	-0.132264
H131	H	0.724415	0.094917	0.201069
H132	H	1.057748	0.428251	0.534402
H133	H	0.306017	-0.244874	-0.248008
H134	H	0.639350	0.088460	0.085325
H135	H	0.972684	0.421793	0.418659
H136	H	-0.032752	-0.493136	0.000337
H137	H	0.300582	-0.159802	0.333670
H138	H	0.633915	0.173531	0.667004
C139	C	-0.058913	-0.637200	0.000262
C140	C	0.274421	-0.303867	0.333595
C141	C	0.607754	0.029467	0.666928
H142	H	-0.042940	-0.684410	0.000239
H143	H	0.290394	-0.351076	0.333572
H144	H	0.623727	-0.017743	0.666906
H145	H	-0.101697	-0.628587	0.075795
H146	H	0.231636	-0.295254	0.409129
H147	H	0.564970	0.038079	0.742462
H148	H	-0.101697	-0.628550	-0.075281
H149	H	0.231637	-0.295217	0.258052
H150	H	0.564970	0.038117	0.591386
H151	H	0.345717	-0.595951	0.000315
H152	H	0.679051	-0.262618	0.333648
H153	H	1.012384	0.070716	0.666982
C154	C	-0.013439	-0.409886	0.159751
C155	C	0.319894	-0.076553	0.493084
C156	C	0.653228	0.256780	0.826418
H157	H	-0.061384	-0.381545	0.204974
H158	H	0.271949	-0.048212	0.538308
H159	H	0.605283	0.285122	0.871641
H160	H	-0.058595	-0.441637	0.105044
H161	H	0.274738	-0.108303	0.438378
H162	H	0.608072	0.225030	0.771711
H163	H	0.026496	-0.435169	0.220762
H164	H	0.359829	-0.101835	0.554096
H165	H	0.693163	0.231498	0.887429
H166	H	0.335012	-0.149004	0.000440
H167	H	0.668346	0.184330	0.333774
H168	H	1.001679	0.517663	0.667107
C169	C	-0.017086	-0.257734	0.159790
C170	C	0.316247	0.075600	0.493124
C171	C	0.649581	0.408933	0.826457
H172	H	-0.006887	-0.208524	0.148955
H173	H	0.326446	0.124810	0.482289
H174	H	0.659779	0.458143	0.815622
H175	H	-0.091893	-0.275326	0.133103
H176	H	0.241441	0.058007	0.466436
H177	H	0.574774	0.391341	0.799769
H178	H	-0.006819	-0.268875	0.248838
H179	H	0.326514	0.064459	0.582171
H180	H	0.659848	0.397792	0.915504
H181	H	0.296464	-0.375792	-0.137316
H182	H	0.629797	-0.042459	0.196018
H183	H	0.963130	0.290875	0.529351
H184	H	-0.040316	-0.177637	0.000426
H185	H	0.293017	0.155697	0.333759
H186	H	0.626350	0.489030	0.667093
C187	C	-0.073271	-0.038100	0.000469
C188	C	0.260062	0.295233	0.333803
C189	C	0.593395	0.628567	0.667136
H190	H	-0.134107	-0.074754	0.000446
H191	H	0.199226	0.258580	0.333779
H192	H	0.532560	0.591913	0.667112
H193	H	-0.078250	-0.010181	0.076009
H194	H	0.255083	0.323152	0.409342
H195	H	0.588416	0.656485	0.742676
H196	H	-0.078248	-0.010146	-0.075067
H197	H	0.255086	0.323187	0.258266
H198	H	0.588419	0.656521	0.591599
H199	H	0.331860	-0.017560	0.000475
H200	H	0.665193	0.315774	0.333808
H201	H	0.998527	0.649107	0.667141
