data_functionalizedCrystal
_audit_creation_method	'MofGen! by Chris Wilmer'
_symmetry_space_group_name_H-M	'P1'
_symmetry_Int_Tables_number	1
_symmetry_cell_setting	triclinic
loop_
_symmetry_equiv_pos_as_xyz
  x,y,z
_cell_length_a	11.169417
_cell_length_b	10.685194
_cell_length_c	11.169409
_cell_angle_alpha	85.594584
_cell_angle_beta	89.979436
_cell_angle_gamma	94.378129
loop_
_atom_site_label
_atom_site_type_symbol
_atom_site_fract_x
_atom_site_fract_y
_atom_site_fract_z
Zn1	Zn	1.798370	-0.502285	-0.641889
Zn2	Zn	2.131703	-0.168951	-0.308556
Zn3	Zn	2.465037	0.164382	0.024777
Zn4	Zn	1.782876	-0.713364	-0.425803
Zn5	Zn	2.116209	-0.380030	-0.092470
Zn6	Zn	2.449542	-0.046697	0.240864
Zn7	Zn	1.597648	-0.502361	-0.441218
Zn8	Zn	1.930981	-0.169028	-0.107885
Zn9	Zn	2.264314	0.164305	0.225449
Zn10	Zn	1.582290	-0.713261	-0.626455
Zn11	Zn	1.915623	-0.379928	-0.293122
Zn12	Zn	2.248957	-0.046595	0.040211
O13	O	1.690296	-0.607818	-0.533841
O14	O	2.023629	-0.274484	-0.200508
O15	O	2.356963	0.058849	0.132825
O16	O	1.964264	-0.530296	-0.613233
O17	O	2.297597	-0.196962	-0.279899
O18	O	2.630930	0.136371	0.053434
O19	O	1.758248	-0.685449	-0.259892
O20	O	2.091581	-0.352116	0.073441
O21	O	2.424915	-0.018782	0.406774
O22	O	1.637186	-0.325752	-0.480748
O23	O	1.970519	0.007582	-0.147415
O24	O	2.303853	0.340915	0.185919
O25	O	1.952880	-0.685374	-0.454475
O26	O	2.286213	-0.352041	-0.121142
O27	O	2.619547	-0.018708	0.212192
O28	O	1.784656	-0.325695	-0.628180
O29	O	2.117989	0.007638	-0.294847
O30	O	2.451322	0.340971	0.038487
O31	O	1.622162	-0.530426	-0.271218
O32	O	1.955495	-0.197093	0.062116
O33	O	2.288828	0.136240	0.395449
O34	O	1.427662	-0.530327	-0.465782
O35	O	1.760995	-0.196994	-0.132449
O36	O	2.094328	0.136340	0.200884
O37	O	1.611010	-0.685200	-0.796458
O38	O	1.944344	-0.351866	-0.463125
O39	O	2.277677	-0.018533	-0.129791
O40	O	1.416378	-0.685274	-0.601875
O41	O	1.749712	-0.351941	-0.268542
O42	O	2.083045	-0.018607	0.064791
O43	O	1.769764	-0.530196	-0.807797
O44	O	2.103097	-0.196863	-0.474464
O45	O	2.436430	0.136470	-0.141130
O46	O	1.743356	-0.889950	-0.439509
O47	O	2.076689	-0.556616	-0.106176
O48	O	2.410023	-0.223283	0.227157
O49	O	1.595986	-0.889875	-0.586928
O50	O	1.929320	-0.556541	-0.253595
O51	O	2.262653	-0.223208	0.079739
C52	C	1.378473	-0.607799	-0.533827
C53	C	1.711806	-0.274465	-0.200494
C54	C	2.045139	0.058868	0.132839
C55	C	1.245071	-0.607821	-0.533848
C56	C	1.578404	-0.274488	-0.200514
C57	C	1.911738	0.058846	0.132819
C58	C	1.666356	-0.935702	-0.509897
C59	C	1.999689	-0.602369	-0.176564
C60	C	2.333022	-0.269036	0.156769
C61	C	1.656224	-1.075973	-0.499694
C62	C	1.989557	-0.742640	-0.166361
C63	C	2.322890	-0.409306	0.166973
C64	C	2.003337	-0.607838	-0.533856
C65	C	2.336670	-0.274505	-0.200523
C66	C	2.670003	0.058829	0.132811
C67	C	2.136736	-0.607846	-0.533862
C68	C	2.470069	-0.274513	-0.200529
C69	C	2.803403	0.058820	0.132804
C70	C	1.690402	-0.607678	-0.846894
C71	C	2.023736	-0.274345	-0.513561
C72	C	2.357069	0.058989	-0.180227
C73	C	1.690448	-0.607618	-0.980299
C74	C	2.023781	-0.274285	-0.646965
C75	C	2.357114	0.059048	-0.313632
C76	C	1.714362	-0.278653	-0.557905
C77	C	2.047696	0.054681	-0.224572
C78	C	2.381029	0.388014	0.108762
C79	C	1.724618	-0.138382	-0.568160
C80	C	2.057951	0.194951	-0.234826
C81	C	2.391285	0.528284	0.098507
C82	C	1.690266	-0.607866	-0.222013
C83	C	2.023599	-0.274533	0.111320
C84	C	2.356932	0.058801	0.444654
C85	C	1.690479	-0.607570	-0.088635
C86	C	2.023812	-0.274237	0.244698
C87	C	2.357145	0.059097	0.578031
H88	H	1.790926	-1.084504	-0.634588
H89	H	2.124259	-0.751170	-0.301255
H90	H	2.457593	-0.417837	0.032079
H91	H	1.589901	-1.129859	-0.433272
H92	H	1.923235	-0.796526	-0.099939
H93	H	2.256568	-0.463192	0.233394
