data_functionalizedCrystal
_audit_creation_method	'MofGen! by Chris Wilmer'
_symmetry_space_group_name_H-M	'P1'
_symmetry_Int_Tables_number	1
_symmetry_cell_setting	triclinic
loop_
_symmetry_equiv_pos_as_xyz
  x,y,z
_cell_length_a	9.565339
_cell_length_b	10.489741
_cell_length_c	10.489741
_cell_angle_alpha	95.460826
_cell_angle_beta	90.000516
_cell_angle_gamma	90.000900
loop_
_atom_site_label
_atom_site_type_symbol
_atom_site_fract_x
_atom_site_fract_y
_atom_site_fract_z
O1	O	-0.116173	-1.694053	0.179959
O2	O	-0.116194	-1.322857	0.196852
O3	O	-0.116175	-1.516901	0.002807
O4	O	-0.116192	-1.500009	0.374003
O5	O	0.116345	-1.516886	0.002819
O6	O	0.116326	-1.322842	0.196864
O7	O	0.116347	-1.694038	0.179971
Zn8	Zn	0.153254	-1.508437	0.188419
Zn9	Zn	-0.153101	-1.508458	0.188403
O10	O	0.116328	-1.499993	0.374015
C11	C	0.000084	-1.515618	-0.044718
C12	C	0.000082	-1.511801	-0.186348
C13	C	0.000063	-1.275318	0.195582
C14	C	0.000055	-1.133688	0.191765
N15	N	0.362334	-1.508433	0.188429
N16	N	-0.362180	-1.508472	0.188383
C17	C	0.453528	-1.418666	0.278138
C18	C	0.546712	-1.534163	0.303949
C19	C	0.546704	-1.392986	0.162629
C20	C	0.453466	-1.623988	0.214298
C21	C	0.453451	-1.482735	0.072928
C22	C	0.546593	-1.598314	0.098690
C23	C	0.000087	-1.741577	0.181241
C24	C	0.000086	-1.883206	0.185058
C25	C	0.000074	-1.065548	0.068300
C26	C	-0.114571	-0.973429	0.126617
C27	C	0.114676	-0.973448	0.126659
C28	C	-0.114684	-1.043435	0.250133
C29	C	0.114665	-1.043463	0.250157
C30	C	-0.000007	-0.951371	0.308564
C31	C	0.000064	-1.388336	-0.254488
C32	C	0.114712	-1.446652	-0.346604
C33	C	-0.114534	-1.446696	-0.346591
C34	C	0.114824	-1.570168	-0.276599
C35	C	-0.114525	-1.570195	-0.276576
C36	C	0.000150	-1.628600	-0.368665
C37	C	0.000066	-1.501277	0.421541
C38	C	0.000059	-1.505094	0.563170
H39	H	0.412665	-1.342823	0.354073
Br40	Br	0.385115	-1.446405	-0.089793
Br41	Br	0.614284	-1.725001	-0.027795
H42	H	0.587664	-1.295338	0.140828
H43	H	-0.000065	-1.115238	-0.033196
Br44	Br	0.276222	-0.921804	0.039564
H45	H	-0.211491	-0.942421	0.074372
Br46	Br	-0.000110	-0.868988	0.477907
Br47	Br	-0.276413	-1.094816	0.337131
H48	H	0.587676	-1.555926	0.401606
Br49	Br	0.276553	-1.657160	-0.225213
Br50	Br	0.000233	-1.219144	-0.171734
Br51	Br	0.276214	-1.095202	0.337169
H52	H	0.412683	-1.721659	0.236217
Br53	Br	0.000257	-1.797943	-0.451046
H54	H	0.211633	-1.394405	-0.377611
H55	H	-0.211451	-1.622398	-0.245536
H56	H	-0.211470	-1.394447	-0.377560
