data_functionalizedCrystal
_audit_creation_method	'MofGen! by Chris Wilmer'
_symmetry_space_group_name_H-M	'P1'
_symmetry_Int_Tables_number	1
_symmetry_cell_setting	triclinic
loop_
_symmetry_equiv_pos_as_xyz
  x,y,z
_cell_length_a	15.944493
_cell_length_b	15.944551
_cell_length_c	15.021413
_cell_angle_alpha	90.003065
_cell_angle_beta	89.993251
_cell_angle_gamma	83.486891
loop_
_atom_site_label
_atom_site_type_symbol
_atom_site_fract_x
_atom_site_fract_y
_atom_site_fract_z
O1	O	1.114559	0.108089	-0.074022
O2	O	1.614559	0.608089	0.425978
O3	O	0.870003	0.121496	-0.074027
O4	O	1.370003	0.621496	0.425973
O5	O	0.998959	-0.007484	-0.074016
O6	O	1.498959	0.492516	0.425984
O7	O	0.985603	0.237069	-0.074033
O8	O	1.485603	0.737069	0.425967
O9	O	0.998939	-0.007465	0.074048
O10	O	1.498939	0.492535	0.574048
O11	O	0.869982	0.121514	0.074037
O12	O	1.369982	0.621514	0.574037
O13	O	1.114539	0.108107	0.074042
O14	O	1.614539	0.608107	0.574042
Zn15	Zn	0.992257	0.114814	0.097548
Zn16	Zn	1.492257	0.614814	0.597548
Zn17	Zn	0.992284	0.114790	-0.097533
Zn18	Zn	1.492284	0.614790	0.402467
O19	O	0.985582	0.237087	0.074032
O20	O	1.485582	0.737087	0.574032
C21	C	0.838698	0.120957	0.000005
C22	C	1.338698	0.620957	0.500005
C23	C	0.745449	0.119314	0.000003
C24	C	1.245449	0.619314	0.500003
C25	C	0.509689	0.195235	-0.000002
C26	C	1.009689	0.695235	0.499998
C27	C	0.459121	0.154303	0.073008
C28	C	0.959121	0.654303	0.573008
C29	C	0.574728	0.116270	0.000005
C30	C	1.074728	0.616270	0.500005
C31	C	0.459146	0.154266	-0.072972
C32	C	0.959146	0.654266	0.427028
C33	C	0.409819	0.113336	0.000003
C34	C	0.909819	0.613336	0.500003
C35	C	0.525388	0.075360	0.073075
C36	C	1.025388	0.575360	0.573075
C37	C	0.525416	0.075334	-0.072970
C38	C	1.025416	0.575334	0.427030
C39	C	0.474880	0.034345	0.000058
C40	C	0.974880	0.534345	0.500058
C41	C	0.669728	0.117963	0.000007
C42	C	1.169728	0.617963	0.500007
C43	C	0.314821	0.111637	0.000008
C44	C	0.814821	0.611637	0.500008
C45	C	0.998395	-0.038768	0.000016
C46	C	1.498395	0.461232	0.500016
C47	C	0.996732	-0.132014	0.000016
C48	C	1.496732	0.367986	0.500016
C49	C	0.912826	-0.346853	0.000003
C50	C	1.412826	0.153147	0.500003
C51	C	0.951779	-0.407870	0.073008
C52	C	1.451779	0.092130	0.573008
C53	C	0.993725	-0.302739	0.000010
C54	C	1.493725	0.197261	0.500010
C55	C	0.951818	-0.407871	-0.072972
C56	C	1.451818	0.092129	0.427028
C57	C	0.990814	-0.467651	-0.000001
C58	C	1.490814	0.032349	0.499999
C59	C	1.032700	-0.362527	0.073075
C60	C	1.532700	0.137473	0.573075
C61	C	1.032728	-0.362523	-0.072970
C62	C	1.532728	0.137477	0.427030
C63	C	1.071741	-0.423521	0.000053
C64	C	1.571741	0.076479	0.500053
C65	C	0.995399	-0.207737	0.000016
C66	C	1.495399	0.292263	0.500016
C67	C	0.989146	-0.562652	-0.000001
C68	C	1.489146	-0.062652	0.499999
C69	C	1.145844	0.108646	0.000009
C70	C	1.645844	0.608646	0.500009
C71	C	1.239092	0.110289	0.000004
C72	C	1.739092	0.610289	0.500004
C73	C	0.986147	0.268372	-0.000003
C74	C	1.486147	0.768372	0.499997
C75	C	0.987809	0.361617	-0.000009
C76	C	1.487809	0.861617	0.499991
N77	N	0.992245	0.114830	0.230686
N78	N	1.492245	0.614830	0.730686
N79	N	0.992303	0.114767	-0.230670
N80	N	1.492303	0.614767	0.269330
C81	C	0.932606	0.174442	0.470364
C82	C	1.432606	0.674442	0.970364
C83	C	1.008509	0.190733	0.529699
C84	C	1.508509	0.690733	1.029699
C85	C	0.992266	0.114809	0.412293
C86	C	1.492266	0.614809	0.912293
C87	C	0.916385	0.098536	0.529700
C88	C	1.416385	0.598536	1.029700
C89	C	0.992280	0.114791	0.587717
C90	C	1.492280	0.614791	1.087717
C91	C	1.068207	0.131138	0.470321
C92	C	1.568207	0.631138	0.970321
C93	C	0.976033	0.038908	0.470317
C94	C	1.476033	0.538908	0.970317
C95	C	1.051990	0.055167	0.529624
C96	C	1.551990	0.555167	1.029624
C97	C	0.992257	0.114822	0.311235
C98	C	1.492257	0.614822	0.811235
C99	C	0.992298	0.114777	0.688772
C100	C	1.492298	0.614777	1.188772
H101	H	0.525313	0.263254	0.000061
H102	H	1.025313	0.763254	0.500061
H103	H	1.066880	-0.342536	0.134863
H104	H	1.566880	0.157464	0.634863
H105	H	1.102504	0.004726	0.555481
H106	H	1.602504	0.504726	1.055481
H107	H	0.430175	0.187659	0.134726
H108	H	0.930175	0.687659	0.634726
O109	O	0.454378	-0.055817	0.000114
O110	O	0.954378	0.444183	0.500114
H111	H	0.481154	-0.088382	0.060773
H112	H	0.981154	0.411618	0.560773
H113	H	0.430216	0.187622	-0.134688
H114	H	0.930216	0.687622	0.365312
O115	O	0.906485	-0.434480	-0.154722
O116	O	1.406485	0.065520	0.345278
H117	H	0.906187	-0.504057	-0.154297
H118	H	1.406187	-0.004057	0.345703
H119	H	0.962266	-0.025251	0.444213
H120	H	1.462266	0.474749	0.944213
O121	O	0.831376	0.080313	0.564252
O122	O	1.331376	0.580313	1.064252
H123	H	0.839222	0.021811	0.604888
H124	H	1.339222	0.521811	1.104888
O125	O	0.563549	0.031235	0.154929
O126	O	1.063549	0.531235	0.654929
H127	H	0.632957	0.032853	0.154306
H128	H	1.132957	0.532853	0.654306
O129	O	0.865844	0.241288	0.435883
O130	O	1.365844	0.741288	0.935883
H131	H	0.879534	0.304225	0.459667
H132	H	1.379534	0.804225	0.959667
O133	O	0.563784	0.031184	-0.154722
O134	O	1.063784	0.531184	0.345278
H135	H	0.537122	0.064096	-0.215238
H136	H	1.037122	0.564096	0.284762
O137	O	0.823884	-0.302702	0.000091
O138	O	1.323884	0.197298	0.500091
H139	H	0.790494	-0.320736	0.060785
H140	H	1.290494	0.179264	0.560785
O141	O	1.026674	0.275746	0.564284
O142	O	1.526674	0.775746	1.064284
H143	H	1.035118	0.318316	0.507312
H144	H	1.535118	0.818316	1.007312
H145	H	1.138950	-0.456694	0.000096
H146	H	1.638950	0.043306	0.500096
H147	H	1.132399	0.144970	0.444348
H148	H	1.632399	0.644970	0.944348
H149	H	0.917553	-0.427963	0.134727
H150	H	1.417553	0.072037	0.634727
H151	H	1.066925	-0.342407	-0.134692
H152	H	1.566925	0.157593	0.365308
