data_functionalizedCrystal
_audit_creation_method	'MofGen! by Chris Wilmer'
_symmetry_space_group_name_H-M	'P1'
_symmetry_Int_Tables_number	1
_symmetry_cell_setting	triclinic
loop_
_symmetry_equiv_pos_as_xyz
  x,y,z
_cell_length_a	15.995292
_cell_length_b	15.995350
_cell_length_c	9.730223
_cell_angle_alpha	90.000899
_cell_angle_beta	89.998623
_cell_angle_gamma	83.480495
loop_
_atom_site_label
_atom_site_type_symbol
_atom_site_fract_x
_atom_site_fract_y
_atom_site_fract_z
O1	O	1.111011	0.107691	-0.114320
O2	O	0.867229	0.121070	-0.114314
O3	O	0.995784	-0.007509	-0.114316
O4	O	0.982456	0.236269	-0.114318
O5	O	0.995783	-0.007505	0.114264
O6	O	0.867228	0.121073	0.114266
O7	O	1.111010	0.107694	0.114260
Zn8	Zn	0.989118	0.114384	0.150555
Zn9	Zn	0.989120	0.114380	-0.150609
O10	O	0.982455	0.236273	0.114262
C11	C	0.836033	0.120527	-0.000023
C12	C	0.743080	0.118894	-0.000021
C13	C	0.405341	0.112893	-0.000037
C14	C	0.428654	0.205697	-0.000548
C15	C	0.525329	0.207461	-0.000027
C16	C	0.572897	0.115871	-0.000030
C17	C	0.543795	0.069475	0.130496
C18	C	0.447004	0.068358	0.130600
C19	C	0.447150	0.066459	-0.129338
C20	C	0.543643	0.069898	-0.131057
C21	C	0.667593	0.117549	-0.000021
C22	C	0.310646	0.111212	-0.000036
C23	C	0.995232	-0.038702	-0.000029
C24	C	0.993580	-0.131652	-0.000036
C25	C	0.987648	-0.469398	-0.000032
C26	C	0.896094	-0.421945	-0.000542
C27	C	0.897746	-0.325255	-0.000027
C28	C	0.990591	-0.301838	-0.000035
C29	C	1.035748	-0.342923	0.130492
C30	C	1.033448	-0.439558	0.130601
C31	C	1.035341	-0.439921	-0.129337
C32	C	1.035319	-0.342975	-0.131062
C33	C	0.992259	-0.207141	-0.000032
C34	C	0.985983	-0.564095	-0.000025
C35	C	1.142206	0.108237	-0.000034
C36	C	1.235159	0.109870	-0.000045
C37	C	0.983006	0.267466	-0.000029
C38	C	0.984658	0.360416	-0.000030
N39	N	0.989123	0.114386	0.356091
N40	N	0.989122	0.114371	-0.356145
C41	C	1.046062	0.057471	0.428016
C42	C	1.046060	0.057461	0.571899
C43	C	0.932178	0.171289	0.571919
C44	C	0.932176	0.171294	0.428039
C45	C	1.103009	0.000563	0.356069
C46	C	1.159952	-0.056356	0.427994
C47	C	1.159950	-0.056366	0.571877
C48	C	1.103004	0.000543	0.643835
H49	H	0.420186	0.100492	0.228173
H50	H	1.103017	0.000568	0.238912
Br51	Br	0.980753	-0.297011	-0.292031
Br52	Br	1.237223	-0.133596	0.330344
H53	H	1.103002	0.000524	0.760994
H54	H	1.102843	-0.471695	-0.130220
Br55	Br	1.237220	-0.133620	0.669490
H56	H	0.862249	-0.296827	-0.093593
Br57	Br	0.985443	-0.474134	-0.294232
Br58	Br	0.854900	0.248519	0.669574
H59	H	0.885811	0.217639	0.369477
Br60	Br	1.148168	-0.317390	-0.144222
H61	H	0.544356	0.243792	-0.093596
Br62	Br	0.422746	-0.045047	0.140565
H63	H	0.862010	-0.297381	0.093701
H64	H	0.399634	0.241271	0.092532
Br65	Br	0.556010	0.268388	0.156194
Br66	Br	0.381995	0.265322	-0.156568
H67	H	1.000518	-0.457852	0.228178
Br68	Br	0.596897	-0.042866	0.138580
Br69	Br	1.149439	-0.319408	0.138581
Br70	Br	0.577224	0.123176	0.292408
H71	H	0.418824	0.095465	-0.228270
Br72	Br	0.983474	-0.295610	0.292403
Br73	Br	0.574635	0.126171	-0.292009
H74	H	0.433157	-0.001851	-0.130223
H75	H	0.859501	-0.440470	-0.094145
Br76	Br	0.598588	-0.041532	-0.144201
H77	H	0.859662	-0.441530	0.092542
H78	H	1.100666	-0.471820	0.136518
