data_functionalizedCrystal
_audit_creation_method	'MofGen! by Chris Wilmer'
_symmetry_space_group_name_H-M	'P1'
_symmetry_Int_Tables_number	1
_symmetry_cell_setting	triclinic
loop_
_symmetry_equiv_pos_as_xyz
  x,y,z
_cell_length_a	15.995350
_cell_length_b	17.666332
_cell_length_c	15.995350
_cell_angle_alpha	89.995759
_cell_angle_beta	96.507625
_cell_angle_gamma	90.005705
loop_
_atom_site_label
_atom_site_type_symbol
_atom_site_fract_x
_atom_site_fract_y
_atom_site_fract_z
O1	O	1.110991	0.062880	-0.107928
O2	O	0.867216	0.062896	-0.121256
O3	O	0.995767	0.062887	0.007296
O4	O	0.982440	0.062889	-0.236479
O5	O	0.995745	-0.063010	0.007303
O6	O	0.867193	-0.063001	-0.121249
O7	O	1.110969	-0.063016	-0.107921
Cu8	Cu	0.989079	-0.074504	-0.114584
Cu9	Cu	0.989106	0.074383	-0.114592
O10	O	0.982417	-0.063008	-0.236473
C11	C	0.836010	-0.000051	-0.120701
C12	C	0.743060	-0.000045	-0.119049
C13	C	0.405312	-0.000061	-0.113117
C14	C	0.452746	-0.000342	-0.021565
C15	C	0.549436	-0.000053	-0.023217
C16	C	0.572873	-0.000053	-0.116060
C17	C	0.531798	0.071837	-0.161220
C18	C	0.435163	0.071892	-0.158920
C19	C	0.434798	-0.071276	-0.160804
C20	C	0.531743	-0.072221	-0.160782
C21	C	0.667570	-0.000047	-0.117727
C22	C	0.310614	-0.000062	-0.111452
N23	N	0.989066	-0.179224	-0.114578
C24	C	1.046007	-0.218837	-0.057683
C25	C	1.046012	-0.298085	-0.057679
C26	C	0.989084	-0.337716	-0.114584
C27	C	0.932132	-0.298093	-0.171483
C28	C	0.932124	-0.218847	-0.171480
N29	N	0.978426	-0.462133	-0.188673
N30	N	0.978439	-0.537414	-0.188673
C31	C	0.989106	-0.576480	-0.114596
N32	N	0.999776	-0.537421	-0.040516
N33	N	0.999766	-0.462134	-0.040517
C34	C	0.989087	-0.423645	-0.114594
C35	C	1.046056	-0.702023	-0.057692
C36	C	1.046055	-0.781272	-0.057687
C37	C	0.932179	-0.781278	-0.171499
C38	C	0.932176	-0.702030	-0.171497
C39	C	0.989119	-0.662408	-0.114594
C40	C	1.142175	-0.000068	-0.108476
C41	C	1.235125	-0.000069	-0.110127
N42	N	0.989125	0.179103	-0.114592
C43	C	0.995205	-0.000060	0.038494
C44	C	0.993553	-0.000056	0.131444
C45	C	0.982980	-0.000059	-0.267671
C46	C	0.984631	-0.000059	-0.360621
C47	C	0.987621	-0.000058	0.469192
C48	C	0.896069	0.000230	0.421758
C49	C	0.897721	-0.000054	0.325068
C50	C	0.990564	-0.000056	0.301631
C51	C	1.035707	-0.071951	0.342713
C52	C	1.033408	-0.072011	0.439349
C53	C	1.035324	0.071157	0.439699
C54	C	1.035303	0.072107	0.342753
C55	C	0.992231	-0.000058	0.206934
C56	C	0.985956	-0.000061	0.563890
H57	H	0.577856	-0.051588	0.012281
H58	H	0.859486	0.051787	0.440287
C59	C	1.124202	-0.076440	0.482921
H60	H	1.123413	-0.076505	0.542221
H61	H	1.149987	-0.121613	0.466324
H62	H	1.155217	-0.033928	0.467106
H63	H	1.092420	-0.669760	-0.011357
H64	H	1.004334	-0.125451	0.314334
C65	C	0.869516	-0.341683	-0.234080
H66	H	0.877682	-0.394553	-0.225939
H67	H	0.813636	-0.328710	-0.224954
H68	H	0.878609	-0.328686	-0.289969
C69	C	0.550886	0.075464	-0.253360
H70	H	0.525466	0.119354	-0.279478
H71	H	0.610025	0.077623	-0.254952
H72	H	0.528930	0.031654	-0.282500
C73	C	0.568612	-0.144072	-0.116242
H74	H	0.543479	-0.187536	-0.143582
H75	H	0.627685	-0.145401	-0.118484
H76	H	0.557402	-0.143613	-0.059176
C77	C	0.391594	0.076320	-0.249717
H78	H	0.432979	0.078082	-0.287844
H79	H	0.357071	0.032971	-0.261273
H80	H	0.357867	0.120657	-0.256052
C81	C	0.990781	0.143960	0.305869
H82	H	0.945121	0.130048	0.265572
H83	H	0.970220	0.172191	0.349767
H84	H	1.029538	0.173966	0.279491
H85	H	1.103008	0.076446	0.327391
H86	H	0.859630	-0.051035	0.441355
C87	C	0.994900	0.144771	0.467434
H88	H	0.948546	0.132760	0.497263
H89	H	1.035302	0.172842	0.502907
H90	H	0.975891	0.174119	0.419234
C91	C	0.849438	-0.069787	0.287419
H92	H	0.850276	-0.070194	0.228127
H93	H	0.875394	-0.114510	0.310902
H94	H	0.792846	-0.067669	0.299990
C95	C	1.108695	-0.824847	0.004899
H96	H	1.142609	-0.789896	0.038779
H97	H	1.078588	-0.855770	0.039776
H98	H	1.143547	-0.855751	-0.025254
C99	C	0.570132	0.144116	-0.118853
H100	H	0.611156	0.130636	-0.073650
H101	H	0.595871	0.173204	-0.158845
H102	H	0.527011	0.173094	-0.097908
H103	H	1.103916	-0.074627	0.328587
H104	H	1.000470	-0.125751	0.457653
H105	H	0.434215	-0.051898	0.015033
H106	H	0.885824	-0.813545	-0.217829
C107	C	0.869492	-0.175270	-0.234073
H108	H	0.835589	-0.210219	-0.267967
H109	H	0.834640	-0.144361	-0.203934
H110	H	0.899614	-0.144352	-0.268948
H111	H	1.102825	0.071638	0.471460
H112	H	0.433162	0.050928	0.014859
H113	H	0.577303	0.051570	0.012515
C114	C	0.849785	0.069566	0.286660
H115	H	0.850738	0.069488	0.227381
H116	H	0.793157	0.067793	0.299151
H117	H	0.875901	0.114374	0.309748
H118	H	0.885812	-0.669775	-0.217829
H119	H	0.416864	0.125632	-0.125993
H120	H	0.547108	-0.076563	-0.228485
C121	C	0.407046	-0.144890	-0.120370
H122	H	0.377215	-0.132878	-0.074020
H123	H	0.371569	-0.172958	-0.160771
H124	H	0.455237	-0.174241	-0.101352
C125	C	0.391897	-0.071934	-0.251991
H126	H	0.356183	-0.029046	-0.260991
H127	H	0.433566	-0.070353	-0.289811
H128	H	0.359457	-0.116803	-0.261419
H129	H	1.092372	-0.186578	-0.011348
H130	H	1.092382	-0.330344	-0.011347
