data_functionalizedCrystal
_audit_creation_method	'MofGen! by Chris Wilmer'
_symmetry_space_group_name_H-M	'P1'
_symmetry_Int_Tables_number	1
_symmetry_cell_setting	triclinic
loop_
_symmetry_equiv_pos_as_xyz
  x,y,z
_cell_length_a	25.639242
_cell_length_b	11.169416
_cell_length_c	11.169409
_cell_angle_alpha	90.030874
_cell_angle_beta	89.968060
_cell_angle_gamma	89.994132
loop_
_atom_site_label
_atom_site_type_symbol
_atom_site_fract_x
_atom_site_fract_y
_atom_site_fract_z
Zn1	Zn	0.799379	0.477853	-0.678943
Zn2	Zn	1.132712	0.811186	-0.345610
Zn3	Zn	1.466045	1.144520	-0.012276
Zn4	Zn	0.799330	0.678593	-0.478265
Zn5	Zn	1.132664	1.011927	-0.144932
Zn6	Zn	1.465997	1.345260	0.188402
Zn7	Zn	0.711940	0.477907	-0.478235
Zn8	Zn	1.045273	0.811241	-0.144901
Zn9	Zn	1.378607	1.144574	0.188432
Zn10	Zn	0.711943	0.678477	-0.678867
Zn11	Zn	1.045277	1.011810	-0.345534
Zn12	Zn	1.378610	1.345144	-0.012201
O13	O	0.755648	0.578208	-0.578577
O14	O	1.088981	0.911541	-0.245244
O15	O	1.422315	1.244874	0.088089
O16	O	0.872537	0.504508	-0.652367
O17	O	1.205871	0.837841	-0.319033
O18	O	1.539204	1.171174	0.014300
O19	O	0.787716	0.652044	-0.310311
O20	O	1.121050	0.985377	0.023022
O21	O	1.454383	1.318710	0.356356
O22	O	0.723558	0.309950	-0.504878
O23	O	1.056891	0.643284	-0.171545
O24	O	1.390224	0.976617	0.161788
O25	O	0.872502	0.651991	-0.504929
O26	O	1.205835	0.985324	-0.171596
O27	O	1.539169	1.318657	0.161737
O28	O	0.787798	0.309910	-0.652338
O29	O	1.121132	0.643244	-0.319004
O30	O	1.454465	0.976577	0.014329
O31	O	0.723511	0.504600	-0.310289
O32	O	1.056844	0.837934	0.023044
O33	O	1.390178	1.171267	0.356378
O34	O	0.638775	0.504487	-0.504805
O35	O	0.972109	0.837821	-0.171472
O36	O	1.305442	1.171154	0.161862
O37	O	0.723563	0.651792	-0.846827
O38	O	1.056897	0.985126	-0.513494
O39	O	1.390230	1.318459	-0.180161
O40	O	0.638778	0.651845	-0.652209
O41	O	0.972111	0.985178	-0.318875
O42	O	1.305444	1.318512	0.014458
O43	O	0.787802	0.504395	-0.846883
O44	O	1.121135	0.837728	-0.513549
O45	O	1.454468	1.171061	-0.180216
O46	O	0.787719	0.846528	-0.504856
O47	O	1.121053	1.179861	-0.171523
O48	O	1.454386	1.513194	0.161810
O49	O	0.723517	0.846442	-0.652238
O50	O	1.056850	1.179776	-0.318905
O51	O	1.390183	1.513109	0.014429
C52	C	0.755627	0.890032	-0.578568
C53	C	1.088961	1.223366	-0.245235
C54	C	1.422294	1.556699	0.088098
C55	C	0.755666	1.023432	-0.578605
C56	C	1.089000	1.356766	-0.245271
C57	C	1.422333	1.690099	0.088062
C58	C	0.619805	0.578160	-0.578496
C59	C	0.953139	0.911494	-0.245163
C60	C	1.286472	1.244827	0.088171
C61	C	0.561691	0.578169	-0.578490
C62	C	0.895025	0.911502	-0.245156
C63	C	1.228358	1.244836	0.088177
C64	C	0.755688	0.578074	-0.891620
C65	C	1.089021	0.911408	-0.558287
C66	C	1.422355	1.244741	-0.224953
C67	C	0.755705	0.578018	-1.025020
C68	C	1.089039	0.911351	-0.691687
C69	C	1.422372	1.244684	-0.358354
C70	C	0.201339	0.655065	-0.655258
C71	C	0.534672	0.988399	-0.321925
C72	C	0.868005	1.321732	0.011409
C73	C	0.146734	0.655073	-0.655277
C74	C	0.480068	0.988406	-0.321944
C75	C	0.813401	1.321739	0.011390
O76	O	0.118506	0.720393	-0.720479
O77	O	0.451839	1.053727	-0.387146
O78	O	0.785173	1.387060	-0.053812
N79	N	0.119409	0.578241	-0.578656
N80	N	0.452742	0.911574	-0.245322
N81	N	0.786076	1.244907	0.088011
C82	C	0.146691	0.501388	-0.502019
C83	C	0.480024	0.834721	-0.168686
C84	C	0.813358	1.168055	0.164647
O85	O	0.118435	0.436037	-0.436850
O86	O	0.451768	0.769370	-0.103516
O87	O	0.785101	1.102703	0.229817
C88	C	0.201294	0.501376	-0.502007
C89	C	0.534628	0.834709	-0.168674
C90	C	0.867961	1.168042	0.164659
C91	C	0.228617	0.578221	-0.578625
C92	C	0.561950	0.911554	-0.245292
C93	C	0.895283	1.244888	0.088042
C94	C	0.228661	0.731903	-0.731870
C95	C	0.561994	1.065237	-0.398537
C96	C	0.895328	1.398570	-0.065203
C97	C	0.283262	0.731897	-0.731849
C98	C	0.616595	1.065231	-0.398516
C99	C	0.949928	1.398564	-0.065183
C100	C	0.310540	0.655053	-0.655216
C101	C	0.643873	0.988386	-0.321883
C102	C	0.977206	1.321720	0.011450
C103	C	0.283217	0.578215	-0.578604
C104	C	0.616550	0.911548	-0.245271
C105	C	0.949884	1.244882	0.088063
C106	C	0.228575	0.424518	-0.425378
C107	C	0.561908	0.757851	-0.092045
C108	C	0.895242	1.091184	0.241289
C109	C	0.283182	0.424511	-0.425373
C110	C	0.616515	0.757845	-0.092040
C111	C	0.949849	1.091178	0.241293
C112	C	0.310505	0.501357	-0.501991
C113	C	0.643838	0.834690	-0.168657
C114	C	0.977171	1.168023	0.164676
C115	C	0.365096	0.501365	-0.501950
C116	C	0.698429	0.834698	-0.168617
C117	C	1.031762	1.168031	0.164717
N118	N	0.392421	0.578196	-0.578571
N119	N	0.725754	0.911530	-0.245238
N120	N	1.059088	1.244863	0.088095
C121	C	0.365143	0.655041	-0.655204
C122	C	0.698476	0.988374	-0.321871
C123	C	1.031810	1.321707	0.011462
C124	C	0.032020	0.501419	-0.502052
C125	C	0.365354	0.834752	-0.168719
C126	C	0.698687	1.168085	0.164615
C127	C	-0.022582	0.501436	-0.502057
C128	C	0.310751	0.834770	-0.168724
C129	C	0.644085	1.168103	0.164610
C130	C	-0.022535	0.655119	-0.655316
C131	C	0.310798	0.988453	-0.321983
C132	C	0.644132	1.321786	0.011350
C133	C	0.032068	0.655107	-0.655304
C134	C	0.365402	0.988440	-0.321971
C135	C	0.698735	1.321774	0.011362
C136	C	0.059345	0.578250	-0.578673
C137	C	0.392679	0.911584	-0.245340
C138	C	0.726012	1.244917	0.087994
C139	C	0.479808	0.655023	-0.655154
C140	C	0.813141	0.988356	-0.321821
C141	C	1.146475	1.321689	0.011513
C142	C	0.534413	0.655013	-0.655123
C143	C	0.867747	0.988347	-0.321789
C144	C	1.201080	1.321680	0.011544
C145	C	0.534361	0.501326	-0.501868
C146	C	0.867695	0.834660	-0.168535
C147	C	1.201028	1.167993	0.164798
C148	C	0.479761	0.501340	-0.501895
C149	C	0.813094	0.834673	-0.168561
C150	C	1.146428	1.168006	0.164772
C151	C	0.452485	0.578192	-0.578547
C152	C	0.785819	0.911525	-0.245214
C153	C	1.119152	1.244858	0.088120
O154	O	0.393359	0.436073	-0.436785
O155	O	0.726692	0.769407	-0.103451
O156	O	1.060025	1.102740	0.229882
O157	O	0.393406	0.720370	-0.720374
O158	O	0.726739	1.053703	-0.387041
O159	O	1.060072	1.387037	-0.053707
C160	C	0.892021	0.578256	-0.578660
C161	C	1.225354	0.911589	-0.245327
C162	C	1.558688	1.244923	0.088007
C163	C	0.950135	0.578277	-0.578695
C164	C	1.283468	0.911610	-0.245362
C165	C	1.616802	1.244943	0.087972
C166	C	0.755683	0.265165	-0.578613
C167	C	1.089016	0.598499	-0.245280
C168	C	1.422350	0.931832	0.088054
C169	C	0.755698	0.131765	-0.578628
C170	C	1.089031	0.465099	-0.245295
C171	C	1.422365	0.798432	0.088039
C172	C	0.755638	0.578254	-0.266753
C173	C	1.088971	0.911587	0.066581
C174	C	1.422305	1.244921	0.399914
C175	C	0.755722	0.577973	-0.133353
C176	C	1.089056	0.911306	0.199980
C177	C	1.422389	1.244639	0.533313
H178	H	0.556657	0.717595	-0.717515
H179	H	0.889990	1.050928	-0.384182
H180	H	1.223324	1.384261	-0.050848
H181	H	0.457607	0.717600	-0.717575
H182	H	0.790940	1.050934	-0.384241
H183	H	1.124273	1.384267	-0.050908
Br184	Br	0.191509	0.320214	-0.321397
Br185	Br	0.524842	0.653547	0.011936
Br186	Br	0.858175	0.986880	0.345270
H187	H	-0.044755	0.717687	-0.717719
H188	H	0.288579	1.051020	-0.384386
H189	H	0.621912	1.384353	-0.051052
H190	H	0.054311	0.717680	-0.717695
H191	H	0.387644	1.051013	-0.384362
H192	H	0.720977	1.384346	-0.051028
Br193	Br	0.571392	0.397043	-0.397871
Br194	Br	0.904725	0.730377	-0.064537
Br195	Br	1.238059	1.063710	0.268796
H196	H	0.206457	0.794480	-0.794281
H197	H	0.539790	1.127813	-0.460947
H198	H	0.873124	1.461146	-0.127614
Br199	Br	0.320198	0.320196	-0.321371
Br200	Br	0.653531	0.653529	0.011962
Br201	Br	0.986865	0.986863	0.345296
H202	H	0.305503	0.794470	-0.794242
H203	H	0.638836	1.127804	-0.460908
H204	H	0.972169	1.461137	-0.127575
Br205	Br	0.442679	0.397072	-0.397890
Br206	Br	0.776012	0.730405	-0.064557
Br207	Br	1.109346	1.063739	0.268777
Br208	Br	-0.059656	0.397161	-0.398053
Br209	Br	0.273678	0.730495	-0.064719
Br210	Br	0.607011	1.063828	0.268614
H211	H	0.054226	0.438834	-0.439641
H212	H	0.387559	0.772167	-0.106307
H213	H	0.720893	1.105500	0.227026
