data_functionalizedCrystal
_audit_creation_method	'MofGen! by Chris Wilmer'
_symmetry_space_group_name_H-M	'P1'
_symmetry_Int_Tables_number	1
_symmetry_cell_setting	triclinic
loop_
_symmetry_equiv_pos_as_xyz
  x,y,z
_cell_length_a	19.377369
_cell_length_b	21.606444
_cell_length_c	21.606444
_cell_angle_alpha	119.993471
_cell_angle_beta	48.637209
_cell_angle_gamma	89.967253
loop_
_atom_site_label
_atom_site_type_symbol
_atom_site_fract_x
_atom_site_fract_y
_atom_site_fract_z
Zr1	Zr	0.840257	-0.052455	0.410758
O2	O	0.882935	0.039579	0.397209
O3	O	0.700991	-0.060595	0.454960
O4	O	0.700972	0.068523	0.584078
O5	O	1.026505	-0.214223	0.120684
O6	O	0.700974	0.068521	0.685928
O7	O	0.882953	-0.089539	0.268091
O8	O	0.701008	-0.162448	0.454959
O9	O	1.026472	0.016746	0.351653
O10	O	0.794048	-0.088320	0.501436
O11	O	0.901178	-0.181368	0.315418
O12	O	0.901156	-0.029348	0.467438
O13	O	1.008285	-0.122397	0.281421
Zr14	Zr	1.069209	-0.251314	0.338100
Zr15	Zr	0.840260	-0.052458	0.573197
Zr16	Zr	1.069206	-0.251311	0.175661
Zr17	Zr	1.069182	-0.088871	0.338101
Zr18	Zr	0.840284	-0.214897	0.410757
O19	O	1.208475	-0.243173	0.293898
O20	O	0.882939	0.039575	0.628176
O21	O	1.208470	-0.243168	0.062931
O22	O	1.026531	-0.343347	0.351649
O23	O	0.700996	-0.060600	0.685927
O24	O	1.026526	-0.343343	0.120683
O25	O	0.882961	-0.089546	0.628174
O26	O	1.208494	-0.372291	0.164780
O27	O	1.208492	-0.372289	0.062930
O28	O	1.026513	-0.214229	0.480767
O29	O	1.026474	0.016744	0.480770
O30	O	0.882991	-0.320512	0.268088
O31	O	0.882994	-0.320514	0.397205
O32	O	0.701010	-0.162450	0.584076
O33	O	1.208456	-0.141318	0.164782
O34	O	1.208458	-0.141320	0.293899
O35	O	1.008310	-0.274420	0.281420
O36	O	0.901181	-0.181371	0.467437
O37	O	1.008288	-0.122400	0.433440
O38	O	1.115418	-0.215448	0.247422
C39	C	0.668382	-0.106333	0.465312
C40	C	0.571198	-0.090873	0.496157
C41	C	0.954699	0.051307	0.374431
C42	C	0.954688	0.120268	0.374432
C43	C	0.954766	-0.355075	0.374427
C44	C	0.954778	-0.424037	0.374427
C45	C	0.531166	-0.283144	0.112117
C46	C	0.439831	-0.268683	0.141126
C47	C	0.328005	-0.171548	0.335313
C48	C	0.419332	-0.186003	0.306321
C49	C	0.520907	-0.241801	0.194721
C50	C	0.409074	-0.144661	0.388925
C51	C	0.500393	-0.159112	0.359934
C52	C	0.601970	-0.214905	0.248339
C53	C	0.612227	-0.256252	0.165730
C54	C	0.307498	-0.088858	0.500524
C55	C	0.297239	-0.047516	0.583128
C56	C	0.388559	-0.061971	0.554138
C57	C	0.490137	-0.117765	0.442543
C58	C	0.378303	-0.020624	0.636748
C59	C	0.469622	-0.035075	0.607757
C60	C	0.581456	-0.132216	0.413553
C61	C	1.241083	-0.197435	0.283546
C62	C	1.338268	-0.212895	0.252702
C63	C	0.954729	-0.151880	0.171243
C64	C	0.954727	-0.151879	0.102284
C65	C	1.010613	0.104097	0.277332
C66	C	1.010631	0.168891	0.277328
C67	C	0.954717	0.249858	0.374428
C68	C	0.898790	0.266028	0.471535
C69	C	0.898779	0.201233	0.471535
C70	C	0.898833	0.527340	0.471536
C71	C	0.898846	0.592136	0.471530
C72	C	1.010685	0.494997	0.277330
C73	C	1.010674	0.430202	0.277330
C74	C	0.954753	0.446377	0.374434
C75	C	0.954736	0.376119	0.374436
C76	C	0.954727	0.320116	0.374430
C77	C	0.875644	-0.083188	0.151095
C78	C	0.875642	-0.083190	0.086299
C79	C	0.954728	-0.151882	-0.027309
C80	C	1.033815	-0.220579	-0.076121
C81	C	1.033812	-0.220579	-0.011324
C82	C	1.033828	-0.220584	-0.337442
C83	C	1.033827	-0.220579	-0.402238
C84	C	0.875658	-0.083196	-0.239819
C85	C	0.875655	-0.083195	-0.175022
C86	C	0.954738	-0.151894	-0.223838
C87	C	0.954739	-0.151891	-0.153578
C88	C	0.954733	-0.151883	-0.097571
C89	C	0.954737	-0.151888	0.577615
C90	C	0.954738	-0.151889	0.646574
C91	C	0.668353	0.096854	0.668500
C92	C	0.571158	0.181274	0.768304
C93	C	0.668386	-0.106337	0.668498
C94	C	0.571203	-0.090878	0.768302
C95	C	0.954762	-0.355071	0.171241
C96	C	0.954772	-0.424031	0.102281
C97	C	1.241079	-0.197431	0.080360
C98	C	1.338263	-0.212890	-0.019444
C99	C	1.241113	-0.400623	0.080359
C100	C	1.338308	-0.485042	-0.019446
C101	C	0.954704	0.051303	0.577617
C102	C	0.954694	0.120263	0.646577
C103	C	0.581424	0.251707	0.797435
C104	C	0.490108	0.331033	0.891218
C105	C	0.388527	0.339924	0.955866
C106	C	0.378264	0.269483	0.926733
C107	C	0.469579	0.190158	0.832955
C108	C	0.469633	-0.035039	0.832928
C109	C	0.378310	-0.020498	0.926716
C110	C	0.388560	-0.061801	0.955872
C111	C	0.490141	-0.117644	0.891240
C112	C	0.581461	-0.132180	0.797458
C113	C	1.010709	-0.504996	0.052140
C114	C	1.010740	-0.569801	-0.012671
C115	C	0.954827	-0.553638	-0.027333
C116	C	0.898889	-0.472666	0.022811
C117	C	0.898865	-0.407864	0.087614
C118	C	1.439833	-0.268722	-0.084063
C119	C	1.531156	-0.283246	-0.177834
C120	C	1.520906	-0.241940	-0.206987
C121	C	1.419325	-0.186101	-0.142358
C122	C	1.328005	-0.171574	-0.048585
C123	C	1.439870	-0.493906	-0.084072
C124	C	1.531203	-0.573222	-0.177861
C125	C	1.520972	-0.643674	-0.207018
C126	C	1.419399	-0.634807	-0.142387
C127	C	1.328068	-0.555492	-0.048604
C128	C	1.010611	0.104076	0.661221
C129	C	1.010599	0.168865	0.726026
C130	C	0.954674	0.249841	0.776180
C131	C	0.898749	0.266028	0.761535
C132	C	0.898756	0.201240	0.696738
H133	H	0.664167	-0.177653	0.322676
H134	H	1.098206	-0.276513	-0.168626
H135	H	1.595349	-0.708252	-0.283386
H136	H	0.676326	-0.226667	0.224737
H137	H	1.245375	-0.548286	0.004013
H138	H	0.461206	0.132813	0.809243
H139	H	1.056144	0.155669	0.737934
O140	O	1.071018	-0.522438	0.067947
H141	H	1.156965	-0.567560	-0.013722
H142	H	1.613900	-0.580425	-0.230473
O143	O	0.458560	0.009520	0.696852
H144	H	0.539126	-0.009895	0.657941
H145	H	0.853241	0.214406	0.550603
H146	H	0.314181	0.404520	1.032224
O147	O	0.691013	-0.192422	0.727743
H148	H	0.682786	-0.218704	0.763772
H149	H	0.664127	0.244484	0.744805
H150	H	1.448199	-0.302367	-0.060345
H151	H	0.694938	-0.301689	0.074854
H152	H	0.314192	-0.049958	1.032238
O153	O	1.218453	-0.111356	0.021106
H154	H	1.209188	-0.132820	-0.030355
H155	H	1.056136	0.038174	0.198264
O156	O	0.501190	-0.162198	0.922684
H157	H	0.420619	-0.142711	0.998746
H158	H	0.853312	0.658065	0.550604
H159	H	0.461267	-0.001392	0.809212
O160	O	1.071017	0.477544	0.172585
H161	H	1.061646	0.536198	0.188887
O162	O	0.954851	-0.623534	-0.097225
H163	H	0.871586	-0.610248	-0.045931
H164	H	0.811247	-0.027249	0.243598
H165	H	0.811258	-0.027258	-0.082517
H166	H	0.954677	0.302588	0.828939
O167	O	1.070926	0.016746	0.607148
H168	H	1.132749	-0.024510	0.516055
O169	O	0.268700	0.279076	0.996455
H170	H	0.206937	0.346071	1.066545
O171	O	1.408369	-0.710797	-0.173780
H172	H	1.488946	-0.767433	-0.249823
H173	H	1.448221	-0.436549	-0.060347
H174	H	0.853217	0.331966	0.802379
O175	O	0.640747	-0.343338	-0.008242
H176	H	0.650002	-0.321908	-0.049253
O177	O	0.838370	-0.320538	0.141797
H178	H	0.870577	-0.319027	0.077222
O179	O	0.838457	0.218701	0.680930
H180	H	0.799583	0.285892	0.726683
H181	H	1.056173	0.155716	0.198259
O182	O	0.838507	0.544788	0.576269
H183	H	0.799618	0.611977	0.643789
O184	O	1.119110	-0.294665	-0.063965
H185	H	1.174110	-0.342429	-0.153851
H186	H	0.245294	-0.126114	0.426179
O187	O	0.450894	-0.313281	0.052027
H188	H	0.536868	-0.354512	-0.030443
O189	O	0.501188	0.407003	0.922623
H190	H	0.587166	0.387487	0.861897
O191	O	0.838484	0.353353	0.576268
H192	H	0.776676	0.394615	0.599691
O193	O	0.208996	-0.073264	0.531804
H194	H	0.209123	-0.132385	0.497524
H195	H	0.214528	-0.002082	0.673994
O196	O	0.268745	0.039568	0.757111
H197	H	0.224534	0.006517	0.774954
O198	O	1.070976	0.342874	0.172603
H199	H	1.156924	0.322598	0.107275
O200	O	0.790354	-0.009098	0.138939
H201	H	0.735371	0.038673	0.228820
O202	O	0.790354	-0.009095	-0.187159
H203	H	0.803632	-0.020633	-0.251296
H204	H	1.056291	-0.635726	-0.053490
H205	H	0.853367	-0.459518	0.010862
O206	O	1.119116	-0.294678	-0.524775
H207	H	1.174099	-0.342455	-0.547833
O208	O	1.119119	-0.294678	-0.390091
H209	H	1.174115	-0.342438	-0.479977
H210	H	0.295608	0.024973	0.979328
H211	H	1.595274	-0.253777	-0.283346
O212	O	1.640710	-0.343484	-0.247543
H213	H	1.632486	-0.369775	-0.211523
H214	H	1.410996	-0.152473	-0.166110
