data_functionalizedCrystal
_audit_creation_method	'MofGen! by Chris Wilmer'
_symmetry_space_group_name_H-M	'P1'
_symmetry_Int_Tables_number	1
_symmetry_cell_setting	triclinic
loop_
_symmetry_equiv_pos_as_xyz
  x,y,z
_cell_length_a	21.395362
_cell_length_b	19.121379
_cell_length_c	21.395356
_cell_angle_alpha	87.588859
_cell_angle_beta	89.970281
_cell_angle_gamma	87.529441
loop_
_atom_site_label
_atom_site_type_symbol
_atom_site_fract_x
_atom_site_fract_y
_atom_site_fract_z
Zn1	Zn	-0.208609	-1.073717	-0.313509
Zn2	Zn	-0.313390	-1.073612	-0.208732
Zn3	Zn	-0.213094	-0.956260	-0.213203
Zn4	Zn	-0.317822	-0.956225	-0.317926
O5	O	-0.263229	-1.014953	-0.263343
O6	O	-0.218776	-1.171986	-0.295890
O7	O	-0.300107	-1.058015	-0.121648
O8	O	-0.124819	-0.971899	-0.226531
O9	O	-0.295758	-1.171909	-0.218911
O10	O	-0.121524	-1.058195	-0.300226
O11	O	-0.226421	-0.971797	-0.124933
O12	O	-0.230719	-0.857972	-0.230814
O13	O	-0.303313	-0.971840	-0.405017
O14	O	-0.307662	-0.857946	-0.307754
O15	O	-0.223075	-1.058161	-0.401772
O16	O	-0.401658	-1.057982	-0.223194
O17	O	-0.404914	-0.971738	-0.303419
C18	C	-0.270158	-0.832475	-0.270249
C19	C	-0.273138	-0.754411	-0.273219
C20	C	-0.234417	-0.717728	-0.234621
C21	C	-0.237222	-0.644378	-0.237411
C22	C	-0.278746	-0.607711	-0.278803
C23	C	-0.317471	-0.644399	-0.317402
C24	C	-0.314668	-0.717748	-0.314608
C25	C	-0.289217	-0.386245	-0.289236
C26	C	-0.292015	-0.312891	-0.292028
C27	C	-0.211767	-0.312875	-0.212036
C28	C	-0.208966	-0.386226	-0.209249
C29	C	-0.247693	-0.422907	-0.247846
C30	C	-0.281612	-0.532736	-0.281657
C31	C	-0.244829	-0.497881	-0.244988
C32	C	-0.426020	-1.014864	-0.263314
C33	C	-0.495660	-1.014889	-0.263320
C34	C	-0.526602	-1.059798	-0.301722
C35	C	-0.592036	-1.059822	-0.301737
C36	C	-0.626526	-1.014946	-0.263337
C37	C	-0.595577	-0.970029	-0.224933
C38	C	-0.530144	-0.970001	-0.224924
C39	C	-0.730444	-1.009480	-0.207106
C40	C	-0.795875	-1.009514	-0.207113
C41	C	-0.828344	-1.015030	-0.263364
C42	C	-0.795372	-1.020527	-0.319609
C43	C	-0.729939	-1.020499	-0.319601
C44	C	-0.697478	-1.014972	-0.263343
C45	C	-0.930237	-1.059967	-0.301786
C46	C	-0.995673	-1.059987	-0.301801
C47	C	-0.999212	-0.970197	-0.224991
C48	C	-0.933778	-0.970174	-0.224981
C49	C	-0.899294	-1.015062	-0.263378
C50	C	-0.099801	-1.015063	-0.263384
C51	C	-0.030158	-1.015109	-0.263402
C52	C	-0.263188	-1.015009	-0.426764
C53	C	-0.263170	-1.015032	-0.496404
C54	C	-0.256269	-0.198144	-0.256403
C55	C	-0.253294	-0.276209	-0.253430
C56	C	-0.224797	-0.970150	-0.530817
C57	C	-0.224785	-0.970148	-0.596253
C58	C	-0.263140	-1.015040	-0.627272
C59	C	-0.301522	-1.059925	-0.592851
C60	C	-0.301537	-1.059921	-0.527417
C61	C	-0.265659	-1.078320	-0.728557
C62	C	-0.265640	-1.078325	-0.793990
C63	C	-0.263098	-1.015052	-0.829093
C64	C	-0.260562	-0.951771	-0.798755
C65	C	-0.260577	-0.951767	-0.733321
C66	C	-0.263129	-1.015049	-0.698224
C67	C	-0.224710	-0.970163	-0.934459
C68	C	-0.224702	-0.970160	-0.999896
C69	C	-0.301435	-1.059943	-0.996492
C70	C	-0.301446	-1.059940	-0.931057
C71	C	-0.263080	-1.015051	-0.900044
C72	C	-0.263223	-1.014939	-0.100556
C73	C	-0.263059	-1.015051	-0.030910
H74	H	-0.175158	-0.416075	-0.175539
H75	H	-0.346199	-0.747614	-0.346038
H76	H	-0.180238	-0.283002	-0.180612
C77	C	-0.892302	-1.109336	-0.344031
N78	N	-0.863732	-1.146518	-0.375852
H79	H	-0.351283	-0.614539	-0.351101
H80	H	-0.258514	-0.900241	-0.708622
H81	H	-0.315420	-0.502874	-0.315358
H82	H	-1.027294	-0.933654	-0.193730
C83	C	-1.029708	-1.109396	-0.344046
N84	N	-1.055343	-1.146614	-0.375863
C85	C	-0.899741	-0.920766	-0.182739
N86	N	-0.874106	-0.883546	-0.150924
H87	H	-0.193456	-0.933607	-1.027914
H88	H	-0.822716	-1.005042	-0.161315
H89	H	-0.325828	-0.283039	-0.325738
H90	H	-0.704013	-1.004986	-0.161297
C91	C	-0.182598	-0.920766	-0.496707
N92	N	-0.150815	-0.883567	-0.471015
H93	H	-0.623664	-0.933489	-0.193669
C94	C	-0.188738	-0.758054	-0.189087
N95	N	-0.154333	-0.788426	-0.154788
H96	H	-0.504951	-0.933430	-0.193652
C97	C	-0.182567	-0.920776	-0.634115
N98	N	-0.150766	-0.883590	-0.662630
C99	C	-0.343597	-1.109356	-1.030608
N100	N	-0.375345	-1.146587	-1.056308
H101	H	-0.267724	-1.129850	-0.699982
H102	H	-0.320752	-0.416102	-0.320664
H103	H	-0.258488	-0.900247	-0.827334
C104	C	-0.182513	-0.920778	-0.900343
N105	N	-0.150731	-0.883579	-0.874648
C106	C	-0.488673	-1.109181	-0.343956
N107	N	-0.460103	-1.146378	-0.375765
C108	C	-0.199151	-0.538217	-0.199462
N109	N	-0.164743	-0.568604	-0.165176
C110	C	-0.343739	-1.109311	-0.489561
N111	N	-0.375521	-1.146518	-0.461046
C112	C	-0.626078	-1.109230	-0.343981
N113	N	-0.651717	-1.146445	-0.375799
C114	C	-0.343638	-1.109339	-0.893200
N115	N	-0.375413	-1.146554	-0.864686
C116	C	-0.268428	-1.147935	-0.827355
N117	N	-0.270529	-1.200367	-0.852485
H118	H	-0.205695	-0.614514	-0.205978
C119	C	-0.693673	-1.026540	-0.381469
N120	N	-0.666357	-1.031087	-0.428070
C121	C	-0.831083	-1.026593	-0.381491
N122	N	-0.857983	-1.031161	-0.428099
C123	C	-0.343801	-1.109210	-0.626977
N124	N	-0.375681	-1.146298	-0.652682
